NNW.pdb
     RDKit          3D

 31 32  0  0  1  0  0  0  0  0999 V2000
    7.8289  -23.3747   20.3763 N   0  0  0  0  0  0  0  0  0  0  0  0
    7.5810  -21.9865   20.2778 C   0  0  0  0  0  0  0  0  0  0  0  0
    6.4145  -21.5836   20.1019 O   0  0  0  0  0  0  0  0  0  0  0  0
    8.7009  -21.0407   20.3850 C   0  0  0  0  0  0  0  0  0  0  0  0
    8.7409  -20.3597   21.7533 C   0  0  2  0  0  0  0  0  0  0  0  0
    7.4533  -19.8013   22.0915 N   0  0  0  0  0  0  0  0  0  0  0  0
    9.8051  -19.3435   21.7085 C   0  0  0  0  0  0  0  0  0  0  0  0
   10.9814  -19.7149   21.4646 O   0  0  0  0  0  0  0  0  0  0  0  0
   11.6741  -16.5461   19.0827 N   0  0  0  0  0  0  0  0  0  0  0  0
   10.3915  -16.1861   19.5573 C   0  0  0  0  0  0  0  0  0  0  0  0
    9.4299  -16.1456   18.7439 O   0  0  0  0  0  0  0  0  0  0  0  0
   10.1599  -15.8565   20.9948 C   0  0  0  0  0  0  0  0  0  0  0  0
   10.5599  -17.0071   21.8889 C   0  0  2  0  0  0  0  0  0  0  0  0
    9.5030  -17.9774   21.9369 N   0  0  0  0  0  0  0  0  0  0  0  0
   10.8556  -16.4526   23.2443 C   0  0  0  0  0  0  0  0  0  0  0  0
   11.7115  -15.5447   23.3532 O   0  0  0  0  0  0  0  0  0  0  0  0
   10.2109  -16.9107   24.4108 N   0  0  0  0  0  0  0  0  0  0  0  0
   10.5059  -16.4554   25.7681 C   0  0  1  0  0  0  0  0  0  0  0  0
    9.9733  -15.0912   26.0018 C   0  0  0  0  0  0  0  0  0  0  0  0
    8.5265  -14.9158   25.9190 C   0  0  0  0  0  0  0  0  0  0  0  0
    7.6236  -15.9457   25.6957 C   0  0  0  0  0  0  0  0  0  0  0  0
    6.3686  -15.4370   25.6502 N   0  0  0  0  0  0  0  0  0  0  0  0
    6.4224  -14.0957   25.8393 C   0  0  0  0  0  0  0  0  0  0  0  0
    5.4717  -13.1028   25.9034 C   0  0  0  0  0  0  0  0  0  0  0  0
    5.7791  -11.7755   26.1308 C   0  0  0  0  0  0  0  0  0  0  0  0
    7.1086  -11.4557   26.2977 C   0  0  0  0  0  0  0  0  0  0  0  0
    8.0755  -12.4342   26.2364 C   0  0  0  0  0  0  0  0  0  0  0  0
    7.7728  -13.7703   26.0077 C   0  0  0  0  0  0  0  0  0  0  0  0
   10.0426  -17.4903   26.6987 C   0  0  0  0  0  0  0  0  0  0  0  0
   10.2434  -17.5056   28.0683 O   0  0  0  0  0  0  0  0  0  0  0  0
    9.3912  -18.4986   26.2482 O   0  0  0  0  0  0  0  0  0  0  0  0
  2  1  1  0
  2  4  1  0
  3  2  2  0
  4  5  1  0
  5  6  1  6
  7  8  2  0
  7  5  1  0
 10  9  1  0
 10 11  2  0
 13 12  1  6
 12 10  1  0
 13 14  1  0
 14  7  1  0
 15 13  1  0
 16 15  2  0
 17 15  1  0
 18 17  1  0
 18 19  1  1
 19 20  1  0
 20 28  1  0
 21 20  2  0
 21 22  1  0
 22 23  1  0
 23 24  1  0
 24 25  2  0
 26 25  1  0
 27 26  2  0
 28 23  2  0
 28 27  1  0
 29 30  1  0
 29 18  1  0
 31 29  2  0
M  END
$$$$
