NNW.pdb
     RDKit          3D

 31 32  0  0  1  0  0  0  0  0999 V2000
    4.8057  -19.3070   17.5355 N   0  0  0  0  0  0  0  0  0  0  0  0
    6.0528  -19.9377   17.7479 C   0  0  0  0  0  0  0  0  0  0  0  0
    6.0854  -21.1520   18.0278 O   0  0  0  0  0  0  0  0  0  0  0  0
    7.2905  -19.1532   17.6347 C   0  0  0  0  0  0  0  0  0  0  0  0
    8.0084  -19.0268   18.9787 C   0  0  2  0  0  0  0  0  0  0  0  0
    7.0632  -18.8595   20.0568 N   0  0  0  0  0  0  0  0  0  0  0  0
    8.9501  -17.9003   18.8707 C   0  0  0  0  0  0  0  0  0  0  0  0
    9.6195  -17.7752   17.8137 O   0  0  0  0  0  0  0  0  0  0  0  0
    7.4535  -15.0236   19.8344 N   0  0  0  0  0  0  0  0  0  0  0  0
    8.3195  -14.5209   18.8357 C   0  0  0  0  0  0  0  0  0  0  0  0
    7.8859  -13.6497   18.0352 O   0  0  0  0  0  0  0  0  0  0  0  0
    9.7279  -15.0012   18.7158 C   0  0  0  0  0  0  0  0  0  0  0  0
   10.0807  -15.9420   19.8443 C   0  0  2  0  0  0  0  0  0  0  0  0
    9.0941  -16.9804   19.9398 N   0  0  0  0  0  0  0  0  0  0  0  0
   10.1549  -15.1403   21.1028 C   0  0  0  0  0  0  0  0  0  0  0  0
    9.9288  -13.9096   21.0506 O   0  0  0  0  0  0  0  0  0  0  0  0
   10.4714  -15.7122   22.3514 N   0  0  0  0  0  0  0  0  0  0  0  0
    9.7997  -15.4027   23.6122 C   0  0  1  0  0  0  0  0  0  0  0  0
    8.3304  -15.3196   23.4287 C   0  0  0  0  0  0  0  0  0  0  0  0
    7.5295  -14.9757   24.5997 C   0  0  0  0  0  0  0  0  0  0  0  0
    6.8079  -15.8916   25.3522 C   0  0  0  0  0  0  0  0  0  0  0  0
    6.1592  -15.2393   26.3470 N   0  0  0  0  0  0  0  0  0  0  0  0
    6.4366  -13.9147   26.2687 C   0  0  0  0  0  0  0  0  0  0  0  0
    6.0694  -12.8178   27.0143 C   0  0  0  0  0  0  0  0  0  0  0  0
    6.5087  -11.5369   26.7415 C   0  0  0  0  0  0  0  0  0  0  0  0
    7.3539  -11.3759   25.6658 C   0  0  0  0  0  0  0  0  0  0  0  0
    7.7328  -12.4603   24.9066 C   0  0  0  0  0  0  0  0  0  0  0  0
    7.2942  -13.7505   25.1755 C   0  0  0  0  0  0  0  0  0  0  0  0
   10.2649  -16.3657   24.6162 C   0  0  0  0  0  0  0  0  0  0  0  0
   10.6604  -16.0698   25.9094 O   0  0  0  0  0  0  0  0  0  0  0  0
   10.3350  -17.6094   24.3130 O   0  0  0  0  0  0  0  0  0  0  0  0
  2  1  1  0
  2  4  1  0
  3  2  2  0
  4  5  1  0
  5  6  1  1
  7  8  2  0
  7  5  1  0
 10  9  1  0
 10 11  2  0
 13 12  1  6
 12 10  1  0
 13 14  1  0
 14  7  1  0
 15 13  1  0
 16 15  2  0
 17 15  1  0
 18 17  1  0
 18 19  1  6
 19 20  1  0
 20 28  1  0
 21 20  2  0
 21 22  1  0
 22 23  1  0
 23 24  1  0
 24 25  2  0
 26 25  1  0
 27 26  2  0
 28 23  2  0
 28 27  1  0
 29 30  1  0
 29 18  1  0
 31 29  2  0
M  END
$$$$
