NNW.pdb
     RDKit          3D

 31 32  0  0  1  0  0  0  0  0999 V2000
    6.6094  -17.5221   18.9124 N   0  0  0  0  0  0  0  0  0  0  0  0
    7.3768  -18.6936   18.7200 C   0  0  0  0  0  0  0  0  0  0  0  0
    7.3444  -19.2727   17.6167 O   0  0  0  0  0  0  0  0  0  0  0  0
    8.2008  -19.2095   19.8223 C   0  0  0  0  0  0  0  0  0  0  0  0
    8.0637  -18.3551   21.0828 C   0  0  2  0  0  0  0  0  0  0  0  0
    7.7981  -16.9764   20.7473 N   0  0  0  0  0  0  0  0  0  0  0  0
    9.3010  -18.5201   21.8633 C   0  0  0  0  0  0  0  0  0  0  0  0
    9.6584  -19.6818   22.1856 O   0  0  0  0  0  0  0  0  0  0  0  0
   10.7812  -15.5543   21.2806 N   0  0  0  0  0  0  0  0  0  0  0  0
   12.1115  -15.8998   21.6139 C   0  0  0  0  0  0  0  0  0  0  0  0
   13.0591  -15.2987   21.0408 O   0  0  0  0  0  0  0  0  0  0  0  0
   12.4090  -16.9562   22.6259 C   0  0  0  0  0  0  0  0  0  0  0  0
   11.1365  -17.5485   23.1855 C   0  0  2  0  0  0  0  0  0  0  0  0
   10.0677  -17.3889   22.2404 N   0  0  0  0  0  0  0  0  0  0  0  0
   10.8360  -16.8543   24.4738 C   0  0  0  0  0  0  0  0  0  0  0  0
   11.3999  -15.7634   24.7193 O   0  0  0  0  0  0  0  0  0  0  0  0
    9.9422  -17.3779   25.4295 N   0  0  0  0  0  0  0  0  0  0  0  0
    9.7224  -16.8268   26.7654 C   0  0  1  0  0  0  0  0  0  0  0  0
    8.2939  -16.4884   26.9755 C   0  0  0  0  0  0  0  0  0  0  0  0
    7.6926  -15.5284   26.0547 C   0  0  0  0  0  0  0  0  0  0  0  0
    7.2476  -15.8400   24.7777 C   0  0  0  0  0  0  0  0  0  0  0  0
    6.7713  -14.7186   24.1850 N   0  0  0  0  0  0  0  0  0  0  0  0
    6.8909  -13.6746   25.0414 C   0  0  0  0  0  0  0  0  0  0  0  0
    6.5613  -12.3404   24.9704 C   0  0  0  0  0  0  0  0  0  0  0  0
    6.7692  -11.4541   26.0093 C   0  0  0  0  0  0  0  0  0  0  0  0
    7.3355  -11.9543   27.1611 C   0  0  0  0  0  0  0  0  0  0  0  0
    7.6732  -13.2860   27.2523 C   0  0  0  0  0  0  0  0  0  0  0  0
    7.4672  -14.1820   26.2111 C   0  0  0  0  0  0  0  0  0  0  0  0
   10.3081  -17.7574   27.7363 C   0  0  0  0  0  0  0  0  0  0  0  0
   10.5778  -17.4863   29.0667 O   0  0  0  0  0  0  0  0  0  0  0  0
   10.6226  -18.9432   27.3636 O   0  0  0  0  0  0  0  0  0  0  0  0
  2  1  1  0
  2  4  1  0
  3  2  2  0
  4  5  1  0
  5  6  1  6
  7  8  2  0
  7  5  1  0
 10  9  1  0
 10 11  2  0
 13 12  1  6
 12 10  1  0
 13 14  1  0
 14  7  1  0
 15 13  1  0
 16 15  2  0
 17 15  1  0
 18 17  1  0
 18 19  1  1
 19 20  1  0
 20 28  1  0
 21 20  2  0
 21 22  1  0
 22 23  1  0
 23 24  1  0
 24 25  2  0
 26 25  1  0
 27 26  2  0
 28 23  2  0
 28 27  1  0
 29 30  1  0
 29 18  1  0
 31 29  2  0
M  END
$$$$
