NNW.pdb
     RDKit          3D

 31 32  0  0  1  0  0  0  0  0999 V2000
   14.7317  -15.5061   17.7327 N   0  0  0  0  0  0  0  0  0  0  0  0
   14.3789  -14.3319   18.4363 C   0  0  0  0  0  0  0  0  0  0  0  0
   15.1545  -13.3561   18.4272 O   0  0  0  0  0  0  0  0  0  0  0  0
   13.1043  -14.2796   19.1662 C   0  0  0  0  0  0  0  0  0  0  0  0
   12.6038  -15.6759   19.5373 C   0  0  2  0  0  0  0  0  0  0  0  0
   12.1118  -16.3754   18.3743 N   0  0  0  0  0  0  0  0  0  0  0  0
   11.5753  -15.5129   20.5778 C   0  0  0  0  0  0  0  0  0  0  0  0
   11.8941  -14.9490   21.6555 O   0  0  0  0  0  0  0  0  0  0  0  0
    6.8216  -15.2586   20.3825 N   0  0  0  0  0  0  0  0  0  0  0  0
    7.0293  -16.6114   20.7385 C   0  0  0  0  0  0  0  0  0  0  0  0
    6.0960  -17.4389   20.5596 O   0  0  0  0  0  0  0  0  0  0  0  0
    8.3261  -17.0716   21.3175 C   0  0  0  0  0  0  0  0  0  0  0  0
    9.3058  -15.9275   21.4374 C   0  0  2  0  0  0  0  0  0  0  0  0
   10.2558  -15.9845   20.3626 N   0  0  0  0  0  0  0  0  0  0  0  0
    9.9772  -16.0368   22.7675 C   0  0  0  0  0  0  0  0  0  0  0  0
   11.0653  -15.4432   22.9468 O   0  0  0  0  0  0  0  0  0  0  0  0
    9.4368  -16.7841   23.8332 N   0  0  0  0  0  0  0  0  0  0  0  0
    9.7893  -16.6156   25.2417 C   0  0  1  0  0  0  0  0  0  0  0  0
    9.5742  -15.2161   25.6828 C   0  0  0  0  0  0  0  0  0  0  0  0
    8.1964  -14.7363   25.7339 C   0  0  0  0  0  0  0  0  0  0  0  0
    7.0868  -15.5033   25.4083 C   0  0  0  0  0  0  0  0  0  0  0  0
    5.9690  -14.7485   25.5376 N   0  0  0  0  0  0  0  0  0  0  0  0
    6.3154  -13.5017   25.9417 C   0  0  0  0  0  0  0  0  0  0  0  0
    5.6022  -12.3625   26.2372 C   0  0  0  0  0  0  0  0  0  0  0  0
    6.1944  -11.1878   26.6586 C   0  0  0  0  0  0  0  0  0  0  0  0
    7.5665  -11.1819   26.7805 C   0  0  0  0  0  0  0  0  0  0  0  0
    8.2987  -12.3110   26.4891 C   0  0  0  0  0  0  0  0  0  0  0  0
    7.7091  -13.4948   26.0646 C   0  0  0  0  0  0  0  0  0  0  0  0
    9.0771  -17.6438   26.0082 C   0  0  0  0  0  0  0  0  0  0  0  0
    9.3052  -17.9797   27.3316 O   0  0  0  0  0  0  0  0  0  0  0  0
    8.1522  -18.3266   25.4408 O   0  0  0  0  0  0  0  0  0  0  0  0
  2  1  1  0
  2  4  1  0
  3  2  2  0
  4  5  1  0
  5  6  1  6
  7  8  2  0
  7  5  1  0
 10  9  1  0
 10 11  2  0
 13 12  1  6
 12 10  1  0
 13 14  1  0
 14  7  1  0
 15 13  1  0
 16 15  2  0
 17 15  1  0
 18 17  1  0
 18 19  1  1
 19 20  1  0
 20 28  1  0
 21 20  2  0
 21 22  1  0
 22 23  1  0
 23 24  1  0
 24 25  2  0
 26 25  1  0
 27 26  2  0
 28 23  2  0
 28 27  1  0
 29 30  1  0
 29 18  1  0
 31 29  2  0
M  END
$$$$
