NNW.pdb
     RDKit          3D

 31 32  0  0  1  0  0  0  0  0999 V2000
    7.9414  -12.3545   16.3338 N   0  0  0  0  0  0  0  0  0  0  0  0
    8.0519  -13.7455   16.5602 C   0  0  0  0  0  0  0  0  0  0  0  0
    8.7247  -14.4422   15.7755 O   0  0  0  0  0  0  0  0  0  0  0  0
    7.3734  -14.3479   17.7165 C   0  0  0  0  0  0  0  0  0  0  0  0
    8.3689  -14.8298   18.7722 C   0  0  2  0  0  0  0  0  0  0  0  0
    9.1975  -15.8929   18.2554 N   0  0  0  0  0  0  0  0  0  0  0  0
    7.5931  -15.2396   19.9544 C   0  0  0  0  0  0  0  0  0  0  0  0
    6.8782  -14.3814   20.5318 O   0  0  0  0  0  0  0  0  0  0  0  0
    4.6746  -18.9102   20.5968 N   0  0  0  0  0  0  0  0  0  0  0  0
    6.0836  -19.0233   20.6378 C   0  0  0  0  0  0  0  0  0  0  0  0
    6.6731  -19.6369   19.7083 O   0  0  0  0  0  0  0  0  0  0  0  0
    6.8779  -18.4316   21.7548 C   0  0  0  0  0  0  0  0  0  0  0  0
    6.9575  -16.9278   21.6298 C   0  0  2  0  0  0  0  0  0  0  0  0
    7.6559  -16.5750   20.4263 N   0  0  0  0  0  0  0  0  0  0  0  0
    7.6565  -16.4038   22.8418 C   0  0  0  0  0  0  0  0  0  0  0  0
    7.2975  -15.3030   23.3189 O   0  0  0  0  0  0  0  0  0  0  0  0
    8.7084  -17.0978   23.4728 N   0  0  0  0  0  0  0  0  0  0  0  0
    9.7875  -16.4746   24.2368 C   0  0  1  0  0  0  0  0  0  0  0  0
    9.5320  -15.0279   24.4401 C   0  0  0  0  0  0  0  0  0  0  0  0
    8.2881  -14.6569   25.1080 C   0  0  0  0  0  0  0  0  0  0  0  0
    7.2499  -15.5376   25.3768 C   0  0  0  0  0  0  0  0  0  0  0  0
    6.2391  -14.8655   25.9789 N   0  0  0  0  0  0  0  0  0  0  0  0
    6.5867  -13.5622   26.1143 C   0  0  0  0  0  0  0  0  0  0  0  0
    5.9642  -12.4605   26.6553 C   0  0  0  0  0  0  0  0  0  0  0  0
    6.5443  -11.2075   26.6941 C   0  0  0  0  0  0  0  0  0  0  0  0
    7.8071  -11.0805   26.1587 C   0  0  0  0  0  0  0  0  0  0  0  0
    8.4470  -12.1702   25.6119 C   0  0  0  0  0  0  0  0  0  0  0  0
    7.8688  -13.4324   25.5694 C   0  0  0  0  0  0  0  0  0  0  0  0
    9.9886  -17.2655   25.4557 C   0  0  0  0  0  0  0  0  0  0  0  0
    9.2351  -18.3561   25.8547 O   0  0  0  0  0  0  0  0  0  0  0  0
   10.9346  -16.9524   26.2624 O   0  0  0  0  0  0  0  0  0  0  0  0
  2  1  1  0
  2  4  1  0
  3  2  2  0
  4  5  1  0
  5  6  1  6
  7  8  2  0
  7  5  1  0
 10  9  1  0
 10 11  2  0
 13 12  1  1
 12 10  1  0
 13 14  1  0
 14  7  1  0
 15 13  1  0
 16 15  2  0
 17 15  1  0
 18 17  1  0
 18 19  1  1
 19 20  1  0
 20 28  1  0
 21 20  2  0
 21 22  1  0
 22 23  1  0
 23 24  1  0
 24 25  2  0
 26 25  1  0
 27 26  2  0
 28 23  2  0
 28 27  1  0
 29 30  1  0
 29 18  1  0
 31 29  2  0
M  END
$$$$
