NNW.pdb
     RDKit          3D

 31 32  0  0  1  0  0  0  0  0999 V2000
    9.2308  -13.6833   16.1662 N   0  0  0  0  0  0  0  0  0  0  0  0
    7.9344  -13.6630   16.7293 C   0  0  0  0  0  0  0  0  0  0  0  0
    7.0077  -13.1012   16.1132 O   0  0  0  0  0  0  0  0  0  0  0  0
    7.6991  -14.3047   18.0304 C   0  0  0  0  0  0  0  0  0  0  0  0
    8.9981  -14.8121   18.6573 C   0  0  2  0  0  0  0  0  0  0  0  0
    9.7080  -15.6790   17.7472 N   0  0  0  0  0  0  0  0  0  0  0  0
    8.6454  -15.4825   19.9196 C   0  0  0  0  0  0  0  0  0  0  0  0
    8.0425  -14.8219   20.8034 O   0  0  0  0  0  0  0  0  0  0  0  0
   10.1649  -18.3721   19.2260 N   0  0  0  0  0  0  0  0  0  0  0  0
    9.6392  -19.3475   20.1048 C   0  0  0  0  0  0  0  0  0  0  0  0
    9.9275  -20.5591   19.9132 O   0  0  0  0  0  0  0  0  0  0  0  0
    8.7559  -18.9682   21.2470 C   0  0  0  0  0  0  0  0  0  0  0  0
    8.6480  -17.4667   21.3770 C   0  0  2  0  0  0  0  0  0  0  0  0
    8.9819  -16.8439   20.1274 N   0  0  0  0  0  0  0  0  0  0  0  0
    9.5720  -17.0338   22.4683 C   0  0  0  0  0  0  0  0  0  0  0  0
   10.7426  -16.7003   22.1733 O   0  0  0  0  0  0  0  0  0  0  0  0
    9.1814  -16.9863   23.8216 N   0  0  0  0  0  0  0  0  0  0  0  0
   10.0491  -16.6043   24.9340 C   0  0  1  0  0  0  0  0  0  0  0  0
    9.8118  -15.1974   25.3384 C   0  0  0  0  0  0  0  0  0  0  0  0
    8.4384  -14.8157   25.6533 C   0  0  0  0  0  0  0  0  0  0  0  0
    7.3646  -15.6945   25.6690 C   0  0  0  0  0  0  0  0  0  0  0  0
    6.2339  -15.0124   25.9723 N   0  0  0  0  0  0  0  0  0  0  0  0
    6.5369  -13.7041   26.1579 C   0  0  0  0  0  0  0  0  0  0  0  0
    5.7978  -12.5921   26.4909 C   0  0  0  0  0  0  0  0  0  0  0  0
    6.3503  -11.3354   26.6445 C   0  0  0  0  0  0  0  0  0  0  0  0
    7.7086  -11.2157   26.4491 C   0  0  0  0  0  0  0  0  0  0  0  0
    8.4660  -12.3159   26.1148 C   0  0  0  0  0  0  0  0  0  0  0  0
    7.9164  -13.5818   25.9584 C   0  0  0  0  0  0  0  0  0  0  0  0
    9.8907  -17.6086   25.9915 C   0  0  0  0  0  0  0  0  0  0  0  0
   10.6982  -17.7543   27.1063 O   0  0  0  0  0  0  0  0  0  0  0  0
    8.9326  -18.4573   25.9175 O   0  0  0  0  0  0  0  0  0  0  0  0
  2  1  1  0
  2  4  1  0
  3  2  2  0
  4  5  1  0
  5  6  1  6
  7  8  2  0
  7  5  1  0
 10  9  1  0
 10 11  2  0
 13 12  1  6
 12 10  1  0
 13 14  1  0
 14  7  1  0
 15 13  1  0
 16 15  2  0
 17 15  1  0
 18 17  1  0
 18 19  1  1
 19 20  1  0
 20 28  1  0
 21 20  2  0
 21 22  1  0
 22 23  1  0
 23 24  1  0
 24 25  2  0
 26 25  1  0
 27 26  2  0
 28 23  2  0
 28 27  1  0
 29 30  1  0
 29 18  1  0
 31 29  2  0
M  END
$$$$
