NNW.pdb
     RDKit          3D

 31 32  0  0  1  0  0  0  0  0999 V2000
    7.6773  -12.1860   18.0082 N   0  0  0  0  0  0  0  0  0  0  0  0
    7.7140  -13.5941   17.8897 C   0  0  0  0  0  0  0  0  0  0  0  0
    7.8477  -14.1108   16.7632 O   0  0  0  0  0  0  0  0  0  0  0  0
    7.5948  -14.4263   19.0953 C   0  0  0  0  0  0  0  0  0  0  0  0
    8.8274  -14.3078   19.9921 C   0  0  2  0  0  0  0  0  0  0  0  0
   10.0411  -14.3440   19.2113 N   0  0  0  0  0  0  0  0  0  0  0  0
    8.7579  -15.3951   20.9821 C   0  0  0  0  0  0  0  0  0  0  0  0
    7.6785  -15.5770   21.6008 O   0  0  0  0  0  0  0  0  0  0  0  0
   11.5464  -18.9436   19.6349 N   0  0  0  0  0  0  0  0  0  0  0  0
   10.5702  -18.9503   20.6581 C   0  0  0  0  0  0  0  0  0  0  0  0
    9.4643  -19.5143   20.4417 O   0  0  0  0  0  0  0  0  0  0  0  0
   10.8266  -18.3057   21.9800 C   0  0  0  0  0  0  0  0  0  0  0  0
    9.8205  -17.2130   22.2577 C   0  0  2  0  0  0  0  0  0  0  0  0
    9.8879  -16.2152   21.2279 N   0  0  0  0  0  0  0  0  0  0  0  0
   10.1303  -16.6355   23.6003 C   0  0  0  0  0  0  0  0  0  0  0  0
   11.0257  -15.7648   23.6926 O   0  0  0  0  0  0  0  0  0  0  0  0
    9.4560  -17.0318   24.7727 N   0  0  0  0  0  0  0  0  0  0  0  0
    9.7705  -16.5652   26.1217 C   0  0  1  0  0  0  0  0  0  0  0  0
    8.5347  -16.3161   26.9028 C   0  0  0  0  0  0  0  0  0  0  0  0
    7.5704  -15.3731   26.3444 C   0  0  0  0  0  0  0  0  0  0  0  0
    6.4596  -15.7381   25.5970 C   0  0  0  0  0  0  0  0  0  0  0  0
    5.7940  -14.6223   25.2126 N   0  0  0  0  0  0  0  0  0  0  0  0
    6.4393  -13.5297   25.6897 C   0  0  0  0  0  0  0  0  0  0  0  0
    6.2036  -12.1758   25.6176 C   0  0  0  0  0  0  0  0  0  0  0  0
    7.0165  -11.2340   26.2177 C   0  0  0  0  0  0  0  0  0  0  0  0
    8.1097  -11.6977   26.9159 C   0  0  0  0  0  0  0  0  0  0  0  0
    8.3637  -13.0484   26.9995 C   0  0  0  0  0  0  0  0  0  0  0  0
    7.5505  -14.0002   26.3979 C   0  0  0  0  0  0  0  0  0  0  0  0
   10.7206  -17.5131   26.7138 C   0  0  0  0  0  0  0  0  0  0  0  0
   11.4341  -17.3290   27.8857 O   0  0  0  0  0  0  0  0  0  0  0  0
   10.9499  -18.6283   26.1244 O   0  0  0  0  0  0  0  0  0  0  0  0
  2  1  1  0
  2  4  1  0
  3  2  2  0
  4  5  1  0
  5  6  1  6
  7  8  2  0
  7  5  1  0
 10  9  1  0
 10 11  2  0
 13 12  1  6
 12 10  1  0
 13 14  1  0
 14  7  1  0
 15 13  1  0
 16 15  2  0
 17 15  1  0
 18 17  1  0
 18 19  1  1
 19 20  1  0
 20 28  1  0
 21 20  2  0
 21 22  1  0
 22 23  1  0
 23 24  1  0
 24 25  2  0
 26 25  1  0
 27 26  2  0
 28 23  2  0
 28 27  1  0
 29 30  1  0
 29 18  1  0
 31 29  2  0
M  END
$$$$
