NNW.pdb
     RDKit          3D

 31 32  0  0  1  0  0  0  0  0999 V2000
   10.1001  -20.8842   17.9773 N   0  0  0  0  0  0  0  0  0  0  0  0
   10.6613  -20.9885   19.2705 C   0  0  0  0  0  0  0  0  0  0  0  0
   11.4475  -21.9221   19.5236 O   0  0  0  0  0  0  0  0  0  0  0  0
   10.3102  -19.9952   20.2953 C   0  0  0  0  0  0  0  0  0  0  0  0
    9.2896  -18.9810   19.7781 C   0  0  2  0  0  0  0  0  0  0  0  0
    9.0967  -19.1208   18.3543 N   0  0  0  0  0  0  0  0  0  0  0  0
    9.7693  -17.6415   20.1561 C   0  0  0  0  0  0  0  0  0  0  0  0
   10.9200  -17.2896   19.7910 O   0  0  0  0  0  0  0  0  0  0  0  0
    8.8571  -14.8385   18.5442 N   0  0  0  0  0  0  0  0  0  0  0  0
    8.0379  -14.2367   19.5275 C   0  0  0  0  0  0  0  0  0  0  0  0
    7.0811  -13.5043   19.1588 O   0  0  0  0  0  0  0  0  0  0  0  0
    8.2858  -14.4539   20.9836 C   0  0  0  0  0  0  0  0  0  0  0  0
    9.4062  -15.4435   21.2039 C   0  0  2  0  0  0  0  0  0  0  0  0
    8.9464  -16.7725   20.9159 N   0  0  0  0  0  0  0  0  0  0  0  0
    9.8578  -15.3159   22.6223 C   0  0  0  0  0  0  0  0  0  0  0  0
   10.4018  -14.2498   22.9906 O   0  0  0  0  0  0  0  0  0  0  0  0
    9.6983  -16.3494   23.5671 N   0  0  0  0  0  0  0  0  0  0  0  0
   10.2811  -16.3601   24.9075 C   0  0  1  0  0  0  0  0  0  0  0  0
    9.9123  -15.1368   25.6604 C   0  0  0  0  0  0  0  0  0  0  0  0
    8.4889  -14.8602   25.8293 C   0  0  0  0  0  0  0  0  0  0  0  0
    7.4849  -15.8086   25.6950 C   0  0  0  0  0  0  0  0  0  0  0  0
    6.2821  -15.2159   25.8895 N   0  0  0  0  0  0  0  0  0  0  0  0
    6.4693  -13.8988   26.1499 C   0  0  0  0  0  0  0  0  0  0  0  0
    5.6211  -12.8525   26.4320 C   0  0  0  0  0  0  0  0  0  0  0  0
    6.0629  -11.5689   26.6873 C   0  0  0  0  0  0  0  0  0  0  0  0
    7.4226  -11.3512   26.6514 C   0  0  0  0  0  0  0  0  0  0  0  0
    8.2884  -12.3844   26.3703 C   0  0  0  0  0  0  0  0  0  0  0  0
    7.8503  -13.6769   26.1124 C   0  0  0  0  0  0  0  0  0  0  0  0
    9.9229  -17.6333   25.5420 C   0  0  0  0  0  0  0  0  0  0  0  0
   10.3788  -18.0920   26.7660 O   0  0  0  0  0  0  0  0  0  0  0  0
    9.1201  -18.4333   24.9428 O   0  0  0  0  0  0  0  0  0  0  0  0
  2  1  1  0
  2  4  1  0
  3  2  2  0
  4  5  1  0
  5  6  1  6
  7  8  2  0
  7  5  1  0
 10  9  1  0
 10 11  2  0
 13 12  1  1
 12 10  1  0
 13 14  1  0
 14  7  1  0
 15 13  1  0
 16 15  2  0
 17 15  1  0
 18 17  1  0
 18 19  1  1
 19 20  1  0
 20 28  1  0
 21 20  2  0
 21 22  1  0
 22 23  1  0
 23 24  1  0
 24 25  2  0
 26 25  1  0
 27 26  2  0
 28 23  2  0
 28 27  1  0
 29 30  1  0
 29 18  1  0
 31 29  2  0
M  END
$$$$
