NNW.pdb
     RDKit          3D

 31 32  0  0  1  0  0  0  0  0999 V2000
   10.2454  -21.4756   17.8620 N   0  0  0  0  0  0  0  0  0  0  0  0
   10.5011  -20.1656   18.3277 C   0  0  0  0  0  0  0  0  0  0  0  0
   10.2436  -19.1928   17.5920 O   0  0  0  0  0  0  0  0  0  0  0  0
   11.0654  -19.9710   19.6708 C   0  0  0  0  0  0  0  0  0  0  0  0
   10.1017  -19.2182   20.5886 C   0  0  2  0  0  0  0  0  0  0  0  0
    9.2755  -18.3054   19.8350 N   0  0  0  0  0  0  0  0  0  0  0  0
   10.9107  -18.5368   21.6126 C   0  0  0  0  0  0  0  0  0  0  0  0
   11.6566  -19.2306   22.3497 O   0  0  0  0  0  0  0  0  0  0  0  0
   14.2164  -16.6223   21.3016 N   0  0  0  0  0  0  0  0  0  0  0  0
   13.1916  -15.6578   21.1622 C   0  0  0  0  0  0  0  0  0  0  0  0
   13.0267  -15.1009   20.0440 O   0  0  0  0  0  0  0  0  0  0  0  0
   12.3085  -15.2920   22.3090 C   0  0  0  0  0  0  0  0  0  0  0  0
   11.5643  -16.4993   22.8303 C   0  0  2  0  0  0  0  0  0  0  0  0
   10.8445  -17.1283   21.7592 N   0  0  0  0  0  0  0  0  0  0  0  0
   10.6428  -16.0377   23.9118 C   0  0  0  0  0  0  0  0  0  0  0  0
    9.4610  -15.7465   23.6166 O   0  0  0  0  0  0  0  0  0  0  0  0
   11.0489  -15.9137   25.2556 N   0  0  0  0  0  0  0  0  0  0  0  0
   10.1545  -15.9523   26.4111 C   0  0  1  0  0  0  0  0  0  0  0  0
    8.7542  -16.2077   25.9947 C   0  0  0  0  0  0  0  0  0  0  0  0
    7.9921  -15.0726   25.4831 C   0  0  0  0  0  0  0  0  0  0  0  0
    7.4729  -14.9920   24.1987 C   0  0  0  0  0  0  0  0  0  0  0  0
    6.8472  -13.8002   24.0441 N   0  0  0  0  0  0  0  0  0  0  0  0
    6.9407  -13.0931   25.1969 C   0  0  0  0  0  0  0  0  0  0  0  0
    6.4844  -11.8582   25.5978 C   0  0  0  0  0  0  0  0  0  0  0  0
    6.6952  -11.3491   26.8644 C   0  0  0  0  0  0  0  0  0  0  0  0
    7.3994  -12.1343   27.7505 C   0  0  0  0  0  0  0  0  0  0  0  0
    7.8653  -13.3726   27.3690 C   0  0  0  0  0  0  0  0  0  0  0  0
    7.6569  -13.8898   26.0969 C   0  0  0  0  0  0  0  0  0  0  0  0
   10.7156  -16.8991   27.3809 C   0  0  0  0  0  0  0  0  0  0  0  0
   10.4384  -16.9394   28.7366 O   0  0  0  0  0  0  0  0  0  0  0  0
   11.5505  -17.7879   26.9849 O   0  0  0  0  0  0  0  0  0  0  0  0
  2  1  1  0
  2  4  1  0
  3  2  2  0
  4  5  1  0
  5  6  1  6
  7  8  2  0
  7  5  1  0
 10  9  1  0
 10 11  2  0
 13 12  1  6
 12 10  1  0
 13 14  1  0
 14  7  1  0
 15 13  1  0
 16 15  2  0
 17 15  1  0
 18 17  1  0
 18 19  1  6
 19 20  1  0
 20 28  1  0
 21 20  2  0
 21 22  1  0
 22 23  1  0
 23 24  1  0
 24 25  2  0
 26 25  1  0
 27 26  2  0
 28 23  2  0
 28 27  1  0
 29 30  1  0
 29 18  1  0
 31 29  2  0
M  END
$$$$
