NNW.pdb
     RDKit          3D

 31 32  0  0  1  0  0  0  0  0999 V2000
    7.7597  -13.5797   18.0579 N   0  0  0  0  0  0  0  0  0  0  0  0
    8.3318  -13.0252   19.2256 C   0  0  0  0  0  0  0  0  0  0  0  0
    8.6512  -11.8203   19.2384 O   0  0  0  0  0  0  0  0  0  0  0  0
    8.5404  -13.8766   20.4053 C   0  0  0  0  0  0  0  0  0  0  0  0
    8.0352  -15.3011   20.1748 C   0  0  2  0  0  0  0  0  0  0  0  0
    6.6110  -15.3136   19.9396 N   0  0  0  0  0  0  0  0  0  0  0  0
    8.4227  -16.1011   21.3484 C   0  0  0  0  0  0  0  0  0  0  0  0
    7.5266  -16.4597   22.1543 O   0  0  0  0  0  0  0  0  0  0  0  0
   13.3200  -16.2114   22.1353 N   0  0  0  0  0  0  0  0  0  0  0  0
   12.3271  -17.0430   21.5674 C   0  0  0  0  0  0  0  0  0  0  0  0
   12.1595  -17.0265   20.3186 O   0  0  0  0  0  0  0  0  0  0  0  0
   11.4814  -17.9334   22.4163 C   0  0  0  0  0  0  0  0  0  0  0  0
   10.1155  -17.3299   22.6467 C   0  0  2  0  0  0  0  0  0  0  0  0
    9.7791  -16.4553   21.5591 N   0  0  0  0  0  0  0  0  0  0  0  0
   10.1524  -16.5962   23.9476 C   0  0  0  0  0  0  0  0  0  0  0  0
   10.4634  -15.3831   23.9496 O   0  0  0  0  0  0  0  0  0  0  0  0
    9.8524  -17.2142   25.1782 N   0  0  0  0  0  0  0  0  0  0  0  0
    9.9056  -16.5581   26.4833 C   0  0  1  0  0  0  0  0  0  0  0  0
    8.5569  -16.4739   27.0945 C   0  0  0  0  0  0  0  0  0  0  0  0
    7.6028  -15.5539   26.4828 C   0  0  0  0  0  0  0  0  0  0  0  0
    6.5031  -15.9486   25.7340 C   0  0  0  0  0  0  0  0  0  0  0  0
    5.8452  -14.8491   25.2936 N   0  0  0  0  0  0  0  0  0  0  0  0
    6.4846  -13.7383   25.7351 C   0  0  0  0  0  0  0  0  0  0  0  0
    6.2520  -12.3883   25.6035 C   0  0  0  0  0  0  0  0  0  0  0  0
    7.0569  -11.4232   26.1768 C   0  0  0  0  0  0  0  0  0  0  0  0
    8.1386  -11.8585   26.9104 C   0  0  0  0  0  0  0  0  0  0  0  0
    8.3893  -13.2048   27.0536 C   0  0  0  0  0  0  0  0  0  0  0  0
    7.5841  -14.1800   26.4793 C   0  0  0  0  0  0  0  0  0  0  0  0
   10.9293  -17.2371   27.2850 C   0  0  0  0  0  0  0  0  0  0  0  0
   11.6068  -18.3924   26.9350 O   0  0  0  0  0  0  0  0  0  0  0  0
   11.2572  -16.7570   28.4277 O   0  0  0  0  0  0  0  0  0  0  0  0
  2  1  1  0
  2  4  1  0
  3  2  2  0
  4  5  1  0
  5  6  1  1
  7  8  2  0
  7  5  1  0
 10  9  1  0
 10 11  2  0
 13 12  1  6
 12 10  1  0
 13 14  1  0
 14  7  1  0
 15 13  1  0
 16 15  2  0
 17 15  1  0
 18 17  1  0
 18 19  1  1
 19 20  1  0
 20 28  1  0
 21 20  2  0
 21 22  1  0
 22 23  1  0
 23 24  1  0
 24 25  2  0
 26 25  1  0
 27 26  2  0
 28 23  2  0
 28 27  1  0
 29 30  1  0
 29 18  1  0
 31 29  2  0
M  END
$$$$
