NNW.pdb
     RDKit          3D

 31 32  0  0  1  0  0  0  0  0999 V2000
    8.1896  -12.0314   17.7573 N   0  0  0  0  0  0  0  0  0  0  0  0
    8.0198  -13.4265   17.6052 C   0  0  0  0  0  0  0  0  0  0  0  0
    8.0260  -13.9232   16.4620 O   0  0  0  0  0  0  0  0  0  0  0  0
    7.8397  -14.2689   18.7961 C   0  0  0  0  0  0  0  0  0  0  0  0
    9.1676  -14.5502   19.4996 C   0  0  2  0  0  0  0  0  0  0  0  0
   10.1244  -15.1297   18.5871 N   0  0  0  0  0  0  0  0  0  0  0  0
    8.8804  -15.4235   20.6495 C   0  0  0  0  0  0  0  0  0  0  0  0
    7.9755  -15.0819   21.4529 O   0  0  0  0  0  0  0  0  0  0  0  0
    9.4583  -19.8420   19.4929 N   0  0  0  0  0  0  0  0  0  0  0  0
    8.9266  -19.4495   20.7432 C   0  0  0  0  0  0  0  0  0  0  0  0
    7.6997  -19.6295   20.9673 O   0  0  0  0  0  0  0  0  0  0  0  0
    9.7883  -18.8309   21.7936 C   0  0  0  0  0  0  0  0  0  0  0  0
    9.4031  -17.3900   22.0355 C   0  0  2  0  0  0  0  0  0  0  0  0
    9.6128  -16.6222   20.8408 N   0  0  0  0  0  0  0  0  0  0  0  0
   10.2324  -16.8779   23.1677 C   0  0  0  0  0  0  0  0  0  0  0  0
   11.4595  -16.7031   22.9883 O   0  0  0  0  0  0  0  0  0  0  0  0
    9.6907  -16.5835   24.4350 N   0  0  0  0  0  0  0  0  0  0  0  0
   10.4658  -16.1855   25.6086 C   0  0  1  0  0  0  0  0  0  0  0  0
    9.9271  -14.9405   26.2079 C   0  0  0  0  0  0  0  0  0  0  0  0
    8.4785  -14.7612   26.1859 C   0  0  0  0  0  0  0  0  0  0  0  0
    7.5637  -15.7911   26.0183 C   0  0  0  0  0  0  0  0  0  0  0  0
    6.3094  -15.2787   26.0199 N   0  0  0  0  0  0  0  0  0  0  0  0
    6.3754  -13.9348   26.1856 C   0  0  0  0  0  0  0  0  0  0  0  0
    5.4313  -12.9376   26.2758 C   0  0  0  0  0  0  0  0  0  0  0  0
    5.7522  -11.6081   26.4689 C   0  0  0  0  0  0  0  0  0  0  0  0
    7.0887  -11.2906   26.5724 C   0  0  0  0  0  0  0  0  0  0  0  0
    8.0491  -12.2734   26.4840 C   0  0  0  0  0  0  0  0  0  0  0  0
    7.7328  -13.6118   26.2896 C   0  0  0  0  0  0  0  0  0  0  0  0
   10.5473  -17.3433   26.5057 C   0  0  0  0  0  0  0  0  0  0  0  0
   11.3779  -17.4662   27.6062 O   0  0  0  0  0  0  0  0  0  0  0  0
    9.8033  -18.3644   26.2876 O   0  0  0  0  0  0  0  0  0  0  0  0
  2  1  1  0
  2  4  1  0
  3  2  2  0
  4  5  1  0
  5  6  1  6
  7  8  2  0
  7  5  1  0
 10  9  1  0
 10 11  2  0
 13 12  1  6
 12 10  1  0
 13 14  1  0
 14  7  1  0
 15 13  1  0
 16 15  2  0
 17 15  1  0
 18 17  1  0
 18 19  1  1
 19 20  1  0
 20 28  1  0
 21 20  2  0
 21 22  1  0
 22 23  1  0
 23 24  1  0
 24 25  2  0
 26 25  1  0
 27 26  2  0
 28 23  2  0
 28 27  1  0
 29 30  1  0
 29 18  1  0
 31 29  2  0
M  END
$$$$
