IYG.pdb
     RDKit          3D

 25 25  0  0  1  0  0  0  0  0999 V2000
   27.0153  -14.4413  -15.0751 C   0  0  0  0  0  0  0  0  0  0  0  0
   26.1913  -15.7212  -15.1513 C   0  0  0  0  0  0  0  0  0  0  0  0
   26.4708  -16.3947  -16.4493 C   0  0  2  0  0  0  0  0  0  0  0  0
   26.1698  -15.5065  -17.6426 C   0  0  0  0  0  0  0  0  0  0  0  0
   25.8980  -17.7615  -16.5874 C   0  0  2  0  0  0  0  0  0  0  0  0
   24.6686  -17.8095  -15.7729 N   0  0  0  0  0  0  0  0  0  0  0  0
   26.7651  -18.8783  -16.2176 C   0  0  0  0  0  0  0  0  0  0  0  0
   27.8286  -19.0732  -16.9117 O   0  0  0  0  0  0  0  0  0  0  0  0
   24.2323  -20.2391   -9.3804 O   0  0  0  0  0  0  0  0  0  0  0  0
   25.1708  -20.3844  -10.3838 C   0  0  0  0  0  0  0  0  0  0  0  0
   25.5793  -21.5888  -10.8855 C   0  0  0  0  0  0  0  0  0  0  0  0
   26.5151  -21.6799  -11.8825 C   0  0  0  0  0  0  0  0  0  0  0  0
   27.0926  -20.5483  -12.4300 C   0  0  0  0  0  0  0  0  0  0  0  0
   28.0937  -20.6747  -13.4905 C   0  0  0  0  0  0  0  0  0  0  0  0
   27.5590  -20.8637  -14.8789 C   0  0  2  0  0  0  0  0  0  0  0  0
   26.5820  -19.7965  -15.1656 N   0  0  0  0  0  0  0  0  0  0  0  0
   26.8757  -22.1514  -15.0292 C   0  0  0  0  0  0  0  0  0  0  0  0
   25.6103  -22.1922  -14.8628 O   0  0  0  0  0  0  0  0  0  0  0  0
   26.6822  -19.3255  -11.9257 C   0  0  0  0  0  0  0  0  0  0  0  0
   25.7456  -19.2469  -10.9284 C   0  0  0  0  0  0  0  0  0  0  0  0
   27.4818  -23.3867  -15.3524 N   0  0  0  0  0  0  0  0  0  0  0  0
   26.7643  -24.6350  -15.4362 C   0  0  0  0  0  0  0  0  0  0  0  0
   26.1475  -24.9104  -16.7346 C   0  0  0  0  0  0  0  0  0  0  0  0
   26.2214  -23.9655  -17.7360 O   0  0  0  0  0  0  0  0  0  0  0  0
   25.5570  -25.9865  -16.9463 O   0  0  0  0  0  0  0  0  0  0  0  0
  2  1  1  0
  3  2  1  0
  3  5  1  0
  3  4  1  6
  5  7  1  0
  5  6  1  1
  7  8  2  0
  9 10  1  0
 10 20  2  0
 10 11  1  0
 11 12  2  0
 12 13  1  0
 13 14  1  0
 15 14  1  1
 16 15  1  0
 16  7  1  0
 17 21  1  0
 17 15  1  0
 18 17  2  0
 19 13  2  0
 20 19  1  0
 22 21  1  0
 23 22  1  0
 24 23  1  0
 25 23  2  0
M  END
$$$$
