IYG.pdb
     RDKit          3D

 25 25  0  0  1  0  0  0  0  0999 V2000
   29.9578  -18.1326  -15.8733 C   0  0  0  0  0  0  0  0  0  0  0  0
   28.4886  -17.8244  -15.6098 C   0  0  0  0  0  0  0  0  0  0  0  0
   27.8755  -18.9817  -14.9020 C   0  0  2  0  0  0  0  0  0  0  0  0
   28.2907  -20.3146  -15.4972 C   0  0  0  0  0  0  0  0  0  0  0  0
   26.4072  -18.8803  -14.6805 C   0  0  2  0  0  0  0  0  0  0  0  0
   26.1283  -17.5192  -14.1840 N   0  0  0  0  0  0  0  0  0  0  0  0
   25.8103  -19.8567  -13.7714 C   0  0  0  0  0  0  0  0  0  0  0  0
   25.7959  -21.0894  -14.1333 O   0  0  0  0  0  0  0  0  0  0  0  0
   30.1303  -21.4226   -8.4739 O   0  0  0  0  0  0  0  0  0  0  0  0
   28.8352  -21.1643   -8.8795 C   0  0  0  0  0  0  0  0  0  0  0  0
   27.9213  -20.4697   -8.1370 C   0  0  0  0  0  0  0  0  0  0  0  0
   26.6466  -20.2399   -8.5846 C   0  0  0  0  0  0  0  0  0  0  0  0
   26.2245  -20.7043   -9.8173 C   0  0  0  0  0  0  0  0  0  0  0  0
   24.8554  -20.4492  -10.2686 C   0  0  0  0  0  0  0  0  0  0  0  0
   24.5895  -20.6859  -11.7254 C   0  0  2  0  0  0  0  0  0  0  0  0
   25.2324  -19.6152  -12.5102 N   0  0  0  0  0  0  0  0  0  0  0  0
   23.1557  -20.6664  -12.0278 C   0  0  0  0  0  0  0  0  0  0  0  0
   22.6051  -19.5458  -12.2954 O   0  0  0  0  0  0  0  0  0  0  0  0
   27.1462  -21.4085  -10.5739 C   0  0  0  0  0  0  0  0  0  0  0  0
   28.4183  -21.6321  -10.1158 C   0  0  0  0  0  0  0  0  0  0  0  0
   22.2931  -21.7856  -12.0614 N   0  0  0  0  0  0  0  0  0  0  0  0
   20.8683  -21.6949  -12.2659 C   0  0  0  0  0  0  0  0  0  0  0  0
   20.4509  -21.5217  -13.6579 C   0  0  0  0  0  0  0  0  0  0  0  0
   19.1093  -21.4105  -13.9561 O   0  0  0  0  0  0  0  0  0  0  0  0
   21.2912  -21.4735  -14.5760 O   0  0  0  0  0  0  0  0  0  0  0  0
  2  1  1  0
  3  2  1  0
  3  5  1  0
  3  4  1  6
  5  7  1  0
  5  6  1  1
  7  8  2  0
  9 10  1  0
 10 20  2  0
 10 11  1  0
 11 12  2  0
 12 13  1  0
 13 14  1  0
 15 14  1  1
 16 15  1  0
 16  7  1  0
 17 21  1  0
 17 15  1  0
 18 17  2  0
 19 13  2  0
 20 19  1  0
 22 21  1  0
 23 22  1  0
 24 23  1  0
 25 23  2  0
M  END
$$$$
