IYG.pdb
     RDKit          3D

 25 25  0  0  1  0  0  0  0  0999 V2000
   26.3825  -22.0617  -20.9318 C   0  0  0  0  0  0  0  0  0  0  0  0
   27.2239  -21.8082  -19.6865 C   0  0  0  0  0  0  0  0  0  0  0  0
   26.3795  -22.0392  -18.4823 C   0  0  2  0  0  0  0  0  0  0  0  0
   25.0416  -21.3276  -18.5643 C   0  0  0  0  0  0  0  0  0  0  0  0
   27.0672  -21.8282  -17.1793 C   0  0  2  0  0  0  0  0  0  0  0  0
   28.2042  -22.7667  -17.1229 N   0  0  0  0  0  0  0  0  0  0  0  0
   26.2546  -21.9825  -15.9743 C   0  0  0  0  0  0  0  0  0  0  0  0
   26.0082  -23.1735  -15.5602 O   0  0  0  0  0  0  0  0  0  0  0  0
   22.6952  -20.9708   -7.9063 O   0  0  0  0  0  0  0  0  0  0  0  0
   23.3671  -20.8314   -9.1053 C   0  0  0  0  0  0  0  0  0  0  0  0
   24.6565  -21.2346   -9.3153 C   0  0  0  0  0  0  0  0  0  0  0  0
   25.2793  -21.0735  -10.5253 C   0  0  0  0  0  0  0  0  0  0  0  0
   24.6261  -20.4911  -11.5966 C   0  0  0  0  0  0  0  0  0  0  0  0
   25.3171  -20.3265  -12.8766 C   0  0  0  0  0  0  0  0  0  0  0  0
   24.8990  -21.2601  -13.9732 C   0  0  2  0  0  0  0  0  0  0  0  0
   25.6902  -20.9641  -15.1823 N   0  0  0  0  0  0  0  0  0  0  0  0
   23.4822  -21.1021  -14.3128 C   0  0  0  0  0  0  0  0  0  0  0  0
   23.1275  -20.0740  -14.9821 O   0  0  0  0  0  0  0  0  0  0  0  0
   23.3196  -20.0810  -11.3896 C   0  0  0  0  0  0  0  0  0  0  0  0
   22.7071  -20.2473  -10.1750 C   0  0  0  0  0  0  0  0  0  0  0  0
   22.4372  -21.9918  -13.9749 N   0  0  0  0  0  0  0  0  0  0  0  0
   21.0471  -21.7464  -14.2706 C   0  0  0  0  0  0  0  0  0  0  0  0
   20.3430  -20.9123  -13.2957 C   0  0  0  0  0  0  0  0  0  0  0  0
   19.4893  -19.9240  -13.7380 O   0  0  0  0  0  0  0  0  0  0  0  0
   20.5049  -21.0835  -12.0727 O   0  0  0  0  0  0  0  0  0  0  0  0
  2  1  1  0
  3  2  1  0
  3  5  1  0
  3  4  1  6
  5  7  1  0
  5  6  1  1
  7  8  2  0
  9 10  1  0
 10 20  2  0
 10 11  1  0
 11 12  2  0
 12 13  1  0
 13 14  1  0
 15 14  1  1
 16 15  1  0
 16  7  1  0
 17 21  1  0
 17 15  1  0
 18 17  2  0
 19 13  2  0
 20 19  1  0
 22 21  1  0
 23 22  1  0
 24 23  1  0
 25 23  2  0
M  END
$$$$
