IYG.pdb
     RDKit          3D

 25 25  0  0  1  0  0  0  0  0999 V2000
   27.3122  -21.9704  -21.0363 C   0  0  0  0  0  0  0  0  0  0  0  0
   28.1572  -21.9290  -19.7686 C   0  0  0  0  0  0  0  0  0  0  0  0
   27.2697  -22.1487  -18.5936 C   0  0  2  0  0  0  0  0  0  0  0  0
   26.0222  -21.2855  -18.6369 C   0  0  0  0  0  0  0  0  0  0  0  0
   27.9522  -22.1117  -17.2714 C   0  0  2  0  0  0  0  0  0  0  0  0
   28.9001  -23.2417  -17.2319 N   0  0  0  0  0  0  0  0  0  0  0  0
   27.0960  -22.1592  -16.0879 C   0  0  0  0  0  0  0  0  0  0  0  0
   26.6566  -23.3044  -15.7055 O   0  0  0  0  0  0  0  0  0  0  0  0
   23.7785  -20.8493   -7.9765 O   0  0  0  0  0  0  0  0  0  0  0  0
   24.4381  -20.7557   -9.1868 C   0  0  0  0  0  0  0  0  0  0  0  0
   25.6873  -21.2590   -9.4222 C   0  0  0  0  0  0  0  0  0  0  0  0
   26.2996  -21.1399  -10.6424 C   0  0  0  0  0  0  0  0  0  0  0  0
   25.6762  -20.4999  -11.6985 C   0  0  0  0  0  0  0  0  0  0  0  0
   26.3555  -20.3821  -12.9899 C   0  0  0  0  0  0  0  0  0  0  0  0
   25.8466  -21.2738  -14.0831 C   0  0  2  0  0  0  0  0  0  0  0  0
   26.6781  -21.0798  -15.2859 N   0  0  0  0  0  0  0  0  0  0  0  0
   24.4599  -20.9616  -14.4398 C   0  0  0  0  0  0  0  0  0  0  0  0
   24.2142  -19.8456  -15.0097 O   0  0  0  0  0  0  0  0  0  0  0  0
   24.4105  -19.9883  -11.4657 C   0  0  0  0  0  0  0  0  0  0  0  0
   23.8081  -20.1135  -10.2412 C   0  0  0  0  0  0  0  0  0  0  0  0
   23.3340  -21.7873  -14.2198 N   0  0  0  0  0  0  0  0  0  0  0  0
   21.9793  -21.3939  -14.5199 C   0  0  0  0  0  0  0  0  0  0  0  0
   21.1807  -20.9861  -13.3632 C   0  0  0  0  0  0  0  0  0  0  0  0
   21.3287  -21.6539  -12.1660 O   0  0  0  0  0  0  0  0  0  0  0  0
   20.3698  -20.0444  -13.4463 O   0  0  0  0  0  0  0  0  0  0  0  0
  2  1  1  0
  3  2  1  0
  3  5  1  0
  3  4  1  1
  5  7  1  0
  5  6  1  6
  7  8  2  0
  9 10  1  0
 10 20  2  0
 10 11  1  0
 11 12  2  0
 12 13  1  0
 13 14  1  0
 15 14  1  1
 16 15  1  0
 16  7  1  0
 17 21  1  0
 17 15  1  0
 18 17  2  0
 19 13  2  0
 20 19  1  0
 22 21  1  0
 23 22  1  0
 24 23  1  0
 25 23  2  0
M  END
$$$$
