IYG.pdb
     RDKit          3D

 25 25  0  0  1  0  0  0  0  0999 V2000
   29.7117  -20.7354  -13.5154 C   0  0  0  0  0  0  0  0  0  0  0  0
   28.8595  -20.9554  -14.7597 C   0  0  0  0  0  0  0  0  0  0  0  0
   27.5124  -20.3652  -14.5287 C   0  0  2  0  0  0  0  0  0  0  0  0
   26.8264  -20.9420  -13.3039 C   0  0  0  0  0  0  0  0  0  0  0  0
   26.6259  -20.3286  -15.7237 C   0  0  2  0  0  0  0  0  0  0  0  0
   27.3728  -19.6616  -16.8074 N   0  0  0  0  0  0  0  0  0  0  0  0
   25.3284  -19.6761  -15.5602 C   0  0  0  0  0  0  0  0  0  0  0  0
   25.3030  -18.3944  -15.4756 O   0  0  0  0  0  0  0  0  0  0  0  0
   17.2514  -16.4890  -16.5012 O   0  0  0  0  0  0  0  0  0  0  0  0
   18.4675  -17.1441  -16.5260 C   0  0  0  0  0  0  0  0  0  0  0  0
   19.6795  -16.5132  -16.5729 C   0  0  0  0  0  0  0  0  0  0  0  0
   20.8596  -17.2095  -16.5962 C   0  0  0  0  0  0  0  0  0  0  0  0
   20.8773  -18.5925  -16.5732 C   0  0  0  0  0  0  0  0  0  0  0  0
   22.1522  -19.3112  -16.6042 C   0  0  0  0  0  0  0  0  0  0  0  0
   22.8269  -19.5088  -15.2796 C   0  0  2  0  0  0  0  0  0  0  0  0
   24.0626  -20.2883  -15.4827 N   0  0  0  0  0  0  0  0  0  0  0  0
   21.9783  -20.2474  -14.3405 C   0  0  0  0  0  0  0  0  0  0  0  0
   21.9538  -21.5220  -14.4150 O   0  0  0  0  0  0  0  0  0  0  0  0
   19.6523  -19.2368  -16.5254 C   0  0  0  0  0  0  0  0  0  0  0  0
   18.4785  -18.5299  -16.5025 C   0  0  0  0  0  0  0  0  0  0  0  0
   21.1651  -19.6865  -13.3296 N   0  0  0  0  0  0  0  0  0  0  0  0
   20.3229  -20.4636  -12.4539 C   0  0  0  0  0  0  0  0  0  0  0  0
   19.0662  -20.9224  -13.0474 C   0  0  0  0  0  0  0  0  0  0  0  0
   18.8254  -20.6979  -14.3863 O   0  0  0  0  0  0  0  0  0  0  0  0
   18.2122  -21.5125  -12.3591 O   0  0  0  0  0  0  0  0  0  0  0  0
  2  1  1  0
  3  2  1  0
  3  5  1  0
  3  4  1  1
  5  7  1  0
  5  6  1  6
  7  8  2  0
  9 10  1  0
 10 20  2  0
 10 11  1  0
 11 12  2  0
 12 13  1  0
 13 14  1  0
 15 14  1  6
 16 15  1  0
 16  7  1  0
 17 21  1  0
 17 15  1  0
 18 17  2  0
 19 13  2  0
 20 19  1  0
 22 21  1  0
 23 22  1  0
 24 23  1  0
 25 23  2  0
M  END
$$$$
