IYG.pdb
     RDKit          3D

 25 25  0  0  1  0  0  0  0  0999 V2000
   25.5153  -20.8544  -19.0033 C   0  0  0  0  0  0  0  0  0  0  0  0
   24.6403  -22.0653  -18.7013 C   0  0  0  0  0  0  0  0  0  0  0  0
   24.4147  -22.1392  -17.2316 C   0  0  2  0  0  0  0  0  0  0  0  0
   23.4811  -21.0527  -16.7305 C   0  0  0  0  0  0  0  0  0  0  0  0
   25.6489  -22.2649  -16.4092 C   0  0  2  0  0  0  0  0  0  0  0  0
   26.3160  -23.5206  -16.8028 N   0  0  0  0  0  0  0  0  0  0  0  0
   25.4768  -22.2449  -14.9579 C   0  0  0  0  0  0  0  0  0  0  0  0
   24.9744  -23.2845  -14.3946 O   0  0  0  0  0  0  0  0  0  0  0  0
   25.6350  -20.0386   -6.3020 O   0  0  0  0  0  0  0  0  0  0  0  0
   25.8224  -20.1677   -7.6646 C   0  0  0  0  0  0  0  0  0  0  0  0
   25.3231  -21.1956   -8.4151 C   0  0  0  0  0  0  0  0  0  0  0  0
   25.5376  -21.2786   -9.7661 C   0  0  0  0  0  0  0  0  0  0  0  0
   26.2746  -20.3186  -10.4359 C   0  0  0  0  0  0  0  0  0  0  0  0
   26.4928  -20.4347  -11.8787 C   0  0  0  0  0  0  0  0  0  0  0  0
   25.5083  -21.2847  -12.6253 C   0  0  2  0  0  0  0  0  0  0  0  0
   25.8017  -21.2025  -14.0685 N   0  0  0  0  0  0  0  0  0  0  0  0
   24.1302  -20.8306  -12.4198 C   0  0  0  0  0  0  0  0  0  0  0  0
   23.6334  -20.9045  -11.2458 O   0  0  0  0  0  0  0  0  0  0  0  0
   26.7827  -19.2749   -9.6805 C   0  0  0  0  0  0  0  0  0  0  0  0
   26.5616  -19.2024   -8.3300 C   0  0  0  0  0  0  0  0  0  0  0  0
   23.2690  -20.2999  -13.4069 N   0  0  0  0  0  0  0  0  0  0  0  0
   21.9998  -19.6799  -13.1154 C   0  0  0  0  0  0  0  0  0  0  0  0
   20.8562  -20.5927  -13.0825 C   0  0  0  0  0  0  0  0  0  0  0  0
   21.0564  -21.9405  -13.2933 O   0  0  0  0  0  0  0  0  0  0  0  0
   19.7054  -20.1679  -12.8668 O   0  0  0  0  0  0  0  0  0  0  0  0
  2  1  1  0
  3  2  1  0
  3  5  1  0
  3  4  1  1
  5  7  1  0
  5  6  1  1
  7  8  2  0
  9 10  1  0
 10 20  2  0
 10 11  1  0
 11 12  2  0
 12 13  1  0
 13 14  1  0
 15 14  1  1
 16 15  1  0
 16  7  1  0
 17 21  1  0
 17 15  1  0
 18 17  2  0
 19 13  2  0
 20 19  1  0
 22 21  1  0
 23 22  1  0
 24 23  1  0
 25 23  2  0
M  END
$$$$
