IYG.pdb
     RDKit          3D

 25 25  0  0  1  0  0  0  0  0999 V2000
   24.6750  -21.6618  -19.5232 C   0  0  0  0  0  0  0  0  0  0  0  0
   25.7751  -21.4116  -18.4984 C   0  0  0  0  0  0  0  0  0  0  0  0
   25.2036  -21.5715  -17.1330 C   0  0  2  0  0  0  0  0  0  0  0  0
   23.8962  -20.8208  -16.9576 C   0  0  0  0  0  0  0  0  0  0  0  0
   26.1595  -21.3352  -16.0169 C   0  0  2  0  0  0  0  0  0  0  0  0
   27.2644  -22.3010  -16.1699 N   0  0  0  0  0  0  0  0  0  0  0  0
   25.6228  -21.4277  -14.6606 C   0  0  0  0  0  0  0  0  0  0  0  0
   25.5504  -22.5896  -14.1174 O   0  0  0  0  0  0  0  0  0  0  0  0
   30.7253  -21.3900  -10.4171 O   0  0  0  0  0  0  0  0  0  0  0  0
   29.4439  -20.9712  -10.7195 C   0  0  0  0  0  0  0  0  0  0  0  0
   29.1236  -20.1944  -11.7979 C   0  0  0  0  0  0  0  0  0  0  0  0
   27.8351  -19.8047  -12.0546 C   0  0  0  0  0  0  0  0  0  0  0  0
   26.7929  -20.1830  -11.2274 C   0  0  0  0  0  0  0  0  0  0  0  0
   25.4265  -19.7482  -11.5221 C   0  0  0  0  0  0  0  0  0  0  0  0
   24.6561  -20.6079  -12.4795 C   0  0  2  0  0  0  0  0  0  0  0  0
   25.1618  -20.3759  -13.8455 N   0  0  0  0  0  0  0  0  0  0  0  0
   23.2259  -20.2885  -12.4689 C   0  0  0  0  0  0  0  0  0  0  0  0
   22.8086  -19.3390  -13.2138 O   0  0  0  0  0  0  0  0  0  0  0  0
   27.1116  -20.9702  -10.1334 C   0  0  0  0  0  0  0  0  0  0  0  0
   28.4040  -21.3537   -9.8869 C   0  0  0  0  0  0  0  0  0  0  0  0
   22.2296  -20.9393  -11.7062 N   0  0  0  0  0  0  0  0  0  0  0  0
   20.8323  -20.5837  -11.7407 C   0  0  0  0  0  0  0  0  0  0  0  0
   20.0752  -21.1500  -12.8579 C   0  0  0  0  0  0  0  0  0  0  0  0
   20.1069  -20.5249  -14.0864 O   0  0  0  0  0  0  0  0  0  0  0  0
   19.4030  -22.1886  -12.7131 O   0  0  0  0  0  0  0  0  0  0  0  0
  2  1  1  0
  3  2  1  0
  3  5  1  0
  3  4  1  1
  5  7  1  0
  5  6  1  1
  7  8  2  0
  9 10  1  0
 10 20  2  0
 10 11  1  0
 11 12  2  0
 12 13  1  0
 13 14  1  0
 15 14  1  1
 16 15  1  0
 16  7  1  0
 17 21  1  0
 17 15  1  0
 18 17  2  0
 19 13  2  0
 20 19  1  0
 22 21  1  0
 23 22  1  0
 24 23  1  0
 25 23  2  0
M  END
$$$$
