IYG.pdb
     RDKit          3D

 25 25  0  0  1  0  0  0  0  0999 V2000
   27.3179  -20.4109  -20.2605 C   0  0  0  0  0  0  0  0  0  0  0  0
   28.1248  -21.0712  -19.1488 C   0  0  0  0  0  0  0  0  0  0  0  0
   27.3157  -21.0624  -17.8991 C   0  0  2  0  0  0  0  0  0  0  0  0
   26.7054  -19.7032  -17.6102 C   0  0  0  0  0  0  0  0  0  0  0  0
   27.9832  -21.6602  -16.7107 C   0  0  2  0  0  0  0  0  0  0  0  0
   28.2837  -23.0680  -17.0345 N   0  0  0  0  0  0  0  0  0  0  0  0
   27.2516  -21.6019  -15.4468 C   0  0  0  0  0  0  0  0  0  0  0  0
   26.2285  -22.3659  -15.3051 O   0  0  0  0  0  0  0  0  0  0  0  0
   24.8243  -20.3577   -6.9597 O   0  0  0  0  0  0  0  0  0  0  0  0
   25.4893  -20.3758   -8.1706 C   0  0  0  0  0  0  0  0  0  0  0  0
   25.8572  -19.2553   -8.8622 C   0  0  0  0  0  0  0  0  0  0  0  0
   26.5161  -19.3266  -10.0617 C   0  0  0  0  0  0  0  0  0  0  0  0
   26.8410  -20.5449  -10.6305 C   0  0  0  0  0  0  0  0  0  0  0  0
   27.5406  -20.5921  -11.9156 C   0  0  0  0  0  0  0  0  0  0  0  0
   26.6784  -20.7980  -13.1253 C   0  0  2  0  0  0  0  0  0  0  0  0
   27.5318  -20.7933  -14.3284 N   0  0  0  0  0  0  0  0  0  0  0  0
   25.6848  -19.7312  -13.2743 C   0  0  0  0  0  0  0  0  0  0  0  0
   26.0669  -18.6033  -13.7350 O   0  0  0  0  0  0  0  0  0  0  0  0
   26.4709  -21.6833   -9.9341 C   0  0  0  0  0  0  0  0  0  0  0  0
   25.8121  -21.5996   -8.7353 C   0  0  0  0  0  0  0  0  0  0  0  0
   24.3097  -19.8197  -12.9595 N   0  0  0  0  0  0  0  0  0  0  0  0
   23.5194  -21.0120  -13.1434 C   0  0  0  0  0  0  0  0  0  0  0  0
   22.0941  -20.8640  -12.8458 C   0  0  0  0  0  0  0  0  0  0  0  0
   21.2526  -21.9458  -12.9965 O   0  0  0  0  0  0  0  0  0  0  0  0
   21.6318  -19.7741  -12.4587 O   0  0  0  0  0  0  0  0  0  0  0  0
  2  1  1  0
  3  2  1  0
  3  5  1  0
  3  4  1  1
  5  7  1  0
  5  6  1  6
  7  8  2  0
  9 10  1  0
 10 20  2  0
 10 11  1  0
 11 12  2  0
 12 13  1  0
 13 14  1  0
 15 14  1  1
 16 15  1  0
 16  7  1  0
 17 21  1  0
 17 15  1  0
 18 17  2  0
 19 13  2  0
 20 19  1  0
 22 21  1  0
 23 22  1  0
 24 23  1  0
 25 23  2  0
M  END
$$$$
