IYG.pdb
     RDKit          3D

 25 25  0  0  1  0  0  0  0  0999 V2000
   28.9254  -28.0307  -17.9531 C   0  0  0  0  0  0  0  0  0  0  0  0
   27.7357  -27.9109  -17.0080 C   0  0  0  0  0  0  0  0  0  0  0  0
   27.1566  -26.5454  -17.1370 C   0  0  2  0  0  0  0  0  0  0  0  0
   28.2103  -25.4561  -17.0555 C   0  0  0  0  0  0  0  0  0  0  0  0
   25.9780  -26.2750  -16.2693 C   0  0  2  0  0  0  0  0  0  0  0  0
   24.8881  -27.1640  -16.7151 N   0  0  0  0  0  0  0  0  0  0  0  0
   25.4914  -24.8974  -16.2316 C   0  0  0  0  0  0  0  0  0  0  0  0
   24.6485  -24.5295  -17.1287 O   0  0  0  0  0  0  0  0  0  0  0  0
   19.5179  -24.5455  -13.1342 O   0  0  0  0  0  0  0  0  0  0  0  0
   20.7427  -23.9475  -13.3597 C   0  0  0  0  0  0  0  0  0  0  0  0
   20.9071  -22.6276  -13.6758 C   0  0  0  0  0  0  0  0  0  0  0  0
   22.1455  -22.0816  -13.8906 C   0  0  0  0  0  0  0  0  0  0  0  0
   23.2935  -22.8476  -13.7965 C   0  0  0  0  0  0  0  0  0  0  0  0
   24.6035  -22.2398  -14.0362 C   0  0  0  0  0  0  0  0  0  0  0  0
   25.2353  -22.5431  -15.3620 C   0  0  2  0  0  0  0  0  0  0  0  0
   25.8354  -23.8896  -15.3101 N   0  0  0  0  0  0  0  0  0  0  0  0
   26.2983  -21.5892  -15.6901 C   0  0  0  0  0  0  0  0  0  0  0  0
   27.4140  -21.6861  -15.0766 O   0  0  0  0  0  0  0  0  0  0  0  0
   23.1329  -24.1854  -13.4764 C   0  0  0  0  0  0  0  0  0  0  0  0
   21.8893  -24.7204  -13.2638 C   0  0  0  0  0  0  0  0  0  0  0  0
   26.2220  -20.5475  -16.6425 N   0  0  0  0  0  0  0  0  0  0  0  0
   27.3069  -19.6417  -16.9296 C   0  0  0  0  0  0  0  0  0  0  0  0
   28.1929  -20.0593  -18.0171 C   0  0  0  0  0  0  0  0  0  0  0  0
   29.2734  -19.2716  -18.3536 O   0  0  0  0  0  0  0  0  0  0  0  0
   27.9837  -21.1163  -18.6419 O   0  0  0  0  0  0  0  0  0  0  0  0
  2  1  1  0
  3  2  1  0
  3  5  1  0
  3  4  1  1
  5  7  1  0
  5  6  1  6
  7  8  2  0
  9 10  1  0
 10 20  2  0
 10 11  1  0
 11 12  2  0
 12 13  1  0
 13 14  1  0
 15 14  1  1
 16 15  1  0
 16  7  1  0
 17 21  1  0
 17 15  1  0
 18 17  2  0
 19 13  2  0
 20 19  1  0
 22 21  1  0
 23 22  1  0
 24 23  1  0
 25 23  2  0
M  END
$$$$
