IYG.pdb
     RDKit          3D

 25 25  0  0  1  0  0  0  0  0999 V2000
   29.6276  -20.9629  -10.3900 C   0  0  0  0  0  0  0  0  0  0  0  0
   29.0870  -20.9636  -11.8150 C   0  0  0  0  0  0  0  0  0  0  0  0
   27.6373  -20.6266  -11.7779 C   0  0  2  0  0  0  0  0  0  0  0  0
   26.8723  -21.4573  -10.7640 C   0  0  0  0  0  0  0  0  0  0  0  0
   26.9671  -20.5750  -13.1059 C   0  0  2  0  0  0  0  0  0  0  0  0
   27.7749  -19.6976  -13.9745 N   0  0  0  0  0  0  0  0  0  0  0  0
   25.5771  -20.1236  -13.1238 C   0  0  0  0  0  0  0  0  0  0  0  0
   25.3341  -18.9027  -12.8062 O   0  0  0  0  0  0  0  0  0  0  0  0
   25.8055  -16.8225  -18.2054 O   0  0  0  0  0  0  0  0  0  0  0  0
   25.0559  -17.6637  -17.4059 C   0  0  0  0  0  0  0  0  0  0  0  0
   25.3341  -18.9879  -17.2100 C   0  0  0  0  0  0  0  0  0  0  0  0
   24.5582  -19.7813  -16.4061 C   0  0  0  0  0  0  0  0  0  0  0  0
   23.4500  -19.2738  -15.7519 C   0  0  0  0  0  0  0  0  0  0  0  0
   22.6354  -20.1451  -14.9032 C   0  0  0  0  0  0  0  0  0  0  0  0
   23.0844  -20.2804  -13.4787 C   0  0  2  0  0  0  0  0  0  0  0  0
   24.4338  -20.8757  -13.4560 N   0  0  0  0  0  0  0  0  0  0  0  0
   22.1948  -21.1529  -12.7074 C   0  0  0  0  0  0  0  0  0  0  0  0
   22.3811  -22.4149  -12.7633 O   0  0  0  0  0  0  0  0  0  0  0  0
   23.1635  -17.9329  -15.9466 C   0  0  0  0  0  0  0  0  0  0  0  0
   23.9468  -17.1492  -16.7530 C   0  0  0  0  0  0  0  0  0  0  0  0
   21.1261  -20.7370  -11.8811 N   0  0  0  0  0  0  0  0  0  0  0  0
   20.2924  -21.6432  -11.1304 C   0  0  0  0  0  0  0  0  0  0  0  0
   19.2280  -22.2891  -11.8997 C   0  0  0  0  0  0  0  0  0  0  0  0
   18.3381  -23.1250  -11.2592 O   0  0  0  0  0  0  0  0  0  0  0  0
   19.1159  -22.0935  -13.1247 O   0  0  0  0  0  0  0  0  0  0  0  0
  2  1  1  0
  3  2  1  0
  3  5  1  0
  3  4  1  1
  5  7  1  0
  5  6  1  6
  7  8  2  0
  9 10  1  0
 10 20  2  0
 10 11  1  0
 11 12  2  0
 12 13  1  0
 13 14  1  0
 15 14  1  6
 16 15  1  0
 16  7  1  0
 17 21  1  0
 17 15  1  0
 18 17  2  0
 19 13  2  0
 20 19  1  0
 22 21  1  0
 23 22  1  0
 24 23  1  0
 25 23  2  0
M  END
$$$$
