IYG.pdb
     RDKit          3D

 25 25  0  0  1  0  0  0  0  0999 V2000
   25.4619  -18.7616  -21.7925 C   0  0  0  0  0  0  0  0  0  0  0  0
   26.6423  -18.8789  -20.8354 C   0  0  0  0  0  0  0  0  0  0  0  0
   26.1702  -19.4965  -19.5656 C   0  0  2  0  0  0  0  0  0  0  0  0
   24.8684  -18.8917  -19.0728 C   0  0  0  0  0  0  0  0  0  0  0  0
   27.1989  -19.6038  -18.4953 C   0  0  2  0  0  0  0  0  0  0  0  0
   28.2830  -20.4628  -19.0091 N   0  0  0  0  0  0  0  0  0  0  0  0
   26.7509  -20.1152  -17.2015 C   0  0  0  0  0  0  0  0  0  0  0  0
   26.5313  -21.3764  -17.0935 O   0  0  0  0  0  0  0  0  0  0  0  0
   25.3320  -21.3128   -8.4887 O   0  0  0  0  0  0  0  0  0  0  0  0
   25.7025  -20.8660   -9.7424 C   0  0  0  0  0  0  0  0  0  0  0  0
   26.6964  -21.4266  -10.4954 C   0  0  0  0  0  0  0  0  0  0  0  0
   27.0267  -20.9454  -11.7354 C   0  0  0  0  0  0  0  0  0  0  0  0
   26.3638  -19.8625  -12.2846 C   0  0  0  0  0  0  0  0  0  0  0  0
   26.7406  -19.3657  -13.6091 C   0  0  0  0  0  0  0  0  0  0  0  0
   26.0684  -20.0284  -14.7745 C   0  0  2  0  0  0  0  0  0  0  0  0
   26.5231  -19.3830  -16.0204 N   0  0  0  0  0  0  0  0  0  0  0  0
   24.6101  -19.9000  -14.7076 C   0  0  0  0  0  0  0  0  0  0  0  0
   24.0889  -18.7552  -14.9274 O   0  0  0  0  0  0  0  0  0  0  0  0
   25.3559  -19.2909  -11.5262 C   0  0  0  0  0  0  0  0  0  0  0  0
   25.0344  -19.7808  -10.2874 C   0  0  0  0  0  0  0  0  0  0  0  0
   23.6918  -20.9363  -14.4233 N   0  0  0  0  0  0  0  0  0  0  0  0
   22.2756  -20.7278  -14.2479 C   0  0  0  0  0  0  0  0  0  0  0  0
   21.8520  -20.4697  -12.8709 C   0  0  0  0  0  0  0  0  0  0  0  0
   21.2059  -19.2898  -12.5687 O   0  0  0  0  0  0  0  0  0  0  0  0
   22.0677  -21.3016  -11.9693 O   0  0  0  0  0  0  0  0  0  0  0  0
  2  1  1  0
  3  2  1  0
  3  5  1  0
  3  4  1  1
  5  7  1  0
  5  6  1  6
  7  8  2  0
  9 10  1  0
 10 20  2  0
 10 11  1  0
 11 12  2  0
 12 13  1  0
 13 14  1  0
 15 14  1  1
 16 15  1  0
 16  7  1  0
 17 21  1  0
 17 15  1  0
 18 17  2  0
 19 13  2  0
 20 19  1  0
 22 21  1  0
 23 22  1  0
 24 23  1  0
 25 23  2  0
M  END
$$$$
