IYG.pdb
     RDKit          3D

 25 25  0  0  1  0  0  0  0  0999 V2000
   17.0590  -12.3679  -17.5550 C   0  0  0  0  0  0  0  0  0  0  0  0
   17.2773  -12.6826  -16.0798 C   0  0  0  0  0  0  0  0  0  0  0  0
   16.5473  -11.6755  -15.2617 C   0  0  2  0  0  0  0  0  0  0  0  0
   16.8030  -10.2531  -15.7252 C   0  0  0  0  0  0  0  0  0  0  0  0
   16.6878  -11.8370  -13.7888 C   0  0  2  0  0  0  0  0  0  0  0  0
   16.2990  -13.2212  -13.4572 N   0  0  0  0  0  0  0  0  0  0  0  0
   15.9307  -10.9097  -12.9503 C   0  0  0  0  0  0  0  0  0  0  0  0
   14.6479  -10.9720  -12.9865 O   0  0  0  0  0  0  0  0  0  0  0  0
   12.5205   -5.7242   -6.7114 O   0  0  0  0  0  0  0  0  0  0  0  0
   13.2573   -6.5813   -7.5058 C   0  0  0  0  0  0  0  0  0  0  0  0
   12.7192   -7.5988   -8.2437 C   0  0  0  0  0  0  0  0  0  0  0  0
   13.4943   -8.4231   -9.0169 C   0  0  0  0  0  0  0  0  0  0  0  0
   14.8663   -8.2611   -9.0858 C   0  0  0  0  0  0  0  0  0  0  0  0
   15.6709   -9.1593   -9.9158 C   0  0  0  0  0  0  0  0  0  0  0  0
   15.5644   -8.9554  -11.3977 C   0  0  2  0  0  0  0  0  0  0  0  0
   16.4399   -9.9273  -12.0794 N   0  0  0  0  0  0  0  0  0  0  0  0
   15.9902   -7.6105  -11.7948 C   0  0  0  0  0  0  0  0  0  0  0  0
   17.1779   -7.2387  -11.5090 O   0  0  0  0  0  0  0  0  0  0  0  0
   15.4167   -7.2317   -8.3406 C   0  0  0  0  0  0  0  0  0  0  0  0
   14.6316   -6.4138   -7.5709 C   0  0  0  0  0  0  0  0  0  0  0  0
   15.2085   -6.6555  -12.4838 N   0  0  0  0  0  0  0  0  0  0  0  0
   15.2118   -5.2457  -12.1798 C   0  0  0  0  0  0  0  0  0  0  0  0
   16.5061   -4.5803  -12.3353 C   0  0  0  0  0  0  0  0  0  0  0  0
   16.5619   -3.3295  -12.9130 O   0  0  0  0  0  0  0  0  0  0  0  0
   17.5569   -5.1289  -11.9530 O   0  0  0  0  0  0  0  0  0  0  0  0
  2  1  1  0
  3  2  1  0
  3  5  1  0
  3  4  1  6
  5  7  1  0
  5  6  1  1
  7  8  2  0
  9 10  1  0
 10 20  2  0
 10 11  1  0
 11 12  2  0
 12 13  1  0
 13 14  1  0
 15 14  1  1
 16 15  1  0
 16  7  1  0
 17 21  1  0
 17 15  1  0
 18 17  2  0
 19 13  2  0
 20 19  1  0
 22 21  1  0
 23 22  1  0
 24 23  1  0
 25 23  2  0
M  END
$$$$
