LSM.pdb
     RDKit          3D

 23 22  0  0  1  0  0  0  0  0999 V2000
    9.5867  -13.3401   18.6625 C   0  0  0  0  0  0  0  0  0  0  0  0
    8.1523  -13.5392   19.0079 C   0  0  2  0  0  0  0  0  0  0  0  0
    7.4893  -12.1729   19.2316 C   0  0  0  0  0  0  0  0  0  0  0  0
    7.8663  -14.3524   20.2164 C   0  0  0  0  0  0  0  0  0  0  0  0
    8.4996  -15.7017   20.3085 C   0  0  2  0  0  0  0  0  0  0  0  0
    7.6695  -16.5372   19.3919 N   0  0  0  0  0  0  0  0  0  0  0  0
    8.4723  -16.2582   21.6491 C   0  0  0  0  0  0  0  0  0  0  0  0
    7.4077  -16.3157   22.3436 O   0  0  0  0  0  0  0  0  0  0  0  0
   11.9199  -17.7764   23.5728 O   0  0  0  0  0  0  0  0  0  0  0  0
   10.6822  -18.3374   23.7794 C   0  0  0  0  0  0  0  0  0  0  0  0
    9.5675  -17.2851   23.6834 C   0  0  2  0  0  0  0  0  0  0  0  0
    9.6231  -16.7906   22.3158 N   0  0  0  0  0  0  0  0  0  0  0  0
    9.8640  -16.1377   24.5789 C   0  0  0  0  0  0  0  0  0  0  0  0
   10.7082  -15.2424   24.2850 O   0  0  0  0  0  0  0  0  0  0  0  0
    6.2182  -11.8369   25.9913 C   0  0  0  0  0  0  0  0  0  0  0  0
    6.8630  -11.8757   27.6595 S   0  0  0  0  0  0  0  0  0  0  0  0
    8.4324  -12.8284   27.7605 C   0  0  0  0  0  0  0  0  0  0  0  0
    8.3009  -13.9780   26.8296 C   0  0  0  0  0  0  0  0  0  0  0  0
    9.5056  -14.8553   26.7204 C   0  0  2  0  0  0  0  0  0  0  0  0
    9.2081  -15.9698   25.8427 N   0  0  0  0  0  0  0  0  0  0  0  0
   10.0176  -15.3643   27.9849 C   0  0  0  0  0  0  0  0  0  0  0  0
   10.6242  -14.5986   28.9721 O   0  0  0  0  0  0  0  0  0  0  0  0
    9.9191  -16.5904   28.2357 O   0  0  0  0  0  0  0  0  0  0  0  0
  2  1  1  1
  2  3  1  0
  4  2  1  0
  5  4  1  0
  5  6  1  6
  7  5  1  0
  8  7  2  0
  9 10  1  0
 11 10  1  6
 11 12  1  0
 12  7  1  0
 13 11  1  0
 13 20  1  0
 14 13  2  0
 16 17  1  0
 16 15  1  0
 19 18  1  1
 18 17  1  0
 19 21  1  0
 20 19  1  0
 21 23  2  0
 21 22  1  0
M  END
$$$$
