LSM.pdb
     RDKit          3D

 23 22  0  0  1  0  0  0  0  0999 V2000
    9.5883  -13.3355   18.6753 C   0  0  0  0  0  0  0  0  0  0  0  0
    8.1614  -13.6100   18.9995 C   0  0  2  0  0  0  0  0  0  0  0  0
    7.4156  -12.2801   19.1763 C   0  0  0  0  0  0  0  0  0  0  0  0
    7.8996  -14.4090   20.2229 C   0  0  0  0  0  0  0  0  0  0  0  0
    8.5546  -15.7469   20.3291 C   0  0  2  0  0  0  0  0  0  0  0  0
    7.7186  -16.6128   19.4469 N   0  0  0  0  0  0  0  0  0  0  0  0
    8.5628  -16.2761   21.6810 C   0  0  0  0  0  0  0  0  0  0  0  0
    7.5026  -16.3961   22.3743 O   0  0  0  0  0  0  0  0  0  0  0  0
   12.0920  -17.5857   23.6425 O   0  0  0  0  0  0  0  0  0  0  0  0
   10.8836  -18.2204   23.8042 C   0  0  0  0  0  0  0  0  0  0  0  0
    9.7142  -17.2280   23.7207 C   0  0  2  0  0  0  0  0  0  0  0  0
    9.7466  -16.7100   22.3611 N   0  0  0  0  0  0  0  0  0  0  0  0
    9.9467  -16.0803   24.6347 C   0  0  0  0  0  0  0  0  0  0  0  0
   10.6505  -15.0804   24.3100 O   0  0  0  0  0  0  0  0  0  0  0  0
    5.9545  -12.3174   27.1426 C   0  0  0  0  0  0  0  0  0  0  0  0
    7.5502  -11.5875   27.4906 S   0  0  0  0  0  0  0  0  0  0  0  0
    8.8082  -12.8646   27.8995 C   0  0  0  0  0  0  0  0  0  0  0  0
    8.6172  -13.9822   26.9404 C   0  0  0  0  0  0  0  0  0  0  0  0
    9.7250  -14.9840   26.8947 C   0  0  2  0  0  0  0  0  0  0  0  0
    9.3845  -16.0316   25.9527 N   0  0  0  0  0  0  0  0  0  0  0  0
   10.0701  -15.5845   28.1756 C   0  0  0  0  0  0  0  0  0  0  0  0
   10.6727  -14.9216   29.2368 O   0  0  0  0  0  0  0  0  0  0  0  0
    9.8162  -16.7984   28.3702 O   0  0  0  0  0  0  0  0  0  0  0  0
  2  1  1  1
  2  3  1  0
  4  2  1  0
  5  4  1  0
  5  6  1  6
  7  5  1  0
  8  7  2  0
  9 10  1  0
 11 10  1  6
 11 12  1  0
 12  7  1  0
 13 11  1  0
 13 20  1  0
 14 13  2  0
 16 17  1  0
 16 15  1  0
 19 18  1  1
 18 17  1  0
 19 21  1  0
 20 19  1  0
 21 23  2  0
 21 22  1  0
M  END
$$$$
