LSM.pdb
     RDKit          3D

 23 22  0  0  1  0  0  0  0  0999 V2000
   10.1547  -13.0341   19.2913 C   0  0  0  0  0  0  0  0  0  0  0  0
    8.8224  -13.1889   18.6449 C   0  0  2  0  0  0  0  0  0  0  0  0
    8.0175  -11.8941   18.8238 C   0  0  0  0  0  0  0  0  0  0  0  0
    7.9656  -14.2934   19.1445 C   0  0  0  0  0  0  0  0  0  0  0  0
    8.6073  -15.6249   19.3579 C   0  0  2  0  0  0  0  0  0  0  0  0
    7.9563  -16.4914   18.3319 N   0  0  0  0  0  0  0  0  0  0  0  0
    8.3767  -16.1671   20.6847 C   0  0  0  0  0  0  0  0  0  0  0  0
    7.2291  -16.1638   21.2342 O   0  0  0  0  0  0  0  0  0  0  0  0
   11.1800  -18.5515   22.5297 O   0  0  0  0  0  0  0  0  0  0  0  0
    9.8390  -18.6968   22.7940 C   0  0  0  0  0  0  0  0  0  0  0  0
    9.1188  -17.3401   22.7979 C   0  0  2  0  0  0  0  0  0  0  0  0
    9.4015  -16.7516   21.4973 N   0  0  0  0  0  0  0  0  0  0  0  0
    9.7122  -16.4452   23.8244 C   0  0  0  0  0  0  0  0  0  0  0  0
   10.7770  -15.7911   23.6270 O   0  0  0  0  0  0  0  0  0  0  0  0
    5.5517  -12.0333   26.7045 C   0  0  0  0  0  0  0  0  0  0  0  0
    7.3198  -12.3044   26.6868 S   0  0  0  0  0  0  0  0  0  0  0  0
    7.7349  -14.0677   26.3722 C   0  0  0  0  0  0  0  0  0  0  0  0
    9.2122  -14.1479   26.2438 C   0  0  0  0  0  0  0  0  0  0  0  0
    9.7755  -15.5301   26.1733 C   0  0  2  0  0  0  0  0  0  0  0  0
    9.1122  -16.2638   25.1138 N   0  0  0  0  0  0  0  0  0  0  0  0
    9.6952  -16.2953   27.4095 C   0  0  0  0  0  0  0  0  0  0  0  0
   10.3424  -15.9748   28.5958 O   0  0  0  0  0  0  0  0  0  0  0  0
    8.9925  -17.3351   27.4407 O   0  0  0  0  0  0  0  0  0  0  0  0
  2  1  1  1
  2  3  1  0
  4  2  1  0
  5  4  1  0
  5  6  1  6
  7  5  1  0
  8  7  2  0
  9 10  1  0
 11 10  1  6
 11 12  1  0
 12  7  1  0
 13 11  1  0
 13 20  1  0
 14 13  2  0
 16 17  1  0
 16 15  1  0
 19 18  1  1
 18 17  1  0
 19 21  1  0
 20 19  1  0
 21 23  2  0
 21 22  1  0
M  END
$$$$
