LSM.pdb
     RDKit          3D

 23 22  0  0  1  0  0  0  0  0999 V2000
    9.8187  -13.1929   18.6243 C   0  0  0  0  0  0  0  0  0  0  0  0
    8.3572  -13.3510   18.8604 C   0  0  2  0  0  0  0  0  0  0  0  0
    7.7364  -11.9757   19.1420 C   0  0  0  0  0  0  0  0  0  0  0  0
    7.9573  -14.2349   19.9840 C   0  0  0  0  0  0  0  0  0  0  0  0
    8.5403  -15.6093   20.0247 C   0  0  2  0  0  0  0  0  0  0  0  0
    7.6463  -16.3914   19.1213 N   0  0  0  0  0  0  0  0  0  0  0  0
    8.5385  -16.1942   21.3534 C   0  0  0  0  0  0  0  0  0  0  0  0
    7.4646  -16.4495   21.9862 O   0  0  0  0  0  0  0  0  0  0  0  0
   12.0725  -17.3767   23.1757 O   0  0  0  0  0  0  0  0  0  0  0  0
   10.9236  -18.0892   23.4240 C   0  0  0  0  0  0  0  0  0  0  0  0
    9.6830  -17.1848   23.3785 C   0  0  2  0  0  0  0  0  0  0  0  0
    9.7270  -16.5380   22.0756 N   0  0  0  0  0  0  0  0  0  0  0  0
    9.7873  -16.1158   24.4045 C   0  0  0  0  0  0  0  0  0  0  0  0
   10.5550  -15.1184   24.2761 O   0  0  0  0  0  0  0  0  0  0  0  0
    6.5370  -11.1710   27.2777 C   0  0  0  0  0  0  0  0  0  0  0  0
    5.9738  -12.7843   26.7482 S   0  0  0  0  0  0  0  0  0  0  0  0
    7.3287  -13.7586   25.9766 C   0  0  0  0  0  0  0  0  0  0  0  0
    7.9694  -14.5435   27.0624 C   0  0  0  0  0  0  0  0  0  0  0  0
    9.2554  -15.2114   26.6975 C   0  0  2  0  0  0  0  0  0  0  0  0
    9.0192  -16.1455   25.6148 N   0  0  0  0  0  0  0  0  0  0  0  0
    9.9257  -15.9027   27.7898 C   0  0  0  0  0  0  0  0  0  0  0  0
   10.2067  -17.2623   27.8273 O   0  0  0  0  0  0  0  0  0  0  0  0
   10.2930  -15.2467   28.7951 O   0  0  0  0  0  0  0  0  0  0  0  0
  2  1  1  1
  2  3  1  0
  4  2  1  0
  5  4  1  0
  5  6  1  6
  7  5  1  0
  8  7  2  0
  9 10  1  0
 11 10  1  6
 11 12  1  0
 12  7  1  0
 13 11  1  0
 13 20  1  0
 14 13  2  0
 16 17  1  0
 16 15  1  0
 19 18  1  1
 18 17  1  0
 19 21  1  0
 20 19  1  0
 21 23  2  0
 21 22  1  0
M  END
$$$$
