LSM.pdb
     RDKit          3D

 23 22  0  0  1  0  0  0  0  0999 V2000
    9.4371  -12.6595   19.1389 C   0  0  0  0  0  0  0  0  0  0  0  0
    8.1683  -13.4314   19.2439 C   0  0  2  0  0  0  0  0  0  0  0  0
    6.9777  -12.4759   19.0831 C   0  0  0  0  0  0  0  0  0  0  0  0
    7.9463  -14.1765   20.5084 C   0  0  0  0  0  0  0  0  0  0  0  0
    9.0588  -15.0384   21.0083 C   0  0  2  0  0  0  0  0  0  0  0  0
    9.1037  -16.1544   20.0185 N   0  0  0  0  0  0  0  0  0  0  0  0
    8.8226  -15.5651   22.3404 C   0  0  0  0  0  0  0  0  0  0  0  0
    8.4792  -14.8251   23.3168 O   0  0  0  0  0  0  0  0  0  0  0  0
    9.5677  -19.5302   23.2247 O   0  0  0  0  0  0  0  0  0  0  0  0
    8.5005  -18.9589   23.8759 C   0  0  0  0  0  0  0  0  0  0  0  0
    8.6850  -17.4418   24.0290 C   0  0  2  0  0  0  0  0  0  0  0  0
    8.9501  -16.9497   22.6854 N   0  0  0  0  0  0  0  0  0  0  0  0
    9.8879  -17.1497   24.8502 C   0  0  0  0  0  0  0  0  0  0  0  0
   11.0353  -16.9807   24.3447 O   0  0  0  0  0  0  0  0  0  0  0  0
    7.9874  -13.7951   28.5078 C   0  0  0  0  0  0  0  0  0  0  0  0
    9.5787  -13.0722   28.1266 S   0  0  0  0  0  0  0  0  0  0  0  0
   10.6282  -14.2173   27.1426 C   0  0  0  0  0  0  0  0  0  0  0  0
   10.6980  -15.4951   27.8962 C   0  0  0  0  0  0  0  0  0  0  0  0
   10.9904  -16.7085   27.0747 C   0  0  2  0  0  0  0  0  0  0  0  0
    9.8256  -17.0396   26.2783 N   0  0  0  0  0  0  0  0  0  0  0  0
   11.4044  -17.8826   27.8300 C   0  0  0  0  0  0  0  0  0  0  0  0
   12.6714  -18.0914   28.3592 O   0  0  0  0  0  0  0  0  0  0  0  0
   10.5734  -18.8002   28.0382 O   0  0  0  0  0  0  0  0  0  0  0  0
  2  1  1  1
  2  3  1  0
  4  2  1  0
  5  4  1  0
  5  6  1  6
  7  5  1  0
  8  7  2  0
  9 10  1  0
 11 10  1  6
 11 12  1  0
 12  7  1  0
 13 11  1  0
 13 20  1  0
 14 13  2  0
 16 17  1  0
 16 15  1  0
 19 18  1  1
 18 17  1  0
 19 21  1  0
 20 19  1  0
 21 23  2  0
 21 22  1  0
M  END
$$$$
