LSM.pdb
     RDKit          3D

 23 22  0  0  1  0  0  0  0  0999 V2000
    9.9083  -13.0918   19.2956 C   0  0  0  0  0  0  0  0  0  0  0  0
    8.4810  -13.4592   19.0849 C   0  0  2  0  0  0  0  0  0  0  0  0
    7.6006  -12.2199   19.2981 C   0  0  0  0  0  0  0  0  0  0  0  0
    7.9326  -14.5247   19.9609 C   0  0  0  0  0  0  0  0  0  0  0  0
    8.6938  -15.8065   20.0510 C   0  0  2  0  0  0  0  0  0  0  0  0
    8.0026  -16.6896   19.0663 N   0  0  0  0  0  0  0  0  0  0  0  0
    8.6518  -16.4073   21.3720 C   0  0  0  0  0  0  0  0  0  0  0  0
    7.5658  -16.7859   21.9163 O   0  0  0  0  0  0  0  0  0  0  0  0
   12.0466  -17.7567   23.3124 O   0  0  0  0  0  0  0  0  0  0  0  0
   10.8028  -18.2690   23.5946 C   0  0  0  0  0  0  0  0  0  0  0  0
    9.7208  -17.1808   23.5287 C   0  0  2  0  0  0  0  0  0  0  0  0
    9.8105  -16.6311   22.1841 N   0  0  0  0  0  0  0  0  0  0  0  0
   10.0381  -16.0813   24.4758 C   0  0  0  0  0  0  0  0  0  0  0  0
   10.8867  -15.1797   24.2160 O   0  0  0  0  0  0  0  0  0  0  0  0
    5.9701  -12.2991   26.7819 C   0  0  0  0  0  0  0  0  0  0  0  0
    7.5054  -11.5445   27.3049 S   0  0  0  0  0  0  0  0  0  0  0  0
    8.7876  -12.8055   27.6877 C   0  0  0  0  0  0  0  0  0  0  0  0
    8.6626  -13.8739   26.6638 C   0  0  0  0  0  0  0  0  0  0  0  0
    9.7328  -14.9164   26.6913 C   0  0  2  0  0  0  0  0  0  0  0  0
    9.3985  -15.9704   25.7542 N   0  0  0  0  0  0  0  0  0  0  0  0
    9.9932  -15.5021   27.9988 C   0  0  0  0  0  0  0  0  0  0  0  0
   10.5884  -14.8461   29.0684 O   0  0  0  0  0  0  0  0  0  0  0  0
    9.6659  -16.6954   28.2106 O   0  0  0  0  0  0  0  0  0  0  0  0
  2  1  1  1
  2  3  1  0
  4  2  1  0
  5  4  1  0
  5  6  1  6
  7  5  1  0
  8  7  2  0
  9 10  1  0
 11 10  1  6
 11 12  1  0
 12  7  1  0
 13 11  1  0
 13 20  1  0
 14 13  2  0
 16 17  1  0
 16 15  1  0
 19 18  1  1
 18 17  1  0
 19 21  1  0
 20 19  1  0
 21 23  2  0
 21 22  1  0
M  END
$$$$
