LSM.pdb
     RDKit          3D

 23 22  0  0  1  0  0  0  0  0999 V2000
    9.1411  -12.4812   17.8988 C   0  0  0  0  0  0  0  0  0  0  0  0
    7.9847  -13.4184   17.9292 C   0  0  2  0  0  0  0  0  0  0  0  0
    6.7401  -12.7077   17.3793 C   0  0  0  0  0  0  0  0  0  0  0  0
    7.6083  -13.9668   19.2562 C   0  0  0  0  0  0  0  0  0  0  0  0
    8.6812  -14.6179   20.0657 C   0  0  2  0  0  0  0  0  0  0  0  0
    9.2313  -15.6534   19.1425 N   0  0  0  0  0  0  0  0  0  0  0  0
    8.1851  -15.2456   21.2771 C   0  0  0  0  0  0  0  0  0  0  0  0
    7.4385  -14.6348   22.1068 O   0  0  0  0  0  0  0  0  0  0  0  0
    9.8193  -18.7567   22.7664 O   0  0  0  0  0  0  0  0  0  0  0  0
    8.4535  -18.6406   22.8689 C   0  0  0  0  0  0  0  0  0  0  0  0
    8.0184  -17.1681   22.9107 C   0  0  2  0  0  0  0  0  0  0  0  0
    8.4813  -16.5952   21.6555 N   0  0  0  0  0  0  0  0  0  0  0  0
    8.7224  -16.4541   24.0066 C   0  0  0  0  0  0  0  0  0  0  0  0
    9.8936  -15.9927   23.8795 O   0  0  0  0  0  0  0  0  0  0  0  0
    6.5707  -11.4207   27.6387 C   0  0  0  0  0  0  0  0  0  0  0  0
    5.8229  -12.5845   26.5045 S   0  0  0  0  0  0  0  0  0  0  0  0
    7.0832  -13.6485   25.6919 C   0  0  0  0  0  0  0  0  0  0  0  0
    7.7921  -14.3808   26.7719 C   0  0  0  0  0  0  0  0  0  0  0  0
    8.7483  -15.4330   26.3122 C   0  0  2  0  0  0  0  0  0  0  0  0
    8.1157  -16.2402   25.2880 N   0  0  0  0  0  0  0  0  0  0  0  0
    9.2615  -16.3040   27.3602 C   0  0  0  0  0  0  0  0  0  0  0  0
   10.1567  -15.9254   28.3522 O   0  0  0  0  0  0  0  0  0  0  0  0
    8.8847  -17.5008   27.3999 O   0  0  0  0  0  0  0  0  0  0  0  0
  2  1  1  1
  2  3  1  0
  4  2  1  0
  5  4  1  0
  5  6  1  6
  7  5  1  0
  8  7  2  0
  9 10  1  0
 11 10  1  6
 11 12  1  0
 12  7  1  0
 13 11  1  0
 13 20  1  0
 14 13  2  0
 16 17  1  0
 16 15  1  0
 19 18  1  1
 18 17  1  0
 19 21  1  0
 20 19  1  0
 21 23  2  0
 21 22  1  0
M  END
$$$$
