LSM.pdb
     RDKit          3D

 23 22  0  0  1  0  0  0  0  0999 V2000
    9.5133  -13.2981   20.3316 C   0  0  0  0  0  0  0  0  0  0  0  0
    8.6803  -13.1635   19.1050 C   0  0  2  0  0  0  0  0  0  0  0  0
    7.5149  -12.2045   19.3851 C   0  0  0  0  0  0  0  0  0  0  0  0
    8.0828  -14.4113   18.5671 C   0  0  0  0  0  0  0  0  0  0  0  0
    8.7464  -15.7029   18.9163 C   0  0  2  0  0  0  0  0  0  0  0  0
    8.3840  -16.5973   17.7779 N   0  0  0  0  0  0  0  0  0  0  0  0
    8.2732  -16.2720   20.1652 C   0  0  0  0  0  0  0  0  0  0  0  0
    7.0370  -16.4428   20.4133 O   0  0  0  0  0  0  0  0  0  0  0  0
   10.6968  -18.3673   22.8092 O   0  0  0  0  0  0  0  0  0  0  0  0
    9.3353  -18.5337   22.7204 C   0  0  0  0  0  0  0  0  0  0  0  0
    8.6209  -17.1930   22.4940 C   0  0  2  0  0  0  0  0  0  0  0  0
    9.1364  -16.6922   21.2285 N   0  0  0  0  0  0  0  0  0  0  0  0
    9.0105  -16.2181   23.5448 C   0  0  0  0  0  0  0  0  0  0  0  0
   10.1278  -15.6244   23.5452 O   0  0  0  0  0  0  0  0  0  0  0  0
    6.4310  -10.4938   25.8794 C   0  0  0  0  0  0  0  0  0  0  0  0
    6.1663  -11.8704   26.9908 S   0  0  0  0  0  0  0  0  0  0  0  0
    7.6031  -13.0175   27.0077 C   0  0  0  0  0  0  0  0  0  0  0  0
    7.3909  -13.9926   25.9079 C   0  0  0  0  0  0  0  0  0  0  0  0
    8.5225  -14.9367   25.6611 C   0  0  2  0  0  0  0  0  0  0  0  0
    8.1395  -15.8847   24.6337 N   0  0  0  0  0  0  0  0  0  0  0  0
    8.9899  -15.6629   26.8335 C   0  0  0  0  0  0  0  0  0  0  0  0
    9.7668  -15.1277   27.8526 O   0  0  0  0  0  0  0  0  0  0  0  0
    8.6840  -16.8733   26.9654 O   0  0  0  0  0  0  0  0  0  0  0  0
  2  1  1  1
  2  3  1  0
  4  2  1  0
  5  4  1  0
  5  6  1  6
  7  5  1  0
  8  7  2  0
  9 10  1  0
 11 10  1  1
 11 12  1  0
 12  7  1  0
 13 11  1  0
 13 20  1  0
 14 13  2  0
 16 17  1  0
 16 15  1  0
 19 18  1  1
 18 17  1  0
 19 21  1  0
 20 19  1  0
 21 23  2  0
 21 22  1  0
M  END
$$$$
