VHY.pdb
     RDKit          3D

 30 31  0  0  1  0  0  0  0  0999 V2000
   16.2249  -13.1610  -16.8494 C   0  0  0  0  0  0  0  0  0  0  0  0
   17.2767  -12.0947  -16.7109 C   0  0  1  0  0  0  0  0  0  0  0  0
   17.4451  -11.8047  -15.2364 C   0  0  0  0  0  0  0  0  0  0  0  0
   18.5796  -12.5665  -17.3096 C   0  0  2  0  0  0  0  0  0  0  0  0
   18.9974  -13.8089  -16.6142 N   0  0  0  0  0  0  0  0  0  0  0  0
   19.6166  -11.5432  -17.0618 C   0  0  0  0  0  0  0  0  0  0  0  0
   20.3396  -11.6560  -16.0278 O   0  0  0  0  0  0  0  0  0  0  0  0
   19.8928  -10.4280  -17.8831 N   0  0  0  0  0  0  0  0  0  0  0  0
   20.9074   -9.4451  -17.4842 C   0  0  1  0  0  0  0  0  0  0  0  0
   21.0832   -8.6053  -18.7429 C   0  0  0  0  0  0  0  0  0  0  0  0
   21.9700   -9.1768  -19.7460 C   0  0  0  0  0  0  0  0  0  0  0  0
   22.6578  -10.3725  -19.4900 C   0  0  0  0  0  0  0  0  0  0  0  0
   23.3961  -10.6923  -20.5401 N   0  0  0  0  0  0  0  0  0  0  0  0
   23.2012   -9.7268  -21.4745 C   0  0  0  0  0  0  0  0  0  0  0  0
   22.3391   -8.8203  -20.9811 N   0  0  0  0  0  0  0  0  0  0  0  0
   20.3977   -8.5528  -16.4268 C   0  0  0  0  0  0  0  0  0  0  0  0
   19.1714   -8.3415  -16.3454 O   0  0  0  0  0  0  0  0  0  0  0  0
   18.9105   -4.6198   -8.9114 O   0  0  0  0  0  0  0  0  0  0  0  0
   19.4494   -5.3772   -9.9578 C   0  0  0  0  0  0  0  0  0  0  0  0
   20.4468   -4.8109  -10.7148 C   0  0  0  0  0  0  0  0  0  0  0  0
   21.0195   -5.5254  -11.7727 C   0  0  0  0  0  0  0  0  0  0  0  0
   20.5630   -6.7961  -12.0327 C   0  0  0  0  0  0  0  0  0  0  0  0
   21.1536   -7.5683  -13.1472 C   0  0  0  0  0  0  0  0  0  0  0  0
   20.6508   -7.0717  -14.4516 C   0  0  2  0  0  0  0  0  0  0  0  0
   21.2396   -7.9200  -15.4906 N   0  0  0  0  0  0  0  0  0  0  0  0
   20.9099   -5.6676  -14.7660 C   0  0  0  0  0  0  0  0  0  0  0  0
   20.0281   -4.6141  -14.5301 O   0  0  0  0  0  0  0  0  0  0  0  0
   19.5581   -7.3847  -11.2808 C   0  0  0  0  0  0  0  0  0  0  0  0
   19.0128   -6.6493  -10.2405 C   0  0  0  0  0  0  0  0  0  0  0  0
   22.0090   -5.3254  -15.2957 O   0  0  0  0  0  0  0  0  0  0  0  0
  2  1  1  1
  3  2  1  0
  4  5  1  1
  4  2  1  0
  6  4  1  0
  7  6  2  0
  8  6  1  0
  9 16  1  0
  9  8  1  0
  9 10  1  6
 11 10  1  0
 11 15  1  0
 12 13  1  0
 12 11  2  0
 13 14  1  0
 14 15  2  0
 16 17  2  0
 18 19  1  0
 19 29  2  0
 19 20  1  0
 20 21  2  0
 21 22  1  0
 22 23  1  0
 24 23  1  1
 25 24  1  0
 25 16  1  0
 26 24  1  0
 27 26  1  0
 28 22  2  0
 29 28  1  0
 30 26  2  0
M  END
$$$$
