VHY.pdb
     RDKit          3D

 30 31  0  0  1  0  0  0  0  0999 V2000
   37.0732   -8.8281   -8.1374 C   0  0  0  0  0  0  0  0  0  0  0  0
   37.6217   -7.6786   -7.3373 C   0  0  1  0  0  0  0  0  0  0  0  0
   37.0528   -7.7790   -5.9399 C   0  0  0  0  0  0  0  0  0  0  0  0
   39.1294   -7.7411   -7.3007 C   0  0  2  0  0  0  0  0  0  0  0  0
   39.5346   -8.9300   -6.5106 N   0  0  0  0  0  0  0  0  0  0  0  0
   39.6397   -6.5430   -6.6022 C   0  0  0  0  0  0  0  0  0  0  0  0
   39.7896   -6.5962   -5.3454 O   0  0  0  0  0  0  0  0  0  0  0  0
   39.9898   -5.3167   -7.2089 N   0  0  0  0  0  0  0  0  0  0  0  0
   40.5154   -4.2110   -6.3992 C   0  0  1  0  0  0  0  0  0  0  0  0
   41.0640   -3.2508   -7.4470 C   0  0  0  0  0  0  0  0  0  0  0  0
   42.3819   -3.5903   -7.9640 C   0  0  0  0  0  0  0  0  0  0  0  0
   43.0657   -4.7179   -7.4851 C   0  0  0  0  0  0  0  0  0  0  0  0
   44.2333   -4.8213   -8.0983 N   0  0  0  0  0  0  0  0  0  0  0  0
   44.3216   -3.7819   -8.9673 C   0  0  0  0  0  0  0  0  0  0  0  0
   43.1980   -3.0489   -8.8747 N   0  0  0  0  0  0  0  0  0  0  0  0
   39.4314   -3.5115   -5.6853 C   0  0  0  0  0  0  0  0  0  0  0  0
   38.2471   -3.7313   -6.0081 O   0  0  0  0  0  0  0  0  0  0  0  0
   34.5371   -1.9101    1.0516 O   0  0  0  0  0  0  0  0  0  0  0  0
   35.3803   -2.2626   -0.0084 C   0  0  0  0  0  0  0  0  0  0  0  0
   36.6198   -2.7714    0.2971 C   0  0  0  0  0  0  0  0  0  0  0  0
   37.5012   -3.1395   -0.7253 C   0  0  0  0  0  0  0  0  0  0  0  0
   37.0991   -2.9804   -2.0306 C   0  0  0  0  0  0  0  0  0  0  0  0
   38.0158   -3.3619   -3.1267 C   0  0  0  0  0  0  0  0  0  0  0  0
   38.5562   -2.1555   -3.8000 C   0  0  2  0  0  0  0  0  0  0  0  0
   39.6715   -2.5959   -4.6415 N   0  0  0  0  0  0  0  0  0  0  0  0
   39.0010   -1.0628   -2.9365 C   0  0  0  0  0  0  0  0  0  0  0  0
   38.1937   -0.0273   -2.4684 O   0  0  0  0  0  0  0  0  0  0  0  0
   35.8532   -2.4691   -2.3591 C   0  0  0  0  0  0  0  0  0  0  0  0
   35.0050   -2.1147   -1.3222 C   0  0  0  0  0  0  0  0  0  0  0  0
   40.2071   -1.0047   -2.5522 O   0  0  0  0  0  0  0  0  0  0  0  0
  2  1  1  6
  3  2  1  0
  4  5  1  1
  4  2  1  0
  6  4  1  0
  7  6  2  0
  8  6  1  0
  9 16  1  0
  9  8  1  0
  9 10  1  6
 11 10  1  0
 11 15  1  0
 12 13  1  0
 12 11  2  0
 13 14  1  0
 14 15  2  0
 16 17  2  0
 18 19  1  0
 19 29  2  0
 19 20  1  0
 20 21  2  0
 21 22  1  0
 22 23  1  0
 24 23  1  1
 25 24  1  0
 25 16  1  0
 26 24  1  0
 27 26  1  0
 28 22  2  0
 29 28  1  0
 30 26  2  0
M  END
$$$$
