VHY.pdb
     RDKit          3D

 30 31  0  0  1  0  0  0  0  0999 V2000
   26.4653  -13.3639  -19.1446 C   0  0  0  0  0  0  0  0  0  0  0  0
   26.1636  -14.8161  -18.8946 C   0  0  1  0  0  0  0  0  0  0  0  0
   25.0410  -15.2185  -19.8244 C   0  0  0  0  0  0  0  0  0  0  0  0
   27.3912  -15.6557  -19.1528 C   0  0  2  0  0  0  0  0  0  0  0  0
   27.7866  -15.4914  -20.5735 N   0  0  0  0  0  0  0  0  0  0  0  0
   27.0488  -17.0780  -18.9440 C   0  0  0  0  0  0  0  0  0  0  0  0
   26.6072  -17.7423  -19.9281 O   0  0  0  0  0  0  0  0  0  0  0  0
   27.1712  -17.7900  -17.7305 N   0  0  0  0  0  0  0  0  0  0  0  0
   26.8681  -19.2253  -17.6777 C   0  0  1  0  0  0  0  0  0  0  0  0
   28.0418  -19.8501  -18.4210 C   0  0  0  0  0  0  0  0  0  0  0  0
   27.9414  -21.2866  -18.6348 C   0  0  0  0  0  0  0  0  0  0  0  0
   26.8202  -21.9973  -18.1807 C   0  0  0  0  0  0  0  0  0  0  0  0
   26.9531  -23.2772  -18.4875 N   0  0  0  0  0  0  0  0  0  0  0  0
   28.1400  -23.4122  -19.1327 C   0  0  0  0  0  0  0  0  0  0  0  0
   28.7240  -22.2037  -19.2138 N   0  0  0  0  0  0  0  0  0  0  0  0
   26.9068  -19.7271  -16.2918 C   0  0  0  0  0  0  0  0  0  0  0  0
   27.7717  -19.2883  -15.5079 O   0  0  0  0  0  0  0  0  0  0  0  0
   24.9151  -20.9196   -8.1787 O   0  0  0  0  0  0  0  0  0  0  0  0
   25.1190  -20.6435   -9.5356 C   0  0  0  0  0  0  0  0  0  0  0  0
   26.4040  -20.3983   -9.9564 C   0  0  0  0  0  0  0  0  0  0  0  0
   26.6624  -20.1170  -11.3025 C   0  0  0  0  0  0  0  0  0  0  0  0
   25.6078  -20.0925  -12.1845 C   0  0  0  0  0  0  0  0  0  0  0  0
   25.8585  -19.7960  -13.6114 C   0  0  0  0  0  0  0  0  0  0  0  0
   26.0314  -21.0508  -14.3837 C   0  0  2  0  0  0  0  0  0  0  0  0
   26.0013  -20.6899  -15.8031 N   0  0  0  0  0  0  0  0  0  0  0  0
   25.0634  -22.1173  -14.1328 C   0  0  0  0  0  0  0  0  0  0  0  0
   25.2174  -23.1407  -13.1990 O   0  0  0  0  0  0  0  0  0  0  0  0
   24.3048  -20.3371  -11.7796 C   0  0  0  0  0  0  0  0  0  0  0  0
   24.0841  -20.6124  -10.4395 C   0  0  0  0  0  0  0  0  0  0  0  0
   23.9799  -22.1617  -14.7885 O   0  0  0  0  0  0  0  0  0  0  0  0
  2  1  1  6
  3  2  1  0
  4  5  1  6
  4  2  1  0
  6  4  1  0
  7  6  2  0
  8  6  1  0
  9 16  1  0
  9  8  1  0
  9 10  1  6
 11 10  1  0
 11 15  1  0
 12 13  1  0
 12 11  2  0
 13 14  1  0
 14 15  2  0
 16 17  2  0
 18 19  1  0
 19 29  2  0
 19 20  1  0
 20 21  2  0
 21 22  1  0
 22 23  1  0
 24 23  1  1
 25 24  1  0
 25 16  1  0
 26 24  1  0
 27 26  1  0
 28 22  2  0
 29 28  1  0
 30 26  2  0
M  END
$$$$
