VHY.pdb
     RDKit          3D

 30 31  0  0  1  0  0  0  0  0999 V2000
   25.9192  -16.4290  -14.8994 C   0  0  0  0  0  0  0  0  0  0  0  0
   25.2390  -15.1983  -15.4336 C   0  0  1  0  0  0  0  0  0  0  0  0
   26.0928  -14.6525  -16.5560 C   0  0  0  0  0  0  0  0  0  0  0  0
   23.8587  -15.5428  -15.9381 C   0  0  2  0  0  0  0  0  0  0  0  0
   23.9950  -16.4103  -17.1343 N   0  0  0  0  0  0  0  0  0  0  0  0
   23.1811  -14.2993  -16.3605 C   0  0  0  0  0  0  0  0  0  0  0  0
   23.2650  -13.9500  -17.5753 O   0  0  0  0  0  0  0  0  0  0  0  0
   22.4277  -13.4427  -15.5280 N   0  0  0  0  0  0  0  0  0  0  0  0
   21.7392  -12.2756  -16.0923 C   0  0  1  0  0  0  0  0  0  0  0  0
   20.2750  -12.5597  -15.7824 C   0  0  0  0  0  0  0  0  0  0  0  0
   19.6493  -13.5640  -16.6305 C   0  0  0  0  0  0  0  0  0  0  0  0
   19.1365  -14.7458  -16.0749 C   0  0  0  0  0  0  0  0  0  0  0  0
   18.6212  -15.4984  -17.0330 N   0  0  0  0  0  0  0  0  0  0  0  0
   18.7892  -14.8280  -18.2016 C   0  0  0  0  0  0  0  0  0  0  0  0
   19.4104  -13.6638  -17.9427 N   0  0  0  0  0  0  0  0  0  0  0  0
   22.1095  -11.0411  -15.3761 C   0  0  0  0  0  0  0  0  0  0  0  0
   22.2244  -11.0670  -14.1346 O   0  0  0  0  0  0  0  0  0  0  0  0
   28.1708  -11.6595  -16.6612 O   0  0  0  0  0  0  0  0  0  0  0  0
   27.1209  -10.7531  -16.4738 C   0  0  0  0  0  0  0  0  0  0  0  0
   26.2502  -10.5521  -17.5178 C   0  0  0  0  0  0  0  0  0  0  0  0
   25.1836   -9.6566  -17.3825 C   0  0  0  0  0  0  0  0  0  0  0  0
   25.0308   -8.9896  -16.1898 C   0  0  0  0  0  0  0  0  0  0  0  0
   23.9110   -8.0377  -16.0260 C   0  0  0  0  0  0  0  0  0  0  0  0
   22.8025   -8.6608  -15.2619 C   0  0  2  0  0  0  0  0  0  0  0  0
   22.3445   -9.8178  -16.0348 N   0  0  0  0  0  0  0  0  0  0  0  0
   21.6600   -7.8059  -14.9435 C   0  0  0  0  0  0  0  0  0  0  0  0
   21.6232   -6.8597  -13.9206 O   0  0  0  0  0  0  0  0  0  0  0  0
   25.8983   -9.1787  -15.1252 C   0  0  0  0  0  0  0  0  0  0  0  0
   26.9438  -10.0726  -15.2930 C   0  0  0  0  0  0  0  0  0  0  0  0
   20.5925   -7.8904  -15.6210 O   0  0  0  0  0  0  0  0  0  0  0  0
  2  1  1  6
  3  2  1  0
  4  5  1  6
  4  2  1  0
  6  4  1  0
  7  6  2  0
  8  6  1  0
  9 16  1  0
  9  8  1  0
  9 10  1  1
 11 10  1  0
 11 15  1  0
 12 13  1  0
 12 11  2  0
 13 14  1  0
 14 15  2  0
 16 17  2  0
 18 19  1  0
 19 29  2  0
 19 20  1  0
 20 21  2  0
 21 22  1  0
 22 23  1  0
 24 23  1  6
 25 24  1  0
 25 16  1  0
 26 24  1  0
 27 26  1  0
 28 22  2  0
 29 28  1  0
 30 26  2  0
M  END
$$$$
