VHY.pdb
     RDKit          3D

 30 31  0  0  1  0  0  0  0  0999 V2000
   30.2518  -23.7769  -23.0620 C   0  0  0  0  0  0  0  0  0  0  0  0
   29.3387  -24.3427  -22.0090 C   0  0  1  0  0  0  0  0  0  0  0  0
   30.1470  -25.3071  -21.1706 C   0  0  0  0  0  0  0  0  0  0  0  0
   28.7822  -23.2329  -21.1504 C   0  0  2  0  0  0  0  0  0  0  0  0
   29.9149  -22.4881  -20.5470 N   0  0  0  0  0  0  0  0  0  0  0  0
   27.9995  -23.8296  -20.0481 C   0  0  0  0  0  0  0  0  0  0  0  0
   28.6013  -24.1269  -18.9738 O   0  0  0  0  0  0  0  0  0  0  0  0
   26.6144  -24.1044  -20.0699 N   0  0  0  0  0  0  0  0  0  0  0  0
   25.9524  -24.6780  -18.8920 C   0  0  1  0  0  0  0  0  0  0  0  0
   24.4750  -24.5865  -19.2517 C   0  0  0  0  0  0  0  0  0  0  0  0
   23.5574  -24.9801  -18.1923 C   0  0  0  0  0  0  0  0  0  0  0  0
   24.0441  -25.5282  -16.9960 C   0  0  0  0  0  0  0  0  0  0  0  0
   23.0313  -25.8054  -16.1915 N   0  0  0  0  0  0  0  0  0  0  0  0
   21.8947  -25.4477  -16.8423 C   0  0  0  0  0  0  0  0  0  0  0  0
   22.2282  -24.9519  -18.0469 N   0  0  0  0  0  0  0  0  0  0  0  0
   26.2810  -26.1074  -18.7398 C   0  0  0  0  0  0  0  0  0  0  0  0
   26.3930  -26.8194  -19.7574 O   0  0  0  0  0  0  0  0  0  0  0  0
   29.7502  -33.5412  -15.9548 O   0  0  0  0  0  0  0  0  0  0  0  0
   29.2947  -32.2208  -16.0451 C   0  0  0  0  0  0  0  0  0  0  0  0
   29.6188  -31.5039  -17.1718 C   0  0  0  0  0  0  0  0  0  0  0  0
   29.1884  -30.1799  -17.3118 C   0  0  0  0  0  0  0  0  0  0  0  0
   28.4403  -29.6204  -16.3029 C   0  0  0  0  0  0  0  0  0  0  0  0
   27.9763  -28.2219  -16.4300 C   0  0  0  0  0  0  0  0  0  0  0  0
   26.8771  -28.1238  -17.4215 C   0  0  2  0  0  0  0  0  0  0  0  0
   26.4788  -26.7155  -17.4841 N   0  0  0  0  0  0  0  0  0  0  0  0
   25.6969  -28.9524  -17.1807 C   0  0  0  0  0  0  0  0  0  0  0  0
   25.5154  -30.2512  -17.6533 O   0  0  0  0  0  0  0  0  0  0  0  0
   28.1031  -30.3269  -15.1589 C   0  0  0  0  0  0  0  0  0  0  0  0
   28.5456  -31.6358  -15.0525 C   0  0  0  0  0  0  0  0  0  0  0  0
   24.7324  -28.5031  -16.4925 O   0  0  0  0  0  0  0  0  0  0  0  0
  2  1  1  6
  3  2  1  0
  4  5  1  1
  4  2  1  0
  6  4  1  0
  7  6  2  0
  8  6  1  0
  9 16  1  0
  9  8  1  0
  9 10  1  6
 11 10  1  0
 11 15  1  0
 12 13  1  0
 12 11  2  0
 13 14  1  0
 14 15  2  0
 16 17  2  0
 18 19  1  0
 19 29  2  0
 19 20  1  0
 20 21  2  0
 21 22  1  0
 22 23  1  0
 24 23  1  1
 25 24  1  0
 25 16  1  0
 26 24  1  0
 27 26  1  0
 28 22  2  0
 29 28  1  0
 30 26  2  0
M  END
$$$$
