VHY.pdb
     RDKit          3D

 30 31  0  0  1  0  0  0  0  0999 V2000
   27.0102  -13.7870  -15.6651 C   0  0  0  0  0  0  0  0  0  0  0  0
   26.0630  -12.6845  -16.0523 C   0  0  1  0  0  0  0  0  0  0  0  0
   26.8928  -11.5049  -16.5068 C   0  0  0  0  0  0  0  0  0  0  0  0
   25.1493  -13.1474  -17.1610 C   0  0  2  0  0  0  0  0  0  0  0  0
   25.9620  -13.3684  -18.3827 N   0  0  0  0  0  0  0  0  0  0  0  0
   24.1770  -12.0746  -17.4569 C   0  0  0  0  0  0  0  0  0  0  0  0
   24.5038  -11.1781  -18.2901 O   0  0  0  0  0  0  0  0  0  0  0  0
   22.8877  -11.9470  -16.8948 N   0  0  0  0  0  0  0  0  0  0  0  0
   22.0831  -10.7456  -17.1473 C   0  0  1  0  0  0  0  0  0  0  0  0
   20.8425  -11.3030  -17.8334 C   0  0  0  0  0  0  0  0  0  0  0  0
   21.0049  -11.6072  -19.2478 C   0  0  0  0  0  0  0  0  0  0  0  0
   21.0746  -12.9381  -19.6863 C   0  0  0  0  0  0  0  0  0  0  0  0
   21.2214  -12.9642  -21.0007 N   0  0  0  0  0  0  0  0  0  0  0  0
   21.2484  -11.6749  -21.4254 C   0  0  0  0  0  0  0  0  0  0  0  0
   21.1168  -10.8688  -20.3572 N   0  0  0  0  0  0  0  0  0  0  0  0
   21.6456  -10.1226  -15.8845 C   0  0  0  0  0  0  0  0  0  0  0  0
   21.2604  -10.8492  -14.9470 O   0  0  0  0  0  0  0  0  0  0  0  0
   24.9409   -3.4788  -16.3427 O   0  0  0  0  0  0  0  0  0  0  0  0
   24.3115   -4.5283  -15.6632 C   0  0  0  0  0  0  0  0  0  0  0  0
   24.6996   -5.8124  -15.9615 C   0  0  0  0  0  0  0  0  0  0  0  0
   24.1020   -6.8974  -15.3109 C   0  0  0  0  0  0  0  0  0  0  0  0
   23.1262   -6.6481  -14.3747 C   0  0  0  0  0  0  0  0  0  0  0  0
   22.4807   -7.7805  -13.6763 C   0  0  0  0  0  0  0  0  0  0  0  0
   21.2408   -8.1907  -14.3801 C   0  0  2  0  0  0  0  0  0  0  0  0
   21.6431   -8.7281  -15.6821 N   0  0  0  0  0  0  0  0  0  0  0  0
   20.2217   -7.1605  -14.5735 C   0  0  0  0  0  0  0  0  0  0  0  0
   19.5476   -6.4935  -13.5518 O   0  0  0  0  0  0  0  0  0  0  0  0
   22.7211   -5.3603  -14.0600 C   0  0  0  0  0  0  0  0  0  0  0  0
   23.3335   -4.3087  -14.7230 C   0  0  0  0  0  0  0  0  0  0  0  0
   19.8870   -6.8067  -15.7433 O   0  0  0  0  0  0  0  0  0  0  0  0
  2  1  1  6
  3  2  1  0
  4  5  1  6
  4  2  1  0
  6  4  1  0
  7  6  2  0
  8  6  1  0
  9 16  1  0
  9  8  1  0
  9 10  1  6
 11 10  1  0
 11 15  1  0
 12 13  1  0
 12 11  2  0
 13 14  1  0
 14 15  2  0
 16 17  2  0
 18 19  1  0
 19 29  2  0
 19 20  1  0
 20 21  2  0
 21 22  1  0
 22 23  1  0
 24 23  1  6
 25 24  1  0
 25 16  1  0
 26 24  1  0
 27 26  1  0
 28 22  2  0
 29 28  1  0
 30 26  2  0
M  END
$$$$
