VHY.pdb
     RDKit          3D

 30 31  0  0  1  0  0  0  0  0999 V2000
   27.3022  -12.2503  -15.4923 C   0  0  0  0  0  0  0  0  0  0  0  0
   26.1464  -11.3207  -15.7423 C   0  0  1  0  0  0  0  0  0  0  0  0
   26.7155   -9.9760  -16.1355 C   0  0  0  0  0  0  0  0  0  0  0  0
   25.2676  -11.8655  -16.8421 C   0  0  2  0  0  0  0  0  0  0  0  0
   26.0735  -11.9701  -18.0837 N   0  0  0  0  0  0  0  0  0  0  0  0
   24.1729  -10.9061  -17.0972 C   0  0  0  0  0  0  0  0  0  0  0  0
   24.3591   -9.9939  -17.9563 O   0  0  0  0  0  0  0  0  0  0  0  0
   22.9084  -10.9058  -16.4684 N   0  0  0  0  0  0  0  0  0  0  0  0
   21.9414   -9.8369  -16.7457 C   0  0  1  0  0  0  0  0  0  0  0  0
   20.6154  -10.5840  -16.8112 C   0  0  0  0  0  0  0  0  0  0  0  0
   19.4572   -9.7577  -17.1196 C   0  0  0  0  0  0  0  0  0  0  0  0
   19.5910   -8.3681  -17.2599 C   0  0  0  0  0  0  0  0  0  0  0  0
   18.4123   -7.8355  -17.5373 N   0  0  0  0  0  0  0  0  0  0  0  0
   17.5143   -8.8529  -17.5801 C   0  0  0  0  0  0  0  0  0  0  0  0
   18.1592  -10.0051  -17.3263 N   0  0  0  0  0  0  0  0  0  0  0  0
   21.8578   -8.8891  -15.6193 C   0  0  0  0  0  0  0  0  0  0  0  0
   22.1505   -9.2783  -14.4713 O   0  0  0  0  0  0  0  0  0  0  0  0
   26.0675   -3.6792  -17.7623 O   0  0  0  0  0  0  0  0  0  0  0  0
   25.2859   -4.4274  -16.8744 C   0  0  0  0  0  0  0  0  0  0  0  0
   24.4712   -3.7457  -16.0026 C   0  0  0  0  0  0  0  0  0  0  0  0
   23.6696   -4.4460  -15.0945 C   0  0  0  0  0  0  0  0  0  0  0  0
   23.7175   -5.8202  -15.0970 C   0  0  0  0  0  0  0  0  0  0  0  0
   22.8794   -6.5799  -14.1445 C   0  0  0  0  0  0  0  0  0  0  0  0
   21.4765   -6.6487  -14.6220 C   0  0  2  0  0  0  0  0  0  0  0  0
   21.4595   -7.5469  -15.7791 N   0  0  0  0  0  0  0  0  0  0  0  0
   20.8399   -5.3823  -14.9805 C   0  0  0  0  0  0  0  0  0  0  0  0
   20.3993   -5.0360  -16.2569 O   0  0  0  0  0  0  0  0  0  0  0  0
   24.5325   -6.5259  -15.9684 C   0  0  0  0  0  0  0  0  0  0  0  0
   25.3135   -5.8013  -16.8547 C   0  0  0  0  0  0  0  0  0  0  0  0
   20.6482   -4.4931  -14.0983 O   0  0  0  0  0  0  0  0  0  0  0  0
  2  1  1  6
  3  2  1  0
  4  5  1  6
  4  2  1  0
  6  4  1  0
  7  6  2  0
  8  6  1  0
  9 16  1  0
  9  8  1  0
  9 10  1  1
 11 10  1  0
 11 15  1  0
 12 13  1  0
 12 11  2  0
 13 14  1  0
 14 15  2  0
 16 17  2  0
 18 19  1  0
 19 29  2  0
 19 20  1  0
 20 21  2  0
 21 22  1  0
 22 23  1  0
 24 23  1  6
 25 24  1  0
 25 16  1  0
 26 24  1  0
 27 26  1  0
 28 22  2  0
 29 28  1  0
 30 26  2  0
M  END
$$$$
