VHY.pdb
     RDKit          3D

 30 31  0  0  1  0  0  0  0  0999 V2000
   28.8827  -26.1381  -19.1034 C   0  0  0  0  0  0  0  0  0  0  0  0
   28.4487  -24.9452  -18.2964 C   0  0  1  0  0  0  0  0  0  0  0  0
   28.0288  -25.4424  -16.9315 C   0  0  0  0  0  0  0  0  0  0  0  0
   29.5836  -23.9576  -18.1739 C   0  0  2  0  0  0  0  0  0  0  0  0
   30.6966  -24.6049  -17.4363 N   0  0  0  0  0  0  0  0  0  0  0  0
   29.1265  -22.8027  -17.3733 C   0  0  0  0  0  0  0  0  0  0  0  0
   29.3721  -22.7958  -16.1306 O   0  0  0  0  0  0  0  0  0  0  0  0
   28.4308  -21.6767  -17.8658 N   0  0  0  0  0  0  0  0  0  0  0  0
   28.0515  -20.5842  -16.9619 C   0  0  1  0  0  0  0  0  0  0  0  0
   27.8753  -19.4033  -17.9079 C   0  0  0  0  0  0  0  0  0  0  0  0
   29.0724  -18.6037  -18.1249 C   0  0  0  0  0  0  0  0  0  0  0  0
   30.2611  -18.9017  -17.4418 C   0  0  0  0  0  0  0  0  0  0  0  0
   31.2038  -18.0453  -17.7993 N   0  0  0  0  0  0  0  0  0  0  0  0
   30.6504  -17.1958  -18.7022 C   0  0  0  0  0  0  0  0  0  0  0  0
   29.3653  -17.5452  -18.8881 N   0  0  0  0  0  0  0  0  0  0  0  0
   26.7435  -20.8434  -16.3326 C   0  0  0  0  0  0  0  0  0  0  0  0
   25.9060  -21.5457  -16.9331 O   0  0  0  0  0  0  0  0  0  0  0  0
   20.3189  -21.5394  -10.4672 O   0  0  0  0  0  0  0  0  0  0  0  0
   21.5536  -21.3831  -11.1074 C   0  0  0  0  0  0  0  0  0  0  0  0
   21.9644  -22.3757  -11.9644 C   0  0  0  0  0  0  0  0  0  0  0  0
   23.1906  -22.2685  -12.6298 C   0  0  0  0  0  0  0  0  0  0  0  0
   23.9661  -21.1553  -12.4061 C   0  0  0  0  0  0  0  0  0  0  0  0
   25.2663  -21.0226  -13.0982 C   0  0  0  0  0  0  0  0  0  0  0  0
   25.0669  -20.6310  -14.5151 C   0  0  2  0  0  0  0  0  0  0  0  0
   26.3896  -20.3308  -15.0686 N   0  0  0  0  0  0  0  0  0  0  0  0
   24.1678  -19.5061  -14.7674 C   0  0  0  0  0  0  0  0  0  0  0  0
   22.7866  -19.6004  -14.9298 O   0  0  0  0  0  0  0  0  0  0  0  0
   23.5694  -20.1434  -11.5457 C   0  0  0  0  0  0  0  0  0  0  0  0
   22.3494  -20.2814  -10.9030 C   0  0  0  0  0  0  0  0  0  0  0  0
   24.6287  -18.3288  -14.8536 O   0  0  0  0  0  0  0  0  0  0  0  0
  2  1  1  6
  3  2  1  0
  4  5  1  1
  4  2  1  0
  6  4  1  0
  7  6  2  0
  8  6  1  0
  9 16  1  0
  9  8  1  0
  9 10  1  6
 11 10  1  0
 11 15  1  0
 12 13  1  0
 12 11  2  0
 13 14  1  0
 14 15  2  0
 16 17  2  0
 18 19  1  0
 19 29  2  0
 19 20  1  0
 20 21  2  0
 21 22  1  0
 22 23  1  0
 24 23  1  1
 25 24  1  0
 25 16  1  0
 26 24  1  0
 27 26  1  0
 28 22  2  0
 29 28  1  0
 30 26  2  0
M  END
$$$$
