VHY.pdb
     RDKit          3D

 30 31  0  0  1  0  0  0  0  0999 V2000
   23.0764  -13.3021  -20.0187 C   0  0  0  0  0  0  0  0  0  0  0  0
   22.3363  -12.1623  -19.3741 C   0  0  1  0  0  0  0  0  0  0  0  0
   21.8470  -11.2507  -20.4769 C   0  0  0  0  0  0  0  0  0  0  0  0
   21.1741  -12.6860  -18.5656 C   0  0  2  0  0  0  0  0  0  0  0  0
   20.2211  -13.3549  -19.4855 N   0  0  0  0  0  0  0  0  0  0  0  0
   20.4717  -11.5436  -17.9449 C   0  0  0  0  0  0  0  0  0  0  0  0
   19.6873  -10.8559  -18.6635 O   0  0  0  0  0  0  0  0  0  0  0  0
   20.5857  -11.1337  -16.5982 N   0  0  0  0  0  0  0  0  0  0  0  0
   19.9316   -9.9027  -16.1387 C   0  0  1  0  0  0  0  0  0  0  0  0
   19.3220  -10.3167  -14.8055 C   0  0  0  0  0  0  0  0  0  0  0  0
   17.9973  -10.9141  -14.8927 C   0  0  0  0  0  0  0  0  0  0  0  0
   17.3321  -10.9941  -16.1254 C   0  0  0  0  0  0  0  0  0  0  0  0
   16.1539  -11.5713  -15.9562 N   0  0  0  0  0  0  0  0  0  0  0  0
   16.0404  -11.8683  -14.6363 C   0  0  0  0  0  0  0  0  0  0  0  0
   17.1594  -11.4661  -14.0084 N   0  0  0  0  0  0  0  0  0  0  0  0
   20.9212   -8.8454  -15.8612 C   0  0  0  0  0  0  0  0  0  0  0  0
   22.1197   -9.1556  -15.7113 O   0  0  0  0  0  0  0  0  0  0  0  0
   25.8825   -2.1423  -17.3603 O   0  0  0  0  0  0  0  0  0  0  0  0
   25.0498   -3.2594  -17.2270 C   0  0  0  0  0  0  0  0  0  0  0  0
   23.8210   -3.2229  -17.8412 C   0  0  0  0  0  0  0  0  0  0  0  0
   22.9503   -4.3134  -17.7391 C   0  0  0  0  0  0  0  0  0  0  0  0
   23.3520   -5.4115  -17.0154 C   0  0  0  0  0  0  0  0  0  0  0  0
   22.4466   -6.5744  -16.8937 C   0  0  0  0  0  0  0  0  0  0  0  0
   21.6338   -6.4770  -15.6564 C   0  0  2  0  0  0  0  0  0  0  0  0
   20.5743   -7.4836  -15.7574 N   0  0  0  0  0  0  0  0  0  0  0  0
   21.0399   -5.1745  -15.3593 C   0  0  0  0  0  0  0  0  0  0  0  0
   21.6247   -4.1841  -14.5718 O   0  0  0  0  0  0  0  0  0  0  0  0
   24.5872   -5.4674  -16.3887 C   0  0  0  0  0  0  0  0  0  0  0  0
   25.4250   -4.3703  -16.5101 C   0  0  0  0  0  0  0  0  0  0  0  0
   19.9041   -4.8694  -15.8312 O   0  0  0  0  0  0  0  0  0  0  0  0
  2  1  1  6
  3  2  1  0
  4  5  1  6
  4  2  1  0
  6  4  1  0
  7  6  2  0
  8  6  1  0
  9 16  1  0
  9  8  1  0
  9 10  1  1
 11 10  1  0
 11 15  1  0
 12 13  1  0
 12 11  2  0
 13 14  1  0
 14 15  2  0
 16 17  2  0
 18 19  1  0
 19 29  2  0
 19 20  1  0
 20 21  2  0
 21 22  1  0
 22 23  1  0
 24 23  1  6
 25 24  1  0
 25 16  1  0
 26 24  1  0
 27 26  1  0
 28 22  2  0
 29 28  1  0
 30 26  2  0
M  END
$$$$
