VHY.pdb
     RDKit          3D

 30 31  0  0  1  0  0  0  0  0999 V2000
   20.2282  -13.8119  -17.9607 C   0  0  0  0  0  0  0  0  0  0  0  0
   20.9740  -12.8466  -17.0806 C   0  0  1  0  0  0  0  0  0  0  0  0
   22.4494  -13.1500  -17.2136 C   0  0  0  0  0  0  0  0  0  0  0  0
   20.6856  -11.4264  -17.5026 C   0  0  2  0  0  0  0  0  0  0  0  0
   21.1408  -11.2472  -18.9035 N   0  0  0  0  0  0  0  0  0  0  0  0
   21.4727  -10.5075  -16.6541 C   0  0  0  0  0  0  0  0  0  0  0  0
   21.2723  -10.5215  -15.4033 O   0  0  0  0  0  0  0  0  0  0  0  0
   22.4523   -9.5964  -17.1067 N   0  0  0  0  0  0  0  0  0  0  0  0
   23.1409   -8.7139  -16.1573 C   0  0  1  0  0  0  0  0  0  0  0  0
   24.5609   -8.6626  -16.7064 C   0  0  0  0  0  0  0  0  0  0  0  0
   25.4069   -9.7870  -16.3331 C   0  0  0  0  0  0  0  0  0  0  0  0
   24.8905  -10.8431  -15.5673 C   0  0  0  0  0  0  0  0  0  0  0  0
   25.8383  -11.7412  -15.3554 N   0  0  0  0  0  0  0  0  0  0  0  0
   26.9617  -11.2889  -15.9691 C   0  0  0  0  0  0  0  0  0  0  0  0
   26.6858  -10.1100  -16.5540 N   0  0  0  0  0  0  0  0  0  0  0  0
   22.5974   -7.3444  -16.2127 C   0  0  0  0  0  0  0  0  0  0  0  0
   22.2537   -6.8684  -17.3129 O   0  0  0  0  0  0  0  0  0  0  0  0
   18.8550    0.2656  -14.3748 O   0  0  0  0  0  0  0  0  0  0  0  0
   19.4279   -1.0080  -14.2816 C   0  0  0  0  0  0  0  0  0  0  0  0
   18.7123   -2.0731  -14.7736 C   0  0  0  0  0  0  0  0  0  0  0  0
   19.2396   -3.3673  -14.7050 C   0  0  0  0  0  0  0  0  0  0  0  0
   20.4799   -3.5441  -14.1384 C   0  0  0  0  0  0  0  0  0  0  0  0
   21.0552   -4.9039  -14.0547 C   0  0  0  0  0  0  0  0  0  0  0  0
   21.9415   -5.1689  -15.2144 C   0  0  2  0  0  0  0  0  0  0  0  0
   22.4440   -6.5371  -15.0680 N   0  0  0  0  0  0  0  0  0  0  0  0
   23.0672   -4.2557  -15.4055 C   0  0  0  0  0  0  0  0  0  0  0  0
   23.0899   -3.1809  -16.2928 O   0  0  0  0  0  0  0  0  0  0  0  0
   21.2171   -2.4828  -13.6367 C   0  0  0  0  0  0  0  0  0  0  0  0
   20.6654   -1.2143  -13.7206 C   0  0  0  0  0  0  0  0  0  0  0  0
   24.1319   -4.4076  -14.7353 O   0  0  0  0  0  0  0  0  0  0  0  0
  2  1  1  6
  3  2  1  0
  4  5  1  6
  4  2  1  0
  6  4  1  0
  7  6  2  0
  8  6  1  0
  9 16  1  0
  9  8  1  0
  9 10  1  6
 11 10  1  0
 11 15  1  0
 12 13  1  0
 12 11  2  0
 13 14  1  0
 14 15  2  0
 16 17  2  0
 18 19  1  0
 19 29  2  0
 19 20  1  0
 20 21  2  0
 21 22  1  0
 22 23  1  0
 24 23  1  1
 25 24  1  0
 25 16  1  0
 26 24  1  0
 27 26  1  0
 28 22  2  0
 29 28  1  0
 30 26  2  0
M  END
$$$$
