VHY.pdb
     RDKit          3D

 30 31  0  0  1  0  0  0  0  0999 V2000
   26.0933  -10.9544  -15.0745 C   0  0  0  0  0  0  0  0  0  0  0  0
   26.6346  -10.8459  -16.4736 C   0  0  1  0  0  0  0  0  0  0  0  0
   27.9427  -11.6030  -16.5198 C   0  0  0  0  0  0  0  0  0  0  0  0
   25.6512  -11.4278  -17.4599 C   0  0  2  0  0  0  0  0  0  0  0  0
   26.2118  -11.2865  -18.8265 N   0  0  0  0  0  0  0  0  0  0  0  0
   24.3999  -10.6436  -17.4050 C   0  0  0  0  0  0  0  0  0  0  0  0
   24.4181   -9.4493  -17.8268 O   0  0  0  0  0  0  0  0  0  0  0  0
   23.1548  -11.1033  -16.9224 N   0  0  0  0  0  0  0  0  0  0  0  0
   21.9709  -10.2373  -16.9786 C   0  0  1  0  0  0  0  0  0  0  0  0
   20.8239  -11.2333  -17.0916 C   0  0  0  0  0  0  0  0  0  0  0  0
   19.4946  -10.6408  -17.1258 C   0  0  0  0  0  0  0  0  0  0  0  0
   19.3251   -9.2607  -16.9385 C   0  0  0  0  0  0  0  0  0  0  0  0
   18.0394   -8.9584  -17.0114 N   0  0  0  0  0  0  0  0  0  0  0  0
   17.3692  -10.1163  -17.2428 C   0  0  0  0  0  0  0  0  0  0  0  0
   18.2600  -11.1214  -17.3091 N   0  0  0  0  0  0  0  0  0  0  0  0
   21.7906   -9.4991  -15.7150 C   0  0  0  0  0  0  0  0  0  0  0  0
   21.8538  -10.1165  -14.6334 O   0  0  0  0  0  0  0  0  0  0  0  0
   24.3156   -2.8290  -17.6203 O   0  0  0  0  0  0  0  0  0  0  0  0
   23.9668   -3.8734  -16.7562 C   0  0  0  0  0  0  0  0  0  0  0  0
   23.2304   -3.5645  -15.6378 C   0  0  0  0  0  0  0  0  0  0  0  0
   22.8556   -4.5716  -14.7415 C   0  0  0  0  0  0  0  0  0  0  0  0
   23.2394   -5.8652  -15.0062 C   0  0  0  0  0  0  0  0  0  0  0  0
   22.8550   -6.9446  -14.0713 C   0  0  0  0  0  0  0  0  0  0  0  0
   21.4873   -7.4343  -14.3720 C   0  0  2  0  0  0  0  0  0  0  0  0
   21.5486   -8.1117  -15.6694 N   0  0  0  0  0  0  0  0  0  0  0  0
   20.4202   -6.4352  -14.3954 C   0  0  0  0  0  0  0  0  0  0  0  0
   19.6569   -6.0989  -15.5123 O   0  0  0  0  0  0  0  0  0  0  0  0
   23.9821   -6.1968  -16.1287 C   0  0  0  0  0  0  0  0  0  0  0  0
   24.3365   -5.1753  -16.9955 C   0  0  0  0  0  0  0  0  0  0  0  0
   20.1235   -5.7947  -13.3430 O   0  0  0  0  0  0  0  0  0  0  0  0
  2  1  1  1
  3  2  1  0
  4  5  1  6
  4  2  1  0
  6  4  1  0
  7  6  2  0
  8  6  1  0
  9 16  1  0
  9  8  1  0
  9 10  1  1
 11 10  1  0
 11 15  1  0
 12 13  1  0
 12 11  2  0
 13 14  1  0
 14 15  2  0
 16 17  2  0
 18 19  1  0
 19 29  2  0
 19 20  1  0
 20 21  2  0
 21 22  1  0
 22 23  1  0
 24 23  1  6
 25 24  1  0
 25 16  1  0
 26 24  1  0
 27 26  1  0
 28 22  2  0
 29 28  1  0
 30 26  2  0
M  END
$$$$
