DWV.pdb
     RDKit          3D

 30 31  0  0  1  0  0  0  0  0999 V2000
   26.9210  -21.5100  -13.8944 N   0  0  0  0  0  0  0  0  0  0  0  0
   25.9789  -20.6296  -13.2633 C   0  0  1  0  0  0  0  0  0  0  0  0
   24.7649  -20.4913  -14.1343 C   0  0  0  0  0  0  0  0  0  0  0  0
   25.0369  -19.8790  -15.4484 C   0  0  0  0  0  0  0  0  0  0  0  0
   26.1677  -19.3426  -15.6262 O   0  0  0  0  0  0  0  0  0  0  0  0
   25.6980  -20.9538  -11.8636 C   0  0  0  0  0  0  0  0  0  0  0  0
   25.4442  -22.1528  -11.5787 O   0  0  0  0  0  0  0  0  0  0  0  0
   24.1038  -19.8809  -16.4612 O   0  0  0  0  0  0  0  0  0  0  0  0
   25.6858  -20.0277  -10.7956 N   0  0  0  0  0  0  0  0  0  0  0  0
   25.3793  -20.4250   -9.4397 C   0  0  1  0  0  0  0  0  0  0  0  0
   26.0753  -19.5560   -8.4565 C   0  0  0  0  0  0  0  0  0  0  0  0
   27.2795  -20.1969   -7.8819 C   0  0  0  0  0  0  0  0  0  0  0  0
   28.0670  -21.1271   -8.5266 C   0  0  0  0  0  0  0  0  0  0  0  0
   29.0890  -21.4960   -7.7048 N   0  0  0  0  0  0  0  0  0  0  0  0
   28.9905  -20.8336   -6.5436 C   0  0  0  0  0  0  0  0  0  0  0  0
   29.7084  -20.7883   -5.3645 C   0  0  0  0  0  0  0  0  0  0  0  0
   29.3315  -19.9735   -4.3250 C   0  0  0  0  0  0  0  0  0  0  0  0
   28.2192  -19.1629   -4.4103 C   0  0  0  0  0  0  0  0  0  0  0  0
   27.4962  -19.2060   -5.5929 C   0  0  0  0  0  0  0  0  0  0  0  0
   27.8597  -20.0180   -6.6467 C   0  0  0  0  0  0  0  0  0  0  0  0
   23.9046  -20.4172   -9.2887 C   0  0  0  0  0  0  0  0  0  0  0  0
   23.2550  -19.3432   -9.3353 O   0  0  0  0  0  0  0  0  0  0  0  0
   21.0777  -23.4895  -10.2879 C   0  0  0  0  0  0  0  0  0  0  0  0
   20.9057  -22.0120  -10.0116 C   0  0  2  0  0  0  0  0  0  0  0  0
   21.2231  -21.2708  -11.2605 C   0  0  0  0  0  0  0  0  0  0  0  0
   21.7162  -21.6119   -8.8175 C   0  0  2  0  0  0  0  0  0  0  0  0
   23.1387  -21.6045   -9.0848 N   0  0  0  0  0  0  0  0  0  0  0  0
   21.3723  -22.3125   -7.5661 C   0  0  0  0  0  0  0  0  0  0  0  0
   20.0798  -22.3239   -7.0277 O   0  0  0  0  0  0  0  0  0  0  0  0
   22.2235  -22.9490   -6.8976 O   0  0  0  0  0  0  0  0  0  0  0  0
  2  3  1  0
  2  1  1  6
  4  8  1  0
  4  3  1  0
  5  4  2  0
  6  2  1  0
  7  6  2  0
  9  6  1  0
 10  9  1  0
 11 12  1  0
 10 11  1  1
 12 13  2  0
 13 14  1  0
 15 14  1  0
 16 15  2  0
 17 16  1  0
 18 19  1  0
 18 17  2  0
 19 20  2  0
 20 12  1  0
 20 15  1  0
 21 10  1  0
 21 22  2  0
 24 26  1  0
 24 23  1  6
 25 24  1  0
 26 27  1  6
 27 21  1  0
 28 26  1  0
 29 28  1  0
 30 28  2  0
M  END
$$$$
