DWV.pdb
     RDKit          3D

 30 31  0  0  1  0  0  0  0  0999 V2000
   21.2874  -11.8912  -20.6659 N   0  0  0  0  0  0  0  0  0  0  0  0
   19.8588  -11.8412  -20.7971 C   0  0  1  0  0  0  0  0  0  0  0  0
   19.3581  -13.1613  -21.3053 C   0  0  0  0  0  0  0  0  0  0  0  0
   19.9817  -13.5917  -22.5708 C   0  0  0  0  0  0  0  0  0  0  0  0
   20.3096  -14.8074  -22.6830 O   0  0  0  0  0  0  0  0  0  0  0  0
   19.1639  -11.3346  -19.6123 C   0  0  0  0  0  0  0  0  0  0  0  0
   17.9117  -11.2256  -19.6685 O   0  0  0  0  0  0  0  0  0  0  0  0
   20.2079  -12.7144  -23.6080 O   0  0  0  0  0  0  0  0  0  0  0  0
   19.7840  -10.9527  -18.4006 N   0  0  0  0  0  0  0  0  0  0  0  0
   19.0192  -10.5505  -17.2415 C   0  0  1  0  0  0  0  0  0  0  0  0
   19.4398  -11.3059  -16.0337 C   0  0  0  0  0  0  0  0  0  0  0  0
   19.1045  -12.7453  -16.1167 C   0  0  0  0  0  0  0  0  0  0  0  0
   19.9944  -13.7499  -16.4328 C   0  0  0  0  0  0  0  0  0  0  0  0
   19.3450  -14.9473  -16.4109 N   0  0  0  0  0  0  0  0  0  0  0  0
   18.0582  -14.7523  -16.0899 C   0  0  0  0  0  0  0  0  0  0  0  0
   16.9471  -15.5546  -15.9175 C   0  0  0  0  0  0  0  0  0  0  0  0
   15.7261  -15.0268  -15.5757 C   0  0  0  0  0  0  0  0  0  0  0  0
   15.5527  -13.6716  -15.3886 C   0  0  0  0  0  0  0  0  0  0  0  0
   16.6662  -12.8633  -15.5610 C   0  0  0  0  0  0  0  0  0  0  0  0
   17.8997  -13.3757  -15.9042 C   0  0  0  0  0  0  0  0  0  0  0  0
   19.1608   -9.0822  -17.0938 C   0  0  0  0  0  0  0  0  0  0  0  0
   20.2940   -8.5418  -17.0574 O   0  0  0  0  0  0  0  0  0  0  0  0
   15.7650   -6.2291  -17.2161 C   0  0  0  0  0  0  0  0  0  0  0  0
   17.1627   -6.0506  -17.7670 C   0  0  2  0  0  0  0  0  0  0  0  0
   17.1544   -6.4812  -19.1898 C   0  0  0  0  0  0  0  0  0  0  0  0
   18.1548   -6.7610  -16.8989 C   0  0  2  0  0  0  0  0  0  0  0  0
   18.0427   -8.2014  -16.9855 N   0  0  0  0  0  0  0  0  0  0  0  0
   18.2288   -6.2750  -15.5084 C   0  0  0  0  0  0  0  0  0  0  0  0
   18.6769   -4.9920  -15.1706 O   0  0  0  0  0  0  0  0  0  0  0  0
   17.8919   -6.9861  -14.5301 O   0  0  0  0  0  0  0  0  0  0  0  0
  2  3  1  0
  2  1  1  1
  4  8  1  0
  4  3  1  0
  5  4  2  0
  6  2  1  0
  7  6  2  0
  9  6  1  0
 10  9  1  0
 11 12  1  0
 10 11  1  1
 12 13  2  0
 13 14  1  0
 15 14  1  0
 16 15  2  0
 17 16  1  0
 18 19  1  0
 18 17  2  0
 19 20  2  0
 20 12  1  0
 20 15  1  0
 21 10  1  0
 21 22  2  0
 24 26  1  0
 24 23  1  1
 25 24  1  0
 26 27  1  1
 27 21  1  0
 28 26  1  0
 29 28  1  0
 30 28  2  0
M  END
$$$$
