DWV.pdb
     RDKit          3D

 30 31  0  0  1  0  0  0  0  0999 V2000
   27.3762  -22.5402  -15.3694 N   0  0  0  0  0  0  0  0  0  0  0  0
   27.3411  -21.3178  -14.6177 C   0  0  1  0  0  0  0  0  0  0  0  0
   26.6861  -20.2462  -15.4387 C   0  0  0  0  0  0  0  0  0  0  0  0
   27.4707  -19.8298  -16.6163 C   0  0  0  0  0  0  0  0  0  0  0  0
   27.2249  -20.3969  -17.7191 O   0  0  0  0  0  0  0  0  0  0  0  0
   26.8123  -21.4622  -13.2602 C   0  0  0  0  0  0  0  0  0  0  0  0
   25.7802  -22.1647  -13.1044 O   0  0  0  0  0  0  0  0  0  0  0  0
   28.4430  -18.8578  -16.5385 O   0  0  0  0  0  0  0  0  0  0  0  0
   27.3652  -20.8741  -12.0996 N   0  0  0  0  0  0  0  0  0  0  0  0
   26.7324  -20.9910  -10.8050 C   0  0  1  0  0  0  0  0  0  0  0  0
   27.6430  -20.5413   -9.7211 C   0  0  0  0  0  0  0  0  0  0  0  0
   26.9892  -20.5369   -8.3930 C   0  0  0  0  0  0  0  0  0  0  0  0
   25.7161  -20.9987   -8.1343 C   0  0  0  0  0  0  0  0  0  0  0  0
   25.4449  -20.8463   -6.8079 N   0  0  0  0  0  0  0  0  0  0  0  0
   26.5038  -20.2987   -6.1950 C   0  0  0  0  0  0  0  0  0  0  0  0
   26.8147  -19.9188   -4.9039 C   0  0  0  0  0  0  0  0  0  0  0  0
   28.0328  -19.3666   -4.5913 C   0  0  0  0  0  0  0  0  0  0  0  0
   29.0018  -19.1658   -5.5516 C   0  0  0  0  0  0  0  0  0  0  0  0
   28.6928  -19.5460   -6.8489 C   0  0  0  0  0  0  0  0  0  0  0  0
   27.4752  -20.1018   -7.1811 C   0  0  0  0  0  0  0  0  0  0  0  0
   25.4595  -20.2329  -10.8539 C   0  0  0  0  0  0  0  0  0  0  0  0
   25.4527  -18.9912  -11.0425 O   0  0  0  0  0  0  0  0  0  0  0  0
   21.9145  -18.9993  -13.0409 C   0  0  0  0  0  0  0  0  0  0  0  0
   23.0474  -19.9277  -12.6620 C   0  0  2  0  0  0  0  0  0  0  0  0
   23.0352  -21.0765  -13.6054 C   0  0  0  0  0  0  0  0  0  0  0  0
   22.9488  -20.2992  -11.2146 C   0  0  2  0  0  0  0  0  0  0  0  0
   24.1820  -20.8494  -10.6937 N   0  0  0  0  0  0  0  0  0  0  0  0
   21.7660  -21.1039  -10.8555 C   0  0  0  0  0  0  0  0  0  0  0  0
   21.8118  -22.4922  -10.6790 O   0  0  0  0  0  0  0  0  0  0  0  0
   20.6328  -20.5915  -10.6835 O   0  0  0  0  0  0  0  0  0  0  0  0
  2  3  1  0
  2  1  1  6
  4  8  1  0
  4  3  1  0
  5  4  2  0
  6  2  1  0
  7  6  2  0
  9  6  1  0
 10  9  1  0
 11 12  1  0
 10 11  1  1
 12 13  2  0
 13 14  1  0
 15 14  1  0
 16 15  2  0
 17 16  1  0
 18 19  1  0
 18 17  2  0
 19 20  2  0
 20 12  1  0
 20 15  1  0
 21 10  1  0
 21 22  2  0
 24 26  1  0
 24 23  1  6
 25 24  1  0
 26 27  1  6
 27 21  1  0
 28 26  1  0
 29 28  1  0
 30 28  2  0
M  END
$$$$
