EWQ.pdb
     RDKit          3D

 33 34  0  0  1  0  0  0  0  0999 V2000
    8.0174  -17.8881   18.8509 N   0  0  0  0  0  0  0  0  0  0  0  0
    9.2235  -17.0681   18.9015 C   0  0  1  0  0  0  0  0  0  0  0  0
    9.3531  -16.2156   17.6869 C   0  0  0  0  0  0  0  0  0  0  0  0
    8.6324  -16.6988   16.4739 C   0  0  0  0  0  0  0  0  0  0  0  0
    8.8533  -15.6772   15.3998 C   0  0  0  0  0  0  0  0  0  0  0  0
    7.9563  -15.5074   14.5547 O   0  0  0  0  0  0  0  0  0  0  0  0
    9.2236  -16.3436   20.1767 C   0  0  0  0  0  0  0  0  0  0  0  0
   10.1752  -15.5764   20.5113 O   0  0  0  0  0  0  0  0  0  0  0  0
    9.9962  -14.9255   15.3090 O   0  0  0  0  0  0  0  0  0  0  0  0
    8.1661  -16.4402   21.1349 N   0  0  0  0  0  0  0  0  0  0  0  0
    8.2317  -15.8572   22.4519 C   0  0  1  0  0  0  0  0  0  0  0  0
    6.7869  -15.7057   22.9323 C   0  0  0  0  0  0  0  0  0  0  0  0
    6.7514  -15.2815   24.3573 C   0  0  0  0  0  0  0  0  0  0  0  0
    6.4973  -16.0631   25.4710 C   0  0  0  0  0  0  0  0  0  0  0  0
    6.5563  -15.2944   26.5833 N   0  0  0  0  0  0  0  0  0  0  0  0
    6.8425  -14.0250   26.2382 C   0  0  0  0  0  0  0  0  0  0  0  0
    7.0065  -12.8862   26.9996 C   0  0  0  0  0  0  0  0  0  0  0  0
    7.2999  -11.7216   26.3292 C   0  0  0  0  0  0  0  0  0  0  0  0
    7.4264  -11.6903   24.9421 C   0  0  0  0  0  0  0  0  0  0  0  0
    7.2591  -12.8350   24.2035 C   0  0  0  0  0  0  0  0  0  0  0  0
    6.9656  -14.0099   24.8507 C   0  0  0  0  0  0  0  0  0  0  0  0
    8.9742  -16.7449   23.3881 C   0  0  0  0  0  0  0  0  0  0  0  0
    8.7165  -17.9753   23.4028 O   0  0  0  0  0  0  0  0  0  0  0  0
   14.6743  -15.7038   23.2414 N   0  0  0  0  0  0  0  0  0  0  0  0
   14.7849  -16.7958   24.1467 C   0  0  0  0  0  0  0  0  0  0  0  0
   15.9153  -17.2719   24.3692 O   0  0  0  0  0  0  0  0  0  0  0  0
   13.5206  -17.2764   24.7537 C   0  0  0  0  0  0  0  0  0  0  0  0
   12.3010  -16.5671   24.2768 C   0  0  0  0  0  0  0  0  0  0  0  0
   10.9994  -17.1214   24.7997 C   0  0  2  0  0  0  0  0  0  0  0  0
    9.9566  -16.2379   24.2556 N   0  0  0  0  0  0  0  0  0  0  0  0
   10.9024  -17.0635   26.2753 C   0  0  0  0  0  0  0  0  0  0  0  0
   10.9374  -18.1101   26.9589 O   0  0  0  0  0  0  0  0  0  0  0  0
   10.7709  -15.8544   26.9320 O   0  0  0  0  0  0  0  0  0  0  0  0
  2  1  1  6
  2  3  1  0
  3  4  1  0
  4  5  1  0
  5  6  2  0
  7  8  2  0
  7  2  1  0
  9  5  1  0
 10  7  1  0
 11 10  1  0
 11 12  1  1
 12 13  1  0
 13 14  2  0
 13 21  1  0
 14 15  1  0
 15 16  1  0
 16 17  2  0
 18 17  1  0
 19 18  2  0
 20 21  2  0
 20 19  1  0
 21 16  1  0
 22 11  1  0
 23 22  2  0
 24 25  1  0
 25 26  2  0
 25 27  1  0
 27 28  1  0
 29 28  1  1
 29 30  1  0
 30 22  1  0
 31 33  1  0
 31 29  1  0
 32 31  2  0
M  END
$$$$
