EWQ.pdb
     RDKit          3D

 33 34  0  0  1  0  0  0  0  0999 V2000
    8.7883  -18.8810   21.4179 N   0  0  0  0  0  0  0  0  0  0  0  0
   10.0637  -18.1809   21.5295 C   0  0  1  0  0  0  0  0  0  0  0  0
   10.3254  -17.3328   20.3332 C   0  0  0  0  0  0  0  0  0  0  0  0
   10.5940  -18.0664   19.0628 C   0  0  0  0  0  0  0  0  0  0  0  0
   10.8941  -17.0341   18.0185 C   0  0  0  0  0  0  0  0  0  0  0  0
   12.0595  -16.6082   17.9288 O   0  0  0  0  0  0  0  0  0  0  0  0
   10.0788  -17.4722   22.8136 C   0  0  0  0  0  0  0  0  0  0  0  0
   10.9950  -16.6497   23.1142 O   0  0  0  0  0  0  0  0  0  0  0  0
    9.9439  -16.5415   17.1619 O   0  0  0  0  0  0  0  0  0  0  0  0
    9.0763  -17.6468   23.8186 N   0  0  0  0  0  0  0  0  0  0  0  0
    9.0921  -16.9572   25.0847 C   0  0  1  0  0  0  0  0  0  0  0  0
    7.6533  -16.5124   25.3550 C   0  0  0  0  0  0  0  0  0  0  0  0
    7.3672  -15.2233   24.6708 C   0  0  0  0  0  0  0  0  0  0  0  0
    7.1853  -15.0015   23.3167 C   0  0  0  0  0  0  0  0  0  0  0  0
    6.9477  -13.6862   23.1041 N   0  0  0  0  0  0  0  0  0  0  0  0
    6.9670  -13.0298   24.2794 C   0  0  0  0  0  0  0  0  0  0  0  0
    6.7823  -11.6970   24.5843 C   0  0  0  0  0  0  0  0  0  0  0  0
    6.8665  -11.3406   25.9102 C   0  0  0  0  0  0  0  0  0  0  0  0
    7.1269  -12.2820   26.9036 C   0  0  0  0  0  0  0  0  0  0  0  0
    7.3075  -13.6031   26.5782 C   0  0  0  0  0  0  0  0  0  0  0  0
    7.2281  -13.9829   25.2611 C   0  0  0  0  0  0  0  0  0  0  0  0
    9.5437  -17.8631   26.1761 C   0  0  0  0  0  0  0  0  0  0  0  0
    8.7382  -18.7049   26.6488 O   0  0  0  0  0  0  0  0  0  0  0  0
   15.4389  -19.3006   27.3608 N   0  0  0  0  0  0  0  0  0  0  0  0
   14.6687  -19.5881   26.1997 C   0  0  0  0  0  0  0  0  0  0  0  0
   15.2617  -19.9715   25.1723 O   0  0  0  0  0  0  0  0  0  0  0  0
   13.2031  -19.4013   26.3209 C   0  0  0  0  0  0  0  0  0  0  0  0
   12.7611  -18.8359   27.6259 C   0  0  0  0  0  0  0  0  0  0  0  0
   11.2678  -18.6912   27.7816 C   0  0  2  0  0  0  0  0  0  0  0  0
   10.8501  -17.7982   26.6896 N   0  0  0  0  0  0  0  0  0  0  0  0
   10.8837  -18.0423   29.0550 C   0  0  0  0  0  0  0  0  0  0  0  0
   10.5334  -16.8421   29.0796 O   0  0  0  0  0  0  0  0  0  0  0  0
   10.9030  -18.7453   30.2449 O   0  0  0  0  0  0  0  0  0  0  0  0
  2  1  1  6
  2  3  1  0
  3  4  1  0
  4  5  1  0
  5  6  2  0
  7  8  2  0
  7  2  1  0
  9  5  1  0
 10  7  1  0
 11 10  1  0
 11 12  1  1
 12 13  1  0
 13 14  2  0
 13 21  1  0
 14 15  1  0
 15 16  1  0
 16 17  2  0
 18 17  1  0
 19 18  2  0
 20 21  2  0
 20 19  1  0
 21 16  1  0
 22 11  1  0
 23 22  2  0
 24 25  1  0
 25 26  2  0
 25 27  1  0
 27 28  1  0
 29 28  1  1
 29 30  1  0
 30 22  1  0
 31 33  1  0
 31 29  1  0
 32 31  2  0
M  END
$$$$
