EWQ.pdb
     RDKit          3D

 33 34  0  0  1  0  0  0  0  0999 V2000
    6.3639  -17.2670   21.2994 N   0  0  0  0  0  0  0  0  0  0  0  0
    7.7088  -17.1322   20.7496 C   0  0  1  0  0  0  0  0  0  0  0  0
    7.6903  -16.4426   19.4293 C   0  0  0  0  0  0  0  0  0  0  0  0
    7.5992  -17.3298   18.2341 C   0  0  0  0  0  0  0  0  0  0  0  0
    8.5392  -16.7751   17.2069 C   0  0  0  0  0  0  0  0  0  0  0  0
    9.5880  -17.4005   16.9692 O   0  0  0  0  0  0  0  0  0  0  0  0
    8.5533  -16.5041   21.7712 C   0  0  0  0  0  0  0  0  0  0  0  0
    9.3741  -15.5812   21.4871 O   0  0  0  0  0  0  0  0  0  0  0  0
    8.2938  -15.6135   16.5213 O   0  0  0  0  0  0  0  0  0  0  0  0
    8.5216  -16.8743   23.1523 N   0  0  0  0  0  0  0  0  0  0  0  0
    9.3953  -16.3046   24.1477 C   0  0  1  0  0  0  0  0  0  0  0  0
    8.6356  -16.3587   25.4747 C   0  0  0  0  0  0  0  0  0  0  0  0
    7.4674  -15.4386   25.4464 C   0  0  0  0  0  0  0  0  0  0  0  0
    6.1418  -15.7549   25.2046 C   0  0  0  0  0  0  0  0  0  0  0  0
    5.3922  -14.6297   25.2666 N   0  0  0  0  0  0  0  0  0  0  0  0
    6.1839  -13.5764   25.5428 C   0  0  0  0  0  0  0  0  0  0  0  0
    5.8978  -12.2365   25.7052 C   0  0  0  0  0  0  0  0  0  0  0  0
    6.9532  -11.4006   25.9871 C   0  0  0  0  0  0  0  0  0  0  0  0
    8.2550  -11.8831   26.1039 C   0  0  0  0  0  0  0  0  0  0  0  0
    8.5175  -13.2201   25.9385 C   0  0  0  0  0  0  0  0  0  0  0  0
    7.4799  -14.0741   25.6564 C   0  0  0  0  0  0  0  0  0  0  0  0
   10.6520  -17.0938   24.2641 C   0  0  0  0  0  0  0  0  0  0  0  0
   10.6064  -18.3439   24.1387 O   0  0  0  0  0  0  0  0  0  0  0  0
   16.0784  -14.7244   22.7693 N   0  0  0  0  0  0  0  0  0  0  0  0
   16.5762  -15.9190   23.3603 C   0  0  0  0  0  0  0  0  0  0  0  0
   17.8088  -16.1048   23.3786 O   0  0  0  0  0  0  0  0  0  0  0  0
   15.5633  -16.8512   23.9104 C   0  0  0  0  0  0  0  0  0  0  0  0
   14.1723  -16.3189   23.9083 C   0  0  0  0  0  0  0  0  0  0  0  0
   13.1348  -17.2526   24.4799 C   0  0  2  0  0  0  0  0  0  0  0  0
   11.8880  -16.4724   24.5110 N   0  0  0  0  0  0  0  0  0  0  0  0
   13.4350  -17.6624   25.8699 C   0  0  0  0  0  0  0  0  0  0  0  0
   12.9710  -17.0218   26.8385 O   0  0  0  0  0  0  0  0  0  0  0  0
   14.2335  -18.7600   26.1305 O   0  0  0  0  0  0  0  0  0  0  0  0
  2  1  1  1
  2  3  1  0
  3  4  1  0
  4  5  1  0
  5  6  2  0
  7  8  2  0
  7  2  1  0
  9  5  1  0
 10  7  1  0
 11 10  1  0
 11 12  1  1
 12 13  1  0
 13 14  2  0
 13 21  1  0
 14 15  1  0
 15 16  1  0
 16 17  2  0
 18 17  1  0
 19 18  2  0
 20 21  2  0
 20 19  1  0
 21 16  1  0
 22 11  1  0
 23 22  2  0
 24 25  1  0
 25 26  2  0
 25 27  1  0
 27 28  1  0
 29 28  1  1
 29 30  1  0
 30 22  1  0
 31 33  1  0
 31 29  1  0
 32 31  2  0
M  END
$$$$
