EWQ.pdb
     RDKit          3D

 33 34  0  0  1  0  0  0  0  0999 V2000
    9.6790  -18.2402   19.9135 N   0  0  0  0  0  0  0  0  0  0  0  0
   10.8097  -18.1523   20.8318 C   0  0  1  0  0  0  0  0  0  0  0  0
   12.0662  -17.7960   20.1153 C   0  0  0  0  0  0  0  0  0  0  0  0
   11.9419  -16.7360   19.0737 C   0  0  0  0  0  0  0  0  0  0  0  0
   13.3026  -16.5543   18.4722 C   0  0  0  0  0  0  0  0  0  0  0  0
   14.1252  -15.8454   19.0791 O   0  0  0  0  0  0  0  0  0  0  0  0
   10.4349  -17.2479   21.9239 C   0  0  0  0  0  0  0  0  0  0  0  0
   11.0558  -16.1642   22.1393 O   0  0  0  0  0  0  0  0  0  0  0  0
   13.6778  -17.1332   17.2875 O   0  0  0  0  0  0  0  0  0  0  0  0
    9.3540  -17.5086   22.8235 N   0  0  0  0  0  0  0  0  0  0  0  0
    8.9767  -16.6168   23.8917 C   0  0  1  0  0  0  0  0  0  0  0  0
    7.6059  -16.0483   23.5192 C   0  0  0  0  0  0  0  0  0  0  0  0
    7.0786  -15.1935   24.6162 C   0  0  0  0  0  0  0  0  0  0  0  0
    6.2849  -15.5745   25.6842 C   0  0  0  0  0  0  0  0  0  0  0  0
    6.0214  -14.4949   26.4566 N   0  0  0  0  0  0  0  0  0  0  0  0
    6.6182  -13.4088   25.9305 C   0  0  0  0  0  0  0  0  0  0  0  0
    6.6469  -12.0925   26.3429 C   0  0  0  0  0  0  0  0  0  0  0  0
    7.3621  -11.2091   25.5682 C   0  0  0  0  0  0  0  0  0  0  0  0
    8.0290  -11.6226   24.4170 C   0  0  0  0  0  0  0  0  0  0  0  0
    7.9874  -12.9372   24.0247 C   0  0  0  0  0  0  0  0  0  0  0  0
    7.2797  -13.8377   24.7821 C   0  0  0  0  0  0  0  0  0  0  0  0
    8.8743  -17.3500   25.1830 C   0  0  0  0  0  0  0  0  0  0  0  0
    8.2946  -16.8037   26.1557 O   0  0  0  0  0  0  0  0  0  0  0  0
   13.8896  -19.2441   23.5864 N   0  0  0  0  0  0  0  0  0  0  0  0
   13.9710  -19.0139   24.9880 C   0  0  0  0  0  0  0  0  0  0  0  0
   14.7646  -19.7025   25.6589 O   0  0  0  0  0  0  0  0  0  0  0  0
   13.0869  -17.9556   25.5323 C   0  0  0  0  0  0  0  0  0  0  0  0
   11.6790  -18.0231   25.0513 C   0  0  0  0  0  0  0  0  0  0  0  0
   10.7476  -18.8251   25.9254 C   0  0  2  0  0  0  0  0  0  0  0  0
    9.4113  -18.6393   25.3389 N   0  0  0  0  0  0  0  0  0  0  0  0
   10.6933  -18.3246   27.3170 C   0  0  0  0  0  0  0  0  0  0  0  0
   10.6743  -19.1205   28.2814 O   0  0  0  0  0  0  0  0  0  0  0  0
   10.6622  -16.9687   27.5840 O   0  0  0  0  0  0  0  0  0  0  0  0
  2  1  1  6
  2  3  1  0
  3  4  1  0
  4  5  1  0
  5  6  2  0
  7  8  2  0
  7  2  1  0
  9  5  1  0
 10  7  1  0
 11 10  1  0
 11 12  1  6
 12 13  1  0
 13 14  2  0
 13 21  1  0
 14 15  1  0
 15 16  1  0
 16 17  2  0
 18 17  1  0
 19 18  2  0
 20 21  2  0
 20 19  1  0
 21 16  1  0
 22 11  1  0
 23 22  2  0
 24 25  1  0
 25 26  2  0
 25 27  1  0
 27 28  1  0
 29 28  1  6
 29 30  1  0
 30 22  1  0
 31 33  1  0
 31 29  1  0
 32 31  2  0
M  END
$$$$
