EWQ.pdb
     RDKit          3D

 33 34  0  0  1  0  0  0  0  0999 V2000
    7.3677  -17.4454   20.7615 N   0  0  0  0  0  0  0  0  0  0  0  0
    8.5157  -16.6511   20.3363 C   0  0  1  0  0  0  0  0  0  0  0  0
    8.1198  -15.6068   19.3506 C   0  0  0  0  0  0  0  0  0  0  0  0
    7.0888  -16.0130   18.3525 C   0  0  0  0  0  0  0  0  0  0  0  0
    7.7953  -16.1869   17.0422 C   0  0  0  0  0  0  0  0  0  0  0  0
    9.0103  -15.9252   16.9887 O   0  0  0  0  0  0  0  0  0  0  0  0
    9.1895  -16.1516   21.5395 C   0  0  0  0  0  0  0  0  0  0  0  0
   10.0709  -15.2425   21.4853 O   0  0  0  0  0  0  0  0  0  0  0  0
    7.1628  -16.6199   15.9055 O   0  0  0  0  0  0  0  0  0  0  0  0
    8.9127  -16.6406   22.8548 N   0  0  0  0  0  0  0  0  0  0  0  0
    9.5753  -16.1538   24.0391 C   0  0  1  0  0  0  0  0  0  0  0  0
    8.5660  -16.2758   25.1827 C   0  0  0  0  0  0  0  0  0  0  0  0
    7.5065  -15.2395   25.0577 C   0  0  0  0  0  0  0  0  0  0  0  0
    6.2929  -15.3395   24.3999 C   0  0  0  0  0  0  0  0  0  0  0  0
    5.6182  -14.1724   24.5205 N   0  0  0  0  0  0  0  0  0  0  0  0
    6.3506  -13.3016   25.2400 C   0  0  0  0  0  0  0  0  0  0  0  0
    6.1013  -12.0019   25.6299 C   0  0  0  0  0  0  0  0  0  0  0  0
    7.0726  -11.3743   26.3746 C   0  0  0  0  0  0  0  0  0  0  0  0
    8.2574  -12.0203   26.7212 C   0  0  0  0  0  0  0  0  0  0  0  0
    8.4853  -13.3137   26.3228 C   0  0  0  0  0  0  0  0  0  0  0  0
    7.5300  -13.9610   25.5784 C   0  0  0  0  0  0  0  0  0  0  0  0
   10.7771  -16.9754   24.3497 C   0  0  0  0  0  0  0  0  0  0  0  0
   10.6719  -18.2276   24.3897 O   0  0  0  0  0  0  0  0  0  0  0  0
   16.4286  -15.1592   22.9319 N   0  0  0  0  0  0  0  0  0  0  0  0
   16.8258  -16.1669   23.8544 C   0  0  0  0  0  0  0  0  0  0  0  0
   18.0431  -16.3901   24.0038 O   0  0  0  0  0  0  0  0  0  0  0  0
   15.7339  -16.8727   24.5665 C   0  0  0  0  0  0  0  0  0  0  0  0
   14.3766  -16.3101   24.3230 C   0  0  0  0  0  0  0  0  0  0  0  0
   13.2351  -17.2119   24.7214 C   0  0  2  0  0  0  0  0  0  0  0  0
   12.0263  -16.3823   24.5992 N   0  0  0  0  0  0  0  0  0  0  0  0
   13.3228  -17.6612   26.1287 C   0  0  0  0  0  0  0  0  0  0  0  0
   14.0179  -18.6531   26.4400 O   0  0  0  0  0  0  0  0  0  0  0  0
   12.6402  -16.9973   27.1306 O   0  0  0  0  0  0  0  0  0  0  0  0
  2  1  1  1
  2  3  1  0
  3  4  1  0
  4  5  1  0
  5  6  2  0
  7  8  2  0
  7  2  1  0
  9  5  1  0
 10  7  1  0
 11 10  1  0
 11 12  1  1
 12 13  1  0
 13 14  2  0
 13 21  1  0
 14 15  1  0
 15 16  1  0
 16 17  2  0
 18 17  1  0
 19 18  2  0
 20 21  2  0
 20 19  1  0
 21 16  1  0
 22 11  1  0
 23 22  2  0
 24 25  1  0
 25 26  2  0
 25 27  1  0
 27 28  1  0
 29 28  1  1
 29 30  1  0
 30 22  1  0
 31 33  1  0
 31 29  1  0
 32 31  2  0
M  END
$$$$
