EWQ.pdb
     RDKit          3D

 33 34  0  0  1  0  0  0  0  0999 V2000
   10.0427  -18.0644   19.8136 N   0  0  0  0  0  0  0  0  0  0  0  0
   11.2437  -17.8034   20.6003 C   0  0  1  0  0  0  0  0  0  0  0  0
   12.3345  -17.2394   19.7571 C   0  0  0  0  0  0  0  0  0  0  0  0
   12.4039  -17.7499   18.3575 C   0  0  0  0  0  0  0  0  0  0  0  0
   13.5771  -17.0811   17.7073 C   0  0  0  0  0  0  0  0  0  0  0  0
   14.6742  -17.1163   18.2926 O   0  0  0  0  0  0  0  0  0  0  0  0
   10.8583  -16.9840   21.7541 C   0  0  0  0  0  0  0  0  0  0  0  0
   11.7202  -16.4347   22.5035 O   0  0  0  0  0  0  0  0  0  0  0  0
   13.4932  -16.4353   16.5009 O   0  0  0  0  0  0  0  0  0  0  0  0
    9.4987  -16.7396   22.1247 N   0  0  0  0  0  0  0  0  0  0  0  0
    9.1129  -16.1270   23.3715 C   0  0  1  0  0  0  0  0  0  0  0  0
    7.6693  -15.6522   23.1937 C   0  0  0  0  0  0  0  0  0  0  0  0
    7.1595  -15.0459   24.4525 C   0  0  0  0  0  0  0  0  0  0  0  0
    6.4185  -15.6551   25.4503 C   0  0  0  0  0  0  0  0  0  0  0  0
    6.1532  -14.7559   26.4264 N   0  0  0  0  0  0  0  0  0  0  0  0
    6.6977  -13.5677   26.1036 C   0  0  0  0  0  0  0  0  0  0  0  0
    6.7037  -12.3562   26.7637 C   0  0  0  0  0  0  0  0  0  0  0  0
    7.3628  -11.3142   26.1539 C   0  0  0  0  0  0  0  0  0  0  0  0
    7.9972  -11.4723   24.9236 C   0  0  0  0  0  0  0  0  0  0  0  0
    7.9789  -12.6865   24.2840 C   0  0  0  0  0  0  0  0  0  0  0  0
    7.3271  -13.7417   24.8732 C   0  0  0  0  0  0  0  0  0  0  0  0
    9.1770  -17.1101   24.4873 C   0  0  0  0  0  0  0  0  0  0  0  0
    8.5399  -18.1898   24.3924 O   0  0  0  0  0  0  0  0  0  0  0  0
   13.7794  -19.1847   24.1273 N   0  0  0  0  0  0  0  0  0  0  0  0
   13.5796  -18.8624   25.4985 C   0  0  0  0  0  0  0  0  0  0  0  0
   14.3831  -19.3125   26.3386 O   0  0  0  0  0  0  0  0  0  0  0  0
   12.4111  -18.0041   25.8080 C   0  0  0  0  0  0  0  0  0  0  0  0
   11.2103  -18.7474   26.2809 C   0  0  0  0  0  0  0  0  0  0  0  0
   10.0496  -17.8788   26.6972 C   0  0  2  0  0  0  0  0  0  0  0  0
    9.9337  -16.8580   25.6442 N   0  0  0  0  0  0  0  0  0  0  0  0
   10.2913  -17.1713   27.9744 C   0  0  0  0  0  0  0  0  0  0  0  0
   10.4498  -17.8099   29.0378 O   0  0  0  0  0  0  0  0  0  0  0  0
   10.3473  -15.7911   28.0227 O   0  0  0  0  0  0  0  0  0  0  0  0
  2  1  1  6
  2  3  1  0
  3  4  1  0
  4  5  1  0
  5  6  2  0
  7  8  2  0
  7  2  1  0
  9  5  1  0
 10  7  1  0
 11 10  1  0
 11 12  1  6
 12 13  1  0
 13 14  2  0
 13 21  1  0
 14 15  1  0
 15 16  1  0
 16 17  2  0
 18 17  1  0
 19 18  2  0
 20 21  2  0
 20 19  1  0
 21 16  1  0
 22 11  1  0
 23 22  2  0
 24 25  1  0
 25 26  2  0
 25 27  1  0
 27 28  1  0
 29 28  1  6
 29 30  1  0
 30 22  1  0
 31 33  1  0
 31 29  1  0
 32 31  2  0
M  END
$$$$
