EWQ.pdb
     RDKit          3D

 33 34  0  0  1  0  0  0  0  0999 V2000
    9.4002  -18.2780   21.3030 N   0  0  0  0  0  0  0  0  0  0  0  0
   10.7205  -17.8024   21.7033 C   0  0  1  0  0  0  0  0  0  0  0  0
   11.3113  -16.9049   20.6716 C   0  0  0  0  0  0  0  0  0  0  0  0
   11.5618  -17.5242   19.3382 C   0  0  0  0  0  0  0  0  0  0  0  0
   12.1454  -16.4557   18.4641 C   0  0  0  0  0  0  0  0  0  0  0  0
   13.0254  -15.7182   18.9430 O   0  0  0  0  0  0  0  0  0  0  0  0
   10.6032  -17.2208   23.0446 C   0  0  0  0  0  0  0  0  0  0  0  0
   11.5419  -16.5493   23.5681 O   0  0  0  0  0  0  0  0  0  0  0  0
   11.7529  -16.2573   17.1656 O   0  0  0  0  0  0  0  0  0  0  0  0
    9.4377  -17.3601   23.8618 N   0  0  0  0  0  0  0  0  0  0  0  0
    9.3346  -16.8248   25.1965 C   0  0  1  0  0  0  0  0  0  0  0  0
    7.8539  -16.5163   25.4277 C   0  0  0  0  0  0  0  0  0  0  0  0
    7.4625  -15.2694   24.7175 C   0  0  0  0  0  0  0  0  0  0  0  0
    7.1822  -15.1099   23.3715 C   0  0  0  0  0  0  0  0  0  0  0  0
    6.8687  -13.8162   23.1274 N   0  0  0  0  0  0  0  0  0  0  0  0
    6.9333  -13.1135   24.2740 C   0  0  0  0  0  0  0  0  0  0  0  0
    6.7055  -11.7795   24.5418 C   0  0  0  0  0  0  0  0  0  0  0  0
    6.8589  -11.3674   25.8451 C   0  0  0  0  0  0  0  0  0  0  0  0
    7.2282  -12.2560   26.8526 C   0  0  0  0  0  0  0  0  0  0  0  0
    7.4501  -13.5794   26.5642 C   0  0  0  0  0  0  0  0  0  0  0  0
    7.3032  -14.0143   25.2701 C   0  0  0  0  0  0  0  0  0  0  0  0
    9.7963  -17.8191   26.2035 C   0  0  0  0  0  0  0  0  0  0  0  0
    8.9711  -18.6390   26.6806 O   0  0  0  0  0  0  0  0  0  0  0  0
   15.6034  -18.3090   25.4004 N   0  0  0  0  0  0  0  0  0  0  0  0
   15.1374  -19.2487   26.3616 C   0  0  0  0  0  0  0  0  0  0  0  0
   15.9768  -19.8636   27.0480 O   0  0  0  0  0  0  0  0  0  0  0  0
   13.6674  -19.4135   26.4599 C   0  0  0  0  0  0  0  0  0  0  0  0
   13.0568  -18.7814   27.6623 C   0  0  0  0  0  0  0  0  0  0  0  0
   11.5488  -18.7960   27.6901 C   0  0  2  0  0  0  0  0  0  0  0  0
   11.1337  -17.8614   26.6326 N   0  0  0  0  0  0  0  0  0  0  0  0
   10.9935  -18.2943   28.9668 C   0  0  0  0  0  0  0  0  0  0  0  0
   10.6263  -19.0893   29.8595 O   0  0  0  0  0  0  0  0  0  0  0  0
   10.8672  -16.9382   29.2028 O   0  0  0  0  0  0  0  0  0  0  0  0
  2  1  1  6
  2  3  1  0
  3  4  1  0
  4  5  1  0
  5  6  2  0
  7  8  2  0
  7  2  1  0
  9  5  1  0
 10  7  1  0
 11 10  1  0
 11 12  1  1
 12 13  1  0
 13 14  2  0
 13 21  1  0
 14 15  1  0
 15 16  1  0
 16 17  2  0
 18 17  1  0
 19 18  2  0
 20 21  2  0
 20 19  1  0
 21 16  1  0
 22 11  1  0
 23 22  2  0
 24 25  1  0
 25 26  2  0
 25 27  1  0
 27 28  1  0
 29 28  1  1
 29 30  1  0
 30 22  1  0
 31 33  1  0
 31 29  1  0
 32 31  2  0
M  END
$$$$
