EWQ.pdb
     RDKit          3D

 33 34  0  0  1  0  0  0  0  0999 V2000
    6.9483  -15.6264   20.4566 N   0  0  0  0  0  0  0  0  0  0  0  0
    7.3809  -16.7926   21.2195 C   0  0  1  0  0  0  0  0  0  0  0  0
    8.0102  -17.8161   20.3389 C   0  0  0  0  0  0  0  0  0  0  0  0
    8.1545  -17.4379   18.9036 C   0  0  0  0  0  0  0  0  0  0  0  0
    8.9843  -18.5033   18.2535 C   0  0  0  0  0  0  0  0  0  0  0  0
    9.8384  -18.1571   17.4178 O   0  0  0  0  0  0  0  0  0  0  0  0
    8.2182  -16.3217   22.3279 C   0  0  0  0  0  0  0  0  0  0  0  0
    8.9224  -15.2720   22.2366 O   0  0  0  0  0  0  0  0  0  0  0  0
    8.8431  -19.8368   18.5389 O   0  0  0  0  0  0  0  0  0  0  0  0
    8.3087  -16.9968   23.5856 N   0  0  0  0  0  0  0  0  0  0  0  0
    9.1522  -16.5523   24.6670 C   0  0  1  0  0  0  0  0  0  0  0  0
    8.2554  -16.4464   25.9021 C   0  0  0  0  0  0  0  0  0  0  0  0
    7.3174  -15.2997   25.7706 C   0  0  0  0  0  0  0  0  0  0  0  0
    6.0161  -15.3154   25.2993 C   0  0  0  0  0  0  0  0  0  0  0  0
    5.5078  -14.0618   25.3392 N   0  0  0  0  0  0  0  0  0  0  0  0
    6.4358  -13.2153   25.8240 C   0  0  0  0  0  0  0  0  0  0  0  0
    6.4007  -11.8553   26.0531 C   0  0  0  0  0  0  0  0  0  0  0  0
    7.5385  -11.2771   26.5659 C   0  0  0  0  0  0  0  0  0  0  0  0
    8.6780  -12.0295   26.8426 C   0  0  0  0  0  0  0  0  0  0  0  0
    8.6915  -13.3816   26.6070 C   0  0  0  0  0  0  0  0  0  0  0  0
    7.5672  -13.9812   26.0952 C   0  0  0  0  0  0  0  0  0  0  0  0
   10.2406  -17.5335   24.9280 C   0  0  0  0  0  0  0  0  0  0  0  0
    9.9716  -18.7616   24.9374 O   0  0  0  0  0  0  0  0  0  0  0  0
   16.1884  -15.7897   24.0093 N   0  0  0  0  0  0  0  0  0  0  0  0
   15.0418  -16.1724   23.2590 C   0  0  0  0  0  0  0  0  0  0  0  0
   14.7001  -15.4642   22.2918 O   0  0  0  0  0  0  0  0  0  0  0  0
   14.3451  -17.4024   23.7058 C   0  0  0  0  0  0  0  0  0  0  0  0
   13.9144  -17.3818   25.1313 C   0  0  0  0  0  0  0  0  0  0  0  0
   12.6221  -18.1063   25.4142 C   0  0  2  0  0  0  0  0  0  0  0  0
   11.5619  -17.1175   25.1643 N   0  0  0  0  0  0  0  0  0  0  0  0
   12.5022  -18.5364   26.8251 C   0  0  0  0  0  0  0  0  0  0  0  0
   11.6445  -18.0248   27.5777 O   0  0  0  0  0  0  0  0  0  0  0  0
   13.3333  -19.5113   27.3440 O   0  0  0  0  0  0  0  0  0  0  0  0
  2  1  1  6
  2  3  1  0
  3  4  1  0
  4  5  1  0
  5  6  2  0
  7  8  2  0
  7  2  1  0
  9  5  1  0
 10  7  1  0
 11 10  1  0
 11 12  1  1
 12 13  1  0
 13 14  2  0
 13 21  1  0
 14 15  1  0
 15 16  1  0
 16 17  2  0
 18 17  1  0
 19 18  2  0
 20 21  2  0
 20 19  1  0
 21 16  1  0
 22 11  1  0
 23 22  2  0
 24 25  1  0
 25 26  2  0
 25 27  1  0
 27 28  1  0
 29 28  1  1
 29 30  1  0
 30 22  1  0
 31 33  1  0
 31 29  1  0
 32 31  2  0
M  END
$$$$
