EWQ.pdb
     RDKit          3D

 33 34  0  0  1  0  0  0  0  0999 V2000
    9.5449  -19.5125   21.1777 N   0  0  0  0  0  0  0  0  0  0  0  0
   10.6733  -18.6201   20.9333 C   0  0  1  0  0  0  0  0  0  0  0  0
   10.7978  -18.2837   19.4876 C   0  0  0  0  0  0  0  0  0  0  0  0
   11.8490  -19.0278   18.7356 C   0  0  0  0  0  0  0  0  0  0  0  0
   11.8492  -18.4880   17.3374 C   0  0  0  0  0  0  0  0  0  0  0  0
   10.9515  -18.8619   16.5614 O   0  0  0  0  0  0  0  0  0  0  0  0
   10.5423  -17.4698   21.8338 C   0  0  0  0  0  0  0  0  0  0  0  0
   11.4145  -16.5514   21.8787 O   0  0  0  0  0  0  0  0  0  0  0  0
   12.7917  -17.6043   16.8791 O   0  0  0  0  0  0  0  0  0  0  0  0
    9.4363  -17.2904   22.7228 N   0  0  0  0  0  0  0  0  0  0  0  0
    9.3253  -16.1829   23.6392 C   0  0  1  0  0  0  0  0  0  0  0  0
    7.8742  -15.7030   23.5667 C   0  0  0  0  0  0  0  0  0  0  0  0
    7.7900  -14.2466   23.8564 C   0  0  0  0  0  0  0  0  0  0  0  0
    8.1847  -13.1948   23.0479 C   0  0  0  0  0  0  0  0  0  0  0  0
    7.9401  -12.0240   23.6813 N   0  0  0  0  0  0  0  0  0  0  0  0
    7.3943  -12.2703   24.8871 C   0  0  0  0  0  0  0  0  0  0  0  0
    6.9746  -11.4214   25.8903 C   0  0  0  0  0  0  0  0  0  0  0  0
    6.4506  -12.0008   27.0225 C   0  0  0  0  0  0  0  0  0  0  0  0
    6.3473  -13.3840   27.1531 C   0  0  0  0  0  0  0  0  0  0  0  0
    6.7711  -14.2105   26.1426 C   0  0  0  0  0  0  0  0  0  0  0  0
    7.2978  -13.6551   25.0027 C   0  0  0  0  0  0  0  0  0  0  0  0
    9.6357  -16.6127   25.0301 C   0  0  0  0  0  0  0  0  0  0  0  0
    9.0496  -17.6170   25.5083 O   0  0  0  0  0  0  0  0  0  0  0  0
   13.8620  -18.3987   27.2235 N   0  0  0  0  0  0  0  0  0  0  0  0
   13.8342  -17.6669   26.0038 C   0  0  0  0  0  0  0  0  0  0  0  0
   14.2155  -18.2337   24.9611 O   0  0  0  0  0  0  0  0  0  0  0  0
   13.3451  -16.2699   26.0871 C   0  0  0  0  0  0  0  0  0  0  0  0
   12.4549  -15.9984   27.2498 C   0  0  0  0  0  0  0  0  0  0  0  0
   11.0380  -16.4912   27.0928 C   0  0  2  0  0  0  0  0  0  0  0  0
   10.5692  -15.9208   25.8204 N   0  0  0  0  0  0  0  0  0  0  0  0
   10.1371  -15.9968   28.1577 C   0  0  0  0  0  0  0  0  0  0  0  0
    9.2843  -15.1152   27.9141 O   0  0  0  0  0  0  0  0  0  0  0  0
   10.2162  -16.4962   29.4441 O   0  0  0  0  0  0  0  0  0  0  0  0
  2  1  1  6
  2  3  1  0
  3  4  1  0
  4  5  1  0
  5  6  2  0
  7  8  2  0
  7  2  1  0
  9  5  1  0
 10  7  1  0
 11 10  1  0
 11 12  1  1
 12 13  1  0
 13 14  2  0
 13 21  1  0
 14 15  1  0
 15 16  1  0
 16 17  2  0
 18 17  1  0
 19 18  2  0
 20 21  2  0
 20 19  1  0
 21 16  1  0
 22 11  1  0
 23 22  2  0
 24 25  1  0
 25 26  2  0
 25 27  1  0
 27 28  1  0
 29 28  1  1
 29 30  1  0
 30 22  1  0
 31 33  1  0
 31 29  1  0
 32 31  2  0
M  END
$$$$
