EWQ.pdb
     RDKit          3D

 33 34  0  0  1  0  0  0  0  0999 V2000
    9.7685  -18.7977   19.9350 N   0  0  0  0  0  0  0  0  0  0  0  0
   10.9697  -18.0077   20.1847 C   0  0  1  0  0  0  0  0  0  0  0  0
   11.3221  -17.1662   19.0072 C   0  0  0  0  0  0  0  0  0  0  0  0
   11.4700  -17.8904   17.7120 C   0  0  0  0  0  0  0  0  0  0  0  0
   11.9780  -16.8961   16.7121 C   0  0  0  0  0  0  0  0  0  0  0  0
   11.9447  -17.2029   15.5070 O   0  0  0  0  0  0  0  0  0  0  0  0
   10.7754  -17.2755   21.4407 C   0  0  0  0  0  0  0  0  0  0  0  0
   11.6393  -16.4594   21.8810 O   0  0  0  0  0  0  0  0  0  0  0  0
   12.4754  -15.6690   17.0672 O   0  0  0  0  0  0  0  0  0  0  0  0
    9.6126  -17.4185   22.2612 N   0  0  0  0  0  0  0  0  0  0  0  0
    9.4413  -16.7396   23.5215 C   0  0  1  0  0  0  0  0  0  0  0  0
    7.9331  -16.6358   23.7575 C   0  0  0  0  0  0  0  0  0  0  0  0
    7.4870  -15.2195   23.6737 C   0  0  0  0  0  0  0  0  0  0  0  0
    7.0298  -14.5366   22.5599 C   0  0  0  0  0  0  0  0  0  0  0  0
    6.7262  -13.2639   22.9057 N   0  0  0  0  0  0  0  0  0  0  0  0
    6.9693  -13.0839   24.2176 C   0  0  0  0  0  0  0  0  0  0  0  0
    6.8220  -11.9790   25.0306 C   0  0  0  0  0  0  0  0  0  0  0  0
    7.1655  -12.1256   26.3545 C   0  0  0  0  0  0  0  0  0  0  0  0
    7.6417  -13.3355   26.8550 C   0  0  0  0  0  0  0  0  0  0  0  0
    7.7806  -14.4224   26.0285 C   0  0  0  0  0  0  0  0  0  0  0  0
    7.4441  -14.3002   24.7029 C   0  0  0  0  0  0  0  0  0  0  0  0
   10.0637  -17.5143   24.6297 C   0  0  0  0  0  0  0  0  0  0  0  0
   10.0981  -18.7691   24.5587 O   0  0  0  0  0  0  0  0  0  0  0  0
   12.4222  -14.7881   29.7101 N   0  0  0  0  0  0  0  0  0  0  0  0
   11.0207  -14.8866   29.4863 C   0  0  0  0  0  0  0  0  0  0  0  0
   10.2631  -14.1184   30.1107 O   0  0  0  0  0  0  0  0  0  0  0  0
   10.5818  -15.9144   28.5122 C   0  0  0  0  0  0  0  0  0  0  0  0
   11.6952  -16.6464   27.8470 C   0  0  0  0  0  0  0  0  0  0  0  0
   11.2624  -17.6583   26.8157 C   0  0  2  0  0  0  0  0  0  0  0  0
   10.6135  -16.8742   25.7534 N   0  0  0  0  0  0  0  0  0  0  0  0
   10.2594  -18.6143   27.3352 C   0  0  0  0  0  0  0  0  0  0  0  0
    9.0432  -18.4614   27.0872 O   0  0  0  0  0  0  0  0  0  0  0  0
   10.6413  -19.6967   28.1054 O   0  0  0  0  0  0  0  0  0  0  0  0
  2  1  1  6
  2  3  1  0
  3  4  1  0
  4  5  1  0
  5  6  2  0
  7  8  2  0
  7  2  1  0
  9  5  1  0
 10  7  1  0
 11 10  1  0
 11 12  1  1
 12 13  1  0
 13 14  2  0
 13 21  1  0
 14 15  1  0
 15 16  1  0
 16 17  2  0
 18 17  1  0
 19 18  2  0
 20 21  2  0
 20 19  1  0
 21 16  1  0
 22 11  1  0
 23 22  2  0
 24 25  1  0
 25 26  2  0
 25 27  1  0
 27 28  1  0
 29 28  1  1
 29 30  1  0
 30 22  1  0
 31 33  1  0
 31 29  1  0
 32 31  2  0
M  END
$$$$
