EFV.pdb
     RDKit          3D

 28 28  0  0  1  0  0  0  0  0999 V2000
    9.8394  -18.4076   20.8897 N   0  0  0  0  0  0  0  0  0  0  0  0
   10.9803  -17.5660   21.1108 C   0  0  1  0  0  0  0  0  0  0  0  0
   11.5714  -17.0347   19.8279 C   0  0  0  0  0  0  0  0  0  0  0  0
   11.3803  -18.1108   18.7796 C   0  0  0  0  0  0  0  0  0  0  0  0
   11.8804  -17.7322   17.4667 C   0  0  0  0  0  0  0  0  0  0  0  0
   13.0421  -18.0263   17.1140 O   0  0  0  0  0  0  0  0  0  0  0  0
   10.6090  -16.4944   22.0591 C   0  0  0  0  0  0  0  0  0  0  0  0
   11.3619  -15.5028   22.1842 O   0  0  0  0  0  0  0  0  0  0  0  0
   11.0748  -17.0393   16.5878 O   0  0  0  0  0  0  0  0  0  0  0  0
    9.4316  -16.5167   22.8529 N   0  0  0  0  0  0  0  0  0  0  0  0
    9.1503  -15.5015   23.8802 C   0  0  1  0  0  0  0  0  0  0  0  0
    7.6746  -15.3603   23.9396 C   0  0  0  0  0  0  0  0  0  0  0  0
    7.1414  -14.2596   24.7296 C   0  0  0  0  0  0  0  0  0  0  0  0
    7.4872  -12.9371   24.5110 C   0  0  0  0  0  0  0  0  0  0  0  0
    6.9520  -11.9293   25.2762 C   0  0  0  0  0  0  0  0  0  0  0  0
    6.0522  -12.1773   26.2914 C   0  0  0  0  0  0  0  0  0  0  0  0
    5.7093  -13.4955   26.5071 C   0  0  0  0  0  0  0  0  0  0  0  0
    6.2438  -14.5316   25.7384 C   0  0  0  0  0  0  0  0  0  0  0  0
    9.6465  -16.0453   25.1664 C   0  0  0  0  0  0  0  0  0  0  0  0
    9.8829  -17.2778   25.2528 O   0  0  0  0  0  0  0  0  0  0  0  0
    8.9542  -14.7978   29.2063 C   0  0  0  0  0  0  0  0  0  0  0  0
   10.3701  -14.7908   28.6731 C   0  0  2  0  0  0  0  0  0  0  0  0
   10.7920  -13.3987   28.2573 C   0  0  0  0  0  0  0  0  0  0  0  0
   10.4335  -15.7614   27.5173 C   0  0  2  0  0  0  0  0  0  0  0  0
    9.8708  -15.2438   26.3145 N   0  0  0  0  0  0  0  0  0  0  0  0
    9.7018  -16.9927   27.9396 C   0  0  0  0  0  0  0  0  0  0  0  0
    8.4993  -17.1542   27.5619 O   0  0  0  0  0  0  0  0  0  0  0  0
   10.2443  -17.9782   28.7193 O   0  0  0  0  0  0  0  0  0  0  0  0
  2  1  1  6
  2  7  1  0
  2  3  1  0
  4  3  1  0
  4  5  1  0
  5  6  2  0
  7  8  2  0
  9  5  1  0
 10  7  1  0
 10 11  1  0
 11 12  1  1
 12 13  1  0
 13 14  2  0
 14 15  1  0
 16 15  2  0
 17 16  1  0
 18 13  1  0
 18 17  2  0
 19 25  1  0
 19 11  1  0
 20 19  2  0
 22 21  1  6
 22 24  1  0
 23 22  1  0
 24 25  1  6
 26 28  1  0
 26 24  1  0
 27 26  2  0
M  END
$$$$
