EFV.pdb
     RDKit          3D

 28 28  0  0  1  0  0  0  0  0999 V2000
   11.2549  -16.6761   19.5961 N   0  0  0  0  0  0  0  0  0  0  0  0
   10.6838  -17.3040   20.7531 C   0  0  1  0  0  0  0  0  0  0  0  0
   11.5275  -18.4403   21.2772 C   0  0  0  0  0  0  0  0  0  0  0  0
   11.7382  -19.3973   20.1225 C   0  0  0  0  0  0  0  0  0  0  0  0
   12.4239  -20.6220   20.5064 C   0  0  0  0  0  0  0  0  0  0  0  0
   13.4279  -21.0184   19.8779 O   0  0  0  0  0  0  0  0  0  0  0  0
   10.4135  -16.2705   21.7750 C   0  0  0  0  0  0  0  0  0  0  0  0
   11.0947  -15.2207   21.7758 O   0  0  0  0  0  0  0  0  0  0  0  0
   11.9726  -21.3668   21.5755 O   0  0  0  0  0  0  0  0  0  0  0  0
    9.4126  -16.3928   22.7750 N   0  0  0  0  0  0  0  0  0  0  0  0
    9.1428  -15.3322   23.7586 C   0  0  1  0  0  0  0  0  0  0  0  0
    7.6723  -15.1356   23.7729 C   0  0  0  0  0  0  0  0  0  0  0  0
    7.1418  -14.1394   24.6928 C   0  0  0  0  0  0  0  0  0  0  0  0
    7.4812  -12.7988   24.6312 C   0  0  0  0  0  0  0  0  0  0  0  0
    6.9489  -11.8919   25.5154 C   0  0  0  0  0  0  0  0  0  0  0  0
    6.0582  -12.2633   26.5006 C   0  0  0  0  0  0  0  0  0  0  0  0
    5.7215  -13.5994   26.5598 C   0  0  0  0  0  0  0  0  0  0  0  0
    6.2533  -14.5339   25.6688 C   0  0  0  0  0  0  0  0  0  0  0  0
    9.5850  -15.8475   25.0758 C   0  0  0  0  0  0  0  0  0  0  0  0
    9.8224  -17.0769   25.1974 O   0  0  0  0  0  0  0  0  0  0  0  0
   10.9103  -13.1729   28.0024 C   0  0  0  0  0  0  0  0  0  0  0  0
   10.3377  -14.4686   28.5340 C   0  0  2  0  0  0  0  0  0  0  0  0
   11.1029  -14.9486   29.7476 C   0  0  0  0  0  0  0  0  0  0  0  0
   10.3732  -15.4829   27.4152 C   0  0  2  0  0  0  0  0  0  0  0  0
    9.7561  -15.0220   26.2160 N   0  0  0  0  0  0  0  0  0  0  0  0
    9.6792  -16.7078   27.9132 C   0  0  0  0  0  0  0  0  0  0  0  0
    8.4439  -16.8620   27.6584 O   0  0  0  0  0  0  0  0  0  0  0  0
   10.2904  -17.6948   28.6382 O   0  0  0  0  0  0  0  0  0  0  0  0
  2  1  1  6
  2  7  1  0
  2  3  1  0
  4  3  1  0
  4  5  1  0
  5  6  2  0
  7  8  2  0
  9  5  1  0
 10  7  1  0
 10 11  1  0
 11 12  1  1
 12 13  1  0
 13 14  2  0
 14 15  1  0
 16 15  2  0
 17 16  1  0
 18 13  1  0
 18 17  2  0
 19 25  1  0
 19 11  1  0
 20 19  2  0
 22 21  1  6
 22 24  1  0
 23 22  1  0
 24 25  1  6
 26 28  1  0
 26 24  1  0
 27 26  2  0
M  END
$$$$
