EFV.pdb
     RDKit          3D

 28 28  0  0  1  0  0  0  0  0999 V2000
   10.5613  -16.4878   19.4833 N   0  0  0  0  0  0  0  0  0  0  0  0
    9.5949  -16.9466   20.4396 C   0  0  1  0  0  0  0  0  0  0  0  0
    9.7182  -18.4219   20.7327 C   0  0  0  0  0  0  0  0  0  0  0  0
    8.7999  -19.1384   19.7647 C   0  0  0  0  0  0  0  0  0  0  0  0
    9.4189  -20.2919   19.1294 C   0  0  0  0  0  0  0  0  0  0  0  0
   10.5952  -20.6163   19.3964 O   0  0  0  0  0  0  0  0  0  0  0  0
    9.6883  -16.1098   21.6547 C   0  0  0  0  0  0  0  0  0  0  0  0
   10.8142  -15.7347   22.0519 O   0  0  0  0  0  0  0  0  0  0  0  0
    8.7119  -21.0479   18.2182 O   0  0  0  0  0  0  0  0  0  0  0  0
    8.5631  -15.6956   22.4156 N   0  0  0  0  0  0  0  0  0  0  0  0
    8.6910  -14.9225   23.6611 C   0  0  1  0  0  0  0  0  0  0  0  0
    7.3669  -14.3002   23.9081 C   0  0  0  0  0  0  0  0  0  0  0  0
    7.2180  -13.5090   25.1213 C   0  0  0  0  0  0  0  0  0  0  0  0
    7.8717  -12.3053   25.3221 C   0  0  0  0  0  0  0  0  0  0  0  0
    7.6944  -11.5877   26.4802 C   0  0  0  0  0  0  0  0  0  0  0  0
    6.8657  -12.0221   27.4934 C   0  0  0  0  0  0  0  0  0  0  0  0
    6.2157  -13.2214   27.2908 C   0  0  0  0  0  0  0  0  0  0  0  0
    6.3847  -13.9630   26.1197 C   0  0  0  0  0  0  0  0  0  0  0  0
    8.9887  -15.8944   24.7394 C   0  0  0  0  0  0  0  0  0  0  0  0
    8.2662  -16.9183   24.8494 O   0  0  0  0  0  0  0  0  0  0  0  0
   12.1729  -17.6431   25.2724 C   0  0  0  0  0  0  0  0  0  0  0  0
   11.8399  -17.0955   26.6429 C   0  0  2  0  0  0  0  0  0  0  0  0
   12.1524  -18.1038   27.7266 C   0  0  0  0  0  0  0  0  0  0  0  0
   10.3792  -16.7102   26.6441 C   0  0  2  0  0  0  0  0  0  0  0  0
   10.0534  -15.7305   25.6616 N   0  0  0  0  0  0  0  0  0  0  0  0
   10.0642  -16.1941   28.0096 C   0  0  0  0  0  0  0  0  0  0  0  0
    9.9785  -17.0170   28.9740 O   0  0  0  0  0  0  0  0  0  0  0  0
    9.8573  -14.8731   28.3018 O   0  0  0  0  0  0  0  0  0  0  0  0
  2  1  1  6
  2  7  1  0
  2  3  1  0
  4  3  1  0
  4  5  1  0
  5  6  2  0
  7  8  2  0
  9  5  1  0
 10  7  1  0
 10 11  1  0
 11 12  1  1
 12 13  1  0
 13 14  2  0
 14 15  1  0
 16 15  2  0
 17 16  1  0
 18 13  1  0
 18 17  2  0
 19 25  1  0
 19 11  1  0
 20 19  2  0
 22 21  1  6
 22 24  1  0
 23 22  1  0
 24 25  1  6
 26 28  1  0
 26 24  1  0
 27 26  2  0
M  END
$$$$
