EFV.pdb
     RDKit          3D

 28 28  0  0  1  0  0  0  0  0999 V2000
    8.7260  -16.9844   19.6205 N   0  0  0  0  0  0  0  0  0  0  0  0
    9.9142  -17.2870   20.3658 C   0  0  1  0  0  0  0  0  0  0  0  0
   11.1700  -17.1653   19.5377 C   0  0  0  0  0  0  0  0  0  0  0  0
   11.4315  -18.5305   18.9366 C   0  0  0  0  0  0  0  0  0  0  0  0
   12.2822  -18.4876   17.7568 C   0  0  0  0  0  0  0  0  0  0  0  0
   13.4041  -17.9399   17.7952 O   0  0  0  0  0  0  0  0  0  0  0  0
    9.9443  -16.4466   21.5817 C   0  0  0  0  0  0  0  0  0  0  0  0
   11.0420  -16.0096   21.9941 O   0  0  0  0  0  0  0  0  0  0  0  0
   11.8597  -19.0542   16.5727 O   0  0  0  0  0  0  0  0  0  0  0  0
    8.7874  -16.0959   22.3270 N   0  0  0  0  0  0  0  0  0  0  0  0
    8.8531  -15.2980   23.5616 C   0  0  1  0  0  0  0  0  0  0  0  0
    7.5450  -14.6094   23.6878 C   0  0  0  0  0  0  0  0  0  0  0  0
    7.3337  -13.7918   24.8740 C   0  0  0  0  0  0  0  0  0  0  0  0
    7.9954  -12.5958   25.0938 C   0  0  0  0  0  0  0  0  0  0  0  0
    7.7579  -11.8524   26.2245 C   0  0  0  0  0  0  0  0  0  0  0  0
    6.8583  -12.2521   27.1903 C   0  0  0  0  0  0  0  0  0  0  0  0
    6.2004  -13.4437   26.9689 C   0  0  0  0  0  0  0  0  0  0  0  0
    6.4300  -14.2113   25.8252 C   0  0  0  0  0  0  0  0  0  0  0  0
    9.0174  -16.2549   24.6813 C   0  0  0  0  0  0  0  0  0  0  0  0
    8.2760  -17.2702   24.7251 O   0  0  0  0  0  0  0  0  0  0  0  0
   11.9326  -18.1451   25.2329 C   0  0  0  0  0  0  0  0  0  0  0  0
   11.6867  -17.5908   26.6191 C   0  0  2  0  0  0  0  0  0  0  0  0
   11.9608  -18.6318   27.6819 C   0  0  0  0  0  0  0  0  0  0  0  0
   10.2590  -17.1003   26.6740 C   0  0  2  0  0  0  0  0  0  0  0  0
    9.9738  -16.0856   25.7145 N   0  0  0  0  0  0  0  0  0  0  0  0
   10.0274  -16.5821   28.0553 C   0  0  0  0  0  0  0  0  0  0  0  0
    9.9164  -17.4101   29.0127 O   0  0  0  0  0  0  0  0  0  0  0  0
    9.9244  -15.2539   28.3693 O   0  0  0  0  0  0  0  0  0  0  0  0
  2  1  1  6
  2  7  1  0
  2  3  1  0
  4  3  1  0
  4  5  1  0
  5  6  2  0
  7  8  2  0
  9  5  1  0
 10  7  1  0
 10 11  1  0
 11 12  1  1
 12 13  1  0
 13 14  2  0
 14 15  1  0
 16 15  2  0
 17 16  1  0
 18 13  1  0
 18 17  2  0
 19 25  1  0
 19 11  1  0
 20 19  2  0
 22 21  1  6
 22 24  1  0
 23 22  1  0
 24 25  1  6
 26 28  1  0
 26 24  1  0
 27 26  2  0
M  END
$$$$
