EFV.pdb
     RDKit          3D

 28 28  0  0  1  0  0  0  0  0999 V2000
   10.1759  -18.3645   20.6604 N   0  0  0  0  0  0  0  0  0  0  0  0
   11.2921  -18.0569   21.5079 C   0  0  1  0  0  0  0  0  0  0  0  0
   12.5621  -17.8048   20.7324 C   0  0  0  0  0  0  0  0  0  0  0  0
   12.2415  -18.0573   19.2740 C   0  0  0  0  0  0  0  0  0  0  0  0
   13.3708  -17.8240   18.3866 C   0  0  0  0  0  0  0  0  0  0  0  0
   14.3931  -18.5390   18.4487 O   0  0  0  0  0  0  0  0  0  0  0  0
   10.9262  -16.9305   22.3926 C   0  0  0  0  0  0  0  0  0  0  0  0
   11.8022  -16.0953   22.7107 O   0  0  0  0  0  0  0  0  0  0  0  0
   13.3286  -16.8044   17.4591 O   0  0  0  0  0  0  0  0  0  0  0  0
    9.6212  -16.7298   22.9154 N   0  0  0  0  0  0  0  0  0  0  0  0
    9.2970  -15.6255   23.8322 C   0  0  1  0  0  0  0  0  0  0  0  0
    7.8225  -15.4649   23.7929 C   0  0  0  0  0  0  0  0  0  0  0  0
    7.2519  -14.3593   24.5492 C   0  0  0  0  0  0  0  0  0  0  0  0
    6.4918  -14.5396   25.6921 C   0  0  0  0  0  0  0  0  0  0  0  0
    5.9802  -13.4654   26.3792 C   0  0  0  0  0  0  0  0  0  0  0  0
    6.1934  -12.1650   25.9728 C   0  0  0  0  0  0  0  0  0  0  0  0
    6.9509  -11.9881   24.8341 C   0  0  0  0  0  0  0  0  0  0  0  0
    7.4784  -13.0687   24.1242 C   0  0  0  0  0  0  0  0  0  0  0  0
    9.7105  -16.0590   25.1876 C   0  0  0  0  0  0  0  0  0  0  0  0
    9.9292  -17.2807   25.3932 O   0  0  0  0  0  0  0  0  0  0  0  0
   10.7048  -13.1920   28.0632 C   0  0  0  0  0  0  0  0  0  0  0  0
   10.2603  -14.5299   28.6127 C   0  0  2  0  0  0  0  0  0  0  0  0
   11.0371  -14.8960   29.8581 C   0  0  0  0  0  0  0  0  0  0  0  0
   10.4381  -15.5596   27.5217 C   0  0  2  0  0  0  0  0  0  0  0  0
    9.8743  -15.1628   26.2743 N   0  0  0  0  0  0  0  0  0  0  0  0
    9.7942  -16.8192   28.0001 C   0  0  0  0  0  0  0  0  0  0  0  0
    8.5461  -16.9785   27.8225 O   0  0  0  0  0  0  0  0  0  0  0  0
   10.4653  -17.8334   28.6281 O   0  0  0  0  0  0  0  0  0  0  0  0
  2  1  1  6
  2  7  1  0
  2  3  1  0
  4  3  1  0
  4  5  1  0
  5  6  2  0
  7  8  2  0
  9  5  1  0
 10  7  1  0
 10 11  1  0
 11 12  1  1
 12 13  1  0
 13 14  2  0
 14 15  1  0
 16 15  2  0
 17 16  1  0
 18 13  1  0
 18 17  2  0
 19 25  1  0
 19 11  1  0
 20 19  2  0
 22 21  1  6
 22 24  1  0
 23 22  1  0
 24 25  1  6
 26 28  1  0
 26 24  1  0
 27 26  2  0
M  END
$$$$
