EFV.pdb
     RDKit          3D

 28 28  0  0  1  0  0  0  0  0999 V2000
   11.2420  -17.1387   19.7284 N   0  0  0  0  0  0  0  0  0  0  0  0
   10.8724  -17.7043   20.9943 C   0  0  1  0  0  0  0  0  0  0  0  0
   11.8954  -18.6826   21.5179 C   0  0  0  0  0  0  0  0  0  0  0  0
   13.0542  -18.6675   20.5430 C   0  0  0  0  0  0  0  0  0  0  0  0
   14.1299  -19.5752   20.9119 C   0  0  0  0  0  0  0  0  0  0  0  0
   15.3108  -19.1742   20.9831 O   0  0  0  0  0  0  0  0  0  0  0  0
   10.5872  -16.6081   21.9442 C   0  0  0  0  0  0  0  0  0  0  0  0
   11.3794  -15.6419   22.0162 O   0  0  0  0  0  0  0  0  0  0  0  0
   13.8599  -20.8986   21.1897 O   0  0  0  0  0  0  0  0  0  0  0  0
    9.4519  -16.5784   22.7968 N   0  0  0  0  0  0  0  0  0  0  0  0
    9.1891  -15.4687   23.7266 C   0  0  1  0  0  0  0  0  0  0  0  0
    7.7196  -15.2647   23.7338 C   0  0  0  0  0  0  0  0  0  0  0  0
    7.2025  -14.1691   24.5416 C   0  0  0  0  0  0  0  0  0  0  0  0
    7.4515  -12.8378   24.2555 C   0  0  0  0  0  0  0  0  0  0  0  0
    6.9354  -11.8359   25.0413 C   0  0  0  0  0  0  0  0  0  0  0  0
    6.1508  -12.0988   26.1445 C   0  0  0  0  0  0  0  0  0  0  0  0
    5.9041  -13.4258   26.4273 C   0  0  0  0  0  0  0  0  0  0  0  0
    6.4208  -14.4561   25.6389 C   0  0  0  0  0  0  0  0  0  0  0  0
    9.6316  -15.9196   25.0672 C   0  0  0  0  0  0  0  0  0  0  0  0
    9.7934  -17.1506   25.2701 O   0  0  0  0  0  0  0  0  0  0  0  0
   10.9510  -13.1479   27.9113 C   0  0  0  0  0  0  0  0  0  0  0  0
   10.3206  -14.4032   28.4734 C   0  0  2  0  0  0  0  0  0  0  0  0
   11.0166  -14.8449   29.7420 C   0  0  0  0  0  0  0  0  0  0  0  0
   10.3804  -15.4689   27.4045 C   0  0  2  0  0  0  0  0  0  0  0  0
    9.8844  -15.0303   26.1423 N   0  0  0  0  0  0  0  0  0  0  0  0
    9.5789  -16.6284   27.8976 C   0  0  0  0  0  0  0  0  0  0  0  0
    8.3230  -16.6352   27.7045 O   0  0  0  0  0  0  0  0  0  0  0  0
   10.1108  -17.7046   28.5551 O   0  0  0  0  0  0  0  0  0  0  0  0
  2  1  1  6
  2  7  1  0
  2  3  1  0
  4  3  1  0
  4  5  1  0
  5  6  2  0
  7  8  2  0
  9  5  1  0
 10  7  1  0
 10 11  1  0
 11 12  1  1
 12 13  1  0
 13 14  2  0
 14 15  1  0
 16 15  2  0
 17 16  1  0
 18 13  1  0
 18 17  2  0
 19 25  1  0
 19 11  1  0
 20 19  2  0
 22 21  1  6
 22 24  1  0
 23 22  1  0
 24 25  1  6
 26 28  1  0
 26 24  1  0
 27 26  2  0
M  END
$$$$
