GNK.pdb
     RDKit          3D

 22 21  0  0  1  0  0  0  0  0999 V2000
    5.7823  -19.4234   20.2895 N   0  0  0  0  0  0  0  0  0  0  0  0
    5.7491  -18.0645   20.8006 C   0  0  0  0  0  0  0  0  0  0  0  0
    7.1108  -17.4346   20.7010 C   0  0  0  0  0  0  0  0  0  0  0  0
    8.1358  -18.1131   20.5085 O   0  0  0  0  0  0  0  0  0  0  0  0
    6.6023  -12.5803   18.9370 N   0  0  0  0  0  0  0  0  0  0  0  0
    7.6276  -13.5569   19.1367 C   0  0  0  0  0  0  0  0  0  0  0  0
    8.0323  -14.1992   18.1450 O   0  0  0  0  0  0  0  0  0  0  0  0
    8.1736  -13.7793   20.4791 C   0  0  0  0  0  0  0  0  0  0  0  0
    8.4130  -15.2590   20.7771 C   0  0  2  0  0  0  0  0  0  0  0  0
    7.1980  -16.0260   20.8330 N   0  0  0  0  0  0  0  0  0  0  0  0
    9.1949  -15.3726   22.0207 C   0  0  0  0  0  0  0  0  0  0  0  0
    8.5697  -15.2731   23.1003 O   0  0  0  0  0  0  0  0  0  0  0  0
   10.5941  -15.5857   22.0293 N   0  0  0  0  0  0  0  0  0  0  0  0
   11.3542  -15.9834   23.1939 C   0  0  1  0  0  0  0  0  0  0  0  0
   10.8322  -17.2990   23.6382 C   0  0  0  0  0  0  0  0  0  0  0  0
   11.5465  -17.9526   24.7688 C   0  0  0  0  0  0  0  0  0  0  0  0
   10.8613  -19.3114   24.9900 C   0  0  0  0  0  0  0  0  0  0  0  0
   11.6134  -20.1130   26.0300 C   0  0  0  0  0  0  0  0  0  0  0  0
   11.0025  -21.4091   26.2286 N   0  0  0  0  0  0  0  0  0  0  0  0
   12.7978  -15.9276   22.9469 C   0  0  0  0  0  0  0  0  0  0  0  0
   13.3449  -15.8194   21.7069 O   0  0  0  0  0  0  0  0  0  0  0  0
   13.5876  -15.9796   23.9297 O   0  0  0  0  0  0  0  0  0  0  0  0
  2  3  1  0
  2  1  1  0
  3  4  2  0
  6  5  1  0
  7  6  2  0
  8  6  1  0
  9  8  1  1
  9 11  1  0
 10  9  1  0
 10  3  1  0
 11 12  2  0
 11 13  1  0
 13 14  1  0
 14 15  1  6
 15 16  1  0
 16 17  1  0
 17 18  1  0
 19 18  1  0
 20 21  1  0
 20 14  1  0
 22 20  2  0
M  END
$$$$
