GNK.pdb
     RDKit          3D

 22 21  0  0  1  0  0  0  0  0999 V2000
    9.1339  -18.1055   19.8048 N   0  0  0  0  0  0  0  0  0  0  0  0
   10.3642  -17.3357   19.8580 C   0  0  0  0  0  0  0  0  0  0  0  0
   10.1829  -16.1186   20.7222 C   0  0  0  0  0  0  0  0  0  0  0  0
   11.1430  -15.5677   21.2904 O   0  0  0  0  0  0  0  0  0  0  0  0
    7.6428  -12.1714   19.2854 N   0  0  0  0  0  0  0  0  0  0  0  0
    7.2702  -13.4765   19.7357 C   0  0  0  0  0  0  0  0  0  0  0  0
    6.9819  -14.3371   18.8777 O   0  0  0  0  0  0  0  0  0  0  0  0
    7.2357  -13.7721   21.1713 C   0  0  0  0  0  0  0  0  0  0  0  0
    8.5117  -14.4566   21.6600 C   0  0  2  0  0  0  0  0  0  0  0  0
    8.8700  -15.6067   20.8747 N   0  0  0  0  0  0  0  0  0  0  0  0
    8.3556  -14.7897   23.0867 C   0  0  0  0  0  0  0  0  0  0  0  0
    8.0168  -13.8629   23.8564 O   0  0  0  0  0  0  0  0  0  0  0  0
    8.5713  -16.0920   23.5975 N   0  0  0  0  0  0  0  0  0  0  0  0
    8.6025  -16.4241   25.0050 C   0  0  1  0  0  0  0  0  0  0  0  0
    7.8677  -17.7012   25.1773 C   0  0  0  0  0  0  0  0  0  0  0  0
    7.8586  -18.2858   26.5462 C   0  0  0  0  0  0  0  0  0  0  0  0
    7.0903  -19.6143   26.4476 C   0  0  0  0  0  0  0  0  0  0  0  0
    6.9995  -20.2680   27.8093 C   0  0  0  0  0  0  0  0  0  0  0  0
    6.2540  -21.5058   27.7425 N   0  0  0  0  0  0  0  0  0  0  0  0
    9.9673  -16.4039   25.5390 C   0  0  0  0  0  0  0  0  0  0  0  0
   11.0797  -16.5027   24.7634 O   0  0  0  0  0  0  0  0  0  0  0  0
   10.1338  -16.2866   26.7842 O   0  0  0  0  0  0  0  0  0  0  0  0
  2  3  1  0
  2  1  1  0
  3  4  2  0
  6  5  1  0
  7  6  2  0
  8  6  1  0
  9  8  1  6
  9 11  1  0
 10  9  1  0
 10  3  1  0
 11 12  2  0
 11 13  1  0
 13 14  1  0
 14 15  1  6
 15 16  1  0
 16 17  1  0
 17 18  1  0
 19 18  1  0
 20 21  1  0
 20 14  1  0
 22 20  2  0
M  END
$$$$
