GNK.pdb
     RDKit          3D

 22 21  0  0  1  0  0  0  0  0999 V2000
    8.4084  -19.3422   17.1283 N   0  0  0  0  0  0  0  0  0  0  0  0
    7.6553  -18.5064   18.0466 C   0  0  0  0  0  0  0  0  0  0  0  0
    8.5730  -17.5489   18.7551 C   0  0  0  0  0  0  0  0  0  0  0  0
    9.8083  -17.6969   18.7488 O   0  0  0  0  0  0  0  0  0  0  0  0
    7.4755  -12.0170   19.8755 N   0  0  0  0  0  0  0  0  0  0  0  0
    7.7030  -13.4038   19.6114 C   0  0  0  0  0  0  0  0  0  0  0  0
    7.7709  -13.7747   18.4207 O   0  0  0  0  0  0  0  0  0  0  0  0
    7.8500  -14.3454   20.7256 C   0  0  0  0  0  0  0  0  0  0  0  0
    8.6721  -15.5772   20.3479 C   0  0  2  0  0  0  0  0  0  0  0  0
    7.9855  -16.4560   19.4403 N   0  0  0  0  0  0  0  0  0  0  0  0
    9.0837  -16.2700   21.5814 C   0  0  0  0  0  0  0  0  0  0  0  0
    8.1949  -16.8764   22.2203 O   0  0  0  0  0  0  0  0  0  0  0  0
   10.4189  -16.2698   22.0511 N   0  0  0  0  0  0  0  0  0  0  0  0
   10.8769  -16.9959   23.2152 C   0  0  1  0  0  0  0  0  0  0  0  0
   12.2987  -17.3524   22.9865 C   0  0  0  0  0  0  0  0  0  0  0  0
   12.9681  -18.1433   24.0552 C   0  0  0  0  0  0  0  0  0  0  0  0
   14.3798  -18.4671   23.5383 C   0  0  0  0  0  0  0  0  0  0  0  0
   15.1119  -19.3432   24.5315 C   0  0  0  0  0  0  0  0  0  0  0  0
   16.4154  -19.7196   24.0298 N   0  0  0  0  0  0  0  0  0  0  0  0
   10.6008  -16.2658   24.4557 C   0  0  0  0  0  0  0  0  0  0  0  0
   10.5585  -14.9091   24.5362 O   0  0  0  0  0  0  0  0  0  0  0  0
   10.3866  -16.9192   25.5137 O   0  0  0  0  0  0  0  0  0  0  0  0
  2  3  1  0
  2  1  1  0
  3  4  2  0
  6  5  1  0
  7  6  2  0
  8  6  1  0
  9  8  1  1
  9 11  1  0
 10  9  1  0
 10  3  1  0
 11 12  2  0
 11 13  1  0
 13 14  1  0
 14 15  1  6
 15 16  1  0
 16 17  1  0
 17 18  1  0
 19 18  1  0
 20 21  1  0
 20 14  1  0
 22 20  2  0
M  END
$$$$
