VNQ.pdb
     RDKit          3D

 25 24  0  0  1  0  0  0  0  0999 V2000
   16.4350  -12.5572  -13.1021 C   0  0  0  0  0  0  0  0  0  0  0  0
   15.0566  -12.0073  -12.7121 C   0  0  1  0  0  0  0  0  0  0  0  0
   14.0914  -13.1800  -12.7824 C   0  0  0  0  0  0  0  0  0  0  0  0
   15.0921  -11.5314  -11.3001 C   0  0  2  0  0  0  0  0  0  0  0  0
   14.0317  -12.1060  -10.5461 N   0  0  0  0  0  0  0  0  0  0  0  0
   15.1548  -10.0474  -11.1806 C   0  0  0  0  0  0  0  0  0  0  0  0
   14.8031   -9.3689  -12.1736 O   0  0  0  0  0  0  0  0  0  0  0  0
   15.9991   -5.3974   -9.6324 N   0  0  0  0  0  0  0  0  0  0  0  0
   15.4961   -6.0002   -8.4279 C   0  0  0  0  0  0  0  0  0  0  0  0
   15.1646   -5.3069   -7.4650 O   0  0  0  0  0  0  0  0  0  0  0  0
   15.4039   -7.4651   -8.4167 C   0  0  0  0  0  0  0  0  0  0  0  0
   15.7764   -7.9897   -9.7866 C   0  0  2  0  0  0  0  0  0  0  0  0
   15.5887   -9.3820  -10.0110 N   0  0  0  0  0  0  0  0  0  0  0  0
   16.9662   -7.4096  -10.3858 C   0  0  0  0  0  0  0  0  0  0  0  0
   18.0835   -7.6964   -9.8650 O   0  0  0  0  0  0  0  0  0  0  0  0
   20.4179   -9.6328  -13.6151 N   0  0  0  0  0  0  0  0  0  0  0  0
   20.8301   -8.3363  -14.0003 C   0  0  0  0  0  0  0  0  0  0  0  0
   21.8551   -8.3001  -14.7605 O   0  0  0  0  0  0  0  0  0  0  0  0
   20.1676   -7.0817  -13.5831 C   0  0  0  0  0  0  0  0  0  0  0  0
   19.0010   -7.4300  -12.6915 C   0  0  0  0  0  0  0  0  0  0  0  0
   18.2256   -6.2427  -12.2414 C   0  0  2  0  0  0  0  0  0  0  0  0
   17.0176   -6.5490  -11.4989 N   0  0  0  0  0  0  0  0  0  0  0  0
   17.9108   -5.3204  -13.3883 C   0  0  0  0  0  0  0  0  0  0  0  0
   18.8685   -4.5489  -14.0018 O   0  0  0  0  0  0  0  0  0  0  0  0
   16.7305   -5.2338  -13.8224 O   0  0  0  0  0  0  0  0  0  0  0  0
  2  1  1  1
  2  4  1  0
  3  2  1  0
  4  6  1  0
  4  5  1  1
  6 13  1  0
  7  6  2  0
  8  9  1  0
  9 10  2  0
 12 11  1  1
 11  9  1  0
 13 12  1  0
 14 12  1  0
 14 15  2  0
 16 17  1  0
 17 18  2  0
 17 19  1  0
 19 20  1  0
 21 20  1  6
 21 22  1  0
 21 23  1  0
 22 14  1  0
 23 24  1  0
 25 23  2  0
M  END
$$$$
