VNQ.pdb
     RDKit          3D

 25 24  0  0  1  0  0  0  0  0999 V2000
   18.1281  -16.6684  -17.1020 C   0  0  0  0  0  0  0  0  0  0  0  0
   18.8438  -15.4651  -16.4737 C   0  0  1  0  0  0  0  0  0  0  0  0
   20.0885  -15.2208  -17.3120 C   0  0  0  0  0  0  0  0  0  0  0  0
   17.9770  -14.2577  -16.5838 C   0  0  2  0  0  0  0  0  0  0  0  0
   17.3123  -14.2253  -17.8408 N   0  0  0  0  0  0  0  0  0  0  0  0
   18.6926  -12.9888  -16.2700 C   0  0  0  0  0  0  0  0  0  0  0  0
   19.2896  -12.9148  -15.1708 O   0  0  0  0  0  0  0  0  0  0  0  0
   21.1754  -11.9607  -17.9470 N   0  0  0  0  0  0  0  0  0  0  0  0
   20.9706  -10.6973  -18.6018 C   0  0  0  0  0  0  0  0  0  0  0  0
   21.6949  -10.3434  -19.5334 O   0  0  0  0  0  0  0  0  0  0  0  0
   19.8659   -9.8705  -18.1010 C   0  0  0  0  0  0  0  0  0  0  0  0
   19.2278  -10.5692  -16.9198 C   0  0  2  0  0  0  0  0  0  0  0  0
   18.7255  -11.8806  -17.1474 N   0  0  0  0  0  0  0  0  0  0  0  0
   18.4269   -9.7308  -16.0441 C   0  0  0  0  0  0  0  0  0  0  0  0
   17.2530  -10.1194  -15.7740 O   0  0  0  0  0  0  0  0  0  0  0  0
   16.5273   -9.9008  -11.1608 N   0  0  0  0  0  0  0  0  0  0  0  0
   16.2244   -8.5259  -11.2923 C   0  0  0  0  0  0  0  0  0  0  0  0
   15.5022   -8.0412  -10.3579 O   0  0  0  0  0  0  0  0  0  0  0  0
   16.6772   -7.6652  -12.4065 C   0  0  0  0  0  0  0  0  0  0  0  0
   17.5097   -8.4999  -13.3484 C   0  0  0  0  0  0  0  0  0  0  0  0
   17.9889   -7.7474  -14.5390 C   0  0  2  0  0  0  0  0  0  0  0  0
   18.8152   -8.5136  -15.4526 N   0  0  0  0  0  0  0  0  0  0  0  0
   18.6918   -6.4765  -14.1441 C   0  0  0  0  0  0  0  0  0  0  0  0
   18.0567   -5.4559  -13.4778 O   0  0  0  0  0  0  0  0  0  0  0  0
   19.9108   -6.3170  -14.4231 O   0  0  0  0  0  0  0  0  0  0  0  0
  2  1  1  6
  2  4  1  0
  3  2  1  0
  4  6  1  0
  4  5  1  6
  6 13  1  0
  7  6  2  0
  8  9  1  0
  9 10  2  0
 12 11  1  6
 11  9  1  0
 13 12  1  0
 14 12  1  0
 14 15  2  0
 16 17  1  0
 17 18  2  0
 17 19  1  0
 19 20  1  0
 21 20  1  1
 21 22  1  0
 21 23  1  0
 22 14  1  0
 23 24  1  0
 25 23  2  0
M  END
$$$$
