VNQ.pdb
     RDKit          3D

 25 24  0  0  1  0  0  0  0  0999 V2000
   16.9576  -13.4721  -15.2800 C   0  0  0  0  0  0  0  0  0  0  0  0
   18.2178  -12.8180  -15.8619 C   0  0  1  0  0  0  0  0  0  0  0  0
   18.5393  -13.5711  -17.1431 C   0  0  0  0  0  0  0  0  0  0  0  0
   17.9208  -11.4040  -16.2278 C   0  0  2  0  0  0  0  0  0  0  0  0
   17.7944  -11.2624  -17.6374 N   0  0  0  0  0  0  0  0  0  0  0  0
   18.8732  -10.4281  -15.6269 C   0  0  0  0  0  0  0  0  0  0  0  0
   18.9634  -10.3978  -14.3776 O   0  0  0  0  0  0  0  0  0  0  0  0
   22.8799   -9.9101  -14.1308 N   0  0  0  0  0  0  0  0  0  0  0  0
   22.4518  -10.1002  -15.4901 C   0  0  0  0  0  0  0  0  0  0  0  0
   22.4099  -11.2264  -15.9879 O   0  0  0  0  0  0  0  0  0  0  0  0
   22.0750   -8.8923  -16.2341 C   0  0  0  0  0  0  0  0  0  0  0  0
   20.6189   -8.5830  -15.9607 C   0  0  2  0  0  0  0  0  0  0  0  0
   19.6676   -9.5470  -16.3961 N   0  0  0  0  0  0  0  0  0  0  0  0
   20.2254   -7.1933  -16.1187 C   0  0  0  0  0  0  0  0  0  0  0  0
   20.9830   -6.3099  -15.6210 O   0  0  0  0  0  0  0  0  0  0  0  0
   15.7377   -4.2284  -17.7820 N   0  0  0  0  0  0  0  0  0  0  0  0
   15.4849   -5.3882  -17.0137 C   0  0  0  0  0  0  0  0  0  0  0  0
   14.3964   -5.9937  -17.2936 O   0  0  0  0  0  0  0  0  0  0  0  0
   16.3736   -5.9065  -15.9513 C   0  0  0  0  0  0  0  0  0  0  0  0
   17.5650   -4.9880  -15.8334 C   0  0  0  0  0  0  0  0  0  0  0  0
   18.6631   -5.3192  -16.7809 C   0  0  2  0  0  0  0  0  0  0  0  0
   19.0764   -6.7098  -16.7731 N   0  0  0  0  0  0  0  0  0  0  0  0
   19.8549   -4.4219  -16.5818 C   0  0  0  0  0  0  0  0  0  0  0  0
   20.4252   -3.7102  -17.6099 O   0  0  0  0  0  0  0  0  0  0  0  0
   20.3690   -4.3005  -15.4372 O   0  0  0  0  0  0  0  0  0  0  0  0
  2  1  1  6
  2  4  1  0
  3  2  1  0
  4  6  1  0
  4  5  1  6
  6 13  1  0
  7  6  2  0
  8  9  1  0
  9 10  2  0
 12 11  1  6
 11  9  1  0
 13 12  1  0
 14 12  1  0
 14 15  2  0
 16 17  1  0
 17 18  2  0
 17 19  1  0
 19 20  1  0
 21 20  1  1
 21 22  1  0
 21 23  1  0
 22 14  1  0
 23 24  1  0
 25 23  2  0
M  END
$$$$
