VNQ.pdb
     RDKit          3D

 25 24  0  0  1  0  0  0  0  0999 V2000
   22.6450  -18.0915  -16.5060 C   0  0  0  0  0  0  0  0  0  0  0  0
   21.1931  -17.6589  -16.2619 C   0  0  1  0  0  0  0  0  0  0  0  0
   21.1418  -17.1094  -14.8451 C   0  0  0  0  0  0  0  0  0  0  0  0
   20.8413  -16.5497  -17.1931 C   0  0  2  0  0  0  0  0  0  0  0  0
   21.8464  -15.5434  -17.1834 N   0  0  0  0  0  0  0  0  0  0  0  0
   19.4712  -16.0072  -16.9712 C   0  0  0  0  0  0  0  0  0  0  0  0
   18.5068  -16.6534  -17.4429 O   0  0  0  0  0  0  0  0  0  0  0  0
   15.0210  -14.2660  -16.1118 N   0  0  0  0  0  0  0  0  0  0  0  0
   15.8291  -13.9195  -14.9744 C   0  0  0  0  0  0  0  0  0  0  0  0
   15.4213  -13.1216  -14.1288 O   0  0  0  0  0  0  0  0  0  0  0  0
   17.1454  -14.5629  -14.8846 C   0  0  0  0  0  0  0  0  0  0  0  0
   17.9852  -14.1269  -16.0658 C   0  0  2  0  0  0  0  0  0  0  0  0
   19.2172  -14.8109  -16.2617 N   0  0  0  0  0  0  0  0  0  0  0  0
   18.0070  -12.6995  -16.3360 C   0  0  0  0  0  0  0  0  0  0  0  0
   16.9167  -12.0659  -16.2261 O   0  0  0  0  0  0  0  0  0  0  0  0
   19.2892   -9.0894  -20.5215 N   0  0  0  0  0  0  0  0  0  0  0  0
   18.7985   -8.1640  -19.5718 C   0  0  0  0  0  0  0  0  0  0  0  0
   18.8089   -6.9452  -19.9513 O   0  0  0  0  0  0  0  0  0  0  0  0
   18.3022   -8.5204  -18.2250 C   0  0  0  0  0  0  0  0  0  0  0  0
   18.3348  -10.0225  -18.0849 C   0  0  0  0  0  0  0  0  0  0  0  0
   19.0986  -10.4892  -16.8964 C   0  0  2  0  0  0  0  0  0  0  0  0
   19.1226  -11.9281  -16.7135 N   0  0  0  0  0  0  0  0  0  0  0  0
   18.6286   -9.8131  -15.6366 C   0  0  0  0  0  0  0  0  0  0  0  0
   19.3112   -8.7701  -15.0577 O   0  0  0  0  0  0  0  0  0  0  0  0
   17.5705  -10.1991  -15.0705 O   0  0  0  0  0  0  0  0  0  0  0  0
  2  1  1  6
  2  4  1  0
  3  2  1  0
  4  6  1  0
  4  5  1  1
  6 13  1  0
  7  6  2  0
  8  9  1  0
  9 10  2  0
 12 11  1  1
 11  9  1  0
 13 12  1  0
 14 12  1  0
 14 15  2  0
 16 17  1  0
 17 18  2  0
 17 19  1  0
 19 20  1  0
 21 20  1  6
 21 22  1  0
 21 23  1  0
 22 14  1  0
 23 24  1  0
 25 23  2  0
M  END
$$$$
