VNQ.pdb
     RDKit          3D

 25 24  0  0  1  0  0  0  0  0999 V2000
   22.7381  -17.7933  -16.4078 C   0  0  0  0  0  0  0  0  0  0  0  0
   23.0347  -16.4887  -15.6563 C   0  0  1  0  0  0  0  0  0  0  0  0
   24.4892  -16.5662  -15.2201 C   0  0  0  0  0  0  0  0  0  0  0  0
   22.9007  -15.3350  -16.5904 C   0  0  2  0  0  0  0  0  0  0  0  0
   23.6021  -15.5821  -17.8028 N   0  0  0  0  0  0  0  0  0  0  0  0
   23.2560  -14.0289  -15.9673 C   0  0  0  0  0  0  0  0  0  0  0  0
   22.5994  -13.6659  -14.9637 O   0  0  0  0  0  0  0  0  0  0  0  0
   26.2843  -13.5425  -14.8843 N   0  0  0  0  0  0  0  0  0  0  0  0
   26.9533  -12.4683  -15.5666 C   0  0  0  0  0  0  0  0  0  0  0  0
   28.1831  -12.3960  -15.5788 O   0  0  0  0  0  0  0  0  0  0  0  0
   26.0965  -11.4816  -16.2352 C   0  0  0  0  0  0  0  0  0  0  0  0
   24.6491  -11.8801  -16.0435 C   0  0  2  0  0  0  0  0  0  0  0  0
   24.2876  -13.1935  -16.4541 N   0  0  0  0  0  0  0  0  0  0  0  0
   23.6656  -10.8439  -16.3087 C   0  0  0  0  0  0  0  0  0  0  0  0
   23.1408  -10.8155  -17.4601 O   0  0  0  0  0  0  0  0  0  0  0  0
   18.4561  -10.8976  -16.7452 N   0  0  0  0  0  0  0  0  0  0  0  0
   18.4692   -9.4977  -16.5466 C   0  0  0  0  0  0  0  0  0  0  0  0
   17.3370   -8.9235  -16.6809 O   0  0  0  0  0  0  0  0  0  0  0  0
   19.6716   -8.7044  -16.2118 C   0  0  0  0  0  0  0  0  0  0  0  0
   20.8353   -9.6491  -16.0379 C   0  0  0  0  0  0  0  0  0  0  0  0
   22.1024   -8.9643  -15.6651 C   0  0  2  0  0  0  0  0  0  0  0  0
   23.2235   -9.8503  -15.4147 N   0  0  0  0  0  0  0  0  0  0  0  0
   21.9055   -8.0330  -14.4993 C   0  0  0  0  0  0  0  0  0  0  0  0
   21.1561   -6.8844  -14.5880 O   0  0  0  0  0  0  0  0  0  0  0  0
   22.4379   -8.2938  -13.3868 O   0  0  0  0  0  0  0  0  0  0  0  0
  2  1  1  6
  2  4  1  0
  3  2  1  0
  4  6  1  0
  4  5  1  6
  6 13  1  0
  7  6  2  0
  8  9  1  0
  9 10  2  0
 12 11  1  6
 11  9  1  0
 13 12  1  0
 14 12  1  0
 14 15  2  0
 16 17  1  0
 17 18  2  0
 17 19  1  0
 19 20  1  0
 21 20  1  1
 21 22  1  0
 21 23  1  0
 22 14  1  0
 23 24  1  0
 25 23  2  0
M  END
$$$$
