VNQ.pdb
     RDKit          3D

 25 24  0  0  1  0  0  0  0  0999 V2000
   28.8405  -22.0959  -17.7149 C   0  0  0  0  0  0  0  0  0  0  0  0
   27.7216  -22.5280  -16.7578 C   0  0  1  0  0  0  0  0  0  0  0  0
   28.4037  -22.9742  -15.4743 C   0  0  0  0  0  0  0  0  0  0  0  0
   26.8639  -21.3533  -16.4326 C   0  0  2  0  0  0  0  0  0  0  0  0
   27.6528  -20.1814  -16.2675 N   0  0  0  0  0  0  0  0  0  0  0  0
   25.9384  -21.5985  -15.2907 C   0  0  0  0  0  0  0  0  0  0  0  0
   25.1261  -22.5469  -15.3943 O   0  0  0  0  0  0  0  0  0  0  0  0
   25.0075  -21.5991   -9.5491 N   0  0  0  0  0  0  0  0  0  0  0  0
   24.6338  -20.7057  -10.6116 C   0  0  0  0  0  0  0  0  0  0  0  0
   23.5224  -20.1744  -10.6292 O   0  0  0  0  0  0  0  0  0  0  0  0
   25.6394  -20.4701  -11.6547 C   0  0  0  0  0  0  0  0  0  0  0  0
   25.0630  -20.8811  -12.9923 C   0  0  2  0  0  0  0  0  0  0  0  0
   25.9377  -20.8169  -14.1125 N   0  0  0  0  0  0  0  0  0  0  0  0
   23.6893  -20.4786  -13.2415 C   0  0  0  0  0  0  0  0  0  0  0  0
   23.4946  -19.3189  -13.7096 O   0  0  0  0  0  0  0  0  0  0  0  0
   19.4948  -23.2881  -16.4115 N   0  0  0  0  0  0  0  0  0  0  0  0
   18.8077  -22.1138  -16.0267 C   0  0  0  0  0  0  0  0  0  0  0  0
   17.6421  -21.9817  -16.5302 O   0  0  0  0  0  0  0  0  0  0  0  0
   19.3480  -21.0799  -15.1177 C   0  0  0  0  0  0  0  0  0  0  0  0
   20.7491  -21.4757  -14.7215 C   0  0  0  0  0  0  0  0  0  0  0  0
   21.1984  -20.8604  -13.4435 C   0  0  2  0  0  0  0  0  0  0  0  0
   22.5302  -21.2455  -13.0164 N   0  0  0  0  0  0  0  0  0  0  0  0
   20.2080  -21.1001  -12.3360 C   0  0  0  0  0  0  0  0  0  0  0  0
   19.1442  -20.2623  -12.1004 O   0  0  0  0  0  0  0  0  0  0  0  0
   20.3361  -22.1013  -11.5809 O   0  0  0  0  0  0  0  0  0  0  0  0
  2  1  1  6
  2  4  1  0
  3  2  1  0
  4  6  1  0
  4  5  1  1
  6 13  1  0
  7  6  2  0
  8  9  1  0
  9 10  2  0
 12 11  1  1
 11  9  1  0
 13 12  1  0
 14 12  1  0
 14 15  2  0
 16 17  1  0
 17 18  2  0
 17 19  1  0
 19 20  1  0
 21 20  1  6
 21 22  1  0
 21 23  1  0
 22 14  1  0
 23 24  1  0
 25 23  2  0
M  END
$$$$
