VNQ.pdb
     RDKit          3D

 25 24  0  0  1  0  0  0  0  0999 V2000
   28.6240  -17.4771  -16.6804 C   0  0  0  0  0  0  0  0  0  0  0  0
   28.3561  -18.2611  -17.9721 C   0  0  1  0  0  0  0  0  0  0  0  0
   29.4085  -19.3566  -18.0350 C   0  0  0  0  0  0  0  0  0  0  0  0
   27.0206  -18.9176  -17.8877 C   0  0  2  0  0  0  0  0  0  0  0  0
   25.9804  -17.9477  -17.8752 N   0  0  0  0  0  0  0  0  0  0  0  0
   26.9165  -19.8984  -16.7707 C   0  0  0  0  0  0  0  0  0  0  0  0
   27.8744  -20.6877  -16.5991 O   0  0  0  0  0  0  0  0  0  0  0  0
   26.7264  -21.5002  -12.0344 N   0  0  0  0  0  0  0  0  0  0  0  0
   26.7775  -20.0888  -12.3035 C   0  0  0  0  0  0  0  0  0  0  0  0
   26.6809  -19.2674  -11.3905 O   0  0  0  0  0  0  0  0  0  0  0  0
   26.9484  -19.6946  -13.7071 C   0  0  0  0  0  0  0  0  0  0  0  0
   25.7603  -20.1899  -14.5031 C   0  0  2  0  0  0  0  0  0  0  0  0
   25.7982  -19.9753  -15.9090 N   0  0  0  0  0  0  0  0  0  0  0  0
   24.4612  -20.0213  -13.8746 C   0  0  0  0  0  0  0  0  0  0  0  0
   24.1963  -18.8903  -13.3718 O   0  0  0  0  0  0  0  0  0  0  0  0
   23.7141  -21.4122   -9.0088 N   0  0  0  0  0  0  0  0  0  0  0  0
   22.3639  -21.0228   -9.1653 C   0  0  0  0  0  0  0  0  0  0  0  0
   21.6086  -21.2842   -8.1699 O   0  0  0  0  0  0  0  0  0  0  0  0
   21.8099  -20.3639  -10.3679 C   0  0  0  0  0  0  0  0  0  0  0  0
   22.8745  -20.3461  -11.4372 C   0  0  0  0  0  0  0  0  0  0  0  0
   22.4574  -21.0170  -12.6980 C   0  0  2  0  0  0  0  0  0  0  0  0
   23.4466  -20.9905  -13.7588 N   0  0  0  0  0  0  0  0  0  0  0  0
   21.1429  -20.4830  -13.2000 C   0  0  0  0  0  0  0  0  0  0  0  0
   19.9521  -21.1388  -12.9979 O   0  0  0  0  0  0  0  0  0  0  0  0
   21.1049  -19.3937  -13.8331 O   0  0  0  0  0  0  0  0  0  0  0  0
  2  1  1  1
  2  4  1  0
  3  2  1  0
  4  6  1  0
  4  5  1  1
  6 13  1  0
  7  6  2  0
  8  9  1  0
  9 10  2  0
 12 11  1  1
 11  9  1  0
 13 12  1  0
 14 12  1  0
 14 15  2  0
 16 17  1  0
 17 18  2  0
 17 19  1  0
 19 20  1  0
 21 20  1  1
 21 22  1  0
 21 23  1  0
 22 14  1  0
 23 24  1  0
 25 23  2  0
M  END
$$$$
