VNQ.pdb
     RDKit          3D

 25 24  0  0  1  0  0  0  0  0999 V2000
   20.2416  -13.4523  -18.0256 C   0  0  0  0  0  0  0  0  0  0  0  0
   19.6200  -12.0959  -17.6673 C   0  0  1  0  0  0  0  0  0  0  0  0
   19.0942  -12.2270  -16.2466 C   0  0  0  0  0  0  0  0  0  0  0  0
   20.6798  -11.0479  -17.6652 C   0  0  2  0  0  0  0  0  0  0  0  0
   21.8713  -11.5350  -17.0603 N   0  0  0  0  0  0  0  0  0  0  0  0
   20.2233   -9.7504  -17.0918 C   0  0  0  0  0  0  0  0  0  0  0  0
   19.2202   -9.2068  -17.6098 O   0  0  0  0  0  0  0  0  0  0  0  0
   18.6600   -8.6401  -13.7741 N   0  0  0  0  0  0  0  0  0  0  0  0
   19.8479   -8.2101  -13.0878 C   0  0  0  0  0  0  0  0  0  0  0  0
   19.9179   -8.2519  -11.8586 O   0  0  0  0  0  0  0  0  0  0  0  0
   20.9514   -7.7270  -13.9266 C   0  0  0  0  0  0  0  0  0  0  0  0
   20.5609   -7.8730  -15.3815 C   0  0  2  0  0  0  0  0  0  0  0  0
   20.8655   -9.1156  -16.0039 N   0  0  0  0  0  0  0  0  0  0  0  0
   20.7433   -6.6925  -16.2086 C   0  0  0  0  0  0  0  0  0  0  0  0
   21.8323   -6.5858  -16.8449 O   0  0  0  0  0  0  0  0  0  0  0  0
   17.5857   -1.1160  -19.9782 N   0  0  0  0  0  0  0  0  0  0  0  0
   17.7801   -2.4169  -19.4596 C   0  0  0  0  0  0  0  0  0  0  0  0
   16.7291   -3.1398  -19.4089 O   0  0  0  0  0  0  0  0  0  0  0  0
   19.0764   -2.9537  -18.9918 C   0  0  0  0  0  0  0  0  0  0  0  0
   18.8077   -4.0308  -17.9698 C   0  0  0  0  0  0  0  0  0  0  0  0
   20.0365   -4.5179  -17.2870 C   0  0  2  0  0  0  0  0  0  0  0  0
   19.8306   -5.6351  -16.3847 N   0  0  0  0  0  0  0  0  0  0  0  0
   20.7539   -3.4018  -16.5767 C   0  0  0  0  0  0  0  0  0  0  0  0
   20.7700   -3.2858  -15.2073 O   0  0  0  0  0  0  0  0  0  0  0  0
   21.3722   -2.5263  -17.2402 O   0  0  0  0  0  0  0  0  0  0  0  0
  2  1  1  1
  2  4  1  0
  3  2  1  0
  4  6  1  0
  4  5  1  1
  6 13  1  0
  7  6  2  0
  8  9  1  0
  9 10  2  0
 12 11  1  1
 11  9  1  0
 13 12  1  0
 14 12  1  0
 14 15  2  0
 16 17  1  0
 17 18  2  0
 17 19  1  0
 19 20  1  0
 21 20  1  1
 21 22  1  0
 21 23  1  0
 22 14  1  0
 23 24  1  0
 25 23  2  0
M  END
$$$$
