VNQ.pdb
     RDKit          3D

 25 24  0  0  1  0  0  0  0  0999 V2000
   25.7822  -18.3673  -16.4716 C   0  0  0  0  0  0  0  0  0  0  0  0
   25.2163  -17.0415  -16.9978 C   0  0  1  0  0  0  0  0  0  0  0  0
   23.7088  -17.2217  -17.0812 C   0  0  0  0  0  0  0  0  0  0  0  0
   25.4911  -15.9574  -16.0127 C   0  0  2  0  0  0  0  0  0  0  0  0
   25.2774  -16.4160  -14.6834 N   0  0  0  0  0  0  0  0  0  0  0  0
   24.7680  -14.6900  -16.3153 C   0  0  0  0  0  0  0  0  0  0  0  0
   25.0165  -14.1253  -17.4059 O   0  0  0  0  0  0  0  0  0  0  0  0
   20.2051  -11.4096  -16.5124 N   0  0  0  0  0  0  0  0  0  0  0  0
   21.0874  -11.5622  -15.3875 C   0  0  0  0  0  0  0  0  0  0  0  0
   21.3438  -10.6082  -14.6514 O   0  0  0  0  0  0  0  0  0  0  0  0
   21.6531  -12.8998  -15.1745 C   0  0  0  0  0  0  0  0  0  0  0  0
   23.1146  -12.8816  -15.5673 C   0  0  2  0  0  0  0  0  0  0  0  0
   23.8274  -14.1059  -15.4361 N   0  0  0  0  0  0  0  0  0  0  0  0
   23.8522  -11.6816  -15.2108 C   0  0  0  0  0  0  0  0  0  0  0  0
   24.6268  -11.7455  -14.2118 O   0  0  0  0  0  0  0  0  0  0  0  0
   28.6266  -10.7384  -17.3381 N   0  0  0  0  0  0  0  0  0  0  0  0
   28.5038   -9.4335  -16.8078 C   0  0  0  0  0  0  0  0  0  0  0  0
   29.5730   -8.7366  -16.8375 O   0  0  0  0  0  0  0  0  0  0  0  0
   27.2600   -8.8655  -16.2442 C   0  0  0  0  0  0  0  0  0  0  0  0
   26.1868   -9.9253  -16.2887 C   0  0  0  0  0  0  0  0  0  0  0  0
   24.8605   -9.4439  -15.8167 C   0  0  2  0  0  0  0  0  0  0  0  0
   23.8012  -10.4341  -15.8614 N   0  0  0  0  0  0  0  0  0  0  0  0
   24.4354   -8.1952  -16.5413 C   0  0  0  0  0  0  0  0  0  0  0  0
   25.0367   -6.9772  -16.3321 O   0  0  0  0  0  0  0  0  0  0  0  0
   23.4938   -8.2411  -17.3783 O   0  0  0  0  0  0  0  0  0  0  0  0
  2  1  1  1
  2  4  1  0
  3  2  1  0
  4  6  1  0
  4  5  1  1
  6 13  1  0
  7  6  2  0
  8  9  1  0
  9 10  2  0
 12 11  1  1
 11  9  1  0
 13 12  1  0
 14 12  1  0
 14 15  2  0
 16 17  1  0
 17 18  2  0
 17 19  1  0
 19 20  1  0
 21 20  1  6
 21 22  1  0
 21 23  1  0
 22 14  1  0
 23 24  1  0
 25 23  2  0
M  END
$$$$
