VNQ.pdb
     RDKit          3D

 25 24  0  0  1  0  0  0  0  0999 V2000
   20.1636  -12.3397  -15.9707 C   0  0  0  0  0  0  0  0  0  0  0  0
   18.9948  -12.7604  -16.8716 C   0  0  1  0  0  0  0  0  0  0  0  0
   19.0571  -14.2761  -16.9750 C   0  0  0  0  0  0  0  0  0  0  0  0
   17.7060  -12.4020  -16.2143 C   0  0  2  0  0  0  0  0  0  0  0  0
   16.6312  -13.1527  -16.7658 N   0  0  0  0  0  0  0  0  0  0  0  0
   17.4430  -10.9353  -16.1953 C   0  0  0  0  0  0  0  0  0  0  0  0
   17.7548  -10.2756  -17.2139 O   0  0  0  0  0  0  0  0  0  0  0  0
   14.3996   -9.7708  -15.7110 N   0  0  0  0  0  0  0  0  0  0  0  0
   14.3034   -9.0024  -14.4998 C   0  0  0  0  0  0  0  0  0  0  0  0
   13.2156   -8.8227  -13.9499 O   0  0  0  0  0  0  0  0  0  0  0  0
   15.5577   -8.4553  -13.9688 C   0  0  0  0  0  0  0  0  0  0  0  0
   16.6958   -8.8702  -14.8761 C   0  0  2  0  0  0  0  0  0  0  0  0
   16.8654  -10.2661  -15.0919 N   0  0  0  0  0  0  0  0  0  0  0  0
   17.9205   -8.0985  -14.7504 C   0  0  0  0  0  0  0  0  0  0  0  0
   18.8799   -8.6225  -14.1123 O   0  0  0  0  0  0  0  0  0  0  0  0
   22.6108   -8.6844  -16.7876 N   0  0  0  0  0  0  0  0  0  0  0  0
   22.9120   -7.3776  -16.3393 C   0  0  0  0  0  0  0  0  0  0  0  0
   24.1511   -7.0715  -16.3638 O   0  0  0  0  0  0  0  0  0  0  0  0
   21.9120   -6.3978  -15.8628 C   0  0  0  0  0  0  0  0  0  0  0  0
   20.5572   -7.0621  -15.8543 C   0  0  0  0  0  0  0  0  0  0  0  0
   19.4738   -6.1892  -15.3272 C   0  0  2  0  0  0  0  0  0  0  0  0
   18.1648   -6.8114  -15.2661 N   0  0  0  0  0  0  0  0  0  0  0  0
   19.3961   -4.8884  -16.0802 C   0  0  0  0  0  0  0  0  0  0  0  0
   20.1065   -3.7730  -15.7058 O   0  0  0  0  0  0  0  0  0  0  0  0
   18.6583   -4.7916  -17.0977 O   0  0  0  0  0  0  0  0  0  0  0  0
  2  1  1  1
  2  4  1  0
  3  2  1  0
  4  6  1  0
  4  5  1  6
  6 13  1  0
  7  6  2  0
  8  9  1  0
  9 10  2  0
 12 11  1  1
 11  9  1  0
 13 12  1  0
 14 12  1  0
 14 15  2  0
 16 17  1  0
 17 18  2  0
 17 19  1  0
 19 20  1  0
 21 20  1  6
 21 22  1  0
 21 23  1  0
 22 14  1  0
 23 24  1  0
 25 23  2  0
M  END
$$$$
