DEG.pdb
     RDKit          3D

 22 21  0  0  1  0  0  0  0  0999 V2000
   17.0717  -10.7835  -14.0316 N   0  0  0  0  0  0  0  0  0  0  0  0
   17.2852   -9.7984  -15.1442 C   0  0  1  0  0  0  0  0  0  0  0  0
   16.0609   -8.9423  -15.1025 C   0  0  0  0  0  0  0  0  0  0  0  0
   14.8171   -9.5197  -15.6015 C   0  0  0  0  0  0  0  0  0  0  0  0
   13.6557   -9.1257  -15.4174 O   0  0  0  0  0  0  0  0  0  0  0  0
   18.5376   -9.1190  -14.7640 C   0  0  0  0  0  0  0  0  0  0  0  0
   18.7831   -8.9035  -13.5199 O   0  0  0  0  0  0  0  0  0  0  0  0
   14.8966  -10.6903  -16.4109 O   0  0  0  0  0  0  0  0  0  0  0  0
   19.5464   -8.6582  -15.6320 N   0  0  0  0  0  0  0  0  0  0  0  0
   20.7373   -7.9558  -15.1571 C   0  0  1  0  0  0  0  0  0  0  0  0
   21.9711   -8.3956  -15.8697 C   0  0  0  0  0  0  0  0  0  0  0  0
   22.5331   -9.7046  -15.4407 C   0  0  0  0  0  0  0  0  0  0  0  0
   23.6663  -10.1738  -16.2587 C   0  0  0  0  0  0  0  0  0  0  0  0
   24.7088   -9.4906  -16.4234 O   0  0  0  0  0  0  0  0  0  0  0  0
   20.5174   -6.5127  -15.5328 C   0  0  0  0  0  0  0  0  0  0  0  0
   19.9912   -6.1491  -16.5953 O   0  0  0  0  0  0  0  0  0  0  0  0
   23.6379  -11.4070  -16.8944 O   0  0  0  0  0  0  0  0  0  0  0  0
   20.9499   -5.5417  -14.5917 N   0  0  0  0  0  0  0  0  0  0  0  0
   20.7874   -4.1326  -14.8541 C   0  0  0  0  0  0  0  0  0  0  0  0
   21.2182   -3.3011  -13.7114 C   0  0  0  0  0  0  0  0  0  0  0  0
   21.5678   -3.7506  -12.5956 O   0  0  0  0  0  0  0  0  0  0  0  0
   21.2320   -1.9202  -13.9015 O   0  0  0  0  0  0  0  0  0  0  0  0
  2  6  1  0
  2  1  1  1
  2  3  1  0
  3  4  1  0
  4  5  2  0
  4  8  1  0
  6  7  2  0
  9 10  1  0
  9  6  1  0
 10 15  1  0
 10 11  1  6
 12 11  1  0
 13 14  2  0
 13 12  1  0
 15 16  2  0
 15 18  1  0
 17 13  1  0
 18 19  1  0
 20 19  1  0
 20 22  1  0
 21 20  2  0
M  END
$$$$
