DEG.pdb
     RDKit          3D

 22 21  0  0  1  0  0  0  0  0999 V2000
   18.0722  -12.8813  -16.1562 N   0  0  0  0  0  0  0  0  0  0  0  0
   17.6949  -11.4426  -15.9512 C   0  0  1  0  0  0  0  0  0  0  0  0
   17.0369  -11.4342  -14.6093 C   0  0  0  0  0  0  0  0  0  0  0  0
   15.6379  -11.8437  -14.5417 C   0  0  0  0  0  0  0  0  0  0  0  0
   14.8731  -12.1326  -15.4741 O   0  0  0  0  0  0  0  0  0  0  0  0
   18.9880  -10.7369  -16.0190 C   0  0  0  0  0  0  0  0  0  0  0  0
   20.0695  -11.3792  -15.7502 O   0  0  0  0  0  0  0  0  0  0  0  0
   15.0266  -11.9385  -13.2574 O   0  0  0  0  0  0  0  0  0  0  0  0
   19.1969   -9.3866  -16.3599 N   0  0  0  0  0  0  0  0  0  0  0  0
   20.5287   -8.7887  -16.4394 C   0  0  1  0  0  0  0  0  0  0  0  0
   20.7013   -7.9617  -17.6680 C   0  0  0  0  0  0  0  0  0  0  0  0
   22.0656   -7.4112  -17.8898 C   0  0  0  0  0  0  0  0  0  0  0  0
   22.1741   -6.5141  -19.0548 C   0  0  0  0  0  0  0  0  0  0  0  0
   23.1781   -5.7841  -19.2537 O   0  0  0  0  0  0  0  0  0  0  0  0
   20.6027   -7.8395  -15.2707 C   0  0  0  0  0  0  0  0  0  0  0  0
   19.6603   -7.1215  -14.9046 O   0  0  0  0  0  0  0  0  0  0  0  0
   21.1617   -6.4306  -20.0001 O   0  0  0  0  0  0  0  0  0  0  0  0
   21.8381   -7.7918  -14.5727 N   0  0  0  0  0  0  0  0  0  0  0  0
   21.9904   -6.9769  -13.3922 C   0  0  0  0  0  0  0  0  0  0  0  0
   22.0255   -5.5351  -13.7128 C   0  0  0  0  0  0  0  0  0  0  0  0
   22.1472   -4.6202  -12.8658 O   0  0  0  0  0  0  0  0  0  0  0  0
   21.9144   -5.1814  -15.0565 O   0  0  0  0  0  0  0  0  0  0  0  0
  2  6  1  0
  2  1  1  1
  2  3  1  0
  3  4  1  0
  4  5  2  0
  4  8  1  0
  6  7  2  0
  9 10  1  0
  9  6  1  0
 10 15  1  0
 10 11  1  6
 12 11  1  0
 13 14  2  0
 13 12  1  0
 15 16  2  0
 15 18  1  0
 17 13  1  0
 18 19  1  0
 20 19  1  0
 20 22  1  0
 21 20  2  0
M  END
$$$$
