DEG.pdb
     RDKit          3D

 22 21  0  0  1  0  0  0  0  0999 V2000
   16.2726  -14.6967  -14.3717 N   0  0  0  0  0  0  0  0  0  0  0  0
   15.5623  -13.4834  -14.8985 C   0  0  1  0  0  0  0  0  0  0  0  0
   14.4134  -13.3069  -13.9592 C   0  0  0  0  0  0  0  0  0  0  0  0
   13.2905  -14.2302  -14.0861 C   0  0  0  0  0  0  0  0  0  0  0  0
   12.9182  -14.8582  -15.0885 O   0  0  0  0  0  0  0  0  0  0  0  0
   16.5917  -12.4295  -14.8340 C   0  0  0  0  0  0  0  0  0  0  0  0
   17.3449  -12.3493  -13.7945 O   0  0  0  0  0  0  0  0  0  0  0  0
   12.4873  -14.4740  -12.9340 O   0  0  0  0  0  0  0  0  0  0  0  0
   16.8681  -11.4569  -15.8144 N   0  0  0  0  0  0  0  0  0  0  0  0
   18.0165  -10.5560  -15.7318 C   0  0  1  0  0  0  0  0  0  0  0  0
   19.0677  -10.8917  -16.7347 C   0  0  0  0  0  0  0  0  0  0  0  0
   20.2899  -10.0442  -16.6978 C   0  0  0  0  0  0  0  0  0  0  0  0
   21.2558  -10.3281  -17.7749 C   0  0  0  0  0  0  0  0  0  0  0  0
   22.0612  -11.2921  -17.7229 O   0  0  0  0  0  0  0  0  0  0  0  0
   17.4793   -9.2001  -16.1125 C   0  0  0  0  0  0  0  0  0  0  0  0
   16.5880   -9.0234  -16.9564 O   0  0  0  0  0  0  0  0  0  0  0  0
   21.3240   -9.5363  -18.9125 O   0  0  0  0  0  0  0  0  0  0  0  0
   18.0503   -8.0842  -15.4458 N   0  0  0  0  0  0  0  0  0  0  0  0
   17.6129   -6.7417  -15.7416 C   0  0  0  0  0  0  0  0  0  0  0  0
   18.2752   -5.7393  -14.8818 C   0  0  0  0  0  0  0  0  0  0  0  0
   19.0746   -6.0117  -13.9566 O   0  0  0  0  0  0  0  0  0  0  0  0
   17.9809   -4.3992  -15.1280 O   0  0  0  0  0  0  0  0  0  0  0  0
  2  6  1  0
  2  1  1  1
  2  3  1  0
  3  4  1  0
  4  5  2  0
  4  8  1  0
  6  7  2  0
  9 10  1  0
  9  6  1  0
 10 15  1  0
 10 11  1  6
 12 11  1  0
 13 14  2  0
 13 12  1  0
 15 16  2  0
 15 18  1  0
 17 13  1  0
 18 19  1  0
 20 19  1  0
 20 22  1  0
 21 20  2  0
M  END
$$$$
