DEG.pdb
     RDKit          3D

 22 21  0  0  1  0  0  0  0  0999 V2000
   18.2207  -10.5060  -16.5220 N   0  0  0  0  0  0  0  0  0  0  0  0
   18.3330  -10.5670  -15.0261 C   0  0  1  0  0  0  0  0  0  0  0  0
   18.6226  -12.0067  -14.7485 C   0  0  0  0  0  0  0  0  0  0  0  0
   17.5472  -12.9667  -14.9747 C   0  0  0  0  0  0  0  0  0  0  0  0
   17.4336  -13.7959  -15.8897 O   0  0  0  0  0  0  0  0  0  0  0  0
   19.4380   -9.6371  -14.7279 C   0  0  0  0  0  0  0  0  0  0  0  0
   19.8944   -9.5677  -13.5274 O   0  0  0  0  0  0  0  0  0  0  0  0
   16.4632  -12.9921  -14.0492 O   0  0  0  0  0  0  0  0  0  0  0  0
   20.0880   -8.7782  -15.6353 N   0  0  0  0  0  0  0  0  0  0  0  0
   21.1683   -7.8780  -15.2356 C   0  0  1  0  0  0  0  0  0  0  0  0
   22.3630   -8.0067  -16.1185 C   0  0  0  0  0  0  0  0  0  0  0  0
   23.1268   -9.2771  -15.9910 C   0  0  0  0  0  0  0  0  0  0  0  0
   24.2357   -9.4156  -16.9526 C   0  0  0  0  0  0  0  0  0  0  0  0
   25.0519  -10.3708  -16.9091 O   0  0  0  0  0  0  0  0  0  0  0  0
   20.6228   -6.4898  -15.4534 C   0  0  0  0  0  0  0  0  0  0  0  0
   19.8066   -6.2010  -16.3412 O   0  0  0  0  0  0  0  0  0  0  0  0
   24.4353   -8.4877  -17.9650 O   0  0  0  0  0  0  0  0  0  0  0  0
   21.0928   -5.4807  -14.5722 N   0  0  0  0  0  0  0  0  0  0  0  0
   20.5941   -4.1300  -14.6602 C   0  0  0  0  0  0  0  0  0  0  0  0
   21.1833   -3.2516  -13.6288 C   0  0  0  0  0  0  0  0  0  0  0  0
   21.8973   -3.6484  -12.6790 O   0  0  0  0  0  0  0  0  0  0  0  0
   20.9183   -1.8869  -13.7312 O   0  0  0  0  0  0  0  0  0  0  0  0
  2  6  1  0
  2  1  1  6
  2  3  1  0
  3  4  1  0
  4  5  2  0
  4  8  1  0
  6  7  2  0
  9 10  1  0
  9  6  1  0
 10 15  1  0
 10 11  1  6
 12 11  1  0
 13 14  2  0
 13 12  1  0
 15 16  2  0
 15 18  1  0
 17 13  1  0
 18 19  1  0
 20 19  1  0
 20 22  1  0
 21 20  2  0
M  END
$$$$
