DEG.pdb
     RDKit          3D

 22 21  0  0  1  0  0  0  0  0999 V2000
   16.7858  -12.4890  -16.2398 N   0  0  0  0  0  0  0  0  0  0  0  0
   18.1756  -12.1933  -15.7549 C   0  0  1  0  0  0  0  0  0  0  0  0
   19.0474  -13.0165  -16.6470 C   0  0  0  0  0  0  0  0  0  0  0  0
   19.0412  -14.4622  -16.4487 C   0  0  0  0  0  0  0  0  0  0  0  0
   18.9291  -15.3568  -17.3002 O   0  0  0  0  0  0  0  0  0  0  0  0
   18.2969  -10.7345  -15.9333 C   0  0  0  0  0  0  0  0  0  0  0  0
   17.6561  -10.1629  -16.8910 O   0  0  0  0  0  0  0  0  0  0  0  0
   19.1791  -14.9590  -15.1198 O   0  0  0  0  0  0  0  0  0  0  0  0
   19.0590   -9.8475  -15.1485 N   0  0  0  0  0  0  0  0  0  0  0  0
   19.0368   -8.3992  -15.3460 C   0  0  1  0  0  0  0  0  0  0  0  0
   17.6977   -7.8122  -15.0529 C   0  0  0  0  0  0  0  0  0  0  0  0
   17.5860   -6.3389  -15.2271 C   0  0  0  0  0  0  0  0  0  0  0  0
   16.2399   -5.7988  -14.9626 C   0  0  0  0  0  0  0  0  0  0  0  0
   15.2604   -6.5347  -14.6808 O   0  0  0  0  0  0  0  0  0  0  0  0
   19.9820   -7.8475  -14.3094 C   0  0  0  0  0  0  0  0  0  0  0  0
   20.1022   -8.3152  -13.1672 O   0  0  0  0  0  0  0  0  0  0  0  0
   15.9851   -4.4356  -15.0118 O   0  0  0  0  0  0  0  0  0  0  0  0
   20.7636   -6.7281  -14.6988 N   0  0  0  0  0  0  0  0  0  0  0  0
   21.7570   -6.1742  -13.8116 C   0  0  0  0  0  0  0  0  0  0  0  0
   22.5192   -5.0786  -14.4453 C   0  0  0  0  0  0  0  0  0  0  0  0
   22.3506   -4.6816  -15.6214 O   0  0  0  0  0  0  0  0  0  0  0  0
   23.4918   -4.4509  -13.6688 O   0  0  0  0  0  0  0  0  0  0  0  0
  2  6  1  0
  2  1  1  6
  2  3  1  0
  3  4  1  0
  4  5  2  0
  4  8  1  0
  6  7  2  0
  9 10  1  0
  9  6  1  0
 10 15  1  0
 10 11  1  1
 12 11  1  0
 13 14  2  0
 13 12  1  0
 15 16  2  0
 15 18  1  0
 17 13  1  0
 18 19  1  0
 20 19  1  0
 20 22  1  0
 21 20  2  0
M  END
$$$$
