DEG.pdb
     RDKit          3D

 22 21  0  0  1  0  0  0  0  0999 V2000
   18.8054  -10.9956  -16.8090 N   0  0  0  0  0  0  0  0  0  0  0  0
   17.7440  -11.0236  -15.7475 C   0  0  1  0  0  0  0  0  0  0  0  0
   18.0699  -12.2444  -14.9494 C   0  0  0  0  0  0  0  0  0  0  0  0
   17.8474  -13.5415  -15.5798 C   0  0  0  0  0  0  0  0  0  0  0  0
   17.4166  -13.7820  -16.7176 O   0  0  0  0  0  0  0  0  0  0  0  0
   17.9341   -9.7437  -15.0400 C   0  0  0  0  0  0  0  0  0  0  0  0
   17.2515   -9.5062  -13.9761 O   0  0  0  0  0  0  0  0  0  0  0  0
   18.1501  -14.7147  -14.8289 O   0  0  0  0  0  0  0  0  0  0  0  0
   18.8121   -8.7024  -15.3981 N   0  0  0  0  0  0  0  0  0  0  0  0
   18.9814   -7.4977  -14.5873 C   0  0  1  0  0  0  0  0  0  0  0  0
   20.4097   -7.0804  -14.4917 C   0  0  0  0  0  0  0  0  0  0  0  0
   20.6655   -5.8185  -13.7462 C   0  0  0  0  0  0  0  0  0  0  0  0
   22.0873   -5.4349  -13.6761 C   0  0  0  0  0  0  0  0  0  0  0  0
   22.4909   -4.2814  -13.9714 O   0  0  0  0  0  0  0  0  0  0  0  0
   18.2676   -6.4096  -15.3480 C   0  0  0  0  0  0  0  0  0  0  0  0
   18.3569   -6.2534  -16.5750 O   0  0  0  0  0  0  0  0  0  0  0  0
   23.0614   -6.3385  -13.2757 O   0  0  0  0  0  0  0  0  0  0  0  0
   17.4551   -5.5321  -14.5827 N   0  0  0  0  0  0  0  0  0  0  0  0
   16.7615   -4.4321  -15.2070 C   0  0  0  0  0  0  0  0  0  0  0  0
   15.4663   -4.8474  -15.7838 C   0  0  0  0  0  0  0  0  0  0  0  0
   15.2994   -5.2104  -16.9711 O   0  0  0  0  0  0  0  0  0  0  0  0
   14.3597   -4.8293  -14.9364 O   0  0  0  0  0  0  0  0  0  0  0  0
  2  6  1  0
  2  1  1  6
  2  3  1  0
  3  4  1  0
  4  5  2  0
  4  8  1  0
  6  7  2  0
  9 10  1  0
  9  6  1  0
 10 15  1  0
 10 11  1  6
 12 11  1  0
 13 14  2  0
 13 12  1  0
 15 16  2  0
 15 18  1  0
 17 13  1  0
 18 19  1  0
 20 19  1  0
 20 22  1  0
 21 20  2  0
M  END
$$$$
