DEG.pdb
     RDKit          3D

 22 21  0  0  1  0  0  0  0  0999 V2000
   24.8495  -33.4406   -0.6662 N   0  0  0  0  0  0  0  0  0  0  0  0
   25.6525  -34.1794   -1.6975 C   0  0  1  0  0  0  0  0  0  0  0  0
   26.2150  -33.0936   -2.5566 C   0  0  0  0  0  0  0  0  0  0  0  0
   25.3023  -32.4172   -3.4725 C   0  0  0  0  0  0  0  0  0  0  0  0
   24.0812  -32.5857   -3.6086 O   0  0  0  0  0  0  0  0  0  0  0  0
   26.6434  -34.9191   -0.8940 C   0  0  0  0  0  0  0  0  0  0  0  0
   27.0506  -34.4181    0.2185 O   0  0  0  0  0  0  0  0  0  0  0  0
   25.8380  -31.4251   -4.3447 O   0  0  0  0  0  0  0  0  0  0  0  0
   27.2241  -36.1639   -1.2049 N   0  0  0  0  0  0  0  0  0  0  0  0
   28.0944  -36.8836   -0.2766 C   0  0  1  0  0  0  0  0  0  0  0  0
   28.0337  -38.3597   -0.4787 C   0  0  0  0  0  0  0  0  0  0  0  0
   28.8172  -39.1767    0.4868 C   0  0  0  0  0  0  0  0  0  0  0  0
   28.6899  -40.6324    0.2906 C   0  0  0  0  0  0  0  0  0  0  0  0
   29.5179  -41.2981   -0.3816 O   0  0  0  0  0  0  0  0  0  0  0  0
   29.4938  -36.4589   -0.6417 C   0  0  0  0  0  0  0  0  0  0  0  0
   29.8464  -36.1627   -1.7932 O   0  0  0  0  0  0  0  0  0  0  0  0
   27.6378  -41.3477    0.8449 O   0  0  0  0  0  0  0  0  0  0  0  0
   30.4354  -36.4062    0.4196 N   0  0  0  0  0  0  0  0  0  0  0  0
   31.7988  -36.0003    0.1801 C   0  0  0  0  0  0  0  0  0  0  0  0
   32.6176  -36.0504    1.4089 C   0  0  0  0  0  0  0  0  0  0  0  0
   32.1761  -36.3289    2.5477 O   0  0  0  0  0  0  0  0  0  0  0  0
   33.9758  -35.7655    1.2780 O   0  0  0  0  0  0  0  0  0  0  0  0
  2  6  1  0
  2  1  1  1
  2  3  1  0
  3  4  1  0
  4  5  2  0
  4  8  1  0
  6  7  2  0
  9 10  1  0
  9  6  1  0
 10 15  1  0
 10 11  1  6
 12 11  1  0
 13 14  2  0
 13 12  1  0
 15 16  2  0
 15 18  1  0
 17 13  1  0
 18 19  1  0
 20 19  1  0
 20 22  1  0
 21 20  2  0
M  END
$$$$
