LFA.pdb
     RDKit          3D

 25 25  0  0  1  0  0  0  0  0999 V2000
    8.4924  -14.9522   17.0018 C   0  0  0  0  0  0  0  0  0  0  0  0
    7.8931  -14.0236   18.0666 C   0  0  2  0  0  0  0  0  0  0  0  0
    7.5670  -12.7180   17.4338 C   0  0  0  0  0  0  0  0  0  0  0  0
    8.9004  -13.9434   19.1773 C   0  0  0  0  0  0  0  0  0  0  0  0
    9.0301  -15.2065   19.9686 C   0  0  2  0  0  0  0  0  0  0  0  0
    7.8472  -16.0434   19.8837 N   0  0  0  0  0  0  0  0  0  0  0  0
    9.1843  -14.8322   21.4004 C   0  0  0  0  0  0  0  0  0  0  0  0
   10.1330  -14.1522   21.8320 O   0  0  0  0  0  0  0  0  0  0  0  0
    8.2139  -15.2599   22.3411 N   0  0  0  0  0  0  0  0  0  0  0  0
    8.1652  -14.8794   23.7078 C   0  0  1  0  0  0  0  0  0  0  0  0
    6.8592  -14.3565   24.1984 C   0  0  0  0  0  0  0  0  0  0  0  0
    6.9683  -13.5170   25.4011 C   0  0  0  0  0  0  0  0  0  0  0  0
    6.1844  -13.7688   26.5018 C   0  0  0  0  0  0  0  0  0  0  0  0
    6.2554  -13.0052   27.6509 C   0  0  0  0  0  0  0  0  0  0  0  0
    7.1293  -11.9589   27.7144 C   0  0  0  0  0  0  0  0  0  0  0  0
    7.9279  -11.6794   26.6318 C   0  0  0  0  0  0  0  0  0  0  0  0
    7.8390  -12.4562   25.4954 C   0  0  0  0  0  0  0  0  0  0  0  0
    8.5983  -16.0222   24.5441 C   0  0  0  0  0  0  0  0  0  0  0  0
    7.7813  -16.5892   25.3012 O   0  0  0  0  0  0  0  0  0  0  0  0
   11.5809  -18.3024   24.7564 C   0  0  0  0  0  0  0  0  0  0  0  0
   10.3281  -17.6742   25.3238 C   0  0  2  0  0  0  0  0  0  0  0  0
    9.9394  -16.5235   24.5287 N   0  0  0  0  0  0  0  0  0  0  0  0
   10.5005  -17.2681   26.7445 C   0  0  0  0  0  0  0  0  0  0  0  0
   10.3805  -15.9576   27.1666 O   0  0  0  0  0  0  0  0  0  0  0  0
   10.7644  -18.1314   27.6036 O   0  0  0  0  0  0  0  0  0  0  0  0
  2  1  1  6
  2  3  1  0
  4  2  1  0
  5  7  1  0
  5  4  1  0
  5  6  1  1
  7  8  2  0
  9 10  1  0
  9  7  1  0
 10 11  1  1
 12 13  2  0
 12 11  1  0
 14 13  1  0
 15 14  2  0
 16 17  2  0
 16 15  1  0
 17 12  1  0
 18 10  1  0
 19 18  2  0
 21 20  1  6
 21 22  1  0
 22 18  1  0
 23 21  1  0
 23 24  1  0
 25 23  2  0
M  END
$$$$
