LFA.pdb
     RDKit          3D

 25 25  0  0  1  0  0  0  0  0999 V2000
    7.9287  -14.2463   17.3902 C   0  0  0  0  0  0  0  0  0  0  0  0
    7.7576  -13.8091   18.8513 C   0  0  2  0  0  0  0  0  0  0  0  0
    7.4837  -12.3478   18.8844 C   0  0  0  0  0  0  0  0  0  0  0  0
    9.0090  -14.2249   19.5695 C   0  0  0  0  0  0  0  0  0  0  0  0
    8.8847  -15.5261   20.2974 C   0  0  2  0  0  0  0  0  0  0  0  0
    7.5551  -16.0993   20.1949 N   0  0  0  0  0  0  0  0  0  0  0  0
    9.1242  -15.2634   21.7422 C   0  0  0  0  0  0  0  0  0  0  0  0
   10.1457  -14.7000   22.1756 O   0  0  0  0  0  0  0  0  0  0  0  0
    8.1540  -15.6661   22.6941 N   0  0  0  0  0  0  0  0  0  0  0  0
    8.1754  -15.3518   24.0782 C   0  0  1  0  0  0  0  0  0  0  0  0
    6.8687  -14.9758   24.6872 C   0  0  0  0  0  0  0  0  0  0  0  0
    6.9799  -13.9901   25.7731 C   0  0  0  0  0  0  0  0  0  0  0  0
    7.5301  -14.3426   26.9824 C   0  0  0  0  0  0  0  0  0  0  0  0
    7.6532  -13.4482   28.0280 C   0  0  0  0  0  0  0  0  0  0  0  0
    7.2187  -12.1637   27.8736 C   0  0  0  0  0  0  0  0  0  0  0  0
    6.6636  -11.7777   26.6773 C   0  0  0  0  0  0  0  0  0  0  0  0
    6.5513  -12.6889   25.6479 C   0  0  0  0  0  0  0  0  0  0  0  0
    8.7726  -16.4842   24.8225 C   0  0  0  0  0  0  0  0  0  0  0  0
    8.1567  -17.5680   24.9135 O   0  0  0  0  0  0  0  0  0  0  0  0
   12.0745  -17.7416   25.5909 C   0  0  0  0  0  0  0  0  0  0  0  0
   10.6617  -17.5523   26.0951 C   0  0  2  0  0  0  0  0  0  0  0  0
   10.0522  -16.3986   25.4590 N   0  0  0  0  0  0  0  0  0  0  0  0
   10.6120  -17.3956   27.5736 C   0  0  0  0  0  0  0  0  0  0  0  0
   10.1101  -16.2641   28.1883 O   0  0  0  0  0  0  0  0  0  0  0  0
   11.0359  -18.3118   28.3041 O   0  0  0  0  0  0  0  0  0  0  0  0
  2  1  1  6
  2  3  1  0
  4  2  1  0
  5  7  1  0
  5  4  1  0
  5  6  1  1
  7  8  2  0
  9 10  1  0
  9  7  1  0
 10 11  1  1
 12 13  2  0
 12 11  1  0
 14 13  1  0
 15 14  2  0
 16 17  2  0
 16 15  1  0
 17 12  1  0
 18 10  1  0
 19 18  2  0
 21 20  1  6
 21 22  1  0
 22 18  1  0
 23 21  1  0
 23 24  1  0
 25 23  2  0
M  END
$$$$
