LFA.pdb
     RDKit          3D

 25 25  0  0  1  0  0  0  0  0999 V2000
    8.1012  -12.7061   17.9076 C   0  0  0  0  0  0  0  0  0  0  0  0
    7.8087  -13.7844   18.9596 C   0  0  2  0  0  0  0  0  0  0  0  0
    7.4259  -13.1188   20.2332 C   0  0  0  0  0  0  0  0  0  0  0  0
    9.0409  -14.6380   19.0485 C   0  0  0  0  0  0  0  0  0  0  0  0
    8.9085  -15.7954   19.9873 C   0  0  2  0  0  0  0  0  0  0  0  0
    7.5881  -16.3970   19.9504 N   0  0  0  0  0  0  0  0  0  0  0  0
    9.1039  -15.2833   21.3706 C   0  0  0  0  0  0  0  0  0  0  0  0
   10.1483  -14.7250   21.7530 O   0  0  0  0  0  0  0  0  0  0  0  0
    8.0616  -15.4267   22.3207 N   0  0  0  0  0  0  0  0  0  0  0  0
    8.1033  -14.9762   23.6662 C   0  0  1  0  0  0  0  0  0  0  0  0
    6.8300  -14.4337   24.2176 C   0  0  0  0  0  0  0  0  0  0  0  0
    6.9765  -13.7925   25.5331 C   0  0  0  0  0  0  0  0  0  0  0  0
    7.3876  -12.4845   25.6304 C   0  0  0  0  0  0  0  0  0  0  0  0
    7.5380  -11.8448   26.8455 C   0  0  0  0  0  0  0  0  0  0  0  0
    7.2737  -12.5194   28.0020 C   0  0  0  0  0  0  0  0  0  0  0  0
    6.8608  -13.8286   27.9409 C   0  0  0  0  0  0  0  0  0  0  0  0
    6.7179  -14.4459   26.7157 C   0  0  0  0  0  0  0  0  0  0  0  0
    8.6009  -16.0726   24.5284 C   0  0  0  0  0  0  0  0  0  0  0  0
    7.9379  -17.1254   24.6478 O   0  0  0  0  0  0  0  0  0  0  0  0
   11.7656  -17.4439   25.4838 C   0  0  0  0  0  0  0  0  0  0  0  0
   10.3715  -17.1238   25.9738 C   0  0  2  0  0  0  0  0  0  0  0  0
    9.8343  -15.9857   25.2503 N   0  0  0  0  0  0  0  0  0  0  0  0
   10.3419  -16.8494   27.4356 C   0  0  0  0  0  0  0  0  0  0  0  0
   10.6732  -17.8015   28.3811 O   0  0  0  0  0  0  0  0  0  0  0  0
   10.0071  -15.7205   27.8431 O   0  0  0  0  0  0  0  0  0  0  0  0
  2  1  1  6
  2  3  1  0
  4  2  1  0
  5  7  1  0
  5  4  1  0
  5  6  1  1
  7  8  2  0
  9 10  1  0
  9  7  1  0
 10 11  1  1
 12 13  2  0
 12 11  1  0
 14 13  1  0
 15 14  2  0
 16 17  2  0
 16 15  1  0
 17 12  1  0
 18 10  1  0
 19 18  2  0
 21 20  1  6
 21 22  1  0
 22 18  1  0
 23 21  1  0
 23 24  1  0
 25 23  2  0
M  END
$$$$
