LFA.pdb
     RDKit          3D

 25 25  0  0  1  0  0  0  0  0999 V2000
    8.2275  -15.1894   17.5250 C   0  0  0  0  0  0  0  0  0  0  0  0
    7.9310  -14.1554   18.6197 C   0  0  2  0  0  0  0  0  0  0  0  0
    7.6649  -12.8411   17.9767 C   0  0  0  0  0  0  0  0  0  0  0  0
    9.1114  -14.1674   19.5476 C   0  0  0  0  0  0  0  0  0  0  0  0
    9.1977  -15.3936   20.4007 C   0  0  2  0  0  0  0  0  0  0  0  0
    8.0036  -16.2149   20.3214 N   0  0  0  0  0  0  0  0  0  0  0  0
    9.3183  -14.9542   21.8172 C   0  0  0  0  0  0  0  0  0  0  0  0
   10.3486  -14.4402   22.2893 O   0  0  0  0  0  0  0  0  0  0  0  0
    8.2168  -15.1189   22.6942 N   0  0  0  0  0  0  0  0  0  0  0  0
    8.0979  -14.5448   23.9871 C   0  0  1  0  0  0  0  0  0  0  0  0
    6.8493  -13.7768   24.2530 C   0  0  0  0  0  0  0  0  0  0  0  0
    6.8465  -13.0746   25.5453 C   0  0  0  0  0  0  0  0  0  0  0  0
    7.7201  -12.0396   25.7795 C   0  0  0  0  0  0  0  0  0  0  0  0
    7.7504  -11.3540   26.9784 C   0  0  0  0  0  0  0  0  0  0  0  0
    6.8895  -11.7023   27.9784 C   0  0  0  0  0  0  0  0  0  0  0  0
    6.0027  -12.7326   27.7776 C   0  0  0  0  0  0  0  0  0  0  0  0
    5.9914  -13.4024   26.5719 C   0  0  0  0  0  0  0  0  0  0  0  0
    8.2647  -15.6070   25.0053 C   0  0  0  0  0  0  0  0  0  0  0  0
    8.0791  -15.3500   26.2144 O   0  0  0  0  0  0  0  0  0  0  0  0
    8.2140  -19.2859   25.1797 C   0  0  0  0  0  0  0  0  0  0  0  0
    8.7764  -17.9754   25.6820 C   0  0  2  0  0  0  0  0  0  0  0  0
    8.6369  -16.9474   24.6667 N   0  0  0  0  0  0  0  0  0  0  0  0
   10.2042  -18.0963   26.0818 C   0  0  0  0  0  0  0  0  0  0  0  0
   11.2123  -17.3659   25.4815 O   0  0  0  0  0  0  0  0  0  0  0  0
   10.5234  -18.8834   26.9935 O   0  0  0  0  0  0  0  0  0  0  0  0
  2  1  1  6
  2  3  1  0
  4  2  1  0
  5  7  1  0
  5  4  1  0
  5  6  1  1
  7  8  2  0
  9 10  1  0
  9  7  1  0
 10 11  1  6
 12 13  2  0
 12 11  1  0
 14 13  1  0
 15 14  2  0
 16 17  2  0
 16 15  1  0
 17 12  1  0
 18 10  1  0
 19 18  2  0
 21 20  1  6
 21 22  1  0
 22 18  1  0
 23 21  1  0
 23 24  1  0
 25 23  2  0
M  END
$$$$
