LFA.pdb
     RDKit          3D

 25 25  0  0  1  0  0  0  0  0999 V2000
    8.0619  -14.0771   18.5795 C   0  0  0  0  0  0  0  0  0  0  0  0
    7.4794  -13.3038   19.7702 C   0  0  2  0  0  0  0  0  0  0  0  0
    7.3453  -11.8720   19.3912 C   0  0  0  0  0  0  0  0  0  0  0  0
    8.3960  -13.5575   20.9322 C   0  0  0  0  0  0  0  0  0  0  0  0
    8.4519  -14.9912   21.3565 C   0  0  2  0  0  0  0  0  0  0  0  0
    7.1382  -15.6037   21.4317 N   0  0  0  0  0  0  0  0  0  0  0  0
    9.0215  -15.0366   22.7304 C   0  0  0  0  0  0  0  0  0  0  0  0
   10.0988  -14.4980   23.0432 O   0  0  0  0  0  0  0  0  0  0  0  0
    8.3199  -15.7227   23.7534 N   0  0  0  0  0  0  0  0  0  0  0  0
    8.7085  -15.7925   25.1170 C   0  0  1  0  0  0  0  0  0  0  0  0
    7.6289  -15.5735   26.1202 C   0  0  0  0  0  0  0  0  0  0  0  0
    7.2274  -14.1659   26.2645 C   0  0  0  0  0  0  0  0  0  0  0  0
    5.9201  -13.7891   26.0682 C   0  0  0  0  0  0  0  0  0  0  0  0
    5.5011  -12.4788   26.1937 C   0  0  0  0  0  0  0  0  0  0  0  0
    6.4031  -11.5092   26.5239 C   0  0  0  0  0  0  0  0  0  0  0  0
    7.7182  -11.8514   26.7272 C   0  0  0  0  0  0  0  0  0  0  0  0
    8.1127  -13.1666   26.5961 C   0  0  0  0  0  0  0  0  0  0  0  0
    9.3727  -17.0926   25.3650 C   0  0  0  0  0  0  0  0  0  0  0  0
    9.0674  -17.7701   26.3700 O   0  0  0  0  0  0  0  0  0  0  0  0
   11.4408  -19.5100   23.3846 C   0  0  0  0  0  0  0  0  0  0  0  0
   10.9291  -18.9515   24.6932 C   0  0  2  0  0  0  0  0  0  0  0  0
   10.3721  -17.6265   24.4897 N   0  0  0  0  0  0  0  0  0  0  0  0
   11.9932  -18.8952   25.7313 C   0  0  0  0  0  0  0  0  0  0  0  0
   12.4770  -17.7052   26.2411 O   0  0  0  0  0  0  0  0  0  0  0  0
   12.4802  -19.9544   26.1713 O   0  0  0  0  0  0  0  0  0  0  0  0
  2  1  1  6
  2  3  1  0
  4  2  1  0
  5  7  1  0
  5  4  1  0
  5  6  1  1
  7  8  2  0
  9 10  1  0
  9  7  1  0
 10 11  1  1
 12 13  2  0
 12 11  1  0
 14 13  1  0
 15 14  2  0
 16 17  2  0
 16 15  1  0
 17 12  1  0
 18 10  1  0
 19 18  2  0
 21 20  1  6
 21 22  1  0
 22 18  1  0
 23 21  1  0
 23 24  1  0
 25 23  2  0
M  END
$$$$
