LFA.pdb
     RDKit          3D

 25 25  0  0  1  0  0  0  0  0999 V2000
    8.3186  -12.4584   18.9437 C   0  0  0  0  0  0  0  0  0  0  0  0
    8.0028  -13.8057   19.6071 C   0  0  2  0  0  0  0  0  0  0  0  0
    6.5532  -13.8487   19.9361 C   0  0  0  0  0  0  0  0  0  0  0  0
    8.9149  -13.9199   20.7944 C   0  0  0  0  0  0  0  0  0  0  0  0
    8.9564  -15.2892   21.3958 C   0  0  2  0  0  0  0  0  0  0  0  0
    7.6462  -15.9100   21.4637 N   0  0  0  0  0  0  0  0  0  0  0  0
    9.4370  -15.1557   22.7976 C   0  0  0  0  0  0  0  0  0  0  0  0
   10.4783  -14.5500   23.1098 O   0  0  0  0  0  0  0  0  0  0  0  0
    8.6877  -15.7396   23.8499 N   0  0  0  0  0  0  0  0  0  0  0  0
    9.0392  -15.7167   25.2251 C   0  0  1  0  0  0  0  0  0  0  0  0
    7.9151  -15.5479   26.1881 C   0  0  0  0  0  0  0  0  0  0  0  0
    7.3691  -14.1830   26.2321 C   0  0  0  0  0  0  0  0  0  0  0  0
    8.1469  -13.1332   26.6592 C   0  0  0  0  0  0  0  0  0  0  0  0
    7.6734  -11.8367   26.7159 C   0  0  0  0  0  0  0  0  0  0  0  0
    6.3896  -11.5688   26.3382 C   0  0  0  0  0  0  0  0  0  0  0  0
    5.5846  -12.5951   25.9060 C   0  0  0  0  0  0  0  0  0  0  0  0
    6.0800  -13.8815   25.8582 C   0  0  0  0  0  0  0  0  0  0  0  0
    9.8032  -16.9430   25.5497 C   0  0  0  0  0  0  0  0  0  0  0  0
    9.9869  -17.2690   26.7423 O   0  0  0  0  0  0  0  0  0  0  0  0
   11.0000  -20.0215   23.8043 C   0  0  0  0  0  0  0  0  0  0  0  0
   11.1325  -18.9731   24.8857 C   0  0  2  0  0  0  0  0  0  0  0  0
   10.3561  -17.7959   24.5413 N   0  0  0  0  0  0  0  0  0  0  0  0
   12.5502  -18.5887   25.1211 C   0  0  0  0  0  0  0  0  0  0  0  0
   13.0479  -17.3391   24.8035 O   0  0  0  0  0  0  0  0  0  0  0  0
   13.3362  -19.4143   25.6246 O   0  0  0  0  0  0  0  0  0  0  0  0
  2  1  1  1
  2  3  1  0
  4  2  1  0
  5  7  1  0
  5  4  1  0
  5  6  1  1
  7  8  2  0
  9 10  1  0
  9  7  1  0
 10 11  1  1
 12 13  2  0
 12 11  1  0
 14 13  1  0
 15 14  2  0
 16 17  2  0
 16 15  1  0
 17 12  1  0
 18 10  1  0
 19 18  2  0
 21 20  1  6
 21 22  1  0
 22 18  1  0
 23 21  1  0
 23 24  1  0
 25 23  2  0
M  END
$$$$
