QSQ.pdb
     RDKit          3D

 25 24  0  0  1  0  0  0  0  0999 V2000
   10.1534  -18.1952   14.7146 N   0  0  0  0  0  0  0  0  0  0  0  0
    8.7573  -17.9441   14.7349 C   0  0  0  0  0  0  0  0  0  0  0  0
    8.0045  -18.0617   13.7618 O   0  0  0  0  0  0  0  0  0  0  0  0
    8.1502  -17.5051   16.0250 C   0  0  0  0  0  0  0  0  0  0  0  0
    9.2037  -17.3094   17.0470 C   0  0  0  0  0  0  0  0  0  0  0  0
    8.8516  -17.8722   18.3893 C   0  0  2  0  0  0  0  0  0  0  0  0
    7.3403  -17.9519   18.3785 N   0  0  0  0  0  0  0  0  0  0  0  0
    9.2835  -16.8937   19.4313 C   0  0  0  0  0  0  0  0  0  0  0  0
   10.4752  -16.5468   19.5536 O   0  0  0  0  0  0  0  0  0  0  0  0
    6.7228  -15.5976   22.6416 O   0  0  0  0  0  0  0  0  0  0  0  0
    7.6686  -14.7773   22.0181 C   0  0  0  0  0  0  0  0  0  0  0  0
    8.8115  -15.5630   21.4645 C   0  0  2  0  0  0  0  0  0  0  0  0
    8.3149  -16.3242   20.3203 N   0  0  0  0  0  0  0  0  0  0  0  0
    9.5011  -16.4761   22.4167 C   0  0  0  0  0  0  0  0  0  0  0  0
    9.2164  -17.6780   22.4884 O   0  0  0  0  0  0  0  0  0  0  0  0
   15.3527  -15.8247   23.9243 N   0  0  0  0  0  0  0  0  0  0  0  0
   14.7160  -16.2672   22.7489 C   0  0  0  0  0  0  0  0  0  0  0  0
   15.4017  -16.4181   21.7037 O   0  0  0  0  0  0  0  0  0  0  0  0
   13.2458  -16.5295   22.8179 C   0  0  0  0  0  0  0  0  0  0  0  0
   12.7067  -16.2631   24.1802 C   0  0  0  0  0  0  0  0  0  0  0  0
   11.2247  -16.5137   24.3377 C   0  0  2  0  0  0  0  0  0  0  0  0
   10.5066  -15.9466   23.2715 N   0  0  0  0  0  0  0  0  0  0  0  0
   10.8281  -16.1803   25.7328 C   0  0  0  0  0  0  0  0  0  0  0  0
   11.4500  -16.8492   26.6560 O   0  0  0  0  0  0  0  0  0  0  0  0
    9.9012  -15.2559   26.1562 O   0  0  0  0  0  0  0  0  0  0  0  0
  1  2  1  0
  2  3  2  0
  4  5  1  0
  4  2  1  0
  6  8  1  0
  6  5  1  0
  6  7  1  6
  8  9  2  0
 11 10  1  0
 12 11  1  1
 13 12  1  0
 13  8  1  0
 14 15  2  0
 14 12  1  0
 16 17  1  0
 17 19  1  0
 18 17  2  0
 19 20  1  0
 21 20  1  6
 21 22  1  0
 21 23  1  0
 22 14  1  0
 23 25  1  0
 24 23  2  0
M  END
$$$$
