QSQ.pdb
     RDKit          3D

 25 24  0  0  1  0  0  0  0  0999 V2000
    8.0186  -12.6593   15.4866 N   0  0  0  0  0  0  0  0  0  0  0  0
    7.5861  -14.0100   15.4560 C   0  0  0  0  0  0  0  0  0  0  0  0
    7.1231  -14.5809   14.4624 O   0  0  0  0  0  0  0  0  0  0  0  0
    7.6968  -14.8026   16.7152 C   0  0  0  0  0  0  0  0  0  0  0  0
    8.2322  -13.9578   17.8072 C   0  0  0  0  0  0  0  0  0  0  0  0
    9.2258  -14.6607   18.6796 C   0  0  2  0  0  0  0  0  0  0  0  0
    9.0927  -16.1198   18.3003 N   0  0  0  0  0  0  0  0  0  0  0  0
    8.8037  -14.4832   20.1010 C   0  0  0  0  0  0  0  0  0  0  0  0
    8.8554  -13.3738   20.6684 O   0  0  0  0  0  0  0  0  0  0  0  0
    6.7508  -17.4458   22.4307 O   0  0  0  0  0  0  0  0  0  0  0  0
    6.6532  -16.0521   22.4958 C   0  0  0  0  0  0  0  0  0  0  0  0
    7.9673  -15.3875   22.2480 C   0  0  2  0  0  0  0  0  0  0  0  0
    8.3190  -15.6064   20.8467 N   0  0  0  0  0  0  0  0  0  0  0  0
    9.0930  -15.8150   23.1232 C   0  0  0  0  0  0  0  0  0  0  0  0
   10.1001  -16.3686   22.6649 O   0  0  0  0  0  0  0  0  0  0  0  0
    9.1867  -13.4862   28.9219 N   0  0  0  0  0  0  0  0  0  0  0  0
   10.1988  -14.4487   29.1013 C   0  0  0  0  0  0  0  0  0  0  0  0
   10.8004  -14.5026   30.2060 O   0  0  0  0  0  0  0  0  0  0  0  0
   10.5003  -15.3548   27.9509 C   0  0  0  0  0  0  0  0  0  0  0  0
    9.6450  -15.0443   26.7722 C   0  0  0  0  0  0  0  0  0  0  0  0
    9.8268  -15.9718   25.5929 C   0  0  2  0  0  0  0  0  0  0  0  0
    9.0000  -15.5876   24.5238 N   0  0  0  0  0  0  0  0  0  0  0  0
    9.7734  -17.3781   26.0769 C   0  0  0  0  0  0  0  0  0  0  0  0
    8.5928  -17.9191   26.0652 O   0  0  0  0  0  0  0  0  0  0  0  0
   10.8107  -18.1654   26.5207 O   0  0  0  0  0  0  0  0  0  0  0  0
  1  2  1  0
  2  3  2  0
  4  5  1  0
  4  2  1  0
  6  8  1  0
  6  5  1  0
  6  7  1  6
  8  9  2  0
 11 10  1  0
 12 11  1  1
 13 12  1  0
 13  8  1  0
 14 15  2  0
 14 12  1  0
 16 17  1  0
 17 19  1  0
 18 17  2  0
 19 20  1  0
 21 20  1  1
 21 22  1  0
 21 23  1  0
 22 14  1  0
 23 25  1  0
 24 23  2  0
M  END
$$$$
