QSQ.pdb
     RDKit          3D

 25 24  0  0  1  0  0  0  0  0999 V2000
    8.0783  -12.0434   18.4057 N   0  0  0  0  0  0  0  0  0  0  0  0
    8.0592  -13.4337   18.1244 C   0  0  0  0  0  0  0  0  0  0  0  0
    7.2468  -13.9922   17.3790 O   0  0  0  0  0  0  0  0  0  0  0  0
    9.0952  -14.2874   18.7755 C   0  0  0  0  0  0  0  0  0  0  0  0
    9.9897  -13.4578   19.6145 C   0  0  0  0  0  0  0  0  0  0  0  0
   11.0869  -14.2346   20.2744 C   0  0  2  0  0  0  0  0  0  0  0  0
   11.5561  -15.2013   19.2087 N   0  0  0  0  0  0  0  0  0  0  0  0
   10.4939  -15.0047   21.4081 C   0  0  0  0  0  0  0  0  0  0  0  0
    9.9767  -14.4356   22.3901 O   0  0  0  0  0  0  0  0  0  0  0  0
    9.0681  -19.2971   23.1241 O   0  0  0  0  0  0  0  0  0  0  0  0
    9.5870  -18.5252   22.0796 C   0  0  0  0  0  0  0  0  0  0  0  0
    9.9270  -17.1405   22.5235 C   0  0  2  0  0  0  0  0  0  0  0  0
   10.5065  -16.4370   21.3813 N   0  0  0  0  0  0  0  0  0  0  0  0
   10.8373  -17.0335   23.6965 C   0  0  0  0  0  0  0  0  0  0  0  0
   12.0524  -17.2455   23.5992 O   0  0  0  0  0  0  0  0  0  0  0  0
   10.6172  -14.1844   30.5729 N   0  0  0  0  0  0  0  0  0  0  0  0
   10.2834  -14.3154   29.2112 C   0  0  0  0  0  0  0  0  0  0  0  0
    9.5781  -13.4253   28.6677 O   0  0  0  0  0  0  0  0  0  0  0  0
   10.7924  -15.5218   28.4895 C   0  0  0  0  0  0  0  0  0  0  0  0
   10.2745  -15.5831   27.0948 C   0  0  0  0  0  0  0  0  0  0  0  0
   10.8355  -16.7089   26.2572 C   0  0  2  0  0  0  0  0  0  0  0  0
   10.2900  -16.6875   24.9625 N   0  0  0  0  0  0  0  0  0  0  0  0
   10.7728  -17.9697   27.0455 C   0  0  0  0  0  0  0  0  0  0  0  0
    9.6674  -18.6403   26.9230 O   0  0  0  0  0  0  0  0  0  0  0  0
   11.7345  -18.5067   27.8699 O   0  0  0  0  0  0  0  0  0  0  0  0
  1  2  1  0
  2  3  2  0
  4  5  1  0
  4  2  1  0
  6  8  1  0
  6  5  1  0
  6  7  1  6
  8  9  2  0
 11 10  1  0
 12 11  1  6
 13 12  1  0
 13  8  1  0
 14 15  2  0
 14 12  1  0
 16 17  1  0
 17 19  1  0
 18 17  2  0
 19 20  1  0
 21 20  1  1
 21 22  1  0
 21 23  1  0
 22 14  1  0
 23 25  1  0
 24 23  2  0
M  END
$$$$
