QSQ.pdb
     RDKit          3D

 25 24  0  0  1  0  0  0  0  0999 V2000
    8.9420  -12.2286   19.6434 N   0  0  0  0  0  0  0  0  0  0  0  0
    8.1755  -12.8737   18.6391 C   0  0  0  0  0  0  0  0  0  0  0  0
    8.1714  -12.5606   17.4435 O   0  0  0  0  0  0  0  0  0  0  0  0
    7.3088  -14.0151   19.0540 C   0  0  0  0  0  0  0  0  0  0  0  0
    7.5157  -14.3210   20.4879 C   0  0  0  0  0  0  0  0  0  0  0  0
    8.3080  -15.5688   20.7286 C   0  0  2  0  0  0  0  0  0  0  0  0
    7.8368  -16.5257   19.6549 N   0  0  0  0  0  0  0  0  0  0  0  0
    7.9281  -16.1092   22.0679 C   0  0  0  0  0  0  0  0  0  0  0  0
    7.2787  -15.4323   22.8898 O   0  0  0  0  0  0  0  0  0  0  0  0
    8.5364  -20.1606   23.2828 O   0  0  0  0  0  0  0  0  0  0  0  0
    7.5410  -19.2883   23.7350 C   0  0  0  0  0  0  0  0  0  0  0  0
    8.0223  -17.8761   23.7989 C   0  0  2  0  0  0  0  0  0  0  0  0
    8.3078  -17.4415   22.4333 N   0  0  0  0  0  0  0  0  0  0  0  0
    9.2063  -17.6260   24.6657 C   0  0  0  0  0  0  0  0  0  0  0  0
   10.3463  -17.5208   24.1965 O   0  0  0  0  0  0  0  0  0  0  0  0
    9.0243  -13.7625   29.1887 N   0  0  0  0  0  0  0  0  0  0  0  0
   10.1277  -14.4704   29.7028 C   0  0  0  0  0  0  0  0  0  0  0  0
   10.7297  -14.0139   30.7100 O   0  0  0  0  0  0  0  0  0  0  0  0
   10.5207  -15.7343   29.0074 C   0  0  0  0  0  0  0  0  0  0  0  0
    9.6002  -16.0462   27.8793 C   0  0  0  0  0  0  0  0  0  0  0  0
    9.9261  -17.3144   27.1248 C   0  0  2  0  0  0  0  0  0  0  0  0
    9.0189  -17.5153   26.0710 N   0  0  0  0  0  0  0  0  0  0  0  0
   10.1470  -18.4118   28.1055 C   0  0  0  0  0  0  0  0  0  0  0  0
    9.1399  -19.2156   28.2673 O   0  0  0  0  0  0  0  0  0  0  0  0
   11.2767  -18.6783   28.8443 O   0  0  0  0  0  0  0  0  0  0  0  0
  1  2  1  0
  2  3  2  0
  4  5  1  0
  4  2  1  0
  6  8  1  0
  6  5  1  0
  6  7  1  6
  8  9  2  0
 11 10  1  0
 12 11  1  6
 13 12  1  0
 13  8  1  0
 14 15  2  0
 14 12  1  0
 16 17  1  0
 17 19  1  0
 18 17  2  0
 19 20  1  0
 21 20  1  1
 21 22  1  0
 21 23  1  0
 22 14  1  0
 23 25  1  0
 24 23  2  0
M  END
$$$$
