QSQ.pdb
     RDKit          3D

 25 24  0  0  1  0  0  0  0  0999 V2000
    8.8337  -17.5681   18.0374 N   0  0  0  0  0  0  0  0  0  0  0  0
    8.1371  -17.8601   16.8366 C   0  0  0  0  0  0  0  0  0  0  0  0
    7.4841  -18.8892   16.6314 O   0  0  0  0  0  0  0  0  0  0  0  0
    8.1955  -16.8522   15.7381 C   0  0  0  0  0  0  0  0  0  0  0  0
    8.8734  -15.6219   16.2067 C   0  0  0  0  0  0  0  0  0  0  0  0
    7.9747  -14.6888   16.9579 C   0  0  2  0  0  0  0  0  0  0  0  0
    7.9389  -13.4367   16.1086 N   0  0  0  0  0  0  0  0  0  0  0  0
    8.6208  -14.3749   18.2671 C   0  0  0  0  0  0  0  0  0  0  0  0
    9.5645  -13.5644   18.3568 O   0  0  0  0  0  0  0  0  0  0  0  0
    6.6615  -14.6348   21.8285 O   0  0  0  0  0  0  0  0  0  0  0  0
    7.7891  -13.8649   21.5253 C   0  0  0  0  0  0  0  0  0  0  0  0
    8.7894  -14.6306   20.7234 C   0  0  2  0  0  0  0  0  0  0  0  0
    8.1533  -15.0093   19.4636 N   0  0  0  0  0  0  0  0  0  0  0  0
    9.3698  -15.8352   21.3775 C   0  0  0  0  0  0  0  0  0  0  0  0
    8.8875  -16.9624   21.2113 O   0  0  0  0  0  0  0  0  0  0  0  0
   15.4266  -15.1169   23.3998 N   0  0  0  0  0  0  0  0  0  0  0  0
   14.6937  -15.6768   22.3358 C   0  0  0  0  0  0  0  0  0  0  0  0
   14.9502  -15.3102   21.1589 O   0  0  0  0  0  0  0  0  0  0  0  0
   13.6410  -16.6820   22.6775 C   0  0  0  0  0  0  0  0  0  0  0  0
   12.5287  -16.0663   23.4528 C   0  0  0  0  0  0  0  0  0  0  0  0
   11.1496  -16.5708   23.0961 C   0  0  2  0  0  0  0  0  0  0  0  0
   10.5030  -15.6804   22.2225 N   0  0  0  0  0  0  0  0  0  0  0  0
   10.4550  -16.9892   24.3440 C   0  0  0  0  0  0  0  0  0  0  0  0
    9.4989  -16.2005   24.7319 O   0  0  0  0  0  0  0  0  0  0  0  0
   10.6948  -18.0995   25.1203 O   0  0  0  0  0  0  0  0  0  0  0  0
  1  2  1  0
  2  3  2  0
  4  5  1  0
  4  2  1  0
  6  8  1  0
  6  5  1  0
  6  7  1  6
  8  9  2  0
 11 10  1  0
 12 11  1  1
 13 12  1  0
 13  8  1  0
 14 15  2  0
 14 12  1  0
 16 17  1  0
 17 19  1  0
 18 17  2  0
 19 20  1  0
 21 20  1  1
 21 22  1  0
 21 23  1  0
 22 14  1  0
 23 25  1  0
 24 23  2  0
M  END
$$$$
