QSQ.pdb
     RDKit          3D

 25 24  0  0  1  0  0  0  0  0999 V2000
   13.0970  -12.7963   11.2685 N   0  0  0  0  0  0  0  0  0  0  0  0
   12.0795  -13.7776   11.1486 C   0  0  0  0  0  0  0  0  0  0  0  0
   11.2633  -13.8391   10.2226 O   0  0  0  0  0  0  0  0  0  0  0  0
   11.9853  -14.8134   12.2183 C   0  0  0  0  0  0  0  0  0  0  0  0
   13.1497  -14.7180   13.1282 C   0  0  0  0  0  0  0  0  0  0  0  0
   13.4026  -15.9672   13.9145 C   0  0  2  0  0  0  0  0  0  0  0  0
   12.4901  -16.9980   13.2856 N   0  0  0  0  0  0  0  0  0  0  0  0
   12.9709  -15.7247   15.3233 C   0  0  0  0  0  0  0  0  0  0  0  0
   13.5880  -14.9437   16.0748 O   0  0  0  0  0  0  0  0  0  0  0  0
    9.8158  -17.8989   17.3424 O   0  0  0  0  0  0  0  0  0  0  0  0
   10.0313  -16.5191   17.4201 C   0  0  0  0  0  0  0  0  0  0  0  0
   11.4717  -16.1676   17.2426 C   0  0  2  0  0  0  0  0  0  0  0  0
   11.8156  -16.3957   15.8408 N   0  0  0  0  0  0  0  0  0  0  0  0
   12.4346  -16.8860   18.1215 C   0  0  0  0  0  0  0  0  0  0  0  0
   13.1492  -17.8009   17.6936 O   0  0  0  0  0  0  0  0  0  0  0  0
   17.9334  -16.6560   21.7946 N   0  0  0  0  0  0  0  0  0  0  0  0
   16.7098  -15.9698   21.9155 C   0  0  0  0  0  0  0  0  0  0  0  0
   16.7246  -14.7250   22.1037 O   0  0  0  0  0  0  0  0  0  0  0  0
   15.4544  -16.7756   21.8147 C   0  0  0  0  0  0  0  0  0  0  0  0
   14.5572  -16.2577   20.7451 C   0  0  0  0  0  0  0  0  0  0  0  0
   13.2764  -17.0375   20.5569 C   0  0  2  0  0  0  0  0  0  0  0  0
   12.5255  -16.5140   19.4910 N   0  0  0  0  0  0  0  0  0  0  0  0
   12.6228  -17.2124   21.8824 C   0  0  0  0  0  0  0  0  0  0  0  0
   11.6760  -16.3631   22.1448 O   0  0  0  0  0  0  0  0  0  0  0  0
   12.8914  -18.1572   22.8458 O   0  0  0  0  0  0  0  0  0  0  0  0
  1  2  1  0
  2  3  2  0
  4  5  1  0
  4  2  1  0
  6  8  1  0
  6  5  1  0
  6  7  1  6
  8  9  2  0
 11 10  1  0
 12 11  1  6
 13 12  1  0
 13  8  1  0
 14 15  2  0
 14 12  1  0
 16 17  1  0
 17 19  1  0
 18 17  2  0
 19 20  1  0
 21 20  1  1
 21 22  1  0
 21 23  1  0
 22 14  1  0
 23 25  1  0
 24 23  2  0
M  END
$$$$
