QSQ.pdb
     RDKit          3D

 25 24  0  0  1  0  0  0  0  0999 V2000
   13.5485  -21.1324   14.8355 N   0  0  0  0  0  0  0  0  0  0  0  0
   12.3636  -20.8088   15.5452 C   0  0  0  0  0  0  0  0  0  0  0  0
   11.8134  -21.5433   16.3731 O   0  0  0  0  0  0  0  0  0  0  0  0
   11.7324  -19.4845   15.2739 C   0  0  0  0  0  0  0  0  0  0  0  0
   12.0174  -18.5442   16.3817 C   0  0  0  0  0  0  0  0  0  0  0  0
   10.8328  -18.2663   17.2547 C   0  0  2  0  0  0  0  0  0  0  0  0
    9.8641  -17.5341   16.3513 N   0  0  0  0  0  0  0  0  0  0  0  0
   11.2682  -17.3508   18.3511 C   0  0  0  0  0  0  0  0  0  0  0  0
   12.1113  -16.4516   18.1608 O   0  0  0  0  0  0  0  0  0  0  0  0
    9.1480  -16.8781   21.9646 O   0  0  0  0  0  0  0  0  0  0  0  0
    9.9404  -15.9362   21.3003 C   0  0  0  0  0  0  0  0  0  0  0  0
   11.1552  -16.5567   20.6929 C   0  0  2  0  0  0  0  0  0  0  0  0
   10.7090  -17.4919   19.6626 N   0  0  0  0  0  0  0  0  0  0  0  0
   12.0789  -17.2468   21.6345 C   0  0  0  0  0  0  0  0  0  0  0  0
   12.0338  -18.4706   21.8112 O   0  0  0  0  0  0  0  0  0  0  0  0
   18.6923  -15.8317   24.6606 N   0  0  0  0  0  0  0  0  0  0  0  0
   17.5571  -15.5567   23.8741 C   0  0  0  0  0  0  0  0  0  0  0  0
   17.6219  -14.6461   23.0069 O   0  0  0  0  0  0  0  0  0  0  0  0
   16.3299  -16.3728   24.1256 C   0  0  0  0  0  0  0  0  0  0  0  0
   15.2188  -15.9838   23.2137 C   0  0  0  0  0  0  0  0  0  0  0  0
   13.9685  -16.8231   23.3410 C   0  0  2  0  0  0  0  0  0  0  0  0
   13.0305  -16.4739   22.3550 N   0  0  0  0  0  0  0  0  0  0  0  0
   13.5442  -16.8372   24.7674 C   0  0  0  0  0  0  0  0  0  0  0  0
   14.3299  -17.4913   25.5682 O   0  0  0  0  0  0  0  0  0  0  0  0
   12.4402  -16.2421   25.3329 O   0  0  0  0  0  0  0  0  0  0  0  0
  1  2  1  0
  2  3  2  0
  4  5  1  0
  4  2  1  0
  6  8  1  0
  6  5  1  0
  6  7  1  6
  8  9  2  0
 11 10  1  0
 12 11  1  1
 13 12  1  0
 13  8  1  0
 14 15  2  0
 14 12  1  0
 16 17  1  0
 17 19  1  0
 18 17  2  0
 19 20  1  0
 21 20  1  1
 21 22  1  0
 21 23  1  0
 22 14  1  0
 23 25  1  0
 24 23  2  0
M  END
$$$$
