RTG.pdb
     RDKit          3D

 23 22  0  0  1  0  0  0  0  0999 V2000
    7.3485  -12.2860   18.2212 N   0  0  0  0  0  0  0  0  0  0  0  0
    7.9959  -13.5340   17.9806 C   0  0  0  0  0  0  0  0  0  0  0  0
    8.0096  -14.0729   16.7943 N   0  0  0  0  0  0  0  0  0  0  0  0
    8.6570  -14.2575   19.0047 N   0  0  0  0  0  0  0  0  0  0  0  0
    8.6155  -13.8851   20.4057 C   0  0  0  0  0  0  0  0  0  0  0  0
    7.2586  -14.1496   20.9902 C   0  0  0  0  0  0  0  0  0  0  0  0
    7.0696  -15.4860   21.6024 C   0  0  0  0  0  0  0  0  0  0  0  0
    8.2715  -16.0726   22.2850 C   0  0  2  0  0  0  0  0  0  0  0  0
    8.7141  -17.3281   21.7450 N   0  0  0  0  0  0  0  0  0  0  0  0
    8.0727  -16.2310   23.7430 C   0  0  0  0  0  0  0  0  0  0  0  0
    7.7819  -15.2324   24.4318 O   0  0  0  0  0  0  0  0  0  0  0  0
    8.5872  -14.9304   16.6610 C   0  0  0  0  0  0  0  0  0  0  0  0
    5.8041  -18.2515   25.5639 C   0  0  2  0  0  0  0  0  0  0  0  0
    7.1380  -18.7209   26.1509 O   0  0  0  0  0  0  0  0  0  0  0  0
    7.5372  -19.9200   25.6089 C   0  0  2  0  0  0  0  0  0  0  0  0
    8.1356  -17.6217   25.8541 N   0  0  0  0  0  0  0  0  0  0  0  0
    8.2003  -17.4892   24.4032 C   0  0  0  0  0  0  0  0  0  0  0  0
    9.4728  -17.9025   26.4305 O   0  0  0  0  0  0  0  0  0  0  0  0
    9.5539  -17.9294   27.6855 N   0  0  0  0  0  0  0  0  0  0  0  0
   10.6327  -18.1359   25.6727 C   0  0  0  0  0  0  0  0  0  0  0  0
   11.9244  -18.3918   26.3199 C   0  0  0  0  0  0  0  0  0  0  0  0
   12.9536  -18.6437   25.2973 O   0  0  0  0  0  0  0  0  0  0  0  0
   12.6288  -18.5756   24.0847 O   0  0  0  0  0  0  0  0  0  0  0  0
  2  1  1  0
  2  3  2  0
  4  2  1  0
  5  4  1  0
  6  5  1  0
  7  8  1  0
  7  6  1  0
  8 10  1  0
  8  9  1  6
 10 11  2  0
 10 16  1  0
 13 12  1  1
 14 13  1  0
 15 17  1  0
 15 13  1  0
 15 16  1  1
 17 18  2  0
 19 20  1  0
 19 17  1  0
 20 21  1  0
 21 22  2  0
 21 23  1  0
M  END
$$$$
