RTG.pdb
     RDKit          3D

 23 22  0  0  1  0  0  0  0  0999 V2000
   10.0092  -12.9238   19.4506 N   0  0  0  0  0  0  0  0  0  0  0  0
    8.8941  -13.0120   18.5656 C   0  0  0  0  0  0  0  0  0  0  0  0
    9.0575  -13.1845   17.2844 N   0  0  0  0  0  0  0  0  0  0  0  0
    7.5543  -12.9187   19.0189 N   0  0  0  0  0  0  0  0  0  0  0  0
    7.1394  -13.2442   20.3699 C   0  0  0  0  0  0  0  0  0  0  0  0
    7.0872  -14.7307   20.5708 C   0  0  0  0  0  0  0  0  0  0  0  0
    7.9564  -15.2673   21.6445 C   0  0  0  0  0  0  0  0  0  0  0  0
    7.8602  -16.7453   21.8914 C   0  0  2  0  0  0  0  0  0  0  0  0
    6.8810  -17.4243   21.0890 N   0  0  0  0  0  0  0  0  0  0  0  0
    7.6075  -17.0657   23.3141 C   0  0  0  0  0  0  0  0  0  0  0  0
    6.4315  -17.1567   23.7201 O   0  0  0  0  0  0  0  0  0  0  0  0
    8.2059  -13.1696   16.6834 C   0  0  0  0  0  0  0  0  0  0  0  0
    6.4648  -18.7677   24.5052 C   0  0  2  0  0  0  0  0  0  0  0  0
    7.6521  -19.1050   25.4112 O   0  0  0  0  0  0  0  0  0  0  0  0
    8.4415  -20.0909   24.8674 C   0  0  2  0  0  0  0  0  0  0  0  0
    8.4237  -17.8146   25.5873 N   0  0  0  0  0  0  0  0  0  0  0  0
    8.6610  -17.2776   24.2523 C   0  0  0  0  0  0  0  0  0  0  0  0
    9.6959  -18.0137   26.3228 O   0  0  0  0  0  0  0  0  0  0  0  0
   10.7577  -17.7728   25.6927 N   0  0  0  0  0  0  0  0  0  0  0  0
    9.7845  -18.4473   27.6564 C   0  0  0  0  0  0  0  0  0  0  0  0
   11.0759  -18.5134   28.3496 C   0  0  0  0  0  0  0  0  0  0  0  0
   10.8854  -19.0448   29.7097 O   0  0  0  0  0  0  0  0  0  0  0  0
    9.7269  -19.3706   30.0734 O   0  0  0  0  0  0  0  0  0  0  0  0
  2  1  1  0
  2  3  2  0
  4  2  1  0
  5  4  1  0
  6  5  1  0
  7  8  1  0
  7  6  1  0
  8 10  1  0
  8  9  1  6
 10 11  2  0
 10 16  1  0
 13 12  1  1
 14 13  1  0
 15 17  1  0
 15 13  1  0
 15 16  1  1
 17 18  2  0
 19 20  1  0
 19 17  1  0
 20 21  1  0
 21 22  2  0
 21 23  1  0
M  END
$$$$
