RTG.pdb
     RDKit          3D

 23 22  0  0  1  0  0  0  0  0999 V2000
    8.3670  -12.4805   18.2631 N   0  0  0  0  0  0  0  0  0  0  0  0
    8.0588  -12.9205   19.5845 C   0  0  0  0  0  0  0  0  0  0  0  0
    7.9740  -12.0797   20.5764 N   0  0  0  0  0  0  0  0  0  0  0  0
    7.8283  -14.2836   19.8977 N   0  0  0  0  0  0  0  0  0  0  0  0
    7.4453  -14.7505   21.2163 C   0  0  0  0  0  0  0  0  0  0  0  0
    7.2691  -16.2410   21.2264 C   0  0  0  0  0  0  0  0  0  0  0  0
    8.3593  -17.0235   20.5974 C   0  0  0  0  0  0  0  0  0  0  0  0
    8.1820  -18.5146   20.5959 C   0  0  2  0  0  0  0  0  0  0  0  0
    6.8334  -18.9575   20.3752 N   0  0  0  0  0  0  0  0  0  0  0  0
    8.6880  -19.1455   21.8354 C   0  0  0  0  0  0  0  0  0  0  0  0
    7.8899  -19.4048   22.7584 O   0  0  0  0  0  0  0  0  0  0  0  0
    7.7089  -12.4606   21.5098 C   0  0  0  0  0  0  0  0  0  0  0  0
   11.2784  -21.8371   21.4889 C   0  0  2  0  0  0  0  0  0  0  0  0
   11.7417  -21.0297   22.7044 O   0  0  0  0  0  0  0  0  0  0  0  0
   12.7912  -20.1980   22.3914 C   0  0  2  0  0  0  0  0  0  0  0  0
   10.5344  -20.2437   23.1694 N   0  0  0  0  0  0  0  0  0  0  0  0
   10.0634  -19.4740   22.0237 C   0  0  0  0  0  0  0  0  0  0  0  0
   10.8442  -19.3623   24.3210 O   0  0  0  0  0  0  0  0  0  0  0  0
   10.8921  -18.1264   24.0911 N   0  0  0  0  0  0  0  0  0  0  0  0
   11.0829  -19.8166   25.6290 C   0  0  0  0  0  0  0  0  0  0  0  0
   11.4006  -18.8797   26.7125 C   0  0  0  0  0  0  0  0  0  0  0  0
   11.6923  -19.6261   27.9479 O   0  0  0  0  0  0  0  0  0  0  0  0
   11.6178  -20.8809   27.9266 O   0  0  0  0  0  0  0  0  0  0  0  0
  2  1  1  0
  2  3  2  0
  4  2  1  0
  5  4  1  0
  6  5  1  0
  7  8  1  0
  7  6  1  0
  8 10  1  0
  8  9  1  1
 10 11  2  0
 10 16  1  0
 13 12  1  1
 14 13  1  0
 15 17  1  0
 15 13  1  0
 15 16  1  1
 17 18  2  0
 19 20  1  0
 19 17  1  0
 20 21  1  0
 21 22  2  0
 21 23  1  0
M  END
$$$$
