RTG.pdb
     RDKit          3D

 23 22  0  0  1  0  0  0  0  0999 V2000
    8.4873  -15.0334   12.9792 N   0  0  0  0  0  0  0  0  0  0  0  0
    7.9805  -16.2883   13.4296 C   0  0  0  0  0  0  0  0  0  0  0  0
    7.9421  -17.3258   12.6422 N   0  0  0  0  0  0  0  0  0  0  0  0
    7.4928  -16.4831   14.7462 N   0  0  0  0  0  0  0  0  0  0  0  0
    7.7329  -15.5572   15.8364 C   0  0  0  0  0  0  0  0  0  0  0  0
    9.1977  -15.4701   16.1523 C   0  0  0  0  0  0  0  0  0  0  0  0
    9.5629  -14.5749   17.2755 C   0  0  0  0  0  0  0  0  0  0  0  0
    8.4524  -14.2210   18.2222 C   0  0  2  0  0  0  0  0  0  0  0  0
    7.7537  -13.0080   17.8994 N   0  0  0  0  0  0  0  0  0  0  0  0
    8.9110  -14.1407   19.6271 C   0  0  0  0  0  0  0  0  0  0  0  0
    9.6962  -13.2312   19.9622 O   0  0  0  0  0  0  0  0  0  0  0  0
    7.6376  -18.2333   13.0550 C   0  0  0  0  0  0  0  0  0  0  0  0
    7.5152  -13.1129   22.3686 C   0  0  2  0  0  0  0  0  0  0  0  0
    7.8375  -14.5272   22.8584 O   0  0  0  0  0  0  0  0  0  0  0  0
    6.7466  -15.3588   22.7618 C   0  0  2  0  0  0  0  0  0  0  0  0
    8.9827  -15.0170   21.9981 N   0  0  0  0  0  0  0  0  0  0  0  0
    8.4901  -15.0678   20.6264 C   0  0  0  0  0  0  0  0  0  0  0  0
    9.4936  -16.3380   22.4372 O   0  0  0  0  0  0  0  0  0  0  0  0
    9.0671  -17.3450   21.8155 N   0  0  0  0  0  0  0  0  0  0  0  0
   10.4083  -16.5286   23.4866 C   0  0  0  0  0  0  0  0  0  0  0  0
   10.8439  -17.8733   23.8800 C   0  0  0  0  0  0  0  0  0  0  0  0
   11.9438  -17.7763   24.8543 O   0  0  0  0  0  0  0  0  0  0  0  0
   12.4025  -16.6399   25.1353 O   0  0  0  0  0  0  0  0  0  0  0  0
  2  1  1  0
  2  3  2  0
  4  2  1  0
  5  4  1  0
  6  5  1  0
  7  8  1  0
  7  6  1  0
  8 10  1  0
  8  9  1  6
 10 11  2  0
 10 16  1  0
 13 12  1  1
 14 13  1  0
 15 17  1  0
 15 13  1  0
 15 16  1  1
 17 18  2  0
 19 20  1  0
 19 17  1  0
 20 21  1  0
 21 22  2  0
 21 23  1  0
M  END
$$$$
