RTG.pdb
     RDKit          3D

 23 22  0  0  1  0  0  0  0  0999 V2000
    7.3373  -12.2959   17.6947 N   0  0  0  0  0  0  0  0  0  0  0  0
    7.5039  -13.3890   16.7937 C   0  0  0  0  0  0  0  0  0  0  0  0
    7.6446  -13.1962   15.5127 N   0  0  0  0  0  0  0  0  0  0  0  0
    7.5264  -14.7375   17.2300 N   0  0  0  0  0  0  0  0  0  0  0  0
    7.4929  -15.1302   18.6258 C   0  0  0  0  0  0  0  0  0  0  0  0
    7.5276  -13.9266   19.5218 C   0  0  0  0  0  0  0  0  0  0  0  0
    7.3927  -14.1985   20.9724 C   0  0  0  0  0  0  0  0  0  0  0  0
    8.4444  -15.0841   21.5760 C   0  0  2  0  0  0  0  0  0  0  0  0
    8.5429  -16.3882   20.9817 N   0  0  0  0  0  0  0  0  0  0  0  0
    8.2780  -15.2441   23.0380 C   0  0  0  0  0  0  0  0  0  0  0  0
    8.0663  -14.2367   23.7425 O   0  0  0  0  0  0  0  0  0  0  0  0
    7.8067  -14.0340   14.9140 C   0  0  0  0  0  0  0  0  0  0  0  0
    7.3769  -18.0423   26.9260 C   0  0  2  0  0  0  0  0  0  0  0  0
    7.4363  -17.8966   25.4031 O   0  0  0  0  0  0  0  0  0  0  0  0
    6.1802  -17.7866   24.8543 C   0  0  1  0  0  0  0  0  0  0  0  0
    8.2667  -16.6601   25.1331 N   0  0  0  0  0  0  0  0  0  0  0  0
    8.3498  -16.5138   23.6845 C   0  0  0  0  0  0  0  0  0  0  0  0
    9.6148  -16.7409   25.7455 O   0  0  0  0  0  0  0  0  0  0  0  0
    9.6654  -16.7602   27.0023 N   0  0  0  0  0  0  0  0  0  0  0  0
   10.8165  -16.7963   25.0194 C   0  0  0  0  0  0  0  0  0  0  0  0
   12.1140  -16.8611   25.7014 C   0  0  0  0  0  0  0  0  0  0  0  0
   13.1967  -16.9457   24.7069 O   0  0  0  0  0  0  0  0  0  0  0  0
   12.9019  -16.8761   23.4867 O   0  0  0  0  0  0  0  0  0  0  0  0
  2  1  1  0
  2  3  2  0
  4  2  1  0
  5  4  1  0
  6  5  1  0
  7  8  1  0
  7  6  1  0
  8 10  1  0
  8  9  1  6
 10 11  2  0
 10 16  1  0
 13 12  1  6
 14 13  1  0
 15 17  1  0
 15 13  1  0
 15 16  1  6
 17 18  2  0
 19 20  1  0
 19 17  1  0
 20 21  1  0
 21 22  2  0
 21 23  1  0
M  END
$$$$
