RTG.pdb
     RDKit          3D

 23 22  0  0  1  0  0  0  0  0999 V2000
    7.4131  -13.2732   17.0729 N   0  0  0  0  0  0  0  0  0  0  0  0
    8.0932  -13.0950   18.3139 C   0  0  0  0  0  0  0  0  0  0  0  0
    9.3474  -12.7440   18.3553 N   0  0  0  0  0  0  0  0  0  0  0  0
    7.4551  -13.2863   19.5651 N   0  0  0  0  0  0  0  0  0  0  0  0
    7.4862  -14.5368   20.2991 C   0  0  0  0  0  0  0  0  0  0  0  0
    8.7202  -15.3233   19.9653 C   0  0  0  0  0  0  0  0  0  0  0  0
    8.8915  -16.5978   20.7020 C   0  0  0  0  0  0  0  0  0  0  0  0
   10.1675  -17.3438   20.4375 C   0  0  2  0  0  0  0  0  0  0  0  0
   10.3853  -17.6891   19.0602 N   0  0  0  0  0  0  0  0  0  0  0  0
   10.2844  -18.5720   21.2551 C   0  0  0  0  0  0  0  0  0  0  0  0
   10.0437  -19.6788   20.7324 O   0  0  0  0  0  0  0  0  0  0  0  0
    9.8018  -12.6881   19.2918 C   0  0  0  0  0  0  0  0  0  0  0  0
   13.1336  -19.7126   22.5480 C   0  0  2  0  0  0  0  0  0  0  0  0
   11.8890  -20.5950   22.6767 O   0  0  0  0  0  0  0  0  0  0  0  0
   12.1618  -21.7625   23.3500 C   0  0  1  0  0  0  0  0  0  0  0  0
   10.8599  -19.7621   23.4108 N   0  0  0  0  0  0  0  0  0  0  0  0
   10.6643  -18.5461   22.6299 C   0  0  0  0  0  0  0  0  0  0  0  0
   11.2733  -19.4504   24.8004 O   0  0  0  0  0  0  0  0  0  0  0  0
   12.1405  -18.5506   24.9446 N   0  0  0  0  0  0  0  0  0  0  0  0
   10.7639  -20.0881   25.9440 C   0  0  0  0  0  0  0  0  0  0  0  0
   10.8996  -19.4845   27.2745 C   0  0  0  0  0  0  0  0  0  0  0  0
   12.0848  -20.0350   27.9534 O   0  0  0  0  0  0  0  0  0  0  0  0
   12.8129  -20.8492   27.3310 O   0  0  0  0  0  0  0  0  0  0  0  0
  2  1  1  0
  2  3  2  0
  4  2  1  0
  5  4  1  0
  6  5  1  0
  7  8  1  0
  7  6  1  0
  8 10  1  0
  8  9  1  6
 10 11  2  0
 10 16  1  0
 13 12  1  6
 14 13  1  0
 15 17  1  0
 15 13  1  0
 15 16  1  6
 17 18  2  0
 19 20  1  0
 19 17  1  0
 20 21  1  0
 21 22  2  0
 21 23  1  0
M  END
$$$$
