RTG.pdb
     RDKit          3D

 23 22  0  0  1  0  0  0  0  0999 V2000
    7.0023  -13.8340   16.7039 N   0  0  0  0  0  0  0  0  0  0  0  0
    8.3998  -13.6276   16.9010 C   0  0  0  0  0  0  0  0  0  0  0  0
    9.2865  -14.3420   16.2675 N   0  0  0  0  0  0  0  0  0  0  0  0
    8.9057  -12.6441   17.7876 N   0  0  0  0  0  0  0  0  0  0  0  0
    8.5948  -12.6040   19.2037 C   0  0  0  0  0  0  0  0  0  0  0  0
    8.1979  -13.9624   19.7037 C   0  0  0  0  0  0  0  0  0  0  0  0
    7.9810  -14.0734   21.1655 C   0  0  0  0  0  0  0  0  0  0  0  0
    7.5752  -15.4286   21.6690 C   0  0  2  0  0  0  0  0  0  0  0  0
    6.3164  -15.9029   21.1649 N   0  0  0  0  0  0  0  0  0  0  0  0
    7.5465  -15.4974   23.1472 C   0  0  0  0  0  0  0  0  0  0  0  0
    6.5376  -15.0910   23.7580 O   0  0  0  0  0  0  0  0  0  0  0  0
   10.2915  -14.1174   16.4291 C   0  0  0  0  0  0  0  0  0  0  0  0
    6.2089  -16.7377   24.8093 C   0  0  2  0  0  0  0  0  0  0  0  0
    7.4371  -17.2879   25.5394 O   0  0  0  0  0  0  0  0  0  0  0  0
    7.8102  -18.5175   25.0495 C   0  0  2  0  0  0  0  0  0  0  0  0
    8.5329  -16.2614   25.3468 N   0  0  0  0  0  0  0  0  0  0  0  0
    8.6337  -16.0137   23.9132 C   0  0  0  0  0  0  0  0  0  0  0  0
    9.8300  -16.7082   25.9097 O   0  0  0  0  0  0  0  0  0  0  0  0
   10.6556  -17.2072   25.1023 N   0  0  0  0  0  0  0  0  0  0  0  0
   10.1852  -16.6094   27.2655 C   0  0  0  0  0  0  0  0  0  0  0  0
   11.5198  -17.0020   27.7318 C   0  0  0  0  0  0  0  0  0  0  0  0
   11.4242  -18.2269   28.5438 O   0  0  0  0  0  0  0  0  0  0  0  0
   10.3083  -18.7964   28.6475 O   0  0  0  0  0  0  0  0  0  0  0  0
  2  1  1  0
  2  3  2  0
  4  2  1  0
  5  4  1  0
  6  5  1  0
  7  8  1  0
  7  6  1  0
  8 10  1  0
  8  9  1  6
 10 11  2  0
 10 16  1  0
 13 12  1  1
 14 13  1  0
 15 17  1  0
 15 13  1  0
 15 16  1  1
 17 18  2  0
 19 20  1  0
 19 17  1  0
 20 21  1  0
 21 22  2  0
 21 23  1  0
M  END
$$$$
