RTG.pdb
     RDKit          3D

 23 22  0  0  1  0  0  0  0  0999 V2000
    8.3665  -20.0059   23.6030 N   0  0  0  0  0  0  0  0  0  0  0  0
    6.9894  -20.3760   23.5714 C   0  0  0  0  0  0  0  0  0  0  0  0
    6.3010  -20.5205   24.6682 N   0  0  0  0  0  0  0  0  0  0  0  0
    6.2917  -20.6072   22.3593 N   0  0  0  0  0  0  0  0  0  0  0  0
    6.9126  -20.5403   21.0504 C   0  0  0  0  0  0  0  0  0  0  0  0
    6.9121  -19.1330   20.5285 C   0  0  0  0  0  0  0  0  0  0  0  0
    7.5287  -18.9396   19.1949 C   0  0  0  0  0  0  0  0  0  0  0  0
    7.6109  -17.5216   18.7078 C   0  0  2  0  0  0  0  0  0  0  0  0
    8.3005  -17.3561   17.4585 N   0  0  0  0  0  0  0  0  0  0  0  0
    8.2210  -16.6151   19.7061 C   0  0  0  0  0  0  0  0  0  0  0  0
    9.4625  -16.5823   19.8230 O   0  0  0  0  0  0  0  0  0  0  0  0
    5.2901  -20.7577   24.5754 C   0  0  0  0  0  0  0  0  0  0  0  0
    8.1005  -13.1184   19.8951 C   0  0  2  0  0  0  0  0  0  0  0  0
    7.5493  -13.4948   21.2730 O   0  0  0  0  0  0  0  0  0  0  0  0
    6.1759  -13.4334   21.3045 C   0  0  2  0  0  0  0  0  0  0  0  0
    8.0456  -14.8972   21.5534 N   0  0  0  0  0  0  0  0  0  0  0  0
    7.4434  -15.7677   20.5502 C   0  0  0  0  0  0  0  0  0  0  0  0
    7.7161  -15.3483   22.9270 O   0  0  0  0  0  0  0  0  0  0  0  0
    6.5133  -15.6378   23.1546 N   0  0  0  0  0  0  0  0  0  0  0  0
    8.6498  -15.4693   23.9701 C   0  0  0  0  0  0  0  0  0  0  0  0
    8.2550  -15.9802   25.2876 C   0  0  0  0  0  0  0  0  0  0  0  0
    9.4372  -16.0750   26.1606 O   0  0  0  0  0  0  0  0  0  0  0  0
   10.5606  -15.7620   25.6910 O   0  0  0  0  0  0  0  0  0  0  0  0
  2  1  1  0
  2  3  2  0
  4  2  1  0
  5  4  1  0
  6  5  1  0
  7  8  1  0
  7  6  1  0
  8 10  1  0
  8  9  1  6
 10 11  2  0
 10 16  1  0
 13 12  1  1
 14 13  1  0
 15 17  1  0
 15 13  1  0
 15 16  1  1
 17 18  2  0
 19 20  1  0
 19 17  1  0
 20 21  1  0
 21 22  2  0
 21 23  1  0
M  END
$$$$
