RTG.pdb
     RDKit          3D

 23 22  0  0  1  0  0  0  0  0999 V2000
   10.4876  -13.0501   19.2614 N   0  0  0  0  0  0  0  0  0  0  0  0
    9.0867  -12.8321   19.1049 C   0  0  0  0  0  0  0  0  0  0  0  0
    8.5669  -12.5753   17.9380 N   0  0  0  0  0  0  0  0  0  0  0  0
    8.1831  -12.8805   20.1959 N   0  0  0  0  0  0  0  0  0  0  0  0
    8.2306  -13.8930   21.2333 C   0  0  0  0  0  0  0  0  0  0  0  0
    7.3851  -15.0771   20.8651 C   0  0  0  0  0  0  0  0  0  0  0  0
    6.5212  -15.6129   21.9436 C   0  0  0  0  0  0  0  0  0  0  0  0
    6.7381  -17.0540   22.3051 C   0  0  2  0  0  0  0  0  0  0  0  0
    5.8111  -17.9697   21.7001 N   0  0  0  0  0  0  0  0  0  0  0  0
    6.7331  -17.2770   23.7683 C   0  0  0  0  0  0  0  0  0  0  0  0
    5.6442  -17.3253   24.3750 O   0  0  0  0  0  0  0  0  0  0  0  0
    7.5599  -12.3076   17.9072 C   0  0  0  0  0  0  0  0  0  0  0  0
    6.1014  -19.2297   25.1873 C   0  0  2  0  0  0  0  0  0  0  0  0
    7.3822  -19.2136   26.0261 O   0  0  0  0  0  0  0  0  0  0  0  0
    8.2991  -20.1314   25.5703 C   0  0  2  0  0  0  0  0  0  0  0  0
    7.9228  -17.8024   25.9369 N   0  0  0  0  0  0  0  0  0  0  0  0
    7.9319  -17.4410   24.5241 C   0  0  0  0  0  0  0  0  0  0  0  0
    9.2741  -17.6771   26.5347 O   0  0  0  0  0  0  0  0  0  0  0  0
   10.1179  -17.0025   25.8900 N   0  0  0  0  0  0  0  0  0  0  0  0
    9.6611  -18.2559   27.7551 C   0  0  0  0  0  0  0  0  0  0  0  0
   10.9701  -17.9672   28.3516 C   0  0  0  0  0  0  0  0  0  0  0  0
   11.0842  -18.6426   29.6552 O   0  0  0  0  0  0  0  0  0  0  0  0
   12.1325  -18.4793   30.3297 O   0  0  0  0  0  0  0  0  0  0  0  0
  2  1  1  0
  2  3  2  0
  4  2  1  0
  5  4  1  0
  6  5  1  0
  7  8  1  0
  7  6  1  0
  8 10  1  0
  8  9  1  6
 10 11  2  0
 10 16  1  0
 13 12  1  1
 14 13  1  0
 15 17  1  0
 15 13  1  0
 15 16  1  1
 17 18  2  0
 19 20  1  0
 19 17  1  0
 20 21  1  0
 21 22  2  0
 21 23  1  0
M  END
$$$$
