CWI.pdb
     RDKit          3D

 29 30  0  0  1  0  0  0  0  0999 V2000
   29.7039  -20.0017  -13.4700 N   0  0  0  0  0  0  0  0  0  0  0  0
   28.6525  -19.2598  -12.8401 C   0  0  1  0  0  0  0  0  0  0  0  0
   27.8732  -18.3845  -13.7971 C   0  0  0  0  0  0  0  0  0  0  0  0
   28.7486  -16.8346  -14.0558 S   0  0  0  0  0  0  0  0  0  0  0  0
   27.7524  -20.2127  -12.1395 C   0  0  0  0  0  0  0  0  0  0  0  0
   27.7853  -21.4459  -12.4261 O   0  0  0  0  0  0  0  0  0  0  0  0
   26.8290  -19.8210  -11.1393 N   0  0  0  0  0  0  0  0  0  0  0  0
   25.8500  -20.7267  -10.6066 C   0  0  1  0  0  0  0  0  0  0  0  0
   25.3360  -20.2448   -9.2737 C   0  0  0  0  0  0  0  0  0  0  0  0
   26.3141  -19.7167   -8.3517 C   0  0  0  0  0  0  0  0  0  0  0  0
   26.7746  -18.4108   -8.3524 C   0  0  0  0  0  0  0  0  0  0  0  0
   27.6535  -18.2326   -7.3576 N   0  0  0  0  0  0  0  0  0  0  0  0
   27.7739  -19.4134   -6.7033 C   0  0  0  0  0  0  0  0  0  0  0  0
   28.5301  -19.8074   -5.6221 C   0  0  0  0  0  0  0  0  0  0  0  0
   28.5080  -21.0917   -5.1086 C   0  0  0  0  0  0  0  0  0  0  0  0
   27.6916  -22.0223   -5.7060 C   0  0  0  0  0  0  0  0  0  0  0  0
   26.9254  -21.6259   -6.8001 C   0  0  0  0  0  0  0  0  0  0  0  0
   26.9468  -20.3415   -7.3131 C   0  0  0  0  0  0  0  0  0  0  0  0
   24.6751  -20.7492  -11.5141 C   0  0  0  0  0  0  0  0  0  0  0  0
   24.3985  -19.7016  -12.1448 O   0  0  0  0  0  0  0  0  0  0  0  0
   22.0506  -22.6364  -15.8749 C   0  0  0  0  0  0  0  0  0  0  0  0
   22.0385  -23.4565  -14.6388 C   0  0  0  0  0  0  0  0  0  0  0  0
   23.0520  -23.1531  -13.6047 C   0  0  2  0  0  0  0  0  0  0  0  0
   23.6052  -24.3753  -12.8982 C   0  0  0  0  0  0  0  0  0  0  0  0
   22.8069  -21.9779  -12.7291 C   0  0  2  0  0  0  0  0  0  0  0  0
   23.8534  -21.8676  -11.7121 N   0  0  0  0  0  0  0  0  0  0  0  0
   21.5185  -21.8871  -12.0576 C   0  0  0  0  0  0  0  0  0  0  0  0
   20.2990  -21.5640  -12.6076 O   0  0  0  0  0  0  0  0  0  0  0  0
   21.4802  -22.1286  -10.8024 O   0  0  0  0  0  0  0  0  0  0  0  0
  2  1  1  6
  2  3  1  0
  3  4  1  0
  5  6  2  0
  5  2  1  0
  7  5  1  0
  8  7  1  0
  9 10  1  0
  8  9  1  1
 10 11  2  0
 10 18  1  0
 11 12  1  0
 12 13  1  0
 13 14  2  0
 14 15  1  0
 16 15  2  0
 17 16  1  0
 18 17  2  0
 18 13  1  0
 19  8  1  0
 19 20  2  0
 22 21  1  0
 23 22  1  0
 23 24  1  1
 25 26  1  1
 25 23  1  0
 26 19  1  0
 27 25  1  0
 28 27  1  0
 29 27  2  0
M  END
$$$$
