CWI.pdb
     RDKit          3D

 29 30  0  0  1  0  0  0  0  0999 V2000
   29.2950  -22.0197  -14.0516 N   0  0  0  0  0  0  0  0  0  0  0  0
   28.4011  -20.9389  -13.7598 C   0  0  1  0  0  0  0  0  0  0  0  0
   27.6452  -20.4362  -14.9702 C   0  0  0  0  0  0  0  0  0  0  0  0
   28.7861  -19.6517  -16.1185 S   0  0  0  0  0  0  0  0  0  0  0  0
   27.4635  -21.3730  -12.6913 C   0  0  0  0  0  0  0  0  0  0  0  0
   26.9503  -22.5303  -12.7277 O   0  0  0  0  0  0  0  0  0  0  0  0
   27.0927  -20.5516  -11.5985 N   0  0  0  0  0  0  0  0  0  0  0  0
   26.0277  -20.9067  -10.7028 C   0  0  1  0  0  0  0  0  0  0  0  0
   26.2055  -20.2429   -9.3609 C   0  0  0  0  0  0  0  0  0  0  0  0
   27.3922  -20.5910   -8.6151 C   0  0  0  0  0  0  0  0  0  0  0  0
   28.4766  -21.2785   -9.1338 C   0  0  0  0  0  0  0  0  0  0  0  0
   29.4232  -21.4185   -8.1965 N   0  0  0  0  0  0  0  0  0  0  0  0
   28.9675  -20.8278   -7.0651 C   0  0  0  0  0  0  0  0  0  0  0  0
   29.5099  -20.6772   -5.8084 C   0  0  0  0  0  0  0  0  0  0  0  0
   28.8573  -20.0327   -4.7729 C   0  0  0  0  0  0  0  0  0  0  0  0
   27.6052  -19.5167   -5.0077 C   0  0  0  0  0  0  0  0  0  0  0  0
   27.0543  -19.6678   -6.2785 C   0  0  0  0  0  0  0  0  0  0  0  0
   27.7071  -20.3114   -7.3144 C   0  0  0  0  0  0  0  0  0  0  0  0
   24.7490  -20.3869  -11.2500 C   0  0  0  0  0  0  0  0  0  0  0  0
   24.7129  -19.1920  -11.6274 O   0  0  0  0  0  0  0  0  0  0  0  0
   23.1418  -22.7182  -15.3630 C   0  0  0  0  0  0  0  0  0  0  0  0
   23.3057  -21.7653  -14.2378 C   0  0  0  0  0  0  0  0  0  0  0  0
   22.1763  -21.6186  -13.2936 C   0  0  2  0  0  0  0  0  0  0  0  0
   20.8206  -21.4904  -13.9603 C   0  0  0  0  0  0  0  0  0  0  0  0
   22.3810  -20.7419  -12.1115 C   0  0  2  0  0  0  0  0  0  0  0  0
   23.5774  -21.1468  -11.3724 N   0  0  0  0  0  0  0  0  0  0  0  0
   21.2869  -20.6179  -11.1592 C   0  0  0  0  0  0  0  0  0  0  0  0
   21.2456  -21.0593   -9.8562 O   0  0  0  0  0  0  0  0  0  0  0  0
   20.2179  -20.0347  -11.5494 O   0  0  0  0  0  0  0  0  0  0  0  0
  2  1  1  6
  2  3  1  0
  3  4  1  0
  5  6  2  0
  5  2  1  0
  7  5  1  0
  8  7  1  0
  9 10  1  0
  8  9  1  1
 10 11  2  0
 10 18  1  0
 11 12  1  0
 12 13  1  0
 13 14  2  0
 14 15  1  0
 16 15  2  0
 17 16  1  0
 18 17  2  0
 18 13  1  0
 19  8  1  0
 19 20  2  0
 22 21  1  0
 23 22  1  0
 23 24  1  6
 25 26  1  1
 25 23  1  0
 26 19  1  0
 27 25  1  0
 28 27  1  0
 29 27  2  0
M  END
$$$$
