CWI.pdb
     RDKit          3D

 29 30  0  0  1  0  0  0  0  0999 V2000
   29.6096  -19.7971  -18.4929 N   0  0  0  0  0  0  0  0  0  0  0  0
   28.8223  -20.8151  -17.8634 C   0  0  1  0  0  0  0  0  0  0  0  0
   29.6386  -21.7888  -17.0419 C   0  0  0  0  0  0  0  0  0  0  0  0
   30.2245  -23.1284  -18.0896 S   0  0  0  0  0  0  0  0  0  0  0  0
   27.7792  -20.1619  -17.0301 C   0  0  0  0  0  0  0  0  0  0  0  0
   28.0859  -19.1973  -16.2688 O   0  0  0  0  0  0  0  0  0  0  0  0
   26.4196  -20.5591  -17.0301 N   0  0  0  0  0  0  0  0  0  0  0  0
   25.4285  -19.8908  -16.2341 C   0  0  1  0  0  0  0  0  0  0  0  0
   24.2114  -19.5531  -17.0573 C   0  0  0  0  0  0  0  0  0  0  0  0
   23.1162  -18.9131  -16.3668 C   0  0  0  0  0  0  0  0  0  0  0  0
   23.2540  -17.8767  -15.4588 C   0  0  0  0  0  0  0  0  0  0  0  0
   22.0501  -17.4884  -15.0182 N   0  0  0  0  0  0  0  0  0  0  0  0
   21.1222  -18.2634  -15.6307 C   0  0  0  0  0  0  0  0  0  0  0  0
   19.7481  -18.3097  -15.5536 C   0  0  0  0  0  0  0  0  0  0  0  0
   18.9776  -19.2039  -16.2750 C   0  0  0  0  0  0  0  0  0  0  0  0
   19.6131  -20.0912  -17.1105 C   0  0  0  0  0  0  0  0  0  0  0  0
   21.0034  -20.0462  -17.1903 C   0  0  0  0  0  0  0  0  0  0  0  0
   21.7739  -19.1515  -16.4698 C   0  0  0  0  0  0  0  0  0  0  0  0
   24.9605  -20.8192  -15.1741 C   0  0  0  0  0  0  0  0  0  0  0  0
   24.8745  -22.0379  -15.4551 O   0  0  0  0  0  0  0  0  0  0  0  0
   25.5749  -19.8561   -9.4796 C   0  0  0  0  0  0  0  0  0  0  0  0
   24.7665  -19.9940  -10.7159 C   0  0  0  0  0  0  0  0  0  0  0  0
   25.0653  -21.1368  -11.6065 C   0  0  2  0  0  0  0  0  0  0  0  0
   26.5443  -21.3679  -11.8471 C   0  0  0  0  0  0  0  0  0  0  0  0
   24.1980  -21.3214  -12.7987 C   0  0  2  0  0  0  0  0  0  0  0  0
   24.6080  -20.4210  -13.8770 N   0  0  0  0  0  0  0  0  0  0  0  0
   22.7598  -21.1820  -12.6216 C   0  0  0  0  0  0  0  0  0  0  0  0
   21.8733  -22.1149  -12.1333 O   0  0  0  0  0  0  0  0  0  0  0  0
   22.2216  -20.0703  -12.9527 O   0  0  0  0  0  0  0  0  0  0  0  0
  2  1  1  1
  2  3  1  0
  3  4  1  0
  5  6  2  0
  5  2  1  0
  7  5  1  0
  8  7  1  0
  9 10  1  0
  8  9  1  6
 10 11  2  0
 10 18  1  0
 11 12  1  0
 12 13  1  0
 13 14  2  0
 14 15  1  0
 16 15  2  0
 17 16  1  0
 18 17  2  0
 18 13  1  0
 19  8  1  0
 19 20  2  0
 22 21  1  0
 23 22  1  0
 23 24  1  6
 25 26  1  6
 25 23  1  0
 26 19  1  0
 27 25  1  0
 28 27  1  0
 29 27  2  0
M  END
$$$$
