CWI.pdb
     RDKit          3D

 29 30  0  0  1  0  0  0  0  0999 V2000
   25.8625  -20.9944  -13.5218 N   0  0  0  0  0  0  0  0  0  0  0  0
   25.2444  -20.0683  -12.6203 C   0  0  1  0  0  0  0  0  0  0  0  0
   24.0213  -19.3889  -13.1964 C   0  0  0  0  0  0  0  0  0  0  0  0
   22.7656  -20.6182  -13.5805 S   0  0  0  0  0  0  0  0  0  0  0  0
   24.9108  -20.7824  -11.3602 C   0  0  0  0  0  0  0  0  0  0  0  0
   24.7449  -22.0380  -11.3661 O   0  0  0  0  0  0  0  0  0  0  0  0
   24.7607  -20.1312  -10.1113 N   0  0  0  0  0  0  0  0  0  0  0  0
   24.5185  -20.8566   -8.8957 C   0  0  1  0  0  0  0  0  0  0  0  0
   25.1913  -20.1881   -7.7238 C   0  0  0  0  0  0  0  0  0  0  0  0
   26.6154  -20.3882   -7.5905 C   0  0  0  0  0  0  0  0  0  0  0  0
   27.4175  -21.0043   -8.5363 C   0  0  0  0  0  0  0  0  0  0  0  0
   28.6924  -21.0082   -8.1256 N   0  0  0  0  0  0  0  0  0  0  0  0
   28.7331  -20.3989   -6.9157 C   0  0  0  0  0  0  0  0  0  0  0  0
   29.7620  -20.1319   -6.0403 C   0  0  0  0  0  0  0  0  0  0  0  0
   29.5793  -19.4918   -4.8277 C   0  0  0  0  0  0  0  0  0  0  0  0
   28.3085  -19.1025   -4.4771 C   0  0  0  0  0  0  0  0  0  0  0  0
   27.2659  -19.3715   -5.3613 C   0  0  0  0  0  0  0  0  0  0  0  0
   27.4485  -20.0107   -6.5743 C   0  0  0  0  0  0  0  0  0  0  0  0
   23.0632  -20.8274   -8.6030 C   0  0  0  0  0  0  0  0  0  0  0  0
   22.4499  -19.7475   -8.7747 O   0  0  0  0  0  0  0  0  0  0  0  0
   19.7171  -22.6085  -11.5396 C   0  0  0  0  0  0  0  0  0  0  0  0
   20.4035  -21.9754  -10.3868 C   0  0  0  0  0  0  0  0  0  0  0  0
   20.1653  -22.5526   -9.0457 C   0  0  2  0  0  0  0  0  0  0  0  0
   18.7191  -22.9172   -8.7733 C   0  0  0  0  0  0  0  0  0  0  0  0
   20.8866  -21.9421   -7.8990 C   0  0  2  0  0  0  0  0  0  0  0  0
   22.3289  -21.9307   -8.1462 N   0  0  0  0  0  0  0  0  0  0  0  0
   20.6634  -22.5076   -6.5763 C   0  0  0  0  0  0  0  0  0  0  0  0
   19.6835  -22.1754   -5.6687 O   0  0  0  0  0  0  0  0  0  0  0  0
   21.4586  -23.4260   -6.1768 O   0  0  0  0  0  0  0  0  0  0  0  0
  2  1  1  6
  2  3  1  0
  3  4  1  0
  5  6  2  0
  5  2  1  0
  7  5  1  0
  8  7  1  0
  9 10  1  0
  8  9  1  1
 10 11  2  0
 10 18  1  0
 11 12  1  0
 12 13  1  0
 13 14  2  0
 14 15  1  0
 16 15  2  0
 17 16  1  0
 18 17  2  0
 18 13  1  0
 19  8  1  0
 19 20  2  0
 22 21  1  0
 23 22  1  0
 23 24  1  1
 25 26  1  6
 25 23  1  0
 26 19  1  0
 27 25  1  0
 28 27  1  0
 29 27  2  0
M  END
$$$$
