CWI.pdb
     RDKit          3D

 29 30  0  0  1  0  0  0  0  0999 V2000
   29.0622  -20.8198  -18.9635 N   0  0  0  0  0  0  0  0  0  0  0  0
   28.5483  -21.6321  -17.9012 C   0  0  1  0  0  0  0  0  0  0  0  0
   29.5795  -22.5595  -17.2965 C   0  0  0  0  0  0  0  0  0  0  0  0
   28.8098  -23.5891  -16.0383 S   0  0  0  0  0  0  0  0  0  0  0  0
   27.9612  -20.7432  -16.8647 C   0  0  0  0  0  0  0  0  0  0  0  0
   28.6198  -19.7528  -16.4297 O   0  0  0  0  0  0  0  0  0  0  0  0
   26.6713  -20.9361  -16.3120 N   0  0  0  0  0  0  0  0  0  0  0  0
   26.1111  -20.0327  -15.3462 C   0  0  1  0  0  0  0  0  0  0  0  0
   24.8662  -19.3723  -15.8818 C   0  0  0  0  0  0  0  0  0  0  0  0
   25.0491  -18.1556  -16.6380 C   0  0  0  0  0  0  0  0  0  0  0  0
   24.5556  -17.9376  -17.9133 C   0  0  0  0  0  0  0  0  0  0  0  0
   24.8728  -16.7029  -18.3242 N   0  0  0  0  0  0  0  0  0  0  0  0
   25.5720  -16.1082  -17.3271 C   0  0  0  0  0  0  0  0  0  0  0  0
   26.1448  -14.8620  -17.2047 C   0  0  0  0  0  0  0  0  0  0  0  0
   26.8357  -14.4521  -16.0785 C   0  0  0  0  0  0  0  0  0  0  0  0
   26.9579  -15.3308  -15.0287 C   0  0  0  0  0  0  0  0  0  0  0  0
   26.3791  -16.5923  -15.1502 C   0  0  0  0  0  0  0  0  0  0  0  0
   25.6874  -17.0020  -16.2758 C   0  0  0  0  0  0  0  0  0  0  0  0
   25.6821  -20.8103  -14.1563 C   0  0  0  0  0  0  0  0  0  0  0  0
   25.3193  -21.9978  -14.3288 O   0  0  0  0  0  0  0  0  0  0  0  0
   26.5358  -20.9281   -8.0123 C   0  0  0  0  0  0  0  0  0  0  0  0
   25.7677  -21.3551   -9.2075 C   0  0  0  0  0  0  0  0  0  0  0  0
   26.0512  -20.6676  -10.4864 C   0  0  2  0  0  0  0  0  0  0  0  0
   26.3324  -19.1843  -10.3462 C   0  0  0  0  0  0  0  0  0  0  0  0
   25.2258  -21.0425  -11.6636 C   0  0  2  0  0  0  0  0  0  0  0  0
   25.6565  -20.3020  -12.8501 N   0  0  0  0  0  0  0  0  0  0  0  0
   23.7807  -20.9077  -11.5517 C   0  0  0  0  0  0  0  0  0  0  0  0
   22.9575  -20.0366  -12.2284 O   0  0  0  0  0  0  0  0  0  0  0  0
   23.1703  -21.6758  -10.7315 O   0  0  0  0  0  0  0  0  0  0  0  0
  2  1  1  6
  2  3  1  0
  3  4  1  0
  5  6  2  0
  5  2  1  0
  7  5  1  0
  8  7  1  0
  9 10  1  0
  8  9  1  6
 10 11  2  0
 10 18  1  0
 11 12  1  0
 12 13  1  0
 13 14  2  0
 14 15  1  0
 16 15  2  0
 17 16  1  0
 18 17  2  0
 18 13  1  0
 19  8  1  0
 19 20  2  0
 22 21  1  0
 23 22  1  0
 23 24  1  1
 25 26  1  6
 25 23  1  0
 26 19  1  0
 27 25  1  0
 28 27  1  0
 29 27  2  0
M  END
$$$$
