CWI.pdb
     RDKit          3D

 29 30  0  0  1  0  0  0  0  0999 V2000
   28.5008  -21.6303  -16.4011 N   0  0  0  0  0  0  0  0  0  0  0  0
   27.5535  -21.0067  -15.5258 C   0  0  1  0  0  0  0  0  0  0  0  0
   28.1808  -20.0360  -14.5493 C   0  0  0  0  0  0  0  0  0  0  0  0
   29.1580  -20.9368  -13.3373 S   0  0  0  0  0  0  0  0  0  0  0  0
   26.5158  -20.3340  -16.3503 C   0  0  0  0  0  0  0  0  0  0  0  0
   26.8561  -19.5399  -17.2764 O   0  0  0  0  0  0  0  0  0  0  0  0
   25.1251  -20.5277  -16.1635 N   0  0  0  0  0  0  0  0  0  0  0  0
   24.1445  -19.8267  -16.9441 C   0  0  1  0  0  0  0  0  0  0  0  0
   22.9255  -20.6827  -17.1767 C   0  0  0  0  0  0  0  0  0  0  0  0
   21.8718  -20.1095  -17.9809 C   0  0  0  0  0  0  0  0  0  0  0  0
   22.0702  -19.4144  -19.1620 C   0  0  0  0  0  0  0  0  0  0  0  0
   20.8925  -19.0378  -19.6771 N   0  0  0  0  0  0  0  0  0  0  0  0
   19.9216  -19.4805  -18.8417 C   0  0  0  0  0  0  0  0  0  0  0  0
   18.5487  -19.3767  -18.8695 C   0  0  0  0  0  0  0  0  0  0  0  0
   17.7280  -19.9062  -17.8900 C   0  0  0  0  0  0  0  0  0  0  0  0
   18.3095  -20.5689  -16.8355 C   0  0  0  0  0  0  0  0  0  0  0  0
   19.6984  -20.6754  -16.8052 C   0  0  0  0  0  0  0  0  0  0  0  0
   20.5192  -20.1468  -17.7851 C   0  0  0  0  0  0  0  0  0  0  0  0
   23.6750  -18.6467  -16.1749 C   0  0  0  0  0  0  0  0  0  0  0  0
   23.5138  -18.7764  -14.9384 O   0  0  0  0  0  0  0  0  0  0  0  0
   25.8532  -15.0712  -14.8347 C   0  0  0  0  0  0  0  0  0  0  0  0
   25.2599  -15.2123  -16.1871 C   0  0  0  0  0  0  0  0  0  0  0  0
   23.7959  -15.0417  -16.3147 C   0  0  2  0  0  0  0  0  0  0  0  0
   23.2766  -13.7152  -15.7953 C   0  0  0  0  0  0  0  0  0  0  0  0
   22.9398  -16.2163  -16.0065 C   0  0  2  0  0  0  0  0  0  0  0  0
   23.3997  -17.3947  -16.7423 N   0  0  0  0  0  0  0  0  0  0  0  0
   21.5055  -16.0870  -16.2195 C   0  0  0  0  0  0  0  0  0  0  0  0
   20.8169  -16.1617  -17.4089 O   0  0  0  0  0  0  0  0  0  0  0  0
   20.7661  -15.8753  -15.1979 O   0  0  0  0  0  0  0  0  0  0  0  0
  2  1  1  6
  2  3  1  0
  3  4  1  0
  5  6  2  0
  5  2  1  0
  7  5  1  0
  8  7  1  0
  9 10  1  0
  8  9  1  1
 10 11  2  0
 10 18  1  0
 11 12  1  0
 12 13  1  0
 13 14  2  0
 14 15  1  0
 16 15  2  0
 17 16  1  0
 18 17  2  0
 18 13  1  0
 19  8  1  0
 19 20  2  0
 22 21  1  0
 23 22  1  0
 23 24  1  1
 25 26  1  6
 25 23  1  0
 26 19  1  0
 27 25  1  0
 28 27  1  0
 29 27  2  0
M  END
$$$$
