WRL.pdb
     RDKit          3D

 34 35  0  0  1  0  0  0  0  0999 V2000
    6.9374  -19.5677   25.7073 N   0  0  0  0  0  0  0  0  0  0  0  0
    6.6415  -18.1902   25.4068 C   0  0  1  0  0  0  0  0  0  0  0  0
    6.7199  -17.3437   26.6207 C   0  0  0  0  0  0  0  0  0  0  0  0
    6.0702  -16.0299   26.4943 C   0  0  0  0  0  0  0  0  0  0  0  0
    4.7459  -15.7695   26.1260 C   0  0  0  0  0  0  0  0  0  0  0  0
    4.5422  -14.4636   26.1756 N   0  0  0  0  0  0  0  0  0  0  0  0
    5.6628  -13.8090   26.5583 C   0  0  0  0  0  0  0  0  0  0  0  0
    5.9745  -12.4876   26.7457 C   0  0  0  0  0  0  0  0  0  0  0  0
    7.2476  -12.1053   27.1343 C   0  0  0  0  0  0  0  0  0  0  0  0
    8.1844  -13.0718   27.3285 C   0  0  0  0  0  0  0  0  0  0  0  0
    7.8864  -14.3863   27.1473 C   0  0  0  0  0  0  0  0  0  0  0  0
    6.6164  -14.8061   26.7560 C   0  0  0  0  0  0  0  0  0  0  0  0
    7.5593  -17.7486   24.3231 C   0  0  0  0  0  0  0  0  0  0  0  0
    8.6898  -18.2982   24.1673 O   0  0  0  0  0  0  0  0  0  0  0  0
    9.4749  -15.0412   16.9924 N   0  0  0  0  0  0  0  0  0  0  0  0
    9.2346  -13.8097   17.6807 C   0  0  0  0  0  0  0  0  0  0  0  0
    8.7076  -12.8060   17.0842 N   0  0  0  0  0  0  0  0  0  0  0  0
    9.5733  -13.6475   19.0475 N   0  0  0  0  0  0  0  0  0  0  0  0
    9.3982  -14.7051   19.9895 C   0  0  0  0  0  0  0  0  0  0  0  0
    7.9759  -15.1628   20.1547 C   0  0  0  0  0  0  0  0  0  0  0  0
    7.6306  -15.0418   21.6358 C   0  0  0  0  0  0  0  0  0  0  0  0
    8.1020  -16.2079   22.4229 C   0  0  2  0  0  0  0  0  0  0  0  0
    7.1972  -16.6893   23.4304 N   0  0  0  0  0  0  0  0  0  0  0  0
    9.4731  -15.9460   22.9409 C   0  0  0  0  0  0  0  0  0  0  0  0
   10.4058  -15.7267   22.1594 O   0  0  0  0  0  0  0  0  0  0  0  0
    8.5886  -11.9085   17.5996 C   0  0  0  0  0  0  0  0  0  0  0  0
   12.4290  -13.6035   27.1108 C   0  0  2  0  0  0  0  0  0  0  0  0
   11.9167  -15.0063   27.2014 C   0  0  0  0  0  0  0  0  0  0  0  0
   11.5468  -15.2751   28.6651 C   0  0  0  0  0  0  0  0  0  0  0  0
   10.7147  -15.2700   26.3607 C   0  0  1  0  0  0  0  0  0  0  0  0
   10.9690  -15.5290   24.9165 N   0  0  0  0  0  0  0  0  0  0  0  0
    9.7022  -15.9482   24.3347 C   0  0  0  0  0  0  0  0  0  0  0  0
   11.9583  -16.5988   24.7163 O   0  0  0  0  0  0  0  0  0  0  0  0
   11.5552  -17.8009   24.6833 O   0  0  0  0  0  0  0  0  0  0  0  0
  2  1  1  1
  2  3  1  0
  4  5  2  0
  4  3  1  0
  6  5  1  0
  7 12  2  0
  7  6  1  0
  8  7  1  0
  9 10  1  0
  9  8  2  0
 10 11  2  0
 11 12  1  0
 12  4  1  0
 13 23  1  0
 13  2  1  0
 14 13  2  0
 16 15  1  0
 17 16  2  0
 18 16  1  0
 19 20  1  0
 19 18  1  0
 20 21  1  0
 22 21  1  1
 22 24  1  0
 22 23  1  0
 24 31  1  0
 25 24  2  0
 27 26  1  1
 27 28  1  0
 29 27  1  0
 30 32  1  0
 30 29  1  6
 31 30  1  0
 32 34  1  0
 33 32  2  0
M  END
$$$$
