WRL.pdb
     RDKit          3D

 34 35  0  0  1  0  0  0  0  0999 V2000
    6.4949  -18.4641   25.0813 N   0  0  0  0  0  0  0  0  0  0  0  0
    6.9058  -17.1233   24.7511 C   0  0  1  0  0  0  0  0  0  0  0  0
    6.9064  -16.2486   25.9474 C   0  0  0  0  0  0  0  0  0  0  0  0
    5.9603  -15.1238   25.8843 C   0  0  0  0  0  0  0  0  0  0  0  0
    4.6305  -15.1075   26.3184 C   0  0  0  0  0  0  0  0  0  0  0  0
    4.1382  -13.8949   26.1271 N   0  0  0  0  0  0  0  0  0  0  0  0
    5.0632  -13.0733   25.5794 C   0  0  0  0  0  0  0  0  0  0  0  0
    5.0537  -11.7611   25.1837 C   0  0  0  0  0  0  0  0  0  0  0  0
    6.1784  -11.1791   24.6231 C   0  0  0  0  0  0  0  0  0  0  0  0
    7.2966  -11.9388   24.4749 C   0  0  0  0  0  0  0  0  0  0  0  0
    7.3185  -13.2413   24.8655 C   0  0  0  0  0  0  0  0  0  0  0  0
    6.2051  -13.8588   25.4321 C   0  0  0  0  0  0  0  0  0  0  0  0
    8.2307  -17.2007   24.0800 C   0  0  0  0  0  0  0  0  0  0  0  0
    8.9841  -18.2051   24.2469 O   0  0  0  0  0  0  0  0  0  0  0  0
    8.8949  -12.4521   18.0397 N   0  0  0  0  0  0  0  0  0  0  0  0
    8.2961  -13.6780   17.6077 C   0  0  0  0  0  0  0  0  0  0  0  0
    7.7038  -13.7662   16.4752 N   0  0  0  0  0  0  0  0  0  0  0  0
    8.3289  -14.8425   18.4151 N   0  0  0  0  0  0  0  0  0  0  0  0
    9.3879  -15.0771   19.3425 C   0  0  0  0  0  0  0  0  0  0  0  0
    9.0449  -14.7630   20.7719 C   0  0  0  0  0  0  0  0  0  0  0  0
   10.2640  -15.1166   21.6182 C   0  0  0  0  0  0  0  0  0  0  0  0
    9.9809  -16.1997   22.5920 C   0  0  2  0  0  0  0  0  0  0  0  0
    8.6959  -16.1439   23.2332 N   0  0  0  0  0  0  0  0  0  0  0  0
   11.1120  -16.3234   23.5522 C   0  0  0  0  0  0  0  0  0  0  0  0
   12.2771  -16.3801   23.1424 O   0  0  0  0  0  0  0  0  0  0  0  0
    7.3193  -14.6846   16.1686 C   0  0  0  0  0  0  0  0  0  0  0  0
   10.2141  -14.7215   28.8721 C   0  0  1  0  0  0  0  0  0  0  0  0
   10.8463  -14.9162   27.5301 C   0  0  0  0  0  0  0  0  0  0  0  0
   12.0789  -14.0069   27.4579 C   0  0  0  0  0  0  0  0  0  0  0  0
   11.2828  -16.3156   27.2610 C   0  0  2  0  0  0  0  0  0  0  0  0
   11.8960  -16.5659   25.9273 N   0  0  0  0  0  0  0  0  0  0  0  0
   10.8452  -16.3741   24.9384 C   0  0  0  0  0  0  0  0  0  0  0  0
   12.4120  -17.9381   25.8089 O   0  0  0  0  0  0  0  0  0  0  0  0
   11.8111  -18.7492   25.0410 O   0  0  0  0  0  0  0  0  0  0  0  0
  2  1  1  1
  2  3  1  0
  4  5  2  0
  4  3  1  0
  6  5  1  0
  7 12  2  0
  7  6  1  0
  8  7  1  0
  9 10  1  0
  9  8  2  0
 10 11  2  0
 11 12  1  0
 12  4  1  0
 13 23  1  0
 13  2  1  0
 14 13  2  0
 16 15  1  0
 17 16  2  0
 18 16  1  0
 19 20  1  0
 19 18  1  0
 20 21  1  0
 22 21  1  1
 22 24  1  0
 22 23  1  0
 24 31  1  0
 25 24  2  0
 27 26  1  6
 27 28  1  0
 29 27  1  0
 30 32  1  0
 30 29  1  6
 31 30  1  0
 32 34  1  0
 33 32  2  0
M  END
$$$$
