WRL.pdb
     RDKit          3D

 34 35  0  0  1  0  0  0  0  0999 V2000
    6.2524  -17.6891   24.4258 N   0  0  0  0  0  0  0  0  0  0  0  0
    7.1285  -16.5539   24.2874 C   0  0  1  0  0  0  0  0  0  0  0  0
    7.3519  -15.8823   25.5895 C   0  0  0  0  0  0  0  0  0  0  0  0
    6.4671  -14.7356   25.8470 C   0  0  0  0  0  0  0  0  0  0  0  0
    5.1435  -14.7691   26.2990 C   0  0  0  0  0  0  0  0  0  0  0  0
    4.7154  -13.5263   26.4463 N   0  0  0  0  0  0  0  0  0  0  0  0
    5.6789  -12.6358   26.1156 C   0  0  0  0  0  0  0  0  0  0  0  0
    5.7367  -11.2669   26.0816 C   0  0  0  0  0  0  0  0  0  0  0  0
    6.8865  -10.6135   25.6707 C   0  0  0  0  0  0  0  0  0  0  0  0
    7.9612  -11.3611   25.3023 C   0  0  0  0  0  0  0  0  0  0  0  0
    7.9162  -12.7200   25.3336 C   0  0  0  0  0  0  0  0  0  0  0  0
    6.7758  -13.4097   25.7407 C   0  0  0  0  0  0  0  0  0  0  0  0
    8.3858  -17.0192   23.6438 C   0  0  0  0  0  0  0  0  0  0  0  0
    8.8487  -18.1733   23.8850 O   0  0  0  0  0  0  0  0  0  0  0  0
    7.6246  -14.4072   19.3880 N   0  0  0  0  0  0  0  0  0  0  0  0
    8.4728  -13.9675   18.3224 C   0  0  0  0  0  0  0  0  0  0  0  0
    8.0172  -13.7947   17.1377 N   0  0  0  0  0  0  0  0  0  0  0  0
    9.8507  -13.7100   18.5316 N   0  0  0  0  0  0  0  0  0  0  0  0
   10.4556  -13.8834   19.8125 C   0  0  0  0  0  0  0  0  0  0  0  0
   10.3848  -15.2856   20.3498 C   0  0  0  0  0  0  0  0  0  0  0  0
   11.1616  -15.3069   21.6627 C   0  0  0  0  0  0  0  0  0  0  0  0
   10.5468  -16.2082   22.6683 C   0  0  2  0  0  0  0  0  0  0  0  0
    9.1117  -16.1784   22.7404 N   0  0  0  0  0  0  0  0  0  0  0  0
   11.2059  -16.0148   23.9892 C   0  0  0  0  0  0  0  0  0  0  0  0
   11.6745  -14.9135   24.2993 O   0  0  0  0  0  0  0  0  0  0  0  0
    8.6696  -13.5205   16.3731 C   0  0  0  0  0  0  0  0  0  0  0  0
    8.9591  -14.3927   27.5799 C   0  0  1  0  0  0  0  0  0  0  0  0
   10.2452  -14.8893   26.9986 C   0  0  0  0  0  0  0  0  0  0  0  0
   11.3878  -14.3671   27.8778 C   0  0  0  0  0  0  0  0  0  0  0  0
   10.3490  -16.3746   26.9326 C   0  0  2  0  0  0  0  0  0  0  0  0
   11.5845  -16.9179   26.3034 N   0  0  0  0  0  0  0  0  0  0  0  0
   11.2915  -17.1001   24.8893 C   0  0  0  0  0  0  0  0  0  0  0  0
   11.9679  -18.2165   26.8780 O   0  0  0  0  0  0  0  0  0  0  0  0
   12.4918  -18.2391   28.0328 O   0  0  0  0  0  0  0  0  0  0  0  0
  2  1  1  1
  2  3  1  0
  4  5  2  0
  4  3  1  0
  6  5  1  0
  7 12  2  0
  7  6  1  0
  8  7  1  0
  9 10  1  0
  9  8  2  0
 10 11  2  0
 11 12  1  0
 12  4  1  0
 13 23  1  0
 13  2  1  0
 14 13  2  0
 16 15  1  0
 17 16  2  0
 18 16  1  0
 19 20  1  0
 19 18  1  0
 20 21  1  0
 22 21  1  6
 22 24  1  0
 22 23  1  0
 24 31  1  0
 25 24  2  0
 27 26  1  6
 27 28  1  0
 29 27  1  0
 30 32  1  0
 30 29  1  6
 31 30  1  0
 32 34  1  0
 33 32  2  0
M  END
$$$$
