WRL.pdb
     RDKit          3D

 34 35  0  0  1  0  0  0  0  0999 V2000
    5.9958  -17.1200   25.0479 N   0  0  0  0  0  0  0  0  0  0  0  0
    7.0957  -16.2885   24.6302 C   0  0  1  0  0  0  0  0  0  0  0  0
    7.5185  -15.3685   25.7124 C   0  0  0  0  0  0  0  0  0  0  0  0
    6.6141  -14.2302   25.9370 C   0  0  0  0  0  0  0  0  0  0  0  0
    5.4111  -14.2297   26.6511 C   0  0  0  0  0  0  0  0  0  0  0  0
    4.9241  -13.0000   26.6580 N   0  0  0  0  0  0  0  0  0  0  0  0
    5.7316  -12.1514   25.9809 C   0  0  0  0  0  0  0  0  0  0  0  0
    5.6743  -10.8132   25.6904 C   0  0  0  0  0  0  0  0  0  0  0  0
    6.6669  -10.2050   24.9402 C   0  0  0  0  0  0  0  0  0  0  0  0
    7.7040  -10.9656   24.4981 C   0  0  0  0  0  0  0  0  0  0  0  0
    7.7726  -12.2940   24.7816 C   0  0  0  0  0  0  0  0  0  0  0  0
    6.7913  -12.9381   25.5327 C   0  0  0  0  0  0  0  0  0  0  0  0
    8.1892  -17.1773   24.1548 C   0  0  0  0  0  0  0  0  0  0  0  0
    8.5839  -18.1530   24.8595 O   0  0  0  0  0  0  0  0  0  0  0  0
   14.5050  -20.7024   20.2091 N   0  0  0  0  0  0  0  0  0  0  0  0
   13.9557  -19.7358   19.3079 C   0  0  0  0  0  0  0  0  0  0  0  0
   14.6223  -19.3124   18.2993 N   0  0  0  0  0  0  0  0  0  0  0  0
   12.6555  -19.2038   19.4959 N   0  0  0  0  0  0  0  0  0  0  0  0
   12.1490  -18.9156   20.7986 C   0  0  0  0  0  0  0  0  0  0  0  0
   12.1921  -17.4611   21.1757 C   0  0  0  0  0  0  0  0  0  0  0  0
   10.7492  -16.9910   21.3319 C   0  0  0  0  0  0  0  0  0  0  0  0
   10.2367  -17.1885   22.7103 C   0  0  2  0  0  0  0  0  0  0  0  0
    8.8307  -16.9546   22.8943 N   0  0  0  0  0  0  0  0  0  0  0  0
   11.0882  -16.4421   23.6770 C   0  0  0  0  0  0  0  0  0  0  0  0
   11.3780  -15.2579   23.4710 O   0  0  0  0  0  0  0  0  0  0  0  0
   14.1761  -18.6472   17.6332 C   0  0  0  0  0  0  0  0  0  0  0  0
   10.4036  -15.9170   28.8587 C   0  0  2  0  0  0  0  0  0  0  0  0
   10.8617  -15.7846   27.4405 C   0  0  0  0  0  0  0  0  0  0  0  0
   11.2367  -14.3164   27.2057 C   0  0  0  0  0  0  0  0  0  0  0  0
   12.0433  -16.6276   27.1022 C   0  0  2  0  0  0  0  0  0  0  0  0
   12.5615  -16.5019   25.7119 N   0  0  0  0  0  0  0  0  0  0  0  0
   11.5631  -17.0965   24.8352 C   0  0  0  0  0  0  0  0  0  0  0  0
   13.8339  -17.2177   25.5332 O   0  0  0  0  0  0  0  0  0  0  0  0
   13.8161  -18.3616   24.9858 O   0  0  0  0  0  0  0  0  0  0  0  0
  2  1  1  1
  2  3  1  0
  4  5  2  0
  4  3  1  0
  6  5  1  0
  7 12  2  0
  7  6  1  0
  8  7  1  0
  9 10  1  0
  9  8  2  0
 10 11  2  0
 11 12  1  0
 12  4  1  0
 13 23  1  0
 13  2  1  0
 14 13  2  0
 16 15  1  0
 17 16  2  0
 18 16  1  0
 19 20  1  0
 19 18  1  0
 20 21  1  0
 22 21  1  6
 22 24  1  0
 22 23  1  0
 24 31  1  0
 25 24  2  0
 27 26  1  6
 27 28  1  0
 29 27  1  0
 30 32  1  0
 30 29  1  6
 31 30  1  0
 32 34  1  0
 33 32  2  0
M  END
$$$$
