WRL.pdb
     RDKit          3D

 34 35  0  0  1  0  0  0  0  0999 V2000
    7.0116  -18.9293   24.3819 N   0  0  0  0  0  0  0  0  0  0  0  0
    7.0103  -17.8421   23.4366 C   0  0  1  0  0  0  0  0  0  0  0  0
    7.7500  -16.6698   23.9609 C   0  0  0  0  0  0  0  0  0  0  0  0
    7.1063  -15.9992   25.1011 C   0  0  0  0  0  0  0  0  0  0  0  0
    6.4202  -16.5995   26.1623 C   0  0  0  0  0  0  0  0  0  0  0  0
    6.0319  -15.6550   27.0029 N   0  0  0  0  0  0  0  0  0  0  0  0
    6.4148  -14.4308   26.5723 C   0  0  0  0  0  0  0  0  0  0  0  0
    6.2531  -13.1592   27.0573 C   0  0  0  0  0  0  0  0  0  0  0  0
    6.7540  -12.0665   26.3695 C   0  0  0  0  0  0  0  0  0  0  0  0
    7.4135  -12.2827   25.1999 C   0  0  0  0  0  0  0  0  0  0  0  0
    7.5816  -13.5401   24.7096 C   0  0  0  0  0  0  0  0  0  0  0  0
    7.0901  -14.6616   25.3750 C   0  0  0  0  0  0  0  0  0  0  0  0
    7.5539  -18.3514   22.1494 C   0  0  0  0  0  0  0  0  0  0  0  0
    8.3834  -19.3084   22.1296 O   0  0  0  0  0  0  0  0  0  0  0  0
    8.7425  -16.6967   13.4243 N   0  0  0  0  0  0  0  0  0  0  0  0
    7.8657  -17.6688   14.0026 C   0  0  0  0  0  0  0  0  0  0  0  0
    7.5240  -18.7226   13.3595 N   0  0  0  0  0  0  0  0  0  0  0  0
    7.3357  -17.5042   15.3069 N   0  0  0  0  0  0  0  0  0  0  0  0
    7.8528  -16.5216   16.2032 C   0  0  0  0  0  0  0  0  0  0  0  0
    8.5410  -17.0848   17.4152 C   0  0  0  0  0  0  0  0  0  0  0  0
    7.5385  -17.0446   18.5645 C   0  0  0  0  0  0  0  0  0  0  0  0
    8.0980  -17.5992   19.8219 C   0  0  2  0  0  0  0  0  0  0  0  0
    7.1626  -17.7740   20.8989 N   0  0  0  0  0  0  0  0  0  0  0  0
    9.3115  -16.8318   20.2159 C   0  0  0  0  0  0  0  0  0  0  0  0
   10.4141  -17.1135   19.7326 O   0  0  0  0  0  0  0  0  0  0  0  0
    6.9604  -19.4554   13.8398 C   0  0  0  0  0  0  0  0  0  0  0  0
    8.1063  -11.8229   21.6936 C   0  0  1  0  0  0  0  0  0  0  0  0
    8.6884  -13.0932   21.1589 C   0  0  0  0  0  0  0  0  0  0  0  0
    9.2352  -12.8025   19.7561 C   0  0  0  0  0  0  0  0  0  0  0  0
    9.7970  -13.6491   21.9856 C   0  0  2  0  0  0  0  0  0  0  0  0
   10.3352  -14.9698   21.5573 N   0  0  0  0  0  0  0  0  0  0  0  0
    9.1948  -15.7759   21.1469 C   0  0  0  0  0  0  0  0  0  0  0  0
   11.0324  -15.6602   22.6531 O   0  0  0  0  0  0  0  0  0  0  0  0
   12.1313  -15.1836   23.0699 O   0  0  0  0  0  0  0  0  0  0  0  0
  2  1  1  1
  2  3  1  0
  4  5  2  0
  4  3  1  0
  6  5  1  0
  7 12  2  0
  7  6  1  0
  8  7  1  0
  9 10  1  0
  9  8  2  0
 10 11  2  0
 11 12  1  0
 12  4  1  0
 13 23  1  0
 13  2  1  0
 14 13  2  0
 16 15  1  0
 17 16  2  0
 18 16  1  0
 19 20  1  0
 19 18  1  0
 20 21  1  0
 22 21  1  6
 22 24  1  0
 22 23  1  0
 24 31  1  0
 25 24  2  0
 27 26  1  6
 27 28  1  0
 29 27  1  0
 30 32  1  0
 30 29  1  6
 31 30  1  0
 32 34  1  0
 33 32  2  0
M  END
$$$$
