WRL.pdb
     RDKit          3D

 34 35  0  0  1  0  0  0  0  0999 V2000
    6.8089  -18.7732   24.7807 N   0  0  0  0  0  0  0  0  0  0  0  0
    6.9879  -17.4263   24.3018 C   0  0  1  0  0  0  0  0  0  0  0  0
    7.8538  -16.6402   25.2120 C   0  0  0  0  0  0  0  0  0  0  0  0
    7.1396  -15.9689   26.3090 C   0  0  0  0  0  0  0  0  0  0  0  0
    6.8065  -16.5038   27.5581 C   0  0  0  0  0  0  0  0  0  0  0  0
    6.2089  -15.5658   28.2739 N   0  0  0  0  0  0  0  0  0  0  0  0
    6.1110  -14.4093   27.5786 C   0  0  0  0  0  0  0  0  0  0  0  0
    5.5794  -13.1765   27.8545 C   0  0  0  0  0  0  0  0  0  0  0  0
    5.6105  -12.1616   26.9128 C   0  0  0  0  0  0  0  0  0  0  0  0
    6.1832  -12.4140   25.7055 C   0  0  0  0  0  0  0  0  0  0  0  0
    6.7156  -13.6327   25.4209 C   0  0  0  0  0  0  0  0  0  0  0  0
    6.7007  -14.6764   26.3443 C   0  0  0  0  0  0  0  0  0  0  0  0
    7.5105  -17.4984   22.9113 C   0  0  0  0  0  0  0  0  0  0  0  0
    8.2507  -18.4592   22.5462 O   0  0  0  0  0  0  0  0  0  0  0  0
    9.8088  -14.6498   16.4123 N   0  0  0  0  0  0  0  0  0  0  0  0
    8.5001  -14.1298   16.1573 C   0  0  0  0  0  0  0  0  0  0  0  0
    7.9212  -14.3091   15.0287 N   0  0  0  0  0  0  0  0  0  0  0  0
    7.7928  -13.3920   17.1393 N   0  0  0  0  0  0  0  0  0  0  0  0
    8.3087  -13.2213   18.4589 C   0  0  0  0  0  0  0  0  0  0  0  0
    8.7743  -14.4914   19.1145 C   0  0  0  0  0  0  0  0  0  0  0  0
    7.8335  -14.7687   20.2831 C   0  0  0  0  0  0  0  0  0  0  0  0
    8.1699  -16.0277   20.9926 C   0  0  2  0  0  0  0  0  0  0  0  0
    7.1992  -16.4852   21.9487 N   0  0  0  0  0  0  0  0  0  0  0  0
    9.5478  -15.9403   21.5498 C   0  0  0  0  0  0  0  0  0  0  0  0
   10.5298  -15.9827   20.7997 O   0  0  0  0  0  0  0  0  0  0  0  0
    6.9359  -13.9950   14.9030 C   0  0  0  0  0  0  0  0  0  0  0  0
    9.4809  -14.3123   26.7726 C   0  0  1  0  0  0  0  0  0  0  0  0
    9.6943  -14.5456   25.3103 C   0  0  0  0  0  0  0  0  0  0  0  0
    9.9620  -13.1857   24.6543 C   0  0  0  0  0  0  0  0  0  0  0  0
   10.8397  -15.4470   24.9992 C   0  0  2  0  0  0  0  0  0  0  0  0
   11.0451  -15.7734   23.5609 N   0  0  0  0  0  0  0  0  0  0  0  0
    9.7269  -15.8067   22.9445 C   0  0  0  0  0  0  0  0  0  0  0  0
   11.6844  -17.0858   23.3815 O   0  0  0  0  0  0  0  0  0  0  0  0
   11.0335  -18.0038   22.7965 O   0  0  0  0  0  0  0  0  0  0  0  0
  2  1  1  1
  2  3  1  0
  4  5  2  0
  4  3  1  0
  6  5  1  0
  7 12  2  0
  7  6  1  0
  8  7  1  0
  9 10  1  0
  9  8  2  0
 10 11  2  0
 11 12  1  0
 12  4  1  0
 13 23  1  0
 13  2  1  0
 14 13  2  0
 16 15  1  0
 17 16  2  0
 18 16  1  0
 19 20  1  0
 19 18  1  0
 20 21  1  0
 22 21  1  1
 22 24  1  0
 22 23  1  0
 24 31  1  0
 25 24  2  0
 27 26  1  6
 27 28  1  0
 29 27  1  0
 30 32  1  0
 30 29  1  6
 31 30  1  0
 32 34  1  0
 33 32  2  0
M  END
$$$$
