WRL.pdb
     RDKit          3D

 34 35  0  0  1  0  0  0  0  0999 V2000
    6.2618  -18.6358   24.4268 N   0  0  0  0  0  0  0  0  0  0  0  0
    6.5474  -17.2245   24.4724 C   0  0  1  0  0  0  0  0  0  0  0  0
    6.6470  -16.7386   25.8690 C   0  0  0  0  0  0  0  0  0  0  0  0
    6.1758  -15.3600   26.0729 C   0  0  0  0  0  0  0  0  0  0  0  0
    4.8545  -14.9295   26.2343 C   0  0  0  0  0  0  0  0  0  0  0  0
    4.8575  -13.6224   26.4371 N   0  0  0  0  0  0  0  0  0  0  0  0
    6.1172  -13.1289   26.4212 C   0  0  0  0  0  0  0  0  0  0  0  0
    6.6480  -11.8733   26.5633 C   0  0  0  0  0  0  0  0  0  0  0  0
    8.0146  -11.6651   26.4797 C   0  0  0  0  0  0  0  0  0  0  0  0
    8.8216  -12.7364   26.2549 C   0  0  0  0  0  0  0  0  0  0  0  0
    8.3066  -13.9873   26.1141 C   0  0  0  0  0  0  0  0  0  0  0  0
    6.9369  -14.2326   26.1915 C   0  0  0  0  0  0  0  0  0  0  0  0
    7.7793  -16.9788   23.6763 C   0  0  0  0  0  0  0  0  0  0  0  0
    8.6900  -17.8560   23.6042 O   0  0  0  0  0  0  0  0  0  0  0  0
    9.4589  -16.0135   17.3884 N   0  0  0  0  0  0  0  0  0  0  0  0
    8.6495  -14.8598   17.1394 C   0  0  0  0  0  0  0  0  0  0  0  0
    7.8002  -14.8373   16.1806 N   0  0  0  0  0  0  0  0  0  0  0  0
    8.7566  -13.6942   17.9387 N   0  0  0  0  0  0  0  0  0  0  0  0
    9.3718  -13.7268   19.2259 C   0  0  0  0  0  0  0  0  0  0  0  0
    8.4565  -14.1435   20.3432 C   0  0  0  0  0  0  0  0  0  0  0  0
    9.2761  -14.1269   21.6299 C   0  0  0  0  0  0  0  0  0  0  0  0
    9.2277  -15.4247   22.3474 C   0  0  2  0  0  0  0  0  0  0  0  0
    7.9754  -15.7459   22.9750 N   0  0  0  0  0  0  0  0  0  0  0  0
   10.3923  -15.5359   23.2683 C   0  0  0  0  0  0  0  0  0  0  0  0
   11.5439  -15.3961   22.8404 O   0  0  0  0  0  0  0  0  0  0  0  0
    7.2269  -13.9816   16.0244 C   0  0  0  0  0  0  0  0  0  0  0  0
   10.6320  -13.2522   27.1642 C   0  0  2  0  0  0  0  0  0  0  0  0
   11.0245  -14.5626   27.7702 C   0  0  0  0  0  0  0  0  0  0  0  0
   10.3343  -14.6717   29.1351 C   0  0  0  0  0  0  0  0  0  0  0  0
   10.6376  -15.7493   26.9557 C   0  0  2  0  0  0  0  0  0  0  0  0
   11.2590  -15.8488   25.6062 N   0  0  0  0  0  0  0  0  0  0  0  0
   10.1729  -15.8013   24.6382 C   0  0  0  0  0  0  0  0  0  0  0  0
   11.9933  -17.1111   25.4314 O   0  0  0  0  0  0  0  0  0  0  0  0
   13.0451  -17.3018   26.1141 O   0  0  0  0  0  0  0  0  0  0  0  0
  2  1  1  1
  2  3  1  0
  4  5  2  0
  4  3  1  0
  6  5  1  0
  7 12  2  0
  7  6  1  0
  8  7  1  0
  9 10  1  0
  9  8  2  0
 10 11  2  0
 11 12  1  0
 12  4  1  0
 13 23  1  0
 13  2  1  0
 14 13  2  0
 16 15  1  0
 17 16  2  0
 18 16  1  0
 19 20  1  0
 19 18  1  0
 20 21  1  0
 22 21  1  1
 22 24  1  0
 22 23  1  0
 24 31  1  0
 25 24  2  0
 27 26  1  1
 27 28  1  0
 29 27  1  0
 30 32  1  0
 30 29  1  6
 31 30  1  0
 32 34  1  0
 33 32  2  0
M  END
$$$$
