WRL.pdb
     RDKit          3D

 34 35  0  0  1  0  0  0  0  0999 V2000
    9.7580  -17.3289   20.6230 N   0  0  0  0  0  0  0  0  0  0  0  0
    9.7292  -16.2263   21.5498 C   0  0  1  0  0  0  0  0  0  0  0  0
    8.6211  -15.2913   21.2425 C   0  0  0  0  0  0  0  0  0  0  0  0
    8.6082  -14.7902   19.8594 C   0  0  0  0  0  0  0  0  0  0  0  0
    9.3412  -15.2788   18.7725 C   0  0  0  0  0  0  0  0  0  0  0  0
    9.0133  -14.5848   17.6953 N   0  0  0  0  0  0  0  0  0  0  0  0
    8.0908  -13.6387   17.9862 C   0  0  0  0  0  0  0  0  0  0  0  0
    7.4508  -12.6768   17.2490 C   0  0  0  0  0  0  0  0  0  0  0  0
    6.5427  -11.8145   17.8403 C   0  0  0  0  0  0  0  0  0  0  0  0
    6.2971  -11.9438   19.1716 C   0  0  0  0  0  0  0  0  0  0  0  0
    6.9248  -12.8957   19.9131 C   0  0  0  0  0  0  0  0  0  0  0  0
    7.8445  -13.7790   19.3509 C   0  0  0  0  0  0  0  0  0  0  0  0
    9.6612  -16.7845   22.9266 C   0  0  0  0  0  0  0  0  0  0  0  0
    8.6714  -16.5383   23.6775 O   0  0  0  0  0  0  0  0  0  0  0  0
   10.8398  -20.4466   21.2671 N   0  0  0  0  0  0  0  0  0  0  0  0
   10.8092  -21.7633   21.8271 C   0  0  0  0  0  0  0  0  0  0  0  0
   11.0269  -22.7986   21.1048 N   0  0  0  0  0  0  0  0  0  0  0  0
   10.5325  -21.9769   23.2007 N   0  0  0  0  0  0  0  0  0  0  0  0
   10.5934  -20.9114   24.1481 C   0  0  0  0  0  0  0  0  0  0  0  0
   11.8700  -20.1184   24.1122 C   0  0  0  0  0  0  0  0  0  0  0  0
   11.7580  -19.0320   25.1774 C   0  0  0  0  0  0  0  0  0  0  0  0
   10.7515  -17.9994   24.8277 C   0  0  2  0  0  0  0  0  0  0  0  0
   10.7108  -17.6088   23.4452 N   0  0  0  0  0  0  0  0  0  0  0  0
   10.8670  -16.8455   25.7614 C   0  0  0  0  0  0  0  0  0  0  0  0
   11.8750  -16.1297   25.7498 O   0  0  0  0  0  0  0  0  0  0  0  0
   10.9328  -23.7464   21.5269 C   0  0  0  0  0  0  0  0  0  0  0  0
    6.5724  -13.9139   26.8835 C   0  0  1  0  0  0  0  0  0  0  0  0
    8.0111  -14.2938   26.7277 C   0  0  0  0  0  0  0  0  0  0  0  0
    8.8102  -13.0080   26.4838 C   0  0  0  0  0  0  0  0  0  0  0  0
    8.5896  -14.9842   27.9152 C   0  0  2  0  0  0  0  0  0  0  0  0
    9.9373  -15.5894   27.7293 N   0  0  0  0  0  0  0  0  0  0  0  0
    9.8140  -16.5718   26.6623 C   0  0  0  0  0  0  0  0  0  0  0  0
   10.4066  -16.2694   28.9462 O   0  0  0  0  0  0  0  0  0  0  0  0
   10.3824  -17.5369   28.9818 O   0  0  0  0  0  0  0  0  0  0  0  0
  2  1  1  6
  2  3  1  0
  4  5  2  0
  4  3  1  0
  6  5  1  0
  7 12  2  0
  7  6  1  0
  8  7  1  0
  9 10  1  0
  9  8  2  0
 10 11  2  0
 11 12  1  0
 12  4  1  0
 13 23  1  0
 13  2  1  0
 14 13  2  0
 16 15  1  0
 17 16  2  0
 18 16  1  0
 19 20  1  0
 19 18  1  0
 20 21  1  0
 22 21  1  6
 22 24  1  0
 22 23  1  0
 24 31  1  0
 25 24  2  0
 27 26  1  6
 27 28  1  0
 29 27  1  0
 30 32  1  0
 30 29  1  6
 31 30  1  0
 32 34  1  0
 33 32  2  0
M  END
$$$$
