WRL.pdb
     RDKit          3D

 34 35  0  0  1  0  0  0  0  0999 V2000
    9.1709  -16.0303   21.5346 N   0  0  0  0  0  0  0  0  0  0  0  0
    8.9226  -15.6400   22.8989 C   0  0  1  0  0  0  0  0  0  0  0  0
    7.4921  -15.3197   23.1171 C   0  0  0  0  0  0  0  0  0  0  0  0
    7.1598  -13.8912   23.0022 C   0  0  0  0  0  0  0  0  0  0  0  0
    7.0712  -13.1317   21.8307 C   0  0  0  0  0  0  0  0  0  0  0  0
    6.7041  -11.9020   22.1509 N   0  0  0  0  0  0  0  0  0  0  0  0
    6.5370  -11.7749   23.4876 C   0  0  0  0  0  0  0  0  0  0  0  0
    6.1861  -10.7337   24.3068 C   0  0  0  0  0  0  0  0  0  0  0  0
    6.1120  -10.9023   25.6794 C   0  0  0  0  0  0  0  0  0  0  0  0
    6.3938  -12.1272   26.1988 C   0  0  0  0  0  0  0  0  0  0  0  0
    6.7414  -13.1683   25.3957 C   0  0  0  0  0  0  0  0  0  0  0  0
    6.8265  -13.0337   24.0112 C   0  0  0  0  0  0  0  0  0  0  0  0
    9.4232  -16.7238   23.7857 C   0  0  0  0  0  0  0  0  0  0  0  0
    8.7897  -17.0485   24.8333 O   0  0  0  0  0  0  0  0  0  0  0  0
   12.5196  -19.3764   19.6293 N   0  0  0  0  0  0  0  0  0  0  0  0
   12.6628  -20.7940   19.7638 C   0  0  0  0  0  0  0  0  0  0  0  0
   12.4635  -21.5799   18.7720 N   0  0  0  0  0  0  0  0  0  0  0  0
   13.0259  -21.3872   20.9988 N   0  0  0  0  0  0  0  0  0  0  0  0
   13.2208  -20.6019   22.1744 C   0  0  0  0  0  0  0  0  0  0  0  0
   11.9716  -19.9566   22.7064 C   0  0  0  0  0  0  0  0  0  0  0  0
   12.3723  -19.1323   23.9260 C   0  0  0  0  0  0  0  0  0  0  0  0
   11.2534  -18.3050   24.4410 C   0  0  2  0  0  0  0  0  0  0  0  0
   10.6346  -17.4263   23.4869 N   0  0  0  0  0  0  0  0  0  0  0  0
   11.6710  -17.6139   25.6919 C   0  0  0  0  0  0  0  0  0  0  0  0
   12.6658  -16.8797   25.6989 O   0  0  0  0  0  0  0  0  0  0  0  0
   12.5334  -22.6097   18.9126 C   0  0  0  0  0  0  0  0  0  0  0  0
    8.6657  -14.7517   28.2518 C   0  0  1  0  0  0  0  0  0  0  0  0
    9.9588  -15.3795   27.8370 C   0  0  0  0  0  0  0  0  0  0  0  0
   11.0226  -14.2757   27.7971 C   0  0  0  0  0  0  0  0  0  0  0  0
   10.4352  -16.4532   28.7543 C   0  0  2  0  0  0  0  0  0  0  0  0
   11.4211  -17.4126   28.1843 N   0  0  0  0  0  0  0  0  0  0  0  0
   10.9207  -17.8015   26.8739 C   0  0  0  0  0  0  0  0  0  0  0  0
   11.5577  -18.6184   29.0153 O   0  0  0  0  0  0  0  0  0  0  0  0
   11.0686  -19.7084   28.5896 O   0  0  0  0  0  0  0  0  0  0  0  0
  2  1  1  6
  2  3  1  0
  4  5  2  0
  4  3  1  0
  6  5  1  0
  7 12  2  0
  7  6  1  0
  8  7  1  0
  9 10  1  0
  9  8  2  0
 10 11  2  0
 11 12  1  0
 12  4  1  0
 13 23  1  0
 13  2  1  0
 14 13  2  0
 16 15  1  0
 17 16  2  0
 18 16  1  0
 19 20  1  0
 19 18  1  0
 20 21  1  0
 22 21  1  6
 22 24  1  0
 22 23  1  0
 24 31  1  0
 25 24  2  0
 27 26  1  6
 27 28  1  0
 29 27  1  0
 30 32  1  0
 30 29  1  6
 31 30  1  0
 32 34  1  0
 33 32  2  0
M  END
$$$$
