WRL.pdb
     RDKit          3D

 34 35  0  0  1  0  0  0  0  0999 V2000
    5.7934  -18.6159   25.2864 N   0  0  0  0  0  0  0  0  0  0  0  0
    6.1549  -17.2259   25.1733 C   0  0  1  0  0  0  0  0  0  0  0  0
    6.6543  -16.6913   26.4622 C   0  0  0  0  0  0  0  0  0  0  0  0
    6.1519  -15.3519   26.8056 C   0  0  0  0  0  0  0  0  0  0  0  0
    4.9077  -15.0274   27.3569 C   0  0  0  0  0  0  0  0  0  0  0  0
    4.8619  -13.7208   27.5570 N   0  0  0  0  0  0  0  0  0  0  0  0
    6.0137  -13.1267   27.1684 C   0  0  0  0  0  0  0  0  0  0  0  0
    6.4559  -11.8295   27.1527 C   0  0  0  0  0  0  0  0  0  0  0  0
    7.7130  -11.5123   26.6659 C   0  0  0  0  0  0  0  0  0  0  0  0
    8.5028  -12.5185   26.2041 C   0  0  0  0  0  0  0  0  0  0  0  0
    8.0756  -13.8097   26.2162 C   0  0  0  0  0  0  0  0  0  0  0  0
    6.8168  -14.1642   26.6979 C   0  0  0  0  0  0  0  0  0  0  0  0
    7.1365  -17.0950   24.0638 C   0  0  0  0  0  0  0  0  0  0  0  0
    7.9378  -18.0378   23.7928 O   0  0  0  0  0  0  0  0  0  0  0  0
    8.2095  -13.2889   16.2881 N   0  0  0  0  0  0  0  0  0  0  0  0
    9.3246  -13.9216   16.9241 C   0  0  0  0  0  0  0  0  0  0  0  0
   10.5174  -13.4813   16.7677 N   0  0  0  0  0  0  0  0  0  0  0  0
    9.1570  -15.0625   17.7482 N   0  0  0  0  0  0  0  0  0  0  0  0
    8.3087  -15.0355   18.8954 C   0  0  0  0  0  0  0  0  0  0  0  0
    8.9898  -14.6024   20.1635 C   0  0  0  0  0  0  0  0  0  0  0  0
    7.9459  -14.6449   21.2753 C   0  0  0  0  0  0  0  0  0  0  0  0
    8.2023  -15.7341   22.2497 C   0  0  2  0  0  0  0  0  0  0  0  0
    7.2098  -15.9020   23.2754 N   0  0  0  0  0  0  0  0  0  0  0  0
    9.5867  -15.6167   22.7849 C   0  0  0  0  0  0  0  0  0  0  0  0
   10.5490  -15.5185   22.0148 O   0  0  0  0  0  0  0  0  0  0  0  0
   11.2963  -13.9082   17.3122 C   0  0  0  0  0  0  0  0  0  0  0  0
    9.6925  -14.3466   28.1916 C   0  0  1  0  0  0  0  0  0  0  0  0
    9.9051  -14.3541   26.7106 C   0  0  0  0  0  0  0  0  0  0  0  0
   10.3829  -12.9560   26.3001 C   0  0  0  0  0  0  0  0  0  0  0  0
   10.9150  -15.3470   26.2464 C   0  0  2  0  0  0  0  0  0  0  0  0
   11.1129  -15.4409   24.7735 N   0  0  0  0  0  0  0  0  0  0  0  0
    9.7945  -15.6168   24.1821 C   0  0  0  0  0  0  0  0  0  0  0  0
   11.9537  -16.5899   24.4045 O   0  0  0  0  0  0  0  0  0  0  0  0
   13.1791  -16.5761   24.7315 O   0  0  0  0  0  0  0  0  0  0  0  0
  2  1  1  1
  2  3  1  0
  4  5  2  0
  4  3  1  0
  6  5  1  0
  7 12  2  0
  7  6  1  0
  8  7  1  0
  9 10  1  0
  9  8  2  0
 10 11  2  0
 11 12  1  0
 12  4  1  0
 13 23  1  0
 13  2  1  0
 14 13  2  0
 16 15  1  0
 17 16  2  0
 18 16  1  0
 19 20  1  0
 19 18  1  0
 20 21  1  0
 22 21  1  1
 22 24  1  0
 22 23  1  0
 24 31  1  0
 25 24  2  0
 27 26  1  6
 27 28  1  0
 29 27  1  0
 30 32  1  0
 30 29  1  6
 31 30  1  0
 32 34  1  0
 33 32  2  0
M  END
$$$$
