QVD.pdb
     RDKit          3D

 25 24  0  0  1  0  0  0  0  0999 V2000
    7.6155  -18.9961   13.9762 N   0  0  0  0  0  0  0  0  0  0  0  0
    8.4815  -19.3067   15.0853 C   0  0  0  0  0  0  0  0  0  0  0  0
    9.6772  -19.5039   14.7793 O   0  0  0  0  0  0  0  0  0  0  0  0
    7.9533  -19.3810   16.4530 C   0  0  0  0  0  0  0  0  0  0  0  0
    8.6718  -18.5823   17.4872 C   0  0  0  0  0  0  0  0  0  0  0  0
    8.1588  -17.1928   17.5645 C   0  0  2  0  0  0  0  0  0  0  0  0
    8.2698  -16.5313   16.2937 N   0  0  0  0  0  0  0  0  0  0  0  0
    8.8570  -16.3606   18.5642 C   0  0  0  0  0  0  0  0  0  0  0  0
   10.1089  -16.1662   18.4868 O   0  0  0  0  0  0  0  0  0  0  0  0
    6.6979  -14.3220   21.7620 C   0  0  0  0  0  0  0  0  0  0  0  0
    7.9781  -13.8518   21.1494 C   0  0  2  0  0  0  0  0  0  0  0  0
    7.5811  -12.9198   20.0010 C   0  0  0  0  0  0  0  0  0  0  0  0
    8.8681  -14.9664   20.6436 C   0  0  2  0  0  0  0  0  0  0  0  0
    8.1519  -15.7643   19.6284 N   0  0  0  0  0  0  0  0  0  0  0  0
    9.3681  -15.8284   21.7270 C   0  0  0  0  0  0  0  0  0  0  0  0
    8.8152  -16.8994   22.0816 O   0  0  0  0  0  0  0  0  0  0  0  0
   10.5566  -15.4952   22.4739 N   0  0  0  0  0  0  0  0  0  0  0  0
   10.9920  -16.3726   23.5889 C   0  0  1  0  0  0  0  0  0  0  0  0
   12.4318  -16.1053   23.9136 C   0  0  0  0  0  0  0  0  0  0  0  0
   13.2903  -16.5675   22.8118 C   0  0  0  0  0  0  0  0  0  0  0  0
   14.3209  -15.8858   22.4625 O   0  0  0  0  0  0  0  0  0  0  0  0
   10.1566  -15.9364   24.7270 C   0  0  0  0  0  0  0  0  0  0  0  0
   10.0414  -16.6571   25.9019 O   0  0  0  0  0  0  0  0  0  0  0  0
   13.1010  -17.7199   22.0630 O   0  0  0  0  0  0  0  0  0  0  0  0
    9.5159  -14.8735   24.6498 O   0  0  0  0  0  0  0  0  0  0  0  0
  1  2  1  0
  2  3  2  0
  4  2  1  0
  4  5  1  0
  6  5  1  0
  6  8  1  0
  6  7  1  6
  8  9  2  0
 11 10  1  6
 11 12  1  0
 11 13  1  0
 13 15  1  0
 13 14  1  6
 14  8  1  0
 15 17  1  0
 16 15  2  0
 17 18  1  0
 18 19  1  1
 20 19  1  0
 21 20  2  0
 22 18  1  0
 23 22  1  0
 24 20  1  0
 25 22  2  0
M  END
$$$$
