QVD.pdb
     RDKit          3D

 25 24  0  0  1  0  0  0  0  0999 V2000
    5.5492  -17.7102   21.9406 N   0  0  0  0  0  0  0  0  0  0  0  0
    5.9471  -17.4990   20.5719 C   0  0  0  0  0  0  0  0  0  0  0  0
    5.1369  -17.9195   19.7181 O   0  0  0  0  0  0  0  0  0  0  0  0
    7.2199  -16.8407   20.2525 C   0  0  0  0  0  0  0  0  0  0  0  0
    7.9999  -16.3073   21.4061 C   0  0  0  0  0  0  0  0  0  0  0  0
    7.6310  -14.9052   21.7189 C   0  0  2  0  0  0  0  0  0  0  0  0
    7.9613  -14.0300   20.6282 N   0  0  0  0  0  0  0  0  0  0  0  0
    8.2896  -14.3779   22.9304 C   0  0  0  0  0  0  0  0  0  0  0  0
    9.5530  -14.2709   22.9882 O   0  0  0  0  0  0  0  0  0  0  0  0
    5.9477  -13.3790   26.4399 C   0  0  0  0  0  0  0  0  0  0  0  0
    7.3175  -12.8289   26.2016 C   0  0  2  0  0  0  0  0  0  0  0  0
    7.1160  -11.4629   25.5393 C   0  0  0  0  0  0  0  0  0  0  0  0
    8.1972  -13.7101   25.3415 C   0  0  2  0  0  0  0  0  0  0  0  0
    7.5329  -13.9829   24.0514 N   0  0  0  0  0  0  0  0  0  0  0  0
    8.5697  -14.9664   26.0123 C   0  0  0  0  0  0  0  0  0  0  0  0
    7.8545  -15.9993   26.0118 O   0  0  0  0  0  0  0  0  0  0  0  0
    9.8119  -15.1016   26.7333 N   0  0  0  0  0  0  0  0  0  0  0  0
   10.1703  -16.4088   27.3379 C   0  0  1  0  0  0  0  0  0  0  0  0
   11.5089  -16.8544   26.8287 C   0  0  0  0  0  0  0  0  0  0  0  0
   11.9067  -18.1077   27.4888 C   0  0  0  0  0  0  0  0  0  0  0  0
   11.1540  -19.1456   27.4178 O   0  0  0  0  0  0  0  0  0  0  0  0
   10.2831  -16.1103   28.7807 C   0  0  0  0  0  0  0  0  0  0  0  0
   10.2164  -14.8286   29.2963 O   0  0  0  0  0  0  0  0  0  0  0  0
   13.0669  -18.3063   28.2229 O   0  0  0  0  0  0  0  0  0  0  0  0
   10.4466  -17.0388   29.5915 O   0  0  0  0  0  0  0  0  0  0  0  0
  1  2  1  0
  2  3  2  0
  4  2  1  0
  4  5  1  0
  6  5  1  0
  6  8  1  0
  6  7  1  6
  8  9  2  0
 11 10  1  6
 11 12  1  0
 11 13  1  0
 13 15  1  0
 13 14  1  6
 14  8  1  0
 15 17  1  0
 16 15  2  0
 17 18  1  0
 18 19  1  6
 20 19  1  0
 21 20  2  0
 22 18  1  0
 23 22  1  0
 24 20  1  0
 25 22  2  0
M  END
$$$$
