QVD.pdb
     RDKit          3D

 25 24  0  0  1  0  0  0  0  0999 V2000
    5.5178  -18.4678   21.3211 N   0  0  0  0  0  0  0  0  0  0  0  0
    6.9205  -18.7613   21.1712 C   0  0  0  0  0  0  0  0  0  0  0  0
    7.2683  -19.8894   21.5817 O   0  0  0  0  0  0  0  0  0  0  0  0
    7.8352  -17.7764   20.5808 C   0  0  0  0  0  0  0  0  0  0  0  0
    8.7005  -17.0199   21.5310 C   0  0  0  0  0  0  0  0  0  0  0  0
    8.1938  -15.6453   21.7621 C   0  0  2  0  0  0  0  0  0  0  0  0
    8.5803  -14.7672   20.6924 N   0  0  0  0  0  0  0  0  0  0  0  0
    8.6676  -15.0462   23.0255 C   0  0  0  0  0  0  0  0  0  0  0  0
    9.9028  -14.8251   23.2162 O   0  0  0  0  0  0  0  0  0  0  0  0
    6.6978  -12.2150   25.2496 C   0  0  0  0  0  0  0  0  0  0  0  0
    7.1743  -13.3955   26.0338 C   0  0  2  0  0  0  0  0  0  0  0  0
    7.6852  -12.8406   27.3665 C   0  0  0  0  0  0  0  0  0  0  0  0
    8.2557  -14.1999   25.3454 C   0  0  2  0  0  0  0  0  0  0  0  0
    7.7614  -14.7075   24.0499 N   0  0  0  0  0  0  0  0  0  0  0  0
    8.7596  -15.3029   26.1799 C   0  0  0  0  0  0  0  0  0  0  0  0
    8.0524  -16.2651   26.5706 O   0  0  0  0  0  0  0  0  0  0  0  0
   10.1336  -15.3569   26.6165 N   0  0  0  0  0  0  0  0  0  0  0  0
   10.6105  -16.5278   27.3938 C   0  0  1  0  0  0  0  0  0  0  0  0
   12.0951  -16.6723   27.2357 C   0  0  0  0  0  0  0  0  0  0  0  0
   12.4475  -16.7131   25.8078 C   0  0  0  0  0  0  0  0  0  0  0  0
   11.8352  -17.5125   25.0111 O   0  0  0  0  0  0  0  0  0  0  0  0
   10.3122  -16.1653   28.7949 C   0  0  0  0  0  0  0  0  0  0  0  0
   10.4468  -17.0486   29.8507 O   0  0  0  0  0  0  0  0  0  0  0  0
   13.4232  -15.9447   25.1897 O   0  0  0  0  0  0  0  0  0  0  0  0
    9.9193  -15.0167   29.0643 O   0  0  0  0  0  0  0  0  0  0  0  0
  1  2  1  0
  2  3  2  0
  4  2  1  0
  4  5  1  0
  6  5  1  0
  6  8  1  0
  6  7  1  6
  8  9  2  0
 11 10  1  6
 11 12  1  0
 11 13  1  0
 13 15  1  0
 13 14  1  6
 14  8  1  0
 15 17  1  0
 16 15  2  0
 17 18  1  0
 18 19  1  1
 20 19  1  0
 21 20  2  0
 22 18  1  0
 23 22  1  0
 24 20  1  0
 25 22  2  0
M  END
$$$$
