QVD.pdb
     RDKit          3D

 25 24  0  0  1  0  0  0  0  0999 V2000
    6.6671  -17.0266   13.1970 N   0  0  0  0  0  0  0  0  0  0  0  0
    7.0534  -17.8211   14.3354 C   0  0  0  0  0  0  0  0  0  0  0  0
    6.1098  -18.1705   15.0770 O   0  0  0  0  0  0  0  0  0  0  0  0
    8.4616  -18.1641   14.5692 C   0  0  0  0  0  0  0  0  0  0  0  0
    9.0877  -17.5993   15.7991 C   0  0  0  0  0  0  0  0  0  0  0  0
    9.2624  -16.1296   15.7029 C   0  0  2  0  0  0  0  0  0  0  0  0
   10.2547  -15.7921   14.7201 N   0  0  0  0  0  0  0  0  0  0  0  0
    9.6614  -15.4980   16.9762 C   0  0  0  0  0  0  0  0  0  0  0  0
   10.8737  -15.5035   17.3518 O   0  0  0  0  0  0  0  0  0  0  0  0
    8.3737  -12.4221   20.6924 C   0  0  0  0  0  0  0  0  0  0  0  0
    7.9973  -13.3045   19.5456 C   0  0  2  0  0  0  0  0  0  0  0  0
    6.8485  -14.1841   20.0472 C   0  0  0  0  0  0  0  0  0  0  0  0
    9.1317  -14.1605   19.0252 C   0  0  2  0  0  0  0  0  0  0  0  0
    8.7070  -14.8762   17.8055 N   0  0  0  0  0  0  0  0  0  0  0  0
    9.6383  -15.1048   20.0344 C   0  0  0  0  0  0  0  0  0  0  0  0
    9.2608  -16.2995   20.1276 O   0  0  0  0  0  0  0  0  0  0  0  0
   10.6275  -14.7143   21.0093 N   0  0  0  0  0  0  0  0  0  0  0  0
   11.1376  -15.7162   21.9782 C   0  0  1  0  0  0  0  0  0  0  0  0
   12.5114  -15.3263   22.4367 C   0  0  0  0  0  0  0  0  0  0  0  0
   13.5205  -16.1691   21.7762 C   0  0  0  0  0  0  0  0  0  0  0  0
   13.2495  -17.3864   21.4705 O   0  0  0  0  0  0  0  0  0  0  0  0
   10.2047  -15.6091   23.1191 C   0  0  0  0  0  0  0  0  0  0  0  0
    9.2548  -14.6099   23.2294 O   0  0  0  0  0  0  0  0  0  0  0  0
   14.8050  -15.7770   21.4289 O   0  0  0  0  0  0  0  0  0  0  0  0
   10.2560  -16.4453   24.0380 O   0  0  0  0  0  0  0  0  0  0  0  0
  1  2  1  0
  2  3  2  0
  4  2  1  0
  4  5  1  0
  6  5  1  0
  6  8  1  0
  6  7  1  6
  8  9  2  0
 11 10  1  1
 11 12  1  0
 11 13  1  0
 13 15  1  0
 13 14  1  6
 14  8  1  0
 15 17  1  0
 16 15  2  0
 17 18  1  0
 18 19  1  1
 20 19  1  0
 21 20  2  0
 22 18  1  0
 23 22  1  0
 24 20  1  0
 25 22  2  0
M  END
$$$$
