QVD.pdb
     RDKit          3D

 25 24  0  0  1  0  0  0  0  0999 V2000
    5.8485  -20.5698   24.6669 N   0  0  0  0  0  0  0  0  0  0  0  0
    5.4533  -20.3364   23.3010 C   0  0  0  0  0  0  0  0  0  0  0  0
    4.6659  -21.1848   22.8294 O   0  0  0  0  0  0  0  0  0  0  0  0
    5.9672  -19.1795   22.5575 C   0  0  0  0  0  0  0  0  0  0  0  0
    6.7516  -18.1817   23.3401 C   0  0  0  0  0  0  0  0  0  0  0  0
    6.6747  -16.8276   22.7398 C   0  0  2  0  0  0  0  0  0  0  0  0
    7.0852  -16.8504   21.3630 N   0  0  0  0  0  0  0  0  0  0  0  0
    7.5041  -15.8248   23.4370 C   0  0  0  0  0  0  0  0  0  0  0  0
    8.7385  -15.7030   23.1680 O   0  0  0  0  0  0  0  0  0  0  0  0
    7.8057  -12.0877   26.7378 C   0  0  0  0  0  0  0  0  0  0  0  0
    7.0165  -12.9911   25.8453 C   0  0  2  0  0  0  0  0  0  0  0  0
    5.8675  -13.5331   26.7003 C   0  0  0  0  0  0  0  0  0  0  0  0
    7.8182  -14.1294   25.2522 C   0  0  2  0  0  0  0  0  0  0  0  0
    6.9467  -14.9811   24.4182 N   0  0  0  0  0  0  0  0  0  0  0  0
    8.5062  -14.9322   26.2764 C   0  0  0  0  0  0  0  0  0  0  0  0
    7.9429  -15.8170   26.9680 O   0  0  0  0  0  0  0  0  0  0  0  0
    9.9089  -14.7544   26.5632 N   0  0  0  0  0  0  0  0  0  0  0  0
   10.6276  -15.7733   27.3682 C   0  0  1  0  0  0  0  0  0  0  0  0
   12.0755  -15.8008   26.9777 C   0  0  0  0  0  0  0  0  0  0  0  0
   12.7960  -16.7970   27.7861 C   0  0  0  0  0  0  0  0  0  0  0  0
   12.1512  -17.5937   28.5597 O   0  0  0  0  0  0  0  0  0  0  0  0
   10.5157  -15.2707   28.7532 C   0  0  0  0  0  0  0  0  0  0  0  0
    9.9895  -14.0312   29.0689 O   0  0  0  0  0  0  0  0  0  0  0  0
   14.1705  -16.9822   27.8113 O   0  0  0  0  0  0  0  0  0  0  0  0
   10.9067  -15.9772   29.6990 O   0  0  0  0  0  0  0  0  0  0  0  0
  1  2  1  0
  2  3  2  0
  4  2  1  0
  4  5  1  0
  6  5  1  0
  6  8  1  0
  6  7  1  6
  8  9  2  0
 11 10  1  1
 11 12  1  0
 11 13  1  0
 13 15  1  0
 13 14  1  1
 14  8  1  0
 15 17  1  0
 16 15  2  0
 17 18  1  0
 18 19  1  6
 20 19  1  0
 21 20  2  0
 22 18  1  0
 23 22  1  0
 24 20  1  0
 25 22  2  0
M  END
$$$$
