QVD.pdb
     RDKit          3D

 25 24  0  0  1  0  0  0  0  0999 V2000
    7.5282  -13.6044   17.0961 N   0  0  0  0  0  0  0  0  0  0  0  0
    7.8744  -14.6483   18.0270 C   0  0  0  0  0  0  0  0  0  0  0  0
    8.9411  -15.2477   17.7718 O   0  0  0  0  0  0  0  0  0  0  0  0
    7.0059  -14.9535   19.1707 C   0  0  0  0  0  0  0  0  0  0  0  0
    7.6626  -15.0053   20.5085 C   0  0  0  0  0  0  0  0  0  0  0  0
    7.3114  -13.8285   21.3402 C   0  0  2  0  0  0  0  0  0  0  0  0
    7.5768  -12.6035   20.6376 N   0  0  0  0  0  0  0  0  0  0  0  0
    8.0391  -13.7745   22.6236 C   0  0  0  0  0  0  0  0  0  0  0  0
    9.2737  -13.4824   22.6581 O   0  0  0  0  0  0  0  0  0  0  0  0
    5.9163  -13.6530   26.3046 C   0  0  0  0  0  0  0  0  0  0  0  0
    7.3283  -13.1915   26.1345 C   0  0  2  0  0  0  0  0  0  0  0  0
    7.2459  -11.7194   25.7208 C   0  0  0  0  0  0  0  0  0  0  0  0
    8.1199  -13.9842   25.1171 C   0  0  2  0  0  0  0  0  0  0  0  0
    7.3819  -14.0475   23.8397 N   0  0  0  0  0  0  0  0  0  0  0  0
    8.4592  -15.3359   25.5910 C   0  0  0  0  0  0  0  0  0  0  0  0
    7.6439  -16.2913   25.6251 O   0  0  0  0  0  0  0  0  0  0  0  0
    9.7833  -15.6650   26.0597 N   0  0  0  0  0  0  0  0  0  0  0  0
   10.0648  -17.0335   26.5606 C   0  0  1  0  0  0  0  0  0  0  0  0
   11.5126  -17.3640   26.3500 C   0  0  0  0  0  0  0  0  0  0  0  0
   11.8397  -17.3020   24.9168 C   0  0  0  0  0  0  0  0  0  0  0  0
   11.0602  -17.8399   24.0497 O   0  0  0  0  0  0  0  0  0  0  0  0
    9.8027  -16.9381   28.0117 C   0  0  0  0  0  0  0  0  0  0  0  0
    9.7859  -15.7391   28.7010 O   0  0  0  0  0  0  0  0  0  0  0  0
   12.9589  -16.6966   24.3645 O   0  0  0  0  0  0  0  0  0  0  0  0
    9.5838  -17.9714   28.6679 O   0  0  0  0  0  0  0  0  0  0  0  0
  1  2  1  0
  2  3  2  0
  4  2  1  0
  4  5  1  0
  6  5  1  0
  6  8  1  0
  6  7  1  6
  8  9  2  0
 11 10  1  6
 11 12  1  0
 11 13  1  0
 13 15  1  0
 13 14  1  6
 14  8  1  0
 15 17  1  0
 16 15  2  0
 17 18  1  0
 18 19  1  1
 20 19  1  0
 21 20  2  0
 22 18  1  0
 23 22  1  0
 24 20  1  0
 25 22  2  0
M  END
$$$$
