QVD.pdb
     RDKit          3D

 25 24  0  0  1  0  0  0  0  0999 V2000
   10.4138  -16.6185   14.4766 N   0  0  0  0  0  0  0  0  0  0  0  0
    9.0020  -16.7769   14.2352 C   0  0  0  0  0  0  0  0  0  0  0  0
    8.6025  -16.3272   13.1395 O   0  0  0  0  0  0  0  0  0  0  0  0
    8.1367  -17.4187   15.2324 C   0  0  0  0  0  0  0  0  0  0  0  0
    8.8142  -17.9858   16.4336 C   0  0  0  0  0  0  0  0  0  0  0  0
    8.1083  -17.6230   17.6865 C   0  0  2  0  0  0  0  0  0  0  0  0
    6.8060  -17.0841   17.4066 N   0  0  0  0  0  0  0  0  0  0  0  0
    8.8342  -16.6340   18.5078 C   0  0  0  0  0  0  0  0  0  0  0  0
   10.0687  -16.4109   18.3151 O   0  0  0  0  0  0  0  0  0  0  0  0
    6.8085  -14.2494   21.5374 C   0  0  0  0  0  0  0  0  0  0  0  0
    8.0744  -13.8551   20.8462 C   0  0  2  0  0  0  0  0  0  0  0  0
    7.6522  -13.0300   19.6272 C   0  0  0  0  0  0  0  0  0  0  0  0
    8.9375  -15.0236   20.4219 C   0  0  2  0  0  0  0  0  0  0  0  0
    8.1756  -15.9161   19.5257 N   0  0  0  0  0  0  0  0  0  0  0  0
    9.4796  -15.7732   21.5670 C   0  0  0  0  0  0  0  0  0  0  0  0
    8.9623  -16.8224   22.0253 O   0  0  0  0  0  0  0  0  0  0  0  0
   10.6713  -15.3447   22.2581 N   0  0  0  0  0  0  0  0  0  0  0  0
   11.3477  -16.2731   23.1979 C   0  0  1  0  0  0  0  0  0  0  0  0
   12.8106  -15.9493   23.2674 C   0  0  0  0  0  0  0  0  0  0  0  0
   13.4841  -16.8621   24.2044 C   0  0  0  0  0  0  0  0  0  0  0  0
   12.8290  -17.8108   24.7698 O   0  0  0  0  0  0  0  0  0  0  0  0
   10.7278  -15.9659   24.5035 C   0  0  0  0  0  0  0  0  0  0  0  0
    9.7532  -14.9987   24.6703 O   0  0  0  0  0  0  0  0  0  0  0  0
   14.8214  -16.8101   24.5694 O   0  0  0  0  0  0  0  0  0  0  0  0
   11.0821  -16.5930   25.5171 O   0  0  0  0  0  0  0  0  0  0  0  0
  1  2  1  0
  2  3  2  0
  4  2  1  0
  4  5  1  0
  6  5  1  0
  6  8  1  0
  6  7  1  6
  8  9  2  0
 11 10  1  6
 11 12  1  0
 11 13  1  0
 13 15  1  0
 13 14  1  6
 14  8  1  0
 15 17  1  0
 16 15  2  0
 17 18  1  0
 18 19  1  1
 20 19  1  0
 21 20  2  0
 22 18  1  0
 23 22  1  0
 24 20  1  0
 25 22  2  0
M  END
$$$$
