QVD.pdb
     RDKit          3D

 25 24  0  0  1  0  0  0  0  0999 V2000
    6.0466  -19.4751   19.1694 N   0  0  0  0  0  0  0  0  0  0  0  0
    5.6493  -19.4108   17.7857 C   0  0  0  0  0  0  0  0  0  0  0  0
    4.5438  -19.9357   17.5314 O   0  0  0  0  0  0  0  0  0  0  0  0
    6.5131  -18.7725   16.7849 C   0  0  0  0  0  0  0  0  0  0  0  0
    7.7883  -18.1841   17.2861 C   0  0  0  0  0  0  0  0  0  0  0  0
    7.9298  -16.7609   16.8932 C   0  0  2  0  0  0  0  0  0  0  0  0
    8.5371  -16.6425   15.5963 N   0  0  0  0  0  0  0  0  0  0  0  0
    8.7368  -15.9648   17.8390 C   0  0  0  0  0  0  0  0  0  0  0  0
    9.9935  -15.8624   17.6940 O   0  0  0  0  0  0  0  0  0  0  0  0
    6.9619  -14.1344   21.3902 C   0  0  0  0  0  0  0  0  0  0  0  0
    8.1177  -13.5528   20.6409 C   0  0  2  0  0  0  0  0  0  0  0  0
    7.5193  -12.5473   19.6529 C   0  0  0  0  0  0  0  0  0  0  0  0
    8.9596  -14.5764   19.9104 C   0  0  2  0  0  0  0  0  0  0  0  0
    8.1325  -15.3018   18.9256 N   0  0  0  0  0  0  0  0  0  0  0  0
    9.6277  -15.5172   20.8244 C   0  0  0  0  0  0  0  0  0  0  0  0
    9.2415  -16.6966   21.0206 O   0  0  0  0  0  0  0  0  0  0  0  0
   10.8006  -15.1411   21.5755 N   0  0  0  0  0  0  0  0  0  0  0  0
   11.5796  -16.1834   22.2894 C   0  0  1  0  0  0  0  0  0  0  0  0
   13.0358  -15.8241   22.2817 C   0  0  0  0  0  0  0  0  0  0  0  0
   13.8053  -16.8257   23.0362 C   0  0  0  0  0  0  0  0  0  0  0  0
   13.6564  -18.0774   22.7914 O   0  0  0  0  0  0  0  0  0  0  0  0
   11.0767  -16.1103   23.6768 C   0  0  0  0  0  0  0  0  0  0  0  0
   10.0729  -15.2455   24.0739 O   0  0  0  0  0  0  0  0  0  0  0  0
   14.7236  -16.5568   24.0406 O   0  0  0  0  0  0  0  0  0  0  0  0
   11.5630  -16.8514   24.5488 O   0  0  0  0  0  0  0  0  0  0  0  0
  1  2  1  0
  2  3  2  0
  4  2  1  0
  4  5  1  0
  6  5  1  0
  6  8  1  0
  6  7  1  6
  8  9  2  0
 11 10  1  6
 11 12  1  0
 11 13  1  0
 13 15  1  0
 13 14  1  6
 14  8  1  0
 15 17  1  0
 16 15  2  0
 17 18  1  0
 18 19  1  1
 20 19  1  0
 21 20  2  0
 22 18  1  0
 23 22  1  0
 24 20  1  0
 25 22  2  0
M  END
$$$$
