QVD.pdb
     RDKit          3D

 25 24  0  0  1  0  0  0  0  0999 V2000
    8.1904  -12.7252   17.3320 N   0  0  0  0  0  0  0  0  0  0  0  0
    7.9578  -13.9350   18.0793 C   0  0  0  0  0  0  0  0  0  0  0  0
    8.2491  -14.9900   17.4756 O   0  0  0  0  0  0  0  0  0  0  0  0
    7.4127  -13.8836   19.4415 C   0  0  0  0  0  0  0  0  0  0  0  0
    8.4051  -13.8736   20.5544 C   0  0  0  0  0  0  0  0  0  0  0  0
    8.0537  -14.8498   21.6143 C   0  0  2  0  0  0  0  0  0  0  0  0
    6.6286  -14.9628   21.7586 N   0  0  0  0  0  0  0  0  0  0  0  0
    8.6116  -14.5100   22.9382 C   0  0  0  0  0  0  0  0  0  0  0  0
    9.8649  -14.4013   23.1062 O   0  0  0  0  0  0  0  0  0  0  0  0
    6.0536  -13.5143   26.3390 C   0  0  0  0  0  0  0  0  0  0  0  0
    7.4371  -13.0014   26.0973 C   0  0  2  0  0  0  0  0  0  0  0  0
    7.2753  -11.7111   25.2886 C   0  0  0  0  0  0  0  0  0  0  0  0
    8.3389  -13.9739   25.3685 C   0  0  2  0  0  0  0  0  0  0  0  0
    7.7674  -14.3005   24.0467 N   0  0  0  0  0  0  0  0  0  0  0  0
    8.5950  -15.1991   26.1432 C   0  0  0  0  0  0  0  0  0  0  0  0
    7.7566  -16.1233   26.2894 O   0  0  0  0  0  0  0  0  0  0  0  0
    9.8571  -15.4290   26.8033 N   0  0  0  0  0  0  0  0  0  0  0  0
   10.1018  -16.7232   27.4873 C   0  0  1  0  0  0  0  0  0  0  0  0
   11.3435  -17.3612   26.9386 C   0  0  0  0  0  0  0  0  0  0  0  0
   11.6550  -18.5860   27.6919 C   0  0  0  0  0  0  0  0  0  0  0  0
   10.7925  -19.0875   28.5003 O   0  0  0  0  0  0  0  0  0  0  0  0
   10.3437  -16.3381   28.8932 C   0  0  0  0  0  0  0  0  0  0  0  0
   10.2921  -15.0301   29.3397 O   0  0  0  0  0  0  0  0  0  0  0  0
   12.8427  -19.2997   27.6268 O   0  0  0  0  0  0  0  0  0  0  0  0
   10.6088  -17.2137   29.7354 O   0  0  0  0  0  0  0  0  0  0  0  0
  1  2  1  0
  2  3  2  0
  4  2  1  0
  4  5  1  0
  6  5  1  0
  6  8  1  0
  6  7  1  1
  8  9  2  0
 11 10  1  6
 11 12  1  0
 11 13  1  0
 13 15  1  0
 13 14  1  6
 14  8  1  0
 15 17  1  0
 16 15  2  0
 17 18  1  0
 18 19  1  6
 20 19  1  0
 21 20  2  0
 22 18  1  0
 23 22  1  0
 24 20  1  0
 25 22  2  0
M  END
$$$$
