QVD.pdb
     RDKit          3D

 25 24  0  0  1  0  0  0  0  0999 V2000
    7.2288  -18.3831   19.0138 N   0  0  0  0  0  0  0  0  0  0  0  0
    8.3914  -17.5702   19.2668 C   0  0  0  0  0  0  0  0  0  0  0  0
    9.4530  -18.2087   19.4335 O   0  0  0  0  0  0  0  0  0  0  0  0
    8.2875  -16.1069   19.3217 C   0  0  0  0  0  0  0  0  0  0  0  0
    8.8622  -15.4447   20.5279 C   0  0  0  0  0  0  0  0  0  0  0  0
    8.1712  -15.8680   21.7702 C   0  0  2  0  0  0  0  0  0  0  0  0
    6.7492  -15.6990   21.6519 N   0  0  0  0  0  0  0  0  0  0  0  0
    8.6108  -15.1300   22.9708 C   0  0  0  0  0  0  0  0  0  0  0  0
    9.8352  -14.8451   23.1458 O   0  0  0  0  0  0  0  0  0  0  0  0
    6.6733  -12.0975   24.8296 C   0  0  0  0  0  0  0  0  0  0  0  0
    7.0820  -13.1911   25.7637 C   0  0  2  0  0  0  0  0  0  0  0  0
    7.5786  -12.4981   27.0358 C   0  0  0  0  0  0  0  0  0  0  0  0
    8.1490  -14.1108   25.2104 C   0  0  2  0  0  0  0  0  0  0  0  0
    7.6833  -14.7261   23.9516 N   0  0  0  0  0  0  0  0  0  0  0  0
    8.5623  -15.1437   26.1743 C   0  0  0  0  0  0  0  0  0  0  0  0
    7.7714  -15.9628   26.7053 O   0  0  0  0  0  0  0  0  0  0  0  0
    9.9375  -15.2908   26.5850 N   0  0  0  0  0  0  0  0  0  0  0  0
   10.3363  -16.4608   27.4065 C   0  0  1  0  0  0  0  0  0  0  0  0
   11.6127  -17.0430   26.8759 C   0  0  0  0  0  0  0  0  0  0  0  0
   12.0586  -18.1483   27.7386 C   0  0  0  0  0  0  0  0  0  0  0  0
   11.2072  -18.8140   28.4321 O   0  0  0  0  0  0  0  0  0  0  0  0
   10.5937  -15.8822   28.7415 C   0  0  0  0  0  0  0  0  0  0  0  0
   10.7461  -14.5253   28.9623 O   0  0  0  0  0  0  0  0  0  0  0  0
   13.3685  -18.5757   27.8994 O   0  0  0  0  0  0  0  0  0  0  0  0
   10.6822  -16.6301   29.7310 O   0  0  0  0  0  0  0  0  0  0  0  0
  1  2  1  0
  2  3  2  0
  4  2  1  0
  4  5  1  0
  6  5  1  0
  6  8  1  0
  6  7  1  6
  8  9  2  0
 11 10  1  6
 11 12  1  0
 11 13  1  0
 13 15  1  0
 13 14  1  6
 14  8  1  0
 15 17  1  0
 16 15  2  0
 17 18  1  0
 18 19  1  6
 20 19  1  0
 21 20  2  0
 22 18  1  0
 23 22  1  0
 24 20  1  0
 25 22  2  0
M  END
$$$$
