PPP.pdb
     RDKit          3D

 22 24  0  0  1  0  0  0  0  0999 V2000
   24.2742  -21.7879  -11.6339 N   0  0  0  0  0  0  0  0  0  0  0  0
   23.6048  -20.9445  -12.6547 C   0  0  0  0  0  0  0  0  0  0  0  0
   23.9441  -19.5185  -12.2959 C   0  0  0  0  0  0  0  0  0  0  0  0
   24.8076  -19.6620  -11.0610 C   0  0  0  0  0  0  0  0  0  0  0  0
   25.4518  -21.0153  -11.3138 C   0  0  1  0  0  0  0  0  0  0  0  0
   26.3512  -21.4986  -10.3109 C   0  0  0  0  0  0  0  0  0  0  0  0
   25.9013  -22.3924   -9.4730 O   0  0  0  0  0  0  0  0  0  0  0  0
   27.6827  -21.0908  -10.1475 N   0  0  0  0  0  0  0  0  0  0  0  0
   28.6065  -20.4280  -11.0271 C   0  0  0  0  0  0  0  0  0  0  0  0
   29.8691  -21.2679  -10.7530 C   0  0  0  0  0  0  0  0  0  0  0  0
   29.8641  -21.2570   -9.2437 C   0  0  0  0  0  0  0  0  0  0  0  0
   28.4242  -21.3277   -8.8733 C   0  0  1  0  0  0  0  0  0  0  0  0
   28.0130  -20.2929   -7.9036 C   0  0  0  0  0  0  0  0  0  0  0  0
   27.2478  -19.3785   -8.2847 O   0  0  0  0  0  0  0  0  0  0  0  0
   28.4463  -20.2902   -6.5636 N   0  0  0  0  0  0  0  0  0  0  0  0
   29.3748  -21.2536   -6.0075 C   0  0  0  0  0  0  0  0  0  0  0  0
   29.3454  -21.0833   -4.5145 C   0  0  0  0  0  0  0  0  0  0  0  0
   28.0352  -20.3254   -4.3111 C   0  0  0  0  0  0  0  0  0  0  0  0
   28.0865  -19.3804   -5.4961 C   0  0  1  0  0  0  0  0  0  0  0  0
   29.1897  -18.4115   -5.2327 C   0  0  0  0  0  0  0  0  0  0  0  0
   30.2551  -18.3761   -5.8756 O   0  0  0  0  0  0  0  0  0  0  0  0
   29.0268  -17.4887   -4.2093 O   0  0  0  0  0  0  0  0  0  0  0  0
  1  2  1  0
  3  2  1  0
  4  3  1  0
  4  5  1  0
  5  1  1  0
  6  8  1  0
  5  6  1  1
  7  6  2  0
  8  9  1  0
 10  9  1  0
 11 10  1  0
 11 12  1  0
 12  8  1  0
 12 13  1  1
 13 15  1  0
 14 13  2  0
 15 19  1  0
 15 16  1  0
 16 17  1  0
 18 17  1  0
 19 20  1  1
 19 18  1  0
 20 22  1  0
 21 20  2  0
M  END
$$$$
