PPP.pdb
     RDKit          3D

 22 24  0  0  1  0  0  0  0  0999 V2000
   26.3966  -22.4827  -13.3487 N   0  0  0  0  0  0  0  0  0  0  0  0
   26.6177  -21.8035  -14.6493 C   0  0  0  0  0  0  0  0  0  0  0  0
   25.6883  -20.6146  -14.6548 C   0  0  0  0  0  0  0  0  0  0  0  0
   24.9875  -20.7091  -13.3165 C   0  0  0  0  0  0  0  0  0  0  0  0
   26.0594  -21.3828  -12.4755 C   0  0  1  0  0  0  0  0  0  0  0  0
   25.7313  -21.6532  -11.1088 C   0  0  0  0  0  0  0  0  0  0  0  0
   25.8138  -22.8895  -10.6987 O   0  0  0  0  0  0  0  0  0  0  0  0
   25.3235  -20.6991  -10.1658 N   0  0  0  0  0  0  0  0  0  0  0  0
   25.6305  -19.3038  -10.0065 C   0  0  0  0  0  0  0  0  0  0  0  0
   25.8562  -19.2634   -8.4825 C   0  0  0  0  0  0  0  0  0  0  0  0
   24.6197  -19.9941   -8.0186 C   0  0  0  0  0  0  0  0  0  0  0  0
   24.4004  -21.0489   -9.0456 C   0  0  1  0  0  0  0  0  0  0  0  0
   23.0232  -21.0772   -9.5774 C   0  0  0  0  0  0  0  0  0  0  0  0
   22.8224  -20.6986  -10.7536 O   0  0  0  0  0  0  0  0  0  0  0  0
   21.9219  -21.5133   -8.8157 N   0  0  0  0  0  0  0  0  0  0  0  0
   21.9568  -21.7232   -7.3824 C   0  0  0  0  0  0  0  0  0  0  0  0
   20.6959  -22.4530   -7.0129 C   0  0  0  0  0  0  0  0  0  0  0  0
   20.2488  -23.0098   -8.3629 C   0  0  0  0  0  0  0  0  0  0  0  0
   20.5816  -21.8336   -9.2605 C   0  0  1  0  0  0  0  0  0  0  0  0
   19.6323  -20.7372   -8.9111 C   0  0  0  0  0  0  0  0  0  0  0  0
   18.4714  -20.6528   -9.3523 O   0  0  0  0  0  0  0  0  0  0  0  0
   20.0618  -19.7454   -8.0407 O   0  0  0  0  0  0  0  0  0  0  0  0
  1  2  1  0
  3  2  1  0
  4  3  1  0
  4  5  1  0
  5  1  1  0
  6  8  1  0
  5  6  1  1
  7  6  2  0
  8  9  1  0
 10  9  1  0
 11 10  1  0
 11 12  1  0
 12  8  1  0
 12 13  1  6
 13 15  1  0
 14 13  2  0
 15 19  1  0
 15 16  1  0
 16 17  1  0
 18 17  1  0
 19 20  1  1
 19 18  1  0
 20 22  1  0
 21 20  2  0
M  END
$$$$
