PPP.pdb
     RDKit          3D

 22 24  0  0  1  0  0  0  0  0999 V2000
   24.1065  -21.5727  -11.3541 N   0  0  0  0  0  0  0  0  0  0  0  0
   23.5803  -20.7927  -12.5014 C   0  0  0  0  0  0  0  0  0  0  0  0
   24.1602  -19.4071  -12.3562 C   0  0  0  0  0  0  0  0  0  0  0  0
   24.9985  -19.5059  -11.0998 C   0  0  0  0  0  0  0  0  0  0  0  0
   25.4011  -20.9711  -11.1350 C   0  0  1  0  0  0  0  0  0  0  0  0
   26.2150  -21.4422  -10.0560 C   0  0  0  0  0  0  0  0  0  0  0  0
   25.6420  -22.1722   -9.1383 O   0  0  0  0  0  0  0  0  0  0  0  0
   27.5838  -21.1838   -9.8964 N   0  0  0  0  0  0  0  0  0  0  0  0
   28.5812  -20.6647  -10.7921 C   0  0  0  0  0  0  0  0  0  0  0  0
   29.7379  -21.6328  -10.4766 C   0  0  0  0  0  0  0  0  0  0  0  0
   29.7279  -21.5648   -8.9688 C   0  0  0  0  0  0  0  0  0  0  0  0
   28.2879  -21.4560   -8.6082 C   0  0  1  0  0  0  0  0  0  0  0  0
   27.9943  -20.3453   -7.6808 C   0  0  0  0  0  0  0  0  0  0  0  0
   27.3802  -19.3439   -8.1134 O   0  0  0  0  0  0  0  0  0  0  0  0
   28.3767  -20.3639   -6.3255 N   0  0  0  0  0  0  0  0  0  0  0  0
   29.1615  -21.4188   -5.7167 C   0  0  0  0  0  0  0  0  0  0  0  0
   29.0998  -21.2119   -4.2293 C   0  0  0  0  0  0  0  0  0  0  0  0
   27.8844  -20.2976   -4.0901 C   0  0  0  0  0  0  0  0  0  0  0  0
   28.0917  -19.3931   -5.2895 C   0  0  1  0  0  0  0  0  0  0  0  0
   29.2939  -18.5580   -5.0023 C   0  0  0  0  0  0  0  0  0  0  0  0
   29.3398  -17.6818   -4.1193 O   0  0  0  0  0  0  0  0  0  0  0  0
   30.4368  -18.7640   -5.7619 O   0  0  0  0  0  0  0  0  0  0  0  0
  1  2  1  0
  3  2  1  0
  4  3  1  0
  4  5  1  0
  5  1  1  0
  6  8  1  0
  5  6  1  1
  7  6  2  0
  8  9  1  0
 10  9  1  0
 11 10  1  0
 11 12  1  0
 12  8  1  0
 12 13  1  1
 13 15  1  0
 14 13  2  0
 15 19  1  0
 15 16  1  0
 16 17  1  0
 18 17  1  0
 19 20  1  1
 19 18  1  0
 20 22  1  0
 21 20  2  0
M  END
$$$$
