PPP.pdb
     RDKit          3D

 22 24  0  0  1  0  0  0  0  0999 V2000
   25.7077  -22.5094  -18.2683 N   0  0  0  0  0  0  0  0  0  0  0  0
   24.6384  -22.3649  -19.2867 C   0  0  0  0  0  0  0  0  0  0  0  0
   23.4537  -21.7795  -18.5578 C   0  0  0  0  0  0  0  0  0  0  0  0
   23.9531  -21.6299  -17.1368 C   0  0  0  0  0  0  0  0  0  0  0  0
   25.4380  -21.4079  -17.3738 C   0  0  1  0  0  0  0  0  0  0  0  0
   26.2574  -21.2359  -16.2130 C   0  0  0  0  0  0  0  0  0  0  0  0
   26.9036  -22.2786  -15.7672 O   0  0  0  0  0  0  0  0  0  0  0  0
   26.4257  -20.0367  -15.5063 N   0  0  0  0  0  0  0  0  0  0  0  0
   26.1766  -18.6647  -15.8558 C   0  0  0  0  0  0  0  0  0  0  0  0
   27.4601  -18.0206  -15.2967 C   0  0  0  0  0  0  0  0  0  0  0  0
   27.4763  -18.6322  -13.9168 C   0  0  0  0  0  0  0  0  0  0  0  0
   26.9658  -20.0163  -14.1144 C   0  0  1  0  0  0  0  0  0  0  0  0
   25.8714  -20.3787  -13.1919 C   0  0  0  0  0  0  0  0  0  0  0  0
   24.7332  -20.6008  -13.6633 O   0  0  0  0  0  0  0  0  0  0  0  0
   26.0535  -20.4857  -11.7996 N   0  0  0  0  0  0  0  0  0  0  0  0
   27.3056  -20.2197  -11.1206 C   0  0  0  0  0  0  0  0  0  0  0  0
   27.1591  -20.7233   -9.7121 C   0  0  0  0  0  0  0  0  0  0  0  0
   25.9633  -21.6648   -9.8385 C   0  0  0  0  0  0  0  0  0  0  0  0
   25.0911  -20.8633  -10.7855 C   0  0  1  0  0  0  0  0  0  0  0  0
   24.6183  -19.6652  -10.0331 C   0  0  0  0  0  0  0  0  0  0  0  0
   25.1855  -18.5573  -10.0580 O   0  0  0  0  0  0  0  0  0  0  0  0
   23.4760  -19.7840   -9.2542 O   0  0  0  0  0  0  0  0  0  0  0  0
  1  2  1  0
  3  2  1  0
  4  3  1  0
  4  5  1  0
  5  1  1  0
  6  8  1  0
  5  6  1  1
  7  6  2  0
  8  9  1  0
 10  9  1  0
 11 10  1  0
 11 12  1  0
 12  8  1  0
 12 13  1  1
 13 15  1  0
 14 13  2  0
 15 19  1  0
 15 16  1  0
 16 17  1  0
 18 17  1  0
 19 20  1  1
 19 18  1  0
 20 22  1  0
 21 20  2  0
M  END
$$$$
