YAW.pdb
     RDKit          3D

 32 34  0  0  1  0  0  0  0  0999 V2000
   31.0893  -16.4319  -18.1298 O   0  0  0  0  0  0  0  0  0  0  0  0
   30.0946  -16.6647  -17.1821 C   0  0  0  0  0  0  0  0  0  0  0  0
   29.2339  -15.6754  -16.7858 C   0  0  0  0  0  0  0  0  0  0  0  0
   28.2735  -15.9661  -15.8474 C   0  0  0  0  0  0  0  0  0  0  0  0
   28.1431  -17.2240  -15.2862 C   0  0  0  0  0  0  0  0  0  0  0  0
   27.0889  -17.4892  -14.2760 C   0  0  0  0  0  0  0  0  0  0  0  0
   25.9594  -18.2875  -14.9472 C   0  0  2  0  0  0  0  0  0  0  0  0
   25.0544  -17.3752  -15.6295 N   0  0  0  0  0  0  0  0  0  0  0  0
   25.2592  -18.9714  -13.8148 C   0  0  0  0  0  0  0  0  0  0  0  0
   24.5172  -18.2966  -13.0951 O   0  0  0  0  0  0  0  0  0  0  0  0
   28.9987  -18.2035  -15.6816 C   0  0  0  0  0  0  0  0  0  0  0  0
   29.9782  -17.9372  -16.6281 C   0  0  0  0  0  0  0  0  0  0  0  0
   24.3194  -22.4104  -12.8570 C   0  0  0  0  0  0  0  0  0  0  0  0
   24.7412  -21.0165  -12.4428 C   0  0  2  0  0  0  0  0  0  0  0  0
   25.4272  -20.3561  -13.5541 N   0  0  0  0  0  0  0  0  0  0  0  0
   25.6706  -21.0339  -11.2941 C   0  0  0  0  0  0  0  0  0  0  0  0
   26.8998  -21.1250  -11.5062 O   0  0  0  0  0  0  0  0  0  0  0  0
   25.2173  -20.9491   -9.9238 N   0  0  0  0  0  0  0  0  0  0  0  0
   26.1043  -21.1463   -8.8214 C   0  0  1  0  0  0  0  0  0  0  0  0
   27.1307  -20.1352   -8.5892 C   0  0  0  0  0  0  0  0  0  0  0  0
   28.2500  -20.4479   -7.6960 C   0  0  0  0  0  0  0  0  0  0  0  0
   29.3540  -21.2403   -7.8794 C   0  0  0  0  0  0  0  0  0  0  0  0
   30.0830  -21.1933   -6.7642 N   0  0  0  0  0  0  0  0  0  0  0  0
   29.4842  -20.3989   -5.8749 C   0  0  0  0  0  0  0  0  0  0  0  0
   29.8230  -20.0196   -4.5824 C   0  0  0  0  0  0  0  0  0  0  0  0
   28.9953  -19.1691   -3.8900 C   0  0  0  0  0  0  0  0  0  0  0  0
   27.8259  -18.6626   -4.4174 C   0  0  0  0  0  0  0  0  0  0  0  0
   27.4990  -19.0450   -5.6999 C   0  0  0  0  0  0  0  0  0  0  0  0
   28.3265  -19.9113   -6.4270 C   0  0  0  0  0  0  0  0  0  0  0  0
   25.3579  -21.3820   -7.5407 C   0  0  0  0  0  0  0  0  0  0  0  0
   24.1729  -20.9828   -7.4163 O   0  0  0  0  0  0  0  0  0  0  0  0
   25.9231  -22.0359   -6.4560 O   0  0  0  0  0  0  0  0  0  0  0  0
  2  1  1  0
  3  2  2  0
  4  3  1  0
  5  4  2  0
  5 11  1  0
  6  5  1  0
  7  6  1  0
  7  8  1  1
  9 10  2  0
  9  7  1  0
 11 12  2  0
 12  2  1  0
 14 13  1  6
 14 16  1  0
 14 15  1  0
 15  9  1  0
 16 18  1  0
 17 16  2  0
 18 19  1  0
 19 30  1  0
 19 20  1  1
 21 20  1  0
 21 29  1  0
 22 23  1  0
 22 21  2  0
 23 24  1  0
 24 25  2  0
 24 29  1  0
 25 26  1  0
 26 27  2  0
 28 27  1  0
 29 28  2  0
 30 31  2  0
 30 32  1  0
M  END
$$$$
