YAW.pdb
     RDKit          3D

 32 34  0  0  1  0  0  0  0  0999 V2000
   27.9884  -10.7055  -15.1666 O   0  0  0  0  0  0  0  0  0  0  0  0
   26.7987  -10.0277  -15.4251 C   0  0  0  0  0  0  0  0  0  0  0  0
   25.7394  -10.0789  -14.5579 C   0  0  0  0  0  0  0  0  0  0  0  0
   24.5924   -9.3893  -14.8677 C   0  0  0  0  0  0  0  0  0  0  0  0
   24.4669   -8.6430  -16.0261 C   0  0  0  0  0  0  0  0  0  0  0  0
   23.2071   -7.9147  -16.3165 C   0  0  0  0  0  0  0  0  0  0  0  0
   22.1272   -8.9403  -16.6981 C   0  0  2  0  0  0  0  0  0  0  0  0
   22.5442   -9.6708  -17.8852 N   0  0  0  0  0  0  0  0  0  0  0  0
   20.9128   -8.1153  -16.9897 C   0  0  0  0  0  0  0  0  0  0  0  0
   20.8674   -7.5021  -18.0601 O   0  0  0  0  0  0  0  0  0  0  0  0
   25.5198   -8.5942  -16.8845 C   0  0  0  0  0  0  0  0  0  0  0  0
   26.6906   -9.2815  -16.5960 C   0  0  0  0  0  0  0  0  0  0  0  0
   17.5314   -7.5919  -15.3960 C   0  0  0  0  0  0  0  0  0  0  0  0
   18.6204   -7.2638  -16.3955 C   0  0  2  0  0  0  0  0  0  0  0  0
   19.8299   -8.0237  -16.0771 N   0  0  0  0  0  0  0  0  0  0  0  0
   18.9786   -5.8303  -16.3784 C   0  0  0  0  0  0  0  0  0  0  0  0
   19.7280   -5.4003  -15.4742 O   0  0  0  0  0  0  0  0  0  0  0  0
   18.4970   -4.8949  -17.3701 N   0  0  0  0  0  0  0  0  0  0  0  0
   18.7797   -3.4969  -17.2898 C   0  0  1  0  0  0  0  0  0  0  0  0
   18.8415   -2.7459  -18.5395 C   0  0  0  0  0  0  0  0  0  0  0  0
   19.1972   -1.3245  -18.5000 C   0  0  0  0  0  0  0  0  0  0  0  0
   20.2031   -0.6661  -17.8405 C   0  0  0  0  0  0  0  0  0  0  0  0
   20.1062    0.6309  -18.1338 N   0  0  0  0  0  0  0  0  0  0  0  0
   19.0743    0.8244  -18.9573 C   0  0  0  0  0  0  0  0  0  0  0  0
   18.5526    1.9670  -19.5503 C   0  0  0  0  0  0  0  0  0  0  0  0
   17.4569    1.8602  -20.3723 C   0  0  0  0  0  0  0  0  0  0  0  0
   16.8357    0.6595  -20.6455 C   0  0  0  0  0  0  0  0  0  0  0  0
   17.3608   -0.4676  -20.0524 C   0  0  0  0  0  0  0  0  0  0  0  0
   18.4778   -0.3851  -19.2101 C   0  0  0  0  0  0  0  0  0  0  0  0
   17.8475   -2.7930  -16.3472 C   0  0  0  0  0  0  0  0  0  0  0  0
   16.6181   -3.0525  -16.3617 O   0  0  0  0  0  0  0  0  0  0  0  0
   18.2839   -1.8440  -15.4347 O   0  0  0  0  0  0  0  0  0  0  0  0
  2  1  1  0
  3  2  2  0
  4  3  1  0
  5  4  2  0
  5 11  1  0
  6  5  1  0
  7  6  1  0
  7  8  1  6
  9 10  2  0
  9  7  1  0
 11 12  2  0
 12  2  1  0
 14 13  1  1
 14 16  1  0
 14 15  1  0
 15  9  1  0
 16 18  1  0
 17 16  2  0
 18 19  1  0
 19 30  1  0
 19 20  1  6
 21 20  1  0
 21 29  1  0
 22 23  1  0
 22 21  2  0
 23 24  1  0
 24 25  2  0
 24 29  1  0
 25 26  1  0
 26 27  2  0
 28 27  1  0
 29 28  2  0
 30 31  2  0
 30 32  1  0
M  END
$$$$
