YAW.pdb
     RDKit          3D

 32 34  0  0  1  0  0  0  0  0999 V2000
   25.2822  -13.2653  -18.5075 O   0  0  0  0  0  0  0  0  0  0  0  0
   25.0122  -14.1543  -17.4689 C   0  0  0  0  0  0  0  0  0  0  0  0
   23.7948  -14.1777  -16.8413 C   0  0  0  0  0  0  0  0  0  0  0  0
   23.5886  -15.0772  -15.8236 C   0  0  0  0  0  0  0  0  0  0  0  0
   24.5673  -15.9624  -15.4078 C   0  0  0  0  0  0  0  0  0  0  0  0
   24.2964  -16.9161  -14.3036 C   0  0  0  0  0  0  0  0  0  0  0  0
   23.8738  -18.2623  -14.9140 C   0  0  2  0  0  0  0  0  0  0  0  0
   22.4238  -18.3164  -15.0225 N   0  0  0  0  0  0  0  0  0  0  0  0
   24.3653  -19.2867  -13.9396 C   0  0  0  0  0  0  0  0  0  0  0  0
   23.7409  -19.4357  -12.8852 O   0  0  0  0  0  0  0  0  0  0  0  0
   25.7743  -15.9366  -16.0326 C   0  0  0  0  0  0  0  0  0  0  0  0
   26.0095  -15.0380  -17.0639 C   0  0  0  0  0  0  0  0  0  0  0  0
   27.0633  -21.9322  -13.8856 C   0  0  0  0  0  0  0  0  0  0  0  0
   25.9767  -21.0919  -13.2485 C   0  0  2  0  0  0  0  0  0  0  0  0
   25.5151  -20.0775  -14.1970 N   0  0  0  0  0  0  0  0  0  0  0  0
   26.4538  -20.3868  -12.0407 C   0  0  0  0  0  0  0  0  0  0  0  0
   26.8092  -19.1913  -12.1336 O   0  0  0  0  0  0  0  0  0  0  0  0
   26.5283  -21.0238  -10.7449 N   0  0  0  0  0  0  0  0  0  0  0  0
   27.1663  -20.3971   -9.6309 C   0  0  1  0  0  0  0  0  0  0  0  0
   26.3512  -20.1185   -8.4529 C   0  0  0  0  0  0  0  0  0  0  0  0
   26.9351  -19.3542   -7.3468 C   0  0  0  0  0  0  0  0  0  0  0  0
   27.0457  -18.0022   -7.1461 C   0  0  0  0  0  0  0  0  0  0  0  0
   27.6540  -17.8092   -5.9756 N   0  0  0  0  0  0  0  0  0  0  0  0
   27.9359  -18.9897   -5.4212 C   0  0  0  0  0  0  0  0  0  0  0  0
   28.5536  -19.3385   -4.2271 C   0  0  0  0  0  0  0  0  0  0  0  0
   28.7106  -20.6664   -3.9114 C   0  0  0  0  0  0  0  0  0  0  0  0
   28.2810  -21.6901   -4.7298 C   0  0  0  0  0  0  0  0  0  0  0  0
   27.6697  -21.3335   -5.9117 C   0  0  0  0  0  0  0  0  0  0  0  0
   27.4975  -19.9862   -6.2566 C   0  0  0  0  0  0  0  0  0  0  0  0
   28.3978  -21.1409   -9.2031 C   0  0  0  0  0  0  0  0  0  0  0  0
   28.4003  -22.3971   -9.1745 O   0  0  0  0  0  0  0  0  0  0  0  0
   29.5668  -20.4963   -8.8268 O   0  0  0  0  0  0  0  0  0  0  0  0
  2  1  1  0
  3  2  2  0
  4  3  1  0
  5  4  2  0
  5 11  1  0
  6  5  1  0
  7  6  1  0
  7  8  1  1
  9 10  2  0
  9  7  1  0
 11 12  2  0
 12  2  1  0
 14 13  1  6
 14 16  1  0
 14 15  1  0
 15  9  1  0
 16 18  1  0
 17 16  2  0
 18 19  1  0
 19 30  1  0
 19 20  1  1
 21 20  1  0
 21 29  1  0
 22 23  1  0
 22 21  2  0
 23 24  1  0
 24 25  2  0
 24 29  1  0
 25 26  1  0
 26 27  2  0
 28 27  1  0
 29 28  2  0
 30 31  2  0
 30 32  1  0
M  END
$$$$
