TLM.pdb
     RDKit          3D

 24 23  0  0  1  0  0  0  0  0999 V2000
    8.2513  -18.7679   21.4853 C   0  0  0  0  0  0  0  0  0  0  0  0
    9.3009  -18.1064   20.5958 C   0  0  1  0  0  0  0  0  0  0  0  0
    9.2883  -18.7201   19.3318 O   0  0  0  0  0  0  0  0  0  0  0  0
    9.0105  -16.6305   20.4440 C   0  0  2  0  0  0  0  0  0  0  0  0
   10.0281  -16.0937   19.5334 N   0  0  0  0  0  0  0  0  0  0  0  0
    9.1746  -16.0008   21.7981 C   0  0  0  0  0  0  0  0  0  0  0  0
   10.3129  -15.7914   22.2837 O   0  0  0  0  0  0  0  0  0  0  0  0
    7.8540  -12.2545   25.6224 C   0  0  0  0  0  0  0  0  0  0  0  0
    7.1533  -13.5852   25.6822 C   0  0  1  0  0  0  0  0  0  0  0  0
    5.7219  -13.2808   26.1540 C   0  0  0  0  0  0  0  0  0  0  0  0
    7.0324  -14.3092   24.3987 C   0  0  0  0  0  0  0  0  0  0  0  0
    8.2286  -15.0231   23.8881 C   0  0  2  0  0  0  0  0  0  0  0  0
    8.0603  -15.6138   22.5916 N   0  0  0  0  0  0  0  0  0  0  0  0
    8.7700  -15.9292   24.9204 C   0  0  0  0  0  0  0  0  0  0  0  0
    8.1550  -17.0112   25.1051 O   0  0  0  0  0  0  0  0  0  0  0  0
    9.7551  -12.8488   28.8115 C   0  0  0  0  0  0  0  0  0  0  0  0
   11.2715  -13.7204   29.2845 S   0  0  0  0  0  0  0  0  0  0  0  0
   11.6873  -14.8882   27.9282 C   0  0  0  0  0  0  0  0  0  0  0  0
   10.6930  -15.9865   27.9926 C   0  0  0  0  0  0  0  0  0  0  0  0
   10.4782  -16.6381   26.6541 C   0  0  2  0  0  0  0  0  0  0  0  0
    9.9042  -15.6836   25.7067 N   0  0  0  0  0  0  0  0  0  0  0  0
    9.7015  -17.8547   26.7581 C   0  0  0  0  0  0  0  0  0  0  0  0
    8.4292  -18.0234   26.2833 O   0  0  0  0  0  0  0  0  0  0  0  0
   10.2239  -18.8683   27.3388 O   0  0  0  0  0  0  0  0  0  0  0  0
  2  1  1  1
  2  3  1  0
  2  4  1  0
  4  5  1  6
  6  4  1  0
  6  7  2  0
  9  8  1  6
  9 10  1  0
  9 11  1  0
 12 11  1  1
 12 13  1  0
 12 14  1  0
 13  6  1  0
 14 15  2  0
 14 21  1  0
 16 17  1  0
 17 18  1  0
 19 18  1  0
 20 19  1  1
 20 22  1  0
 21 20  1  0
 22 24  2  0
 22 23  1  0
M  END
$$$$
