TLM.pdb
     RDKit          3D

 24 23  0  0  1  0  0  0  0  0999 V2000
    9.1651  -17.5559   19.3230 C   0  0  0  0  0  0  0  0  0  0  0  0
    7.9033  -17.3804   20.1641 C   0  0  1  0  0  0  0  0  0  0  0  0
    6.8677  -18.1518   19.6101 O   0  0  0  0  0  0  0  0  0  0  0  0
    8.1532  -17.8188   21.5893 C   0  0  2  0  0  0  0  0  0  0  0  0
    6.8405  -17.9001   22.2400 N   0  0  0  0  0  0  0  0  0  0  0  0
    8.9693  -16.7449   22.2510 C   0  0  0  0  0  0  0  0  0  0  0  0
   10.1838  -16.5890   21.9754 O   0  0  0  0  0  0  0  0  0  0  0  0
    6.5992  -13.1407   25.9492 C   0  0  0  0  0  0  0  0  0  0  0  0
    7.0242  -13.8499   24.6915 C   0  0  1  0  0  0  0  0  0  0  0  0
    6.1487  -13.2678   23.5695 C   0  0  0  0  0  0  0  0  0  0  0  0
    8.4302  -13.6484   24.2807 C   0  0  0  0  0  0  0  0  0  0  0  0
    9.2021  -14.8359   23.8385 C   0  0  2  0  0  0  0  0  0  0  0  0
    8.4137  -15.8589   23.2139 N   0  0  0  0  0  0  0  0  0  0  0  0
   10.0911  -15.3067   24.9192 C   0  0  0  0  0  0  0  0  0  0  0  0
   10.8980  -14.4676   25.3965 O   0  0  0  0  0  0  0  0  0  0  0  0
   11.4350  -14.8723   30.5506 C   0  0  0  0  0  0  0  0  0  0  0  0
   10.4479  -14.0691   29.2608 S   0  0  0  0  0  0  0  0  0  0  0  0
   10.9058  -14.8332   27.6538 C   0  0  0  0  0  0  0  0  0  0  0  0
   10.6876  -16.2928   27.7992 C   0  0  0  0  0  0  0  0  0  0  0  0
   10.9933  -17.0424   26.5316 C   0  0  2  0  0  0  0  0  0  0  0  0
   10.1103  -16.6032   25.4519 N   0  0  0  0  0  0  0  0  0  0  0  0
   10.9650  -18.4762   26.7254 C   0  0  0  0  0  0  0  0  0  0  0  0
   11.8905  -19.1971   27.4299 O   0  0  0  0  0  0  0  0  0  0  0  0
   10.0085  -19.1472   26.2035 O   0  0  0  0  0  0  0  0  0  0  0  0
  2  1  1  6
  2  3  1  0
  2  4  1  0
  4  5  1  1
  6  4  1  0
  6  7  2  0
  9  8  1  1
  9 10  1  0
  9 11  1  0
 12 11  1  1
 12 13  1  0
 12 14  1  0
 13  6  1  0
 14 15  2  0
 14 21  1  0
 16 17  1  0
 17 18  1  0
 19 18  1  0
 20 19  1  1
 20 22  1  0
 21 20  1  0
 22 24  2  0
 22 23  1  0
M  END
$$$$
