TLM.pdb
     RDKit          3D

 24 23  0  0  1  0  0  0  0  0999 V2000
    6.7770  -17.2994   21.5354 C   0  0  0  0  0  0  0  0  0  0  0  0
    7.9662  -16.6897   20.7975 C   0  0  1  0  0  0  0  0  0  0  0  0
    7.7756  -16.8366   19.4131 O   0  0  0  0  0  0  0  0  0  0  0  0
    8.1024  -15.2226   21.1361 C   0  0  2  0  0  0  0  0  0  0  0  0
    9.1340  -14.6798   20.2449 N   0  0  0  0  0  0  0  0  0  0  0  0
    8.5786  -15.1341   22.5582 C   0  0  0  0  0  0  0  0  0  0  0  0
    9.7836  -15.3249   22.8529 O   0  0  0  0  0  0  0  0  0  0  0  0
    5.8660  -12.1161   26.6114 C   0  0  0  0  0  0  0  0  0  0  0  0
    6.9450  -12.7026   25.7415 C   0  0  1  0  0  0  0  0  0  0  0  0
    8.2334  -11.9496   26.1120 C   0  0  0  0  0  0  0  0  0  0  0  0
    7.2224  -14.1414   25.9392 C   0  0  0  0  0  0  0  0  0  0  0  0
    8.1521  -14.8065   24.9932 C   0  0  2  0  0  0  0  0  0  0  0  0
    7.6979  -14.8329   23.6326 N   0  0  0  0  0  0  0  0  0  0  0  0
    8.5906  -16.1103   25.5295 C   0  0  0  0  0  0  0  0  0  0  0  0
    7.7131  -17.0062   25.6314 O   0  0  0  0  0  0  0  0  0  0  0  0
   13.0978  -20.5665   23.6628 C   0  0  0  0  0  0  0  0  0  0  0  0
   13.2170  -18.7662   23.8291 S   0  0  0  0  0  0  0  0  0  0  0  0
   11.5805  -18.1506   24.3938 C   0  0  0  0  0  0  0  0  0  0  0  0
   11.6119  -18.1573   25.8764 C   0  0  0  0  0  0  0  0  0  0  0  0
   10.3016  -17.7243   26.4747 C   0  0  2  0  0  0  0  0  0  0  0  0
    9.8949  -16.4286   25.9325 N   0  0  0  0  0  0  0  0  0  0  0  0
   10.3316  -17.7377   27.9215 C   0  0  0  0  0  0  0  0  0  0  0  0
   10.1140  -16.6530   28.7268 O   0  0  0  0  0  0  0  0  0  0  0  0
   10.5821  -18.8408   28.5198 O   0  0  0  0  0  0  0  0  0  0  0  0
  2  1  1  1
  2  3  1  0
  2  4  1  0
  4  5  1  6
  6  4  1  0
  6  7  2  0
  9  8  1  1
  9 10  1  0
  9 11  1  0
 12 11  1  1
 12 13  1  0
 12 14  1  0
 13  6  1  0
 14 15  2  0
 14 21  1  0
 16 17  1  0
 17 18  1  0
 19 18  1  0
 20 19  1  6
 20 22  1  0
 21 20  1  0
 22 24  2  0
 22 23  1  0
M  END
$$$$
