TLM.pdb
     RDKit          3D

 24 23  0  0  1  0  0  0  0  0999 V2000
    8.4509  -18.1522   18.4863 C   0  0  0  0  0  0  0  0  0  0  0  0
    8.5988  -17.0207   19.5004 C   0  0  1  0  0  0  0  0  0  0  0  0
    7.4492  -16.2136   19.4631 O   0  0  0  0  0  0  0  0  0  0  0  0
    8.7788  -17.5800   20.8934 C   0  0  2  0  0  0  0  0  0  0  0  0
    7.5348  -18.2825   21.2279 N   0  0  0  0  0  0  0  0  0  0  0  0
    8.9557  -16.4140   21.8241 C   0  0  0  0  0  0  0  0  0  0  0  0
    9.9806  -15.6912   21.7726 O   0  0  0  0  0  0  0  0  0  0  0  0
    7.2454  -12.0619   24.9235 C   0  0  0  0  0  0  0  0  0  0  0  0
    7.0679  -13.4702   25.4239 C   0  0  1  0  0  0  0  0  0  0  0  0
    5.7487  -13.4679   26.2137 C   0  0  0  0  0  0  0  0  0  0  0  0
    6.9382  -14.5130   24.3837 C   0  0  0  0  0  0  0  0  0  0  0  0
    8.1738  -14.9743   23.7041 C   0  0  2  0  0  0  0  0  0  0  0  0
    7.9815  -16.0726   22.8014 N   0  0  0  0  0  0  0  0  0  0  0  0
    9.2653  -15.1547   24.6818 C   0  0  0  0  0  0  0  0  0  0  0  0
   10.0491  -14.1837   24.8432 O   0  0  0  0  0  0  0  0  0  0  0  0
   10.5028  -12.6135   29.4133 C   0  0  0  0  0  0  0  0  0  0  0  0
   11.1671  -14.2677   29.0891 S   0  0  0  0  0  0  0  0  0  0  0  0
   10.0219  -15.1079   27.9235 C   0  0  0  0  0  0  0  0  0  0  0  0
   10.6373  -16.4154   27.5906 C   0  0  0  0  0  0  0  0  0  0  0  0
   10.7615  -16.6239   26.1063 C   0  0  2  0  0  0  0  0  0  0  0  0
    9.4987  -16.3115   25.4384 N   0  0  0  0  0  0  0  0  0  0  0  0
   11.2515  -17.9459   25.7802 C   0  0  0  0  0  0  0  0  0  0  0  0
   10.5726  -18.8828   25.0495 O   0  0  0  0  0  0  0  0  0  0  0  0
   12.4100  -18.2916   26.1997 O   0  0  0  0  0  0  0  0  0  0  0  0
  2  1  1  6
  2  3  1  0
  2  4  1  0
  4  5  1  1
  6  4  1  0
  6  7  2  0
  9  8  1  6
  9 10  1  0
  9 11  1  0
 12 11  1  1
 12 13  1  0
 12 14  1  0
 13  6  1  0
 14 15  2  0
 14 21  1  0
 16 17  1  0
 17 18  1  0
 19 18  1  0
 20 19  1  1
 20 22  1  0
 21 20  1  0
 22 24  2  0
 22 23  1  0
M  END
$$$$
