TLM.pdb
     RDKit          3D

 24 23  0  0  1  0  0  0  0  0999 V2000
   10.3215  -20.1545   18.1201 C   0  0  0  0  0  0  0  0  0  0  0  0
   10.2060  -19.1772   19.2871 C   0  0  1  0  0  0  0  0  0  0  0  0
   11.0090  -19.6281   20.3484 O   0  0  0  0  0  0  0  0  0  0  0  0
   10.6538  -17.7960   18.8658 C   0  0  2  0  0  0  0  0  0  0  0  0
   12.0926  -17.8863   18.5920 N   0  0  0  0  0  0  0  0  0  0  0  0
   10.4275  -16.8771   20.0326 C   0  0  0  0  0  0  0  0  0  0  0  0
   11.3575  -16.5934   20.8262 O   0  0  0  0  0  0  0  0  0  0  0  0
    6.3297  -12.9295   19.8068 C   0  0  0  0  0  0  0  0  0  0  0  0
    7.6376  -13.6559   19.9713 C   0  0  1  0  0  0  0  0  0  0  0  0
    8.7141  -12.5611   20.0534 C   0  0  0  0  0  0  0  0  0  0  0  0
    7.7712  -14.4753   21.1948 C   0  0  0  0  0  0  0  0  0  0  0  0
    8.9840  -15.3179   21.3379 C   0  0  2  0  0  0  0  0  0  0  0  0
    9.1609  -16.2876   20.2955 N   0  0  0  0  0  0  0  0  0  0  0  0
    9.0831  -15.8530   22.7104 C   0  0  0  0  0  0  0  0  0  0  0  0
    8.7011  -17.0388   22.8863 O   0  0  0  0  0  0  0  0  0  0  0  0
   10.3156  -14.1308   30.3390 C   0  0  0  0  0  0  0  0  0  0  0  0
   10.2874  -13.5781   28.6138 S   0  0  0  0  0  0  0  0  0  0  0  0
    9.9173  -15.0421   27.5670 C   0  0  0  0  0  0  0  0  0  0  0  0
    9.7772  -14.5464   26.1764 C   0  0  0  0  0  0  0  0  0  0  0  0
    9.5453  -15.6629   25.1956 C   0  0  2  0  0  0  0  0  0  0  0  0
    9.5631  -15.1523   23.8256 N   0  0  0  0  0  0  0  0  0  0  0  0
    8.3435  -16.4113   25.4952 C   0  0  0  0  0  0  0  0  0  0  0  0
    8.2914  -17.5588   26.2389 O   0  0  0  0  0  0  0  0  0  0  0  0
    7.2264  -15.9873   25.0368 O   0  0  0  0  0  0  0  0  0  0  0  0
  2  1  1  6
  2  3  1  0
  2  4  1  0
  4  5  1  1
  6  4  1  0
  6  7  2  0
  9  8  1  1
  9 10  1  0
  9 11  1  0
 12 11  1  1
 12 13  1  0
 12 14  1  0
 13  6  1  0
 14 15  2  0
 14 21  1  0
 16 17  1  0
 17 18  1  0
 19 18  1  0
 20 19  1  1
 20 22  1  0
 21 20  1  0
 22 24  2  0
 22 23  1  0
M  END
$$$$
