TLM.pdb
     RDKit          3D

 24 23  0  0  1  0  0  0  0  0999 V2000
    8.4622  -19.3737   22.5484 C   0  0  0  0  0  0  0  0  0  0  0  0
    9.0764  -18.8321   21.2600 C   0  0  1  0  0  0  0  0  0  0  0  0
    8.9824  -19.8110   20.2563 O   0  0  0  0  0  0  0  0  0  0  0  0
    8.3535  -17.5810   20.8152 C   0  0  2  0  0  0  0  0  0  0  0  0
    8.8948  -17.2292   19.4975 N   0  0  0  0  0  0  0  0  0  0  0  0
    8.6927  -16.4956   21.7969 C   0  0  0  0  0  0  0  0  0  0  0  0
    9.8342  -15.9741   21.8202 O   0  0  0  0  0  0  0  0  0  0  0  0
    7.5396  -12.0984   24.8763 C   0  0  0  0  0  0  0  0  0  0  0  0
    7.2110  -13.4320   25.4919 C   0  0  1  0  0  0  0  0  0  0  0  0
    5.9039  -13.2188   26.2731 C   0  0  0  0  0  0  0  0  0  0  0  0
    6.9625  -14.5375   24.5421 C   0  0  0  0  0  0  0  0  0  0  0  0
    8.0908  -14.9896   23.6913 C   0  0  2  0  0  0  0  0  0  0  0  0
    7.7481  -16.0081   22.7407 N   0  0  0  0  0  0  0  0  0  0  0  0
    9.2775  -15.2835   24.5191 C   0  0  0  0  0  0  0  0  0  0  0  0
   10.2480  -14.4885   24.4225 O   0  0  0  0  0  0  0  0  0  0  0  0
   10.2704  -12.9292   28.6578 C   0  0  0  0  0  0  0  0  0  0  0  0
   10.5249  -14.4289   29.6423 S   0  0  0  0  0  0  0  0  0  0  0  0
   10.2173  -15.8716   28.5469 C   0  0  0  0  0  0  0  0  0  0  0  0
   10.7899  -15.5300   27.2223 C   0  0  0  0  0  0  0  0  0  0  0  0
   10.5925  -16.6308   26.2166 C   0  0  2  0  0  0  0  0  0  0  0  0
    9.4107  -16.3686   25.3965 N   0  0  0  0  0  0  0  0  0  0  0  0
   10.5605  -17.9375   26.8375 C   0  0  0  0  0  0  0  0  0  0  0  0
    9.5011  -18.8030   26.8040 O   0  0  0  0  0  0  0  0  0  0  0  0
   11.5936  -18.3382   27.4777 O   0  0  0  0  0  0  0  0  0  0  0  0
  2  1  1  1
  2  3  1  0
  2  4  1  0
  4  5  1  6
  6  4  1  0
  6  7  2  0
  9  8  1  6
  9 10  1  0
  9 11  1  0
 12 11  1  1
 12 13  1  0
 12 14  1  0
 13  6  1  0
 14 15  2  0
 14 21  1  0
 16 17  1  0
 17 18  1  0
 19 18  1  0
 20 19  1  1
 20 22  1  0
 21 20  1  0
 22 24  2  0
 22 23  1  0
M  END
$$$$
