TLM.pdb
     RDKit          3D

 24 23  0  0  1  0  0  0  0  0999 V2000
    9.5287  -16.4620   18.8699 C   0  0  0  0  0  0  0  0  0  0  0  0
    8.1156  -16.4222   19.4462 C   0  0  1  0  0  0  0  0  0  0  0  0
    7.2048  -16.8524   18.4665 O   0  0  0  0  0  0  0  0  0  0  0  0
    8.0143  -17.3190   20.6591 C   0  0  2  0  0  0  0  0  0  0  0  0
    6.5838  -17.4849   20.9405 N   0  0  0  0  0  0  0  0  0  0  0  0
    8.6648  -16.5970   21.8048 C   0  0  0  0  0  0  0  0  0  0  0  0
    9.8720  -16.2567   21.7569 O   0  0  0  0  0  0  0  0  0  0  0  0
    5.9552  -13.0226   25.2821 C   0  0  0  0  0  0  0  0  0  0  0  0
    6.9233  -13.7272   24.3701 C   0  0  1  0  0  0  0  0  0  0  0  0
    7.9554  -12.6646   23.9581 C   0  0  0  0  0  0  0  0  0  0  0  0
    7.6815  -14.8443   24.9729 C   0  0  0  0  0  0  0  0  0  0  0  0
    8.5967  -15.6160   24.0964 C   0  0  2  0  0  0  0  0  0  0  0  0
    7.9540  -16.2654   22.9904 N   0  0  0  0  0  0  0  0  0  0  0  0
    9.4762  -16.4845   24.9039 C   0  0  0  0  0  0  0  0  0  0  0  0
    8.9533  -17.5137   25.4043 O   0  0  0  0  0  0  0  0  0  0  0  0
   10.2181  -13.0644   28.9303 C   0  0  0  0  0  0  0  0  0  0  0  0
   10.6078  -14.5153   29.9431 S   0  0  0  0  0  0  0  0  0  0  0  0
   11.3839  -15.7674   28.8450 C   0  0  0  0  0  0  0  0  0  0  0  0
   10.8678  -15.5130   27.4783 C   0  0  0  0  0  0  0  0  0  0  0  0
   11.4772  -16.4366   26.4595 C   0  0  2  0  0  0  0  0  0  0  0  0
   10.8359  -16.2569   25.1577 N   0  0  0  0  0  0  0  0  0  0  0  0
   11.4683  -17.8154   26.8988 C   0  0  0  0  0  0  0  0  0  0  0  0
   10.7486  -18.8250   26.3198 O   0  0  0  0  0  0  0  0  0  0  0  0
   12.1813  -18.1417   27.9101 O   0  0  0  0  0  0  0  0  0  0  0  0
  2  1  1  6
  2  3  1  0
  2  4  1  0
  4  5  1  1
  6  4  1  0
  6  7  2  0
  9  8  1  1
  9 10  1  0
  9 11  1  0
 12 11  1  1
 12 13  1  0
 12 14  1  0
 13  6  1  0
 14 15  2  0
 14 21  1  0
 16 17  1  0
 17 18  1  0
 19 18  1  0
 20 19  1  1
 20 22  1  0
 21 20  1  0
 22 24  2  0
 22 23  1  0
M  END
$$$$
