TLM.pdb
     RDKit          3D

 24 23  0  0  1  0  0  0  0  0999 V2000
    6.7564  -18.8892   25.1157 C   0  0  0  0  0  0  0  0  0  0  0  0
    6.9641  -19.0360   23.6104 C   0  0  1  0  0  0  0  0  0  0  0  0
    6.2204  -20.1341   23.1463 O   0  0  0  0  0  0  0  0  0  0  0  0
    6.5183  -17.7832   22.8909 C   0  0  2  0  0  0  0  0  0  0  0  0
    6.5724  -18.0816   21.4553 N   0  0  0  0  0  0  0  0  0  0  0  0
    7.5140  -16.7050   23.2115 C   0  0  0  0  0  0  0  0  0  0  0  0
    8.5919  -16.6062   22.5760 O   0  0  0  0  0  0  0  0  0  0  0  0
    5.8888  -12.5001   26.5483 C   0  0  0  0  0  0  0  0  0  0  0  0
    6.5272  -13.1610   25.3563 C   0  0  1  0  0  0  0  0  0  0  0  0
    6.7420  -12.0410   24.3250 C   0  0  0  0  0  0  0  0  0  0  0  0
    7.8491  -13.7799   25.5926 C   0  0  0  0  0  0  0  0  0  0  0  0
    8.3077  -14.8235   24.6429 C   0  0  2  0  0  0  0  0  0  0  0  0
    7.2893  -15.7506   24.2408 N   0  0  0  0  0  0  0  0  0  0  0  0
    9.5608  -15.4419   25.1194 C   0  0  0  0  0  0  0  0  0  0  0  0
   10.6335  -14.8617   24.8102 O   0  0  0  0  0  0  0  0  0  0  0  0
   11.6241  -13.8859   29.5548 C   0  0  0  0  0  0  0  0  0  0  0  0
   10.0357  -14.7443   29.4031 S   0  0  0  0  0  0  0  0  0  0  0  0
   10.3776  -16.4410   28.7862 C   0  0  0  0  0  0  0  0  0  0  0  0
   11.3086  -16.2977   27.6409 C   0  0  0  0  0  0  0  0  0  0  0  0
   10.8911  -17.1320   26.4611 C   0  0  2  0  0  0  0  0  0  0  0  0
    9.6522  -16.6149   25.8816 N   0  0  0  0  0  0  0  0  0  0  0  0
   10.8070  -18.5387   26.7902 C   0  0  0  0  0  0  0  0  0  0  0  0
   11.8611  -19.3279   27.1626 O   0  0  0  0  0  0  0  0  0  0  0  0
    9.6658  -19.1149   26.7338 O   0  0  0  0  0  0  0  0  0  0  0  0
  2  1  1  1
  2  3  1  0
  2  4  1  0
  4  5  1  6
  6  4  1  0
  6  7  2  0
  9  8  1  1
  9 10  1  0
  9 11  1  0
 12 11  1  1
 12 13  1  0
 12 14  1  0
 13  6  1  0
 14 15  2  0
 14 21  1  0
 16 17  1  0
 17 18  1  0
 19 18  1  0
 20 19  1  1
 20 22  1  0
 21 20  1  0
 22 24  2  0
 22 23  1  0
M  END
$$$$
