TLM.pdb
     RDKit          3D

 24 23  0  0  1  0  0  0  0  0999 V2000
    9.1438  -18.5259   18.4154 C   0  0  0  0  0  0  0  0  0  0  0  0
    9.2839  -17.4399   19.4792 C   0  0  1  0  0  0  0  0  0  0  0  0
    8.4002  -16.3879   19.1848 O   0  0  0  0  0  0  0  0  0  0  0  0
    8.9676  -17.9977   20.8483 C   0  0  2  0  0  0  0  0  0  0  0  0
    7.5458  -18.3604   20.8359 N   0  0  0  0  0  0  0  0  0  0  0  0
    9.1893  -16.8939   21.8431 C   0  0  0  0  0  0  0  0  0  0  0  0
   10.3346  -16.4219   22.0453 O   0  0  0  0  0  0  0  0  0  0  0  0
    7.4338  -12.4516   24.8414 C   0  0  0  0  0  0  0  0  0  0  0  0
    7.2963  -13.8544   25.3691 C   0  0  1  0  0  0  0  0  0  0  0  0
    6.0042  -13.8606   26.2025 C   0  0  0  0  0  0  0  0  0  0  0  0
    7.1493  -14.9156   24.3501 C   0  0  0  0  0  0  0  0  0  0  0  0
    8.3540  -15.3107   23.5793 C   0  0  2  0  0  0  0  0  0  0  0  0
    8.1243  -16.3329   22.5992 N   0  0  0  0  0  0  0  0  0  0  0  0
    9.4900  -15.5625   24.4881 C   0  0  0  0  0  0  0  0  0  0  0  0
   10.5348  -14.8899   24.2907 O   0  0  0  0  0  0  0  0  0  0  0  0
   10.9142  -12.8535   28.7793 C   0  0  0  0  0  0  0  0  0  0  0  0
   11.3586  -14.3085   29.7633 S   0  0  0  0  0  0  0  0  0  0  0  0
   11.5480  -15.7243   28.6076 C   0  0  0  0  0  0  0  0  0  0  0  0
   10.4941  -15.5747   27.5751 C   0  0  0  0  0  0  0  0  0  0  0  0
   10.5907  -16.6294   26.5072 C   0  0  2  0  0  0  0  0  0  0  0  0
    9.4997  -16.4841   25.5444 N   0  0  0  0  0  0  0  0  0  0  0  0
   10.6685  -17.9632   27.0632 C   0  0  0  0  0  0  0  0  0  0  0  0
   11.7855  -18.5233   27.6210 O   0  0  0  0  0  0  0  0  0  0  0  0
    9.6218  -18.6991   27.0412 O   0  0  0  0  0  0  0  0  0  0  0  0
  2  1  1  6
  2  3  1  0
  2  4  1  0
  4  5  1  6
  6  4  1  0
  6  7  2  0
  9  8  1  6
  9 10  1  0
  9 11  1  0
 12 11  1  1
 12 13  1  0
 12 14  1  0
 13  6  1  0
 14 15  2  0
 14 21  1  0
 16 17  1  0
 17 18  1  0
 19 18  1  0
 20 19  1  1
 20 22  1  0
 21 20  1  0
 22 24  2  0
 22 23  1  0
M  END
$$$$
