TLM.pdb
     RDKit          3D

 24 23  0  0  1  0  0  0  0  0999 V2000
    7.0391  -20.8802   20.1270 C   0  0  0  0  0  0  0  0  0  0  0  0
    7.7867  -19.6996   20.7418 C   0  0  1  0  0  0  0  0  0  0  0  0
    8.9459  -20.1696   21.3819 O   0  0  0  0  0  0  0  0  0  0  0  0
    8.1690  -18.7017   19.6724 C   0  0  2  0  0  0  0  0  0  0  0  0
    9.1348  -19.3744   18.7961 N   0  0  0  0  0  0  0  0  0  0  0  0
    8.8419  -17.5468   20.3583 C   0  0  0  0  0  0  0  0  0  0  0  0
   10.0871  -17.5196   20.5141 O   0  0  0  0  0  0  0  0  0  0  0  0
    6.6027  -12.4937   20.0988 C   0  0  0  0  0  0  0  0  0  0  0  0
    7.6645  -13.5602   20.1258 C   0  0  1  0  0  0  0  0  0  0  0  0
    8.9213  -12.9113   19.5227 C   0  0  0  0  0  0  0  0  0  0  0  0
    8.0449  -14.0583   21.4650 C   0  0  0  0  0  0  0  0  0  0  0  0
    8.7596  -15.3560   21.5466 C   0  0  2  0  0  0  0  0  0  0  0  0
    8.1106  -16.4365   20.8614 N   0  0  0  0  0  0  0  0  0  0  0  0
    9.1478  -15.6459   22.9412 C   0  0  0  0  0  0  0  0  0  0  0  0
    8.3216  -16.2898   23.6383 O   0  0  0  0  0  0  0  0  0  0  0  0
    9.3596  -11.7159   27.6473 C   0  0  0  0  0  0  0  0  0  0  0  0
    8.7640  -13.3883   28.0092 S   0  0  0  0  0  0  0  0  0  0  0  0
    9.9258  -14.5745   27.2222 C   0  0  0  0  0  0  0  0  0  0  0  0
    9.6488  -14.5386   25.7658 C   0  0  0  0  0  0  0  0  0  0  0  0
   10.6279  -15.3674   24.9804 C   0  0  2  0  0  0  0  0  0  0  0  0
   10.3524  -15.2639   23.5481 N   0  0  0  0  0  0  0  0  0  0  0  0
   10.6744  -16.7386   25.4407 C   0  0  0  0  0  0  0  0  0  0  0  0
   10.2837  -17.8302   24.7139 O   0  0  0  0  0  0  0  0  0  0  0  0
   11.1102  -16.9753   26.6204 O   0  0  0  0  0  0  0  0  0  0  0  0
  2  1  1  6
  2  3  1  0
  2  4  1  0
  4  5  1  6
  6  4  1  0
  6  7  2  0
  9  8  1  1
  9 10  1  0
  9 11  1  0
 12 11  1  1
 12 13  1  0
 12 14  1  0
 13  6  1  0
 14 15  2  0
 14 21  1  0
 16 17  1  0
 17 18  1  0
 19 18  1  0
 20 19  1  1
 20 22  1  0
 21 20  1  0
 22 24  2  0
 22 23  1  0
M  END
$$$$
