TLM.pdb
     RDKit          3D

 24 23  0  0  1  0  0  0  0  0999 V2000
    8.5292  -18.8979   21.4896 C   0  0  0  0  0  0  0  0  0  0  0  0
    9.5921  -18.1773   20.6641 C   0  0  1  0  0  0  0  0  0  0  0  0
    9.6239  -18.7267   19.3712 O   0  0  0  0  0  0  0  0  0  0  0  0
    9.2825  -16.7000   20.5781 C   0  0  2  0  0  0  0  0  0  0  0  0
   10.3222  -16.1015   19.7331 N   0  0  0  0  0  0  0  0  0  0  0  0
    9.3888  -16.1391   21.9677 C   0  0  0  0  0  0  0  0  0  0  0  0
   10.5047  -15.9726   22.5176 O   0  0  0  0  0  0  0  0  0  0  0  0
    7.8991  -12.4697   25.7776 C   0  0  0  0  0  0  0  0  0  0  0  0
    7.2369  -13.8203   25.8300 C   0  0  1  0  0  0  0  0  0  0  0  0
    5.7944  -13.5586   26.2936 C   0  0  0  0  0  0  0  0  0  0  0  0
    7.1448  -14.5442   24.5440 C   0  0  0  0  0  0  0  0  0  0  0  0
    8.3551  -15.2501   24.0558 C   0  0  2  0  0  0  0  0  0  0  0  0
    8.2425  -15.7720   22.7241 N   0  0  0  0  0  0  0  0  0  0  0  0
    8.8334  -16.2155   25.0652 C   0  0  0  0  0  0  0  0  0  0  0  0
    8.2532  -17.3313   25.1033 O   0  0  0  0  0  0  0  0  0  0  0  0
   10.3964  -12.6653   28.7446 C   0  0  0  0  0  0  0  0  0  0  0  0
   11.3148  -14.0677   29.4321 S   0  0  0  0  0  0  0  0  0  0  0  0
   11.6834  -15.2216   28.0506 C   0  0  0  0  0  0  0  0  0  0  0  0
   10.7726  -16.3810   28.2100 C   0  0  0  0  0  0  0  0  0  0  0  0
   10.4072  -17.0025   26.8901 C   0  0  2  0  0  0  0  0  0  0  0  0
    9.8727  -15.9915   25.9789 N   0  0  0  0  0  0  0  0  0  0  0  0
    9.5199  -18.1349   27.0474 C   0  0  0  0  0  0  0  0  0  0  0  0
    9.9163  -19.4391   27.1676 O   0  0  0  0  0  0  0  0  0  0  0  0
    8.2578  -17.9259   27.0771 O   0  0  0  0  0  0  0  0  0  0  0  0
  2  1  1  1
  2  3  1  0
  2  4  1  0
  4  5  1  6
  6  4  1  0
  6  7  2  0
  9  8  1  6
  9 10  1  0
  9 11  1  0
 12 11  1  1
 12 13  1  0
 12 14  1  0
 13  6  1  0
 14 15  2  0
 14 21  1  0
 16 17  1  0
 17 18  1  0
 19 18  1  0
 20 19  1  1
 20 22  1  0
 21 20  1  0
 22 24  2  0
 22 23  1  0
M  END
$$$$
