FCP.pdb
     RDKit          3D

 25 26  0  0  1  0  0  0  0  0999 V2000
   26.2703  -21.0673  -12.0162 N   0  0  0  0  0  0  0  0  0  0  0  0
   25.7404  -20.3189  -10.9037 C   0  0  1  0  0  0  0  0  0  0  0  0
   24.4674  -20.9856  -10.4273 C   0  0  0  0  0  0  0  0  0  0  0  0
   23.4391  -20.7784  -11.4587 C   0  0  0  0  0  0  0  0  0  0  0  0
   23.0375  -19.5157  -11.8194 C   0  0  0  0  0  0  0  0  0  0  0  0
   22.0686  -19.3067  -12.7906 C   0  0  0  0  0  0  0  0  0  0  0  0
   21.4872  -20.3810  -13.4164 C   0  0  0  0  0  0  0  0  0  0  0  0
   21.8770  -21.6705  -13.0686 C   0  0  0  0  0  0  0  0  0  0  0  0
   22.8552  -21.8518  -12.0870 C   0  0  0  0  0  0  0  0  0  0  0  0
   26.7554  -20.2288   -9.8315 C   0  0  0  0  0  0  0  0  0  0  0  0
   27.5387  -21.1896   -9.6185 O   0  0  0  0  0  0  0  0  0  0  0  0
   26.8895  -19.0800   -9.0123 N   0  0  0  0  0  0  0  0  0  0  0  0
   27.9615  -18.9987   -7.9691 C   0  0  1  0  0  0  0  0  0  0  0  0
   27.9922  -17.5387   -7.5476 C   0  0  0  0  0  0  0  0  0  0  0  0
   28.4009  -17.2168   -5.8528 S   0  0  0  0  0  0  0  0  0  0  0  0
   27.5558  -19.9207   -6.9054 C   0  0  0  0  0  0  0  0  0  0  0  0
   26.3746  -20.4188   -6.9973 O   0  0  0  0  0  0  0  0  0  0  0  0
   28.2857  -20.3458   -5.7854 N   0  0  0  0  0  0  0  0  0  0  0  0
   29.7155  -20.0711   -5.5056 C   0  0  0  0  0  0  0  0  0  0  0  0
   30.1973  -21.5240   -5.3752 C   0  0  0  0  0  0  0  0  0  0  0  0
   29.0676  -22.1194   -4.5282 C   0  0  0  0  0  0  0  0  0  0  0  0
   27.9157  -21.1567   -4.6459 C   0  0  1  0  0  0  0  0  0  0  0  0
   27.8921  -20.3313   -3.3768 C   0  0  0  0  0  0  0  0  0  0  0  0
   28.3619  -19.1676   -3.3902 O   0  0  0  0  0  0  0  0  0  0  0  0
   27.3744  -20.8004   -2.1867 O   0  0  0  0  0  0  0  0  0  0  0  0
  2  1  1  6
  2 10  1  0
  3  2  1  0
  4  5  2  0
  4  3  1  0
  6  5  1  0
  7  8  1  0
  7  6  2  0
  8  9  2  0
  9  4  1  0
 10 12  1  0
 10 11  2  0
 12 13  1  0
 13 14  1  1
 15 14  1  0
 16 13  1  0
 16 17  2  0
 18 22  1  0
 18 16  1  0
 19 20  1  0
 19 18  1  0
 20 21  1  0
 21 22  1  0
 22 23  1  1
 24 23  2  0
 25 23  1  0
M  END
$$$$
