FCP.pdb
     RDKit          3D

 25 26  0  0  1  0  0  0  0  0999 V2000
   14.7889   -5.4312  -14.6863 N   0  0  0  0  0  0  0  0  0  0  0  0
   14.0962   -6.4597  -13.9508 C   0  0  1  0  0  0  0  0  0  0  0  0
   12.7271   -6.6623  -14.5643 C   0  0  0  0  0  0  0  0  0  0  0  0
   12.8761   -6.5958  -16.0263 C   0  0  0  0  0  0  0  0  0  0  0  0
   12.6481   -7.6963  -16.8155 C   0  0  0  0  0  0  0  0  0  0  0  0
   12.7851   -7.6467  -18.1955 C   0  0  0  0  0  0  0  0  0  0  0  0
   13.1577   -6.4734  -18.8023 C   0  0  0  0  0  0  0  0  0  0  0  0
   13.3944   -5.3443  -18.0245 C   0  0  0  0  0  0  0  0  0  0  0  0
   13.2490   -5.4226  -16.6367 C   0  0  0  0  0  0  0  0  0  0  0  0
   14.8965   -7.7037  -13.9545 C   0  0  0  0  0  0  0  0  0  0  0  0
   15.8185   -7.8611  -14.7955 O   0  0  0  0  0  0  0  0  0  0  0  0
   14.6664   -8.7533  -13.0302 N   0  0  0  0  0  0  0  0  0  0  0  0
   15.4653  -10.0192  -13.0876 C   0  0  1  0  0  0  0  0  0  0  0  0
   16.1111  -10.1408  -11.7170 C   0  0  0  0  0  0  0  0  0  0  0  0
   16.8764  -11.6954  -11.3424 S   0  0  0  0  0  0  0  0  0  0  0  0
   14.5070  -11.0838  -13.3948 C   0  0  0  0  0  0  0  0  0  0  0  0
   13.2829  -10.8653  -13.0700 O   0  0  0  0  0  0  0  0  0  0  0  0
   14.7389  -12.3255  -14.0050 N   0  0  0  0  0  0  0  0  0  0  0  0
   16.0322  -12.8244  -14.5306 C   0  0  0  0  0  0  0  0  0  0  0  0
   15.5925  -13.0936  -15.9778 C   0  0  0  0  0  0  0  0  0  0  0  0
   14.2375  -13.7679  -15.7385 C   0  0  0  0  0  0  0  0  0  0  0  0
   13.8511  -13.4220  -14.3249 C   0  0  1  0  0  0  0  0  0  0  0  0
   14.1550  -14.6338  -13.4696 C   0  0  0  0  0  0  0  0  0  0  0  0
   15.2004  -14.6513  -12.7755 O   0  0  0  0  0  0  0  0  0  0  0  0
   13.3298  -15.7387  -13.4144 O   0  0  0  0  0  0  0  0  0  0  0  0
  2  1  1  6
  2 10  1  0
  3  2  1  0
  4  5  2  0
  4  3  1  0
  6  5  1  0
  7  8  1  0
  7  6  2  0
  8  9  2  0
  9  4  1  0
 10 12  1  0
 10 11  2  0
 12 13  1  0
 13 14  1  1
 15 14  1  0
 16 13  1  0
 16 17  2  0
 18 22  1  0
 18 16  1  0
 19 20  1  0
 19 18  1  0
 20 21  1  0
 21 22  1  0
 22 23  1  1
 24 23  2  0
 25 23  1  0
M  END
$$$$
