FCP.pdb
     RDKit          3D

 25 26  0  0  1  0  0  0  0  0999 V2000
   23.7264  -12.2924  -16.5458 N   0  0  0  0  0  0  0  0  0  0  0  0
   24.0912  -10.9941  -16.0357 C   0  0  1  0  0  0  0  0  0  0  0  0
   25.2981  -10.4903  -16.7981 C   0  0  0  0  0  0  0  0  0  0  0  0
   26.4276  -11.3812  -16.4903 C   0  0  0  0  0  0  0  0  0  0  0  0
   26.8126  -12.3693  -17.3627 C   0  0  0  0  0  0  0  0  0  0  0  0
   27.8760  -13.2161  -17.0842 C   0  0  0  0  0  0  0  0  0  0  0  0
   28.5713  -13.0745  -15.9094 C   0  0  0  0  0  0  0  0  0  0  0  0
   28.2006  -12.0807  -15.0088 C   0  0  0  0  0  0  0  0  0  0  0  0
   27.1255  -11.2418  -15.3150 C   0  0  0  0  0  0  0  0  0  0  0  0
   22.9401  -10.0716  -16.1445 C   0  0  0  0  0  0  0  0  0  0  0  0
   22.1125  -10.1994  -17.0831 O   0  0  0  0  0  0  0  0  0  0  0  0
   22.7213   -9.0232  -15.2161 N   0  0  0  0  0  0  0  0  0  0  0  0
   21.5315   -8.1212  -15.3391 C   0  0  1  0  0  0  0  0  0  0  0  0
   20.5319   -8.6456  -14.3212 C   0  0  0  0  0  0  0  0  0  0  0  0
   19.3358   -7.4827  -13.7211 S   0  0  0  0  0  0  0  0  0  0  0  0
   22.0223   -6.7704  -15.0556 C   0  0  0  0  0  0  0  0  0  0  0  0
   23.0330   -6.6807  -14.2669 O   0  0  0  0  0  0  0  0  0  0  0  0
   21.5402   -5.5423  -15.5326 N   0  0  0  0  0  0  0  0  0  0  0  0
   20.3903   -5.3386  -16.4459 C   0  0  0  0  0  0  0  0  0  0  0  0
   21.1248   -4.5735  -17.5573 C   0  0  0  0  0  0  0  0  0  0  0  0
   21.9724   -3.6090  -16.7211 C   0  0  0  0  0  0  0  0  0  0  0  0
   21.9963   -4.1845  -15.3298 C   0  0  1  0  0  0  0  0  0  0  0  0
   21.0028   -3.3958  -14.5031 C   0  0  0  0  0  0  0  0  0  0  0  0
   19.8121   -3.7860  -14.4338 O   0  0  0  0  0  0  0  0  0  0  0  0
   21.3437   -2.2506  -13.8126 O   0  0  0  0  0  0  0  0  0  0  0  0
  2  1  1  6
  2 10  1  0
  3  2  1  0
  4  5  2  0
  4  3  1  0
  6  5  1  0
  7  8  1  0
  7  6  2  0
  8  9  2  0
  9  4  1  0
 10 12  1  0
 10 11  2  0
 12 13  1  0
 13 14  1  1
 15 14  1  0
 16 13  1  0
 16 17  2  0
 18 22  1  0
 18 16  1  0
 19 20  1  0
 19 18  1  0
 20 21  1  0
 21 22  1  0
 22 23  1  1
 24 23  2  0
 25 23  1  0
M  END
$$$$
