FCP.pdb
     RDKit          3D

 25 26  0  0  1  0  0  0  0  0999 V2000
   15.6482  -21.8284    0.4742 N   0  0  0  0  0  0  0  0  0  0  0  0
   15.2621  -21.2162    1.7211 C   0  0  1  0  0  0  0  0  0  0  0  0
   14.8558  -22.3022    2.6943 C   0  0  0  0  0  0  0  0  0  0  0  0
   13.5678  -22.8509    2.2424 C   0  0  0  0  0  0  0  0  0  0  0  0
   13.4734  -24.1278    1.7461 C   0  0  0  0  0  0  0  0  0  0  0  0
   12.2647  -24.6572    1.3166 C   0  0  0  0  0  0  0  0  0  0  0  0
   11.1245  -23.8963    1.3836 C   0  0  0  0  0  0  0  0  0  0  0  0
   11.1940  -22.5993    1.8827 C   0  0  0  0  0  0  0  0  0  0  0  0
   12.4246  -22.0916    2.3082 C   0  0  0  0  0  0  0  0  0  0  0  0
   16.3754  -20.3924    2.2406 C   0  0  0  0  0  0  0  0  0  0  0  0
   17.5469  -20.8499    2.2591 O   0  0  0  0  0  0  0  0  0  0  0  0
   16.1777  -19.0774    2.7312 N   0  0  0  0  0  0  0  0  0  0  0  0
   17.3255  -18.2704    3.2560 C   0  0  1  0  0  0  0  0  0  0  0  0
   16.8770  -16.8229    3.1375 C   0  0  0  0  0  0  0  0  0  0  0  0
   18.1228  -15.5888    3.3977 S   0  0  0  0  0  0  0  0  0  0  0  0
   17.5352  -18.7215    4.6338 C   0  0  0  0  0  0  0  0  0  0  0  0
   16.6076  -19.4478    5.1474 O   0  0  0  0  0  0  0  0  0  0  0  0
   18.6227  -18.4719    5.4842 N   0  0  0  0  0  0  0  0  0  0  0  0
   19.8617  -17.7334    5.1414 C   0  0  0  0  0  0  0  0  0  0  0  0
   20.8760  -18.8364    5.4796 C   0  0  0  0  0  0  0  0  0  0  0  0
   20.3032  -19.3474    6.8058 C   0  0  0  0  0  0  0  0  0  0  0  0
   18.8810  -18.8551    6.8550 C   0  0  1  0  0  0  0  0  0  0  0  0
   18.8574  -17.6488    7.7697 C   0  0  0  0  0  0  0  0  0  0  0  0
   18.8150  -16.4981    7.2705 O   0  0  0  0  0  0  0  0  0  0  0  0
   18.8826  -17.7505    9.1458 O   0  0  0  0  0  0  0  0  0  0  0  0
  2  1  1  6
  2 10  1  0
  3  2  1  0
  4  5  2  0
  4  3  1  0
  6  5  1  0
  7  8  1  0
  7  6  2  0
  8  9  2  0
  9  4  1  0
 10 12  1  0
 10 11  2  0
 12 13  1  0
 13 14  1  1
 15 14  1  0
 16 13  1  0
 16 17  2  0
 18 22  1  0
 18 16  1  0
 19 20  1  0
 19 18  1  0
 20 21  1  0
 21 22  1  0
 22 23  1  1
 24 23  2  0
 25 23  1  0
M  END
$$$$
