FCP.pdb
     RDKit          3D

 25 26  0  0  1  0  0  0  0  0999 V2000
   22.1842   -4.1652  -16.7924 N   0  0  0  0  0  0  0  0  0  0  0  0
   22.7069   -4.0729  -15.4519 C   0  0  1  0  0  0  0  0  0  0  0  0
   21.7646   -3.2332  -14.6160 C   0  0  0  0  0  0  0  0  0  0  0  0
   20.3978   -3.4702  -15.1058 C   0  0  0  0  0  0  0  0  0  0  0  0
   19.8834   -2.7497  -16.1556 C   0  0  0  0  0  0  0  0  0  0  0  0
   18.5959   -2.9634  -16.6271 C   0  0  0  0  0  0  0  0  0  0  0  0
   17.8035   -3.9171  -16.0385 C   0  0  0  0  0  0  0  0  0  0  0  0
   18.3018   -4.6604  -14.9732 C   0  0  0  0  0  0  0  0  0  0  0  0
   19.6021   -4.4241  -14.5187 C   0  0  0  0  0  0  0  0  0  0  0  0
   22.8889   -5.4294  -14.8907 C   0  0  0  0  0  0  0  0  0  0  0  0
   23.3927   -5.5797  -13.7480 O   0  0  0  0  0  0  0  0  0  0  0  0
   22.5121   -6.5974  -15.5996 N   0  0  0  0  0  0  0  0  0  0  0  0
   22.7472   -7.9591  -15.0210 C   0  0  1  0  0  0  0  0  0  0  0  0
   21.3700   -8.4591  -14.6165 C   0  0  0  0  0  0  0  0  0  0  0  0
   21.1426  -10.2172  -14.6051 S   0  0  0  0  0  0  0  0  0  0  0  0
   23.3801   -8.7424  -16.0849 C   0  0  0  0  0  0  0  0  0  0  0  0
   23.1620   -8.3543  -17.2906 O   0  0  0  0  0  0  0  0  0  0  0  0
   24.2053   -9.8712  -15.9727 N   0  0  0  0  0  0  0  0  0  0  0  0
   24.5810  -10.5708  -14.7207 C   0  0  0  0  0  0  0  0  0  0  0  0
   26.1071  -10.4565  -14.8541 C   0  0  0  0  0  0  0  0  0  0  0  0
   26.2864  -10.8067  -16.3350 C   0  0  0  0  0  0  0  0  0  0  0  0
   24.9287  -10.6376  -16.9637 C   0  0  1  0  0  0  0  0  0  0  0  0
   24.3338  -12.0211  -17.1206 C   0  0  0  0  0  0  0  0  0  0  0  0
   23.4702  -12.4168  -16.3005 O   0  0  0  0  0  0  0  0  0  0  0  0
   24.6995  -12.8842  -18.1335 O   0  0  0  0  0  0  0  0  0  0  0  0
  2  1  1  6
  2 10  1  0
  3  2  1  0
  4  5  2  0
  4  3  1  0
  6  5  1  0
  7  8  1  0
  7  6  2  0
  8  9  2  0
  9  4  1  0
 10 12  1  0
 10 11  2  0
 12 13  1  0
 13 14  1  6
 15 14  1  0
 16 13  1  0
 16 17  2  0
 18 22  1  0
 18 16  1  0
 19 20  1  0
 19 18  1  0
 20 21  1  0
 21 22  1  0
 22 23  1  1
 24 23  2  0
 25 23  1  0
M  END
$$$$
