FCP.pdb
     RDKit          3D

 25 26  0  0  1  0  0  0  0  0999 V2000
   24.5321  -20.6214  -11.3268 N   0  0  0  0  0  0  0  0  0  0  0  0
   25.7502  -21.3879  -11.4140 C   0  0  1  0  0  0  0  0  0  0  0  0
   26.1293  -21.5400  -12.8717 C   0  0  0  0  0  0  0  0  0  0  0  0
   25.0980  -22.3647  -13.5201 C   0  0  0  0  0  0  0  0  0  0  0  0
   24.9594  -23.6972  -13.2188 C   0  0  0  0  0  0  0  0  0  0  0  0
   23.9908  -24.4860  -13.8232 C   0  0  0  0  0  0  0  0  0  0  0  0
   23.1414  -23.9336  -14.7490 C   0  0  0  0  0  0  0  0  0  0  0  0
   23.2617  -22.5855  -15.0715 C   0  0  0  0  0  0  0  0  0  0  0  0
   24.2462  -21.8146  -14.4473 C   0  0  0  0  0  0  0  0  0  0  0  0
   26.8153  -20.7271  -10.6286 C   0  0  0  0  0  0  0  0  0  0  0  0
   27.8091  -20.2204  -11.2098 O   0  0  0  0  0  0  0  0  0  0  0  0
   26.7662  -20.6363   -9.2150 N   0  0  0  0  0  0  0  0  0  0  0  0
   27.8672  -19.9711   -8.4472 C   0  0  1  0  0  0  0  0  0  0  0  0
   27.5933  -18.4815   -8.5751 C   0  0  0  0  0  0  0  0  0  0  0  0
   26.3521  -17.8140   -7.4996 S   0  0  0  0  0  0  0  0  0  0  0  0
   27.7668  -20.4833   -7.0784 C   0  0  0  0  0  0  0  0  0  0  0  0
   26.7305  -21.1927   -6.8057 O   0  0  0  0  0  0  0  0  0  0  0  0
   28.6562  -20.3090   -6.0076 N   0  0  0  0  0  0  0  0  0  0  0  0
   29.9225  -19.5381   -6.0267 C   0  0  0  0  0  0  0  0  0  0  0  0
   30.8722  -20.6641   -5.5906 C   0  0  0  0  0  0  0  0  0  0  0  0
   30.0565  -21.2964   -4.4580 C   0  0  0  0  0  0  0  0  0  0  0  0
   28.6430  -20.8154   -4.6526 C   0  0  1  0  0  0  0  0  0  0  0  0
   28.4105  -19.6981   -3.6576 C   0  0  0  0  0  0  0  0  0  0  0  0
   28.2068  -19.9797   -2.4517 O   0  0  0  0  0  0  0  0  0  0  0  0
   28.4088  -18.3648   -4.0141 O   0  0  0  0  0  0  0  0  0  0  0  0
  2  1  1  6
  2 10  1  0
  3  2  1  0
  4  5  2  0
  4  3  1  0
  6  5  1  0
  7  8  1  0
  7  6  2  0
  8  9  2  0
  9  4  1  0
 10 12  1  0
 10 11  2  0
 12 13  1  0
 13 14  1  1
 15 14  1  0
 16 13  1  0
 16 17  2  0
 18 22  1  0
 18 16  1  0
 19 20  1  0
 19 18  1  0
 20 21  1  0
 21 22  1  0
 22 23  1  1
 24 23  2  0
 25 23  1  0
M  END
$$$$
