FCP.pdb
     RDKit          3D

 25 26  0  0  1  0  0  0  0  0999 V2000
   27.5972  -17.4739  -16.1769 N   0  0  0  0  0  0  0  0  0  0  0  0
   27.2391  -17.4122  -14.7816 C   0  0  1  0  0  0  0  0  0  0  0  0
   26.0937  -16.4368  -14.6131 C   0  0  0  0  0  0  0  0  0  0  0  0
   25.1074  -16.7159  -15.6683 C   0  0  0  0  0  0  0  0  0  0  0  0
   24.0773  -17.6005  -15.4632 C   0  0  0  0  0  0  0  0  0  0  0  0
   23.1405  -17.8726  -16.4501 C   0  0  0  0  0  0  0  0  0  0  0  0
   23.2329  -17.2485  -17.6690 C   0  0  0  0  0  0  0  0  0  0  0  0
   24.2677  -16.3478  -17.9015 C   0  0  0  0  0  0  0  0  0  0  0  0
   25.1972  -16.0927  -16.8895 C   0  0  0  0  0  0  0  0  0  0  0  0
   26.8937  -18.7649  -14.2928 C   0  0  0  0  0  0  0  0  0  0  0  0
   26.5480  -19.6622  -15.1035 O   0  0  0  0  0  0  0  0  0  0  0  0
   26.9354  -19.1050  -12.9174 N   0  0  0  0  0  0  0  0  0  0  0  0
   26.3057  -20.3688  -12.4171 C   0  0  1  0  0  0  0  0  0  0  0  0
   26.4414  -20.3053  -10.9045 C   0  0  0  0  0  0  0  0  0  0  0  0
   25.4875  -21.4781   -9.9785 S   0  0  0  0  0  0  0  0  0  0  0  0
   24.9214  -20.3430  -12.8958 C   0  0  0  0  0  0  0  0  0  0  0  0
   24.4321  -19.1879  -13.1750 O   0  0  0  0  0  0  0  0  0  0  0  0
   24.0417  -21.4168  -13.0986 N   0  0  0  0  0  0  0  0  0  0  0  0
   24.3275  -22.8514  -12.8572 C   0  0  0  0  0  0  0  0  0  0  0  0
   24.0259  -23.3765  -14.2691 C   0  0  0  0  0  0  0  0  0  0  0  0
   22.7359  -22.6115  -14.5835 C   0  0  0  0  0  0  0  0  0  0  0  0
   22.6869  -21.4697  -13.6031 C   0  0  1  0  0  0  0  0  0  0  0  0
   21.7154  -21.8613  -12.5097 C   0  0  0  0  0  0  0  0  0  0  0  0
   22.1456  -22.4364  -11.4806 O   0  0  0  0  0  0  0  0  0  0  0  0
   20.3595  -21.6165  -12.5884 O   0  0  0  0  0  0  0  0  0  0  0  0
  2  1  1  6
  2 10  1  0
  3  2  1  0
  4  5  2  0
  4  3  1  0
  6  5  1  0
  7  8  1  0
  7  6  2  0
  8  9  2  0
  9  4  1  0
 10 12  1  0
 10 11  2  0
 12 13  1  0
 13 14  1  1
 15 14  1  0
 16 13  1  0
 16 17  2  0
 18 22  1  0
 18 16  1  0
 19 20  1  0
 19 18  1  0
 20 21  1  0
 21 22  1  0
 22 23  1  1
 24 23  2  0
 25 23  1  0
M  END
$$$$
