AIA.pdb
     RDKit          3D

 19 18  0  0  1  0  0  0  0  0999 V2000
   21.6318  -21.2972  -11.5681 C   0  0  0  0  0  0  0  0  0  0  0  0
   22.9629  -21.3160  -10.8509 C   0  0  2  0  0  0  0  0  0  0  0  0
   22.7173  -20.9287   -9.4755 N   0  0  0  0  0  0  0  0  0  0  0  0
   23.9689  -20.4413  -11.4954 C   0  0  0  0  0  0  0  0  0  0  0  0
   23.9792  -19.2238  -11.1912 O   0  0  0  0  0  0  0  0  0  0  0  0
   28.9054  -21.1669  -11.0367 C   0  0  0  0  0  0  0  0  0  0  0  0
   27.5360  -20.5896  -11.3097 C   0  0  0  0  0  0  0  0  0  0  0  0
   27.2375  -20.5084  -12.7806 C   0  0  2  0  0  0  0  0  0  0  0  0
   28.3208  -19.7748  -13.5400 C   0  0  0  0  0  0  0  0  0  0  0  0
   25.8711  -20.0006  -13.0953 C   0  0  2  0  0  0  0  0  0  0  0  0
   24.9198  -20.9066  -12.4369 N   0  0  0  0  0  0  0  0  0  0  0  0
   25.5812  -19.9942  -14.5542 C   0  0  0  0  0  0  0  0  0  0  0  0
   25.5155  -21.0490  -15.2361 O   0  0  0  0  0  0  0  0  0  0  0  0
   24.7142  -17.3345  -17.1411 C   0  0  0  0  0  0  0  0  0  0  0  0
   24.9844  -18.7315  -16.6552 C   0  0  2  0  0  0  0  0  0  0  0  0
   25.3620  -18.7745  -15.2537 N   0  0  0  0  0  0  0  0  0  0  0  0
   26.1087  -19.2676  -17.4699 C   0  0  0  0  0  0  0  0  0  0  0  0
   27.4020  -18.9757  -17.0218 O   0  0  0  0  0  0  0  0  0  0  0  0
   25.9232  -19.9480  -18.5078 O   0  0  0  0  0  0  0  0  0  0  0  0
  2  1  1  6
  2  3  1  0
  4  5  2  0
  4  2  1  0
  6  7  1  0
  7  8  1  0
  8 10  1  0
  8  9  1  6
 10 11  1  1
 10 12  1  0
 11  4  1  0
 12 13  2  0
 15 14  1  6
 15 17  1  0
 16 12  1  0
 16 15  1  0
 17 18  1  0
 19 17  2  0
M  END
$$$$
