AIA.pdb
     RDKit          3D

 19 18  0  0  1  0  0  0  0  0999 V2000
   24.5494   -9.9930  -19.1221 C   0  0  0  0  0  0  0  0  0  0  0  0
   23.2909  -10.7541  -18.7706 C   0  0  2  0  0  0  0  0  0  0  0  0
   22.7851  -11.3406  -19.9963 N   0  0  0  0  0  0  0  0  0  0  0  0
   22.2756   -9.9015  -18.1112 C   0  0  0  0  0  0  0  0  0  0  0  0
   21.4502   -9.2934  -18.8350 O   0  0  0  0  0  0  0  0  0  0  0  0
   18.8698  -11.7043  -14.9485 C   0  0  0  0  0  0  0  0  0  0  0  0
   19.6048  -10.7952  -15.9058 C   0  0  0  0  0  0  0  0  0  0  0  0
   20.3572   -9.7080  -15.1909 C   0  0  2  0  0  0  0  0  0  0  0  0
   19.4580   -8.8972  -14.2841 C   0  0  0  0  0  0  0  0  0  0  0  0
   21.1882   -8.8544  -16.0880 C   0  0  2  0  0  0  0  0  0  0  0  0
   22.1874   -9.7365  -16.7069 N   0  0  0  0  0  0  0  0  0  0  0  0
   21.9034   -7.7752  -15.3556 C   0  0  0  0  0  0  0  0  0  0  0  0
   22.6257   -8.0022  -14.3513 O   0  0  0  0  0  0  0  0  0  0  0  0
   22.4137   -4.0340  -15.8140 C   0  0  0  0  0  0  0  0  0  0  0  0
   22.4514   -5.3310  -15.0545 C   0  0  2  0  0  0  0  0  0  0  0  0
   21.8000   -6.4165  -15.7660 N   0  0  0  0  0  0  0  0  0  0  0  0
   21.7366   -5.1053  -13.7687 C   0  0  0  0  0  0  0  0  0  0  0  0
   22.4541   -4.4540  -12.7590 O   0  0  0  0  0  0  0  0  0  0  0  0
   20.5515   -5.4740  -13.5837 O   0  0  0  0  0  0  0  0  0  0  0  0
  2  1  1  6
  2  3  1  0
  4  5  2  0
  4  2  1  0
  6  7  1  0
  7  8  1  0
  8 10  1  0
  8  9  1  6
 10 11  1  1
 10 12  1  0
 11  4  1  0
 12 13  2  0
 15 14  1  6
 15 17  1  0
 16 12  1  0
 16 15  1  0
 17 18  1  0
 19 17  2  0
M  END
$$$$
