AIA.pdb
     RDKit          3D

 19 18  0  0  1  0  0  0  0  0999 V2000
   21.6223  -13.9090  -19.3319 C   0  0  0  0  0  0  0  0  0  0  0  0
   20.5357  -14.4821  -18.4500 C   0  0  2  0  0  0  0  0  0  0  0  0
   19.9976  -15.6446  -19.1291 N   0  0  0  0  0  0  0  0  0  0  0  0
   19.4792  -13.4940  -18.1340 C   0  0  0  0  0  0  0  0  0  0  0  0
   18.6682  -13.1816  -19.0394 O   0  0  0  0  0  0  0  0  0  0  0  0
   16.9366  -14.7727  -14.8727 C   0  0  0  0  0  0  0  0  0  0  0  0
   16.6355  -13.5871  -15.7598 C   0  0  0  0  0  0  0  0  0  0  0  0
   17.4995  -12.4010  -15.4342 C   0  0  2  0  0  0  0  0  0  0  0  0
   16.7238  -11.3099  -14.7299 C   0  0  0  0  0  0  0  0  0  0  0  0
   18.2885  -11.8892  -16.5915 C   0  0  2  0  0  0  0  0  0  0  0  0
   19.3359  -12.8834  -16.8637 N   0  0  0  0  0  0  0  0  0  0  0  0
   18.9420  -10.5830  -16.3101 C   0  0  0  0  0  0  0  0  0  0  0  0
   19.7675  -10.4267  -15.3741 O   0  0  0  0  0  0  0  0  0  0  0  0
   19.1457   -7.2208  -18.0579 C   0  0  0  0  0  0  0  0  0  0  0  0
   19.3183   -8.1578  -16.8949 C   0  0  2  0  0  0  0  0  0  0  0  0
   18.6572   -9.4343  -17.1004 N   0  0  0  0  0  0  0  0  0  0  0  0
   18.7173   -7.4940  -15.7060 C   0  0  0  0  0  0  0  0  0  0  0  0
   17.4659   -7.9641  -15.2919 O   0  0  0  0  0  0  0  0  0  0  0  0
   19.2904   -6.5596  -15.0954 O   0  0  0  0  0  0  0  0  0  0  0  0
  2  1  1  6
  2  3  1  0
  4  5  2  0
  4  2  1  0
  6  7  1  0
  7  8  1  0
  8 10  1  0
  8  9  1  6
 10 11  1  1
 10 12  1  0
 11  4  1  0
 12 13  2  0
 15 14  1  6
 15 17  1  0
 16 12  1  0
 16 15  1  0
 17 18  1  0
 19 17  2  0
M  END
$$$$
