AIA.pdb
     RDKit          3D

 19 18  0  0  1  0  0  0  0  0999 V2000
   23.2063   -9.4883  -21.3083 C   0  0  0  0  0  0  0  0  0  0  0  0
   23.8985  -10.5919  -20.5405 C   0  0  2  0  0  0  0  0  0  0  0  0
   23.3029  -11.8463  -20.9572 N   0  0  0  0  0  0  0  0  0  0  0  0
   23.8130  -10.4049  -19.0741 C   0  0  0  0  0  0  0  0  0  0  0  0
   22.8238  -10.8869  -18.4706 O   0  0  0  0  0  0  0  0  0  0  0  0
   27.5256  -11.9355  -16.0050 C   0  0  0  0  0  0  0  0  0  0  0  0
   26.1891  -11.4860  -16.5478 C   0  0  0  0  0  0  0  0  0  0  0  0
   25.9132  -10.0389  -16.2492 C   0  0  2  0  0  0  0  0  0  0  0  0
   26.0026   -9.7376  -14.7694 C   0  0  0  0  0  0  0  0  0  0  0  0
   24.6582   -9.5206  -16.8659 C   0  0  2  0  0  0  0  0  0  0  0  0
   24.7890   -9.7108  -18.3172 N   0  0  0  0  0  0  0  0  0  0  0  0
   24.4408   -8.0736  -16.5993 C   0  0  0  0  0  0  0  0  0  0  0  0
   25.3243   -7.2050  -16.8155 O   0  0  0  0  0  0  0  0  0  0  0  0
   21.7408   -5.7051  -16.6473 C   0  0  0  0  0  0  0  0  0  0  0  0
   22.9300   -6.1908  -15.8659 C   0  0  2  0  0  0  0  0  0  0  0  0
   23.2032   -7.6009  -16.0793 N   0  0  0  0  0  0  0  0  0  0  0  0
   22.6238   -5.9757  -14.4254 C   0  0  0  0  0  0  0  0  0  0  0  0
   22.2242   -7.1007  -13.6952 O   0  0  0  0  0  0  0  0  0  0  0  0
   22.7145   -4.8499  -13.8788 O   0  0  0  0  0  0  0  0  0  0  0  0
  2  1  1  6
  2  3  1  0
  4  5  2  0
  4  2  1  0
  6  7  1  0
  7  8  1  0
  8 10  1  0
  8  9  1  1
 10 11  1  6
 10 12  1  0
 11  4  1  0
 12 13  2  0
 15 14  1  6
 15 17  1  0
 16 12  1  0
 16 15  1  0
 17 18  1  0
 19 17  2  0
M  END
$$$$
