AIA.pdb
     RDKit          3D

 19 18  0  0  1  0  0  0  0  0999 V2000
   15.5751  -11.0863  -17.1622 C   0  0  0  0  0  0  0  0  0  0  0  0
   16.8238  -11.6994  -16.5693 C   0  0  2  0  0  0  0  0  0  0  0  0
   16.4086  -12.8342  -15.7682 N   0  0  0  0  0  0  0  0  0  0  0  0
   17.6134  -10.7289  -15.7774 C   0  0  0  0  0  0  0  0  0  0  0  0
   17.2217  -10.4502  -14.6181 O   0  0  0  0  0  0  0  0  0  0  0  0
   23.1547   -9.8789  -14.1077 C   0  0  0  0  0  0  0  0  0  0  0  0
   21.8717   -9.1190  -14.3518 C   0  0  0  0  0  0  0  0  0  0  0  0
   20.9091   -9.8918  -15.2094 C   0  0  2  0  0  0  0  0  0  0  0  0
   21.5409  -10.3416  -16.5081 C   0  0  0  0  0  0  0  0  0  0  0  0
   19.5979   -9.2116  -15.4140 C   0  0  2  0  0  0  0  0  0  0  0  0
   18.7872  -10.0989  -16.2595 N   0  0  0  0  0  0  0  0  0  0  0  0
   19.7313   -7.8996  -16.1019 C   0  0  0  0  0  0  0  0  0  0  0  0
   20.2310   -7.7849  -17.2504 O   0  0  0  0  0  0  0  0  0  0  0  0
   18.2509   -4.4808  -15.7250 C   0  0  0  0  0  0  0  0  0  0  0  0
   19.3638   -5.4038  -16.1372 C   0  0  2  0  0  0  0  0  0  0  0  0
   19.2921   -6.6970  -15.4805 N   0  0  0  0  0  0  0  0  0  0  0  0
   20.6424   -4.7442  -15.7560 C   0  0  0  0  0  0  0  0  0  0  0  0
   21.0323   -3.6418  -16.5249 O   0  0  0  0  0  0  0  0  0  0  0  0
   21.3461   -5.1439  -14.7970 O   0  0  0  0  0  0  0  0  0  0  0  0
  2  1  1  1
  2  3  1  0
  4  5  2  0
  4  2  1  0
  6  7  1  0
  7  8  1  0
  8 10  1  0
  8  9  1  6
 10 11  1  6
 10 12  1  0
 11  4  1  0
 12 13  2  0
 15 14  1  1
 15 17  1  0
 16 12  1  0
 16 15  1  0
 17 18  1  0
 19 17  2  0
M  END
$$$$
