AIA.pdb
     RDKit          3D

 19 18  0  0  1  0  0  0  0  0999 V2000
   22.8598  -11.4990  -15.6804 C   0  0  0  0  0  0  0  0  0  0  0  0
   21.6825  -12.4164  -15.9237 C   0  0  2  0  0  0  0  0  0  0  0  0
   22.0432  -13.3009  -17.0143 N   0  0  0  0  0  0  0  0  0  0  0  0
   20.4330  -11.6751  -16.2094 C   0  0  0  0  0  0  0  0  0  0  0  0
   20.2382  -11.2688  -17.3808 O   0  0  0  0  0  0  0  0  0  0  0  0
   17.0627  -13.8956  -14.6736 C   0  0  0  0  0  0  0  0  0  0  0  0
   16.7632  -12.7145  -15.5672 C   0  0  0  0  0  0  0  0  0  0  0  0
   17.0921  -11.4052  -14.9062 C   0  0  2  0  0  0  0  0  0  0  0  0
   15.8640  -10.5442  -14.7099 C   0  0  0  0  0  0  0  0  0  0  0  0
   18.2151  -10.6653  -15.5506 C   0  0  2  0  0  0  0  0  0  0  0  0
   19.4465  -11.4006  -15.2303 N   0  0  0  0  0  0  0  0  0  0  0  0
   18.3534   -9.2737  -15.0440 C   0  0  0  0  0  0  0  0  0  0  0  0
   18.6350   -9.0141  -13.8460 O   0  0  0  0  0  0  0  0  0  0  0  0
   18.4395   -5.8074  -16.5869 C   0  0  0  0  0  0  0  0  0  0  0  0
   18.3055   -6.7845  -15.4520 C   0  0  2  0  0  0  0  0  0  0  0  0
   18.1702   -8.1569  -15.9068 N   0  0  0  0  0  0  0  0  0  0  0  0
   17.0808   -6.4089  -14.6944 C   0  0  0  0  0  0  0  0  0  0  0  0
   15.9669   -7.2416  -14.8514 O   0  0  0  0  0  0  0  0  0  0  0  0
   17.0331   -5.4006  -13.9490 O   0  0  0  0  0  0  0  0  0  0  0  0
  2  1  1  6
  2  3  1  0
  4  5  2  0
  4  2  1  0
  6  7  1  0
  7  8  1  0
  8 10  1  0
  8  9  1  6
 10 11  1  1
 10 12  1  0
 11  4  1  0
 12 13  2  0
 15 14  1  6
 15 17  1  0
 16 12  1  0
 16 15  1  0
 17 18  1  0
 19 17  2  0
M  END
$$$$
