AIA.pdb
     RDKit          3D

 19 18  0  0  1  0  0  0  0  0999 V2000
   31.2763    2.2819  -15.1646 C   0  0  0  0  0  0  0  0  0  0  0  0
   30.6358    0.9330  -14.9260 C   0  0  2  0  0  0  0  0  0  0  0  0
   29.2756    1.1734  -14.4855 N   0  0  0  0  0  0  0  0  0  0  0  0
   31.3895    0.1092  -13.9535 C   0  0  0  0  0  0  0  0  0  0  0  0
   31.0681    0.1778  -12.7422 O   0  0  0  0  0  0  0  0  0  0  0  0
   32.0492   -4.9451  -14.8570 C   0  0  0  0  0  0  0  0  0  0  0  0
   31.9147   -3.6237  -14.1368 C   0  0  0  0  0  0  0  0  0  0  0  0
   33.2446   -2.9574  -13.9207 C   0  0  2  0  0  0  0  0  0  0  0  0
   34.2106   -3.8481  -13.1713 C   0  0  0  0  0  0  0  0  0  0  0  0
   33.1499   -1.5902  -13.3327 C   0  0  2  0  0  0  0  0  0  0  0  0
   32.4537   -0.7518  -14.3185 N   0  0  0  0  0  0  0  0  0  0  0  0
   34.4820   -0.9873  -13.0601 C   0  0  0  0  0  0  0  0  0  0  0  0
   35.3121   -0.7388  -13.9717 O   0  0  0  0  0  0  0  0  0  0  0  0
   36.2814    0.3530   -9.9818 C   0  0  0  0  0  0  0  0  0  0  0  0
   36.1448   -0.0083  -11.4348 C   0  0  2  0  0  0  0  0  0  0  0  0
   34.8820   -0.6598  -11.7343 N   0  0  0  0  0  0  0  0  0  0  0  0
   37.2549   -0.9454  -11.7583 C   0  0  0  0  0  0  0  0  0  0  0  0
   38.4710   -0.3679  -12.1408 O   0  0  0  0  0  0  0  0  0  0  0  0
   37.1232   -2.1918  -11.6962 O   0  0  0  0  0  0  0  0  0  0  0  0
  2  1  1  1
  2  3  1  0
  4  5  2  0
  4  2  1  0
  6  7  1  0
  7  8  1  0
  8 10  1  0
  8  9  1  1
 10 11  1  6
 10 12  1  0
 11  4  1  0
 12 13  2  0
 15 14  1  1
 15 17  1  0
 16 12  1  0
 16 15  1  0
 17 18  1  0
 19 17  2  0
M  END
$$$$
