AIA.pdb
     RDKit          3D

 19 18  0  0  1  0  0  0  0  0999 V2000
   45.3065  -10.2392   -5.3928 C   0  0  0  0  0  0  0  0  0  0  0  0
   45.3728  -11.4007   -6.3588 C   0  0  2  0  0  0  0  0  0  0  0  0
   46.7610  -11.5620   -6.7447 N   0  0  0  0  0  0  0  0  0  0  0  0
   44.4949  -11.2124   -7.5363 C   0  0  0  0  0  0  0  0  0  0  0  0
   44.9959  -10.7253   -8.5787 O   0  0  0  0  0  0  0  0  0  0  0  0
   41.8316  -15.0950   -9.0983 C   0  0  0  0  0  0  0  0  0  0  0  0
   42.4655  -13.7498   -9.3661 C   0  0  0  0  0  0  0  0  0  0  0  0
   41.5581  -12.6108   -8.9935 C   0  0  2  0  0  0  0  0  0  0  0  0
   40.4178  -12.4494   -9.9742 C   0  0  0  0  0  0  0  0  0  0  0  0
   42.2718  -11.3289   -8.7266 C   0  0  2  0  0  0  0  0  0  0  0  0
   43.1198  -11.5531   -7.5475 N   0  0  0  0  0  0  0  0  0  0  0  0
   41.3441  -10.2043   -8.4313 C   0  0  0  0  0  0  0  0  0  0  0  0
   40.5501  -10.2197   -7.4561 O   0  0  0  0  0  0  0  0  0  0  0  0
   41.1047   -6.5930   -9.3569 C   0  0  0  0  0  0  0  0  0  0  0  0
   40.4706   -7.8973   -8.9604 C   0  0  2  0  0  0  0  0  0  0  0  0
   41.3140   -9.0427   -9.2529 N   0  0  0  0  0  0  0  0  0  0  0  0
   39.2073   -8.0230   -9.7372 C   0  0  0  0  0  0  0  0  0  0  0  0
   39.1841   -8.9966  -10.7423 O   0  0  0  0  0  0  0  0  0  0  0  0
   38.2056   -7.3007   -9.5147 O   0  0  0  0  0  0  0  0  0  0  0  0
  2  1  1  1
  2  3  1  0
  4  5  2  0
  4  2  1  0
  6  7  1  0
  7  8  1  0
  8 10  1  0
  8  9  1  6
 10 11  1  1
 10 12  1  0
 11  4  1  0
 12 13  2  0
 15 14  1  6
 15 17  1  0
 16 12  1  0
 16 15  1  0
 17 18  1  0
 19 17  2  0
M  END
$$$$
