TMP.pdb
     RDKit          3D

 23 23  0  0  1  0  0  0  0  0999 V2000
   16.9343  -12.2356  -16.4177 C   0  0  0  0  0  0  0  0  0  0  0  0
   17.9337  -11.1849  -16.0049 C   0  0  1  0  0  0  0  0  0  0  0  0
   18.1959  -11.1757  -14.6490 O   0  0  0  0  0  0  0  0  0  0  0  0
   19.1909  -11.2482  -16.8457 C   0  0  2  0  0  0  0  0  0  0  0  0
   19.8844  -12.4718  -16.4894 N   0  0  0  0  0  0  0  0  0  0  0  0
   20.0383  -10.0592  -16.6782 C   0  0  0  0  0  0  0  0  0  0  0  0
   21.0140  -10.1042  -15.8967 O   0  0  0  0  0  0  0  0  0  0  0  0
   22.2829   -5.0316  -20.8817 C   0  0  0  0  0  0  0  0  0  0  0  0
   21.5919   -6.6813  -21.0853 S   0  0  0  0  0  0  0  0  0  0  0  0
   21.7382   -7.6150  -19.5135 C   0  0  0  0  0  0  0  0  0  0  0  0
   20.6676   -7.1139  -18.6117 C   0  0  0  0  0  0  0  0  0  0  0  0
   20.6500   -7.7125  -17.2121 C   0  0  2  0  0  0  0  0  0  0  0  0
   19.7399   -8.8863  -17.3996 N   0  0  0  0  0  0  0  0  0  0  0  0
   20.0010   -6.8525  -16.2113 C   0  0  0  0  0  0  0  0  0  0  0  0
   18.7212   -6.9263  -16.1223 O   0  0  0  0  0  0  0  0  0  0  0  0
   20.6445   -5.9643  -15.3454 N   0  0  0  0  0  0  0  0  0  0  0  0
   22.0999   -5.7120  -15.3578 C   0  0  0  0  0  0  0  0  0  0  0  0
   22.3789   -4.9251  -14.0961 C   0  0  0  0  0  0  0  0  0  0  0  0
   21.1586   -5.2322  -13.2550 C   0  0  0  0  0  0  0  0  0  0  0  0
   20.0679   -5.1048  -14.3394 C   0  0  1  0  0  0  0  0  0  0  0  0
   20.1505   -3.6607  -14.7838 C   0  0  0  0  0  0  0  0  0  0  0  0
   19.5114   -2.6515  -14.0927 O   0  0  0  0  0  0  0  0  0  0  0  0
   20.8126   -3.3666  -15.8025 O   0  0  0  0  0  0  0  0  0  0  0  0
  2  1  1  1
  3  2  1  0
  4  2  1  0
  4  6  1  0
  4  5  1  1
  6  7  2  0
  9 10  1  0
  9  8  1  0
 10 11  1  0
 12 11  1  6
 13 12  1  0
 13  6  1  0
 14 12  1  0
 14 15  2  0
 16 14  1  0
 17 16  1  0
 18 17  1  0
 18 19  1  0
 19 20  1  0
 20 16  1  0
 20 21  1  6
 21 22  1  0
 23 21  2  0
M  END
$$$$
