TMP.pdb
     RDKit          3D

 23 23  0  0  1  0  0  0  0  0999 V2000
   21.0918  -11.0544  -20.1816 C   0  0  0  0  0  0  0  0  0  0  0  0
   20.3943  -12.2663  -19.6177 C   0  0  1  0  0  0  0  0  0  0  0  0
   19.7435  -13.0221  -20.5729 O   0  0  0  0  0  0  0  0  0  0  0  0
   21.3200  -13.0897  -18.7478 C   0  0  2  0  0  0  0  0  0  0  0  0
   20.5699  -14.2478  -18.2990 N   0  0  0  0  0  0  0  0  0  0  0  0
   21.8724  -12.3159  -17.6270 C   0  0  0  0  0  0  0  0  0  0  0  0
   21.1464  -12.0555  -16.6421 O   0  0  0  0  0  0  0  0  0  0  0  0
   27.6062  -12.8132  -14.8048 C   0  0  0  0  0  0  0  0  0  0  0  0
   27.6678  -11.1923  -15.5854 S   0  0  0  0  0  0  0  0  0  0  0  0
   25.9871  -10.4594  -15.6298 C   0  0  0  0  0  0  0  0  0  0  0  0
   25.1580  -11.3318  -16.5029 C   0  0  0  0  0  0  0  0  0  0  0  0
   23.6809  -10.9724  -16.5829 C   0  0  2  0  0  0  0  0  0  0  0  0
   23.2108  -11.8786  -17.6777 N   0  0  0  0  0  0  0  0  0  0  0  0
   23.4324   -9.6024  -17.0561 C   0  0  0  0  0  0  0  0  0  0  0  0
   23.6035   -9.3797  -18.3100 O   0  0  0  0  0  0  0  0  0  0  0  0
   23.0248   -8.5201  -16.2718 N   0  0  0  0  0  0  0  0  0  0  0  0
   22.8505   -8.5852  -14.8064 C   0  0  0  0  0  0  0  0  0  0  0  0
   22.1400   -7.3030  -14.4321 C   0  0  0  0  0  0  0  0  0  0  0  0
   21.5453   -6.8724  -15.7556 C   0  0  0  0  0  0  0  0  0  0  0  0
   22.7484   -7.1628  -16.6775 C   0  0  1  0  0  0  0  0  0  0  0  0
   23.8365   -6.2404  -16.1727 C   0  0  0  0  0  0  0  0  0  0  0  0
   23.8565   -4.8984  -16.4940 O   0  0  0  0  0  0  0  0  0  0  0  0
   24.7443   -6.6985  -15.4456 O   0  0  0  0  0  0  0  0  0  0  0  0
  2  1  1  6
  3  2  1  0
  4  2  1  0
  4  6  1  0
  4  5  1  1
  6  7  2  0
  9 10  1  0
  9  8  1  0
 10 11  1  0
 12 11  1  6
 13 12  1  0
 13  6  1  0
 14 12  1  0
 14 15  2  0
 16 14  1  0
 17 16  1  0
 18 17  1  0
 18 19  1  0
 19 20  1  0
 20 16  1  0
 20 21  1  1
 21 22  1  0
 23 21  2  0
M  END
$$$$
