TMP.pdb
     RDKit          3D

 23 23  0  0  1  0  0  0  0  0999 V2000
   24.0951  -10.1468  -17.5154 C   0  0  0  0  0  0  0  0  0  0  0  0
   23.0443   -9.1250  -17.1618 C   0  0  1  0  0  0  0  0  0  0  0  0
   22.2822   -8.7217  -18.2406 O   0  0  0  0  0  0  0  0  0  0  0  0
   22.2048   -9.5712  -15.9837 C   0  0  2  0  0  0  0  0  0  0  0  0
   21.4508  -10.7350  -16.4103 N   0  0  0  0  0  0  0  0  0  0  0  0
   21.3356   -8.5000  -15.4766 C   0  0  0  0  0  0  0  0  0  0  0  0
   20.2336   -8.2884  -16.0293 O   0  0  0  0  0  0  0  0  0  0  0  0
   19.4944   -5.1695   -8.7652 C   0  0  0  0  0  0  0  0  0  0  0  0
   20.2519   -6.4009   -9.8377 S   0  0  0  0  0  0  0  0  0  0  0  0
   20.1519   -5.8502  -11.5842 C   0  0  0  0  0  0  0  0  0  0  0  0
   20.7871   -6.9117  -12.4092 C   0  0  0  0  0  0  0  0  0  0  0  0
   20.8378   -6.6418  -13.9066 C   0  0  2  0  0  0  0  0  0  0  0  0
   21.7556   -7.7273  -14.3758 N   0  0  0  0  0  0  0  0  0  0  0  0
   21.4974   -5.3746  -14.2552 C   0  0  0  0  0  0  0  0  0  0  0  0
   22.7736   -5.3244  -14.1135 O   0  0  0  0  0  0  0  0  0  0  0  0
   20.8681   -4.2202  -14.7287 N   0  0  0  0  0  0  0  0  0  0  0  0
   19.4031   -4.0680  -14.8391 C   0  0  0  0  0  0  0  0  0  0  0  0
   19.1931   -2.8071  -15.6484 C   0  0  0  0  0  0  0  0  0  0  0  0
   20.5338   -2.6420  -16.3311 C   0  0  0  0  0  0  0  0  0  0  0  0
   21.4624   -2.9719  -15.1434 C   0  0  1  0  0  0  0  0  0  0  0  0
   21.1632   -1.8934  -14.1250 C   0  0  0  0  0  0  0  0  0  0  0  0
   21.8355   -0.6881  -14.1265 O   0  0  0  0  0  0  0  0  0  0  0  0
   20.2862   -2.0920  -13.2568 O   0  0  0  0  0  0  0  0  0  0  0  0
  2  1  1  6
  3  2  1  0
  4  2  1  0
  4  6  1  0
  4  5  1  6
  6  7  2  0
  9 10  1  0
  9  8  1  0
 10 11  1  0
 12 11  1  1
 13 12  1  0
 13  6  1  0
 14 12  1  0
 14 15  2  0
 16 14  1  0
 17 16  1  0
 18 17  1  0
 18 19  1  0
 19 20  1  0
 20 16  1  0
 20 21  1  1
 21 22  1  0
 23 21  2  0
M  END
$$$$
