TMP.pdb
     RDKit          3D

 23 23  0  0  1  0  0  0  0  0999 V2000
   18.3944  -10.0289  -21.3829 C   0  0  0  0  0  0  0  0  0  0  0  0
   18.9664   -9.6092  -20.0525 C   0  0  1  0  0  0  0  0  0  0  0  0
   18.1049   -8.8334  -19.3020 O   0  0  0  0  0  0  0  0  0  0  0  0
   19.5150  -10.7910  -19.2819 C   0  0  2  0  0  0  0  0  0  0  0  0
   18.4022  -11.6825  -19.0139 N   0  0  0  0  0  0  0  0  0  0  0  0
   20.2114  -10.3849  -18.0530 C   0  0  0  0  0  0  0  0  0  0  0  0
   19.6042  -10.4243  -16.9601 O   0  0  0  0  0  0  0  0  0  0  0  0
   27.0048  -10.7594  -14.7699 C   0  0  0  0  0  0  0  0  0  0  0  0
   26.1646  -10.4237  -16.3261 S   0  0  0  0  0  0  0  0  0  0  0  0
   24.5946   -9.5315  -16.0053 C   0  0  0  0  0  0  0  0  0  0  0  0
   23.6196   -9.9902  -17.0299 C   0  0  0  0  0  0  0  0  0  0  0  0
   22.1928   -9.4894  -16.8538 C   0  0  2  0  0  0  0  0  0  0  0  0
   21.5521   -9.9574  -18.1233 N   0  0  0  0  0  0  0  0  0  0  0  0
   22.0779   -8.0233  -16.8586 C   0  0  0  0  0  0  0  0  0  0  0  0
   22.1304   -7.4390  -18.0018 O   0  0  0  0  0  0  0  0  0  0  0  0
   21.9141   -7.2053  -15.7376 N   0  0  0  0  0  0  0  0  0  0  0  0
   21.9295   -7.7024  -14.3468 C   0  0  0  0  0  0  0  0  0  0  0  0
   21.4377   -6.5459  -13.5044 C   0  0  0  0  0  0  0  0  0  0  0  0
   20.7295   -5.6863  -14.5294 C   0  0  0  0  0  0  0  0  0  0  0  0
   21.7546   -5.7719  -15.6799 C   0  0  1  0  0  0  0  0  0  0  0  0
   23.0049   -5.1348  -15.1138 C   0  0  0  0  0  0  0  0  0  0  0  0
   23.1703   -3.7651  -15.0818 O   0  0  0  0  0  0  0  0  0  0  0  0
   23.9161   -5.8615  -14.6618 O   0  0  0  0  0  0  0  0  0  0  0  0
  2  1  1  6
  3  2  1  0
  4  2  1  0
  4  6  1  0
  4  5  1  1
  6  7  2  0
  9 10  1  0
  9  8  1  0
 10 11  1  0
 12 11  1  6
 13 12  1  0
 13  6  1  0
 14 12  1  0
 14 15  2  0
 16 14  1  0
 17 16  1  0
 18 17  1  0
 18 19  1  0
 19 20  1  0
 20 16  1  0
 20 21  1  1
 21 22  1  0
 23 21  2  0
M  END
$$$$
