TMP.pdb
     RDKit          3D

 23 23  0  0  1  0  0  0  0  0999 V2000
   22.0492  -21.4552  -16.5816 C   0  0  0  0  0  0  0  0  0  0  0  0
   21.1234  -20.4968  -15.8764 C   0  0  1  0  0  0  0  0  0  0  0  0
   19.7865  -20.8065  -16.0316 O   0  0  0  0  0  0  0  0  0  0  0  0
   21.5170  -20.3032  -14.4276 C   0  0  2  0  0  0  0  0  0  0  0  0
   20.5324  -19.4213  -13.8294 N   0  0  0  0  0  0  0  0  0  0  0  0
   22.8861  -19.7888  -14.2822 C   0  0  0  0  0  0  0  0  0  0  0  0
   23.1993  -18.7093  -14.8312 O   0  0  0  0  0  0  0  0  0  0  0  0
   25.0947  -22.2207   -9.4321 C   0  0  0  0  0  0  0  0  0  0  0  0
   24.5185  -20.5718   -9.8677 S   0  0  0  0  0  0  0  0  0  0  0  0
   25.7064  -19.7824  -11.0206 C   0  0  0  0  0  0  0  0  0  0  0  0
   25.7695  -20.6422  -12.2320 C   0  0  0  0  0  0  0  0  0  0  0  0
   25.2362  -20.0170  -13.5135 C   0  0  2  0  0  0  0  0  0  0  0  0
   23.8257  -20.5183  -13.5271 N   0  0  0  0  0  0  0  0  0  0  0  0
   25.8655  -20.5448  -14.7332 C   0  0  0  0  0  0  0  0  0  0  0  0
   25.3100  -21.5666  -15.2795 O   0  0  0  0  0  0  0  0  0  0  0  0
   27.0093  -20.0387  -15.3564 N   0  0  0  0  0  0  0  0  0  0  0  0
   27.9286  -19.0689  -14.7269 C   0  0  0  0  0  0  0  0  0  0  0  0
   28.8350  -18.5967  -15.8424 C   0  0  0  0  0  0  0  0  0  0  0  0
   28.0361  -18.9609  -17.0753 C   0  0  0  0  0  0  0  0  0  0  0  0
   27.5508  -20.3641  -16.6541 C   0  0  1  0  0  0  0  0  0  0  0  0
   28.8235  -21.1674  -16.4968 C   0  0  0  0  0  0  0  0  0  0  0  0
   29.5457  -21.6032  -17.5891 O   0  0  0  0  0  0  0  0  0  0  0  0
   29.2375  -21.4476  -15.3511 O   0  0  0  0  0  0  0  0  0  0  0  0
  2  1  1  1
  3  2  1  0
  4  2  1  0
  4  6  1  0
  4  5  1  6
  6  7  2  0
  9 10  1  0
  9  8  1  0
 10 11  1  0
 12 11  1  1
 13 12  1  0
 13  6  1  0
 14 12  1  0
 14 15  2  0
 16 14  1  0
 17 16  1  0
 18 17  1  0
 18 19  1  0
 19 20  1  0
 20 16  1  0
 20 21  1  1
 21 22  1  0
 23 21  2  0
M  END
$$$$
