TMP.pdb
     RDKit          3D

 23 23  0  0  1  0  0  0  0  0999 V2000
   20.3891  -23.0591  -13.4825 C   0  0  0  0  0  0  0  0  0  0  0  0
   21.6270  -22.2093  -13.6195 C   0  0  1  0  0  0  0  0  0  0  0  0
   21.8797  -21.8083  -14.9166 O   0  0  0  0  0  0  0  0  0  0  0  0
   21.6252  -21.0567  -12.6382 C   0  0  2  0  0  0  0  0  0  0  0  0
   20.6306  -20.1048  -13.0960 N   0  0  0  0  0  0  0  0  0  0  0  0
   22.9533  -20.4453  -12.4887 C   0  0  0  0  0  0  0  0  0  0  0  0
   23.2847  -19.5022  -13.2406 O   0  0  0  0  0  0  0  0  0  0  0  0
   28.4188  -20.0645   -7.6616 C   0  0  0  0  0  0  0  0  0  0  0  0
   26.7166  -20.6490   -7.6941 S   0  0  0  0  0  0  0  0  0  0  0  0
   25.8243  -19.8870   -9.1037 C   0  0  0  0  0  0  0  0  0  0  0  0
   25.7648  -20.9096  -10.1814 C   0  0  0  0  0  0  0  0  0  0  0  0
   25.2419  -20.4222  -11.5254 C   0  0  2  0  0  0  0  0  0  0  0  0
   23.8338  -20.9298  -11.5011 N   0  0  0  0  0  0  0  0  0  0  0  0
   25.8860  -21.0692  -12.6783 C   0  0  0  0  0  0  0  0  0  0  0  0
   25.5542  -22.2861  -12.9233 O   0  0  0  0  0  0  0  0  0  0  0  0
   26.8229  -20.4848  -13.5348 N   0  0  0  0  0  0  0  0  0  0  0  0
   27.5815  -19.2594  -13.2114 C   0  0  0  0  0  0  0  0  0  0  0  0
   28.2411  -18.8449  -14.5084 C   0  0  0  0  0  0  0  0  0  0  0  0
   27.4064  -19.5778  -15.5365 C   0  0  0  0  0  0  0  0  0  0  0  0
   27.2753  -20.9420  -14.8269 C   0  0  1  0  0  0  0  0  0  0  0  0
   28.6975  -21.4490  -14.7272 C   0  0  0  0  0  0  0  0  0  0  0  0
   29.3468  -22.0051  -15.8106 O   0  0  0  0  0  0  0  0  0  0  0  0
   29.3065  -21.3655  -13.6388 O   0  0  0  0  0  0  0  0  0  0  0  0
  2  1  1  6
  3  2  1  0
  4  2  1  0
  4  6  1  0
  4  5  1  6
  6  7  2  0
  9 10  1  0
  9  8  1  0
 10 11  1  0
 12 11  1  1
 13 12  1  0
 13  6  1  0
 14 12  1  0
 14 15  2  0
 16 14  1  0
 17 16  1  0
 18 17  1  0
 18 19  1  0
 19 20  1  0
 20 16  1  0
 20 21  1  1
 21 22  1  0
 23 21  2  0
M  END
$$$$
