TMP.pdb
     RDKit          3D

 23 23  0  0  1  0  0  0  0  0999 V2000
   21.8795  -21.9410  -16.7786 C   0  0  0  0  0  0  0  0  0  0  0  0
   20.8484  -20.8444  -16.6928 C   0  0  1  0  0  0  0  0  0  0  0  0
   19.6124  -21.2097  -17.1889 O   0  0  0  0  0  0  0  0  0  0  0  0
   20.7718  -20.2567  -15.2998 C   0  0  2  0  0  0  0  0  0  0  0  0
   19.7693  -19.2084  -15.3307 N   0  0  0  0  0  0  0  0  0  0  0  0
   22.0740  -19.7678  -14.8250 C   0  0  0  0  0  0  0  0  0  0  0  0
   22.5082  -18.6709  -15.2409 O   0  0  0  0  0  0  0  0  0  0  0  0
   24.6511  -20.5477   -9.0128 C   0  0  0  0  0  0  0  0  0  0  0  0
   25.8054  -21.4631  -10.0472 S   0  0  0  0  0  0  0  0  0  0  0  0
   25.8291  -20.7478  -11.7359 C   0  0  0  0  0  0  0  0  0  0  0  0
   24.4254  -20.7502  -12.2261 C   0  0  0  0  0  0  0  0  0  0  0  0
   24.1944  -20.0714  -13.5690 C   0  0  2  0  0  0  0  0  0  0  0  0
   22.8141  -20.5408  -13.9086 N   0  0  0  0  0  0  0  0  0  0  0  0
   25.0678  -20.5724  -14.6408 C   0  0  0  0  0  0  0  0  0  0  0  0
   24.6516  -21.5928  -15.3017 O   0  0  0  0  0  0  0  0  0  0  0  0
   26.3067  -20.0422  -15.0106 N   0  0  0  0  0  0  0  0  0  0  0  0
   27.0688  -19.0806  -14.1883 C   0  0  0  0  0  0  0  0  0  0  0  0
   28.1742  -18.5743  -15.0887 C   0  0  0  0  0  0  0  0  0  0  0  0
   27.6432  -18.9151  -16.4644 C   0  0  0  0  0  0  0  0  0  0  0  0
   27.1013  -20.3319  -16.1802 C   0  0  1  0  0  0  0  0  0  0  0  0
   28.3267  -21.1285  -15.7885 C   0  0  0  0  0  0  0  0  0  0  0  0
   28.5895  -21.4555  -14.4738 O   0  0  0  0  0  0  0  0  0  0  0  0
   29.1266  -21.5032  -16.6731 O   0  0  0  0  0  0  0  0  0  0  0  0
  2  1  1  1
  3  2  1  0
  4  2  1  0
  4  6  1  0
  4  5  1  6
  6  7  2  0
  9 10  1  0
  9  8  1  0
 10 11  1  0
 12 11  1  1
 13 12  1  0
 13  6  1  0
 14 12  1  0
 14 15  2  0
 16 14  1  0
 17 16  1  0
 18 17  1  0
 18 19  1  0
 19 20  1  0
 20 16  1  0
 20 21  1  1
 21 22  1  0
 23 21  2  0
M  END
$$$$
