TMP.pdb
     RDKit          3D

 23 23  0  0  1  0  0  0  0  0999 V2000
   17.9911   -9.2311  -18.1396 C   0  0  0  0  0  0  0  0  0  0  0  0
   18.2536  -10.6035  -17.5731 C   0  0  1  0  0  0  0  0  0  0  0  0
   17.3828  -11.5685  -18.0397 O   0  0  0  0  0  0  0  0  0  0  0  0
   19.7064  -11.0015  -17.7229 C   0  0  2  0  0  0  0  0  0  0  0  0
   19.8462  -12.3335  -17.1649 N   0  0  0  0  0  0  0  0  0  0  0  0
   20.6200  -10.0364  -17.0952 C   0  0  0  0  0  0  0  0  0  0  0  0
   20.6969   -9.9835  -15.8478 O   0  0  0  0  0  0  0  0  0  0  0  0
   26.7400   -8.0801  -18.9625 C   0  0  0  0  0  0  0  0  0  0  0  0
   25.5266   -6.7929  -19.2963 S   0  0  0  0  0  0  0  0  0  0  0  0
   24.2508   -6.7842  -17.9787 C   0  0  0  0  0  0  0  0  0  0  0  0
   23.3197   -7.9059  -18.2713 C   0  0  0  0  0  0  0  0  0  0  0  0
   22.2533   -8.1701  -17.2175 C   0  0  2  0  0  0  0  0  0  0  0  0
   21.3958   -9.1852  -17.9069 N   0  0  0  0  0  0  0  0  0  0  0  0
   21.3826   -7.0139  -16.9573 C   0  0  0  0  0  0  0  0  0  0  0  0
   20.4176   -6.8145  -17.7820 O   0  0  0  0  0  0  0  0  0  0  0  0
   21.5035   -6.1127  -15.8961 N   0  0  0  0  0  0  0  0  0  0  0  0
   22.6182   -6.1273  -14.9271 C   0  0  0  0  0  0  0  0  0  0  0  0
   22.1948   -5.1891  -13.8182 C   0  0  0  0  0  0  0  0  0  0  0  0
   20.6958   -5.1209  -14.0162 C   0  0  0  0  0  0  0  0  0  0  0  0
   20.6512   -4.9992  -15.5540 C   0  0  1  0  0  0  0  0  0  0  0  0
   21.3617   -3.6955  -15.8460 C   0  0  0  0  0  0  0  0  0  0  0  0
   20.7034   -2.4836  -15.7947 O   0  0  0  0  0  0  0  0  0  0  0  0
   22.5760   -3.7085  -16.1422 O   0  0  0  0  0  0  0  0  0  0  0  0
  2  1  1  6
  3  2  1  0
  4  2  1  0
  4  6  1  0
  4  5  1  1
  6  7  2  0
  9 10  1  0
  9  8  1  0
 10 11  1  0
 12 11  1  6
 13 12  1  0
 13  6  1  0
 14 12  1  0
 14 15  2  0
 16 14  1  0
 17 16  1  0
 18 17  1  0
 18 19  1  0
 19 20  1  0
 20 16  1  0
 20 21  1  1
 21 22  1  0
 23 21  2  0
M  END
$$$$
