TMP.pdb
     RDKit          3D

 23 23  0  0  1  0  0  0  0  0999 V2000
   27.1468  -12.7123  -15.7300 C   0  0  0  0  0  0  0  0  0  0  0  0
   26.1828  -11.6427  -16.1770 C   0  0  1  0  0  0  0  0  0  0  0  0
   26.6787  -10.8400  -17.1854 O   0  0  0  0  0  0  0  0  0  0  0  0
   24.8204  -12.2177  -16.5004 C   0  0  2  0  0  0  0  0  0  0  0  0
   24.9767  -13.0589  -17.6721 N   0  0  0  0  0  0  0  0  0  0  0  0
   23.8033  -11.1749  -16.6956 C   0  0  0  0  0  0  0  0  0  0  0  0
   23.6737  -10.6449  -17.8212 O   0  0  0  0  0  0  0  0  0  0  0  0
   17.9145  -10.5660  -14.1994 C   0  0  0  0  0  0  0  0  0  0  0  0
   18.6223  -11.9600  -15.0917 S   0  0  0  0  0  0  0  0  0  0  0  0
   20.0965  -11.4109  -16.0345 C   0  0  0  0  0  0  0  0  0  0  0  0
   20.7270  -10.3154  -15.2516 C   0  0  0  0  0  0  0  0  0  0  0  0
   21.9826   -9.7073  -15.8607 C   0  0  2  0  0  0  0  0  0  0  0  0
   22.9892  -10.7872  -15.6129 N   0  0  0  0  0  0  0  0  0  0  0  0
   22.4733   -8.5230  -15.1401 C   0  0  0  0  0  0  0  0  0  0  0  0
   23.2273   -8.7326  -14.1209 O   0  0  0  0  0  0  0  0  0  0  0  0
   22.1996   -7.1906  -15.4604 N   0  0  0  0  0  0  0  0  0  0  0  0
   21.3480   -6.7749  -16.5935 C   0  0  0  0  0  0  0  0  0  0  0  0
   21.5647   -5.2836  -16.7289 C   0  0  0  0  0  0  0  0  0  0  0  0
   22.8736   -5.0859  -15.9952 C   0  0  0  0  0  0  0  0  0  0  0  0
   22.6152   -5.9916  -14.7727 C   0  0  1  0  0  0  0  0  0  0  0  0
   21.4297   -5.3551  -14.0806 C   0  0  0  0  0  0  0  0  0  0  0  0
   20.1425   -5.8109  -14.2806 O   0  0  0  0  0  0  0  0  0  0  0  0
   21.6130   -4.3909  -13.3064 O   0  0  0  0  0  0  0  0  0  0  0  0
  2  1  1  6
  3  2  1  0
  4  2  1  0
  4  6  1  0
  4  5  1  6
  6  7  2  0
  9 10  1  0
  9  8  1  0
 10 11  1  0
 12 11  1  1
 13 12  1  0
 13  6  1  0
 14 12  1  0
 14 15  2  0
 16 14  1  0
 17 16  1  0
 18 17  1  0
 18 19  1  0
 19 20  1  0
 20 16  1  0
 20 21  1  1
 21 22  1  0
 23 21  2  0
M  END
$$$$
