TMP.pdb
     RDKit          3D

 23 23  0  0  1  0  0  0  0  0999 V2000
   23.6409  -17.3730  -16.2368 C   0  0  0  0  0  0  0  0  0  0  0  0
   24.9464  -16.6527  -16.4608 C   0  0  1  0  0  0  0  0  0  0  0  0
   24.7903  -15.3447  -16.8756 O   0  0  0  0  0  0  0  0  0  0  0  0
   25.8693  -16.7844  -15.2681 C   0  0  2  0  0  0  0  0  0  0  0  0
   27.0632  -16.0142  -15.5621 N   0  0  0  0  0  0  0  0  0  0  0  0
   26.1756  -18.1857  -14.9480 C   0  0  0  0  0  0  0  0  0  0  0  0
   26.8425  -18.8697  -15.7556 O   0  0  0  0  0  0  0  0  0  0  0  0
   26.0487  -19.9515   -9.0778 C   0  0  0  0  0  0  0  0  0  0  0  0
   25.4403  -21.5468   -9.6481 S   0  0  0  0  0  0  0  0  0  0  0  0
   25.6787  -21.6912  -11.4609 C   0  0  0  0  0  0  0  0  0  0  0  0
   25.7282  -20.3072  -12.0020 C   0  0  0  0  0  0  0  0  0  0  0  0
   25.9779  -20.1928  -13.4994 C   0  0  2  0  0  0  0  0  0  0  0  0
   25.7143  -18.7384  -13.7368 N   0  0  0  0  0  0  0  0  0  0  0  0
   24.9970  -20.9212  -14.3178 C   0  0  0  0  0  0  0  0  0  0  0  0
   23.8650  -20.3471  -14.5181 O   0  0  0  0  0  0  0  0  0  0  0  0
   25.1804  -22.1777  -14.9011 N   0  0  0  0  0  0  0  0  0  0  0  0
   26.3688  -23.0250  -14.6737 C   0  0  0  0  0  0  0  0  0  0  0  0
   26.2740  -24.1294  -15.7034 C   0  0  0  0  0  0  0  0  0  0  0  0
   25.3256  -23.5330  -16.7211 C   0  0  0  0  0  0  0  0  0  0  0  0
   24.2864  -22.9137  -15.7627 C   0  0  1  0  0  0  0  0  0  0  0  0
   23.7111  -24.0995  -15.0194 C   0  0  0  0  0  0  0  0  0  0  0  0
   22.6820  -24.8546  -15.5441 O   0  0  0  0  0  0  0  0  0  0  0  0
   24.1746  -24.4090  -13.9005 O   0  0  0  0  0  0  0  0  0  0  0  0
  2  1  1  1
  3  2  1  0
  4  2  1  0
  4  6  1  0
  4  5  1  6
  6  7  2  0
  9 10  1  0
  9  8  1  0
 10 11  1  0
 12 11  1  1
 13 12  1  0
 13  6  1  0
 14 12  1  0
 14 15  2  0
 16 14  1  0
 17 16  1  0
 18 17  1  0
 18 19  1  0
 19 20  1  0
 20 16  1  0
 20 21  1  1
 21 22  1  0
 23 21  2  0
M  END
$$$$
