TMP.pdb
     RDKit          3D

 23 23  0  0  1  0  0  0  0  0999 V2000
   21.6021  -21.1865  -15.9423 C   0  0  0  0  0  0  0  0  0  0  0  0
   21.0212  -21.5627  -14.6027 C   0  0  1  0  0  0  0  0  0  0  0  0
   21.5290  -22.7415  -14.0930 O   0  0  0  0  0  0  0  0  0  0  0  0
   21.0983  -20.4156  -13.6180 C   0  0  2  0  0  0  0  0  0  0  0  0
   20.2623  -19.3487  -14.1356 N   0  0  0  0  0  0  0  0  0  0  0  0
   22.4794  -19.9739  -13.3783 C   0  0  0  0  0  0  0  0  0  0  0  0
   22.9714  -19.0753  -14.0962 O   0  0  0  0  0  0  0  0  0  0  0  0
   26.5005  -19.3787   -7.7272 C   0  0  0  0  0  0  0  0  0  0  0  0
   26.5251  -20.9304   -8.6392 S   0  0  0  0  0  0  0  0  0  0  0  0
   26.4398  -20.5946  -10.4402 C   0  0  0  0  0  0  0  0  0  0  0  0
   25.0083  -20.6906  -10.8306 C   0  0  0  0  0  0  0  0  0  0  0  0
   24.6670  -20.1703  -12.2199 C   0  0  2  0  0  0  0  0  0  0  0  0
   23.2292  -20.5683  -12.3441 N   0  0  0  0  0  0  0  0  0  0  0  0
   25.3759  -20.8697  -13.3019 C   0  0  0  0  0  0  0  0  0  0  0  0
   24.8857  -21.9929  -13.6883 O   0  0  0  0  0  0  0  0  0  0  0  0
   26.5310  -20.4272  -13.9521 N   0  0  0  0  0  0  0  0  0  0  0  0
   27.4656  -19.4342  -13.3844 C   0  0  0  0  0  0  0  0  0  0  0  0
   28.3846  -19.0542  -14.5246 C   0  0  0  0  0  0  0  0  0  0  0  0
   27.5836  -19.4858  -15.7342 C   0  0  0  0  0  0  0  0  0  0  0  0
   27.0712  -20.8486  -15.2224 C   0  0  1  0  0  0  0  0  0  0  0  0
   28.3283  -21.6624  -15.0055 C   0  0  0  0  0  0  0  0  0  0  0  0
   28.8288  -21.9008  -13.7416 O   0  0  0  0  0  0  0  0  0  0  0  0
   28.9349  -22.1338  -15.9916 O   0  0  0  0  0  0  0  0  0  0  0  0
  2  1  1  6
  3  2  1  0
  4  2  1  0
  4  6  1  0
  4  5  1  6
  6  7  2  0
  9 10  1  0
  9  8  1  0
 10 11  1  0
 12 11  1  1
 13 12  1  0
 13  6  1  0
 14 12  1  0
 14 15  2  0
 16 14  1  0
 17 16  1  0
 18 17  1  0
 18 19  1  0
 19 20  1  0
 20 16  1  0
 20 21  1  1
 21 22  1  0
 23 21  2  0
M  END
$$$$
