HWG.pdb
     RDKit          3D

 29 31  0  0  1  0  0  0  0  0999 V2000
   28.1880  -21.7216  -15.7178 N   0  0  0  0  0  0  0  0  0  0  0  0
   27.2382  -20.7829  -15.2128 C   0  0  1  0  0  0  0  0  0  0  0  0
   26.3146  -20.3722  -16.3672 C   0  0  0  0  0  0  0  0  0  0  0  0
   27.0132  -19.2764  -17.0949 C   0  0  0  0  0  0  0  0  0  0  0  0
   27.8385  -19.3393  -18.1951 C   0  0  0  0  0  0  0  0  0  0  0  0
   28.2361  -18.0828  -18.4967 N   0  0  0  0  0  0  0  0  0  0  0  0
   27.6842  -17.2424  -17.6199 C   0  0  0  0  0  0  0  0  0  0  0  0
   26.9459  -17.9623  -16.7732 N   0  0  0  0  0  0  0  0  0  0  0  0
   26.3432  -21.3832  -14.1733 C   0  0  0  0  0  0  0  0  0  0  0  0
   25.9945  -22.5890  -14.2253 O   0  0  0  0  0  0  0  0  0  0  0  0
   25.9075  -20.5330  -13.1313 N   0  0  0  0  0  0  0  0  0  0  0  0
   25.0758  -21.1002  -12.0486 C   0  0  1  0  0  0  0  0  0  0  0  0
   25.5117  -20.4304  -10.8039 C   0  0  0  0  0  0  0  0  0  0  0  0
   26.8485  -20.7368  -10.2972 C   0  0  0  0  0  0  0  0  0  0  0  0
   27.8442  -21.4044  -10.9912 C   0  0  0  0  0  0  0  0  0  0  0  0
   28.8848  -21.5528  -10.1911 N   0  0  0  0  0  0  0  0  0  0  0  0
   28.6459  -21.0133   -8.9747 C   0  0  0  0  0  0  0  0  0  0  0  0
   29.3638  -20.8744   -7.8116 C   0  0  0  0  0  0  0  0  0  0  0  0
   28.8217  -20.2315   -6.7277 C   0  0  0  0  0  0  0  0  0  0  0  0
   27.5548  -19.7005   -6.7442 C   0  0  0  0  0  0  0  0  0  0  0  0
   26.8411  -19.8506   -7.9289 C   0  0  0  0  0  0  0  0  0  0  0  0
   27.3566  -20.4970   -9.0458 C   0  0  0  0  0  0  0  0  0  0  0  0
   23.6801  -20.9981  -12.4832 C   0  0  0  0  0  0  0  0  0  0  0  0
   23.2058  -19.9642  -13.0464 O   0  0  0  0  0  0  0  0  0  0  0  0
   22.7378  -22.0603  -12.2955 N   0  0  0  0  0  0  0  0  0  0  0  0
   21.3748  -22.0551  -12.6715 C   0  0  0  0  0  0  0  0  0  0  0  0
   20.5478  -21.2278  -11.7795 C   0  0  0  0  0  0  0  0  0  0  0  0
   21.0684  -20.5933  -10.8099 O   0  0  0  0  0  0  0  0  0  0  0  0
   19.1919  -21.1131  -11.9616 O   0  0  0  0  0  0  0  0  0  0  0  0
  2  1  1  6
  3  2  1  0
  3  4  1  0
  4  5  2  0
  5  6  1  0
  7  6  1  0
  8  4  1  0
  8  7  2  0
  9 10  2  0
  9  2  1  0
 11  9  1  0
 12 13  1  1
 12 11  1  0
 13 14  1  0
 14 15  2  0
 15 16  1  0
 17 18  2  0
 17 16  1  0
 19 18  1  0
 20 19  2  0
 21 20  1  0
 21 22  2  0
 22 14  1  0
 22 17  1  0
 23 12  1  0
 24 23  2  0
 25 23  1  0
 26 27  1  0
 26 25  1  0
 27 29  1  0
 28 27  2  0
M  END
$$$$
