HWG.pdb
     RDKit          3D

 29 31  0  0  1  0  0  0  0  0999 V2000
   27.8210  -21.6269  -14.7630 N   0  0  0  0  0  0  0  0  0  0  0  0
   27.2459  -20.6529  -13.8920 C   0  0  1  0  0  0  0  0  0  0  0  0
   26.1669  -19.8924  -14.6744 C   0  0  0  0  0  0  0  0  0  0  0  0
   26.8559  -18.7523  -15.3406 C   0  0  0  0  0  0  0  0  0  0  0  0
   28.1926  -18.4229  -15.3583 C   0  0  0  0  0  0  0  0  0  0  0  0
   28.3406  -17.2997  -16.0960 N   0  0  0  0  0  0  0  0  0  0  0  0
   27.1397  -16.9217  -16.5370 C   0  0  0  0  0  0  0  0  0  0  0  0
   26.2428  -17.7982  -16.0813 N   0  0  0  0  0  0  0  0  0  0  0  0
   26.5378  -21.2771  -12.7298 C   0  0  0  0  0  0  0  0  0  0  0  0
   26.3629  -22.5191  -12.6585 O   0  0  0  0  0  0  0  0  0  0  0  0
   26.0740  -20.4070  -11.7167 N   0  0  0  0  0  0  0  0  0  0  0  0
   25.5234  -20.9886  -10.4739 C   0  0  1  0  0  0  0  0  0  0  0  0
   26.0593  -20.1685   -9.3657 C   0  0  0  0  0  0  0  0  0  0  0  0
   27.4139  -20.4570   -8.8975 C   0  0  0  0  0  0  0  0  0  0  0  0
   28.3695  -21.1881   -9.5840 C   0  0  0  0  0  0  0  0  0  0  0  0
   29.4434  -21.2933   -8.8219 N   0  0  0  0  0  0  0  0  0  0  0  0
   29.2660  -20.6631   -7.6390 C   0  0  0  0  0  0  0  0  0  0  0  0
   30.0372  -20.4505   -6.5222 C   0  0  0  0  0  0  0  0  0  0  0  0
   29.5522  -19.7223   -5.4655 C   0  0  0  0  0  0  0  0  0  0  0  0
   28.2921  -19.1751   -5.4649 C   0  0  0  0  0  0  0  0  0  0  0  0
   27.5239  -19.4005   -6.6027 C   0  0  0  0  0  0  0  0  0  0  0  0
   27.9808  -20.1343   -7.6908 C   0  0  0  0  0  0  0  0  0  0  0  0
   24.0750  -21.1062  -10.6620 C   0  0  0  0  0  0  0  0  0  0  0  0
   23.2617  -21.2413   -9.6969 O   0  0  0  0  0  0  0  0  0  0  0  0
   23.4649  -21.0870  -11.9577 N   0  0  0  0  0  0  0  0  0  0  0  0
   22.0837  -21.1923  -12.2415 C   0  0  0  0  0  0  0  0  0  0  0  0
   21.3618  -19.9334  -12.0004 C   0  0  0  0  0  0  0  0  0  0  0  0
   21.8583  -18.8189  -12.3542 O   0  0  0  0  0  0  0  0  0  0  0  0
   20.1336  -19.9181  -11.3872 O   0  0  0  0  0  0  0  0  0  0  0  0
  2  1  1  6
  3  2  1  0
  3  4  1  0
  4  5  2  0
  5  6  1  0
  7  6  1  0
  8  4  1  0
  8  7  2  0
  9 10  2  0
  9  2  1  0
 11  9  1  0
 12 13  1  1
 12 11  1  0
 13 14  1  0
 14 15  2  0
 15 16  1  0
 17 18  2  0
 17 16  1  0
 19 18  1  0
 20 19  2  0
 21 20  1  0
 21 22  2  0
 22 14  1  0
 22 17  1  0
 23 12  1  0
 24 23  2  0
 25 23  1  0
 26 27  1  0
 26 25  1  0
 27 29  1  0
 28 27  2  0
M  END
$$$$
