HWG.pdb
     RDKit          3D

 29 31  0  0  1  0  0  0  0  0999 V2000
   24.8104  -19.8359  -16.5014 N   0  0  0  0  0  0  0  0  0  0  0  0
   25.3107  -21.1423  -16.2168 C   0  0  1  0  0  0  0  0  0  0  0  0
   26.8068  -21.1639  -16.5570 C   0  0  0  0  0  0  0  0  0  0  0  0
   26.9213  -20.7283  -17.9766 C   0  0  0  0  0  0  0  0  0  0  0  0
   26.2096  -21.1388  -19.0815 C   0  0  0  0  0  0  0  0  0  0  0  0
   26.6699  -20.4597  -20.1560 N   0  0  0  0  0  0  0  0  0  0  0  0
   27.6434  -19.6410  -19.7541 C   0  0  0  0  0  0  0  0  0  0  0  0
   27.7959  -19.8026  -18.4384 N   0  0  0  0  0  0  0  0  0  0  0  0
   25.2225  -21.4800  -14.7607 C   0  0  0  0  0  0  0  0  0  0  0  0
   25.6451  -22.5758  -14.3149 O   0  0  0  0  0  0  0  0  0  0  0  0
   24.6420  -20.5115  -13.9101 N   0  0  0  0  0  0  0  0  0  0  0  0
   24.5442  -20.7996  -12.4633 C   0  0  1  0  0  0  0  0  0  0  0  0
   25.4220  -19.8176  -11.7901 C   0  0  0  0  0  0  0  0  0  0  0  0
   26.7715  -20.2465  -11.4264 C   0  0  0  0  0  0  0  0  0  0  0  0
   27.7610  -20.6433  -12.3110 C   0  0  0  0  0  0  0  0  0  0  0  0
   28.8185  -21.0202  -11.6146 N   0  0  0  0  0  0  0  0  0  0  0  0
   28.5971  -20.8978  -10.2865 C   0  0  0  0  0  0  0  0  0  0  0  0
   29.3356  -21.1225   -9.1501 C   0  0  0  0  0  0  0  0  0  0  0  0
   28.8074  -20.8652   -7.9104 C   0  0  0  0  0  0  0  0  0  0  0  0
   27.5347  -20.3774   -7.7390 C   0  0  0  0  0  0  0  0  0  0  0  0
   26.8000  -20.1563   -8.8996 C   0  0  0  0  0  0  0  0  0  0  0  0
   27.3010  -20.4071  -10.1712 C   0  0  0  0  0  0  0  0  0  0  0  0
   23.1175  -20.8516  -12.1331 C   0  0  0  0  0  0  0  0  0  0  0  0
   22.6848  -20.8705  -10.9401 O   0  0  0  0  0  0  0  0  0  0  0  0
   22.0979  -20.8948  -13.1381 N   0  0  0  0  0  0  0  0  0  0  0  0
   20.7007  -20.8577  -12.9245 C   0  0  0  0  0  0  0  0  0  0  0  0
   20.0934  -22.1975  -12.9379 C   0  0  0  0  0  0  0  0  0  0  0  0
   20.7930  -23.2282  -13.1872 O   0  0  0  0  0  0  0  0  0  0  0  0
   18.7567  -22.3807  -12.6839 O   0  0  0  0  0  0  0  0  0  0  0  0
  2  1  1  1
  3  2  1  0
  3  4  1  0
  4  5  2  0
  5  6  1  0
  7  6  1  0
  8  4  1  0
  8  7  2  0
  9 10  2  0
  9  2  1  0
 11  9  1  0
 12 13  1  1
 12 11  1  0
 13 14  1  0
 14 15  2  0
 15 16  1  0
 17 18  2  0
 17 16  1  0
 19 18  1  0
 20 19  2  0
 21 20  1  0
 21 22  2  0
 22 14  1  0
 22 17  1  0
 23 12  1  0
 24 23  2  0
 25 23  1  0
 26 27  1  0
 26 25  1  0
 27 29  1  0
 28 27  2  0
M  END
$$$$
