HWG.pdb
     RDKit          3D

 29 31  0  0  1  0  0  0  0  0999 V2000
   21.4916  -23.8981  -17.8616 N   0  0  0  0  0  0  0  0  0  0  0  0
   22.1112  -22.6646  -17.4971 C   0  0  1  0  0  0  0  0  0  0  0  0
   21.6075  -21.5774  -18.4557 C   0  0  0  0  0  0  0  0  0  0  0  0
   22.4938  -21.6282  -19.6517 C   0  0  0  0  0  0  0  0  0  0  0  0
   23.4596  -22.5489  -19.9907 C   0  0  0  0  0  0  0  0  0  0  0  0
   24.0017  -22.1763  -21.1719 N   0  0  0  0  0  0  0  0  0  0  0  0
   23.4035  -21.0548  -21.5770 C   0  0  0  0  0  0  0  0  0  0  0  0
   22.4931  -20.7232  -20.6596 N   0  0  0  0  0  0  0  0  0  0  0  0
   21.7126  -22.2114  -16.1269 C   0  0  0  0  0  0  0  0  0  0  0  0
   20.6611  -22.6264  -15.5789 O   0  0  0  0  0  0  0  0  0  0  0  0
   22.5715  -21.2954  -15.4775 N   0  0  0  0  0  0  0  0  0  0  0  0
   22.2531  -20.8754  -14.0962 C   0  0  1  0  0  0  0  0  0  0  0  0
   23.4576  -21.1716  -13.2904 C   0  0  0  0  0  0  0  0  0  0  0  0
   23.3807  -20.9588  -11.8459 C   0  0  0  0  0  0  0  0  0  0  0  0
   22.2351  -20.6438  -11.1337 C   0  0  0  0  0  0  0  0  0  0  0  0
   22.5655  -20.4645   -9.8673 N   0  0  0  0  0  0  0  0  0  0  0  0
   23.8921  -20.6445   -9.6789 C   0  0  0  0  0  0  0  0  0  0  0  0
   24.7380  -20.6013   -8.5973 C   0  0  0  0  0  0  0  0  0  0  0  0
   26.0760  -20.8664   -8.7448 C   0  0  0  0  0  0  0  0  0  0  0  0
   26.6343  -21.1840   -9.9591 C   0  0  0  0  0  0  0  0  0  0  0  0
   25.7643  -21.2226  -11.0441 C   0  0  0  0  0  0  0  0  0  0  0  0
   24.4046  -20.9581  -10.9331 C   0  0  0  0  0  0  0  0  0  0  0  0
   21.7444  -19.5034  -14.1729 C   0  0  0  0  0  0  0  0  0  0  0  0
   22.3584  -18.5717  -14.7780 O   0  0  0  0  0  0  0  0  0  0  0  0
   20.5130  -19.1056  -13.5590 N   0  0  0  0  0  0  0  0  0  0  0  0
   19.8893  -17.8407  -13.6613 C   0  0  0  0  0  0  0  0  0  0  0  0
   18.9370  -17.7715  -14.7804 C   0  0  0  0  0  0  0  0  0  0  0  0
   18.8755  -18.7022  -15.6429 O   0  0  0  0  0  0  0  0  0  0  0  0
   18.0865  -16.7047  -14.9323 O   0  0  0  0  0  0  0  0  0  0  0  0
  2  1  1  6
  3  2  1  0
  3  4  1  0
  4  5  2  0
  5  6  1  0
  7  6  1  0
  8  4  1  0
  8  7  2  0
  9 10  2  0
  9  2  1  0
 11  9  1  0
 12 13  1  1
 12 11  1  0
 13 14  1  0
 14 15  2  0
 15 16  1  0
 17 18  2  0
 17 16  1  0
 19 18  1  0
 20 19  2  0
 21 20  1  0
 21 22  2  0
 22 14  1  0
 22 17  1  0
 23 12  1  0
 24 23  2  0
 25 23  1  0
 26 27  1  0
 26 25  1  0
 27 29  1  0
 28 27  2  0
M  END
$$$$
