HWG.pdb
     RDKit          3D

 29 31  0  0  1  0  0  0  0  0999 V2000
   16.2897  -19.8607    3.3505 N   0  0  0  0  0  0  0  0  0  0  0  0
   16.2758  -19.6816    4.7668 C   0  0  1  0  0  0  0  0  0  0  0  0
   16.6005  -21.0313    5.4206 C   0  0  0  0  0  0  0  0  0  0  0  0
   15.4667  -21.9402    5.0937 C   0  0  0  0  0  0  0  0  0  0  0  0
   14.5448  -21.8629    4.0740 C   0  0  0  0  0  0  0  0  0  0  0  0
   13.7050  -22.9167    4.1836 N   0  0  0  0  0  0  0  0  0  0  0  0
   14.0760  -23.6456    5.2376 C   0  0  0  0  0  0  0  0  0  0  0  0
   15.1394  -23.0566    5.7876 N   0  0  0  0  0  0  0  0  0  0  0  0
   17.3436  -18.7404    5.2312 C   0  0  0  0  0  0  0  0  0  0  0  0
   18.4457  -18.6532    4.6347 O   0  0  0  0  0  0  0  0  0  0  0  0
   17.0569  -17.9548    6.3710 N   0  0  0  0  0  0  0  0  0  0  0  0
   18.0701  -16.9875    6.8438 C   0  0  1  0  0  0  0  0  0  0  0  0
   17.5165  -15.6448    6.5634 C   0  0  0  0  0  0  0  0  0  0  0  0
   17.8170  -15.0409    5.2663 C   0  0  0  0  0  0  0  0  0  0  0  0
   17.3621  -15.4920    4.0381 C   0  0  0  0  0  0  0  0  0  0  0  0
   17.8913  -14.7366    3.0924 N   0  0  0  0  0  0  0  0  0  0  0  0
   18.6913  -13.7830    3.6202 C   0  0  0  0  0  0  0  0  0  0  0  0
   19.4482  -12.7548    3.1130 C   0  0  0  0  0  0  0  0  0  0  0  0
   20.1482  -11.9229    3.9496 C   0  0  0  0  0  0  0  0  0  0  0  0
   20.1319  -12.0684    5.3155 C   0  0  0  0  0  0  0  0  0  0  0  0
   19.3615  -13.1148    5.8127 C   0  0  0  0  0  0  0  0  0  0  0  0
   18.6411  -13.9781    4.9962 C   0  0  0  0  0  0  0  0  0  0  0  0
   18.4128  -17.3644    8.2178 C   0  0  0  0  0  0  0  0  0  0  0  0
   17.5680  -17.8470    9.0329 O   0  0  0  0  0  0  0  0  0  0  0  0
   19.7329  -17.2066    8.7507 N   0  0  0  0  0  0  0  0  0  0  0  0
   20.1348  -17.4282   10.0881 C   0  0  0  0  0  0  0  0  0  0  0  0
   21.5788  -17.2254   10.2829 C   0  0  0  0  0  0  0  0  0  0  0  0
   22.3486  -17.0248    9.2925 O   0  0  0  0  0  0  0  0  0  0  0  0
   22.1426  -17.2464   11.5344 O   0  0  0  0  0  0  0  0  0  0  0  0
  2  1  1  6
  3  2  1  0
  3  4  1  0
  4  5  2  0
  5  6  1  0
  7  6  1  0
  8  4  1  0
  8  7  2  0
  9 10  2  0
  9  2  1  0
 11  9  1  0
 12 13  1  1
 12 11  1  0
 13 14  1  0
 14 15  2  0
 15 16  1  0
 17 18  2  0
 17 16  1  0
 19 18  1  0
 20 19  2  0
 21 20  1  0
 21 22  2  0
 22 14  1  0
 22 17  1  0
 23 12  1  0
 24 23  2  0
 25 23  1  0
 26 27  1  0
 26 25  1  0
 27 29  1  0
 28 27  2  0
M  END
$$$$
