HWG.pdb
     RDKit          3D

 29 31  0  0  1  0  0  0  0  0999 V2000
   28.2092  -21.2599  -17.1102 N   0  0  0  0  0  0  0  0  0  0  0  0
   27.2168  -20.4791  -16.4441 C   0  0  1  0  0  0  0  0  0  0  0  0
   26.6321  -19.4867  -17.4581 C   0  0  0  0  0  0  0  0  0  0  0  0
   27.7313  -18.5434  -17.8047 C   0  0  0  0  0  0  0  0  0  0  0  0
   28.5866  -18.5495  -18.8835 C   0  0  0  0  0  0  0  0  0  0  0  0
   29.4187  -17.4903  -18.7683 N   0  0  0  0  0  0  0  0  0  0  0  0
   29.1075  -16.8269  -17.6536 C   0  0  0  0  0  0  0  0  0  0  0  0
   28.0889  -17.4621  -17.0711 N   0  0  0  0  0  0  0  0  0  0  0  0
   26.0606  -21.3078  -15.9770 C   0  0  0  0  0  0  0  0  0  0  0  0
   25.6819  -22.3228  -16.6129 O   0  0  0  0  0  0  0  0  0  0  0  0
   25.4135  -20.8970  -14.7891 N   0  0  0  0  0  0  0  0  0  0  0  0
   24.3367  -21.7444  -14.2338 C   0  0  1  0  0  0  0  0  0  0  0  0
   24.9588  -22.5419  -13.1545 C   0  0  0  0  0  0  0  0  0  0  0  0
   25.6726  -21.8229  -12.1005 C   0  0  0  0  0  0  0  0  0  0  0  0
   25.0905  -21.1949  -11.0115 C   0  0  0  0  0  0  0  0  0  0  0  0
   26.0414  -20.5991  -10.3143 N   0  0  0  0  0  0  0  0  0  0  0  0
   27.2545  -20.7926  -10.8788 C   0  0  0  0  0  0  0  0  0  0  0  0
   28.5424  -20.4257  -10.5721 C   0  0  0  0  0  0  0  0  0  0  0  0
   29.5896  -20.8190  -11.3662 C   0  0  0  0  0  0  0  0  0  0  0  0
   29.4127  -21.5874  -12.4911 C   0  0  0  0  0  0  0  0  0  0  0  0
   28.1026  -21.9495  -12.7881 C   0  0  0  0  0  0  0  0  0  0  0  0
   27.0173  -21.5683  -12.0085 C   0  0  0  0  0  0  0  0  0  0  0  0
   23.2090  -20.8590  -13.9311 C   0  0  0  0  0  0  0  0  0  0  0  0
   23.3506  -19.7218  -13.3854 O   0  0  0  0  0  0  0  0  0  0  0  0
   21.8527  -21.2166  -14.2214 N   0  0  0  0  0  0  0  0  0  0  0  0
   20.7038  -20.4253  -13.9908 C   0  0  0  0  0  0  0  0  0  0  0  0
   19.7997  -21.0221  -12.9957 C   0  0  0  0  0  0  0  0  0  0  0  0
   20.0533  -22.1555  -12.4810 O   0  0  0  0  0  0  0  0  0  0  0  0
   18.6560  -20.3798  -12.5907 O   0  0  0  0  0  0  0  0  0  0  0  0
  2  1  1  6
  3  2  1  0
  3  4  1  0
  4  5  2  0
  5  6  1  0
  7  6  1  0
  8  4  1  0
  8  7  2  0
  9 10  2  0
  9  2  1  0
 11  9  1  0
 12 13  1  1
 12 11  1  0
 13 14  1  0
 14 15  2  0
 15 16  1  0
 17 18  2  0
 17 16  1  0
 19 18  1  0
 20 19  2  0
 21 20  1  0
 21 22  2  0
 22 14  1  0
 22 17  1  0
 23 12  1  0
 24 23  2  0
 25 23  1  0
 26 27  1  0
 26 25  1  0
 27 29  1  0
 28 27  2  0
M  END
$$$$
