HWG.pdb
     RDKit          3D

 29 31  0  0  1  0  0  0  0  0999 V2000
   25.1928  -20.9119  -15.0533 N   0  0  0  0  0  0  0  0  0  0  0  0
   24.5570  -20.4189  -13.8740 C   0  0  1  0  0  0  0  0  0  0  0  0
   23.0850  -20.8509  -13.9105 C   0  0  0  0  0  0  0  0  0  0  0  0
   22.4253  -20.0082  -14.9463 C   0  0  0  0  0  0  0  0  0  0  0  0
   21.7764  -18.8012  -14.8140 C   0  0  0  0  0  0  0  0  0  0  0  0
   21.3401  -18.4206  -16.0357 N   0  0  0  0  0  0  0  0  0  0  0  0
   21.6974  -19.3517  -16.9217 C   0  0  0  0  0  0  0  0  0  0  0  0
   22.3525  -20.3106  -16.2647 N   0  0  0  0  0  0  0  0  0  0  0  0
   25.1246  -21.0231  -12.6272 C   0  0  0  0  0  0  0  0  0  0  0  0
   25.4328  -22.2396  -12.5695 O   0  0  0  0  0  0  0  0  0  0  0  0
   25.2977  -20.1643  -11.5177 N   0  0  0  0  0  0  0  0  0  0  0  0
   25.9038  -20.7071  -10.2833 C   0  0  1  0  0  0  0  0  0  0  0  0
   27.0577  -19.8342   -9.9757 C   0  0  0  0  0  0  0  0  0  0  0  0
   27.9927  -20.2789   -8.9435 C   0  0  0  0  0  0  0  0  0  0  0  0
   28.9696  -21.2487   -9.0993 C   0  0  0  0  0  0  0  0  0  0  0  0
   29.5721  -21.4265   -7.9372 N   0  0  0  0  0  0  0  0  0  0  0  0
   29.0501  -20.6174   -6.9881 C   0  0  0  0  0  0  0  0  0  0  0  0
   29.3035  -20.3848   -5.6580 C   0  0  0  0  0  0  0  0  0  0  0  0
   28.5844  -19.4459   -4.9628 C   0  0  0  0  0  0  0  0  0  0  0  0
   27.5897  -18.6996   -5.5465 C   0  0  0  0  0  0  0  0  0  0  0  0
   27.3451  -18.9481   -6.8933 C   0  0  0  0  0  0  0  0  0  0  0  0
   28.0514  -19.8921   -7.6288 C   0  0  0  0  0  0  0  0  0  0  0  0
   24.8219  -20.8594   -9.3068 C   0  0  0  0  0  0  0  0  0  0  0  0
   23.8606  -20.0367   -9.2070 O   0  0  0  0  0  0  0  0  0  0  0  0
   24.7725  -21.9498   -8.3794 N   0  0  0  0  0  0  0  0  0  0  0  0
   23.7311  -22.2340   -7.4661 C   0  0  0  0  0  0  0  0  0  0  0  0
   23.9082  -21.5451   -6.1784 C   0  0  0  0  0  0  0  0  0  0  0  0
   24.8564  -20.7174   -6.0066 O   0  0  0  0  0  0  0  0  0  0  0  0
   23.0606  -21.7714   -5.1225 O   0  0  0  0  0  0  0  0  0  0  0  0
  2  1  1  6
  3  2  1  0
  3  4  1  0
  4  5  2  0
  5  6  1  0
  7  6  1  0
  8  4  1  0
  8  7  2  0
  9 10  2  0
  9  2  1  0
 11  9  1  0
 12 13  1  1
 12 11  1  0
 13 14  1  0
 14 15  2  0
 15 16  1  0
 17 18  2  0
 17 16  1  0
 19 18  1  0
 20 19  2  0
 21 20  1  0
 21 22  2  0
 22 14  1  0
 22 17  1  0
 23 12  1  0
 24 23  2  0
 25 23  1  0
 26 27  1  0
 26 25  1  0
 27 29  1  0
 28 27  2  0
M  END
$$$$
