HWG.pdb
     RDKit          3D

 29 31  0  0  1  0  0  0  0  0999 V2000
   28.2387  -21.7625  -15.3918 N   0  0  0  0  0  0  0  0  0  0  0  0
   27.5190  -20.7400  -14.7027 C   0  0  1  0  0  0  0  0  0  0  0  0
   26.7138  -19.9440  -15.7383 C   0  0  0  0  0  0  0  0  0  0  0  0
   27.5565  -18.7764  -16.1188 C   0  0  0  0  0  0  0  0  0  0  0  0
   28.9078  -18.5755  -15.9478 C   0  0  0  0  0  0  0  0  0  0  0  0
   29.2212  -17.3615  -16.4535 N   0  0  0  0  0  0  0  0  0  0  0  0
   28.1088  -16.8028  -16.9331 C   0  0  0  0  0  0  0  0  0  0  0  0
   27.1032  -17.6563  -16.7312 N   0  0  0  0  0  0  0  0  0  0  0  0
   26.5094  -21.2996  -13.7491 C   0  0  0  0  0  0  0  0  0  0  0  0
   25.9204  -22.3849  -13.9799 O   0  0  0  0  0  0  0  0  0  0  0  0
   26.2479  -20.5523  -12.5779 N   0  0  0  0  0  0  0  0  0  0  0  0
   25.2286  -21.0476  -11.6285 C   0  0  1  0  0  0  0  0  0  0  0  0
   25.6077  -20.5101  -10.3036 C   0  0  0  0  0  0  0  0  0  0  0  0
   26.9127  -20.8872   -9.7631 C   0  0  0  0  0  0  0  0  0  0  0  0
   27.8038  -21.7749  -10.3435 C   0  0  0  0  0  0  0  0  0  0  0  0
   28.8415  -21.9134   -9.5378 N   0  0  0  0  0  0  0  0  0  0  0  0
   28.7011  -21.1559   -8.4268 C   0  0  0  0  0  0  0  0  0  0  0  0
   29.4621  -20.9144   -7.3088 C   0  0  0  0  0  0  0  0  0  0  0  0
   29.0292  -20.0412   -6.3433 C   0  0  0  0  0  0  0  0  0  0  0  0
   27.8334  -19.3719   -6.4385 C   0  0  0  0  0  0  0  0  0  0  0  0
   27.0746  -19.6283   -7.5761 C   0  0  0  0  0  0  0  0  0  0  0  0
   27.4797  -20.5073   -8.5732 C   0  0  0  0  0  0  0  0  0  0  0  0
   23.9187  -20.7248  -12.2005 C   0  0  0  0  0  0  0  0  0  0  0  0
   23.6460  -19.5936  -12.7074 O   0  0  0  0  0  0  0  0  0  0  0  0
   22.8378  -21.6643  -12.2223 N   0  0  0  0  0  0  0  0  0  0  0  0
   21.5752  -21.4837  -12.8328 C   0  0  0  0  0  0  0  0  0  0  0  0
   20.6757  -20.6431  -12.0276 C   0  0  0  0  0  0  0  0  0  0  0  0
   21.0611  -20.1473  -10.9233 O   0  0  0  0  0  0  0  0  0  0  0  0
   19.3951  -20.3669  -12.4379 O   0  0  0  0  0  0  0  0  0  0  0  0
  2  1  1  6
  3  2  1  0
  3  4  1  0
  4  5  2  0
  5  6  1  0
  7  6  1  0
  8  4  1  0
  8  7  2  0
  9 10  2  0
  9  2  1  0
 11  9  1  0
 12 13  1  1
 12 11  1  0
 13 14  1  0
 14 15  2  0
 15 16  1  0
 17 18  2  0
 17 16  1  0
 19 18  1  0
 20 19  2  0
 21 20  1  0
 21 22  2  0
 22 14  1  0
 22 17  1  0
 23 12  1  0
 24 23  2  0
 25 23  1  0
 26 27  1  0
 26 25  1  0
 27 29  1  0
 28 27  2  0
M  END
$$$$
