HWG.pdb
     RDKit          3D

 29 31  0  0  1  0  0  0  0  0999 V2000
   26.7065  -21.4317  -13.1184 N   0  0  0  0  0  0  0  0  0  0  0  0
   25.7412  -20.6661  -12.3971 C   0  0  1  0  0  0  0  0  0  0  0  0
   24.3867  -20.8229  -13.1009 C   0  0  0  0  0  0  0  0  0  0  0  0
   24.4009  -19.8806  -14.2543 C   0  0  0  0  0  0  0  0  0  0  0  0
   24.7001  -20.1162  -15.5774 C   0  0  0  0  0  0  0  0  0  0  0  0
   24.5765  -18.9510  -16.2518 N   0  0  0  0  0  0  0  0  0  0  0  0
   24.2100  -18.0004  -15.3907 C   0  0  0  0  0  0  0  0  0  0  0  0
   24.1038  -18.5608  -14.1844 N   0  0  0  0  0  0  0  0  0  0  0  0
   25.5349  -21.1777  -11.0052 C   0  0  0  0  0  0  0  0  0  0  0  0
   25.5083  -22.4087  -10.7561 O   0  0  0  0  0  0  0  0  0  0  0  0
   25.3706  -20.2142   -9.9838 N   0  0  0  0  0  0  0  0  0  0  0  0
   25.2221  -20.6741   -8.5866 C   0  0  1  0  0  0  0  0  0  0  0  0
   25.9874  -19.7178   -7.7573 C   0  0  0  0  0  0  0  0  0  0  0  0
   27.4146  -19.9712   -7.5664 C   0  0  0  0  0  0  0  0  0  0  0  0
   28.2600  -20.5732   -8.4839 C   0  0  0  0  0  0  0  0  0  0  0  0
   29.4567  -20.6903   -7.9366 N   0  0  0  0  0  0  0  0  0  0  0  0
   29.4693  -20.1921   -6.6798 C   0  0  0  0  0  0  0  0  0  0  0  0
   30.4193  -20.0464   -5.6982 C   0  0  0  0  0  0  0  0  0  0  0  0
   30.1030  -19.4565   -4.5007 C   0  0  0  0  0  0  0  0  0  0  0  0
   28.8425  -18.9871   -4.2213 C   0  0  0  0  0  0  0  0  0  0  0  0
   27.8922  -19.1432   -5.2254 C   0  0  0  0  0  0  0  0  0  0  0  0
   28.1755  -19.7372   -6.4492 C   0  0  0  0  0  0  0  0  0  0  0  0
   23.7887  -20.8635   -8.3488 C   0  0  0  0  0  0  0  0  0  0  0  0
   22.9106  -20.0234   -8.7153 O   0  0  0  0  0  0  0  0  0  0  0  0
   23.2680  -22.0135   -7.6721 N   0  0  0  0  0  0  0  0  0  0  0  0
   21.9962  -22.1316   -7.0655 C   0  0  0  0  0  0  0  0  0  0  0  0
   20.9583  -22.5650   -8.0137 C   0  0  0  0  0  0  0  0  0  0  0  0
   21.2258  -22.7249   -9.2452 O   0  0  0  0  0  0  0  0  0  0  0  0
   19.6712  -22.8101   -7.6040 O   0  0  0  0  0  0  0  0  0  0  0  0
  2  1  1  6
  3  2  1  0
  3  4  1  0
  4  5  2  0
  5  6  1  0
  7  6  1  0
  8  4  1  0
  8  7  2  0
  9 10  2  0
  9  2  1  0
 11  9  1  0
 12 13  1  1
 12 11  1  0
 13 14  1  0
 14 15  2  0
 15 16  1  0
 17 18  2  0
 17 16  1  0
 19 18  1  0
 20 19  2  0
 21 20  1  0
 21 22  2  0
 22 14  1  0
 22 17  1  0
 23 12  1  0
 24 23  2  0
 25 23  1  0
 26 27  1  0
 26 25  1  0
 27 29  1  0
 28 27  2  0
M  END
$$$$
