HWG.pdb
     RDKit          3D

 29 31  0  0  1  0  0  0  0  0999 V2000
   28.4704  -21.0888  -14.9808 N   0  0  0  0  0  0  0  0  0  0  0  0
   27.5500  -20.2072  -14.3374 C   0  0  1  0  0  0  0  0  0  0  0  0
   26.7371  -19.4916  -15.4245 C   0  0  0  0  0  0  0  0  0  0  0  0
   27.6838  -18.5810  -16.1263 C   0  0  0  0  0  0  0  0  0  0  0  0
   28.3224  -18.7403  -17.3356 C   0  0  0  0  0  0  0  0  0  0  0  0
   29.0850  -17.6462  -17.5575 N   0  0  0  0  0  0  0  0  0  0  0  0
   28.9402  -16.8131  -16.5257 C   0  0  0  0  0  0  0  0  0  0  0  0
   28.0945  -17.3768  -15.6611 N   0  0  0  0  0  0  0  0  0  0  0  0
   26.5484  -20.9422  -13.5018 C   0  0  0  0  0  0  0  0  0  0  0  0
   26.0711  -22.0448  -13.8687 O   0  0  0  0  0  0  0  0  0  0  0  0
   26.1630  -20.3402  -12.2822 N   0  0  0  0  0  0  0  0  0  0  0  0
   25.2279  -21.0631  -11.3940 C   0  0  1  0  0  0  0  0  0  0  0  0
   25.5597  -20.6375  -10.0168 C   0  0  0  0  0  0  0  0  0  0  0  0
   26.9404  -20.8044   -9.5658 C   0  0  0  0  0  0  0  0  0  0  0  0
   27.9240  -21.5283  -10.2197 C   0  0  0  0  0  0  0  0  0  0  0  0
   29.0198  -21.5065   -9.4823 N   0  0  0  0  0  0  0  0  0  0  0  0
   28.8306  -20.7959   -8.3478 C   0  0  0  0  0  0  0  0  0  0  0  0
   29.6126  -20.4481   -7.2732 C   0  0  0  0  0  0  0  0  0  0  0  0
   29.1073  -19.6689   -6.2635 C   0  0  0  0  0  0  0  0  0  0  0  0
   27.8156  -19.2014   -6.2702 C   0  0  0  0  0  0  0  0  0  0  0  0
   27.0368  -19.5634   -7.3648 C   0  0  0  0  0  0  0  0  0  0  0  0
   27.5137  -20.3524   -8.4045 C   0  0  0  0  0  0  0  0  0  0  0  0
   23.8791  -20.8420  -11.9223 C   0  0  0  0  0  0  0  0  0  0  0  0
   23.4605  -19.7025  -12.2930 O   0  0  0  0  0  0  0  0  0  0  0  0
   22.9224  -21.9000  -12.0520 N   0  0  0  0  0  0  0  0  0  0  0  0
   21.5976  -21.7852  -12.5328 C   0  0  0  0  0  0  0  0  0  0  0  0
   20.6981  -21.1490  -11.5580 C   0  0  0  0  0  0  0  0  0  0  0  0
   21.0692  -20.9538  -10.3588 O   0  0  0  0  0  0  0  0  0  0  0  0
   19.4329  -20.7466  -11.9072 O   0  0  0  0  0  0  0  0  0  0  0  0
  2  1  1  6
  3  2  1  0
  3  4  1  0
  4  5  2  0
  5  6  1  0
  7  6  1  0
  8  4  1  0
  8  7  2  0
  9 10  2  0
  9  2  1  0
 11  9  1  0
 12 13  1  1
 12 11  1  0
 13 14  1  0
 14 15  2  0
 15 16  1  0
 17 18  2  0
 17 16  1  0
 19 18  1  0
 20 19  2  0
 21 20  1  0
 21 22  2  0
 22 14  1  0
 22 17  1  0
 23 12  1  0
 24 23  2  0
 25 23  1  0
 26 27  1  0
 26 25  1  0
 27 29  1  0
 28 27  2  0
M  END
$$$$
