NRT.pdb
     RDKit          3D

 27 26  0  0  1  0  0  0  0  0999 V2000
   30.3430  -21.8944  -18.7206 N   0  0  0  0  0  0  0  0  0  0  0  0
   29.0625  -21.3902  -19.1348 C   0  0  0  0  0  0  0  0  0  0  0  0
   29.0438  -20.7388  -20.1914 O   0  0  0  0  0  0  0  0  0  0  0  0
   27.9180  -21.6986  -18.2669 C   0  0  0  0  0  0  0  0  0  0  0  0
   28.2294  -22.5035  -17.0503 C   0  0  2  0  0  0  0  0  0  0  0  0
   28.3874  -23.8849  -17.4036 N   0  0  0  0  0  0  0  0  0  0  0  0
   27.1549  -22.2901  -16.0599 C   0  0  0  0  0  0  0  0  0  0  0  0
   26.0499  -22.9102  -16.1850 O   0  0  0  0  0  0  0  0  0  0  0  0
   25.7307  -20.5652   -8.0151 N   0  0  0  0  0  0  0  0  0  0  0  0
   24.4326  -20.8925   -8.5123 C   0  0  0  0  0  0  0  0  0  0  0  0
   23.3930  -20.7641   -7.7853 N   0  0  0  0  0  0  0  0  0  0  0  0
   24.2405  -21.3812   -9.8512 N   0  0  0  0  0  0  0  0  0  0  0  0
   25.3503  -21.4554  -10.7540 C   0  0  0  0  0  0  0  0  0  0  0  0
   25.3875  -20.3623  -11.7894 C   0  0  0  0  0  0  0  0  0  0  0  0
   26.5511  -20.6441  -12.7138 C   0  0  0  0  0  0  0  0  0  0  0  0
   26.1491  -21.2733  -14.0067 C   0  0  2  0  0  0  0  0  0  0  0  0
   27.2450  -21.4226  -14.9364 N   0  0  0  0  0  0  0  0  0  0  0  0
   25.0178  -20.5133  -14.5657 C   0  0  0  0  0  0  0  0  0  0  0  0
   25.2271  -19.3259  -14.9086 O   0  0  0  0  0  0  0  0  0  0  0  0
   22.4209  -20.9805   -8.0859 C   0  0  0  0  0  0  0  0  0  0  0  0
   23.2649  -20.2085  -17.6654 C   0  0  2  0  0  0  0  0  0  0  0  0
   22.2184  -20.5023  -16.6236 O   0  0  0  0  0  0  0  0  0  0  0  0
   21.9589  -21.8728  -16.6666 C   0  0  2  0  0  0  0  0  0  0  0  0
   22.6764  -20.1651  -15.2331 N   0  0  0  0  0  0  0  0  0  0  0  0
   23.7130  -21.0277  -14.7428 C   0  0  0  0  0  0  0  0  0  0  0  0
   21.5055  -20.2205  -14.3252 O   0  0  0  0  0  0  0  0  0  0  0  0
   21.4596  -21.0806  -13.4364 O   0  0  0  0  0  0  0  0  0  0  0  0
  2  1  1  0
  3  2  2  0
  4  2  1  0
  5  4  1  0
  5  6  1  6
  7  5  1  0
  7  8  2  0
  9 10  1  0
 10 11  2  0
 12 10  1  0
 12 13  1  0
 13 14  1  0
 14 15  1  0
 16 15  1  1
 16 17  1  0
 17  7  1  0
 18 16  1  0
 19 18  2  0
 21 20  1  6
 22 21  1  0
 23 21  1  0
 23 24  1  1
 24 18  1  0
 25 27  1  0
 25 23  1  0
 26 25  2  0
M  END
$$$$
