NRT.pdb
     RDKit          3D

 27 26  0  0  1  0  0  0  0  0999 V2000
   26.0175  -18.8997  -20.3112 N   0  0  0  0  0  0  0  0  0  0  0  0
   26.5129  -18.7475  -18.9707 C   0  0  0  0  0  0  0  0  0  0  0  0
   27.3908  -17.8860  -18.8036 O   0  0  0  0  0  0  0  0  0  0  0  0
   25.9294  -19.6243  -17.9465 C   0  0  0  0  0  0  0  0  0  0  0  0
   26.9074  -20.3391  -17.0761 C   0  0  2  0  0  0  0  0  0  0  0  0
   27.4831  -21.4428  -17.7892 N   0  0  0  0  0  0  0  0  0  0  0  0
   26.2150  -20.7602  -15.8415 C   0  0  0  0  0  0  0  0  0  0  0  0
   25.6023  -21.8759  -15.8113 O   0  0  0  0  0  0  0  0  0  0  0  0
   29.1692  -21.2091  -11.2136 N   0  0  0  0  0  0  0  0  0  0  0  0
   28.8217  -21.4764   -9.8544 C   0  0  0  0  0  0  0  0  0  0  0  0
   29.7147  -21.7264   -8.9794 N   0  0  0  0  0  0  0  0  0  0  0  0
   27.4528  -21.4765   -9.4134 N   0  0  0  0  0  0  0  0  0  0  0  0
   26.5811  -20.4002   -9.7794 C   0  0  0  0  0  0  0  0  0  0  0  0
   25.6594  -20.7067  -10.9305 C   0  0  0  0  0  0  0  0  0  0  0  0
   26.3239  -20.2116  -12.1958 C   0  0  0  0  0  0  0  0  0  0  0  0
   25.5590  -20.5311  -13.4376 C   0  0  2  0  0  0  0  0  0  0  0  0
   26.1683  -20.0046  -14.6373 N   0  0  0  0  0  0  0  0  0  0  0  0
   24.1657  -20.0886  -13.2564 C   0  0  0  0  0  0  0  0  0  0  0  0
   23.9734  -18.9018  -12.9019 O   0  0  0  0  0  0  0  0  0  0  0  0
   29.5311  -21.9184   -7.9736 C   0  0  0  0  0  0  0  0  0  0  0  0
   21.5574  -19.2316  -15.5137 C   0  0  2  0  0  0  0  0  0  0  0  0
   20.9436  -20.2213  -14.5594 O   0  0  0  0  0  0  0  0  0  0  0  0
   20.9503  -21.4673  -15.1878 C   0  0  2  0  0  0  0  0  0  0  0  0
   21.7202  -20.3483  -13.2796 N   0  0  0  0  0  0  0  0  0  0  0  0
   23.0302  -20.9073  -13.4536 C   0  0  0  0  0  0  0  0  0  0  0  0
   20.9390  -21.1833  -12.3358 O   0  0  0  0  0  0  0  0  0  0  0  0
   21.3821  -22.2825  -11.9790 O   0  0  0  0  0  0  0  0  0  0  0  0
  2  1  1  0
  3  2  2  0
  4  2  1  0
  5  4  1  0
  5  6  1  6
  7  5  1  0
  7  8  2  0
  9 10  1  0
 10 11  2  0
 12 10  1  0
 12 13  1  0
 13 14  1  0
 14 15  1  0
 16 15  1  1
 16 17  1  0
 17  7  1  0
 18 16  1  0
 19 18  2  0
 21 20  1  6
 22 21  1  0
 23 21  1  0
 23 24  1  1
 24 18  1  0
 25 27  1  0
 25 23  1  0
 26 25  2  0
M  END
$$$$
