NRT.pdb
     RDKit          3D

 27 26  0  0  1  0  0  0  0  0999 V2000
   18.4144  -14.2435  -14.7413 N   0  0  0  0  0  0  0  0  0  0  0  0
   18.8894  -13.1731  -15.5744 C   0  0  0  0  0  0  0  0  0  0  0  0
   19.8277  -13.4470  -16.3397 O   0  0  0  0  0  0  0  0  0  0  0  0
   18.2163  -11.8751  -15.4314 C   0  0  0  0  0  0  0  0  0  0  0  0
   17.1632  -11.8073  -14.3771 C   0  0  2  0  0  0  0  0  0  0  0  0
   16.0514  -12.6380  -14.7406 N   0  0  0  0  0  0  0  0  0  0  0  0
   16.7784  -10.3939  -14.1899 C   0  0  0  0  0  0  0  0  0  0  0  0
   15.9609   -9.8502  -15.0006 O   0  0  0  0  0  0  0  0  0  0  0  0
   14.7207   -6.9207   -6.8513 N   0  0  0  0  0  0  0  0  0  0  0  0
   13.7751   -7.7423   -7.5370 C   0  0  0  0  0  0  0  0  0  0  0  0
   12.6834   -8.0993   -6.9833 N   0  0  0  0  0  0  0  0  0  0  0  0
   14.0116   -8.2034   -8.8786 N   0  0  0  0  0  0  0  0  0  0  0  0
   15.1995   -7.8071   -9.5745 C   0  0  0  0  0  0  0  0  0  0  0  0
   15.2883   -8.3056  -10.9929 C   0  0  0  0  0  0  0  0  0  0  0  0
   16.5796   -7.7845  -11.5833 C   0  0  0  0  0  0  0  0  0  0  0  0
   16.7946   -8.1906  -13.0039 C   0  0  2  0  0  0  0  0  0  0  0  0
   17.2554   -9.5525  -13.1470 N   0  0  0  0  0  0  0  0  0  0  0  0
   17.6892   -7.2090  -13.6413 C   0  0  0  0  0  0  0  0  0  0  0  0
   18.9084   -7.2605  -13.3546 O   0  0  0  0  0  0  0  0  0  0  0  0
   11.9277   -8.6450   -7.4450 C   0  0  0  0  0  0  0  0  0  0  0  0
   18.1421   -6.5937  -17.4789 C   0  0  2  0  0  0  0  0  0  0  0  0
   17.9714   -5.3008  -16.7264 O   0  0  0  0  0  0  0  0  0  0  0  0
   16.6396   -4.9083  -16.8665 C   0  0  2  0  0  0  0  0  0  0  0  0
   18.2559   -5.4446  -15.2583 N   0  0  0  0  0  0  0  0  0  0  0  0
   17.2704   -6.2130  -14.5530 C   0  0  0  0  0  0  0  0  0  0  0  0
   18.3570   -4.0903  -14.6634 O   0  0  0  0  0  0  0  0  0  0  0  0
   17.5341   -3.7326  -13.8109 O   0  0  0  0  0  0  0  0  0  0  0  0
  2  1  1  0
  3  2  2  0
  4  2  1  0
  5  4  1  0
  5  6  1  6
  7  5  1  0
  7  8  2  0
  9 10  1  0
 10 11  2  0
 12 10  1  0
 12 13  1  0
 13 14  1  0
 14 15  1  0
 16 15  1  1
 16 17  1  0
 17  7  1  0
 18 16  1  0
 19 18  2  0
 21 20  1  6
 22 21  1  0
 23 21  1  0
 23 24  1  1
 24 18  1  0
 25 27  1  0
 25 23  1  0
 26 25  2  0
M  END
$$$$
