NRT.pdb
     RDKit          3D

 27 26  0  0  1  0  0  0  0  0999 V2000
   29.3968  -20.5528  -18.1091 N   0  0  0  0  0  0  0  0  0  0  0  0
   28.0579  -20.1157  -18.3948 C   0  0  0  0  0  0  0  0  0  0  0  0
   27.9349  -19.2793  -19.3038 O   0  0  0  0  0  0  0  0  0  0  0  0
   26.9831  -20.7034  -17.5838 C   0  0  0  0  0  0  0  0  0  0  0  0
   27.4094  -21.7455  -16.6054 C   0  0  2  0  0  0  0  0  0  0  0  0
   27.6447  -22.9876  -17.2835 N   0  0  0  0  0  0  0  0  0  0  0  0
   26.3732  -21.8573  -15.5591 C   0  0  0  0  0  0  0  0  0  0  0  0
   25.3583  -22.6011  -15.7537 O   0  0  0  0  0  0  0  0  0  0  0  0
   22.2811  -20.1644   -9.2404 N   0  0  0  0  0  0  0  0  0  0  0  0
   23.0448  -20.9283   -8.3063 C   0  0  0  0  0  0  0  0  0  0  0  0
   22.5094  -21.4219   -7.2597 N   0  0  0  0  0  0  0  0  0  0  0  0
   24.4482  -21.1733   -8.5031 N   0  0  0  0  0  0  0  0  0  0  0  0
   25.1278  -20.5925   -9.6225 C   0  0  0  0  0  0  0  0  0  0  0  0
   24.5894  -21.0102  -10.9656 C   0  0  0  0  0  0  0  0  0  0  0  0
   25.7237  -20.9248  -11.9624 C   0  0  0  0  0  0  0  0  0  0  0  0
   25.3321  -21.3151  -13.3493 C   0  0  2  0  0  0  0  0  0  0  0  0
   26.4067  -21.1847  -14.3063 N   0  0  0  0  0  0  0  0  0  0  0  0
   24.1278  -20.5555  -13.7271 C   0  0  0  0  0  0  0  0  0  0  0  0
   24.2132  -19.3053  -13.7551 O   0  0  0  0  0  0  0  0  0  0  0  0
   23.0126  -21.9620   -6.5268 C   0  0  0  0  0  0  0  0  0  0  0  0
   22.4348  -19.9895  -16.8697 C   0  0  2  0  0  0  0  0  0  0  0  0
   21.3910  -20.4801  -15.9018 O   0  0  0  0  0  0  0  0  0  0  0  0
   21.2274  -21.8485  -16.1215 C   0  0  2  0  0  0  0  0  0  0  0  0
   21.7977  -20.2906  -14.4680 N   0  0  0  0  0  0  0  0  0  0  0  0
   22.8827  -21.1364  -14.0602 C   0  0  0  0  0  0  0  0  0  0  0  0
   20.6164  -20.5385  -13.6069 O   0  0  0  0  0  0  0  0  0  0  0  0
   20.6360  -21.4714  -12.7938 O   0  0  0  0  0  0  0  0  0  0  0  0
  2  1  1  0
  3  2  2  0
  4  2  1  0
  5  4  1  0
  5  6  1  6
  7  5  1  0
  7  8  2  0
  9 10  1  0
 10 11  2  0
 12 10  1  0
 12 13  1  0
 13 14  1  0
 14 15  1  0
 16 15  1  1
 16 17  1  0
 17  7  1  0
 18 16  1  0
 19 18  2  0
 21 20  1  6
 22 21  1  0
 23 21  1  0
 23 24  1  1
 24 18  1  0
 25 27  1  0
 25 23  1  0
 26 25  2  0
M  END
$$$$
