NRT.pdb
     RDKit          3D

 27 26  0  0  1  0  0  0  0  0999 V2000
   17.0833  -12.9936  -16.8135 N   0  0  0  0  0  0  0  0  0  0  0  0
   17.8051  -13.4485  -15.6570 C   0  0  0  0  0  0  0  0  0  0  0  0
   17.3257  -14.4248  -15.0586 O   0  0  0  0  0  0  0  0  0  0  0  0
   19.0278  -12.7123  -15.3087 C   0  0  0  0  0  0  0  0  0  0  0  0
   19.4174  -11.6253  -16.2530 C   0  0  2  0  0  0  0  0  0  0  0  0
   19.8017  -12.1872  -17.5158 N   0  0  0  0  0  0  0  0  0  0  0  0
   20.4971  -10.8311  -15.6330 C   0  0  0  0  0  0  0  0  0  0  0  0
   20.2982  -10.2644  -14.5103 O   0  0  0  0  0  0  0  0  0  0  0  0
   29.1103  -11.0447  -16.4604 N   0  0  0  0  0  0  0  0  0  0  0  0
   27.9633  -11.8396  -16.1572 C   0  0  0  0  0  0  0  0  0  0  0  0
   28.0151  -13.1134  -16.1809 N   0  0  0  0  0  0  0  0  0  0  0  0
   26.7017  -11.2406  -15.8137 N   0  0  0  0  0  0  0  0  0  0  0  0
   26.5867   -9.8160  -15.7164 C   0  0  0  0  0  0  0  0  0  0  0  0
   25.2383   -9.3282  -15.2557 C   0  0  0  0  0  0  0  0  0  0  0  0
   24.1863  -10.1840  -15.9255 C   0  0  0  0  0  0  0  0  0  0  0  0
   22.7898   -9.8338  -15.5304 C   0  0  2  0  0  0  0  0  0  0  0  0
   21.7881  -10.6340  -16.1967 N   0  0  0  0  0  0  0  0  0  0  0  0
   22.5964   -8.3867  -15.7269 C   0  0  0  0  0  0  0  0  0  0  0  0
   22.9089   -7.9037  -16.8405 O   0  0  0  0  0  0  0  0  0  0  0  0
   27.2012  -13.7488  -16.0549 C   0  0  0  0  0  0  0  0  0  0  0  0
   19.3539   -6.4902  -14.4144 C   0  0  2  0  0  0  0  0  0  0  0  0
   20.2846   -6.0017  -15.4923 O   0  0  0  0  0  0  0  0  0  0  0  0
   20.0403   -4.6392  -15.6696 C   0  0  1  0  0  0  0  0  0  0  0  0
   21.7319   -6.1646  -15.1239 N   0  0  0  0  0  0  0  0  0  0  0  0
   22.0837   -7.5041  -14.7487 C   0  0  0  0  0  0  0  0  0  0  0  0
   22.0425   -5.2336  -14.0125 O   0  0  0  0  0  0  0  0  0  0  0  0
   22.3522   -5.6859  -12.9029 O   0  0  0  0  0  0  0  0  0  0  0  0
  2  1  1  0
  3  2  2  0
  4  2  1  0
  5  4  1  0
  5  6  1  6
  7  5  1  0
  7  8  2  0
  9 10  1  0
 10 11  2  0
 12 10  1  0
 12 13  1  0
 13 14  1  0
 14 15  1  0
 16 15  1  6
 16 17  1  0
 17  7  1  0
 18 16  1  0
 19 18  2  0
 21 20  1  6
 22 21  1  0
 23 21  1  0
 23 24  1  6
 24 18  1  0
 25 27  1  0
 25 23  1  0
 26 25  2  0
M  END
$$$$
