NRT.pdb
     RDKit          3D

 27 26  0  0  1  0  0  0  0  0999 V2000
   28.5421  -24.0913  -16.5397 N   0  0  0  0  0  0  0  0  0  0  0  0
   27.7237  -23.0984  -17.1799 C   0  0  0  0  0  0  0  0  0  0  0  0
   28.2135  -22.5404  -18.1747 O   0  0  0  0  0  0  0  0  0  0  0  0
   26.4008  -22.8515  -16.5906 C   0  0  0  0  0  0  0  0  0  0  0  0
   26.0709  -23.6630  -15.3833 C   0  0  2  0  0  0  0  0  0  0  0  0
   25.8984  -25.0392  -15.7497 N   0  0  0  0  0  0  0  0  0  0  0  0
   24.8672  -23.0896  -14.7483 C   0  0  0  0  0  0  0  0  0  0  0  0
   23.7230  -23.5880  -15.0005 O   0  0  0  0  0  0  0  0  0  0  0  0
   23.6486  -21.7547   -7.4657 N   0  0  0  0  0  0  0  0  0  0  0  0
   23.0955  -20.6762   -8.2210 C   0  0  0  0  0  0  0  0  0  0  0  0
   21.9361  -20.2128   -7.9627 N   0  0  0  0  0  0  0  0  0  0  0  0
   23.8191  -20.0670   -9.3043 N   0  0  0  0  0  0  0  0  0  0  0  0
   25.0329  -20.6607   -9.7800 C   0  0  0  0  0  0  0  0  0  0  0  0
   24.8718  -21.5087  -11.0142 C   0  0  0  0  0  0  0  0  0  0  0  0
   23.8926  -20.8074  -11.9291 C   0  0  0  0  0  0  0  0  0  0  0  0
   23.6545  -21.5274  -13.2152 C   0  0  2  0  0  0  0  0  0  0  0  0
   24.8692  -21.9898  -13.8463 N   0  0  0  0  0  0  0  0  0  0  0  0
   22.8415  -20.6657  -14.0907 C   0  0  0  0  0  0  0  0  0  0  0  0
   23.3990  -19.6685  -14.6063 O   0  0  0  0  0  0  0  0  0  0  0  0
   21.4701  -19.4406   -8.4810 C   0  0  0  0  0  0  0  0  0  0  0  0
   21.8669  -20.7376  -17.4250 C   0  0  2  0  0  0  0  0  0  0  0  0
   20.5828  -20.5624  -16.6586 O   0  0  0  0  0  0  0  0  0  0  0  0
   20.0109  -21.8262  -16.5068 C   0  0  2  0  0  0  0  0  0  0  0  0
   20.8018  -19.9897  -15.2871 N   0  0  0  0  0  0  0  0  0  0  0  0
   21.4772  -20.8835  -14.3905 C   0  0  0  0  0  0  0  0  0  0  0  0
   19.4858  -19.6090  -14.7202 O   0  0  0  0  0  0  0  0  0  0  0  0
   19.0499  -20.2071  -13.7282 O   0  0  0  0  0  0  0  0  0  0  0  0
  2  1  1  0
  3  2  2  0
  4  2  1  0
  5  4  1  0
  5  6  1  6
  7  5  1  0
  7  8  2  0
  9 10  1  0
 10 11  2  0
 12 10  1  0
 12 13  1  0
 13 14  1  0
 14 15  1  0
 16 15  1  1
 16 17  1  0
 17  7  1  0
 18 16  1  0
 19 18  2  0
 21 20  1  6
 22 21  1  0
 23 21  1  0
 23 24  1  6
 24 18  1  0
 25 27  1  0
 25 23  1  0
 26 25  2  0
M  END
$$$$
