NRT.pdb
     RDKit          3D

 27 26  0  0  1  0  0  0  0  0999 V2000
   34.9435   -9.3509  -18.4399 N   0  0  0  0  0  0  0  0  0  0  0  0
   35.5758   -8.0685  -18.2947 C   0  0  0  0  0  0  0  0  0  0  0  0
   36.0035   -7.5454  -19.3361 O   0  0  0  0  0  0  0  0  0  0  0  0
   35.6477   -7.5166  -16.9351 C   0  0  0  0  0  0  0  0  0  0  0  0
   35.0243   -8.3503  -15.8668 C   0  0  2  0  0  0  0  0  0  0  0  0
   33.5946   -8.2831  -15.9640 N   0  0  0  0  0  0  0  0  0  0  0  0
   35.5267   -7.8864  -14.5578 C   0  0  0  0  0  0  0  0  0  0  0  0
   34.8405   -7.0580  -13.8766 O   0  0  0  0  0  0  0  0  0  0  0  0
   40.2770  -11.5894   -8.1644 N   0  0  0  0  0  0  0  0  0  0  0  0
   39.7369  -10.4120   -7.5630 C   0  0  0  0  0  0  0  0  0  0  0  0
   39.7767  -10.2351   -6.3009 N   0  0  0  0  0  0  0  0  0  0  0  0
   39.1249   -9.3768   -8.3517 N   0  0  0  0  0  0  0  0  0  0  0  0
   38.7944   -9.6209   -9.7240 C   0  0  0  0  0  0  0  0  0  0  0  0
   38.0693   -8.4888  -10.4029 C   0  0  0  0  0  0  0  0  0  0  0  0
   37.8172   -8.8987  -11.8369 C   0  0  0  0  0  0  0  0  0  0  0  0
   37.1478   -7.8421  -12.6522 C   0  0  2  0  0  0  0  0  0  0  0  0
   36.7535   -8.2961  -13.9660 N   0  0  0  0  0  0  0  0  0  0  0  0
   38.0208   -6.6561  -12.6896 C   0  0  0  0  0  0  0  0  0  0  0  0
   38.7991   -6.5369  -13.6649 O   0  0  0  0  0  0  0  0  0  0  0  0
   39.4422   -9.3845   -5.8041 C   0  0  0  0  0  0  0  0  0  0  0  0
   38.6434   -3.5917   -9.5572 C   0  0  2  0  0  0  0  0  0  0  0  0
   38.5485   -3.3307  -11.0369 O   0  0  0  0  0  0  0  0  0  0  0  0
   39.4419   -2.3018  -11.3382 C   0  0  1  0  0  0  0  0  0  0  0  0
   38.9315   -4.5273  -11.8607 N   0  0  0  0  0  0  0  0  0  0  0  0
   38.0431   -5.6431  -11.7037 C   0  0  0  0  0  0  0  0  0  0  0  0
   40.3113   -4.9284  -11.4951 O   0  0  0  0  0  0  0  0  0  0  0  0
   40.5055   -6.0156  -10.9364 O   0  0  0  0  0  0  0  0  0  0  0  0
  2  1  1  0
  3  2  2  0
  4  2  1  0
  5  4  1  0
  5  6  1  1
  7  5  1  0
  7  8  2  0
  9 10  1  0
 10 11  2  0
 12 10  1  0
 12 13  1  0
 13 14  1  0
 14 15  1  0
 16 15  1  6
 16 17  1  0
 17  7  1  0
 18 16  1  0
 19 18  2  0
 21 20  1  1
 22 21  1  0
 23 21  1  0
 23 24  1  6
 24 18  1  0
 25 27  1  0
 25 23  1  0
 26 25  2  0
M  END
$$$$
