NRT.pdb
     RDKit          3D

 27 26  0  0  1  0  0  0  0  0999 V2000
   29.2243  -19.5682  -19.3228 N   0  0  0  0  0  0  0  0  0  0  0  0
   29.2079  -20.9414  -18.8991 C   0  0  0  0  0  0  0  0  0  0  0  0
   29.9181  -21.7256  -19.5484 O   0  0  0  0  0  0  0  0  0  0  0  0
   28.3559  -21.2681  -17.7477 C   0  0  0  0  0  0  0  0  0  0  0  0
   27.5712  -20.1322  -17.1829 C   0  0  2  0  0  0  0  0  0  0  0  0
   28.4565  -19.0793  -16.7759 N   0  0  0  0  0  0  0  0  0  0  0  0
   26.7452  -20.6414  -16.0697 C   0  0  0  0  0  0  0  0  0  0  0  0
   25.8716  -21.5405  -16.2925 O   0  0  0  0  0  0  0  0  0  0  0  0
   23.2078  -20.3105   -9.8779 N   0  0  0  0  0  0  0  0  0  0  0  0
   23.9015  -20.8821   -8.7682 C   0  0  0  0  0  0  0  0  0  0  0  0
   23.2778  -21.2724   -7.7269 N   0  0  0  0  0  0  0  0  0  0  0  0
   25.3309  -21.0416   -8.7751 N   0  0  0  0  0  0  0  0  0  0  0  0
   26.0968  -20.5980   -9.9015 C   0  0  0  0  0  0  0  0  0  0  0  0
   25.4534  -20.8618  -11.2374 C   0  0  0  0  0  0  0  0  0  0  0  0
   26.4300  -20.4344  -12.3104 C   0  0  0  0  0  0  0  0  0  0  0  0
   25.9493  -20.7030  -13.6981 C   0  0  2  0  0  0  0  0  0  0  0  0
   26.8401  -20.2029  -14.7199 N   0  0  0  0  0  0  0  0  0  0  0  0
   24.5760  -20.1855  -13.8265 C   0  0  0  0  0  0  0  0  0  0  0  0
   24.3969  -18.9585  -13.6432 O   0  0  0  0  0  0  0  0  0  0  0  0
   23.7237  -21.6658   -6.8733 C   0  0  0  0  0  0  0  0  0  0  0  0
   21.3959  -21.9526  -16.1253 C   0  0  2  0  0  0  0  0  0  0  0  0
   21.6829  -20.5126  -15.7923 O   0  0  0  0  0  0  0  0  0  0  0  0
   20.4830  -19.8096  -15.9084 C   0  0  1  0  0  0  0  0  0  0  0  0
   22.1862  -20.3333  -14.3882 N   0  0  0  0  0  0  0  0  0  0  0  0
   23.4459  -20.9744  -14.1414 C   0  0  0  0  0  0  0  0  0  0  0  0
   21.1637  -20.8572  -13.4510 O   0  0  0  0  0  0  0  0  0  0  0  0
   20.0303  -20.3601  -13.4403 O   0  0  0  0  0  0  0  0  0  0  0  0
  2  1  1  0
  3  2  2  0
  4  2  1  0
  5  4  1  0
  5  6  1  1
  7  5  1  0
  7  8  2  0
  9 10  1  0
 10 11  2  0
 12 10  1  0
 12 13  1  0
 13 14  1  0
 14 15  1  0
 16 15  1  1
 16 17  1  0
 17  7  1  0
 18 16  1  0
 19 18  2  0
 21 20  1  6
 22 21  1  0
 23 21  1  0
 23 24  1  6
 24 18  1  0
 25 27  1  0
 25 23  1  0
 26 25  2  0
M  END
$$$$
