NRT.pdb
     RDKit          3D

 27 26  0  0  1  0  0  0  0  0999 V2000
   22.4779  -28.9779  -10.8156 N   0  0  0  0  0  0  0  0  0  0  0  0
   21.8008  -28.0591  -11.6890 C   0  0  0  0  0  0  0  0  0  0  0  0
   22.4407  -27.6682  -12.6783 O   0  0  0  0  0  0  0  0  0  0  0  0
   20.4299  -27.6829  -11.3187 C   0  0  0  0  0  0  0  0  0  0  0  0
   19.9331  -28.2440  -10.0289 C   0  0  2  0  0  0  0  0  0  0  0  0
   19.6831  -29.6496  -10.1697 N   0  0  0  0  0  0  0  0  0  0  0  0
   18.7290  -27.4911   -9.6237 C   0  0  0  0  0  0  0  0  0  0  0  0
   17.6396  -27.6523  -10.2628 O   0  0  0  0  0  0  0  0  0  0  0  0
   15.8041  -24.6393   -1.8619 N   0  0  0  0  0  0  0  0  0  0  0  0
   14.8399  -24.0798   -2.7544 C   0  0  0  0  0  0  0  0  0  0  0  0
   13.8515  -23.4010   -2.3209 N   0  0  0  0  0  0  0  0  0  0  0  0
   14.9398  -24.2573   -4.1781 N   0  0  0  0  0  0  0  0  0  0  0  0
   16.0516  -24.9675   -4.7363 C   0  0  0  0  0  0  0  0  0  0  0  0
   16.0647  -25.0242   -6.2413 C   0  0  0  0  0  0  0  0  0  0  0  0
   17.3109  -25.7708   -6.6624 C   0  0  0  0  0  0  0  0  0  0  0  0
   17.4298  -25.9512   -8.1397 C   0  0  2  0  0  0  0  0  0  0  0  0
   18.6727  -26.5674   -8.5435 N   0  0  0  0  0  0  0  0  0  0  0  0
   17.1921  -24.6513   -8.7908 C   0  0  0  0  0  0  0  0  0  0  0  0
   18.0100  -23.7288   -8.5645 O   0  0  0  0  0  0  0  0  0  0  0  0
   13.1109  -22.9746   -2.9141 C   0  0  0  0  0  0  0  0  0  0  0  0
   16.8358  -23.6129  -12.5879 C   0  0  2  0  0  0  0  0  0  0  0  0
   15.6802  -23.1472  -11.7426 O   0  0  0  0  0  0  0  0  0  0  0  0
   14.6478  -24.0730  -11.8992 C   0  0  2  0  0  0  0  0  0  0  0  0
   16.0220  -23.0833  -10.2811 N   0  0  0  0  0  0  0  0  0  0  0  0
   16.1070  -24.3704   -9.6525 C   0  0  0  0  0  0  0  0  0  0  0  0
   15.0013  -22.2555   -9.5946 O   0  0  0  0  0  0  0  0  0  0  0  0
   14.1959  -22.7914   -8.8227 O   0  0  0  0  0  0  0  0  0  0  0  0
  2  1  1  0
  3  2  2  0
  4  2  1  0
  5  4  1  0
  5  6  1  6
  7  5  1  0
  7  8  2  0
  9 10  1  0
 10 11  2  0
 12 10  1  0
 12 13  1  0
 13 14  1  0
 14 15  1  0
 16 15  1  1
 16 17  1  0
 17  7  1  0
 18 16  1  0
 19 18  2  0
 21 20  1  6
 22 21  1  0
 23 21  1  0
 23 24  1  1
 24 18  1  0
 25 27  1  0
 25 23  1  0
 26 25  2  0
M  END
$$$$
