NRT.pdb
     RDKit          3D

 27 26  0  0  1  0  0  0  0  0999 V2000
   18.1104  -22.3459  -10.7939 N   0  0  0  0  0  0  0  0  0  0  0  0
   17.8618  -21.5094  -11.9358 C   0  0  0  0  0  0  0  0  0  0  0  0
   16.7019  -21.5135  -12.3781 O   0  0  0  0  0  0  0  0  0  0  0  0
   19.0023  -20.7425  -12.4548 C   0  0  0  0  0  0  0  0  0  0  0  0
   20.3168  -21.0242  -11.8083 C   0  0  2  0  0  0  0  0  0  0  0  0
   20.3192  -20.5237  -10.4638 N   0  0  0  0  0  0  0  0  0  0  0  0
   21.3837  -20.4285  -12.6376 C   0  0  0  0  0  0  0  0  0  0  0  0
   21.3488  -19.1859  -12.9130 O   0  0  0  0  0  0  0  0  0  0  0  0
   28.1683  -22.7680  -16.9243 N   0  0  0  0  0  0  0  0  0  0  0  0
   28.5345  -21.4075  -16.6914 C   0  0  0  0  0  0  0  0  0  0  0  0
   29.1454  -20.7249  -17.5783 N   0  0  0  0  0  0  0  0  0  0  0  0
   28.2324  -20.7486  -15.4492 N   0  0  0  0  0  0  0  0  0  0  0  0
   27.1554  -21.2199  -14.6305 C   0  0  0  0  0  0  0  0  0  0  0  0
   25.8450  -20.5118  -14.8538 C   0  0  0  0  0  0  0  0  0  0  0  0
   24.8410  -21.0846  -13.8782 C   0  0  0  0  0  0  0  0  0  0  0  0
   23.4762  -20.4934  -14.0082 C   0  0  2  0  0  0  0  0  0  0  0  0
   22.4888  -21.1431  -13.1772 N   0  0  0  0  0  0  0  0  0  0  0  0
   23.1078  -20.4747  -15.4344 C   0  0  0  0  0  0  0  0  0  0  0  0
   22.7625  -21.5587  -15.9605 O   0  0  0  0  0  0  0  0  0  0  0  0
   29.4078  -19.7223  -17.4876 C   0  0  0  0  0  0  0  0  0  0  0  0
   20.3223  -18.8533  -17.5546 C   0  0  2  0  0  0  0  0  0  0  0  0
   21.6868  -18.4699  -18.0626 O   0  0  0  0  0  0  0  0  0  0  0  0
   21.9990  -17.2222  -17.5212 C   0  0  2  0  0  0  0  0  0  0  0  0
   22.7551  -19.4361  -17.6356 N   0  0  0  0  0  0  0  0  0  0  0  0
   23.1162  -19.3211  -16.2517 C   0  0  0  0  0  0  0  0  0  0  0  0
   23.9506  -19.2222  -18.4861 O   0  0  0  0  0  0  0  0  0  0  0  0
   23.8968  -19.4818  -19.6951 O   0  0  0  0  0  0  0  0  0  0  0  0
  2  1  1  0
  3  2  2  0
  4  2  1  0
  5  4  1  0
  5  6  1  1
  7  5  1  0
  7  8  2  0
  9 10  1  0
 10 11  2  0
 12 10  1  0
 12 13  1  0
 13 14  1  0
 14 15  1  0
 16 15  1  6
 16 17  1  0
 17  7  1  0
 18 16  1  0
 19 18  2  0
 21 20  1  6
 22 21  1  0
 23 21  1  0
 23 24  1  6
 24 18  1  0
 25 27  1  0
 25 23  1  0
 26 25  2  0
M  END
$$$$
