NRT.pdb
     RDKit          3D

 27 26  0  0  1  0  0  0  0  0999 V2000
   19.0764  -21.3834  -13.4291 N   0  0  0  0  0  0  0  0  0  0  0  0
   19.7299  -20.4136  -12.5937 C   0  0  0  0  0  0  0  0  0  0  0  0
   19.3385  -20.3484  -11.4175 O   0  0  0  0  0  0  0  0  0  0  0  0
   20.7866  -19.6070  -13.2190 C   0  0  0  0  0  0  0  0  0  0  0  0
   21.0825  -19.9259  -14.6459 C   0  0  2  0  0  0  0  0  0  0  0  0
   21.3089  -21.3344  -14.7967 N   0  0  0  0  0  0  0  0  0  0  0  0
   22.2397  -19.1157  -15.0765 C   0  0  0  0  0  0  0  0  0  0  0  0
   22.2068  -17.8496  -14.9454 O   0  0  0  0  0  0  0  0  0  0  0  0
   28.6165  -21.6307  -12.8187 N   0  0  0  0  0  0  0  0  0  0  0  0
   27.8272  -21.0116  -11.8023 C   0  0  0  0  0  0  0  0  0  0  0  0
   27.7003  -21.5395  -10.6487 N   0  0  0  0  0  0  0  0  0  0  0  0
   27.1414  -19.7689  -12.0342 N   0  0  0  0  0  0  0  0  0  0  0  0
   27.2354  -19.1247  -13.3103 C   0  0  0  0  0  0  0  0  0  0  0  0
   25.9186  -18.6588  -13.8734 C   0  0  0  0  0  0  0  0  0  0  0  0
   25.8172  -19.1738  -15.2920 C   0  0  0  0  0  0  0  0  0  0  0  0
   24.5499  -18.7868  -15.9798 C   0  0  2  0  0  0  0  0  0  0  0  0
   23.4329  -19.6403  -15.6457 N   0  0  0  0  0  0  0  0  0  0  0  0
   24.8068  -18.7136  -17.4285 C   0  0  0  0  0  0  0  0  0  0  0  0
   24.6000  -19.7457  -18.1091 O   0  0  0  0  0  0  0  0  0  0  0  0
   27.1973  -21.1107   -9.8454 C   0  0  0  0  0  0  0  0  0  0  0  0
   25.5228  -16.4140  -21.7100 C   0  0  2  0  0  0  0  0  0  0  0  0
   25.2754  -16.3201  -20.2278 O   0  0  0  0  0  0  0  0  0  0  0  0
   23.9366  -15.9695  -20.0488 C   0  0  1  0  0  0  0  0  0  0  0  0
   25.5073  -17.6244  -19.5193 N   0  0  0  0  0  0  0  0  0  0  0  0
   25.2702  -17.5623  -18.1055 C   0  0  0  0  0  0  0  0  0  0  0  0
   26.9016  -18.0584  -19.7762 O   0  0  0  0  0  0  0  0  0  0  0  0
   27.8139  -17.6534  -19.0445 O   0  0  0  0  0  0  0  0  0  0  0  0
  2  1  1  0
  3  2  2  0
  4  2  1  0
  5  4  1  0
  5  6  1  1
  7  5  1  0
  7  8  2  0
  9 10  1  0
 10 11  2  0
 12 10  1  0
 12 13  1  0
 13 14  1  0
 14 15  1  0
 16 15  1  1
 16 17  1  0
 17  7  1  0
 18 16  1  0
 19 18  2  0
 21 20  1  6
 22 21  1  0
 23 21  1  0
 23 24  1  1
 24 18  1  0
 25 27  1  0
 25 23  1  0
 26 25  2  0
M  END
$$$$
