SGQ.pdb
     RDKit          3D

 20 19  0  0  1  0  0  0  0  0999 V2000
   20.2558  -20.6616  -15.1955 O   0  0  0  0  0  0  0  0  0  0  0  0
   20.8923  -19.4377  -15.4763 C   0  0  0  0  0  0  0  0  0  0  0  0
   22.2996  -19.5084  -14.9275 C   0  0  2  0  0  0  0  0  0  0  0  0
   23.0280  -20.4671  -15.7285 N   0  0  0  0  0  0  0  0  0  0  0  0
   22.3092  -19.9908  -13.5222 C   0  0  0  0  0  0  0  0  0  0  0  0
   23.1185  -20.8673  -13.1218 O   0  0  0  0  0  0  0  0  0  0  0  0
   21.3786  -19.4661  -12.5484 N   0  0  0  0  0  0  0  0  0  0  0  0
   21.3904  -19.9529  -11.1936 C   0  0  0  0  0  0  0  0  0  0  0  0
   20.3246  -20.8970  -10.8590 C   0  0  0  0  0  0  0  0  0  0  0  0
   20.1982  -21.2151   -9.6471 O   0  0  0  0  0  0  0  0  0  0  0  0
   17.7209  -19.2514  -12.4332 N   0  0  0  0  0  0  0  0  0  0  0  0
   16.6070  -19.6574  -11.6595 C   0  0  0  0  0  0  0  0  0  0  0  0
   15.9059  -18.7684  -11.0990 O   0  0  0  0  0  0  0  0  0  0  0  0
   16.2245  -21.0682  -11.4838 C   0  0  0  0  0  0  0  0  0  0  0  0
   17.1538  -22.0255  -12.1290 C   0  0  0  0  0  0  0  0  0  0  0  0
   18.3768  -22.4373  -11.3958 C   0  0  2  0  0  0  0  0  0  0  0  0
   19.4397  -21.4658  -11.8046 N   0  0  0  0  0  0  0  0  0  0  0  0
   18.9431  -23.7500  -11.6912 C   0  0  0  0  0  0  0  0  0  0  0  0
   18.4589  -24.9219  -11.1054 O   0  0  0  0  0  0  0  0  0  0  0  0
   19.9026  -23.8720  -12.4881 O   0  0  0  0  0  0  0  0  0  0  0  0
  2  1  1  0
  3  5  1  0
  3  2  1  0
  3  4  1  6
  5  7  1  0
  5  6  2  0
  7  8  1  0
  9 10  2  0
  9  8  1  0
 11 12  1  0
 12 14  1  0
 13 12  2  0
 14 15  1  0
 16 15  1  6
 16 18  1  0
 16 17  1  0
 17  9  1  0
 18 19  1  0
 20 18  2  0
M  END
$$$$
