SGQ.pdb
     RDKit          3D

 20 19  0  0  1  0  0  0  0  0999 V2000
   21.5553  -11.1897  -15.2974 O   0  0  0  0  0  0  0  0  0  0  0  0
   21.1977  -10.0489  -16.0408 C   0  0  0  0  0  0  0  0  0  0  0  0
   22.0449   -8.8937  -15.5567 C   0  0  2  0  0  0  0  0  0  0  0  0
   21.7187   -8.6719  -14.1655 N   0  0  0  0  0  0  0  0  0  0  0  0
   21.7343   -7.6454  -16.3003 C   0  0  0  0  0  0  0  0  0  0  0  0
   21.8324   -7.5713  -17.5526 O   0  0  0  0  0  0  0  0  0  0  0  0
   21.3023   -6.4531  -15.6063 N   0  0  0  0  0  0  0  0  0  0  0  0
   21.1033   -5.2228  -16.3268 C   0  0  0  0  0  0  0  0  0  0  0  0
   20.5792   -4.1114  -15.5336 C   0  0  0  0  0  0  0  0  0  0  0  0
   20.3520   -3.0304  -16.1385 O   0  0  0  0  0  0  0  0  0  0  0  0
   17.6162   -5.4056  -10.2007 N   0  0  0  0  0  0  0  0  0  0  0  0
   17.5498   -3.9914  -10.1977 C   0  0  0  0  0  0  0  0  0  0  0  0
   17.0153   -3.4150   -9.2087 O   0  0  0  0  0  0  0  0  0  0  0  0
   18.0811   -3.1616  -11.2915 C   0  0  0  0  0  0  0  0  0  0  0  0
   18.7994   -3.9326  -12.3336 C   0  0  0  0  0  0  0  0  0  0  0  0
   19.4056   -3.1996  -13.4730 C   0  0  2  0  0  0  0  0  0  0  0  0
   20.3162   -4.1791  -14.1454 N   0  0  0  0  0  0  0  0  0  0  0  0
   20.2553   -2.0508  -13.1740 C   0  0  0  0  0  0  0  0  0  0  0  0
   19.7877   -0.7366  -13.2456 O   0  0  0  0  0  0  0  0  0  0  0  0
   21.4543   -2.2061  -12.8441 O   0  0  0  0  0  0  0  0  0  0  0  0
  2  1  1  0
  3  5  1  0
  3  2  1  0
  3  4  1  1
  5  7  1  0
  5  6  2  0
  7  8  1  0
  9 10  2  0
  9  8  1  0
 11 12  1  0
 12 14  1  0
 13 12  2  0
 14 15  1  0
 16 15  1  1
 16 18  1  0
 16 17  1  0
 17  9  1  0
 18 19  1  0
 20 18  2  0
M  END
$$$$
