SGQ.pdb
     RDKit          3D

 20 19  0  0  1  0  0  0  0  0999 V2000
   19.5331  -12.4962  -18.0585 O   0  0  0  0  0  0  0  0  0  0  0  0
   19.7254  -13.7172  -17.3845 C   0  0  0  0  0  0  0  0  0  0  0  0
   18.9972  -13.6381  -16.0615 C   0  0  2  0  0  0  0  0  0  0  0  0
   17.5854  -13.5210  -16.3519 N   0  0  0  0  0  0  0  0  0  0  0  0
   19.4033  -12.4344  -15.2909 C   0  0  0  0  0  0  0  0  0  0  0  0
   20.5913  -12.2470  -14.9208 O   0  0  0  0  0  0  0  0  0  0  0  0
   18.4385  -11.4195  -14.9319 N   0  0  0  0  0  0  0  0  0  0  0  0
   18.8520  -10.2439  -14.2112 C   0  0  0  0  0  0  0  0  0  0  0  0
   17.7852   -9.2924  -13.9020 C   0  0  0  0  0  0  0  0  0  0  0  0
   16.7313   -9.3679  -14.5872 O   0  0  0  0  0  0  0  0  0  0  0  0
   15.1796   -8.6227   -8.7755 N   0  0  0  0  0  0  0  0  0  0  0  0
   14.5831   -7.5190   -9.4316 C   0  0  0  0  0  0  0  0  0  0  0  0
   13.6262   -6.9235   -8.8610 O   0  0  0  0  0  0  0  0  0  0  0  0
   15.0316   -7.0296  -10.7456 C   0  0  0  0  0  0  0  0  0  0  0  0
   16.1603   -7.8004  -11.3185 C   0  0  0  0  0  0  0  0  0  0  0  0
   16.7318   -7.3693  -12.6188 C   0  0  2  0  0  0  0  0  0  0  0  0
   17.8672   -8.3057  -12.8917 N   0  0  0  0  0  0  0  0  0  0  0  0
   17.3243   -6.0375  -12.6986 C   0  0  0  0  0  0  0  0  0  0  0  0
   16.5648   -4.8965  -12.9675 O   0  0  0  0  0  0  0  0  0  0  0  0
   18.5551   -5.8701  -12.5326 O   0  0  0  0  0  0  0  0  0  0  0  0
  2  1  1  0
  3  5  1  0
  3  2  1  0
  3  4  1  6
  5  7  1  0
  5  6  2  0
  7  8  1  0
  9 10  2  0
  9  8  1  0
 11 12  1  0
 12 14  1  0
 13 12  2  0
 14 15  1  0
 16 15  1  1
 16 18  1  0
 16 17  1  0
 17  9  1  0
 18 19  1  0
 20 18  2  0
M  END
$$$$
