SGQ.pdb
     RDKit          3D

 20 19  0  0  1  0  0  0  0  0999 V2000
   17.5121  -16.5088  -19.0243 O   0  0  0  0  0  0  0  0  0  0  0  0
   18.5247  -15.5680  -18.7568 C   0  0  0  0  0  0  0  0  0  0  0  0
   17.8775  -14.3531  -18.1308 C   0  0  2  0  0  0  0  0  0  0  0  0
   17.0978  -13.7008  -19.1593 N   0  0  0  0  0  0  0  0  0  0  0  0
   18.8961  -13.3841  -17.6502 C   0  0  0  0  0  0  0  0  0  0  0  0
   19.4437  -13.4940  -16.5226 O   0  0  0  0  0  0  0  0  0  0  0  0
   19.3027  -12.2639  -18.4685 N   0  0  0  0  0  0  0  0  0  0  0  0
   20.2857  -11.3290  -17.9868 C   0  0  0  0  0  0  0  0  0  0  0  0
   19.7972  -10.3551  -17.0111 C   0  0  0  0  0  0  0  0  0  0  0  0
   18.5491  -10.2325  -16.8968 O   0  0  0  0  0  0  0  0  0  0  0  0
   18.5012   -9.8611  -12.2642 N   0  0  0  0  0  0  0  0  0  0  0  0
   19.1350   -8.6294  -11.9721 C   0  0  0  0  0  0  0  0  0  0  0  0
   18.6767   -7.9240  -11.0295 O   0  0  0  0  0  0  0  0  0  0  0  0
   20.3082   -8.1362  -12.7122 C   0  0  0  0  0  0  0  0  0  0  0  0
   20.6519   -8.9509  -13.9015 C   0  0  0  0  0  0  0  0  0  0  0  0
   20.0674   -8.5794  -15.2142 C   0  0  2  0  0  0  0  0  0  0  0  0
   20.6338   -9.5538  -16.1993 N   0  0  0  0  0  0  0  0  0  0  0  0
   20.3951   -7.2669  -15.7632 C   0  0  0  0  0  0  0  0  0  0  0  0
   19.5700   -6.1544  -15.5832 O   0  0  0  0  0  0  0  0  0  0  0  0
   21.4410   -7.0919  -16.4308 O   0  0  0  0  0  0  0  0  0  0  0  0
  2  1  1  0
  3  5  1  0
  3  2  1  0
  3  4  1  6
  5  7  1  0
  5  6  2  0
  7  8  1  0
  9 10  2  0
  9  8  1  0
 11 12  1  0
 12 14  1  0
 13 12  2  0
 14 15  1  0
 16 15  1  1
 16 18  1  0
 16 17  1  0
 17  9  1  0
 18 19  1  0
 20 18  2  0
M  END
$$$$
