SGQ.pdb
     RDKit          3D

 20 19  0  0  1  0  0  0  0  0999 V2000
   26.7769  -18.3698  -19.6000 O   0  0  0  0  0  0  0  0  0  0  0  0
   28.0370  -17.8161  -19.8962 C   0  0  0  0  0  0  0  0  0  0  0  0
   28.9124  -17.9707  -18.6729 C   0  0  2  0  0  0  0  0  0  0  0  0
   29.2040  -19.3794  -18.5256 N   0  0  0  0  0  0  0  0  0  0  0  0
   28.2090  -17.5218  -17.4435 C   0  0  0  0  0  0  0  0  0  0  0  0
   27.7804  -16.3463  -17.3100 O   0  0  0  0  0  0  0  0  0  0  0  0
   27.9870  -18.4284  -16.3396 N   0  0  0  0  0  0  0  0  0  0  0  0
   27.1709  -18.0299  -15.2226 C   0  0  0  0  0  0  0  0  0  0  0  0
   26.3709  -19.0961  -14.6207 C   0  0  0  0  0  0  0  0  0  0  0  0
   26.3070  -20.1885  -15.2440 O   0  0  0  0  0  0  0  0  0  0  0  0
   26.0251  -19.5577   -8.5157 N   0  0  0  0  0  0  0  0  0  0  0  0
   25.3424  -20.7353   -8.9049 C   0  0  0  0  0  0  0  0  0  0  0  0
   25.0137  -21.5651   -8.0108 O   0  0  0  0  0  0  0  0  0  0  0  0
   24.9919  -21.0336  -10.3033 C   0  0  0  0  0  0  0  0  0  0  0  0
   25.3957  -19.9767  -11.2605 C   0  0  0  0  0  0  0  0  0  0  0  0
   25.0959  -20.1668  -12.7017 C   0  0  2  0  0  0  0  0  0  0  0  0
   25.6742  -18.9733  -13.3958 N   0  0  0  0  0  0  0  0  0  0  0  0
   23.6952  -20.1900  -13.1126 C   0  0  0  0  0  0  0  0  0  0  0  0
   22.9385  -21.3639  -13.1221 O   0  0  0  0  0  0  0  0  0  0  0  0
   23.1162  -19.1422  -13.4831 O   0  0  0  0  0  0  0  0  0  0  0  0
  2  1  1  0
  3  5  1  0
  3  2  1  0
  3  4  1  1
  5  7  1  0
  5  6  2  0
  7  8  1  0
  9 10  2  0
  9  8  1  0
 11 12  1  0
 12 14  1  0
 13 12  2  0
 14 15  1  0
 16 15  1  1
 16 18  1  0
 16 17  1  0
 17  9  1  0
 18 19  1  0
 20 18  2  0
M  END
$$$$
