SGQ.pdb
     RDKit          3D

 20 19  0  0  1  0  0  0  0  0999 V2000
   25.1442  -18.5612  -17.9840 O   0  0  0  0  0  0  0  0  0  0  0  0
   25.8872  -17.5331  -17.3733 C   0  0  0  0  0  0  0  0  0  0  0  0
   27.3475  -17.9230  -17.4212 C   0  0  2  0  0  0  0  0  0  0  0  0
   27.6974  -18.1172  -18.8108 N   0  0  0  0  0  0  0  0  0  0  0  0
   27.5897  -19.2042  -16.7088 C   0  0  0  0  0  0  0  0  0  0  0  0
   28.6171  -19.9006  -16.9163 O   0  0  0  0  0  0  0  0  0  0  0  0
   26.6437  -19.7070  -15.7383 N   0  0  0  0  0  0  0  0  0  0  0  0
   26.9837  -20.8295  -14.9036 C   0  0  0  0  0  0  0  0  0  0  0  0
   25.9083  -21.3141  -14.0388 C   0  0  0  0  0  0  0  0  0  0  0  0
   26.1331  -22.3590  -13.3727 O   0  0  0  0  0  0  0  0  0  0  0  0
   26.3547  -21.3497  -10.5465 N   0  0  0  0  0  0  0  0  0  0  0  0
   25.1993  -21.0637   -9.7801 C   0  0  0  0  0  0  0  0  0  0  0  0
   25.1116  -21.5496   -8.6172 O   0  0  0  0  0  0  0  0  0  0  0  0
   24.0983  -20.2203  -10.2739 C   0  0  0  0  0  0  0  0  0  0  0  0
   24.1957  -19.8919  -11.7158 C   0  0  0  0  0  0  0  0  0  0  0  0
   23.7804  -20.9128  -12.7099 C   0  0  2  0  0  0  0  0  0  0  0  0
   24.6476  -20.6860  -13.9087 N   0  0  0  0  0  0  0  0  0  0  0  0
   22.4157  -20.8522  -13.2247 C   0  0  0  0  0  0  0  0  0  0  0  0
   21.3452  -21.4757  -12.5796 O   0  0  0  0  0  0  0  0  0  0  0  0
   22.1544  -20.2344  -14.2833 O   0  0  0  0  0  0  0  0  0  0  0  0
  2  1  1  0
  3  5  1  0
  3  2  1  0
  3  4  1  6
  5  7  1  0
  5  6  2  0
  7  8  1  0
  9 10  2  0
  9  8  1  0
 11 12  1  0
 12 14  1  0
 13 12  2  0
 14 15  1  0
 16 15  1  1
 16 18  1  0
 16 17  1  0
 17  9  1  0
 18 19  1  0
 20 18  2  0
M  END
$$$$
