SGQ.pdb
     RDKit          3D

 20 19  0  0  1  0  0  0  0  0999 V2000
   24.3619  -12.3168  -19.9374 O   0  0  0  0  0  0  0  0  0  0  0  0
   24.7377  -11.3838  -18.9524 C   0  0  0  0  0  0  0  0  0  0  0  0
   24.2559  -11.8996  -17.6151 C   0  0  2  0  0  0  0  0  0  0  0  0
   22.9081  -12.3895  -17.8012 N   0  0  0  0  0  0  0  0  0  0  0  0
   24.2083  -10.8144  -16.6013 C   0  0  0  0  0  0  0  0  0  0  0  0
   25.2520  -10.2779  -16.1468 O   0  0  0  0  0  0  0  0  0  0  0  0
   22.9468  -10.3266  -16.0912 N   0  0  0  0  0  0  0  0  0  0  0  0
   22.9158   -9.2683  -15.1157 C   0  0  0  0  0  0  0  0  0  0  0  0
   22.5221   -7.9564  -15.6286 C   0  0  0  0  0  0  0  0  0  0  0  0
   22.7361   -7.7282  -16.8485 O   0  0  0  0  0  0  0  0  0  0  0  0
   17.1542   -5.6201  -15.0426 N   0  0  0  0  0  0  0  0  0  0  0  0
   17.7330   -5.1927  -16.2618 C   0  0  0  0  0  0  0  0  0  0  0  0
   16.9677   -4.8082  -17.1905 O   0  0  0  0  0  0  0  0  0  0  0  0
   19.1865   -5.1694  -16.4944 C   0  0  0  0  0  0  0  0  0  0  0  0
   19.9845   -5.6648  -15.3480 C   0  0  0  0  0  0  0  0  0  0  0  0
   21.4651   -5.6529  -15.4510 C   0  0  2  0  0  0  0  0  0  0  0  0
   21.9229   -6.9427  -14.8448 N   0  0  0  0  0  0  0  0  0  0  0  0
   22.1943   -4.6216  -14.7188 C   0  0  0  0  0  0  0  0  0  0  0  0
   23.0208   -4.9191  -13.6328 O   0  0  0  0  0  0  0  0  0  0  0  0
   22.0974   -3.4143  -15.0403 O   0  0  0  0  0  0  0  0  0  0  0  0
  2  1  1  0
  3  5  1  0
  3  2  1  0
  3  4  1  6
  5  7  1  0
  5  6  2  0
  7  8  1  0
  9 10  2  0
  9  8  1  0
 11 12  1  0
 12 14  1  0
 13 12  2  0
 14 15  1  0
 16 15  1  1
 16 18  1  0
 16 17  1  0
 17  9  1  0
 18 19  1  0
 20 18  2  0
M  END
$$$$
