SGQ.pdb
     RDKit          3D

 20 19  0  0  1  0  0  0  0  0999 V2000
   20.1427  -23.9975  -13.9263 O   0  0  0  0  0  0  0  0  0  0  0  0
   20.0843  -23.3976  -12.6540 C   0  0  0  0  0  0  0  0  0  0  0  0
   18.7277  -23.7007  -12.0586 C   0  0  2  0  0  0  0  0  0  0  0  0
   17.7960  -22.7311  -12.5907 N   0  0  0  0  0  0  0  0  0  0  0  0
   18.7402  -23.5541  -10.5801 C   0  0  0  0  0  0  0  0  0  0  0  0
   18.6064  -22.4363  -10.0180 O   0  0  0  0  0  0  0  0  0  0  0  0
   18.9084  -24.7032   -9.7193 N   0  0  0  0  0  0  0  0  0  0  0  0
   18.9312  -24.5445   -8.2887 C   0  0  0  0  0  0  0  0  0  0  0  0
   17.8027  -25.1417   -7.5752 C   0  0  0  0  0  0  0  0  0  0  0  0
   16.9191  -25.7097   -8.2698 O   0  0  0  0  0  0  0  0  0  0  0  0
   17.9173  -26.5074   -1.4545 N   0  0  0  0  0  0  0  0  0  0  0  0
   18.4979  -27.2400   -2.5177 C   0  0  0  0  0  0  0  0  0  0  0  0
   19.4393  -28.0405   -2.2549 O   0  0  0  0  0  0  0  0  0  0  0  0
   18.0501  -27.1165   -3.9147 C   0  0  0  0  0  0  0  0  0  0  0  0
   16.9826  -26.1081   -4.1145 C   0  0  0  0  0  0  0  0  0  0  0  0
   16.5153  -25.8277   -5.4951 C   0  0  2  0  0  0  0  0  0  0  0  0
   17.6482  -25.1187   -6.1693 N   0  0  0  0  0  0  0  0  0  0  0  0
   15.3705  -24.9374   -5.6631 C   0  0  0  0  0  0  0  0  0  0  0  0
   14.0726  -25.4169   -5.8540 O   0  0  0  0  0  0  0  0  0  0  0  0
   15.5160  -23.6928   -5.6481 O   0  0  0  0  0  0  0  0  0  0  0  0
  2  1  1  0
  3  5  1  0
  3  2  1  0
  3  4  1  6
  5  7  1  0
  5  6  2  0
  7  8  1  0
  9 10  2  0
  9  8  1  0
 11 12  1  0
 12 14  1  0
 13 12  2  0
 14 15  1  0
 16 15  1  1
 16 18  1  0
 16 17  1  0
 17  9  1  0
 18 19  1  0
 20 18  2  0
M  END
$$$$
