SGQ.pdb
     RDKit          3D

 20 19  0  0  1  0  0  0  0  0999 V2000
   23.9409  -14.4777  -17.4780 O   0  0  0  0  0  0  0  0  0  0  0  0
   24.9574  -15.4502  -17.5308 C   0  0  0  0  0  0  0  0  0  0  0  0
   24.8402  -16.3134  -16.2947 C   0  0  2  0  0  0  0  0  0  0  0  0
   25.0954  -15.4665  -15.1506 N   0  0  0  0  0  0  0  0  0  0  0  0
   25.8565  -17.3972  -16.2927 C   0  0  0  0  0  0  0  0  0  0  0  0
   25.7705  -18.3957  -17.0537 O   0  0  0  0  0  0  0  0  0  0  0  0
   26.9973  -17.3468  -15.4062 N   0  0  0  0  0  0  0  0  0  0  0  0
   27.9720  -18.4062  -15.4125 C   0  0  0  0  0  0  0  0  0  0  0  0
   27.6350  -19.5710  -14.5948 C   0  0  0  0  0  0  0  0  0  0  0  0
   28.2927  -20.6255  -14.7978 O   0  0  0  0  0  0  0  0  0  0  0  0
   24.7123  -20.7146   -8.1364 N   0  0  0  0  0  0  0  0  0  0  0  0
   25.8760  -20.5899   -8.9330 C   0  0  0  0  0  0  0  0  0  0  0  0
   26.8422  -19.9092   -8.4867 O   0  0  0  0  0  0  0  0  0  0  0  0
   26.0142  -21.2231  -10.2548 C   0  0  0  0  0  0  0  0  0  0  0  0
   26.2358  -20.2606  -11.3597 C   0  0  0  0  0  0  0  0  0  0  0  0
   26.3904  -20.7825  -12.7406 C   0  0  2  0  0  0  0  0  0  0  0  0
   26.6269  -19.5818  -13.6025 N   0  0  0  0  0  0  0  0  0  0  0  0
   25.2473  -21.4554  -13.3505 C   0  0  0  0  0  0  0  0  0  0  0  0
   25.0483  -22.8339  -13.2455 O   0  0  0  0  0  0  0  0  0  0  0  0
   24.3953  -20.8103  -14.0050 O   0  0  0  0  0  0  0  0  0  0  0  0
  2  1  1  0
  3  5  1  0
  3  2  1  0
  3  4  1  1
  5  7  1  0
  5  6  2  0
  7  8  1  0
  9 10  2  0
  9  8  1  0
 11 12  1  0
 12 14  1  0
 13 12  2  0
 14 15  1  0
 16 15  1  1
 16 18  1  0
 16 17  1  0
 17  9  1  0
 18 19  1  0
 20 18  2  0
M  END
$$$$
