SGQ.pdb
     RDKit          3D

 20 19  0  0  1  0  0  0  0  0999 V2000
   15.8243  -11.8905  -16.8226 O   0  0  0  0  0  0  0  0  0  0  0  0
   16.6901  -12.8357  -16.2404 C   0  0  0  0  0  0  0  0  0  0  0  0
   18.0720  -12.2249  -16.1787 C   0  0  2  0  0  0  0  0  0  0  0  0
   18.9615  -13.2235  -15.6282 N   0  0  0  0  0  0  0  0  0  0  0  0
   18.1024  -11.0439  -15.2777 C   0  0  0  0  0  0  0  0  0  0  0  0
   17.3468  -10.9476  -14.2760 O   0  0  0  0  0  0  0  0  0  0  0  0
   19.0117   -9.9463  -15.5190 N   0  0  0  0  0  0  0  0  0  0  0  0
   19.0214   -8.8028  -14.6446 C   0  0  0  0  0  0  0  0  0  0  0  0
   19.9889   -7.7611  -14.9880 C   0  0  0  0  0  0  0  0  0  0  0  0
   20.7888   -8.0072  -15.9291 O   0  0  0  0  0  0  0  0  0  0  0  0
   20.3608   -0.6095  -16.1609 N   0  0  0  0  0  0  0  0  0  0  0  0
   19.9269   -1.8972  -15.7639 C   0  0  0  0  0  0  0  0  0  0  0  0
   18.6994   -2.1781  -15.8665 O   0  0  0  0  0  0  0  0  0  0  0  0
   20.8419   -2.9263  -15.2434 C   0  0  0  0  0  0  0  0  0  0  0  0
   20.1761   -4.2088  -14.9145 C   0  0  0  0  0  0  0  0  0  0  0  0
   21.0027   -5.4377  -14.8174 C   0  0  2  0  0  0  0  0  0  0  0  0
   20.0774   -6.5102  -14.3335 N   0  0  0  0  0  0  0  0  0  0  0  0
   22.1081   -5.4461  -13.8638 C   0  0  0  0  0  0  0  0  0  0  0  0
   23.3870   -4.9952  -14.1984 O   0  0  0  0  0  0  0  0  0  0  0  0
   21.9469   -5.8708  -12.6959 O   0  0  0  0  0  0  0  0  0  0  0  0
  2  1  1  0
  3  5  1  0
  3  2  1  0
  3  4  1  1
  5  7  1  0
  5  6  2  0
  7  8  1  0
  9 10  2  0
  9  8  1  0
 11 12  1  0
 12 14  1  0
 13 12  2  0
 14 15  1  0
 16 15  1  1
 16 18  1  0
 16 17  1  0
 17  9  1  0
 18 19  1  0
 20 18  2  0
M  END
$$$$
