TNH.pdb
     RDKit          3D

 26 26  0  0  1  0  0  0  0  0999 V2000
   15.3825  -10.1607  -18.0183 C   0  0  0  0  0  0  0  0  0  0  0  0
   15.0591  -11.2423  -17.0115 C   0  0  1  0  0  0  0  0  0  0  0  0
   14.3217  -12.2725  -17.5260 O   0  0  0  0  0  0  0  0  0  0  0  0
   16.3055  -11.7517  -16.3212 C   0  0  2  0  0  0  0  0  0  0  0  0
   15.9572  -12.8075  -15.3675 N   0  0  0  0  0  0  0  0  0  0  0  0
   17.0708  -10.7285  -15.6119 C   0  0  0  0  0  0  0  0  0  0  0  0
   16.6814  -10.1537  -14.5579 O   0  0  0  0  0  0  0  0  0  0  0  0
   20.8052   -7.2141  -14.6928 N   0  0  0  0  0  0  0  0  0  0  0  0
   21.3389   -8.4973  -14.8818 C   0  0  0  0  0  0  0  0  0  0  0  0
   22.5140   -8.7407  -14.5395 O   0  0  0  0  0  0  0  0  0  0  0  0
   20.5178   -9.5601  -15.4830 C   0  0  0  0  0  0  0  0  0  0  0  0
   19.0511   -9.2087  -15.5805 C   0  0  2  0  0  0  0  0  0  0  0  0
   18.3403  -10.3299  -16.1112 N   0  0  0  0  0  0  0  0  0  0  0  0
   18.8816   -7.9588  -16.3516 C   0  0  0  0  0  0  0  0  0  0  0  0
   19.0707   -7.9405  -17.6033 O   0  0  0  0  0  0  0  0  0  0  0  0
   18.5094   -6.7727  -15.7155 N   0  0  0  0  0  0  0  0  0  0  0  0
   18.3315   -5.4884  -16.4670 C   0  0  1  0  0  0  0  0  0  0  0  0
   17.0650   -4.9210  -15.9154 C   0  0  0  0  0  0  0  0  0  0  0  0
   15.8135   -5.3597  -16.5184 C   0  0  0  0  0  0  0  0  0  0  0  0
   15.4989   -6.1176  -17.6142 C   0  0  0  0  0  0  0  0  0  0  0  0
   14.1450   -6.2549  -17.6690 N   0  0  0  0  0  0  0  0  0  0  0  0
   13.6294   -5.5939  -16.6235 C   0  0  0  0  0  0  0  0  0  0  0  0
   14.6243   -5.0588  -15.9349 N   0  0  0  0  0  0  0  0  0  0  0  0
   19.4564   -4.5902  -16.0171 C   0  0  0  0  0  0  0  0  0  0  0  0
   19.6132   -3.3270  -16.4878 O   0  0  0  0  0  0  0  0  0  0  0  0
   20.2802   -5.0216  -15.1764 O   0  0  0  0  0  0  0  0  0  0  0  0
  2  4  1  0
  2  1  1  6
  3  2  1  0
  4  6  1  0
  4  5  1  1
  6 13  1  0
  6  7  2  0
  8  9  1  0
  9 11  1  0
 10  9  2  0
 12 11  1  6
 12 14  1  0
 13 12  1  0
 14 15  2  0
 16 17  1  0
 16 14  1  0
 17 24  1  0
 18 19  1  0
 17 18  1  1
 19 23  1  0
 20 19  2  0
 20 21  1  0
 21 22  1  0
 23 22  2  0
 24 25  1  0
 26 24  2  0
M  END
$$$$
