TNH.pdb
     RDKit          3D

 26 26  0  0  1  0  0  0  0  0999 V2000
   15.8714  -12.0885  -11.1137 C   0  0  0  0  0  0  0  0  0  0  0  0
   14.3746  -12.3043  -11.0832 C   0  0  1  0  0  0  0  0  0  0  0  0
   14.0087  -13.6158  -10.9554 O   0  0  0  0  0  0  0  0  0  0  0  0
   13.7089  -11.4446  -10.0309 C   0  0  2  0  0  0  0  0  0  0  0  0
   12.2620  -11.6734  -10.0352 N   0  0  0  0  0  0  0  0  0  0  0  0
   13.9458  -10.0099  -10.1769 C   0  0  0  0  0  0  0  0  0  0  0  0
   13.5176   -9.3136  -11.1386 O   0  0  0  0  0  0  0  0  0  0  0  0
   15.8579   -5.2780   -9.3721 N   0  0  0  0  0  0  0  0  0  0  0  0
   15.2888   -5.7812   -8.1931 C   0  0  0  0  0  0  0  0  0  0  0  0
   15.0982   -5.0239   -7.2198 O   0  0  0  0  0  0  0  0  0  0  0  0
   14.9147   -7.2012   -8.0985 C   0  0  0  0  0  0  0  0  0  0  0  0
   15.1489   -7.9745   -9.3757 C   0  0  2  0  0  0  0  0  0  0  0  0
   14.7024   -9.3201   -9.1913 N   0  0  0  0  0  0  0  0  0  0  0  0
   16.5635   -7.8525   -9.7876 C   0  0  0  0  0  0  0  0  0  0  0  0
   17.4618   -8.5485   -9.2294 O   0  0  0  0  0  0  0  0  0  0  0  0
   16.9382   -6.9674  -10.8005 N   0  0  0  0  0  0  0  0  0  0  0  0
   18.3262   -6.9451  -11.3650 C   0  0  1  0  0  0  0  0  0  0  0  0
   18.4626   -8.2715  -12.0376 C   0  0  0  0  0  0  0  0  0  0  0  0
   19.6496   -8.4927  -12.8528 C   0  0  0  0  0  0  0  0  0  0  0  0
   20.7649   -7.7495  -13.1319 C   0  0  0  0  0  0  0  0  0  0  0  0
   21.5897   -8.4904  -13.9229 N   0  0  0  0  0  0  0  0  0  0  0  0
   20.9956   -9.6737  -14.1294 C   0  0  0  0  0  0  0  0  0  0  0  0
   19.8368   -9.6772  -13.4909 N   0  0  0  0  0  0  0  0  0  0  0  0
   18.3126   -5.8949  -12.4473 C   0  0  0  0  0  0  0  0  0  0  0  0
   19.4119   -5.1681  -12.7716 O   0  0  0  0  0  0  0  0  0  0  0  0
   17.2483   -5.6816  -13.0745 O   0  0  0  0  0  0  0  0  0  0  0  0
  2  4  1  0
  2  1  1  1
  3  2  1  0
  4  6  1  0
  4  5  1  6
  6 13  1  0
  6  7  2  0
  8  9  1  0
  9 11  1  0
 10  9  2  0
 12 11  1  1
 12 14  1  0
 13 12  1  0
 14 15  2  0
 16 17  1  0
 16 14  1  0
 17 24  1  0
 18 19  1  0
 17 18  1  6
 19 23  1  0
 20 19  2  0
 20 21  1  0
 21 22  1  0
 23 22  2  0
 24 25  1  0
 26 24  2  0
M  END
$$$$
