TNH.pdb
     RDKit          3D

 26 26  0  0  1  0  0  0  0  0999 V2000
   19.5684  -12.9624  -17.8505 C   0  0  0  0  0  0  0  0  0  0  0  0
   19.4751  -11.4602  -17.6995 C   0  0  1  0  0  0  0  0  0  0  0  0
   18.3907  -10.9092  -18.3242 O   0  0  0  0  0  0  0  0  0  0  0  0
   19.5428  -11.0409  -16.2472 C   0  0  2  0  0  0  0  0  0  0  0  0
   18.3857  -11.5648  -15.5174 N   0  0  0  0  0  0  0  0  0  0  0  0
   19.6040   -9.5967  -16.0320 C   0  0  0  0  0  0  0  0  0  0  0  0
   18.6716   -8.7959  -16.3190 O   0  0  0  0  0  0  0  0  0  0  0  0
   20.6819   -5.1409  -13.2724 N   0  0  0  0  0  0  0  0  0  0  0  0
   21.7793   -5.9266  -13.6539 C   0  0  0  0  0  0  0  0  0  0  0  0
   22.9142   -5.4144  -13.7374 O   0  0  0  0  0  0  0  0  0  0  0  0
   21.5981   -7.3551  -13.9569 C   0  0  0  0  0  0  0  0  0  0  0  0
   20.9169   -7.6105  -15.2815 C   0  0  2  0  0  0  0  0  0  0  0  0
   20.7727   -9.0211  -15.4641 N   0  0  0  0  0  0  0  0  0  0  0  0
   21.6517   -6.9271  -16.3672 C   0  0  0  0  0  0  0  0  0  0  0  0
   22.7057   -7.4331  -16.8528 O   0  0  0  0  0  0  0  0  0  0  0  0
   21.1986   -5.7096  -16.8794 N   0  0  0  0  0  0  0  0  0  0  0  0
   21.9016   -5.0068  -18.0008 C   0  0  1  0  0  0  0  0  0  0  0  0
   20.8366   -4.8167  -19.0304 C   0  0  0  0  0  0  0  0  0  0  0  0
   20.5584   -5.9335  -19.9234 C   0  0  0  0  0  0  0  0  0  0  0  0
   21.0875   -7.1871  -20.0737 C   0  0  0  0  0  0  0  0  0  0  0  0
   20.3885   -7.8365  -21.0455 N   0  0  0  0  0  0  0  0  0  0  0  0
   19.4408   -6.9992  -21.4893 C   0  0  0  0  0  0  0  0  0  0  0  0
   19.5405   -5.8622  -20.8202 N   0  0  0  0  0  0  0  0  0  0  0  0
   22.2583   -3.6409  -17.4699 C   0  0  0  0  0  0  0  0  0  0  0  0
   23.0016   -2.7545  -18.1796 O   0  0  0  0  0  0  0  0  0  0  0  0
   21.8553   -3.3067  -16.3309 O   0  0  0  0  0  0  0  0  0  0  0  0
  2  4  1  0
  2  1  1  1
  3  2  1  0
  4  6  1  0
  4  5  1  1
  6 13  1  0
  6  7  2  0
  8  9  1  0
  9 11  1  0
 10  9  2  0
 12 11  1  1
 12 14  1  0
 13 12  1  0
 14 15  2  0
 16 17  1  0
 16 14  1  0
 17 24  1  0
 18 19  1  0
 17 18  1  6
 19 23  1  0
 20 19  2  0
 20 21  1  0
 21 22  1  0
 23 22  2  0
 24 25  1  0
 26 24  2  0
M  END
$$$$
