TNH.pdb
     RDKit          3D

 26 26  0  0  1  0  0  0  0  0999 V2000
   26.0712  -21.8306  -10.9949 C   0  0  0  0  0  0  0  0  0  0  0  0
   26.7591  -20.7285  -11.7697 C   0  0  1  0  0  0  0  0  0  0  0  0
   27.9749  -20.3696  -11.2569 O   0  0  0  0  0  0  0  0  0  0  0  0
   26.8624  -21.0631  -13.2418 C   0  0  2  0  0  0  0  0  0  0  0  0
   27.5584  -19.9892  -13.9546 N   0  0  0  0  0  0  0  0  0  0  0  0
   25.5813  -21.2972  -13.9049 C   0  0  0  0  0  0  0  0  0  0  0  0
   24.8725  -20.3894  -14.4210 O   0  0  0  0  0  0  0  0  0  0  0  0
   22.4884  -24.8976  -17.0321 N   0  0  0  0  0  0  0  0  0  0  0  0
   22.5123  -24.7717  -15.6355 C   0  0  0  0  0  0  0  0  0  0  0  0
   21.4799  -24.9959  -14.9712 O   0  0  0  0  0  0  0  0  0  0  0  0
   23.7518  -24.3757  -14.9484 C   0  0  0  0  0  0  0  0  0  0  0  0
   23.8015  -22.9086  -14.5891 C   0  0  2  0  0  0  0  0  0  0  0  0
   25.0691  -22.6198  -13.9943 N   0  0  0  0  0  0  0  0  0  0  0  0
   22.6385  -22.5551  -13.7477 C   0  0  0  0  0  0  0  0  0  0  0  0
   22.6931  -22.6695  -12.4881 O   0  0  0  0  0  0  0  0  0  0  0  0
   21.4558  -22.0878  -14.3247 N   0  0  0  0  0  0  0  0  0  0  0  0
   20.3373  -21.5242  -13.5020 C   0  0  1  0  0  0  0  0  0  0  0  0
   20.7127  -20.0905  -13.3178 C   0  0  0  0  0  0  0  0  0  0  0  0
   20.2854  -19.4366  -12.0881 C   0  0  0  0  0  0  0  0  0  0  0  0
   19.6523  -19.8650  -10.9524 C   0  0  0  0  0  0  0  0  0  0  0  0
   19.5569  -18.8152  -10.0900 N   0  0  0  0  0  0  0  0  0  0  0  0
   20.1228  -17.7540  -10.6814 C   0  0  0  0  0  0  0  0  0  0  0  0
   20.5588  -18.1232  -11.8747 N   0  0  0  0  0  0  0  0  0  0  0  0
   19.1183  -21.5561  -14.3895 C   0  0  0  0  0  0  0  0  0  0  0  0
   17.8561  -21.6025  -13.8928 O   0  0  0  0  0  0  0  0  0  0  0  0
   19.2710  -21.5390  -15.6336 O   0  0  0  0  0  0  0  0  0  0  0  0
  2  4  1  0
  2  1  1  1
  3  2  1  0
  4  6  1  0
  4  5  1  6
  6 13  1  0
  6  7  2  0
  8  9  1  0
  9 11  1  0
 10  9  2  0
 12 11  1  1
 12 14  1  0
 13 12  1  0
 14 15  2  0
 16 17  1  0
 16 14  1  0
 17 24  1  0
 18 19  1  0
 17 18  1  6
 19 23  1  0
 20 19  2  0
 20 21  1  0
 21 22  1  0
 23 22  2  0
 24 25  1  0
 26 24  2  0
M  END
$$$$
