TNH.pdb
     RDKit          3D

 26 26  0  0  1  0  0  0  0  0999 V2000
   18.3486  -11.7871  -19.8950 C   0  0  0  0  0  0  0  0  0  0  0  0
   19.0677  -10.9694  -18.8452 C   0  0  1  0  0  0  0  0  0  0  0  0
   18.2904  -10.0016  -18.2715 O   0  0  0  0  0  0  0  0  0  0  0  0
   19.7094  -11.8505  -17.7956 C   0  0  2  0  0  0  0  0  0  0  0  0
   18.6818  -12.6089  -17.0780 N   0  0  0  0  0  0  0  0  0  0  0  0
   20.5205  -11.1354  -16.8125 C   0  0  0  0  0  0  0  0  0  0  0  0
   20.0837  -10.7054  -15.7092 O   0  0  0  0  0  0  0  0  0  0  0  0
   24.5982   -8.8284  -14.6018 N   0  0  0  0  0  0  0  0  0  0  0  0
   25.0599   -9.8855  -15.3997 C   0  0  0  0  0  0  0  0  0  0  0  0
   26.2536  -10.2429  -15.3318 O   0  0  0  0  0  0  0  0  0  0  0  0
   24.1412  -10.5764  -16.3183 C   0  0  0  0  0  0  0  0  0  0  0  0
   22.7114  -10.0972  -16.2171 C   0  0  2  0  0  0  0  0  0  0  0  0
   21.8944  -10.8909  -17.0813 N   0  0  0  0  0  0  0  0  0  0  0  0
   22.6461   -8.6441  -16.4811 C   0  0  0  0  0  0  0  0  0  0  0  0
   23.4567   -7.8483  -15.9222 O   0  0  0  0  0  0  0  0  0  0  0  0
   21.6891   -8.1192  -17.3521 N   0  0  0  0  0  0  0  0  0  0  0  0
   21.6054   -6.6536  -17.6530 C   0  0  1  0  0  0  0  0  0  0  0  0
   22.8327   -6.3808  -18.4590 C   0  0  0  0  0  0  0  0  0  0  0  0
   23.9025   -5.6265  -17.8198 C   0  0  0  0  0  0  0  0  0  0  0  0
   24.0786   -5.0968  -16.5697 C   0  0  0  0  0  0  0  0  0  0  0  0
   25.3176   -4.5345  -16.5104 N   0  0  0  0  0  0  0  0  0  0  0  0
   25.9002   -4.7141  -17.7039 C   0  0  0  0  0  0  0  0  0  0  0  0
   25.0567   -5.3663  -18.4872 N   0  0  0  0  0  0  0  0  0  0  0  0
   20.4215   -6.4902  -18.5730 C   0  0  0  0  0  0  0  0  0  0  0  0
   19.9195   -5.2740  -18.9058 O   0  0  0  0  0  0  0  0  0  0  0  0
   19.8772   -7.5131  -19.0513 O   0  0  0  0  0  0  0  0  0  0  0  0
  2  4  1  0
  2  1  1  6
  3  2  1  0
  4  6  1  0
  4  5  1  1
  6 13  1  0
  6  7  2  0
  8  9  1  0
  9 11  1  0
 10  9  2  0
 12 11  1  6
 12 14  1  0
 13 12  1  0
 14 15  2  0
 16 17  1  0
 16 14  1  0
 17 24  1  0
 18 19  1  0
 17 18  1  6
 19 23  1  0
 20 19  2  0
 20 21  1  0
 21 22  1  0
 23 22  2  0
 24 25  1  0
 26 24  2  0
M  END
$$$$
