TNH.pdb
     RDKit          3D

 26 26  0  0  1  0  0  0  0  0999 V2000
   15.0520  -10.0109  -17.0027 C   0  0  0  0  0  0  0  0  0  0  0  0
   15.0632  -11.2597  -16.1491 C   0  0  1  0  0  0  0  0  0  0  0  0
   14.0358  -12.1212  -16.4182 O   0  0  0  0  0  0  0  0  0  0  0  0
   16.4004  -11.9651  -16.2111 C   0  0  2  0  0  0  0  0  0  0  0  0
   16.3719  -13.1722  -15.3816 N   0  0  0  0  0  0  0  0  0  0  0  0
   17.5394  -11.1499  -15.7939 C   0  0  0  0  0  0  0  0  0  0  0  0
   17.8202  -10.8840  -14.5925 O   0  0  0  0  0  0  0  0  0  0  0  0
   22.8796   -9.7694  -15.8899 N   0  0  0  0  0  0  0  0  0  0  0  0
   21.9123   -9.3421  -16.8112 C   0  0  0  0  0  0  0  0  0  0  0  0
   22.0415   -8.2421  -17.3862 O   0  0  0  0  0  0  0  0  0  0  0  0
   20.7434  -10.1867  -17.1035 C   0  0  0  0  0  0  0  0  0  0  0  0
   19.4713   -9.7079  -16.4427 C   0  0  2  0  0  0  0  0  0  0  0  0
   18.4095  -10.6052  -16.7767 N   0  0  0  0  0  0  0  0  0  0  0  0
   19.2144   -8.2977  -16.8042 C   0  0  0  0  0  0  0  0  0  0  0  0
   18.4942   -8.0075  -17.8042 O   0  0  0  0  0  0  0  0  0  0  0  0
   19.7606   -7.2567  -16.0505 N   0  0  0  0  0  0  0  0  0  0  0  0
   19.4470   -5.8190  -16.3342 C   0  0  1  0  0  0  0  0  0  0  0  0
   18.0148   -5.6774  -15.9355 C   0  0  0  0  0  0  0  0  0  0  0  0
   17.3149   -4.4725  -16.3606 C   0  0  0  0  0  0  0  0  0  0  0  0
   17.6336   -3.4272  -17.1851 C   0  0  0  0  0  0  0  0  0  0  0  0
   16.5573   -2.5962  -17.2633 N   0  0  0  0  0  0  0  0  0  0  0  0
   15.5873   -3.1190  -16.5006 C   0  0  0  0  0  0  0  0  0  0  0  0
   16.0377   -4.2398  -15.9608 N   0  0  0  0  0  0  0  0  0  0  0  0
   20.2653   -5.0188  -15.3520 C   0  0  0  0  0  0  0  0  0  0  0  0
   20.3629   -3.6667  -15.4159 O   0  0  0  0  0  0  0  0  0  0  0  0
   20.8801   -5.6203  -14.4401 O   0  0  0  0  0  0  0  0  0  0  0  0
  2  4  1  0
  2  1  1  6
  3  2  1  0
  4  6  1  0
  4  5  1  1
  6 13  1  0
  6  7  2  0
  8  9  1  0
  9 11  1  0
 10  9  2  0
 12 11  1  6
 12 14  1  0
 13 12  1  0
 14 15  2  0
 16 17  1  0
 16 14  1  0
 17 24  1  0
 18 19  1  0
 17 18  1  1
 19 23  1  0
 20 19  2  0
 20 21  1  0
 21 22  1  0
 23 22  2  0
 24 25  1  0
 26 24  2  0
M  END
$$$$
