TNH.pdb
     RDKit          3D

 26 26  0  0  1  0  0  0  0  0999 V2000
   14.0505   -5.5547  -10.2515 C   0  0  0  0  0  0  0  0  0  0  0  0
   14.2689   -5.9562   -8.8096 C   0  0  1  0  0  0  0  0  0  0  0  0
   13.2391   -5.6112   -7.9787 O   0  0  0  0  0  0  0  0  0  0  0  0
   14.6043   -7.4265   -8.6853 C   0  0  2  0  0  0  0  0  0  0  0  0
   14.8693   -7.7659   -7.2851 N   0  0  0  0  0  0  0  0  0  0  0  0
   15.7475   -7.8606   -9.4856 C   0  0  0  0  0  0  0  0  0  0  0  0
   16.9462   -7.5538   -9.2365 O   0  0  0  0  0  0  0  0  0  0  0  0
   18.4922  -10.4522  -13.0383 N   0  0  0  0  0  0  0  0  0  0  0  0
   17.2460  -11.0810  -12.9016 C   0  0  0  0  0  0  0  0  0  0  0  0
   17.0314  -12.1706  -13.4708 O   0  0  0  0  0  0  0  0  0  0  0  0
   16.1883  -10.4605  -12.0883 C   0  0  0  0  0  0  0  0  0  0  0  0
   16.6130   -9.1695  -11.4272 C   0  0  2  0  0  0  0  0  0  0  0  0
   15.5343   -8.6830  -10.6248 N   0  0  0  0  0  0  0  0  0  0  0  0
   17.0930   -8.2138  -12.4479 C   0  0  0  0  0  0  0  0  0  0  0  0
   16.2758   -7.6082  -13.2017 O   0  0  0  0  0  0  0  0  0  0  0  0
   18.4574   -7.9591  -12.6016 N   0  0  0  0  0  0  0  0  0  0  0  0
   18.9748   -6.9691  -13.6005 C   0  0  1  0  0  0  0  0  0  0  0  0
   20.4578   -7.0340  -13.4369 C   0  0  0  0  0  0  0  0  0  0  0  0
   21.2680   -6.2023  -14.3167 C   0  0  0  0  0  0  0  0  0  0  0  0
   20.9800   -5.2921  -15.2978 C   0  0  0  0  0  0  0  0  0  0  0  0
   22.1503   -4.7668  -15.7554 N   0  0  0  0  0  0  0  0  0  0  0  0
   23.1470   -5.3414  -15.0681 C   0  0  0  0  0  0  0  0  0  0  0  0
   22.6221   -6.1989  -14.2082 N   0  0  0  0  0  0  0  0  0  0  0  0
   18.6494   -7.5450  -14.9559 C   0  0  0  0  0  0  0  0  0  0  0  0
   18.3780   -6.7653  -16.0330 O   0  0  0  0  0  0  0  0  0  0  0  0
   18.6279   -8.7903  -15.0984 O   0  0  0  0  0  0  0  0  0  0  0  0
  2  4  1  0
  2  1  1  6
  3  2  1  0
  4  6  1  0
  4  5  1  1
  6 13  1  0
  6  7  2  0
  8  9  1  0
  9 11  1  0
 10  9  2  0
 12 11  1  6
 12 14  1  0
 13 12  1  0
 14 15  2  0
 16 17  1  0
 16 14  1  0
 17 24  1  0
 18 19  1  0
 17 18  1  6
 19 23  1  0
 20 19  2  0
 20 21  1  0
 21 22  1  0
 23 22  2  0
 24 25  1  0
 26 24  2  0
M  END
$$$$
