DYC.pdb
     RDKit          3D

 27 27  0  0  1  0  0  0  0  0999 V2000
   10.0490  -17.6247   17.8778 N   0  0  0  0  0  0  0  0  0  0  0  0
   10.2064  -18.4189   19.0925 C   0  0  1  0  0  0  0  0  0  0  0  0
   11.2740  -19.4728   18.8602 C   0  0  0  0  0  0  0  0  0  0  0  0
   10.9193  -20.3830   17.7665 C   0  0  0  0  0  0  0  0  0  0  0  0
   11.3929  -20.2449   16.6234 O   0  0  0  0  0  0  0  0  0  0  0  0
   10.4789  -17.5639   20.2671 C   0  0  0  0  0  0  0  0  0  0  0  0
   11.4887  -16.8176   20.2609 O   0  0  0  0  0  0  0  0  0  0  0  0
   10.0374  -21.4187   18.0085 O   0  0  0  0  0  0  0  0  0  0  0  0
    7.0862  -12.0490   18.9745 O   0  0  0  0  0  0  0  0  0  0  0  0
    7.3785  -13.0290   19.9149 C   0  0  0  0  0  0  0  0  0  0  0  0
    8.5490  -12.9428   20.6427 C   0  0  0  0  0  0  0  0  0  0  0  0
    8.8981  -13.8804   21.5882 C   0  0  0  0  0  0  0  0  0  0  0  0
    8.0561  -14.9634   21.8372 C   0  0  0  0  0  0  0  0  0  0  0  0
    8.5053  -15.9154   22.8744 C   0  0  0  0  0  0  0  0  0  0  0  0
    9.7927  -16.6318   22.5316 C   0  0  2  0  0  0  0  0  0  0  0  0
    9.6583  -17.5309   21.4229 N   0  0  0  0  0  0  0  0  0  0  0  0
   10.1863  -17.4168   23.7170 C   0  0  0  0  0  0  0  0  0  0  0  0
    9.4756  -18.4302   23.9927 O   0  0  0  0  0  0  0  0  0  0  0  0
    6.8917  -15.0540   21.1171 C   0  0  0  0  0  0  0  0  0  0  0  0
    6.5453  -14.0971   20.1583 C   0  0  0  0  0  0  0  0  0  0  0  0
   11.2786  -17.1352   24.5632 N   0  0  0  0  0  0  0  0  0  0  0  0
   11.5956  -18.0740   25.6149 C   0  0  1  0  0  0  0  0  0  0  0  0
   13.0683  -18.1073   25.9373 C   0  0  0  0  0  0  0  0  0  0  0  0
   13.3115  -19.2374   27.3535 S   0  0  0  0  0  0  0  0  0  0  0  0
   10.8445  -17.6740   26.8490 C   0  0  0  0  0  0  0  0  0  0  0  0
   10.3335  -16.5497   26.8946 O   0  0  0  0  0  0  0  0  0  0  0  0
   10.7165  -18.5485   27.9338 O   0  0  0  0  0  0  0  0  0  0  0  0
  2  1  1  6
  2  6  1  0
  3  2  1  0
  3  4  1  0
  4  5  2  0
  6 16  1  0
  6  7  2  0
  8  4  1  0
  9 10  1  0
 10 11  2  0
 11 12  1  0
 13 14  1  0
 13 12  2  0
 15 14  1  1
 15 17  1  0
 16 15  1  0
 17 18  2  0
 19 13  1  0
 20 19  2  0
 20 10  1  0
 21 17  1  0
 21 22  1  0
 22 25  1  0
 22 23  1  1
 24 23  1  0
 25 27  1  0
 26 25  2  0
M  END
$$$$
