DYC.pdb
     RDKit          3D

 27 27  0  0  1  0  0  0  0  0999 V2000
   11.1742  -17.1409   18.3726 N   0  0  0  0  0  0  0  0  0  0  0  0
   11.3279  -17.9655   19.5672 C   0  0  1  0  0  0  0  0  0  0  0  0
   12.6430  -18.7190   19.4829 C   0  0  0  0  0  0  0  0  0  0  0  0
   12.7035  -19.5893   18.3042 C   0  0  0  0  0  0  0  0  0  0  0  0
   11.8019  -19.5882   17.4456 O   0  0  0  0  0  0  0  0  0  0  0  0
   11.1960  -17.1618   20.8008 C   0  0  0  0  0  0  0  0  0  0  0  0
   11.9928  -16.2125   21.0019 O   0  0  0  0  0  0  0  0  0  0  0  0
   13.7858  -20.4326   18.1418 O   0  0  0  0  0  0  0  0  0  0  0  0
    7.2979  -12.4985   18.6487 O   0  0  0  0  0  0  0  0  0  0  0  0
    7.6462  -13.3147   19.7175 C   0  0  0  0  0  0  0  0  0  0  0  0
    6.9654  -14.4997   19.9159 C   0  0  0  0  0  0  0  0  0  0  0  0
    7.2603  -15.3525   20.9554 C   0  0  0  0  0  0  0  0  0  0  0  0
    8.2782  -15.0298   21.8519 C   0  0  0  0  0  0  0  0  0  0  0  0
    8.5324  -16.0066   22.9313 C   0  0  0  0  0  0  0  0  0  0  0  0
    9.9365  -16.5694   22.9293 C   0  0  2  0  0  0  0  0  0  0  0  0
   10.2090  -17.3977   21.7912 N   0  0  0  0  0  0  0  0  0  0  0  0
   10.0798  -17.3936   24.1445 C   0  0  0  0  0  0  0  0  0  0  0  0
    9.5770  -18.5572   24.1080 O   0  0  0  0  0  0  0  0  0  0  0  0
    8.9581  -13.8536   21.6595 C   0  0  0  0  0  0  0  0  0  0  0  0
    8.6515  -12.9932   20.6010 C   0  0  0  0  0  0  0  0  0  0  0  0
   10.7241  -16.9973   25.3346 N   0  0  0  0  0  0  0  0  0  0  0  0
   10.8916  -17.9744   26.3858 C   0  0  1  0  0  0  0  0  0  0  0  0
   12.3408  -18.2200   26.7229 C   0  0  0  0  0  0  0  0  0  0  0  0
   12.4031  -19.2882   28.2052 S   0  0  0  0  0  0  0  0  0  0  0  0
   10.1930  -17.4734   27.6138 C   0  0  0  0  0  0  0  0  0  0  0  0
    9.7054  -16.3379   27.5977 O   0  0  0  0  0  0  0  0  0  0  0  0
   10.0873  -18.2672   28.7612 O   0  0  0  0  0  0  0  0  0  0  0  0
  2  1  1  6
  2  6  1  0
  3  2  1  0
  3  4  1  0
  4  5  2  0
  6 16  1  0
  6  7  2  0
  8  4  1  0
  9 10  1  0
 10 11  2  0
 11 12  1  0
 13 14  1  0
 13 12  2  0
 15 14  1  6
 15 17  1  0
 16 15  1  0
 17 18  2  0
 19 13  1  0
 20 19  2  0
 20 10  1  0
 21 17  1  0
 21 22  1  0
 22 25  1  0
 22 23  1  1
 24 23  1  0
 25 27  1  0
 26 25  2  0
M  END
$$$$
