DYC.pdb
     RDKit          3D

 27 27  0  0  1  0  0  0  0  0999 V2000
   10.4817  -16.9650   18.8817 N   0  0  0  0  0  0  0  0  0  0  0  0
    9.2097  -17.0109   19.5964 C   0  0  1  0  0  0  0  0  0  0  0  0
    8.7442  -18.4529   19.6867 C   0  0  0  0  0  0  0  0  0  0  0  0
    8.4405  -19.0163   18.3673 C   0  0  0  0  0  0  0  0  0  0  0  0
    8.9873  -18.5885   17.3338 O   0  0  0  0  0  0  0  0  0  0  0  0
    9.3043  -16.3466   20.9136 C   0  0  0  0  0  0  0  0  0  0  0  0
   10.3757  -16.4245   21.5637 O   0  0  0  0  0  0  0  0  0  0  0  0
    7.5247  -20.0460   18.2668 O   0  0  0  0  0  0  0  0  0  0  0  0
    7.1223  -11.7048   28.1819 O   0  0  0  0  0  0  0  0  0  0  0  0
    7.0505  -12.3675   26.9630 C   0  0  0  0  0  0  0  0  0  0  0  0
    7.7276  -11.8573   25.8728 C   0  0  0  0  0  0  0  0  0  0  0  0
    7.6970  -12.4644   24.6378 C   0  0  0  0  0  0  0  0  0  0  0  0
    6.9639  -13.6365   24.4573 C   0  0  0  0  0  0  0  0  0  0  0  0
    6.9947  -14.2244   23.1018 C   0  0  0  0  0  0  0  0  0  0  0  0
    8.2394  -15.0345   22.8140 C   0  0  2  0  0  0  0  0  0  0  0  0
    8.2433  -15.6129   21.5022 N   0  0  0  0  0  0  0  0  0  0  0  0
    8.2871  -16.1298   23.8012 C   0  0  0  0  0  0  0  0  0  0  0  0
    7.8313  -17.2535   23.4301 O   0  0  0  0  0  0  0  0  0  0  0  0
    6.2894  -14.1481   25.5372 C   0  0  0  0  0  0  0  0  0  0  0  0
    6.3257  -13.5244   26.7879 C   0  0  0  0  0  0  0  0  0  0  0  0
    8.7931  -16.0312   25.1137 N   0  0  0  0  0  0  0  0  0  0  0  0
    9.4458  -17.1848   25.6892 C   0  0  1  0  0  0  0  0  0  0  0  0
   10.6559  -17.6190   24.9010 C   0  0  0  0  0  0  0  0  0  0  0  0
   11.5125  -18.9233   25.8534 S   0  0  0  0  0  0  0  0  0  0  0  0
    9.8807  -16.8376   27.0811 C   0  0  0  0  0  0  0  0  0  0  0  0
   10.5086  -15.7887   27.2625 O   0  0  0  0  0  0  0  0  0  0  0  0
    9.5861  -17.6759   28.1619 O   0  0  0  0  0  0  0  0  0  0  0  0
  2  1  1  1
  2  6  1  0
  3  2  1  0
  3  4  1  0
  4  5  2  0
  6 16  1  0
  6  7  2  0
  8  4  1  0
  9 10  1  0
 10 11  2  0
 11 12  1  0
 13 14  1  0
 13 12  2  0
 15 14  1  1
 15 17  1  0
 16 15  1  0
 17 18  2  0
 19 13  1  0
 20 19  2  0
 20 10  1  0
 21 17  1  0
 21 22  1  0
 22 25  1  0
 22 23  1  6
 24 23  1  0
 25 27  1  0
 26 25  2  0
M  END
$$$$
