DYC.pdb
     RDKit          3D

 27 27  0  0  1  0  0  0  0  0999 V2000
   10.3032  -17.0270   18.4066 N   0  0  0  0  0  0  0  0  0  0  0  0
   10.9146  -17.7024   19.5472 C   0  0  1  0  0  0  0  0  0  0  0  0
   12.3431  -18.0754   19.1943 C   0  0  0  0  0  0  0  0  0  0  0  0
   12.4212  -18.8216   17.9343 C   0  0  0  0  0  0  0  0  0  0  0  0
   13.4658  -19.4009   17.5831 O   0  0  0  0  0  0  0  0  0  0  0  0
   10.8128  -16.8884   20.7770 C   0  0  0  0  0  0  0  0  0  0  0  0
   11.8143  -16.2389   21.1667 O   0  0  0  0  0  0  0  0  0  0  0  0
   11.3101  -18.8832   17.1154 O   0  0  0  0  0  0  0  0  0  0  0  0
    7.9012  -11.8109   18.0425 O   0  0  0  0  0  0  0  0  0  0  0  0
    7.9168  -12.6631   19.1395 C   0  0  0  0  0  0  0  0  0  0  0  0
    8.8180  -12.4369   20.1612 C   0  0  0  0  0  0  0  0  0  0  0  0
    8.8857  -13.2437   21.2745 C   0  0  0  0  0  0  0  0  0  0  0  0
    8.0241  -14.3330   21.3971 C   0  0  0  0  0  0  0  0  0  0  0  0
    8.1604  -15.1387   22.6283 C   0  0  0  0  0  0  0  0  0  0  0  0
    9.4420  -15.9393   22.6973 C   0  0  2  0  0  0  0  0  0  0  0  0
    9.6350  -16.7913   21.5604 N   0  0  0  0  0  0  0  0  0  0  0  0
    9.3642  -16.7878   23.9016 C   0  0  0  0  0  0  0  0  0  0  0  0
    8.6603  -17.8390   23.8152 O   0  0  0  0  0  0  0  0  0  0  0  0
    7.1265  -14.5624   20.3849 C   0  0  0  0  0  0  0  0  0  0  0  0
    7.0651  -13.7378   19.2575 C   0  0  0  0  0  0  0  0  0  0  0  0
   10.0024  -16.5282   25.1320 N   0  0  0  0  0  0  0  0  0  0  0  0
   10.0653  -17.5876   26.1127 C   0  0  1  0  0  0  0  0  0  0  0  0
   10.8746  -18.7684   25.6389 C   0  0  0  0  0  0  0  0  0  0  0  0
   12.5398  -18.1665   25.1842 S   0  0  0  0  0  0  0  0  0  0  0  0
   10.6975  -17.0430   27.3581 C   0  0  0  0  0  0  0  0  0  0  0  0
   10.7627  -17.7682   28.3566 O   0  0  0  0  0  0  0  0  0  0  0  0
   11.2085  -15.7411   27.4008 O   0  0  0  0  0  0  0  0  0  0  0  0
  2  1  1  6
  2  6  1  0
  3  2  1  0
  3  4  1  0
  4  5  2  0
  6 16  1  0
  6  7  2  0
  8  4  1  0
  9 10  1  0
 10 11  2  0
 11 12  1  0
 13 14  1  0
 13 12  2  0
 15 14  1  6
 15 17  1  0
 16 15  1  0
 17 18  2  0
 19 13  1  0
 20 19  2  0
 20 10  1  0
 21 17  1  0
 21 22  1  0
 22 25  1  0
 22 23  1  6
 24 23  1  0
 25 27  1  0
 26 25  2  0
M  END
$$$$
