DYC.pdb
     RDKit          3D

 27 27  0  0  1  0  0  0  0  0999 V2000
   10.1049  -17.4573   18.8876 N   0  0  0  0  0  0  0  0  0  0  0  0
   10.6947  -18.2315   19.9756 C   0  0  1  0  0  0  0  0  0  0  0  0
   12.0933  -18.6638   19.5740 C   0  0  0  0  0  0  0  0  0  0  0  0
   12.1156  -19.2919   18.2491 C   0  0  0  0  0  0  0  0  0  0  0  0
   12.7799  -18.8130   17.3113 O   0  0  0  0  0  0  0  0  0  0  0  0
   10.6602  -17.4860   21.2516 C   0  0  0  0  0  0  0  0  0  0  0  0
   11.6764  -16.8436   21.6138 O   0  0  0  0  0  0  0  0  0  0  0  0
   11.3811  -20.4422   18.0342 O   0  0  0  0  0  0  0  0  0  0  0  0
    7.2345  -12.2409   19.0616 O   0  0  0  0  0  0  0  0  0  0  0  0
    7.4854  -13.0935   20.1295 C   0  0  0  0  0  0  0  0  0  0  0  0
    6.7506  -14.2558   20.2565 C   0  0  0  0  0  0  0  0  0  0  0  0
    6.9488  -15.1421   21.2909 C   0  0  0  0  0  0  0  0  0  0  0  0
    7.9200  -14.8785   22.2558 C   0  0  0  0  0  0  0  0  0  0  0  0
    8.0706  -15.8881   23.3244 C   0  0  0  0  0  0  0  0  0  0  0  0
    9.3859  -16.6341   23.2808 C   0  0  2  0  0  0  0  0  0  0  0  0
    9.5322  -17.4485   22.1100 N   0  0  0  0  0  0  0  0  0  0  0  0
    9.4294  -17.5147   24.4636 C   0  0  0  0  0  0  0  0  0  0  0  0
    8.6606  -18.5231   24.4535 O   0  0  0  0  0  0  0  0  0  0  0  0
    8.6533  -13.7251   22.1345 C   0  0  0  0  0  0  0  0  0  0  0  0
    8.4449  -12.8303   21.0806 C   0  0  0  0  0  0  0  0  0  0  0  0
   10.2484  -17.3289   25.5964 N   0  0  0  0  0  0  0  0  0  0  0  0
   10.2781  -18.3654   26.6028 C   0  0  1  0  0  0  0  0  0  0  0  0
   11.3706  -19.3763   26.3613 C   0  0  0  0  0  0  0  0  0  0  0  0
   12.9375  -18.4673   26.1154 S   0  0  0  0  0  0  0  0  0  0  0  0
   10.5073  -17.7228   27.9376 C   0  0  0  0  0  0  0  0  0  0  0  0
   10.7165  -16.5056   27.9824 O   0  0  0  0  0  0  0  0  0  0  0  0
   10.4856  -18.4758   29.1168 O   0  0  0  0  0  0  0  0  0  0  0  0
  2  1  1  6
  2  6  1  0
  3  2  1  0
  3  4  1  0
  4  5  2  0
  6 16  1  0
  6  7  2  0
  8  4  1  0
  9 10  1  0
 10 11  2  0
 11 12  1  0
 13 14  1  0
 13 12  2  0
 15 14  1  6
 15 17  1  0
 16 15  1  0
 17 18  2  0
 19 13  1  0
 20 19  2  0
 20 10  1  0
 21 17  1  0
 21 22  1  0
 22 25  1  0
 22 23  1  6
 24 23  1  0
 25 27  1  0
 26 25  2  0
M  END
$$$$
