DYC.pdb
     RDKit          3D

 27 27  0  0  1  0  0  0  0  0999 V2000
   11.7177  -17.1663   19.7505 N   0  0  0  0  0  0  0  0  0  0  0  0
   11.1924  -17.7203   20.9948 C   0  0  1  0  0  0  0  0  0  0  0  0
   12.2153  -18.6759   21.5820 C   0  0  0  0  0  0  0  0  0  0  0  0
   12.2940  -19.9298   20.8258 C   0  0  0  0  0  0  0  0  0  0  0  0
   11.6534  -20.0969   19.7714 O   0  0  0  0  0  0  0  0  0  0  0  0
   10.7867  -16.6533   21.9340 C   0  0  0  0  0  0  0  0  0  0  0  0
   11.5233  -15.6458   22.0722 O   0  0  0  0  0  0  0  0  0  0  0  0
   13.0968  -20.9521   21.2943 O   0  0  0  0  0  0  0  0  0  0  0  0
    6.0738  -11.4249   27.2463 O   0  0  0  0  0  0  0  0  0  0  0  0
    6.4287  -12.4899   26.4278 C   0  0  0  0  0  0  0  0  0  0  0  0
    7.1901  -12.2541   25.3001 C   0  0  0  0  0  0  0  0  0  0  0  0
    7.5746  -13.2642   24.4476 C   0  0  0  0  0  0  0  0  0  0  0  0
    7.1942  -14.5792   24.7116 C   0  0  0  0  0  0  0  0  0  0  0  0
    7.6587  -15.5998   23.7490 C   0  0  0  0  0  0  0  0  0  0  0  0
    9.1644  -15.7052   23.6476 C   0  0  2  0  0  0  0  0  0  0  0  0
    9.5968  -16.6942   22.7039 N   0  0  0  0  0  0  0  0  0  0  0  0
    9.6674  -16.0885   24.9805 C   0  0  0  0  0  0  0  0  0  0  0  0
    9.7693  -17.3301   25.2173 O   0  0  0  0  0  0  0  0  0  0  0  0
    6.4378  -14.8194   25.8310 C   0  0  0  0  0  0  0  0  0  0  0  0
    6.0515  -13.7871   26.6911 C   0  0  0  0  0  0  0  0  0  0  0  0
   10.0407  -15.1951   26.0057 N   0  0  0  0  0  0  0  0  0  0  0  0
   10.7561  -15.7167   27.1477 C   0  0  1  0  0  0  0  0  0  0  0  0
   11.2503  -14.6292   28.0680 C   0  0  0  0  0  0  0  0  0  0  0  0
    9.8399  -13.5326   28.4556 S   0  0  0  0  0  0  0  0  0  0  0  0
    9.8317  -16.6113   27.9173 C   0  0  0  0  0  0  0  0  0  0  0  0
    8.6360  -16.6383   27.6060 O   0  0  0  0  0  0  0  0  0  0  0  0
   10.3021  -17.4060   28.9685 O   0  0  0  0  0  0  0  0  0  0  0  0
  2  1  1  6
  2  6  1  0
  3  2  1  0
  3  4  1  0
  4  5  2  0
  6 16  1  0
  6  7  2  0
  8  4  1  0
  9 10  1  0
 10 11  2  0
 11 12  1  0
 13 14  1  0
 13 12  2  0
 15 14  1  1
 15 17  1  0
 16 15  1  0
 17 18  2  0
 19 13  1  0
 20 19  2  0
 20 10  1  0
 21 17  1  0
 21 22  1  0
 22 25  1  0
 22 23  1  1
 24 23  1  0
 25 27  1  0
 26 25  2  0
M  END
$$$$
