DYC.pdb
     RDKit          3D

 27 27  0  0  1  0  0  0  0  0999 V2000
    8.9539  -15.7295   19.0138 N   0  0  0  0  0  0  0  0  0  0  0  0
    8.2024  -16.1887   20.1779 C   0  0  1  0  0  0  0  0  0  0  0  0
    7.9279  -17.6749   20.0353 C   0  0  0  0  0  0  0  0  0  0  0  0
    9.1411  -18.4287   19.7030 C   0  0  0  0  0  0  0  0  0  0  0  0
    9.3876  -18.7863   18.5362 O   0  0  0  0  0  0  0  0  0  0  0  0
    8.8920  -15.8429   21.4388 C   0  0  0  0  0  0  0  0  0  0  0  0
   10.1403  -15.7072   21.4373 O   0  0  0  0  0  0  0  0  0  0  0  0
   10.0325  -18.7517   20.7080 O   0  0  0  0  0  0  0  0  0  0  0  0
   10.1382  -13.9432   30.0775 O   0  0  0  0  0  0  0  0  0  0  0  0
    9.5781  -14.1205   28.8186 C   0  0  0  0  0  0  0  0  0  0  0  0
    9.2218  -15.3898   28.4074 C   0  0  0  0  0  0  0  0  0  0  0  0
    8.6636  -15.6336   27.1730 C   0  0  0  0  0  0  0  0  0  0  0  0
    8.4402  -14.5778   26.2902 C   0  0  0  0  0  0  0  0  0  0  0  0
    7.8291  -14.9299   24.9916 C   0  0  0  0  0  0  0  0  0  0  0  0
    8.8336  -15.2984   23.9223 C   0  0  2  0  0  0  0  0  0  0  0  0
    8.2227  -15.6506   22.6739 N   0  0  0  0  0  0  0  0  0  0  0  0
    9.5869  -16.4680   24.4133 C   0  0  0  0  0  0  0  0  0  0  0  0
    9.0404  -17.6027   24.2652 O   0  0  0  0  0  0  0  0  0  0  0  0
    8.7921  -13.3144   26.6937 C   0  0  0  0  0  0  0  0  0  0  0  0
    9.3590  -13.0761   27.9493 C   0  0  0  0  0  0  0  0  0  0  0  0
   10.8545  -16.4289   25.0299 N   0  0  0  0  0  0  0  0  0  0  0  0
   11.5512  -17.6751   25.2527 C   0  0  1  0  0  0  0  0  0  0  0  0
   12.7572  -17.8320   24.3613 C   0  0  0  0  0  0  0  0  0  0  0  0
   13.7329  -16.2888   24.4535 S   0  0  0  0  0  0  0  0  0  0  0  0
   12.0036  -17.7157   26.6813 C   0  0  0  0  0  0  0  0  0  0  0  0
   11.7985  -16.7295   27.3972 O   0  0  0  0  0  0  0  0  0  0  0  0
   12.6452  -18.8432   27.2056 O   0  0  0  0  0  0  0  0  0  0  0  0
  2  1  1  6
  2  6  1  0
  3  2  1  0
  3  4  1  0
  4  5  2  0
  6 16  1  0
  6  7  2  0
  8  4  1  0
  9 10  1  0
 10 11  2  0
 11 12  1  0
 13 14  1  0
 13 12  2  0
 15 14  1  1
 15 17  1  0
 16 15  1  0
 17 18  2  0
 19 13  1  0
 20 19  2  0
 20 10  1  0
 21 17  1  0
 21 22  1  0
 22 25  1  0
 22 23  1  6
 24 23  1  0
 25 27  1  0
 26 25  2  0
M  END
$$$$
