DYC.pdb
     RDKit          3D

 27 27  0  0  1  0  0  0  0  0999 V2000
   10.9717  -16.9642   19.3557 N   0  0  0  0  0  0  0  0  0  0  0  0
    9.7254  -17.1660   20.0884 C   0  0  1  0  0  0  0  0  0  0  0  0
    9.4996  -18.6548   20.2806 C   0  0  0  0  0  0  0  0  0  0  0  0
   10.0022  -19.4380   19.1473 C   0  0  0  0  0  0  0  0  0  0  0  0
    9.6290  -20.6087   18.9468 O   0  0  0  0  0  0  0  0  0  0  0  0
    9.7139  -16.4074   21.3570 C   0  0  0  0  0  0  0  0  0  0  0  0
   10.7699  -16.3248   22.0313 O   0  0  0  0  0  0  0  0  0  0  0  0
   10.9132  -18.8648   18.2809 O   0  0  0  0  0  0  0  0  0  0  0  0
    6.7682  -11.7000   28.3178 O   0  0  0  0  0  0  0  0  0  0  0  0
    6.8329  -12.3776   27.1068 C   0  0  0  0  0  0  0  0  0  0  0  0
    7.5825  -11.8503   26.0737 C   0  0  0  0  0  0  0  0  0  0  0  0
    7.6873  -12.4709   24.8495 C   0  0  0  0  0  0  0  0  0  0  0  0
    7.0227  -13.6750   24.6213 C   0  0  0  0  0  0  0  0  0  0  0  0
    7.1984  -14.2750   23.2823 C   0  0  0  0  0  0  0  0  0  0  0  0
    8.4681  -15.0841   23.1359 C   0  0  2  0  0  0  0  0  0  0  0  0
    8.5657  -15.7541   21.8721 N   0  0  0  0  0  0  0  0  0  0  0  0
    8.4617  -16.1057   24.2003 C   0  0  0  0  0  0  0  0  0  0  0  0
    7.6815  -17.0925   24.0402 O   0  0  0  0  0  0  0  0  0  0  0  0
    6.2766  -14.2038   25.6444 C   0  0  0  0  0  0  0  0  0  0  0  0
    6.1754  -13.5662   26.8846 C   0  0  0  0  0  0  0  0  0  0  0  0
    9.2448  -16.0754   25.3726 N   0  0  0  0  0  0  0  0  0  0  0  0
    9.1999  -17.2143   26.2609 C   0  0  1  0  0  0  0  0  0  0  0  0
    9.9102  -18.4183   25.6955 C   0  0  0  0  0  0  0  0  0  0  0  0
   11.5980  -17.9053   25.2159 S   0  0  0  0  0  0  0  0  0  0  0  0
    9.8581  -16.8334   27.5528 C   0  0  0  0  0  0  0  0  0  0  0  0
   10.3658  -15.7110   27.6519 O   0  0  0  0  0  0  0  0  0  0  0  0
    9.9016  -17.7221   28.6326 O   0  0  0  0  0  0  0  0  0  0  0  0
  2  1  1  1
  2  6  1  0
  3  2  1  0
  3  4  1  0
  4  5  2  0
  6 16  1  0
  6  7  2  0
  8  4  1  0
  9 10  1  0
 10 11  2  0
 11 12  1  0
 13 14  1  0
 13 12  2  0
 15 14  1  6
 15 17  1  0
 16 15  1  0
 17 18  2  0
 19 13  1  0
 20 19  2  0
 20 10  1  0
 21 17  1  0
 21 22  1  0
 22 25  1  0
 22 23  1  6
 24 23  1  0
 25 27  1  0
 26 25  2  0
M  END
$$$$
