DMR.pdb
     RDKit          3D

 28 27  0  0  1  0  0  0  0  0999 V2000
   20.6245  -19.8929  -10.3627 N   0  0  0  0  0  0  0  0  0  0  0  0
   21.6165  -20.9178  -10.3949 C   0  0  1  0  0  0  0  0  0  0  0  0
   21.3165  -21.8771  -11.5043 C   0  0  0  0  0  0  0  0  0  0  0  0
   19.9761  -22.4738  -11.4174 C   0  0  0  0  0  0  0  0  0  0  0  0
   19.2199  -22.5957  -12.4114 O   0  0  0  0  0  0  0  0  0  0  0  0
   22.9970  -20.3976  -10.4360 C   0  0  0  0  0  0  0  0  0  0  0  0
   23.3983  -19.6029  -11.3545 O   0  0  0  0  0  0  0  0  0  0  0  0
   19.5154  -22.9252  -10.1913 O   0  0  0  0  0  0  0  0  0  0  0  0
   26.5398  -19.7069   -5.3359 C   0  0  0  0  0  0  0  0  0  0  0  0
   27.8459  -19.7736   -6.5810 S   0  0  0  0  0  0  0  0  0  0  0  0
   27.3710  -20.8009   -7.9912 C   0  0  0  0  0  0  0  0  0  0  0  0
   25.9190  -20.8406   -8.2317 C   0  0  0  0  0  0  0  0  0  0  0  0
   25.3651  -20.3416   -9.5121 C   0  0  2  0  0  0  0  0  0  0  0  0
   23.9324  -20.7556   -9.4628 N   0  0  0  0  0  0  0  0  0  0  0  0
   25.9750  -20.7403  -10.7588 C   0  0  0  0  0  0  0  0  0  0  0  0
   25.8165  -21.9304  -11.2169 O   0  0  0  0  0  0  0  0  0  0  0  0
   27.9889  -20.3112  -18.5210 N   0  0  0  0  0  0  0  0  0  0  0  0
   26.8383  -19.5032  -18.3618 C   0  0  0  0  0  0  0  0  0  0  0  0
   25.8755  -19.4838  -19.2391 N   0  0  0  0  0  0  0  0  0  0  0  0
   26.6611  -18.6536  -17.2202 N   0  0  0  0  0  0  0  0  0  0  0  0
   27.6407  -18.6217  -16.1790 C   0  0  0  0  0  0  0  0  0  0  0  0
   27.4954  -19.7749  -15.2093 C   0  0  0  0  0  0  0  0  0  0  0  0
   27.5148  -19.2719  -13.7882 C   0  0  0  0  0  0  0  0  0  0  0  0
   27.3845  -20.4553  -12.8038 C   0  0  2  0  0  0  0  0  0  0  0  0
   26.7820  -19.8942  -11.6011 N   0  0  0  0  0  0  0  0  0  0  0  0
   28.7352  -20.9501  -12.5143 C   0  0  0  0  0  0  0  0  0  0  0  0
   29.3431  -22.0339  -13.1092 O   0  0  0  0  0  0  0  0  0  0  0  0
   29.4045  -20.3185  -11.6292 O   0  0  0  0  0  0  0  0  0  0  0  0
  2  1  1  6
  2  3  1  0
  3  4  1  0
  4  8  1  0
  5  4  2  0
  6  2  1  0
  7  6  2  0
  9 10  1  0
 10 11  1  0
 11 12  1  0
 13 12  1  1
 13 14  1  0
 14  6  1  0
 15 25  1  0
 15 13  1  0
 16 15  2  0
 18 17  1  0
 18 19  2  0
 20 18  1  0
 21 20  1  0
 21 22  1  0
 23 22  1  0
 24 23  1  6
 24 25  1  0
 26 27  1  0
 26 24  1  0
 28 26  2  0
M  END
$$$$
