DMR.pdb
     RDKit          3D

 28 27  0  0  1  0  0  0  0  0999 V2000
   20.2455  -20.4113  -14.5355 N   0  0  0  0  0  0  0  0  0  0  0  0
   21.4288  -21.0103  -14.0096 C   0  0  1  0  0  0  0  0  0  0  0  0
   21.1261  -22.3983  -13.5378 C   0  0  0  0  0  0  0  0  0  0  0  0
   20.4973  -22.4426  -12.2101 C   0  0  0  0  0  0  0  0  0  0  0  0
   20.1714  -21.4093  -11.5769 O   0  0  0  0  0  0  0  0  0  0  0  0
   22.5780  -20.9498  -14.9336 C   0  0  0  0  0  0  0  0  0  0  0  0
   22.5997  -21.5972  -16.0366 O   0  0  0  0  0  0  0  0  0  0  0  0
   20.2481  -23.6713  -11.6208 O   0  0  0  0  0  0  0  0  0  0  0  0
   28.1418  -15.7460  -16.8400 C   0  0  0  0  0  0  0  0  0  0  0  0
   26.7334  -16.3356  -15.8759 S   0  0  0  0  0  0  0  0  0  0  0  0
   26.4251  -18.0955  -16.1535 C   0  0  0  0  0  0  0  0  0  0  0  0
   25.2648  -18.6169  -15.4122 C   0  0  0  0  0  0  0  0  0  0  0  0
   24.8665  -20.0363  -15.5604 C   0  0  2  0  0  0  0  0  0  0  0  0
   23.7015  -20.1746  -14.6384 N   0  0  0  0  0  0  0  0  0  0  0  0
   25.8369  -21.0796  -15.3262 C   0  0  0  0  0  0  0  0  0  0  0  0
   26.4527  -21.1639  -14.2015 O   0  0  0  0  0  0  0  0  0  0  0  0
   23.2843  -25.7746  -16.8102 N   0  0  0  0  0  0  0  0  0  0  0  0
   24.2077  -26.6010  -17.4932 C   0  0  0  0  0  0  0  0  0  0  0  0
   23.8735  -27.2988  -18.5412 N   0  0  0  0  0  0  0  0  0  0  0  0
   25.5733  -26.7207  -17.0720 N   0  0  0  0  0  0  0  0  0  0  0  0
   26.0546  -25.9798  -15.9477 C   0  0  0  0  0  0  0  0  0  0  0  0
   27.4233  -25.3805  -16.1898 C   0  0  0  0  0  0  0  0  0  0  0  0
   27.3047  -24.1025  -16.9808 C   0  0  0  0  0  0  0  0  0  0  0  0
   27.4149  -22.8827  -16.0393 C   0  0  2  0  0  0  0  0  0  0  0  0
   26.2043  -22.1047  -16.2700 N   0  0  0  0  0  0  0  0  0  0  0  0
   28.5992  -22.1132  -16.4372 C   0  0  0  0  0  0  0  0  0  0  0  0
   28.6236  -21.0842  -17.3531 O   0  0  0  0  0  0  0  0  0  0  0  0
   29.7061  -22.4293  -15.8847 O   0  0  0  0  0  0  0  0  0  0  0  0
  2  1  1  6
  2  3  1  0
  3  4  1  0
  4  8  1  0
  5  4  2  0
  6  2  1  0
  7  6  2  0
  9 10  1  0
 10 11  1  0
 11 12  1  0
 13 12  1  1
 13 14  1  0
 14  6  1  0
 15 25  1  0
 15 13  1  0
 16 15  2  0
 18 17  1  0
 18 19  2  0
 20 18  1  0
 21 20  1  0
 21 22  1  0
 23 22  1  0
 24 23  1  6
 24 25  1  0
 26 27  1  0
 26 24  1  0
 28 26  2  0
M  END
$$$$
