DMR.pdb
     RDKit          3D

 28 27  0  0  1  0  0  0  0  0999 V2000
   27.8054  -20.2254  -14.7510 N   0  0  0  0  0  0  0  0  0  0  0  0
   27.0071  -21.4038  -14.8484 C   0  0  1  0  0  0  0  0  0  0  0  0
   27.8863  -22.5921  -15.0852 C   0  0  0  0  0  0  0  0  0  0  0  0
   28.6213  -22.5338  -16.3567 C   0  0  0  0  0  0  0  0  0  0  0  0
   29.2190  -21.5030  -16.7504 O   0  0  0  0  0  0  0  0  0  0  0  0
   26.0840  -21.5833  -13.7109 C   0  0  0  0  0  0  0  0  0  0  0  0
   25.1686  -22.4767  -13.7111 O   0  0  0  0  0  0  0  0  0  0  0  0
   28.6641  -23.6582  -17.1648 O   0  0  0  0  0  0  0  0  0  0  0  0
   26.4856  -20.6292   -6.0514 C   0  0  0  0  0  0  0  0  0  0  0  0
   26.7231  -19.9089   -7.6902 S   0  0  0  0  0  0  0  0  0  0  0  0
   25.7669  -20.7864   -8.9492 C   0  0  0  0  0  0  0  0  0  0  0  0
   25.9438  -20.2480  -10.3082 C   0  0  0  0  0  0  0  0  0  0  0  0
   25.2017  -20.8429  -11.4442 C   0  0  2  0  0  0  0  0  0  0  0  0
   26.1730  -20.7759  -12.5749 N   0  0  0  0  0  0  0  0  0  0  0  0
   23.9228  -20.2936  -11.8291 C   0  0  0  0  0  0  0  0  0  0  0  0
   23.8536  -19.2281  -12.5440 O   0  0  0  0  0  0  0  0  0  0  0  0
   19.8258  -24.8526  -14.0526 N   0  0  0  0  0  0  0  0  0  0  0  0
   19.6799  -24.3489  -15.3668 C   0  0  0  0  0  0  0  0  0  0  0  0
   18.7690  -24.7941  -16.1848 N   0  0  0  0  0  0  0  0  0  0  0  0
   20.5288  -23.3133  -15.8801 N   0  0  0  0  0  0  0  0  0  0  0  0
   21.4808  -22.6669  -15.0314 C   0  0  0  0  0  0  0  0  0  0  0  0
   20.8293  -21.9487  -13.8690 C   0  0  0  0  0  0  0  0  0  0  0  0
   21.5345  -20.6445  -13.5955 C   0  0  0  0  0  0  0  0  0  0  0  0
   21.4370  -20.2923  -12.0945 C   0  0  2  0  0  0  0  0  0  0  0  0
   22.6385  -20.8502  -11.4868 N   0  0  0  0  0  0  0  0  0  0  0  0
   20.2408  -20.9490  -11.5554 C   0  0  0  0  0  0  0  0  0  0  0  0
   18.9415  -20.5204  -11.7180 O   0  0  0  0  0  0  0  0  0  0  0  0
   20.4235  -22.0123  -10.8726 O   0  0  0  0  0  0  0  0  0  0  0  0
  2  1  1  1
  2  3  1  0
  3  4  1  0
  4  8  1  0
  5  4  2  0
  6  2  1  0
  7  6  2  0
  9 10  1  0
 10 11  1  0
 11 12  1  0
 13 12  1  1
 13 14  1  0
 14  6  1  0
 15 25  1  0
 15 13  1  0
 16 15  2  0
 18 17  1  0
 18 19  2  0
 20 18  1  0
 21 20  1  0
 21 22  1  0
 23 22  1  0
 24 23  1  6
 24 25  1  0
 26 27  1  0
 26 24  1  0
 28 26  2  0
M  END
$$$$
