DMR.pdb
     RDKit          3D

 28 27  0  0  1  0  0  0  0  0999 V2000
   28.1583  -19.7380  -14.8134 N   0  0  0  0  0  0  0  0  0  0  0  0
   27.6036  -20.9280  -15.3719 C   0  0  1  0  0  0  0  0  0  0  0  0
   28.7008  -21.8933  -15.6963 C   0  0  0  0  0  0  0  0  0  0  0  0
   29.4247  -21.5648  -16.9325 C   0  0  0  0  0  0  0  0  0  0  0  0
   29.1495  -20.5630  -17.6363 O   0  0  0  0  0  0  0  0  0  0  0  0
   26.5348  -21.5216  -14.5452 C   0  0  0  0  0  0  0  0  0  0  0  0
   25.9029  -22.5748  -14.9027 O   0  0  0  0  0  0  0  0  0  0  0  0
   30.4574  -22.3884  -17.3501 O   0  0  0  0  0  0  0  0  0  0  0  0
   25.5701  -20.3745   -8.0486 C   0  0  0  0  0  0  0  0  0  0  0  0
   27.0291  -21.1690   -8.7565 S   0  0  0  0  0  0  0  0  0  0  0  0
   26.7270  -21.7324  -10.4478 C   0  0  0  0  0  0  0  0  0  0  0  0
   25.5473  -21.1141  -11.0755 C   0  0  0  0  0  0  0  0  0  0  0  0
   25.1223  -21.5343  -12.4312 C   0  0  2  0  0  0  0  0  0  0  0  0
   26.1651  -20.9515  -13.3252 N   0  0  0  0  0  0  0  0  0  0  0  0
   23.7971  -21.2036  -12.8998 C   0  0  0  0  0  0  0  0  0  0  0  0
   23.5409  -20.0388  -13.3780 O   0  0  0  0  0  0  0  0  0  0  0  0
   17.6528  -26.7708  -14.7195 N   0  0  0  0  0  0  0  0  0  0  0  0
   18.8004  -26.2433  -15.3573 C   0  0  0  0  0  0  0  0  0  0  0  0
   19.4156  -26.8758  -16.3157 N   0  0  0  0  0  0  0  0  0  0  0  0
   19.3579  -24.9752  -14.9864 N   0  0  0  0  0  0  0  0  0  0  0  0
   18.5069  -23.8589  -14.7144 C   0  0  0  0  0  0  0  0  0  0  0  0
   19.2844  -22.5968  -14.4082 C   0  0  0  0  0  0  0  0  0  0  0  0
   20.6436  -22.9389  -13.8528 C   0  0  0  0  0  0  0  0  0  0  0  0
   21.4072  -21.6477  -13.4835 C   0  0  2  0  0  0  0  0  0  0  0  0
   22.6651  -22.0953  -12.8991 N   0  0  0  0  0  0  0  0  0  0  0  0
   20.6105  -20.9239  -12.4863 C   0  0  0  0  0  0  0  0  0  0  0  0
   20.8961  -20.8241  -11.1422 O   0  0  0  0  0  0  0  0  0  0  0  0
   19.5570  -20.3361  -12.9045 O   0  0  0  0  0  0  0  0  0  0  0  0
  2  1  1  1
  2  3  1  0
  3  4  1  0
  4  8  1  0
  5  4  2  0
  6  2  1  0
  7  6  2  0
  9 10  1  0
 10 11  1  0
 11 12  1  0
 13 12  1  1
 13 14  1  0
 14  6  1  0
 15 25  1  0
 15 13  1  0
 16 15  2  0
 18 17  1  0
 18 19  2  0
 20 18  1  0
 21 20  1  0
 21 22  1  0
 23 22  1  0
 24 23  1  1
 24 25  1  0
 26 27  1  0
 26 24  1  0
 28 26  2  0
M  END
$$$$
