DMR.pdb
     RDKit          3D

 28 27  0  0  1  0  0  0  0  0999 V2000
   27.7962  -18.8281  -13.8395 N   0  0  0  0  0  0  0  0  0  0  0  0
   27.0392  -19.9175  -14.3648 C   0  0  1  0  0  0  0  0  0  0  0  0
   27.8876  -20.7158  -15.3050 C   0  0  0  0  0  0  0  0  0  0  0  0
   28.4494  -19.9214  -16.4066 C   0  0  0  0  0  0  0  0  0  0  0  0
   28.2899  -18.6802  -16.5006 O   0  0  0  0  0  0  0  0  0  0  0  0
   26.3955  -20.7414  -13.3232 C   0  0  0  0  0  0  0  0  0  0  0  0
   25.8030  -21.8420  -13.5950 O   0  0  0  0  0  0  0  0  0  0  0  0
   29.1887  -20.5577  -17.3902 O   0  0  0  0  0  0  0  0  0  0  0  0
   27.6999  -19.1317   -6.8905 C   0  0  0  0  0  0  0  0  0  0  0  0
   27.1429  -20.8453   -7.0083 S   0  0  0  0  0  0  0  0  0  0  0  0
   25.9437  -21.0665   -8.3432 C   0  0  0  0  0  0  0  0  0  0  0  0
   26.4578  -20.6860   -9.6694 C   0  0  0  0  0  0  0  0  0  0  0  0
   25.7542  -21.1330  -10.8942 C   0  0  2  0  0  0  0  0  0  0  0  0
   26.4068  -20.3488  -11.9830 N   0  0  0  0  0  0  0  0  0  0  0  0
   24.3162  -21.0266  -10.9720 C   0  0  0  0  0  0  0  0  0  0  0  0
   23.5838  -22.0778  -11.0707 O   0  0  0  0  0  0  0  0  0  0  0  0
   22.5017  -21.2226  -18.3083 N   0  0  0  0  0  0  0  0  0  0  0  0
   21.2269  -20.8351  -17.8321 C   0  0  0  0  0  0  0  0  0  0  0  0
   20.1812  -20.7839  -18.6073 N   0  0  0  0  0  0  0  0  0  0  0  0
   21.0075  -20.4743  -16.4616 N   0  0  0  0  0  0  0  0  0  0  0  0
   22.0931  -20.4599  -15.5311 C   0  0  0  0  0  0  0  0  0  0  0  0
   21.6484  -20.1191  -14.1250 C   0  0  0  0  0  0  0  0  0  0  0  0
   22.8328  -20.0868  -13.1928 C   0  0  0  0  0  0  0  0  0  0  0  0
   22.3837  -19.6604  -11.7775 C   0  0  2  0  0  0  0  0  0  0  0  0
   23.5675  -19.7958  -10.9382 N   0  0  0  0  0  0  0  0  0  0  0  0
   21.3379  -20.5911  -11.3382 C   0  0  0  0  0  0  0  0  0  0  0  0
   21.4968  -21.6139  -10.4289 O   0  0  0  0  0  0  0  0  0  0  0  0
   20.1772  -20.4382  -11.8478 O   0  0  0  0  0  0  0  0  0  0  0  0
  2  1  1  1
  2  3  1  0
  3  4  1  0
  4  8  1  0
  5  4  2  0
  6  2  1  0
  7  6  2  0
  9 10  1  0
 10 11  1  0
 11 12  1  0
 13 12  1  1
 13 14  1  0
 14  6  1  0
 15 25  1  0
 15 13  1  0
 16 15  2  0
 18 17  1  0
 18 19  2  0
 20 18  1  0
 21 20  1  0
 21 22  1  0
 23 22  1  0
 24 23  1  6
 24 25  1  0
 26 27  1  0
 26 24  1  0
 28 26  2  0
M  END
$$$$
