DMR.pdb
     RDKit          3D

 28 27  0  0  1  0  0  0  0  0999 V2000
   21.1797  -18.7919  -16.6128 N   0  0  0  0  0  0  0  0  0  0  0  0
   21.4786  -18.0970  -15.4032 C   0  0  1  0  0  0  0  0  0  0  0  0
   21.7351  -19.0812  -14.3047 C   0  0  0  0  0  0  0  0  0  0  0  0
   20.6130  -20.0002  -14.0668 C   0  0  0  0  0  0  0  0  0  0  0  0
   19.5388  -19.9441  -14.7131 O   0  0  0  0  0  0  0  0  0  0  0  0
   22.5557  -17.0988  -15.5503 C   0  0  0  0  0  0  0  0  0  0  0  0
   22.9929  -16.4177  -14.5597 O   0  0  0  0  0  0  0  0  0  0  0  0
   20.7333  -20.9751  -13.0899 O   0  0  0  0  0  0  0  0  0  0  0  0
   28.9326  -18.0708  -17.0141 C   0  0  0  0  0  0  0  0  0  0  0  0
   27.8025  -16.8455  -17.7085 S   0  0  0  0  0  0  0  0  0  0  0  0
   26.0749  -17.2812  -17.4002 C   0  0  0  0  0  0  0  0  0  0  0  0
   25.1136  -16.3006  -17.9314 C   0  0  0  0  0  0  0  0  0  0  0  0
   24.0814  -15.7173  -17.0429 C   0  0  2  0  0  0  0  0  0  0  0  0
   23.1484  -16.8541  -16.7908 N   0  0  0  0  0  0  0  0  0  0  0  0
   23.3588  -14.5398  -17.4631 C   0  0  0  0  0  0  0  0  0  0  0  0
   23.9827  -13.4543  -17.7526 O   0  0  0  0  0  0  0  0  0  0  0  0
   14.6691  -12.8986  -18.6827 N   0  0  0  0  0  0  0  0  0  0  0  0
   15.3692  -12.5777  -19.8696 C   0  0  0  0  0  0  0  0  0  0  0  0
   14.7607  -12.1727  -20.9479 N   0  0  0  0  0  0  0  0  0  0  0  0
   16.7970  -12.6785  -19.9580 N   0  0  0  0  0  0  0  0  0  0  0  0
   17.5682  -13.0858  -18.8249 C   0  0  0  0  0  0  0  0  0  0  0  0
   19.0586  -12.9984  -19.0750 C   0  0  0  0  0  0  0  0  0  0  0  0
   19.8225  -13.3389  -17.8206 C   0  0  0  0  0  0  0  0  0  0  0  0
   21.3407  -13.1937  -18.0671 C   0  0  2  0  0  0  0  0  0  0  0  0
   21.9286  -14.4474  -17.6122 N   0  0  0  0  0  0  0  0  0  0  0  0
   21.8244  -12.0767  -17.2479 C   0  0  0  0  0  0  0  0  0  0  0  0
   22.0100  -10.7809  -17.6776 O   0  0  0  0  0  0  0  0  0  0  0  0
   22.0993  -12.3320  -16.0273 O   0  0  0  0  0  0  0  0  0  0  0  0
  2  1  1  6
  2  3  1  0
  3  4  1  0
  4  8  1  0
  5  4  2  0
  6  2  1  0
  7  6  2  0
  9 10  1  0
 10 11  1  0
 11 12  1  0
 13 12  1  6
 13 14  1  0
 14  6  1  0
 15 25  1  0
 15 13  1  0
 16 15  2  0
 18 17  1  0
 18 19  2  0
 20 18  1  0
 21 20  1  0
 21 22  1  0
 23 22  1  0
 24 23  1  1
 24 25  1  0
 26 27  1  0
 26 24  1  0
 28 26  2  0
M  END
$$$$
