DMR.pdb
     RDKit          3D

 28 27  0  0  1  0  0  0  0  0999 V2000
   28.6990  -21.5754  -14.0027 N   0  0  0  0  0  0  0  0  0  0  0  0
   28.1386  -20.5704  -13.1593 C   0  0  1  0  0  0  0  0  0  0  0  0
   27.2357  -19.6844  -13.9598 C   0  0  0  0  0  0  0  0  0  0  0  0
   27.9308  -18.9462  -15.0238 C   0  0  0  0  0  0  0  0  0  0  0  0
   29.1558  -19.0838  -15.2587 O   0  0  0  0  0  0  0  0  0  0  0  0
   27.4932  -21.1133  -11.9482 C   0  0  0  0  0  0  0  0  0  0  0  0
   26.7750  -22.1715  -11.9754 O   0  0  0  0  0  0  0  0  0  0  0  0
   27.2146  -18.0571  -15.8085 O   0  0  0  0  0  0  0  0  0  0  0  0
   29.2379  -20.5567   -5.5997 C   0  0  0  0  0  0  0  0  0  0  0  0
   27.7611  -19.5294   -5.7564 S   0  0  0  0  0  0  0  0  0  0  0  0
   26.6966  -20.0932   -7.1048 C   0  0  0  0  0  0  0  0  0  0  0  0
   27.3780  -20.1591   -8.4084 C   0  0  0  0  0  0  0  0  0  0  0  0
   26.6315  -20.5855   -9.6151 C   0  0  2  0  0  0  0  0  0  0  0  0
   27.6416  -20.4871  -10.7088 N   0  0  0  0  0  0  0  0  0  0  0  0
   25.4101  -19.9059   -9.9776 C   0  0  0  0  0  0  0  0  0  0  0  0
   25.4394  -18.8373  -10.6908 O   0  0  0  0  0  0  0  0  0  0  0  0
   20.4459  -23.7678  -14.0895 N   0  0  0  0  0  0  0  0  0  0  0  0
   20.4763  -22.6748  -14.9875 C   0  0  0  0  0  0  0  0  0  0  0  0
   19.5148  -22.4450  -15.8358 N   0  0  0  0  0  0  0  0  0  0  0  0
   21.5714  -21.7494  -15.0180 N   0  0  0  0  0  0  0  0  0  0  0  0
   22.5856  -21.7902  -14.0109 C   0  0  0  0  0  0  0  0  0  0  0  0
   22.2078  -21.0039  -12.7739 C   0  0  0  0  0  0  0  0  0  0  0  0
   23.3229  -21.0512  -11.7604 C   0  0  0  0  0  0  0  0  0  0  0  0
   22.9901  -20.1362  -10.5610 C   0  0  2  0  0  0  0  0  0  0  0  0
   24.0810  -20.3273   -9.6136 N   0  0  0  0  0  0  0  0  0  0  0  0
   21.7240  -20.5982   -9.9808 C   0  0  0  0  0  0  0  0  0  0  0  0
   20.4787  -20.0644  -10.2305 O   0  0  0  0  0  0  0  0  0  0  0  0
   21.7852  -21.5828   -9.1700 O   0  0  0  0  0  0  0  0  0  0  0  0
  2  1  1  6
  2  3  1  0
  3  4  1  0
  4  8  1  0
  5  4  2  0
  6  2  1  0
  7  6  2  0
  9 10  1  0
 10 11  1  0
 11 12  1  0
 13 12  1  1
 13 14  1  0
 14  6  1  0
 15 25  1  0
 15 13  1  0
 16 15  2  0
 18 17  1  0
 18 19  2  0
 20 18  1  0
 21 20  1  0
 21 22  1  0
 23 22  1  0
 24 23  1  6
 24 25  1  0
 26 27  1  0
 26 24  1  0
 28 26  2  0
M  END
$$$$
