DMR.pdb
     RDKit          3D

 28 27  0  0  1  0  0  0  0  0999 V2000
   20.9826  -19.5622  -13.0483 N   0  0  0  0  0  0  0  0  0  0  0  0
   21.6955  -20.5172  -12.2640 C   0  0  1  0  0  0  0  0  0  0  0  0
   21.4009  -21.8990  -12.7589 C   0  0  0  0  0  0  0  0  0  0  0  0
   20.0129  -22.3222  -12.5254 C   0  0  0  0  0  0  0  0  0  0  0  0
   19.6033  -23.4811  -12.7783 O   0  0  0  0  0  0  0  0  0  0  0  0
   23.1403  -20.2333  -12.1635 C   0  0  0  0  0  0  0  0  0  0  0  0
   23.8094  -19.7517  -13.1416 O   0  0  0  0  0  0  0  0  0  0  0  0
   19.1076  -21.4124  -12.0041 O   0  0  0  0  0  0  0  0  0  0  0  0
   26.8314  -18.7502   -6.6590 C   0  0  0  0  0  0  0  0  0  0  0  0
   27.1313  -20.4610   -7.1527 S   0  0  0  0  0  0  0  0  0  0  0  0
   26.9756  -20.6760   -8.9412 C   0  0  0  0  0  0  0  0  0  0  0  0
   25.5903  -20.5783   -9.4304 C   0  0  0  0  0  0  0  0  0  0  0  0
   25.3263  -20.3498  -10.8703 C   0  0  2  0  0  0  0  0  0  0  0  0
   23.8443  -20.4814  -10.9832 N   0  0  0  0  0  0  0  0  0  0  0  0
   25.9938  -21.1649  -11.8578 C   0  0  0  0  0  0  0  0  0  0  0  0
   25.8100  -22.4362  -11.8935 O   0  0  0  0  0  0  0  0  0  0  0  0
   26.5291  -25.9555  -17.1476 N   0  0  0  0  0  0  0  0  0  0  0  0
   25.3251  -25.9221  -16.4051 C   0  0  0  0  0  0  0  0  0  0  0  0
   24.7263  -27.0067  -16.0023 N   0  0  0  0  0  0  0  0  0  0  0  0
   24.6886  -24.6875  -16.0488 N   0  0  0  0  0  0  0  0  0  0  0  0
   25.2095  -23.4402  -16.5153 C   0  0  0  0  0  0  0  0  0  0  0  0
   26.4492  -23.0100  -15.7608 C   0  0  0  0  0  0  0  0  0  0  0  0
   26.0819  -22.0756  -14.6362 C   0  0  0  0  0  0  0  0  0  0  0  0
   27.3565  -21.5913  -13.9099 C   0  0  2  0  0  0  0  0  0  0  0  0
   26.8893  -20.6767  -12.8758 N   0  0  0  0  0  0  0  0  0  0  0  0
   28.1861  -20.8762  -14.8862 C   0  0  0  0  0  0  0  0  0  0  0  0
   27.9569  -19.6041  -15.3632 O   0  0  0  0  0  0  0  0  0  0  0  0
   29.2113  -21.4916  -15.3341 O   0  0  0  0  0  0  0  0  0  0  0  0
  2  1  1  6
  2  3  1  0
  3  4  1  0
  4  8  1  0
  5  4  2  0
  6  2  1  0
  7  6  2  0
  9 10  1  0
 10 11  1  0
 11 12  1  0
 13 12  1  1
 13 14  1  0
 14  6  1  0
 15 25  1  0
 15 13  1  0
 16 15  2  0
 18 17  1  0
 18 19  2  0
 20 18  1  0
 21 20  1  0
 21 22  1  0
 23 22  1  0
 24 23  1  6
 24 25  1  0
 26 27  1  0
 26 24  1  0
 28 26  2  0
M  END
$$$$
