DMR.pdb
     RDKit          3D

 28 27  0  0  1  0  0  0  0  0999 V2000
   27.8248  -19.7834  -17.3462 N   0  0  0  0  0  0  0  0  0  0  0  0
   27.8719  -21.1828  -17.0724 C   0  0  1  0  0  0  0  0  0  0  0  0
   29.2900  -21.6600  -17.1210 C   0  0  0  0  0  0  0  0  0  0  0  0
   29.8352  -21.7411  -18.4835 C   0  0  0  0  0  0  0  0  0  0  0  0
   29.1738  -21.4220  -19.5011 O   0  0  0  0  0  0  0  0  0  0  0  0
   27.1753  -21.5612  -15.8275 C   0  0  0  0  0  0  0  0  0  0  0  0
   27.0938  -22.7760  -15.4350 O   0  0  0  0  0  0  0  0  0  0  0  0
   31.1339  -22.1875  -18.6663 O   0  0  0  0  0  0  0  0  0  0  0  0
   25.0856  -21.1234   -8.8211 C   0  0  0  0  0  0  0  0  0  0  0  0
   26.0486  -21.2501  -10.3434 S   0  0  0  0  0  0  0  0  0  0  0  0
   25.7339  -19.8550  -11.4497 C   0  0  0  0  0  0  0  0  0  0  0  0
   26.3751  -19.9893  -12.7682 C   0  0  0  0  0  0  0  0  0  0  0  0
   25.8212  -20.9295  -13.7704 C   0  0  2  0  0  0  0  0  0  0  0  0
   26.5697  -20.5979  -15.0179 N   0  0  0  0  0  0  0  0  0  0  0  0
   24.3982  -20.9580  -14.0143 C   0  0  0  0  0  0  0  0  0  0  0  0
   23.8206  -20.0003  -14.6471 O   0  0  0  0  0  0  0  0  0  0  0  0
   18.1261  -27.2119  -13.6378 N   0  0  0  0  0  0  0  0  0  0  0  0
   19.1411  -26.8114  -14.5387 C   0  0  0  0  0  0  0  0  0  0  0  0
   19.6790  -27.6364  -15.3914 N   0  0  0  0  0  0  0  0  0  0  0  0
   19.6407  -25.4676  -14.5686 N   0  0  0  0  0  0  0  0  0  0  0  0
   19.3592  -24.5637  -13.4970 C   0  0  0  0  0  0  0  0  0  0  0  0
   19.9613  -23.1929  -13.7201 C   0  0  0  0  0  0  0  0  0  0  0  0
   21.4647  -23.2583  -13.6284 C   0  0  0  0  0  0  0  0  0  0  0  0
   22.0709  -21.8510  -13.8256 C   0  0  2  0  0  0  0  0  0  0  0  0
   23.5032  -22.0125  -13.6101 N   0  0  0  0  0  0  0  0  0  0  0  0
   21.4978  -20.9675  -12.8039 C   0  0  0  0  0  0  0  0  0  0  0  0
   21.8095  -20.9758  -11.4619 O   0  0  0  0  0  0  0  0  0  0  0  0
   20.6306  -20.1164  -13.1965 O   0  0  0  0  0  0  0  0  0  0  0  0
  2  1  1  1
  2  3  1  0
  3  4  1  0
  4  8  1  0
  5  4  2  0
  6  2  1  0
  7  6  2  0
  9 10  1  0
 10 11  1  0
 11 12  1  0
 13 12  1  1
 13 14  1  0
 14  6  1  0
 15 25  1  0
 15 13  1  0
 16 15  2  0
 18 17  1  0
 18 19  2  0
 20 18  1  0
 21 20  1  0
 21 22  1  0
 23 22  1  0
 24 23  1  1
 24 25  1  0
 26 27  1  0
 26 24  1  0
 28 26  2  0
M  END
$$$$
