DMR.pdb
     RDKit          3D

 28 27  0  0  1  0  0  0  0  0999 V2000
   21.8265  -13.3485  -18.7408 N   0  0  0  0  0  0  0  0  0  0  0  0
   21.2990  -13.3124  -17.4157 C   0  0  1  0  0  0  0  0  0  0  0  0
   21.3330  -14.6855  -16.8203 C   0  0  0  0  0  0  0  0  0  0  0  0
   20.4174  -15.6312  -17.4743 C   0  0  0  0  0  0  0  0  0  0  0  0
   19.7849  -15.3521  -18.5216 O   0  0  0  0  0  0  0  0  0  0  0  0
   21.9346  -12.2930  -16.5584 C   0  0  0  0  0  0  0  0  0  0  0  0
   21.5662  -12.0939  -15.3497 O   0  0  0  0  0  0  0  0  0  0  0  0
   20.2357  -16.8882  -16.9211 O   0  0  0  0  0  0  0  0  0  0  0  0
   28.3837  -12.8029  -15.2838 C   0  0  0  0  0  0  0  0  0  0  0  0
   27.3986  -11.3072  -15.5142 S   0  0  0  0  0  0  0  0  0  0  0  0
   25.8394  -11.6592  -16.3595 C   0  0  0  0  0  0  0  0  0  0  0  0
   25.0346  -10.4587  -16.6403 C   0  0  0  0  0  0  0  0  0  0  0  0
   23.6105  -10.4086  -16.2347 C   0  0  2  0  0  0  0  0  0  0  0  0
   22.9760  -11.4950  -17.0368 N   0  0  0  0  0  0  0  0  0  0  0  0
   22.8732   -9.1737  -16.3637 C   0  0  0  0  0  0  0  0  0  0  0  0
   22.8182   -8.5557  -17.4890 O   0  0  0  0  0  0  0  0  0  0  0  0
   14.6862   -7.1492  -15.6532 N   0  0  0  0  0  0  0  0  0  0  0  0
   15.2964   -5.9745  -16.1532 C   0  0  0  0  0  0  0  0  0  0  0  0
   14.6023   -4.9658  -16.5979 N   0  0  0  0  0  0  0  0  0  0  0  0
   16.7215   -5.8221  -16.2005 N   0  0  0  0  0  0  0  0  0  0  0  0
   17.5801   -6.8745  -15.7533 C   0  0  0  0  0  0  0  0  0  0  0  0
   19.0440   -6.4944  -15.8125 C   0  0  0  0  0  0  0  0  0  0  0  0
   19.9101   -7.6914  -15.5124 C   0  0  0  0  0  0  0  0  0  0  0  0
   21.4027   -7.3024  -15.5985 C   0  0  2  0  0  0  0  0  0  0  0  0
   22.1393   -8.5256  -15.3064 N   0  0  0  0  0  0  0  0  0  0  0  0
   21.6640   -6.2913  -14.5678 C   0  0  0  0  0  0  0  0  0  0  0  0
   21.5654   -4.9269  -14.7314 O   0  0  0  0  0  0  0  0  0  0  0  0
   22.0163   -6.7173  -13.4167 O   0  0  0  0  0  0  0  0  0  0  0  0
  2  1  1  6
  2  3  1  0
  3  4  1  0
  4  8  1  0
  5  4  2  0
  6  2  1  0
  7  6  2  0
  9 10  1  0
 10 11  1  0
 11 12  1  0
 13 12  1  6
 13 14  1  0
 14  6  1  0
 15 25  1  0
 15 13  1  0
 16 15  2  0
 18 17  1  0
 18 19  2  0
 20 18  1  0
 21 20  1  0
 21 22  1  0
 23 22  1  0
 24 23  1  1
 24 25  1  0
 26 27  1  0
 26 24  1  0
 28 26  2  0
M  END
$$$$
