GAY.pdb
     RDKit          3D

 22 22  0  0  1  0  0  0  0  0999 V2000
   21.3836  -14.9197  -17.6613 N   0  0  0  0  0  0  0  0  0  0  0  0
   21.5692  -13.5474  -18.0560 C   0  0  0  0  0  0  0  0  0  0  0  0
   21.4952  -12.6562  -16.8855 C   0  0  0  0  0  0  0  0  0  0  0  0
   20.3796  -12.4071  -16.3605 O   0  0  0  0  0  0  0  0  0  0  0  0
   23.9765  -10.7448  -14.7605 C   0  0  0  0  0  0  0  0  0  0  0  0
   22.6034  -11.0946  -15.3208 C   0  0  2  0  0  0  0  0  0  0  0  0
   22.6734  -12.0807  -16.3510 N   0  0  0  0  0  0  0  0  0  0  0  0
   22.0384   -9.7949  -15.8516 C   0  0  0  0  0  0  0  0  0  0  0  0
   22.0658   -9.5801  -17.0849 O   0  0  0  0  0  0  0  0  0  0  0  0
   16.9351   -3.1009  -17.8882 O   0  0  0  0  0  0  0  0  0  0  0  0
   17.6510   -4.2432  -17.5279 C   0  0  0  0  0  0  0  0  0  0  0  0
   18.8389   -4.5917  -18.1420 C   0  0  0  0  0  0  0  0  0  0  0  0
   19.5322   -5.7425  -17.7582 C   0  0  0  0  0  0  0  0  0  0  0  0
   19.0456   -6.5556  -16.7578 C   0  0  0  0  0  0  0  0  0  0  0  0
   19.7946   -7.7586  -16.3746 C   0  0  0  0  0  0  0  0  0  0  0  0
   20.8662   -7.5845  -15.3645 C   0  0  2  0  0  0  0  0  0  0  0  0
   21.4879   -8.8330  -14.9880 N   0  0  0  0  0  0  0  0  0  0  0  0
   20.5389   -6.7061  -14.2163 C   0  0  0  0  0  0  0  0  0  0  0  0
   20.1925   -7.2843  -12.9782 O   0  0  0  0  0  0  0  0  0  0  0  0
   17.8592   -6.1772  -16.1682 C   0  0  0  0  0  0  0  0  0  0  0  0
   17.1570   -5.0519  -16.5253 C   0  0  0  0  0  0  0  0  0  0  0  0
   20.5503   -5.4572  -14.2818 O   0  0  0  0  0  0  0  0  0  0  0  0
  2  1  1  0
  3  4  2  0
  3  2  1  0
  6  5  1  6
  6  8  1  0
  6  7  1  0
  7  3  1  0
  8  9  2  0
 10 11  1  0
 11 21  2  0
 12 11  1  0
 12 13  2  0
 13 14  1  0
 14 20  2  0
 14 15  1  0
 16 15  1  1
 17 16  1  0
 17  8  1  0
 18 16  1  0
 19 18  1  0
 21 20  1  0
 22 18  2  0
M  END
$$$$
