GAY.pdb
     RDKit          3D

 22 22  0  0  1  0  0  0  0  0999 V2000
   20.7148  -12.4479  -16.8837 N   0  0  0  0  0  0  0  0  0  0  0  0
   19.6568  -11.7875  -16.1641 C   0  0  0  0  0  0  0  0  0  0  0  0
   19.7980  -10.3244  -16.2606 C   0  0  0  0  0  0  0  0  0  0  0  0
   20.9371   -9.8171  -16.4261 O   0  0  0  0  0  0  0  0  0  0  0  0
   17.4255   -7.3798  -16.3719 C   0  0  0  0  0  0  0  0  0  0  0  0
   18.7798   -8.0710  -16.2729 C   0  0  2  0  0  0  0  0  0  0  0  0
   18.6580   -9.4897  -16.1678 N   0  0  0  0  0  0  0  0  0  0  0  0
   19.4428   -7.4909  -15.0424 C   0  0  0  0  0  0  0  0  0  0  0  0
   19.2515   -8.0408  -13.9339 O   0  0  0  0  0  0  0  0  0  0  0  0
   26.0166   -6.2856  -18.3381 O   0  0  0  0  0  0  0  0  0  0  0  0
   25.1316   -6.3525  -17.2613 C   0  0  0  0  0  0  0  0  0  0  0  0
   24.9883   -5.3144  -16.3605 C   0  0  0  0  0  0  0  0  0  0  0  0
   24.0931   -5.4123  -15.2922 C   0  0  0  0  0  0  0  0  0  0  0  0
   23.3330   -6.5477  -15.1137 C   0  0  0  0  0  0  0  0  0  0  0  0
   22.4003   -6.6237  -13.9826 C   0  0  0  0  0  0  0  0  0  0  0  0
   21.1443   -5.8441  -14.0992 C   0  0  2  0  0  0  0  0  0  0  0  0
   20.2633   -6.3532  -15.1246 N   0  0  0  0  0  0  0  0  0  0  0  0
   21.2952   -4.3695  -14.1147 C   0  0  0  0  0  0  0  0  0  0  0  0
   21.9311   -3.7267  -13.0333 O   0  0  0  0  0  0  0  0  0  0  0  0
   23.5021   -7.5621  -16.0307 C   0  0  0  0  0  0  0  0  0  0  0  0
   24.3743   -7.4928  -17.0897 C   0  0  0  0  0  0  0  0  0  0  0  0
   20.8823   -3.6466  -15.0480 O   0  0  0  0  0  0  0  0  0  0  0  0
  2  1  1  0
  3  4  2  0
  3  2  1  0
  6  5  1  1
  6  8  1  0
  6  7  1  0
  7  3  1  0
  8  9  2  0
 10 11  1  0
 11 21  2  0
 12 11  1  0
 12 13  2  0
 13 14  1  0
 14 20  2  0
 14 15  1  0
 16 15  1  6
 17 16  1  0
 17  8  1  0
 18 16  1  0
 19 18  1  0
 21 20  1  0
 22 18  2  0
M  END
$$$$
