GAY.pdb
     RDKit          3D

 22 22  0  0  1  0  0  0  0  0999 V2000
   22.3517  -12.4430  -21.9605 N   0  0  0  0  0  0  0  0  0  0  0  0
   22.0066  -11.1421  -22.4723 C   0  0  0  0  0  0  0  0  0  0  0  0
   22.3088  -10.0968  -21.4795 C   0  0  0  0  0  0  0  0  0  0  0  0
   22.6494  -10.4234  -20.3135 O   0  0  0  0  0  0  0  0  0  0  0  0
   22.4509   -6.3112  -21.4965 C   0  0  0  0  0  0  0  0  0  0  0  0
   22.5413   -7.7063  -20.8906 C   0  0  2  0  0  0  0  0  0  0  0  0
   22.2171   -8.7287  -21.8332 N   0  0  0  0  0  0  0  0  0  0  0  0
   21.5686   -7.7093  -19.7314 C   0  0  0  0  0  0  0  0  0  0  0  0
   20.3807   -8.0479  -19.9368 O   0  0  0  0  0  0  0  0  0  0  0  0
   18.4005   -8.8558  -11.5876 O   0  0  0  0  0  0  0  0  0  0  0  0
   19.1267   -8.7800  -12.7768 C   0  0  0  0  0  0  0  0  0  0  0  0
   18.5739   -9.1110  -13.9993 C   0  0  0  0  0  0  0  0  0  0  0  0
   19.3278   -9.0245  -15.1726 C   0  0  0  0  0  0  0  0  0  0  0  0
   20.6403   -8.6067  -15.1356 C   0  0  0  0  0  0  0  0  0  0  0  0
   21.4091   -8.5250  -16.3836 C   0  0  0  0  0  0  0  0  0  0  0  0
   21.1653   -7.3405  -17.2417 C   0  0  2  0  0  0  0  0  0  0  0  0
   21.9752   -7.3405  -18.4379 N   0  0  0  0  0  0  0  0  0  0  0  0
   21.1224   -6.0326  -16.5453 C   0  0  0  0  0  0  0  0  0  0  0  0
   19.9102   -5.5885  -15.9793 O   0  0  0  0  0  0  0  0  0  0  0  0
   21.1580   -8.2850  -13.8999 C   0  0  0  0  0  0  0  0  0  0  0  0
   20.4403   -8.3608  -12.7312 C   0  0  0  0  0  0  0  0  0  0  0  0
   22.1171   -5.2836  -16.4288 O   0  0  0  0  0  0  0  0  0  0  0  0
  2  1  1  0
  3  4  2  0
  3  2  1  0
  6  5  1  6
  6  8  1  0
  6  7  1  0
  7  3  1  0
  8  9  2  0
 10 11  1  0
 11 21  2  0
 12 11  1  0
 12 13  2  0
 13 14  1  0
 14 20  2  0
 14 15  1  0
 16 15  1  1
 17 16  1  0
 17  8  1  0
 18 16  1  0
 19 18  1  0
 21 20  1  0
 22 18  2  0
M  END
$$$$
