GAY.pdb
     RDKit          3D

 22 22  0  0  1  0  0  0  0  0999 V2000
   24.5123  -21.0632  -12.7067 N   0  0  0  0  0  0  0  0  0  0  0  0
   25.9029  -20.7090  -12.5870 C   0  0  0  0  0  0  0  0  0  0  0  0
   26.4799  -21.2800  -11.3579 C   0  0  0  0  0  0  0  0  0  0  0  0
   25.7275  -21.5757  -10.3942 O   0  0  0  0  0  0  0  0  0  0  0  0
   29.9895  -21.9812  -10.1141 C   0  0  0  0  0  0  0  0  0  0  0  0
   28.4885  -21.7486   -9.9936 C   0  0  2  0  0  0  0  0  0  0  0  0
   27.8757  -21.4965  -11.2584 N   0  0  0  0  0  0  0  0  0  0  0  0
   28.3348  -20.5597   -9.0700 C   0  0  0  0  0  0  0  0  0  0  0  0
   27.9671  -19.4628   -9.5489 O   0  0  0  0  0  0  0  0  0  0  0  0
   22.6675  -22.5325   -5.7605 O   0  0  0  0  0  0  0  0  0  0  0  0
   23.7455  -21.6758   -5.9870 C   0  0  0  0  0  0  0  0  0  0  0  0
   24.5540  -21.2228   -4.9618 C   0  0  0  0  0  0  0  0  0  0  0  0
   25.6261  -20.3653   -5.2214 C   0  0  0  0  0  0  0  0  0  0  0  0
   25.9006  -19.9524   -6.5070 C   0  0  0  0  0  0  0  0  0  0  0  0
   27.0334  -19.0511   -6.7513 C   0  0  0  0  0  0  0  0  0  0  0  0
   28.3886  -19.6500   -6.6896 C   0  0  2  0  0  0  0  0  0  0  0  0
   28.5965  -20.6675   -7.6937 N   0  0  0  0  0  0  0  0  0  0  0  0
   28.8686  -20.0311   -5.3398 C   0  0  0  0  0  0  0  0  0  0  0  0
   28.9808  -19.0438   -4.3401 O   0  0  0  0  0  0  0  0  0  0  0  0
   25.0740  -20.4237   -7.5035 C   0  0  0  0  0  0  0  0  0  0  0  0
   24.0136  -21.2670   -7.2770 C   0  0  0  0  0  0  0  0  0  0  0  0
   29.1880  -21.1996   -5.0290 O   0  0  0  0  0  0  0  0  0  0  0  0
  2  1  1  0
  3  4  2  0
  3  2  1  0
  6  5  1  6
  6  8  1  0
  6  7  1  0
  7  3  1  0
  8  9  2  0
 10 11  1  0
 11 21  2  0
 12 11  1  0
 12 13  2  0
 13 14  1  0
 14 20  2  0
 14 15  1  0
 16 15  1  1
 17 16  1  0
 17  8  1  0
 18 16  1  0
 19 18  1  0
 21 20  1  0
 22 18  2  0
M  END
$$$$
