GAY.pdb
     RDKit          3D

 22 22  0  0  1  0  0  0  0  0999 V2000
   28.4921  -17.4605  -20.3857 N   0  0  0  0  0  0  0  0  0  0  0  0
   27.2745  -17.2382  -19.6499 C   0  0  0  0  0  0  0  0  0  0  0  0
   27.5417  -17.2053  -18.2018 C   0  0  0  0  0  0  0  0  0  0  0  0
   28.4844  -17.8886  -17.7255 O   0  0  0  0  0  0  0  0  0  0  0  0
   26.1458  -15.3412  -15.2211 C   0  0  0  0  0  0  0  0  0  0  0  0
   26.9367  -16.4324  -15.9321 C   0  0  2  0  0  0  0  0  0  0  0  0
   26.7425  -16.4086  -17.3464 N   0  0  0  0  0  0  0  0  0  0  0  0
   26.4506  -17.7374  -15.3398 C   0  0  0  0  0  0  0  0  0  0  0  0
   25.4821  -18.3233  -15.8751 O   0  0  0  0  0  0  0  0  0  0  0  0
   24.5280  -21.8743   -7.8370 O   0  0  0  0  0  0  0  0  0  0  0  0
   25.2332  -21.3442   -8.9181 C   0  0  0  0  0  0  0  0  0  0  0  0
   25.8055  -22.1453   -9.8879 C   0  0  0  0  0  0  0  0  0  0  0  0
   26.5056  -21.5836  -10.9586 C   0  0  0  0  0  0  0  0  0  0  0  0
   26.6407  -20.2169  -11.0706 C   0  0  0  0  0  0  0  0  0  0  0  0
   27.3816  -19.6536  -12.2059 C   0  0  0  0  0  0  0  0  0  0  0  0
   26.6244  -19.4560  -13.4655 C   0  0  2  0  0  0  0  0  0  0  0  0
   27.0651  -18.2973  -14.2070 N   0  0  0  0  0  0  0  0  0  0  0  0
   25.1507  -19.5787  -13.3625 C   0  0  0  0  0  0  0  0  0  0  0  0
   24.5332  -20.8041  -13.6852 O   0  0  0  0  0  0  0  0  0  0  0  0
   26.0575  -19.4497  -10.0859 C   0  0  0  0  0  0  0  0  0  0  0  0
   25.3639  -19.9748   -9.0229 C   0  0  0  0  0  0  0  0  0  0  0  0
   24.4071  -18.6405  -13.0008 O   0  0  0  0  0  0  0  0  0  0  0  0
  2  1  1  0
  3  4  2  0
  3  2  1  0
  6  5  1  1
  6  8  1  0
  6  7  1  0
  7  3  1  0
  8  9  2  0
 10 11  1  0
 11 21  2  0
 12 11  1  0
 12 13  2  0
 13 14  1  0
 14 20  2  0
 14 15  1  0
 16 15  1  1
 17 16  1  0
 17  8  1  0
 18 16  1  0
 19 18  1  0
 21 20  1  0
 22 18  2  0
M  END
$$$$
