GAY.pdb
     RDKit          3D

 22 22  0  0  1  0  0  0  0  0999 V2000
    9.0441  -10.9840   -9.2555 N   0  0  0  0  0  0  0  0  0  0  0  0
    9.0805   -9.6128   -8.8174 C   0  0  0  0  0  0  0  0  0  0  0  0
   10.1913   -8.8914   -9.4619 C   0  0  0  0  0  0  0  0  0  0  0  0
   11.0960   -9.5368  -10.0512 O   0  0  0  0  0  0  0  0  0  0  0  0
   10.9387   -5.3058  -10.3228 C   0  0  0  0  0  0  0  0  0  0  0  0
   11.2978   -6.7644  -10.0675 C   0  0  2  0  0  0  0  0  0  0  0  0
   10.2434   -7.4770   -9.4200 N   0  0  0  0  0  0  0  0  0  0  0  0
   12.5402   -6.7315   -9.2041 C   0  0  0  0  0  0  0  0  0  0  0  0
   12.4200   -6.5222   -7.9755 O   0  0  0  0  0  0  0  0  0  0  0  0
   18.5375   -9.4216  -13.9605 O   0  0  0  0  0  0  0  0  0  0  0  0
   17.8518   -9.1639  -12.7728 C   0  0  0  0  0  0  0  0  0  0  0  0
   18.5077   -8.9562  -11.5742 C   0  0  0  0  0  0  0  0  0  0  0  0
   17.7921   -8.7002  -10.4018 C   0  0  0  0  0  0  0  0  0  0  0  0
   16.4151   -8.6493  -10.4156 C   0  0  0  0  0  0  0  0  0  0  0  0
   15.6886   -8.3785   -9.1690 C   0  0  0  0  0  0  0  0  0  0  0  0
   15.0649   -7.0396   -9.0371 C   0  0  2  0  0  0  0  0  0  0  0  0
   13.8168   -6.9307   -9.7562 N   0  0  0  0  0  0  0  0  0  0  0  0
   15.9700   -5.8809   -9.2257 C   0  0  0  0  0  0  0  0  0  0  0  0
   16.9798   -5.6285   -8.2752 O   0  0  0  0  0  0  0  0  0  0  0  0
   15.7952   -8.8610  -11.6277 C   0  0  0  0  0  0  0  0  0  0  0  0
   16.4733   -9.1145  -12.7951 C   0  0  0  0  0  0  0  0  0  0  0  0
   15.8887   -5.0968  -10.1967 O   0  0  0  0  0  0  0  0  0  0  0  0
  2  1  1  0
  3  4  2  0
  3  2  1  0
  6  5  1  1
  6  8  1  0
  6  7  1  0
  7  3  1  0
  8  9  2  0
 10 11  1  0
 11 21  2  0
 12 11  1  0
 12 13  2  0
 13 14  1  0
 14 20  2  0
 14 15  1  0
 16 15  1  6
 17 16  1  0
 17  8  1  0
 18 16  1  0
 19 18  1  0
 21 20  1  0
 22 18  2  0
M  END
$$$$
