NCC.pdb
     RDKit          3D

 21 20  0  0  1  0  0  0  0  0999 V2000
   14.8243  -16.2632   17.8364 N   0  0  0  0  0  0  0  0  0  0  0  0
   14.8764  -14.8872   18.1930 C   0  0  0  0  0  0  0  0  0  0  0  0
   15.8471  -14.2095   17.7704 O   0  0  0  0  0  0  0  0  0  0  0  0
   13.7861  -14.3343   19.0397 C   0  0  0  0  0  0  0  0  0  0  0  0
   12.5818  -15.1978   18.8542 C   0  0  2  0  0  0  0  0  0  0  0  0
   12.1571  -15.1452   17.4921 N   0  0  0  0  0  0  0  0  0  0  0  0
   11.4928  -14.9161   19.8189 C   0  0  0  0  0  0  0  0  0  0  0  0
   11.5946  -13.9563   20.5964 O   0  0  0  0  0  0  0  0  0  0  0  0
   10.3254  -15.7146   19.8859 N   0  0  0  0  0  0  0  0  0  0  0  0
    9.1882  -15.4495   20.7029 C   0  0  1  0  0  0  0  0  0  0  0  0
    7.9050  -15.4893   19.9144 C   0  0  0  0  0  0  0  0  0  0  0  0
    6.5075  -15.2205   21.0182 S   0  0  0  0  0  0  0  0  0  0  0  0
    9.1268  -16.3043   21.9146 C   0  0  0  0  0  0  0  0  0  0  0  0
    9.3933  -17.5234   21.8017 O   0  0  0  0  0  0  0  0  0  0  0  0
    8.7822  -15.8165   23.2009 N   0  0  0  0  0  0  0  0  0  0  0  0
    8.6196  -16.6657   24.3602 C   0  0  1  0  0  0  0  0  0  0  0  0
    8.2421  -15.7364   25.5198 C   0  0  0  0  0  0  0  0  0  0  0  0
    9.6246  -14.5959   25.7667 S   0  0  0  0  0  0  0  0  0  0  0  0
    7.5560  -17.6706   24.1966 C   0  0  0  0  0  0  0  0  0  0  0  0
    6.8310  -17.6564   23.1787 O   0  0  0  0  0  0  0  0  0  0  0  0
    7.3395  -18.6397   25.1550 O   0  0  0  0  0  0  0  0  0  0  0  0
  2  4  1  0
  2  1  1  0
  3  2  2  0
  5  7  1  0
  5  4  1  0
  5  6  1  6
  7  9  1  0
  8  7  2  0
  9 10  1  0
 10 13  1  0
 11 12  1  0
 10 11  1  6
 13 15  1  0
 13 14  2  0
 15 16  1  0
 16 19  1  0
 16 17  1  1
 18 17  1  0
 19 21  1  0
 20 19  2  0
M  END
$$$$
