NCC.pdb
     RDKit          3D

 21 20  0  0  1  0  0  0  0  0999 V2000
    7.3140  -17.1883   21.9233 N   0  0  0  0  0  0  0  0  0  0  0  0
    6.0369  -16.6249   21.6499 C   0  0  0  0  0  0  0  0  0  0  0  0
    5.0272  -17.3544   21.8186 O   0  0  0  0  0  0  0  0  0  0  0  0
    5.9713  -15.2144   21.1834 C   0  0  0  0  0  0  0  0  0  0  0  0
    7.3570  -14.6583   21.2156 C   0  0  2  0  0  0  0  0  0  0  0  0
    8.2011  -15.4194   20.3515 N   0  0  0  0  0  0  0  0  0  0  0  0
    7.9050  -14.5043   22.5837 C   0  0  0  0  0  0  0  0  0  0  0  0
    9.1272  -14.5941   22.7692 O   0  0  0  0  0  0  0  0  0  0  0  0
    7.0720  -14.2555   23.7014 N   0  0  0  0  0  0  0  0  0  0  0  0
    7.5240  -13.9936   25.0274 C   0  0  1  0  0  0  0  0  0  0  0  0
    6.8536  -12.7832   25.6235 C   0  0  0  0  0  0  0  0  0  0  0  0
    7.4569  -12.5211   27.3001 S   0  0  0  0  0  0  0  0  0  0  0  0
    7.4373  -15.1768   25.9190 C   0  0  0  0  0  0  0  0  0  0  0  0
    6.3341  -15.4495   26.4468 O   0  0  0  0  0  0  0  0  0  0  0  0
    8.5388  -16.0219   26.2087 N   0  0  0  0  0  0  0  0  0  0  0  0
    8.4551  -17.1728   27.0804 C   0  0  1  0  0  0  0  0  0  0  0  0
    8.3141  -18.3932   26.1629 C   0  0  0  0  0  0  0  0  0  0  0  0
    6.7031  -18.2706   25.3492 S   0  0  0  0  0  0  0  0  0  0  0  0
    9.6513  -17.3507   27.9203 C   0  0  0  0  0  0  0  0  0  0  0  0
    9.7401  -18.3354   28.6847 O   0  0  0  0  0  0  0  0  0  0  0  0
   10.6894  -16.4421   27.8814 O   0  0  0  0  0  0  0  0  0  0  0  0
  2  4  1  0
  2  1  1  0
  3  2  2  0
  5  7  1  0
  5  4  1  0
  5  6  1  6
  7  9  1  0
  8  7  2  0
  9 10  1  0
 10 13  1  0
 11 12  1  0
 10 11  1  1
 13 15  1  0
 13 14  2  0
 15 16  1  0
 16 19  1  0
 16 17  1  6
 18 17  1  0
 19 21  1  0
 20 19  2  0
M  END
$$$$
