NCC.pdb
     RDKit          3D

 21 20  0  0  1  0  0  0  0  0999 V2000
    7.2251  -14.7666   14.3886 N   0  0  0  0  0  0  0  0  0  0  0  0
    8.4147  -15.0292   15.1227 C   0  0  0  0  0  0  0  0  0  0  0  0
    9.2895  -15.7511   14.5808 O   0  0  0  0  0  0  0  0  0  0  0  0
    8.5532  -14.4379   16.4802 C   0  0  0  0  0  0  0  0  0  0  0  0
    8.8208  -15.5520   17.4380 C   0  0  2  0  0  0  0  0  0  0  0  0
    7.6867  -16.4171   17.4990 N   0  0  0  0  0  0  0  0  0  0  0  0
    9.2811  -15.0942   18.7701 C   0  0  0  0  0  0  0  0  0  0  0  0
   10.4706  -14.7890   18.9371 O   0  0  0  0  0  0  0  0  0  0  0  0
    8.3996  -14.9921   19.8736 N   0  0  0  0  0  0  0  0  0  0  0  0
    8.7885  -14.7464   21.2224 C   0  0  1  0  0  0  0  0  0  0  0  0
    7.6138  -14.3763   22.0901 C   0  0  0  0  0  0  0  0  0  0  0  0
    6.5115  -15.7913   22.2525 S   0  0  0  0  0  0  0  0  0  0  0  0
    9.5920  -15.8477   21.8090 C   0  0  0  0  0  0  0  0  0  0  0  0
    9.6257  -16.9486   21.2115 O   0  0  0  0  0  0  0  0  0  0  0  0
   10.3289  -15.7238   23.0144 N   0  0  0  0  0  0  0  0  0  0  0  0
   11.0687  -16.8123   23.6139 C   0  0  1  0  0  0  0  0  0  0  0  0
   12.5349  -16.5996   23.2190 C   0  0  0  0  0  0  0  0  0  0  0  0
   13.4990  -17.9140   24.0037 S   0  0  0  0  0  0  0  0  0  0  0  0
   10.9753  -16.8353   25.0831 C   0  0  0  0  0  0  0  0  0  0  0  0
   10.4352  -15.8869   25.6921 O   0  0  0  0  0  0  0  0  0  0  0  0
   11.4778  -17.8944   25.8114 O   0  0  0  0  0  0  0  0  0  0  0  0
  2  4  1  0
  2  1  1  0
  3  2  2  0
  5  7  1  0
  5  4  1  0
  5  6  1  1
  7  9  1  0
  8  7  2  0
  9 10  1  0
 10 13  1  0
 11 12  1  0
 10 11  1  1
 13 15  1  0
 13 14  2  0
 15 16  1  0
 16 19  1  0
 16 17  1  1
 18 17  1  0
 19 21  1  0
 20 19  2  0
M  END
$$$$
