NCC.pdb
     RDKit          3D

 21 20  0  0  1  0  0  0  0  0999 V2000
    8.4592  -16.9530   18.4740 N   0  0  0  0  0  0  0  0  0  0  0  0
    8.3668  -15.5368   18.5690 C   0  0  0  0  0  0  0  0  0  0  0  0
    7.8395  -14.9190   17.6096 O   0  0  0  0  0  0  0  0  0  0  0  0
    8.8959  -14.8739   19.7904 C   0  0  0  0  0  0  0  0  0  0  0  0
    8.0750  -15.3327   20.9506 C   0  0  2  0  0  0  0  0  0  0  0  0
    6.7269  -14.8903   20.7911 N   0  0  0  0  0  0  0  0  0  0  0  0
    8.6558  -14.9799   22.2675 C   0  0  0  0  0  0  0  0  0  0  0  0
    9.8682  -15.1418   22.4669 O   0  0  0  0  0  0  0  0  0  0  0  0
    7.8651  -14.4583   23.3200 N   0  0  0  0  0  0  0  0  0  0  0  0
    8.2498  -14.3974   24.6909 C   0  0  1  0  0  0  0  0  0  0  0  0
    7.3524  -13.4877   25.4891 C   0  0  0  0  0  0  0  0  0  0  0  0
    5.7211  -14.2340   25.6485 S   0  0  0  0  0  0  0  0  0  0  0  0
    8.3910  -15.7348   25.3185 C   0  0  0  0  0  0  0  0  0  0  0  0
    7.4012  -16.5032   25.3203 O   0  0  0  0  0  0  0  0  0  0  0  0
    9.5902  -16.1957   25.9193 N   0  0  0  0  0  0  0  0  0  0  0  0
    9.7425  -17.5167   26.4879 C   0  0  1  0  0  0  0  0  0  0  0  0
   10.8017  -18.2275   25.6372 C   0  0  0  0  0  0  0  0  0  0  0  0
   12.2647  -17.1639   25.6013 S   0  0  0  0  0  0  0  0  0  0  0  0
   10.1992  -17.4950   27.8874 C   0  0  0  0  0  0  0  0  0  0  0  0
   10.4561  -16.4071   28.4465 O   0  0  0  0  0  0  0  0  0  0  0  0
   10.3521  -18.6645   28.6041 O   0  0  0  0  0  0  0  0  0  0  0  0
  2  4  1  0
  2  1  1  0
  3  2  2  0
  5  7  1  0
  5  4  1  0
  5  6  1  6
  7  9  1  0
  8  7  2  0
  9 10  1  0
 10 13  1  0
 11 12  1  0
 10 11  1  1
 13 15  1  0
 13 14  2  0
 15 16  1  0
 16 19  1  0
 16 17  1  6
 18 17  1  0
 19 21  1  0
 20 19  2  0
M  END
$$$$
