NCC.pdb
     RDKit          3D

 21 20  0  0  1  0  0  0  0  0999 V2000
   10.6010  -12.5070   10.5274 N   0  0  0  0  0  0  0  0  0  0  0  0
   10.5902  -13.9252   10.6348 C   0  0  0  0  0  0  0  0  0  0  0  0
   11.4224  -14.5705    9.9485 O   0  0  0  0  0  0  0  0  0  0  0  0
    9.6010  -14.5578   11.5475 C   0  0  0  0  0  0  0  0  0  0  0  0
   10.3178  -14.9455   12.7990 C   0  0  2  0  0  0  0  0  0  0  0  0
   11.1070  -16.1111   12.5602 N   0  0  0  0  0  0  0  0  0  0  0  0
    9.4303  -15.0703   13.9791 C   0  0  0  0  0  0  0  0  0  0  0  0
    8.6522  -14.1481   14.2623 O   0  0  0  0  0  0  0  0  0  0  0  0
    9.4396  -16.2198   14.8060 N   0  0  0  0  0  0  0  0  0  0  0  0
    8.6083  -16.4255   15.9451 C   0  0  1  0  0  0  0  0  0  0  0  0
    8.2919  -17.8832   16.1571 C   0  0  0  0  0  0  0  0  0  0  0  0
    9.8192  -18.8041   16.4074 S   0  0  0  0  0  0  0  0  0  0  0  0
    9.1328  -15.7824   17.1754 C   0  0  0  0  0  0  0  0  0  0  0  0
   10.3719  -15.7669   17.3615 O   0  0  0  0  0  0  0  0  0  0  0  0
    8.3064  -15.1803   18.1582 N   0  0  0  0  0  0  0  0  0  0  0  0
    8.8116  -14.6157   19.3900 C   0  0  1  0  0  0  0  0  0  0  0  0
    7.7727  -13.5831   19.8433 C   0  0  0  0  0  0  0  0  0  0  0  0
    7.5621  -12.4023   18.4889 S   0  0  0  0  0  0  0  0  0  0  0  0
    8.9796  -15.6148   20.4583 C   0  0  0  0  0  0  0  0  0  0  0  0
    8.5336  -16.7728   20.3097 O   0  0  0  0  0  0  0  0  0  0  0  0
    9.6268  -15.2963   21.6349 O   0  0  0  0  0  0  0  0  0  0  0  0
  2  4  1  0
  2  1  1  0
  3  2  2  0
  5  7  1  0
  5  4  1  0
  5  6  1  6
  7  9  1  0
  8  7  2  0
  9 10  1  0
 10 13  1  0
 11 12  1  0
 10 11  1  1
 13 15  1  0
 13 14  2  0
 15 16  1  0
 16 19  1  0
 16 17  1  1
 18 17  1  0
 19 21  1  0
 20 19  2  0
M  END
$$$$
