NCC.pdb
     RDKit          3D

 21 20  0  0  1  0  0  0  0  0999 V2000
    7.6298  -18.2321   15.0130 N   0  0  0  0  0  0  0  0  0  0  0  0
    8.7716  -18.3598   15.8516 C   0  0  0  0  0  0  0  0  0  0  0  0
    9.4844  -19.3865   15.7174 O   0  0  0  0  0  0  0  0  0  0  0  0
    9.0536  -17.2778   16.8320 C   0  0  0  0  0  0  0  0  0  0  0  0
    8.7577  -17.8095   18.1959 C   0  0  2  0  0  0  0  0  0  0  0  0
    7.3458  -17.9333   18.3683 N   0  0  0  0  0  0  0  0  0  0  0  0
    9.4172  -17.0526   19.2859 C   0  0  0  0  0  0  0  0  0  0  0  0
   10.6545  -17.0255   19.3531 O   0  0  0  0  0  0  0  0  0  0  0  0
    8.6751  -16.3505   20.2665 N   0  0  0  0  0  0  0  0  0  0  0  0
    9.2283  -15.6524   21.3790 C   0  0  1  0  0  0  0  0  0  0  0  0
    8.2519  -14.6693   21.9706 C   0  0  0  0  0  0  0  0  0  0  0  0
    7.0253  -15.5500   22.9520 S   0  0  0  0  0  0  0  0  0  0  0  0
    9.8057  -16.5542   22.4066 C   0  0  0  0  0  0  0  0  0  0  0  0
    9.2634  -17.6671   22.5998 O   0  0  0  0  0  0  0  0  0  0  0  0
   10.9438  -16.2260   23.1866 N   0  0  0  0  0  0  0  0  0  0  0  0
   11.5078  -17.1057   24.1864 C   0  0  1  0  0  0  0  0  0  0  0  0
   12.5382  -17.9754   23.4565 C   0  0  0  0  0  0  0  0  0  0  0  0
   13.7479  -16.8596   22.7053 S   0  0  0  0  0  0  0  0  0  0  0  0
   12.1873  -16.3839   25.2750 C   0  0  0  0  0  0  0  0  0  0  0  0
   12.2712  -15.1374   25.2444 O   0  0  0  0  0  0  0  0  0  0  0  0
   12.7408  -17.0626   26.3416 O   0  0  0  0  0  0  0  0  0  0  0  0
  2  4  1  0
  2  1  1  0
  3  2  2  0
  5  7  1  0
  5  4  1  0
  5  6  1  1
  7  9  1  0
  8  7  2  0
  9 10  1  0
 10 13  1  0
 11 12  1  0
 10 11  1  1
 13 15  1  0
 13 14  2  0
 15 16  1  0
 16 19  1  0
 16 17  1  6
 18 17  1  0
 19 21  1  0
 20 19  2  0
M  END
$$$$
