NCC.pdb
     RDKit          3D

 21 20  0  0  1  0  0  0  0  0999 V2000
    7.0384  -17.8486   13.5422 N   0  0  0  0  0  0  0  0  0  0  0  0
    8.0919  -17.7711   14.4947 C   0  0  0  0  0  0  0  0  0  0  0  0
    8.9148  -18.7205   14.5358 O   0  0  0  0  0  0  0  0  0  0  0  0
    8.1581  -16.5786   15.3807 C   0  0  0  0  0  0  0  0  0  0  0  0
    8.2568  -17.0623   16.7902 C   0  0  2  0  0  0  0  0  0  0  0  0
    6.9604  -17.4236   17.2669 N   0  0  0  0  0  0  0  0  0  0  0  0
    8.9735  -16.1292   17.6911 C   0  0  0  0  0  0  0  0  0  0  0  0
   10.1637  -15.8596   17.4747 O   0  0  0  0  0  0  0  0  0  0  0  0
    8.3396  -15.5272   18.8050 N   0  0  0  0  0  0  0  0  0  0  0  0
    8.9827  -14.7122   19.7813 C   0  0  1  0  0  0  0  0  0  0  0  0
    8.2828  -13.3904   19.9628 C   0  0  0  0  0  0  0  0  0  0  0  0
    6.6456  -13.6630   20.6617 S   0  0  0  0  0  0  0  0  0  0  0  0
    9.2029  -15.4102   21.0723 C   0  0  0  0  0  0  0  0  0  0  0  0
    8.2118  -15.6485   21.8011 O   0  0  0  0  0  0  0  0  0  0  0  0
   10.4790  -15.8260   21.5305 N   0  0  0  0  0  0  0  0  0  0  0  0
   10.7020  -16.4497   22.8161 C   0  0  1  0  0  0  0  0  0  0  0  0
   10.7779  -17.9579   22.5509 C   0  0  0  0  0  0  0  0  0  0  0  0
    9.0795  -18.5764   22.4744 S   0  0  0  0  0  0  0  0  0  0  0  0
   11.9560  -16.0206   23.4576 C   0  0  0  0  0  0  0  0  0  0  0  0
   12.7631  -15.2973   22.8353 O   0  0  0  0  0  0  0  0  0  0  0  0
   12.2633  -16.4050   24.7469 O   0  0  0  0  0  0  0  0  0  0  0  0
  2  4  1  0
  2  1  1  0
  3  2  2  0
  5  7  1  0
  5  4  1  0
  5  6  1  1
  7  9  1  0
  8  7  2  0
  9 10  1  0
 10 13  1  0
 11 12  1  0
 10 11  1  1
 13 15  1  0
 13 14  2  0
 15 16  1  0
 16 19  1  0
 16 17  1  6
 18 17  1  0
 19 21  1  0
 20 19  2  0
M  END
$$$$
