TWW.pdb
     RDKit          3D

 36 39  0  0  1  0  0  0  0  0999 V2000
   23.6935  -19.7697  -17.4689 C   0  0  0  0  0  0  0  0  0  0  0  0
   24.2214  -20.4681  -16.2590 C   0  0  1  0  0  0  0  0  0  0  0  0
   23.4800  -21.6137  -15.9315 O   0  0  0  0  0  0  0  0  0  0  0  0
   25.6873  -20.8028  -16.3355 C   0  0  2  0  0  0  0  0  0  0  0  0
   25.9855  -21.7064  -17.4155 N   0  0  0  0  0  0  0  0  0  0  0  0
   26.1344  -21.3247  -15.0275 C   0  0  0  0  0  0  0  0  0  0  0  0
   26.0783  -22.5586  -14.8124 O   0  0  0  0  0  0  0  0  0  0  0  0
   26.6167  -20.4716  -14.0306 N   0  0  0  0  0  0  0  0  0  0  0  0
   27.1082  -20.9036  -12.7400 C   0  0  1  0  0  0  0  0  0  0  0  0
   28.1712  -19.9124  -12.2605 C   0  0  0  0  0  0  0  0  0  0  0  0
   28.9547  -20.4537  -11.1397 C   0  0  0  0  0  0  0  0  0  0  0  0
   29.8544  -21.4982  -11.2135 C   0  0  0  0  0  0  0  0  0  0  0  0
   30.3878  -21.7264   -9.9987 N   0  0  0  0  0  0  0  0  0  0  0  0
   29.8502  -20.8462   -9.1311 C   0  0  0  0  0  0  0  0  0  0  0  0
   30.0012  -20.5994   -7.7839 C   0  0  0  0  0  0  0  0  0  0  0  0
   29.2996  -19.6025   -7.1383 C   0  0  0  0  0  0  0  0  0  0  0  0
   28.4191  -18.8271   -7.8609 C   0  0  0  0  0  0  0  0  0  0  0  0
   28.2349  -19.0369   -9.2097 C   0  0  0  0  0  0  0  0  0  0  0  0
   28.9521  -20.0413   -9.8227 C   0  0  0  0  0  0  0  0  0  0  0  0
   25.9810  -20.8534  -11.7780 C   0  0  0  0  0  0  0  0  0  0  0  0
   24.9861  -20.0839  -11.9420 O   0  0  0  0  0  0  0  0  0  0  0  0
   25.9689  -21.6719  -10.6235 N   0  0  0  0  0  0  0  0  0  0  0  0
   24.9457  -21.5686   -9.6042 C   0  0  1  0  0  0  0  0  0  0  0  0
   25.5150  -22.2149   -8.3566 C   0  0  0  0  0  0  0  0  0  0  0  0
   24.7913  -21.8564   -7.1288 C   0  0  0  0  0  0  0  0  0  0  0  0
   23.4243  -21.8700   -6.9575 C   0  0  0  0  0  0  0  0  0  0  0  0
   23.1804  -21.4755   -5.6954 N   0  0  0  0  0  0  0  0  0  0  0  0
   24.3389  -21.2127   -5.0610 C   0  0  0  0  0  0  0  0  0  0  0  0
   24.6073  -20.7858   -3.7777 C   0  0  0  0  0  0  0  0  0  0  0  0
   25.9291  -20.6058   -3.4249 C   0  0  0  0  0  0  0  0  0  0  0  0
   26.9768  -20.8318   -4.2898 C   0  0  0  0  0  0  0  0  0  0  0  0
   26.7072  -21.2568   -5.5671 C   0  0  0  0  0  0  0  0  0  0  0  0
   25.3902  -21.4402   -5.9312 C   0  0  0  0  0  0  0  0  0  0  0  0
   24.6271  -20.1452   -9.4073 C   0  0  0  0  0  0  0  0  0  0  0  0
   23.3424  -19.6614   -9.2128 O   0  0  0  0  0  0  0  0  0  0  0  0
   25.5688  -19.3131   -9.4143 O   0  0  0  0  0  0  0  0  0  0  0  0
  2  1  1  6
  2  3  1  0
  4  2  1  0
  4  5  1  6
  6  7  2  0
  6  4  1  0
  8  6  1  0
  9  8  1  0
  9 10  1  1
 11 10  1  0
 11 19  1  0
 12 13  1  0
 12 11  2  0
 13 14  1  0
 14 15  2  0
 14 19  1  0
 15 16  1  0
 16 17  2  0
 18 17  1  0
 19 18  2  0
 20 21  2  0
 20  9  1  0
 22 20  1  0
 23 22  1  0
 23 24  1  1
 25 24  1  0
 25 26  2  0
 27 26  1  0
 28 27  1  0
 29 28  2  0
 30 29  1  0
 31 30  2  0
 31 32  1  0
 32 33  2  0
 33 28  1  0
 33 25  1  0
 34 23  1  0
 35 34  1  0
 36 34  2  0
M  END
$$$$
