TWW.pdb
     RDKit          3D

 36 39  0  0  1  0  0  0  0  0999 V2000
   24.4932  -14.7514  -16.6598 C   0  0  0  0  0  0  0  0  0  0  0  0
   25.3880  -13.8524  -17.4481 C   0  0  1  0  0  0  0  0  0  0  0  0
   26.5581  -13.5116  -16.7525 O   0  0  0  0  0  0  0  0  0  0  0  0
   25.7319  -14.3772  -18.8167 C   0  0  2  0  0  0  0  0  0  0  0  0
   26.4998  -13.4338  -19.5862 N   0  0  0  0  0  0  0  0  0  0  0  0
   24.4902  -14.7848  -19.5060 C   0  0  0  0  0  0  0  0  0  0  0  0
   23.7772  -13.9066  -20.0468 O   0  0  0  0  0  0  0  0  0  0  0  0
   24.0982  -16.1253  -19.5657 N   0  0  0  0  0  0  0  0  0  0  0  0
   22.9326  -16.6147  -20.2700 C   0  0  1  0  0  0  0  0  0  0  0  0
   23.3118  -17.8927  -21.0219 C   0  0  0  0  0  0  0  0  0  0  0  0
   24.4676  -18.5635  -20.4077 C   0  0  0  0  0  0  0  0  0  0  0  0
   24.6816  -18.7253  -19.0535 C   0  0  0  0  0  0  0  0  0  0  0  0
   25.8380  -19.3839  -18.8507 N   0  0  0  0  0  0  0  0  0  0  0  0
   26.3838  -19.6555  -20.0528 C   0  0  0  0  0  0  0  0  0  0  0  0
   27.5321  -20.2903  -20.4735 C   0  0  0  0  0  0  0  0  0  0  0  0
   27.8465  -20.4269  -21.8097 C   0  0  0  0  0  0  0  0  0  0  0  0
   26.9868  -19.9132  -22.7562 C   0  0  0  0  0  0  0  0  0  0  0  0
   25.8271  -19.2704  -22.3831 C   0  0  0  0  0  0  0  0  0  0  0  0
   25.5442  -19.1518  -21.0397 C   0  0  0  0  0  0  0  0  0  0  0  0
   21.9044  -16.9740  -19.2639 C   0  0  0  0  0  0  0  0  0  0  0  0
   22.1979  -17.2152  -18.0537 O   0  0  0  0  0  0  0  0  0  0  0  0
   20.5368  -17.0636  -19.6171 N   0  0  0  0  0  0  0  0  0  0  0  0
   19.5206  -17.5222  -18.6932 C   0  0  1  0  0  0  0  0  0  0  0  0
   18.6286  -16.3298  -18.4087 C   0  0  0  0  0  0  0  0  0  0  0  0
   17.4591  -16.6573  -17.5813 C   0  0  0  0  0  0  0  0  0  0  0  0
   17.4089  -16.6481  -16.2045 C   0  0  0  0  0  0  0  0  0  0  0  0
   16.1620  -17.0073  -15.8522 N   0  0  0  0  0  0  0  0  0  0  0  0
   15.4208  -17.2434  -16.9515 C   0  0  0  0  0  0  0  0  0  0  0  0
   14.1067  -17.6308  -17.1078 C   0  0  0  0  0  0  0  0  0  0  0  0
   13.6341  -17.7914  -18.3941 C   0  0  0  0  0  0  0  0  0  0  0  0
   14.4099  -17.5835  -19.5129 C   0  0  0  0  0  0  0  0  0  0  0  0
   15.7180  -17.1979  -19.3549 C   0  0  0  0  0  0  0  0  0  0  0  0
   16.2017  -17.0343  -18.0743 C   0  0  0  0  0  0  0  0  0  0  0  0
   18.7907  -18.6363  -19.3197 C   0  0  0  0  0  0  0  0  0  0  0  0
   18.1367  -19.6289  -18.6062 O   0  0  0  0  0  0  0  0  0  0  0  0
   18.7534  -18.6988  -20.5743 O   0  0  0  0  0  0  0  0  0  0  0  0
  2  1  1  1
  2  3  1  0
  4  2  1  0
  4  5  1  6
  6  7  2  0
  6  4  1  0
  8  6  1  0
  9  8  1  0
  9 10  1  1
 11 10  1  0
 11 19  1  0
 12 13  1  0
 12 11  2  0
 13 14  1  0
 14 15  2  0
 14 19  1  0
 15 16  1  0
 16 17  2  0
 18 17  1  0
 19 18  2  0
 20 21  2  0
 20  9  1  0
 22 20  1  0
 23 22  1  0
 23 24  1  6
 25 24  1  0
 25 26  2  0
 27 26  1  0
 28 27  1  0
 29 28  2  0
 30 29  1  0
 31 30  2  0
 31 32  1  0
 32 33  2  0
 33 28  1  0
 33 25  1  0
 34 23  1  0
 35 34  1  0
 36 34  2  0
M  END
$$$$
