TWW.pdb
     RDKit          3D

 36 39  0  0  1  0  0  0  0  0999 V2000
   27.7330  -20.9562  -17.9241 C   0  0  0  0  0  0  0  0  0  0  0  0
   26.8200  -21.3720  -16.8179 C   0  0  1  0  0  0  0  0  0  0  0  0
   25.7538  -22.1655  -17.2684 O   0  0  0  0  0  0  0  0  0  0  0  0
   27.5189  -22.0462  -15.6674 C   0  0  2  0  0  0  0  0  0  0  0  0
   28.1764  -23.2632  -16.0654 N   0  0  0  0  0  0  0  0  0  0  0  0
   26.5510  -22.2636  -14.5723 C   0  0  0  0  0  0  0  0  0  0  0  0
   26.2450  -23.4370  -14.2536 O   0  0  0  0  0  0  0  0  0  0  0  0
   25.9735  -21.1897  -13.8885 N   0  0  0  0  0  0  0  0  0  0  0  0
   24.9664  -21.3127  -12.8566 C   0  0  1  0  0  0  0  0  0  0  0  0
   25.2780  -20.3112  -11.7422 C   0  0  0  0  0  0  0  0  0  0  0  0
   26.4604  -20.7117  -10.9646 C   0  0  0  0  0  0  0  0  0  0  0  0
   27.5915  -21.3201  -11.4708 C   0  0  0  0  0  0  0  0  0  0  0  0
   28.4717  -21.5437  -10.4771 N   0  0  0  0  0  0  0  0  0  0  0  0
   27.9329  -21.0901   -9.3279 C   0  0  0  0  0  0  0  0  0  0  0  0
   28.3493  -21.0444   -8.0153 C   0  0  0  0  0  0  0  0  0  0  0  0
   27.5653  -20.5062   -7.0160 C   0  0  0  0  0  0  0  0  0  0  0  0
   26.3258  -19.9973   -7.3376 C   0  0  0  0  0  0  0  0  0  0  0  0
   25.8671  -20.0212   -8.6362 C   0  0  0  0  0  0  0  0  0  0  0  0
   26.6763  -20.5663   -9.6094 C   0  0  0  0  0  0  0  0  0  0  0  0
   23.6576  -20.9381  -13.4441 C   0  0  0  0  0  0  0  0  0  0  0  0
   23.4898  -19.8580  -14.0876 O   0  0  0  0  0  0  0  0  0  0  0  0
   22.5284  -21.7805  -13.3092 N   0  0  0  0  0  0  0  0  0  0  0  0
   21.2392  -21.4553  -13.8826 C   0  0  1  0  0  0  0  0  0  0  0  0
   20.2947  -22.5695  -13.4765 C   0  0  0  0  0  0  0  0  0  0  0  0
   19.6006  -22.3152  -12.2064 C   0  0  0  0  0  0  0  0  0  0  0  0
   18.8439  -21.2049  -11.9016 C   0  0  0  0  0  0  0  0  0  0  0  0
   18.3916  -21.3677  -10.6459 N   0  0  0  0  0  0  0  0  0  0  0  0
   18.8318  -22.5371  -10.1437 C   0  0  0  0  0  0  0  0  0  0  0  0
   18.6408  -23.1412   -8.9190 C   0  0  0  0  0  0  0  0  0  0  0  0
   19.2386  -24.3668   -8.7082 C   0  0  0  0  0  0  0  0  0  0  0  0
   20.0076  -25.0028   -9.6573 C   0  0  0  0  0  0  0  0  0  0  0  0
   20.1965  -24.3995  -10.8760 C   0  0  0  0  0  0  0  0  0  0  0  0
   19.6041  -23.1746  -11.0984 C   0  0  0  0  0  0  0  0  0  0  0  0
   20.8182  -20.1426  -13.3670 C   0  0  0  0  0  0  0  0  0  0  0  0
   21.2526  -19.6109  -12.1626 O   0  0  0  0  0  0  0  0  0  0  0  0
   20.0184  -19.4573  -14.0525 O   0  0  0  0  0  0  0  0  0  0  0  0
  2  1  1  6
  2  3  1  0
  4  2  1  0
  4  5  1  6
  6  7  2  0
  6  4  1  0
  8  6  1  0
  9  8  1  0
  9 10  1  1
 11 10  1  0
 11 19  1  0
 12 13  1  0
 12 11  2  0
 13 14  1  0
 14 15  2  0
 14 19  1  0
 15 16  1  0
 16 17  2  0
 18 17  1  0
 19 18  2  0
 20 21  2  0
 20  9  1  0
 22 20  1  0
 23 22  1  0
 23 24  1  1
 25 24  1  0
 25 26  2  0
 27 26  1  0
 28 27  1  0
 29 28  2  0
 30 29  1  0
 31 30  2  0
 31 32  1  0
 32 33  2  0
 33 28  1  0
 33 25  1  0
 34 23  1  0
 35 34  1  0
 36 34  2  0
M  END
$$$$
