TWW.pdb
     RDKit          3D

 36 39  0  0  1  0  0  0  0  0999 V2000
   23.0134  -21.0826  -15.5417 C   0  0  0  0  0  0  0  0  0  0  0  0
   23.7858  -21.3316  -14.2881 C   0  0  1  0  0  0  0  0  0  0  0  0
   23.0508  -22.0557  -13.3370 O   0  0  0  0  0  0  0  0  0  0  0  0
   25.1256  -21.9807  -14.5127 C   0  0  2  0  0  0  0  0  0  0  0  0
   25.0148  -23.2341  -15.2116 N   0  0  0  0  0  0  0  0  0  0  0  0
   25.8201  -22.1205  -13.2161 C   0  0  0  0  0  0  0  0  0  0  0  0
   25.8976  -23.2540  -12.6856 O   0  0  0  0  0  0  0  0  0  0  0  0
   26.3896  -21.0173  -12.5735 N   0  0  0  0  0  0  0  0  0  0  0  0
   27.1335  -21.0764  -11.3337 C   0  0  1  0  0  0  0  0  0  0  0  0
   28.3459  -20.1487  -11.4418 C   0  0  0  0  0  0  0  0  0  0  0  0
   29.5683  -20.8881  -11.7912 C   0  0  0  0  0  0  0  0  0  0  0  0
   30.0230  -21.1378  -13.0706 C   0  0  0  0  0  0  0  0  0  0  0  0
   31.1702  -21.8403  -13.0170 N   0  0  0  0  0  0  0  0  0  0  0  0
   31.4727  -22.0535  -11.7210 C   0  0  0  0  0  0  0  0  0  0  0  0
   32.4970  -22.6945  -11.0588 C   0  0  0  0  0  0  0  0  0  0  0  0
   32.5525  -22.7590   -9.6820 C   0  0  0  0  0  0  0  0  0  0  0  0
   31.5532  -22.1644   -8.9426 C   0  0  0  0  0  0  0  0  0  0  0  0
   30.5090  -21.5124   -9.5606 C   0  0  0  0  0  0  0  0  0  0  0  0
   30.4851  -21.4672  -10.9377 C   0  0  0  0  0  0  0  0  0  0  0  0
   26.2649  -20.5559  -10.2507 C   0  0  0  0  0  0  0  0  0  0  0  0
   25.5522  -19.5168  -10.3962 O   0  0  0  0  0  0  0  0  0  0  0  0
   26.1946  -21.2050   -8.9950 N   0  0  0  0  0  0  0  0  0  0  0  0
   25.2835  -20.7869   -7.9502 C   0  0  1  0  0  0  0  0  0  0  0  0
   25.6330  -19.3477   -7.6258 C   0  0  0  0  0  0  0  0  0  0  0  0
   26.9572  -19.1915   -7.0079 C   0  0  0  0  0  0  0  0  0  0  0  0
   27.9981  -18.4327   -7.4967 C   0  0  0  0  0  0  0  0  0  0  0  0
   29.0215  -18.5639   -6.6346 N   0  0  0  0  0  0  0  0  0  0  0  0
   28.6697  -19.3756   -5.6193 C   0  0  0  0  0  0  0  0  0  0  0  0
   29.3611  -19.8095   -4.5080 C   0  0  0  0  0  0  0  0  0  0  0  0
   28.7072  -20.6552   -3.6356 C   0  0  0  0  0  0  0  0  0  0  0  0
   27.4105  -21.0780   -3.8264 C   0  0  0  0  0  0  0  0  0  0  0  0
   26.7240  -20.6448   -4.9336 C   0  0  0  0  0  0  0  0  0  0  0  0
   27.3669  -19.7995   -5.8126 C   0  0  0  0  0  0  0  0  0  0  0  0
   23.9061  -20.9349   -8.4471 C   0  0  0  0  0  0  0  0  0  0  0  0
   23.4893  -20.5186   -9.7022 O   0  0  0  0  0  0  0  0  0  0  0  0
   23.0515  -21.4689   -7.6961 O   0  0  0  0  0  0  0  0  0  0  0  0
  2  1  1  6
  2  3  1  0
  4  2  1  0
  4  5  1  1
  6  7  2  0
  6  4  1  0
  8  6  1  0
  9  8  1  0
  9 10  1  6
 11 10  1  0
 11 19  1  0
 12 13  1  0
 12 11  2  0
 13 14  1  0
 14 15  2  0
 14 19  1  0
 15 16  1  0
 16 17  2  0
 18 17  1  0
 19 18  2  0
 20 21  2  0
 20  9  1  0
 22 20  1  0
 23 22  1  0
 23 24  1  6
 25 24  1  0
 25 26  2  0
 27 26  1  0
 28 27  1  0
 29 28  2  0
 30 29  1  0
 31 30  2  0
 31 32  1  0
 32 33  2  0
 33 28  1  0
 33 25  1  0
 34 23  1  0
 35 34  1  0
 36 34  2  0
M  END
$$$$
