TWW.pdb
     RDKit          3D

 36 39  0  0  1  0  0  0  0  0999 V2000
   28.7603  -25.3143  -19.3952 C   0  0  0  0  0  0  0  0  0  0  0  0
   28.4831  -24.5120  -18.1664 C   0  0  1  0  0  0  0  0  0  0  0  0
   27.9082  -25.2781  -17.1408 O   0  0  0  0  0  0  0  0  0  0  0  0
   29.6773  -23.7585  -17.6443 C   0  0  2  0  0  0  0  0  0  0  0  0
   30.7402  -24.6373  -17.2324 N   0  0  0  0  0  0  0  0  0  0  0  0
   29.2438  -22.8548  -16.5587 C   0  0  0  0  0  0  0  0  0  0  0  0
   29.6595  -23.0590  -15.3936 O   0  0  0  0  0  0  0  0  0  0  0  0
   28.3831  -21.7814  -16.8063 N   0  0  0  0  0  0  0  0  0  0  0  0
   28.0459  -20.7539  -15.8448 C   0  0  1  0  0  0  0  0  0  0  0  0
   27.3238  -19.6169  -16.5715 C   0  0  0  0  0  0  0  0  0  0  0  0
   26.8485  -18.5871  -15.6352 C   0  0  0  0  0  0  0  0  0  0  0  0
   27.6348  -17.8722  -14.7539 C   0  0  0  0  0  0  0  0  0  0  0  0
   26.8690  -17.0159  -14.0521 N   0  0  0  0  0  0  0  0  0  0  0  0
   25.5931  -17.1599  -14.4616 C   0  0  0  0  0  0  0  0  0  0  0  0
   24.3944  -16.5727  -14.1197 C   0  0  0  0  0  0  0  0  0  0  0  0
   23.2057  -16.9280  -14.7228 C   0  0  0  0  0  0  0  0  0  0  0  0
   23.2142  -17.9008  -15.6987 C   0  0  0  0  0  0  0  0  0  0  0  0
   24.3882  -18.5159  -16.0736 C   0  0  0  0  0  0  0  0  0  0  0  0
   25.5573  -18.1366  -15.4504 C   0  0  0  0  0  0  0  0  0  0  0  0
   27.0969  -21.3345  -14.8646 C   0  0  0  0  0  0  0  0  0  0  0  0
   26.1899  -22.1533  -15.2051 O   0  0  0  0  0  0  0  0  0  0  0  0
   27.1651  -20.9948  -13.4924 N   0  0  0  0  0  0  0  0  0  0  0  0
   26.3469  -21.6401  -12.4871 C   0  0  1  0  0  0  0  0  0  0  0  0
   27.2432  -21.8702  -11.2862 C   0  0  0  0  0  0  0  0  0  0  0  0
   26.9250  -21.0031  -10.1431 C   0  0  0  0  0  0  0  0  0  0  0  0
   25.7032  -20.4249   -9.8765 C   0  0  0  0  0  0  0  0  0  0  0  0
   25.8415  -19.7134   -8.7440 N   0  0  0  0  0  0  0  0  0  0  0  0
   27.1025  -19.8183   -8.2831 C   0  0  0  0  0  0  0  0  0  0  0  0
   27.7234  -19.2815   -7.1751 C   0  0  0  0  0  0  0  0  0  0  0  0
   29.0547  -19.5846   -6.9761 C   0  0  0  0  0  0  0  0  0  0  0  0
   29.7789  -20.3901   -7.8266 C   0  0  0  0  0  0  0  0  0  0  0  0
   29.1587  -20.9235   -8.9292 C   0  0  0  0  0  0  0  0  0  0  0  0
   27.8286  -20.6276   -9.1387 C   0  0  0  0  0  0  0  0  0  0  0  0
   25.2069  -20.7612  -12.1804 C   0  0  0  0  0  0  0  0  0  0  0  0
   25.2215  -19.3866  -12.3609 O   0  0  0  0  0  0  0  0  0  0  0  0
   24.1549  -21.2789  -11.7280 O   0  0  0  0  0  0  0  0  0  0  0  0
  2  1  1  6
  2  3  1  0
  4  2  1  0
  4  5  1  1
  6  7  2  0
  6  4  1  0
  8  6  1  0
  9  8  1  0
  9 10  1  6
 11 10  1  0
 11 19  1  0
 12 13  1  0
 12 11  2  0
 13 14  1  0
 14 15  2  0
 14 19  1  0
 15 16  1  0
 16 17  2  0
 18 17  1  0
 19 18  2  0
 20 21  2  0
 20  9  1  0
 22 20  1  0
 23 22  1  0
 23 24  1  1
 25 24  1  0
 25 26  2  0
 27 26  1  0
 28 27  1  0
 29 28  2  0
 30 29  1  0
 31 30  2  0
 31 32  1  0
 32 33  2  0
 33 28  1  0
 33 25  1  0
 34 23  1  0
 35 34  1  0
 36 34  2  0
M  END
$$$$
