TWW.pdb
     RDKit          3D

 36 39  0  0  1  0  0  0  0  0999 V2000
   29.5969  -34.6223  -16.1573 C   0  0  0  0  0  0  0  0  0  0  0  0
   28.6383  -33.4961  -16.3649 C   0  0  1  0  0  0  0  0  0  0  0  0
   28.0238  -33.0846  -15.1723 O   0  0  0  0  0  0  0  0  0  0  0  0
   29.2310  -32.3108  -17.0793 C   0  0  2  0  0  0  0  0  0  0  0  0
   30.2539  -31.6607  -16.3029 N   0  0  0  0  0  0  0  0  0  0  0  0
   28.1461  -31.3851  -17.4654 C   0  0  0  0  0  0  0  0  0  0  0  0
   28.0787  -30.2614  -16.9133 O   0  0  0  0  0  0  0  0  0  0  0  0
   27.1984  -31.7378  -18.4306 N   0  0  0  0  0  0  0  0  0  0  0  0
   26.2226  -30.8334  -18.9998 C   0  0  1  0  0  0  0  0  0  0  0  0
   25.8819  -31.3038  -20.4158 C   0  0  0  0  0  0  0  0  0  0  0  0
   24.9760  -30.3671  -21.0978 C   0  0  0  0  0  0  0  0  0  0  0  0
   25.2297  -29.0324  -21.3428 C   0  0  0  0  0  0  0  0  0  0  0  0
   24.1835  -28.4807  -21.9857 N   0  0  0  0  0  0  0  0  0  0  0  0
   23.2490  -29.4352  -22.1650 C   0  0  0  0  0  0  0  0  0  0  0  0
   21.9988  -29.4697  -22.7435 C   0  0  0  0  0  0  0  0  0  0  0  0
   21.2419  -30.6221  -22.7848 C   0  0  0  0  0  0  0  0  0  0  0  0
   21.7493  -31.7772  -22.2308 C   0  0  0  0  0  0  0  0  0  0  0  0
   22.9943  -31.7910  -21.6414 C   0  0  0  0  0  0  0  0  0  0  0  0
   23.7233  -30.6218  -21.6178 C   0  0  0  0  0  0  0  0  0  0  0  0
   24.9853  -30.9209  -18.1876 C   0  0  0  0  0  0  0  0  0  0  0  0
   24.5639  -32.0196  -17.7139 O   0  0  0  0  0  0  0  0  0  0  0  0
   24.2144  -29.7683  -17.9043 N   0  0  0  0  0  0  0  0  0  0  0  0
   23.0722  -29.7927  -17.0147 C   0  0  1  0  0  0  0  0  0  0  0  0
   22.8475  -28.3625  -16.5645 C   0  0  0  0  0  0  0  0  0  0  0  0
   22.0781  -27.5600  -17.5255 C   0  0  0  0  0  0  0  0  0  0  0  0
   20.7167  -27.3488  -17.5025 C   0  0  0  0  0  0  0  0  0  0  0  0
   20.4210  -26.5636  -18.5532 N   0  0  0  0  0  0  0  0  0  0  0  0
   21.5411  -26.2691  -19.2403 C   0  0  0  0  0  0  0  0  0  0  0  0
   21.7519  -25.5110  -20.3725 C   0  0  0  0  0  0  0  0  0  0  0  0
   23.0459  -25.4003  -20.8386 C   0  0  0  0  0  0  0  0  0  0  0  0
   24.1208  -26.0074  -20.2280 C   0  0  0  0  0  0  0  0  0  0  0  0
   23.9086  -26.7619  -19.1008 C   0  0  0  0  0  0  0  0  0  0  0  0
   22.6198  -26.8799  -18.6257 C   0  0  0  0  0  0  0  0  0  0  0  0
   21.9210  -30.3404  -17.7501 C   0  0  0  0  0  0  0  0  0  0  0  0
   20.7248  -30.7046  -17.1514 O   0  0  0  0  0  0  0  0  0  0  0  0
   22.0199  -30.4898  -18.9940 O   0  0  0  0  0  0  0  0  0  0  0  0
  2  1  1  1
  2  3  1  0
  4  2  1  0
  4  5  1  1
  6  7  2  0
  6  4  1  0
  8  6  1  0
  9  8  1  0
  9 10  1  6
 11 10  1  0
 11 19  1  0
 12 13  1  0
 12 11  2  0
 13 14  1  0
 14 15  2  0
 14 19  1  0
 15 16  1  0
 16 17  2  0
 18 17  1  0
 19 18  2  0
 20 21  2  0
 20  9  1  0
 22 20  1  0
 23 22  1  0
 23 24  1  6
 25 24  1  0
 25 26  2  0
 27 26  1  0
 28 27  1  0
 29 28  2  0
 30 29  1  0
 31 30  2  0
 31 32  1  0
 32 33  2  0
 33 28  1  0
 33 25  1  0
 34 23  1  0
 35 34  1  0
 36 34  2  0
M  END
$$$$
