TWW.pdb
     RDKit          3D

 36 39  0  0  1  0  0  0  0  0999 V2000
   19.6964  -20.1237   -9.8317 C   0  0  0  0  0  0  0  0  0  0  0  0
   20.6073  -20.7242  -10.8515 C   0  0  1  0  0  0  0  0  0  0  0  0
   20.7395  -22.1135  -10.7047 O   0  0  0  0  0  0  0  0  0  0  0  0
   20.2446  -20.3846  -12.2727 C   0  0  2  0  0  0  0  0  0  0  0  0
   19.0375  -21.0417  -12.7001 N   0  0  0  0  0  0  0  0  0  0  0  0
   21.3918  -20.6905  -13.1523 C   0  0  0  0  0  0  0  0  0  0  0  0
   21.4360  -21.8017  -13.7315 O   0  0  0  0  0  0  0  0  0  0  0  0
   22.4233  -19.7679  -13.3493 N   0  0  0  0  0  0  0  0  0  0  0  0
   23.5374  -19.9547  -14.2538 C   0  0  1  0  0  0  0  0  0  0  0  0
   23.5737  -18.7842  -15.2391 C   0  0  0  0  0  0  0  0  0  0  0  0
   22.5163  -18.8945  -16.2554 C   0  0  0  0  0  0  0  0  0  0  0  0
   21.3430  -18.1674  -16.2821 C   0  0  0  0  0  0  0  0  0  0  0  0
   20.6095  -18.5260  -17.3524 N   0  0  0  0  0  0  0  0  0  0  0  0
   21.2859  -19.4771  -18.0265 C   0  0  0  0  0  0  0  0  0  0  0  0
   21.0476  -20.2080  -19.1700 C   0  0  0  0  0  0  0  0  0  0  0  0
   21.9444  -21.1440  -19.6418 C   0  0  0  0  0  0  0  0  0  0  0  0
   23.1168  -21.3569  -18.9497 C   0  0  0  0  0  0  0  0  0  0  0  0
   23.3984  -20.6500  -17.8015 C   0  0  0  0  0  0  0  0  0  0  0  0
   22.4801  -19.7228  -17.3586 C   0  0  0  0  0  0  0  0  0  0  0  0
   24.7880  -19.9112  -13.4586 C   0  0  0  0  0  0  0  0  0  0  0  0
   25.0283  -18.9842  -12.6268 O   0  0  0  0  0  0  0  0  0  0  0  0
   25.7768  -20.9144  -13.5967 N   0  0  0  0  0  0  0  0  0  0  0  0
   27.0386  -20.8692  -12.8880 C   0  0  1  0  0  0  0  0  0  0  0  0
   26.9185  -21.8449  -11.7338 C   0  0  0  0  0  0  0  0  0  0  0  0
   26.6393  -21.1961  -10.4451 C   0  0  0  0  0  0  0  0  0  0  0  0
   25.4157  -20.7279  -10.0187 C   0  0  0  0  0  0  0  0  0  0  0  0
   25.5969  -20.2094   -8.7915 N   0  0  0  0  0  0  0  0  0  0  0  0
   26.8867  -20.3308   -8.4239 C   0  0  0  0  0  0  0  0  0  0  0  0
   27.5542  -19.9578   -7.2765 C   0  0  0  0  0  0  0  0  0  0  0  0
   28.9054  -20.2276   -7.2040 C   0  0  0  0  0  0  0  0  0  0  0  0
   29.6053  -20.8455   -8.2165 C   0  0  0  0  0  0  0  0  0  0  0  0
   28.9388  -21.2160   -9.3581 C   0  0  0  0  0  0  0  0  0  0  0  0
   27.5883  -20.9516   -9.4421 C   0  0  0  0  0  0  0  0  0  0  0  0
   28.1125  -21.2341  -13.8260 C   0  0  0  0  0  0  0  0  0  0  0  0
   29.4633  -21.1201  -13.5353 O   0  0  0  0  0  0  0  0  0  0  0  0
   27.7950  -21.6758  -14.9589 O   0  0  0  0  0  0  0  0  0  0  0  0
  2  1  1  1
  2  3  1  0
  4  2  1  0
  4  5  1  6
  6  7  2  0
  6  4  1  0
  8  6  1  0
  9  8  1  0
  9 10  1  6
 11 10  1  0
 11 19  1  0
 12 13  1  0
 12 11  2  0
 13 14  1  0
 14 15  2  0
 14 19  1  0
 15 16  1  0
 16 17  2  0
 18 17  1  0
 19 18  2  0
 20 21  2  0
 20  9  1  0
 22 20  1  0
 23 22  1  0
 23 24  1  1
 25 24  1  0
 25 26  2  0
 27 26  1  0
 28 27  1  0
 29 28  2  0
 30 29  1  0
 31 30  2  0
 31 32  1  0
 32 33  2  0
 33 28  1  0
 33 25  1  0
 34 23  1  0
 35 34  1  0
 36 34  2  0
M  END
$$$$
