TWW.pdb
     RDKit          3D

 36 39  0  0  1  0  0  0  0  0999 V2000
   25.2491  -21.9672  -17.0995 C   0  0  0  0  0  0  0  0  0  0  0  0
   26.1690  -20.9143  -16.5749 C   0  0  1  0  0  0  0  0  0  0  0  0
   25.4823  -19.7860  -16.1009 O   0  0  0  0  0  0  0  0  0  0  0  0
   27.1359  -21.4094  -15.5324 C   0  0  2  0  0  0  0  0  0  0  0  0
   27.9866  -22.4580  -16.0308 N   0  0  0  0  0  0  0  0  0  0  0  0
   26.3831  -21.8215  -14.3296 C   0  0  0  0  0  0  0  0  0  0  0  0
   25.9648  -23.0006  -14.2470 O   0  0  0  0  0  0  0  0  0  0  0  0
   26.1304  -20.9248  -13.2873 N   0  0  0  0  0  0  0  0  0  0  0  0
   25.4983  -21.2728  -12.0330 C   0  0  1  0  0  0  0  0  0  0  0  0
   25.9500  -20.2782  -10.9610 C   0  0  0  0  0  0  0  0  0  0  0  0
   27.1989  -20.7059  -10.3128 C   0  0  0  0  0  0  0  0  0  0  0  0
   28.2362  -21.3808  -10.9247 C   0  0  0  0  0  0  0  0  0  0  0  0
   29.2183  -21.6110  -10.0332 N   0  0  0  0  0  0  0  0  0  0  0  0
   28.8386  -21.0963   -8.8468 C   0  0  0  0  0  0  0  0  0  0  0  0
   29.4094  -21.0264   -7.5946 C   0  0  0  0  0  0  0  0  0  0  0  0
   28.7722  -20.4210   -6.5314 C   0  0  0  0  0  0  0  0  0  0  0  0
   27.5251  -19.8677   -6.7247 C   0  0  0  0  0  0  0  0  0  0  0  0
   26.9148  -19.9135   -7.9587 C   0  0  0  0  0  0  0  0  0  0  0  0
   27.5799  -20.5260   -8.9986 C   0  0  0  0  0  0  0  0  0  0  0  0
   24.0327  -21.1200  -12.1983 C   0  0  0  0  0  0  0  0  0  0  0  0
   23.5214  -20.1429  -12.8251 O   0  0  0  0  0  0  0  0  0  0  0  0
   23.1336  -22.0695  -11.6571 N   0  0  0  0  0  0  0  0  0  0  0  0
   21.6963  -21.9384  -11.7739 C   0  0  1  0  0  0  0  0  0  0  0  0
   21.0985  -23.1775  -11.1370 C   0  0  0  0  0  0  0  0  0  0  0  0
   19.6290  -23.1805  -11.1279 C   0  0  0  0  0  0  0  0  0  0  0  0
   18.8088  -23.0217  -12.2236 C   0  0  0  0  0  0  0  0  0  0  0  0
   17.5410  -23.0869  -11.7807 N   0  0  0  0  0  0  0  0  0  0  0  0
   17.5259  -23.2808  -10.4481 C   0  0  0  0  0  0  0  0  0  0  0  0
   16.4876  -23.4123   -9.5504 C   0  0  0  0  0  0  0  0  0  0  0  0
   16.8085  -23.6054   -8.2224 C   0  0  0  0  0  0  0  0  0  0  0  0
   18.1051  -23.6714   -7.7629 C   0  0  0  0  0  0  0  0  0  0  0  0
   19.1374  -23.5402   -8.6584 C   0  0  0  0  0  0  0  0  0  0  0  0
   18.8292  -23.3467   -9.9882 C   0  0  0  0  0  0  0  0  0  0  0  0
   21.2853  -20.6998  -11.0934 C   0  0  0  0  0  0  0  0  0  0  0  0
   20.1525  -19.9742  -11.4287 O   0  0  0  0  0  0  0  0  0  0  0  0
   21.9972  -20.2678  -10.1522 O   0  0  0  0  0  0  0  0  0  0  0  0
  2  1  1  1
  2  3  1  0
  4  2  1  0
  4  5  1  6
  6  7  2  0
  6  4  1  0
  8  6  1  0
  9  8  1  0
  9 10  1  1
 11 10  1  0
 11 19  1  0
 12 13  1  0
 12 11  2  0
 13 14  1  0
 14 15  2  0
 14 19  1  0
 15 16  1  0
 16 17  2  0
 18 17  1  0
 19 18  2  0
 20 21  2  0
 20  9  1  0
 22 20  1  0
 23 22  1  0
 23 24  1  1
 25 24  1  0
 25 26  2  0
 27 26  1  0
 28 27  1  0
 29 28  2  0
 30 29  1  0
 31 30  2  0
 31 32  1  0
 32 33  2  0
 33 28  1  0
 33 25  1  0
 34 23  1  0
 35 34  1  0
 36 34  2  0
M  END
$$$$
