TWW.pdb
     RDKit          3D

 36 39  0  0  1  0  0  0  0  0999 V2000
   28.7354  -22.0828  -16.3556 C   0  0  0  0  0  0  0  0  0  0  0  0
   27.9536  -21.5660  -15.1929 C   0  0  1  0  0  0  0  0  0  0  0  0
   28.7712  -21.0024  -14.2014 O   0  0  0  0  0  0  0  0  0  0  0  0
   26.8576  -20.6052  -15.5699 C   0  0  2  0  0  0  0  0  0  0  0  0
   27.3340  -19.5337  -16.4046 N   0  0  0  0  0  0  0  0  0  0  0  0
   26.2022  -20.1108  -14.3414 C   0  0  0  0  0  0  0  0  0  0  0  0
   26.3555  -18.9114  -14.0096 O   0  0  0  0  0  0  0  0  0  0  0  0
   25.4182  -20.9521  -13.5466 N   0  0  0  0  0  0  0  0  0  0  0  0
   24.6811  -20.5309  -12.3746 C   0  0  1  0  0  0  0  0  0  0  0  0
   23.2530  -21.0730  -12.4696 C   0  0  0  0  0  0  0  0  0  0  0  0
   22.3615  -20.1389  -13.1736 C   0  0  0  0  0  0  0  0  0  0  0  0
   22.2944  -19.9622  -14.5412 C   0  0  0  0  0  0  0  0  0  0  0  0
   21.3699  -19.0288  -14.8349 N   0  0  0  0  0  0  0  0  0  0  0  0
   20.8310  -18.5923  -13.6792 C   0  0  0  0  0  0  0  0  0  0  0  0
   19.8641  -17.6672  -13.3505 C   0  0  0  0  0  0  0  0  0  0  0  0
   19.5031  -17.4175  -12.0427 C   0  0  0  0  0  0  0  0  0  0  0  0
   20.1274  -18.1138  -11.0308 C   0  0  0  0  0  0  0  0  0  0  0  0
   21.0999  -19.0482  -11.3110 C   0  0  0  0  0  0  0  0  0  0  0  0
   21.4359  -19.2724  -12.6285 C   0  0  0  0  0  0  0  0  0  0  0  0
   25.3170  -21.1468  -11.1852 C   0  0  0  0  0  0  0  0  0  0  0  0
   25.6410  -22.3727  -11.1505 O   0  0  0  0  0  0  0  0  0  0  0  0
   25.5919  -20.3829  -10.0260 N   0  0  0  0  0  0  0  0  0  0  0  0
   26.1811  -20.9571   -8.8345 C   0  0  1  0  0  0  0  0  0  0  0  0
   26.8200  -19.8106   -8.0756 C   0  0  0  0  0  0  0  0  0  0  0  0
   27.3759  -20.2071   -6.7743 C   0  0  0  0  0  0  0  0  0  0  0  0
   27.2513  -21.4438   -6.1797 C   0  0  0  0  0  0  0  0  0  0  0  0
   27.9020  -21.3845   -5.0046 N   0  0  0  0  0  0  0  0  0  0  0  0
   28.4337  -20.1593   -4.8317 C   0  0  0  0  0  0  0  0  0  0  0  0
   29.1780  -19.6172   -3.8053 C   0  0  0  0  0  0  0  0  0  0  0  0
   29.5819  -18.3038   -3.9303 C   0  0  0  0  0  0  0  0  0  0  0  0
   29.2766  -17.5228   -5.0227 C   0  0  0  0  0  0  0  0  0  0  0  0
   28.5354  -18.0645   -6.0435 C   0  0  0  0  0  0  0  0  0  0  0  0
   28.1260  -19.3761   -5.9299 C   0  0  0  0  0  0  0  0  0  0  0  0
   25.1180  -21.6214   -8.0633 C   0  0  0  0  0  0  0  0  0  0  0  0
   23.7756  -21.2866   -8.1523 O   0  0  0  0  0  0  0  0  0  0  0  0
   25.4373  -22.5473   -7.2758 O   0  0  0  0  0  0  0  0  0  0  0  0
  2  1  1  6
  2  3  1  0
  4  2  1  0
  4  5  1  1
  6  7  2  0
  6  4  1  0
  8  6  1  0
  9  8  1  0
  9 10  1  6
 11 10  1  0
 11 19  1  0
 12 13  1  0
 12 11  2  0
 13 14  1  0
 14 15  2  0
 14 19  1  0
 15 16  1  0
 16 17  2  0
 18 17  1  0
 19 18  2  0
 20 21  2  0
 20  9  1  0
 22 20  1  0
 23 22  1  0
 23 24  1  1
 25 24  1  0
 25 26  2  0
 27 26  1  0
 28 27  1  0
 29 28  2  0
 30 29  1  0
 31 30  2  0
 31 32  1  0
 32 33  2  0
 33 28  1  0
 33 25  1  0
 34 23  1  0
 35 34  1  0
 36 34  2  0
M  END
$$$$
