YMN.pdb
     RDKit          3D

 29 29  0  0  1  0  0  0  0  0999 V2000
    7.7772  -14.0440   15.0511 O   0  0  0  0  0  0  0  0  0  0  0  0
    7.7764  -13.8863   16.4350 C   0  0  0  0  0  0  0  0  0  0  0  0
    8.6253  -13.0093   17.0770 C   0  0  0  0  0  0  0  0  0  0  0  0
    8.6150  -12.8613   18.4561 C   0  0  0  0  0  0  0  0  0  0  0  0
    7.7501  -13.5892   19.2471 C   0  0  0  0  0  0  0  0  0  0  0  0
    7.6977  -13.4694   20.7290 C   0  0  0  0  0  0  0  0  0  0  0  0
    8.6844  -14.4551   21.2910 C   0  0  2  0  0  0  0  0  0  0  0  0
    8.2335  -15.7886   20.9381 N   0  0  0  0  0  0  0  0  0  0  0  0
    8.8245  -14.3947   22.7514 C   0  0  0  0  0  0  0  0  0  0  0  0
    9.5982  -13.4948   23.2109 O   0  0  0  0  0  0  0  0  0  0  0  0
    6.9017  -14.4662   18.5996 C   0  0  0  0  0  0  0  0  0  0  0  0
    6.9116  -14.6141   17.2257 C   0  0  0  0  0  0  0  0  0  0  0  0
    7.2853  -11.5321   26.4767 C   0  0  0  0  0  0  0  0  0  0  0  0
    6.1250  -12.6756   27.2407 S   0  0  0  0  0  0  0  0  0  0  0  0
    6.7856  -14.3943   27.0767 C   0  0  0  0  0  0  0  0  0  0  0  0
    6.9501  -14.6309   25.6305 C   0  0  0  0  0  0  0  0  0  0  0  0
    8.2746  -15.0850   25.1298 C   0  0  2  0  0  0  0  0  0  0  0  0
    8.1588  -15.2661   23.6553 N   0  0  0  0  0  0  0  0  0  0  0  0
    8.8278  -16.3033   25.6952 C   0  0  0  0  0  0  0  0  0  0  0  0
    8.6951  -16.5674   26.9181 O   0  0  0  0  0  0  0  0  0  0  0  0
    9.2140  -19.6910   22.3719 N   0  0  0  0  0  0  0  0  0  0  0  0
    9.0927  -19.8247   23.7748 C   0  0  0  0  0  0  0  0  0  0  0  0
    7.9939  -20.1461   24.2772 O   0  0  0  0  0  0  0  0  0  0  0  0
   10.2635  -19.5824   24.6139 C   0  0  0  0  0  0  0  0  0  0  0  0
   10.1264  -18.4066   25.5604 C   0  0  2  0  0  0  0  0  0  0  0  0
    9.5323  -17.2477   24.9093 N   0  0  0  0  0  0  0  0  0  0  0  0
   11.3915  -18.0190   26.1715 C   0  0  0  0  0  0  0  0  0  0  0  0
   11.7134  -18.4328   27.3143 O   0  0  0  0  0  0  0  0  0  0  0  0
   12.2745  -17.1854   25.5130 O   0  0  0  0  0  0  0  0  0  0  0  0
  2 12  2  0
  2  1  1  0
  3  2  1  0
  4  5  1  0
  4  3  2  0
  5 11  2  0
  6  5  1  0
  7  6  1  0
  7  8  1  1
  9 10  2  0
  9  7  1  0
 11 12  1  0
 13 14  1  0
 14 15  1  0
 16 15  1  0
 17 16  1  1
 17 18  1  0
 18  9  1  0
 19 17  1  0
 19 26  1  0
 20 19  2  0
 21 22  1  0
 22 24  1  0
 23 22  2  0
 25 24  1  6
 25 26  1  0
 25 27  1  0
 27 29  1  0
 28 27  2  0
M  END
$$$$
