YMN.pdb
     RDKit          3D

 29 29  0  0  1  0  0  0  0  0999 V2000
    7.9400  -14.4068   15.2019 O   0  0  0  0  0  0  0  0  0  0  0  0
    8.1791  -14.2198   16.5613 C   0  0  0  0  0  0  0  0  0  0  0  0
    9.4256  -14.4031   17.1222 C   0  0  0  0  0  0  0  0  0  0  0  0
    9.6509  -14.2137   18.4776 C   0  0  0  0  0  0  0  0  0  0  0  0
    8.6318  -13.8321   19.3257 C   0  0  0  0  0  0  0  0  0  0  0  0
    8.8186  -13.6156   20.7856 C   0  0  0  0  0  0  0  0  0  0  0  0
    9.0316  -14.9656   21.4127 C   0  0  2  0  0  0  0  0  0  0  0  0
    7.9171  -15.8145   21.0340 N   0  0  0  0  0  0  0  0  0  0  0  0
    9.1047  -14.9393   22.8790 C   0  0  0  0  0  0  0  0  0  0  0  0
   10.1642  -14.4495   23.3860 O   0  0  0  0  0  0  0  0  0  0  0  0
    7.3851  -13.6497   18.7594 C   0  0  0  0  0  0  0  0  0  0  0  0
    7.1599  -13.8382   17.4091 C   0  0  0  0  0  0  0  0  0  0  0  0
    7.0547  -10.8915   27.1600 C   0  0  0  0  0  0  0  0  0  0  0  0
    5.8449  -12.0916   26.5824 S   0  0  0  0  0  0  0  0  0  0  0  0
    6.5420  -13.7907   26.7938 C   0  0  0  0  0  0  0  0  0  0  0  0
    6.8024  -14.2961   25.4332 C   0  0  0  0  0  0  0  0  0  0  0  0
    8.0543  -15.0593   25.1850 C   0  0  2  0  0  0  0  0  0  0  0  0
    8.0809  -15.4197   23.7394 N   0  0  0  0  0  0  0  0  0  0  0  0
    8.2712  -16.2692   25.9591 C   0  0  0  0  0  0  0  0  0  0  0  0
    8.1501  -16.2665   27.2113 O   0  0  0  0  0  0  0  0  0  0  0  0
    6.1079  -19.8647   24.3845 N   0  0  0  0  0  0  0  0  0  0  0  0
    6.7248  -19.7237   25.6495 C   0  0  0  0  0  0  0  0  0  0  0  0
    6.0303  -19.4609   26.6553 O   0  0  0  0  0  0  0  0  0  0  0  0
    8.1722  -19.8897   25.7549 C   0  0  0  0  0  0  0  0  0  0  0  0
    8.9170  -18.6469   26.1998 C   0  0  2  0  0  0  0  0  0  0  0  0
    8.6212  -17.5003   25.3526 N   0  0  0  0  0  0  0  0  0  0  0  0
   10.3602  -18.8408   26.2602 C   0  0  0  0  0  0  0  0  0  0  0  0
   10.8628  -19.7560   26.9606 O   0  0  0  0  0  0  0  0  0  0  0  0
   11.2186  -18.0246   25.5494 O   0  0  0  0  0  0  0  0  0  0  0  0
  2 12  2  0
  2  1  1  0
  3  2  1  0
  4  5  1  0
  4  3  2  0
  5 11  2  0
  6  5  1  0
  7  6  1  0
  7  8  1  1
  9 10  2  0
  9  7  1  0
 11 12  1  0
 13 14  1  0
 14 15  1  0
 16 15  1  0
 17 16  1  1
 17 18  1  0
 18  9  1  0
 19 17  1  0
 19 26  1  0
 20 19  2  0
 21 22  1  0
 22 24  1  0
 23 22  2  0
 25 24  1  6
 25 26  1  0
 25 27  1  0
 27 29  1  0
 28 27  2  0
M  END
$$$$
