YMN.pdb
     RDKit          3D

 29 29  0  0  1  0  0  0  0  0999 V2000
    5.6498  -11.0990   28.2292 O   0  0  0  0  0  0  0  0  0  0  0  0
    6.3228  -12.0772   27.5009 C   0  0  0  0  0  0  0  0  0  0  0  0
    7.5678  -12.5431   27.8680 C   0  0  0  0  0  0  0  0  0  0  0  0
    8.2278  -13.5176   27.1342 C   0  0  0  0  0  0  0  0  0  0  0  0
    7.6630  -14.0644   26.0004 C   0  0  0  0  0  0  0  0  0  0  0  0
    8.3269  -15.1109   25.1774 C   0  0  0  0  0  0  0  0  0  0  0  0
    7.2415  -15.9606   24.5766 C   0  0  2  0  0  0  0  0  0  0  0  0
    6.5783  -16.6671   25.6568 N   0  0  0  0  0  0  0  0  0  0  0  0
    7.7261  -16.9566   23.6126 C   0  0  0  0  0  0  0  0  0  0  0  0
    6.9638  -17.9516   23.3924 O   0  0  0  0  0  0  0  0  0  0  0  0
    6.4160  -13.5947   25.6366 C   0  0  0  0  0  0  0  0  0  0  0  0
    5.7579  -12.6238   26.3672 C   0  0  0  0  0  0  0  0  0  0  0  0
    8.1248  -12.0682   20.0638 C   0  0  0  0  0  0  0  0  0  0  0  0
    7.5402  -13.7038   19.5943 S   0  0  0  0  0  0  0  0  0  0  0  0
    7.0792  -14.6344   21.1236 C   0  0  0  0  0  0  0  0  0  0  0  0
    8.3282  -14.8036   21.8891 C   0  0  0  0  0  0  0  0  0  0  0  0
    9.1181  -16.0486   21.6961 C   0  0  2  0  0  0  0  0  0  0  0  0
    8.9696  -16.8701   22.9304 N   0  0  0  0  0  0  0  0  0  0  0  0
   10.5356  -15.9103   21.4100 C   0  0  0  0  0  0  0  0  0  0  0  0
   10.9383  -15.6462   20.2477 O   0  0  0  0  0  0  0  0  0  0  0  0
   12.1784  -20.4169   23.8887 N   0  0  0  0  0  0  0  0  0  0  0  0
   11.8335  -19.8159   22.6556 C   0  0  0  0  0  0  0  0  0  0  0  0
   12.0572  -20.4200   21.5842 O   0  0  0  0  0  0  0  0  0  0  0  0
   11.2181  -18.4912   22.6603 C   0  0  0  0  0  0  0  0  0  0  0  0
   12.1998  -17.3413   22.5551 C   0  0  2  0  0  0  0  0  0  0  0  0
   11.5255  -16.0588   22.4120 N   0  0  0  0  0  0  0  0  0  0  0  0
   13.1541  -17.5071   21.4661 C   0  0  0  0  0  0  0  0  0  0  0  0
   12.8224  -17.2854   20.2738 O   0  0  0  0  0  0  0  0  0  0  0  0
   14.4515  -17.9128   21.7119 O   0  0  0  0  0  0  0  0  0  0  0  0
  2 12  2  0
  2  1  1  0
  3  2  1  0
  4  5  1  0
  4  3  2  0
  5 11  2  0
  6  5  1  0
  7  6  1  0
  7  8  1  1
  9 10  2  0
  9  7  1  0
 11 12  1  0
 13 14  1  0
 14 15  1  0
 16 15  1  0
 17 16  1  1
 17 18  1  0
 18  9  1  0
 19 17  1  0
 19 26  1  0
 20 19  2  0
 21 22  1  0
 22 24  1  0
 23 22  2  0
 25 24  1  6
 25 26  1  0
 25 27  1  0
 27 29  1  0
 28 27  2  0
M  END
$$$$
