YMN.pdb
     RDKit          3D

 29 29  0  0  1  0  0  0  0  0999 V2000
    8.0558  -13.9943   15.8974 O   0  0  0  0  0  0  0  0  0  0  0  0
    8.2681  -13.8588   17.2673 C   0  0  0  0  0  0  0  0  0  0  0  0
    7.3776  -13.2006   18.0893 C   0  0  0  0  0  0  0  0  0  0  0  0
    7.6005  -13.0723   19.4523 C   0  0  0  0  0  0  0  0  0  0  0  0
    8.7285  -13.6007   20.0455 C   0  0  0  0  0  0  0  0  0  0  0  0
    9.0163  -13.4916   21.5009 C   0  0  0  0  0  0  0  0  0  0  0  0
    9.1666  -14.8905   22.0316 C   0  0  2  0  0  0  0  0  0  0  0  0
    8.0830  -15.6912   21.4925 N   0  0  0  0  0  0  0  0  0  0  0  0
    9.1150  -14.9835   23.4961 C   0  0  0  0  0  0  0  0  0  0  0  0
    9.9934  -14.3236   24.1383 O   0  0  0  0  0  0  0  0  0  0  0  0
    9.6175  -14.2590   19.2181 C   0  0  0  0  0  0  0  0  0  0  0  0
    9.3961  -14.3872   17.8602 C   0  0  0  0  0  0  0  0  0  0  0  0
    6.5466  -11.3425   27.4328 C   0  0  0  0  0  0  0  0  0  0  0  0
    7.1980  -13.0182   27.3622 S   0  0  0  0  0  0  0  0  0  0  0  0
    6.3748  -13.9204   25.9745 C   0  0  0  0  0  0  0  0  0  0  0  0
    6.7620  -15.3356   26.1226 C   0  0  0  0  0  0  0  0  0  0  0  0
    8.1286  -15.7469   25.7051 C   0  0  2  0  0  0  0  0  0  0  0  0
    8.1603  -15.7520   24.2154 N   0  0  0  0  0  0  0  0  0  0  0  0
    8.6193  -17.0311   26.1745 C   0  0  0  0  0  0  0  0  0  0  0  0
    8.5383  -17.3501   27.3888 O   0  0  0  0  0  0  0  0  0  0  0  0
    8.4323  -19.8628   23.7016 N   0  0  0  0  0  0  0  0  0  0  0  0
    9.7970  -20.2318   23.6556 C   0  0  0  0  0  0  0  0  0  0  0  0
   10.2465  -20.8321   22.6553 O   0  0  0  0  0  0  0  0  0  0  0  0
   10.6594  -19.9010   24.7872 C   0  0  0  0  0  0  0  0  0  0  0  0
    9.9930  -19.0669   25.8630 C   0  0  2  0  0  0  0  0  0  0  0  0
    9.2025  -17.9810   25.3008 N   0  0  0  0  0  0  0  0  0  0  0  0
   10.9401  -18.5228   26.8279 C   0  0  0  0  0  0  0  0  0  0  0  0
   11.5114  -17.4212   26.6255 O   0  0  0  0  0  0  0  0  0  0  0  0
   11.2381  -19.2015   27.9935 O   0  0  0  0  0  0  0  0  0  0  0  0
  2 12  2  0
  2  1  1  0
  3  2  1  0
  4  5  1  0
  4  3  2  0
  5 11  2  0
  6  5  1  0
  7  6  1  0
  7  8  1  6
  9 10  2  0
  9  7  1  0
 11 12  1  0
 13 14  1  0
 14 15  1  0
 16 15  1  0
 17 16  1  6
 17 18  1  0
 18  9  1  0
 19 17  1  0
 19 26  1  0
 20 19  2  0
 21 22  1  0
 22 24  1  0
 23 22  2  0
 25 24  1  6
 25 26  1  0
 25 27  1  0
 27 29  1  0
 28 27  2  0
M  END
$$$$
