YMN.pdb
     RDKit          3D

 29 29  0  0  1  0  0  0  0  0999 V2000
   10.3700  -14.5587   31.0762 O   0  0  0  0  0  0  0  0  0  0  0  0
   10.2487  -14.8090   29.7114 C   0  0  0  0  0  0  0  0  0  0  0  0
    9.7515  -13.8706   28.8315 C   0  0  0  0  0  0  0  0  0  0  0  0
    9.6356  -14.1320   27.4743 C   0  0  0  0  0  0  0  0  0  0  0  0
   10.0150  -15.3484   26.9452 C   0  0  0  0  0  0  0  0  0  0  0  0
    9.9118  -15.6807   25.4989 C   0  0  0  0  0  0  0  0  0  0  0  0
    8.4511  -15.8476   25.1831 C   0  0  2  0  0  0  0  0  0  0  0  0
    7.9663  -17.0049   25.9121 N   0  0  0  0  0  0  0  0  0  0  0  0
    8.1675  -16.0572   23.7577 C   0  0  0  0  0  0  0  0  0  0  0  0
    7.6432  -17.1728   23.4411 O   0  0  0  0  0  0  0  0  0  0  0  0
   10.5124  -16.2851   27.8303 C   0  0  0  0  0  0  0  0  0  0  0  0
   10.6281  -16.0254   29.1825 C   0  0  0  0  0  0  0  0  0  0  0  0
    8.2539  -11.2287   19.8523 C   0  0  0  0  0  0  0  0  0  0  0  0
    7.1922  -12.2467   18.8161 S   0  0  0  0  0  0  0  0  0  0  0  0
    7.4714  -14.0242   19.2402 C   0  0  0  0  0  0  0  0  0  0  0  0
    7.8202  -14.0509   20.6728 C   0  0  0  0  0  0  0  0  0  0  0  0
    8.0755  -15.3658   21.3187 C   0  0  2  0  0  0  0  0  0  0  0  0
    8.4407  -15.1044   22.7394 N   0  0  0  0  0  0  0  0  0  0  0  0
    9.0986  -16.2163   20.7356 C   0  0  0  0  0  0  0  0  0  0  0  0
    9.0112  -16.6093   19.5436 O   0  0  0  0  0  0  0  0  0  0  0  0
   12.6473  -16.6186   18.2612 N   0  0  0  0  0  0  0  0  0  0  0  0
   12.5068  -15.3612   18.8934 C   0  0  0  0  0  0  0  0  0  0  0  0
   12.9219  -14.3282   18.3245 O   0  0  0  0  0  0  0  0  0  0  0  0
   11.8744  -15.2956   20.2085 C   0  0  0  0  0  0  0  0  0  0  0  0
   11.5357  -16.6443   20.8114 C   0  0  2  0  0  0  0  0  0  0  0  0
   10.2356  -16.6385   21.4669 N   0  0  0  0  0  0  0  0  0  0  0  0
   12.5456  -17.1164   21.7502 C   0  0  0  0  0  0  0  0  0  0  0  0
   13.5687  -17.7272   21.3491 O   0  0  0  0  0  0  0  0  0  0  0  0
   12.4084  -16.9067   23.1086 O   0  0  0  0  0  0  0  0  0  0  0  0
  2 12  2  0
  2  1  1  0
  3  2  1  0
  4  5  1  0
  4  3  2  0
  5 11  2  0
  6  5  1  0
  7  6  1  0
  7  8  1  1
  9 10  2  0
  9  7  1  0
 11 12  1  0
 13 14  1  0
 14 15  1  0
 16 15  1  0
 17 16  1  6
 17 18  1  0
 18  9  1  0
 19 17  1  0
 19 26  1  0
 20 19  2  0
 21 22  1  0
 22 24  1  0
 23 22  2  0
 25 24  1  1
 25 26  1  0
 25 27  1  0
 27 29  1  0
 28 27  2  0
M  END
$$$$
