YMN.pdb
     RDKit          3D

 29 29  0  0  1  0  0  0  0  0999 V2000
    8.8186  -20.3451   16.1968 O   0  0  0  0  0  0  0  0  0  0  0  0
    9.0502  -19.8458   17.4764 C   0  0  0  0  0  0  0  0  0  0  0  0
   10.3030  -19.4526   17.8982 C   0  0  0  0  0  0  0  0  0  0  0  0
   10.5208  -18.9570   19.1752 C   0  0  0  0  0  0  0  0  0  0  0  0
    9.4875  -18.8361   20.0814 C   0  0  0  0  0  0  0  0  0  0  0  0
    9.6658  -18.3116   21.4620 C   0  0  0  0  0  0  0  0  0  0  0  0
    9.0705  -16.9311   21.4947 C   0  0  2  0  0  0  0  0  0  0  0  0
    9.8459  -16.0895   20.6023 N   0  0  0  0  0  0  0  0  0  0  0  0
    9.0757  -16.3088   22.8246 C   0  0  0  0  0  0  0  0  0  0  0  0
   10.1358  -16.4511   23.5141 O   0  0  0  0  0  0  0  0  0  0  0  0
    8.2346  -19.2311   19.6544 C   0  0  0  0  0  0  0  0  0  0  0  0
    8.0170  -19.7250   18.3824 C   0  0  0  0  0  0  0  0  0  0  0  0
    6.0876  -10.7512   26.1926 C   0  0  0  0  0  0  0  0  0  0  0  0
    7.3111  -12.0287   26.5220 S   0  0  0  0  0  0  0  0  0  0  0  0
    6.5214  -13.6844   26.2932 C   0  0  0  0  0  0  0  0  0  0  0  0
    6.8858  -14.1249   24.9339 C   0  0  0  0  0  0  0  0  0  0  0  0
    8.0133  -15.0812   24.7740 C   0  0  2  0  0  0  0  0  0  0  0  0
    7.9869  -15.5750   23.3683 N   0  0  0  0  0  0  0  0  0  0  0  0
    8.0521  -16.2322   25.6593 C   0  0  0  0  0  0  0  0  0  0  0  0
    7.1220  -17.0794   25.6601 O   0  0  0  0  0  0  0  0  0  0  0  0
    8.0751  -20.8772   27.6732 N   0  0  0  0  0  0  0  0  0  0  0  0
    9.2258  -20.1713   27.2509 C   0  0  0  0  0  0  0  0  0  0  0  0
   10.3628  -20.6190   27.5147 O   0  0  0  0  0  0  0  0  0  0  0  0
    9.0597  -18.9238   26.5094 C   0  0  0  0  0  0  0  0  0  0  0  0
    9.1290  -17.6720   27.3610 C   0  0  2  0  0  0  0  0  0  0  0  0
    9.1268  -16.4608   26.5529 N   0  0  0  0  0  0  0  0  0  0  0  0
   10.2827  -17.6541   28.2514 C   0  0  0  0  0  0  0  0  0  0  0  0
   10.2567  -18.2495   29.3585 O   0  0  0  0  0  0  0  0  0  0  0  0
   11.4389  -16.9822   27.9052 O   0  0  0  0  0  0  0  0  0  0  0  0
  2 12  2  0
  2  1  1  0
  3  2  1  0
  4  5  1  0
  4  3  2  0
  5 11  2  0
  6  5  1  0
  7  6  1  0
  7  8  1  6
  9 10  2  0
  9  7  1  0
 11 12  1  0
 13 14  1  0
 14 15  1  0
 16 15  1  0
 17 16  1  1
 17 18  1  0
 18  9  1  0
 19 17  1  0
 19 26  1  0
 20 19  2  0
 21 22  1  0
 22 24  1  0
 23 22  2  0
 25 24  1  6
 25 26  1  0
 25 27  1  0
 27 29  1  0
 28 27  2  0
M  END
$$$$
