YMN.pdb
     RDKit          3D

 29 29  0  0  1  0  0  0  0  0999 V2000
    7.5018  -13.6909   15.5332 O   0  0  0  0  0  0  0  0  0  0  0  0
    7.5596  -13.7278   16.9244 C   0  0  0  0  0  0  0  0  0  0  0  0
    7.0525  -14.7817   17.6552 C   0  0  0  0  0  0  0  0  0  0  0  0
    7.1161  -14.8067   19.0405 C   0  0  0  0  0  0  0  0  0  0  0  0
    7.6925  -13.7725   19.7488 C   0  0  0  0  0  0  0  0  0  0  0  0
    7.7867  -13.7488   21.2333 C   0  0  0  0  0  0  0  0  0  0  0  0
    9.0300  -14.5044   21.6131 C   0  0  2  0  0  0  0  0  0  0  0  0
    8.8322  -15.8972   21.2566 N   0  0  0  0  0  0  0  0  0  0  0  0
    9.3534  -14.4435   23.0442 C   0  0  0  0  0  0  0  0  0  0  0  0
    9.7928  -13.3315   23.4802 O   0  0  0  0  0  0  0  0  0  0  0  0
    8.1991  -12.7192   19.0126 C   0  0  0  0  0  0  0  0  0  0  0  0
    8.1361  -12.6937   17.6325 C   0  0  0  0  0  0  0  0  0  0  0  0
    7.4491  -11.3263   27.3189 C   0  0  0  0  0  0  0  0  0  0  0  0
    6.3015  -12.3748   26.4126 S   0  0  0  0  0  0  0  0  0  0  0  0
    6.8533  -14.1327   26.5630 C   0  0  0  0  0  0  0  0  0  0  0  0
    7.5433  -14.4522   25.2995 C   0  0  0  0  0  0  0  0  0  0  0  0
    8.7504  -15.3194   25.3473 C   0  0  2  0  0  0  0  0  0  0  0  0
    9.2053  -15.5329   23.9446 N   0  0  0  0  0  0  0  0  0  0  0  0
    8.6231  -16.6177   25.9864 C   0  0  0  0  0  0  0  0  0  0  0  0
    8.1548  -16.7233   27.1493 O   0  0  0  0  0  0  0  0  0  0  0  0
   10.9956  -22.1836   25.5376 N   0  0  0  0  0  0  0  0  0  0  0  0
    9.9366  -21.4090   26.0659 C   0  0  0  0  0  0  0  0  0  0  0  0
    9.4097  -21.7330   27.1523 O   0  0  0  0  0  0  0  0  0  0  0  0
    9.4772  -20.2370   25.3248 C   0  0  0  0  0  0  0  0  0  0  0  0
    9.3738  -18.9709   26.1516 C   0  0  2  0  0  0  0  0  0  0  0  0
    9.0100  -17.8175   25.3409 N   0  0  0  0  0  0  0  0  0  0  0  0
   10.5944  -18.6739   26.8904 C   0  0  0  0  0  0  0  0  0  0  0  0
   11.5686  -18.1079   26.3325 O   0  0  0  0  0  0  0  0  0  0  0  0
   10.7169  -19.0055   28.2258 O   0  0  0  0  0  0  0  0  0  0  0  0
  2 12  2  0
  2  1  1  0
  3  2  1  0
  4  5  1  0
  4  3  2  0
  5 11  2  0
  6  5  1  0
  7  6  1  0
  7  8  1  1
  9 10  2  0
  9  7  1  0
 11 12  1  0
 13 14  1  0
 14 15  1  0
 16 15  1  0
 17 16  1  6
 17 18  1  0
 18  9  1  0
 19 17  1  0
 19 26  1  0
 20 19  2  0
 21 22  1  0
 22 24  1  0
 23 22  2  0
 25 24  1  6
 25 26  1  0
 25 27  1  0
 27 29  1  0
 28 27  2  0
M  END
$$$$
