VCN.pdb
     RDKit          3D

 22 21  0  0  1  0  0  0  0  0999 V2000
    6.6936  -17.9541   17.6523 C   0  0  0  0  0  0  0  0  0  0  0  0
    7.3558  -17.0907   16.5993 C   0  0  2  0  0  0  0  0  0  0  0  0
    8.8038  -17.5238   16.5235 C   0  0  0  0  0  0  0  0  0  0  0  0
    7.3324  -15.6462   17.0366 C   0  0  2  0  0  0  0  0  0  0  0  0
    7.8970  -14.8667   15.9462 N   0  0  0  0  0  0  0  0  0  0  0  0
    8.1873  -15.4062   18.2288 C   0  0  0  0  0  0  0  0  0  0  0  0
    9.4508  -15.4972   18.1924 O   0  0  0  0  0  0  0  0  0  0  0  0
    7.6441  -15.0537   19.5081 N   0  0  0  0  0  0  0  0  0  0  0  0
    8.4367  -14.8333   20.6721 C   0  0  1  0  0  0  0  0  0  0  0  0
    7.5070  -14.2918   21.7650 C   0  0  0  0  0  0  0  0  0  0  0  0
    6.2645  -15.5120   22.2257 S   0  0  0  0  0  0  0  0  0  0  0  0
    9.1270  -16.0673   21.1426 C   0  0  0  0  0  0  0  0  0  0  0  0
    8.8495  -17.1435   20.5601 O   0  0  0  0  0  0  0  0  0  0  0  0
   14.1016  -18.2331   20.8760 N   0  0  0  0  0  0  0  0  0  0  0  0
   12.7791  -18.5165   21.2809 C   0  0  0  0  0  0  0  0  0  0  0  0
   12.5205  -19.6584   21.6953 O   0  0  0  0  0  0  0  0  0  0  0  0
   11.7634  -17.4737   21.2029 C   0  0  0  0  0  0  0  0  0  0  0  0
   10.9932  -17.1938   22.4523 C   0  0  2  0  0  0  0  0  0  0  0  0
   10.0581  -16.0830   22.1897 N   0  0  0  0  0  0  0  0  0  0  0  0
   11.8352  -16.8480   23.6274 C   0  0  0  0  0  0  0  0  0  0  0  0
   12.4036  -15.7718   23.7924 O   0  0  0  0  0  0  0  0  0  0  0  0
   12.0186  -17.8049   24.6502 O   0  0  0  0  0  0  0  0  0  0  0  0
  2  4  1  0
  2  1  1  1
  3  2  1  0
  4  6  1  0
  4  5  1  6
  6  8  1  0
  6  7  2  0
  8  9  1  0
  9 12  1  0
  9 10  1  1
 11 10  1  0
 12 19  1  0
 13 12  2  0
 15 14  1  0
 16 15  2  0
 17 15  1  0
 18 17  1  6
 19 18  1  0
 20 18  1  0
 20 22  1  0
 21 20  2  0
M  END
$$$$
