VCN.pdb
     RDKit          3D

 22 21  0  0  1  0  0  0  0  0999 V2000
   10.1933  -18.3390   16.3497 C   0  0  0  0  0  0  0  0  0  0  0  0
   11.6144  -18.8578   16.4124 C   0  0  2  0  0  0  0  0  0  0  0  0
   11.6476  -20.1442   15.6163 C   0  0  0  0  0  0  0  0  0  0  0  0
   11.9715  -19.1936   17.8400 C   0  0  2  0  0  0  0  0  0  0  0  0
   11.0401  -20.2218   18.2767 N   0  0  0  0  0  0  0  0  0  0  0  0
   11.7938  -18.0328   18.7515 C   0  0  0  0  0  0  0  0  0  0  0  0
   12.4707  -16.9673   18.6399 O   0  0  0  0  0  0  0  0  0  0  0  0
   10.8426  -18.0341   19.8244 N   0  0  0  0  0  0  0  0  0  0  0  0
   10.6535  -16.9391   20.7172 C   0  0  1  0  0  0  0  0  0  0  0  0
    9.1800  -16.9421   21.1421 C   0  0  0  0  0  0  0  0  0  0  0  0
    8.6684  -18.5750   21.7047 S   0  0  0  0  0  0  0  0  0  0  0  0
   11.5387  -17.0105   21.9138 C   0  0  0  0  0  0  0  0  0  0  0  0
   11.1443  -17.7001   22.8852 O   0  0  0  0  0  0  0  0  0  0  0  0
   15.4711  -19.1472   24.2535 N   0  0  0  0  0  0  0  0  0  0  0  0
   15.4647  -18.8315   22.8774 C   0  0  0  0  0  0  0  0  0  0  0  0
   16.4761  -19.0954   22.2066 O   0  0  0  0  0  0  0  0  0  0  0  0
   14.2850  -18.2114   22.2867 C   0  0  0  0  0  0  0  0  0  0  0  0
   13.9222  -16.8507   22.7860 C   0  0  2  0  0  0  0  0  0  0  0  0
   12.7732  -16.3538   22.0048 N   0  0  0  0  0  0  0  0  0  0  0  0
   15.0238  -15.8557   22.7101 C   0  0  0  0  0  0  0  0  0  0  0  0
   15.9456  -15.7647   23.5167 O   0  0  0  0  0  0  0  0  0  0  0  0
   15.0438  -14.9287   21.6444 O   0  0  0  0  0  0  0  0  0  0  0  0
  2  4  1  0
  2  1  1  1
  3  2  1  0
  4  6  1  0
  4  5  1  1
  6  8  1  0
  6  7  2  0
  8  9  1  0
  9 12  1  0
  9 10  1  1
 11 10  1  0
 12 19  1  0
 13 12  2  0
 15 14  1  0
 16 15  2  0
 17 15  1  0
 18 17  1  6
 19 18  1  0
 20 18  1  0
 20 22  1  0
 21 20  2  0
M  END
$$$$
