VCN.pdb
     RDKit          3D

 22 21  0  0  1  0  0  0  0  0999 V2000
    7.3614  -11.9845   18.8594 C   0  0  0  0  0  0  0  0  0  0  0  0
    8.0621  -13.2193   19.3858 C   0  0  2  0  0  0  0  0  0  0  0  0
    9.0422  -12.7521   20.4399 C   0  0  0  0  0  0  0  0  0  0  0  0
    8.8562  -13.8661   18.2771 C   0  0  2  0  0  0  0  0  0  0  0  0
    7.8949  -14.3695   17.3087 N   0  0  0  0  0  0  0  0  0  0  0  0
    9.6411  -15.0342   18.7558 C   0  0  0  0  0  0  0  0  0  0  0  0
    9.4779  -16.2025   18.2928 O   0  0  0  0  0  0  0  0  0  0  0  0
   10.6413  -14.9240   19.7773 N   0  0  0  0  0  0  0  0  0  0  0  0
   11.5211  -15.9843   20.1427 C   0  0  1  0  0  0  0  0  0  0  0  0
   12.2903  -16.3978   18.8820 C   0  0  0  0  0  0  0  0  0  0  0  0
   13.3291  -15.0536   18.2832 S   0  0  0  0  0  0  0  0  0  0  0  0
   12.4692  -15.6002   21.2263 C   0  0  0  0  0  0  0  0  0  0  0  0
   12.5738  -14.3796   21.4980 O   0  0  0  0  0  0  0  0  0  0  0  0
   11.0207  -15.3300   24.6380 N   0  0  0  0  0  0  0  0  0  0  0  0
   10.6090  -16.5762   24.1176 C   0  0  0  0  0  0  0  0  0  0  0  0
    9.4199  -16.9086   24.2531 O   0  0  0  0  0  0  0  0  0  0  0  0
   11.5786  -17.4302   23.4427 C   0  0  0  0  0  0  0  0  0  0  0  0
   12.9762  -16.9106   23.3460 C   0  0  2  0  0  0  0  0  0  0  0  0
   13.2385  -16.5239   21.9463 N   0  0  0  0  0  0  0  0  0  0  0  0
   14.0203  -17.8735   23.7842 C   0  0  0  0  0  0  0  0  0  0  0  0
   14.7930  -17.6937   24.7219 O   0  0  0  0  0  0  0  0  0  0  0  0
   14.1642  -19.0970   23.0931 O   0  0  0  0  0  0  0  0  0  0  0  0
  2  4  1  0
  2  1  1  6
  3  2  1  0
  4  6  1  0
  4  5  1  6
  6  8  1  0
  6  7  2  0
  8  9  1  0
  9 12  1  0
  9 10  1  6
 11 10  1  0
 12 19  1  0
 13 12  2  0
 15 14  1  0
 16 15  2  0
 17 15  1  0
 18 17  1  6
 19 18  1  0
 20 18  1  0
 20 22  1  0
 21 20  2  0
M  END
$$$$
