VCN.pdb
     RDKit          3D

 22 21  0  0  1  0  0  0  0  0999 V2000
    7.1390  -13.6487   18.8906 C   0  0  0  0  0  0  0  0  0  0  0  0
    7.3871  -13.1385   20.2944 C   0  0  2  0  0  0  0  0  0  0  0  0
    8.2955  -11.9347   20.1699 C   0  0  0  0  0  0  0  0  0  0  0  0
    8.1224  -14.1859   21.0946 C   0  0  2  0  0  0  0  0  0  0  0  0
    7.2700  -15.3639   21.1308 N   0  0  0  0  0  0  0  0  0  0  0  0
    8.3408  -13.7658   22.5037 C   0  0  0  0  0  0  0  0  0  0  0  0
    8.7392  -12.6040   22.8158 O   0  0  0  0  0  0  0  0  0  0  0  0
    8.1164  -14.6454   23.6136 N   0  0  0  0  0  0  0  0  0  0  0  0
    8.1706  -14.2313   24.9765 C   0  0  1  0  0  0  0  0  0  0  0  0
    7.0647  -13.1895   25.1844 C   0  0  0  0  0  0  0  0  0  0  0  0
    6.9427  -12.7065   26.9154 S   0  0  0  0  0  0  0  0  0  0  0  0
    8.0029  -15.3635   25.9308 C   0  0  0  0  0  0  0  0  0  0  0  0
    6.8868  -15.9365   25.9587 O   0  0  0  0  0  0  0  0  0  0  0  0
   12.3491  -18.4347   24.7682 N   0  0  0  0  0  0  0  0  0  0  0  0
   10.9552  -18.4881   24.9861 C   0  0  0  0  0  0  0  0  0  0  0  0
   10.3887  -19.5912   24.9163 O   0  0  0  0  0  0  0  0  0  0  0  0
   10.2259  -17.2616   25.2840 C   0  0  0  0  0  0  0  0  0  0  0  0
    9.6820  -17.1251   26.6690 C   0  0  2  0  0  0  0  0  0  0  0  0
    9.0177  -15.8127   26.7863 N   0  0  0  0  0  0  0  0  0  0  0  0
   10.7020  -17.2473   27.7433 C   0  0  0  0  0  0  0  0  0  0  0  0
   11.1638  -18.3078   28.1564 O   0  0  0  0  0  0  0  0  0  0  0  0
   11.1994  -16.0772   28.3587 O   0  0  0  0  0  0  0  0  0  0  0  0
  2  4  1  0
  2  1  1  6
  3  2  1  0
  4  6  1  0
  4  5  1  1
  6  8  1  0
  6  7  2  0
  8  9  1  0
  9 12  1  0
  9 10  1  6
 11 10  1  0
 12 19  1  0
 13 12  2  0
 15 14  1  0
 16 15  2  0
 17 15  1  0
 18 17  1  6
 19 18  1  0
 20 18  1  0
 20 22  1  0
 21 20  2  0
M  END
$$$$
