VCN.pdb
     RDKit          3D

 22 21  0  0  1  0  0  0  0  0999 V2000
    6.9874  -13.9791   19.5324 C   0  0  0  0  0  0  0  0  0  0  0  0
    7.3965  -13.3587   20.8517 C   0  0  2  0  0  0  0  0  0  0  0  0
    8.3223  -12.2067   20.5266 C   0  0  0  0  0  0  0  0  0  0  0  0
    8.1803  -14.3605   21.6643 C   0  0  2  0  0  0  0  0  0  0  0  0
    7.3259  -15.5250   21.8355 N   0  0  0  0  0  0  0  0  0  0  0  0
    8.4995  -13.8536   23.0247 C   0  0  0  0  0  0  0  0  0  0  0  0
    8.9430  -12.6845   23.2311 O   0  0  0  0  0  0  0  0  0  0  0  0
    8.3288  -14.6512   24.2039 N   0  0  0  0  0  0  0  0  0  0  0  0
    8.5962  -14.1826   25.5233 C   0  0  1  0  0  0  0  0  0  0  0  0
    7.6498  -13.0065   25.7936 C   0  0  0  0  0  0  0  0  0  0  0  0
    5.9518  -13.5715   25.9989 S   0  0  0  0  0  0  0  0  0  0  0  0
    8.4187  -15.2399   26.5583 C   0  0  0  0  0  0  0  0  0  0  0  0
    7.3093  -15.8244   26.6044 O   0  0  0  0  0  0  0  0  0  0  0  0
   11.6544  -19.3394   25.3080 N   0  0  0  0  0  0  0  0  0  0  0  0
   10.4875  -18.7195   25.8053 C   0  0  0  0  0  0  0  0  0  0  0  0
    9.4605  -19.4072   25.9285 O   0  0  0  0  0  0  0  0  0  0  0  0
   10.5180  -17.3052   26.1572 C   0  0  0  0  0  0  0  0  0  0  0  0
   10.0388  -16.9448   27.5258 C   0  0  2  0  0  0  0  0  0  0  0  0
    9.4176  -15.6075   27.4698 N   0  0  0  0  0  0  0  0  0  0  0  0
   11.1005  -16.9404   28.5660 C   0  0  0  0  0  0  0  0  0  0  0  0
   11.9722  -16.0822   28.6768 O   0  0  0  0  0  0  0  0  0  0  0  0
   11.1416  -17.9866   29.5143 O   0  0  0  0  0  0  0  0  0  0  0  0
  2  4  1  0
  2  1  1  6
  3  2  1  0
  4  6  1  0
  4  5  1  1
  6  8  1  0
  6  7  2  0
  8  9  1  0
  9 12  1  0
  9 10  1  1
 11 10  1  0
 12 19  1  0
 13 12  2  0
 15 14  1  0
 16 15  2  0
 17 15  1  0
 18 17  1  6
 19 18  1  0
 20 18  1  0
 20 22  1  0
 21 20  2  0
M  END
$$$$
