VCN.pdb
     RDKit          3D

 22 21  0  0  1  0  0  0  0  0999 V2000
    8.4268  -18.7569   14.9334 C   0  0  0  0  0  0  0  0  0  0  0  0
    7.1169  -17.9974   14.9279 C   0  0  2  0  0  0  0  0  0  0  0  0
    6.4039  -18.3614   13.6438 C   0  0  0  0  0  0  0  0  0  0  0  0
    7.3889  -16.5131   14.8955 C   0  0  2  0  0  0  0  0  0  0  0  0
    8.2037  -16.2596   13.7177 N   0  0  0  0  0  0  0  0  0  0  0  0
    8.1761  -16.0604   16.0724 C   0  0  0  0  0  0  0  0  0  0  0  0
    9.4427  -16.0902   16.0991 O   0  0  0  0  0  0  0  0  0  0  0  0
    7.5589  -15.5563   17.2645 N   0  0  0  0  0  0  0  0  0  0  0  0
    8.2851  -15.1483   18.4212 C   0  0  1  0  0  0  0  0  0  0  0  0
    7.3104  -14.3921   19.3323 C   0  0  0  0  0  0  0  0  0  0  0  0
    6.9875  -12.7343   18.7060 S   0  0  0  0  0  0  0  0  0  0  0  0
    8.8964  -16.2937   19.1526 C   0  0  0  0  0  0  0  0  0  0  0  0
    8.5755  -17.4508   18.7882 O   0  0  0  0  0  0  0  0  0  0  0  0
   13.7348  -18.3503   20.6157 N   0  0  0  0  0  0  0  0  0  0  0  0
   12.5487  -18.6955   19.9322 C   0  0  0  0  0  0  0  0  0  0  0  0
   12.3702  -19.8853   19.6236 O   0  0  0  0  0  0  0  0  0  0  0  0
   11.5758  -17.6588   19.6102 C   0  0  0  0  0  0  0  0  0  0  0  0
   10.6749  -17.2182   20.7178 C   0  0  2  0  0  0  0  0  0  0  0  0
    9.8000  -16.1425   20.2129 N   0  0  0  0  0  0  0  0  0  0  0  0
   11.3852  -16.7333   21.9301 C   0  0  0  0  0  0  0  0  0  0  0  0
   11.6461  -15.5569   22.1684 O   0  0  0  0  0  0  0  0  0  0  0  0
   11.8078  -17.6673   22.9020 O   0  0  0  0  0  0  0  0  0  0  0  0
  2  4  1  0
  2  1  1  6
  3  2  1  0
  4  6  1  0
  4  5  1  6
  6  8  1  0
  6  7  2  0
  8  9  1  0
  9 12  1  0
  9 10  1  1
 11 10  1  0
 12 19  1  0
 13 12  2  0
 15 14  1  0
 16 15  2  0
 17 15  1  0
 18 17  1  6
 19 18  1  0
 20 18  1  0
 20 22  1  0
 21 20  2  0
M  END
$$$$
