VCN.pdb
     RDKit          3D

 22 21  0  0  1  0  0  0  0  0999 V2000
    6.5310  -13.2311   20.5074 C   0  0  0  0  0  0  0  0  0  0  0  0
    8.0046  -13.2797   20.1626 C   0  0  2  0  0  0  0  0  0  0  0  0
    8.1227  -14.0083   18.8416 C   0  0  0  0  0  0  0  0  0  0  0  0
    8.7440  -14.0895   21.1998 C   0  0  2  0  0  0  0  0  0  0  0  0
    8.1728  -15.4269   21.1760 N   0  0  0  0  0  0  0  0  0  0  0  0
    8.5455  -13.5581   22.5738 C   0  0  0  0  0  0  0  0  0  0  0  0
    8.5492  -12.3177   22.8332 O   0  0  0  0  0  0  0  0  0  0  0  0
    8.3352  -14.4111   23.7070 N   0  0  0  0  0  0  0  0  0  0  0  0
    8.0150  -13.9323   25.0108 C   0  0  1  0  0  0  0  0  0  0  0  0
    6.7914  -13.0176   24.8766 C   0  0  0  0  0  0  0  0  0  0  0  0
    6.3456  -12.2902   26.4630 S   0  0  0  0  0  0  0  0  0  0  0  0
    7.7373  -15.0319   25.9775 C   0  0  0  0  0  0  0  0  0  0  0  0
    6.6587  -14.9819   26.6167 O   0  0  0  0  0  0  0  0  0  0  0  0
    7.1523  -20.1457   26.2492 N   0  0  0  0  0  0  0  0  0  0  0  0
    7.0022  -19.3217   25.1127 C   0  0  0  0  0  0  0  0  0  0  0  0
    6.5345  -19.8237   24.0773 O   0  0  0  0  0  0  0  0  0  0  0  0
    7.3952  -17.9197   25.1831 C   0  0  0  0  0  0  0  0  0  0  0  0
    8.1783  -17.5030   26.3855 C   0  0  2  0  0  0  0  0  0  0  0  0
    8.6108  -16.1040   26.2035 N   0  0  0  0  0  0  0  0  0  0  0  0
    9.3716  -18.3448   26.6621 C   0  0  0  0  0  0  0  0  0  0  0  0
   10.4096  -18.3301   26.0056 O   0  0  0  0  0  0  0  0  0  0  0  0
    9.3453  -19.2416   27.7533 O   0  0  0  0  0  0  0  0  0  0  0  0
  2  4  1  0
  2  1  1  1
  3  2  1  0
  4  6  1  0
  4  5  1  1
  6  8  1  0
  6  7  2  0
  8  9  1  0
  9 12  1  0
  9 10  1  6
 11 10  1  0
 12 19  1  0
 13 12  2  0
 15 14  1  0
 16 15  2  0
 17 15  1  0
 18 17  1  6
 19 18  1  0
 20 18  1  0
 20 22  1  0
 21 20  2  0
M  END
$$$$
