HFV.pdb
     RDKit          3D

 29 30  0  0  1  0  0  0  0  0999 V2000
    9.9999  -16.6683   19.5907 N   0  0  0  0  0  0  0  0  0  0  0  0
    9.3903  -17.3032   20.7242 C   0  0  1  0  0  0  0  0  0  0  0  0
   10.1167  -18.5681   21.1353 C   0  0  0  0  0  0  0  0  0  0  0  0
   10.0079  -19.6401   20.1219 C   0  0  0  0  0  0  0  0  0  0  0  0
    8.7924  -20.1408   19.6741 C   0  0  0  0  0  0  0  0  0  0  0  0
    9.0815  -21.0841   18.7740 N   0  0  0  0  0  0  0  0  0  0  0  0
   10.4231  -21.1679   18.6653 C   0  0  0  0  0  0  0  0  0  0  0  0
   11.0106  -20.2751   19.4983 N   0  0  0  0  0  0  0  0  0  0  0  0
    9.4561  -16.3789   21.8834 C   0  0  0  0  0  0  0  0  0  0  0  0
   10.5648  -15.9908   22.3006 O   0  0  0  0  0  0  0  0  0  0  0  0
    8.2914  -15.9083   22.5507 N   0  0  0  0  0  0  0  0  0  0  0  0
    8.4397  -15.0315   23.6942 C   0  0  1  0  0  0  0  0  0  0  0  0
    7.1755  -14.2594   23.9778 C   0  0  0  0  0  0  0  0  0  0  0  0
    7.2630  -13.3983   25.1598 C   0  0  0  0  0  0  0  0  0  0  0  0
    6.5086  -13.6797   26.2743 C   0  0  0  0  0  0  0  0  0  0  0  0
    6.5595  -12.8971   27.4077 C   0  0  0  0  0  0  0  0  0  0  0  0
    7.3788  -11.7963   27.4557 C   0  0  0  0  0  0  0  0  0  0  0  0
    8.1425  -11.4980   26.3487 C   0  0  0  0  0  0  0  0  0  0  0  0
    8.0886  -12.2952   25.1983 C   0  0  0  0  0  0  0  0  0  0  0  0
    8.7562  -15.8112   24.9279 C   0  0  0  0  0  0  0  0  0  0  0  0
    7.9714  -16.7045   25.3277 O   0  0  0  0  0  0  0  0  0  0  0  0
   12.3207  -17.1806   25.3604 C   0  0  0  0  0  0  0  0  0  0  0  0
   11.8844  -16.6563   26.7023 C   0  0  2  0  0  0  0  0  0  0  0  0
   12.3529  -17.5126   27.8449 C   0  0  0  0  0  0  0  0  0  0  0  0
   10.3800  -16.4438   26.7367 C   0  0  2  0  0  0  0  0  0  0  0  0
    9.9338  -15.5806   25.6859 N   0  0  0  0  0  0  0  0  0  0  0  0
    9.9875  -15.9887   28.0840 C   0  0  0  0  0  0  0  0  0  0  0  0
    9.8852  -14.7497   28.2697 O   0  0  0  0  0  0  0  0  0  0  0  0
    9.7297  -16.8423   29.1387 O   0  0  0  0  0  0  0  0  0  0  0  0
  2  1  1  6
  2  3  1  0
  4  8  1  0
  4  3  1  0
  5  4  2  0
  6  5  1  0
  6  7  1  0
  7  8  2  0
  9  2  1  0
 10  9  2  0
 11  9  1  0
 12 11  1  0
 12 13  1  1
 13 14  1  0
 14 15  2  0
 15 16  1  0
 17 16  2  0
 18 17  1  0
 19 14  1  0
 19 18  2  0
 20 12  1  0
 21 20  2  0
 23 22  1  6
 23 24  1  0
 23 25  1  0
 25 27  1  0
 25 26  1  6
 26 20  1  0
 27 29  1  0
 28 27  2  0
M  END
$$$$
