HFV.pdb
     RDKit          3D

 29 30  0  0  1  0  0  0  0  0999 V2000
   10.6244  -15.3131   20.4009 N   0  0  0  0  0  0  0  0  0  0  0  0
    9.6492  -14.8258   21.3342 C   0  0  1  0  0  0  0  0  0  0  0  0
    8.2418  -15.2574   20.9741 C   0  0  0  0  0  0  0  0  0  0  0  0
    7.7903  -14.6996   19.6807 C   0  0  0  0  0  0  0  0  0  0  0  0
    8.1214  -13.4221   19.2480 C   0  0  0  0  0  0  0  0  0  0  0  0
    7.5450  -13.2673   18.0533 N   0  0  0  0  0  0  0  0  0  0  0  0
    6.8816  -14.4025   17.7535 C   0  0  0  0  0  0  0  0  0  0  0  0
    7.0264  -15.3009   18.7575 N   0  0  0  0  0  0  0  0  0  0  0  0
    9.9402  -15.3971   22.6726 C   0  0  0  0  0  0  0  0  0  0  0  0
   10.5862  -16.4593   22.7626 O   0  0  0  0  0  0  0  0  0  0  0  0
    9.5075  -14.7765   23.8772 N   0  0  0  0  0  0  0  0  0  0  0  0
   10.1599  -15.1238   25.1230 C   0  0  1  0  0  0  0  0  0  0  0  0
    9.9352  -14.0772   26.1856 C   0  0  0  0  0  0  0  0  0  0  0  0
    8.5535  -13.5956   26.2560 C   0  0  0  0  0  0  0  0  0  0  0  0
    8.0335  -12.8426   25.2297 C   0  0  0  0  0  0  0  0  0  0  0  0
    6.7395  -12.3688   25.2540 C   0  0  0  0  0  0  0  0  0  0  0  0
    5.9201  -12.6405   26.3220 C   0  0  0  0  0  0  0  0  0  0  0  0
    6.4232  -13.3935   27.3600 C   0  0  0  0  0  0  0  0  0  0  0  0
    7.7387  -13.8735   27.3324 C   0  0  0  0  0  0  0  0  0  0  0  0
    9.6287  -16.4104   25.6639 C   0  0  0  0  0  0  0  0  0  0  0  0
    8.4200  -16.7081   25.5089 O   0  0  0  0  0  0  0  0  0  0  0  0
   12.1748  -19.7057   26.2856 C   0  0  0  0  0  0  0  0  0  0  0  0
   10.6852  -19.7530   26.0735 C   0  0  2  0  0  0  0  0  0  0  0  0
   10.3025  -19.7890   24.6207 C   0  0  0  0  0  0  0  0  0  0  0  0
    9.9979  -18.6148   26.8096 C   0  0  2  0  0  0  0  0  0  0  0  0
   10.4507  -17.3329   26.3624 N   0  0  0  0  0  0  0  0  0  0  0  0
   10.1455  -18.8212   28.2629 C   0  0  0  0  0  0  0  0  0  0  0  0
   10.7544  -17.9355   28.9147 O   0  0  0  0  0  0  0  0  0  0  0  0
    9.6556  -19.9231   28.9363 O   0  0  0  0  0  0  0  0  0  0  0  0
  2  1  1  6
  2  3  1  0
  4  8  1  0
  4  3  1  0
  5  4  2  0
  6  5  1  0
  6  7  1  0
  7  8  2  0
  9  2  1  0
 10  9  2  0
 11  9  1  0
 12 11  1  0
 12 13  1  1
 13 14  1  0
 14 15  2  0
 15 16  1  0
 17 16  2  0
 18 17  1  0
 19 14  1  0
 19 18  2  0
 20 12  1  0
 21 20  2  0
 23 22  1  6
 23 24  1  0
 23 25  1  0
 25 27  1  0
 25 26  1  6
 26 20  1  0
 27 29  1  0
 28 27  2  0
M  END
$$$$
