HFV.pdb
     RDKit          3D

 29 30  0  0  1  0  0  0  0  0999 V2000
   10.9456  -16.5548   19.7671 N   0  0  0  0  0  0  0  0  0  0  0  0
   10.4724  -17.3215   20.8841 C   0  0  1  0  0  0  0  0  0  0  0  0
   11.5100  -18.3040   21.3889 C   0  0  0  0  0  0  0  0  0  0  0  0
   11.7119  -19.4414   20.4651 C   0  0  0  0  0  0  0  0  0  0  0  0
   10.8273  -20.5077   20.3693 C   0  0  0  0  0  0  0  0  0  0  0  0
   11.3283  -21.3318   19.4455 N   0  0  0  0  0  0  0  0  0  0  0  0
   12.4788  -20.8004   18.9841 C   0  0  0  0  0  0  0  0  0  0  0  0
   12.7283  -19.6248   19.6103 N   0  0  0  0  0  0  0  0  0  0  0  0
   10.1780  -16.3984   22.0081 C   0  0  0  0  0  0  0  0  0  0  0  0
   11.0308  -15.5585   22.3559 O   0  0  0  0  0  0  0  0  0  0  0  0
    8.9457  -16.4298   22.7180 N   0  0  0  0  0  0  0  0  0  0  0  0
    8.7236  -15.4781   23.7873 C   0  0  1  0  0  0  0  0  0  0  0  0
    7.2751  -15.0686   23.8829 C   0  0  0  0  0  0  0  0  0  0  0  0
    7.0178  -14.0440   24.8980 C   0  0  0  0  0  0  0  0  0  0  0  0
    6.3121  -14.3623   26.0343 C   0  0  0  0  0  0  0  0  0  0  0  0
    6.0470  -13.4306   27.0147 C   0  0  0  0  0  0  0  0  0  0  0  0
    6.4879  -12.1370   26.8812 C   0  0  0  0  0  0  0  0  0  0  0  0
    7.1967  -11.7989   25.7495 C   0  0  0  0  0  0  0  0  0  0  0  0
    7.4646  -12.7480   24.7548 C   0  0  0  0  0  0  0  0  0  0  0  0
    9.0958  -16.0636   25.1096 C   0  0  0  0  0  0  0  0  0  0  0  0
    8.9008  -17.2818   25.3370 O   0  0  0  0  0  0  0  0  0  0  0  0
    9.3393  -14.2007   28.9838 C   0  0  0  0  0  0  0  0  0  0  0  0
   10.5837  -14.7744   28.3606 C   0  0  2  0  0  0  0  0  0  0  0  0
   11.4854  -13.7217   27.7800 C   0  0  0  0  0  0  0  0  0  0  0  0
   10.2330  -15.8428   27.3383 C   0  0  2  0  0  0  0  0  0  0  0  0
    9.6741  -15.2839   26.1451 N   0  0  0  0  0  0  0  0  0  0  0  0
    9.3730  -16.8576   27.9763 C   0  0  0  0  0  0  0  0  0  0  0  0
    8.1575  -16.8707   27.6561 O   0  0  0  0  0  0  0  0  0  0  0  0
    9.8281  -17.7824   28.8956 O   0  0  0  0  0  0  0  0  0  0  0  0
  2  1  1  6
  2  3  1  0
  4  8  1  0
  4  3  1  0
  5  4  2  0
  6  5  1  0
  6  7  1  0
  7  8  2  0
  9  2  1  0
 10  9  2  0
 11  9  1  0
 12 11  1  0
 12 13  1  1
 13 14  1  0
 14 15  2  0
 15 16  1  0
 17 16  2  0
 18 17  1  0
 19 14  1  0
 19 18  2  0
 20 12  1  0
 21 20  2  0
 23 22  1  6
 23 24  1  0
 23 25  1  0
 25 27  1  0
 25 26  1  6
 26 20  1  0
 27 29  1  0
 28 27  2  0
M  END
$$$$
