HFV.pdb
     RDKit          3D

 29 30  0  0  1  0  0  0  0  0999 V2000
   11.0241  -17.0304   20.0457 N   0  0  0  0  0  0  0  0  0  0  0  0
   10.0769  -17.5547   20.9877 C   0  0  1  0  0  0  0  0  0  0  0  0
   10.5712  -18.8216   21.6565 C   0  0  0  0  0  0  0  0  0  0  0  0
   10.4040  -20.0173   20.8019 C   0  0  0  0  0  0  0  0  0  0  0  0
    9.1642  -20.4884   20.3900 C   0  0  0  0  0  0  0  0  0  0  0  0
    9.4008  -21.5694   19.6422 N   0  0  0  0  0  0  0  0  0  0  0  0
   10.7343  -21.7639   19.5901 C   0  0  0  0  0  0  0  0  0  0  0  0
   11.3692  -20.8054   20.3073 N   0  0  0  0  0  0  0  0  0  0  0  0
    9.8718  -16.5564   22.0664 C   0  0  0  0  0  0  0  0  0  0  0  0
   10.8221  -15.8358   22.4288 O   0  0  0  0  0  0  0  0  0  0  0  0
    8.6183  -16.3822   22.7159 N   0  0  0  0  0  0  0  0  0  0  0  0
    8.4828  -15.3480   23.7212 C   0  0  1  0  0  0  0  0  0  0  0  0
    7.0560  -14.8777   23.8547 C   0  0  0  0  0  0  0  0  0  0  0  0
    6.8700  -13.8390   24.8709 C   0  0  0  0  0  0  0  0  0  0  0  0
    6.1631  -14.1157   26.0173 C   0  0  0  0  0  0  0  0  0  0  0  0
    5.9638  -13.1693   26.9992 C   0  0  0  0  0  0  0  0  0  0  0  0
    6.4744  -11.9026   26.8570 C   0  0  0  0  0  0  0  0  0  0  0  0
    7.1856  -11.6062   25.7151 C   0  0  0  0  0  0  0  0  0  0  0  0
    7.3865  -12.5701   24.7190 C   0  0  0  0  0  0  0  0  0  0  0  0
    8.9001  -15.8503   25.0642 C   0  0  0  0  0  0  0  0  0  0  0  0
    8.7255  -17.0546   25.3688 O   0  0  0  0  0  0  0  0  0  0  0  0
   11.3741  -14.9094   29.3011 C   0  0  0  0  0  0  0  0  0  0  0  0
   10.6309  -14.3670   28.1097 C   0  0  2  0  0  0  0  0  0  0  0  0
    9.4741  -13.4877   28.4930 C   0  0  0  0  0  0  0  0  0  0  0  0
   10.2011  -15.4919   27.1825 C   0  0  2  0  0  0  0  0  0  0  0  0
    9.4996  -15.0050   26.0340 N   0  0  0  0  0  0  0  0  0  0  0  0
    9.4450  -16.4939   27.9576 C   0  0  0  0  0  0  0  0  0  0  0  0
   10.0729  -17.1451   28.8304 O   0  0  0  0  0  0  0  0  0  0  0  0
    8.1001  -16.7506   27.7765 O   0  0  0  0  0  0  0  0  0  0  0  0
  2  1  1  6
  2  3  1  0
  4  8  1  0
  4  3  1  0
  5  4  2  0
  6  5  1  0
  6  7  1  0
  7  8  2  0
  9  2  1  0
 10  9  2  0
 11  9  1  0
 12 11  1  0
 12 13  1  1
 13 14  1  0
 14 15  2  0
 15 16  1  0
 17 16  2  0
 18 17  1  0
 19 14  1  0
 19 18  2  0
 20 12  1  0
 21 20  2  0
 23 22  1  1
 23 24  1  0
 23 25  1  0
 25 27  1  0
 25 26  1  6
 26 20  1  0
 27 29  1  0
 28 27  2  0
M  END
$$$$
