HFV.pdb
     RDKit          3D

 29 30  0  0  1  0  0  0  0  0999 V2000
    9.9849  -18.2178   20.8183 N   0  0  0  0  0  0  0  0  0  0  0  0
   11.0891  -17.3807   21.1920 C   0  0  1  0  0  0  0  0  0  0  0  0
   11.6004  -16.5505   20.0318 C   0  0  0  0  0  0  0  0  0  0  0  0
   11.9648  -17.3762   18.8598 C   0  0  0  0  0  0  0  0  0  0  0  0
   13.0444  -18.2497   18.8529 C   0  0  0  0  0  0  0  0  0  0  0  0
   13.0646  -18.8150   17.6431 N   0  0  0  0  0  0  0  0  0  0  0  0
   12.0388  -18.3140   16.9251 C   0  0  0  0  0  0  0  0  0  0  0  0
   11.3474  -17.4181   17.6705 N   0  0  0  0  0  0  0  0  0  0  0  0
   10.6345  -16.4244   22.2317 C   0  0  0  0  0  0  0  0  0  0  0  0
   11.4192  -15.5526   22.6533 O   0  0  0  0  0  0  0  0  0  0  0  0
    9.3214  -16.4588   22.7777 N   0  0  0  0  0  0  0  0  0  0  0  0
    8.9891  -15.5690   23.8714 C   0  0  1  0  0  0  0  0  0  0  0  0
    7.5048  -15.3151   23.9579 C   0  0  0  0  0  0  0  0  0  0  0  0
    7.1449  -14.2265   24.8699 C   0  0  0  0  0  0  0  0  0  0  0  0
    7.4487  -12.9258   24.5435 C   0  0  0  0  0  0  0  0  0  0  0  0
    7.1290  -11.8711   25.3712 C   0  0  0  0  0  0  0  0  0  0  0  0
    6.4875  -12.0942   26.5646 C   0  0  0  0  0  0  0  0  0  0  0  0
    6.1749  -13.3908   26.9091 C   0  0  0  0  0  0  0  0  0  0  0  0
    6.5010  -14.4606   26.0659 C   0  0  0  0  0  0  0  0  0  0  0  0
    9.4049  -16.1536   25.1812 C   0  0  0  0  0  0  0  0  0  0  0  0
    9.3394  -17.3924   25.3677 O   0  0  0  0  0  0  0  0  0  0  0  0
    9.4155  -14.2634   29.0044 C   0  0  0  0  0  0  0  0  0  0  0  0
   10.7182  -14.8126   28.4872 C   0  0  2  0  0  0  0  0  0  0  0  0
   11.6458  -13.7421   27.9855 C   0  0  0  0  0  0  0  0  0  0  0  0
   10.4743  -15.8846   27.4379 C   0  0  2  0  0  0  0  0  0  0  0  0
    9.8823  -15.3502   26.2495 N   0  0  0  0  0  0  0  0  0  0  0  0
    9.6993  -16.9846   28.0427 C   0  0  0  0  0  0  0  0  0  0  0  0
   10.2427  -17.6327   28.9726 O   0  0  0  0  0  0  0  0  0  0  0  0
    8.4237  -17.3349   27.6455 O   0  0  0  0  0  0  0  0  0  0  0  0
  2  1  1  6
  2  3  1  0
  4  8  1  0
  4  3  1  0
  5  4  2  0
  6  5  1  0
  6  7  1  0
  7  8  2  0
  9  2  1  0
 10  9  2  0
 11  9  1  0
 12 11  1  0
 12 13  1  1
 13 14  1  0
 14 15  2  0
 15 16  1  0
 17 16  2  0
 18 17  1  0
 19 14  1  0
 19 18  2  0
 20 12  1  0
 21 20  2  0
 23 22  1  6
 23 24  1  0
 23 25  1  0
 25 27  1  0
 25 26  1  6
 26 20  1  0
 27 29  1  0
 28 27  2  0
M  END
$$$$
