SGR.pdb
     RDKit          3D

 22 21  0  0  1  0  0  0  0  0999 V2000
    7.2895  -14.1459   20.3256 O   0  0  0  0  0  0  0  0  0  0  0  0
    7.5664  -12.8683   19.8254 C   0  0  0  0  0  0  0  0  0  0  0  0
    8.2862  -13.0022   18.5085 C   0  0  2  0  0  0  0  0  0  0  0  0
    7.4785  -13.7969   17.6246 N   0  0  0  0  0  0  0  0  0  0  0  0
    9.5414  -13.7716   18.7876 C   0  0  0  0  0  0  0  0  0  0  0  0
    9.6667  -14.9342   18.3379 O   0  0  0  0  0  0  0  0  0  0  0  0
   10.5990  -13.2137   19.5533 N   0  0  0  0  0  0  0  0  0  0  0  0
   11.8308  -13.9219   19.7747 C   0  0  0  0  0  0  0  0  0  0  0  0
   11.6968  -14.8965   20.9167 C   0  0  0  0  0  0  0  0  0  0  0  0
   12.7256  -15.4189   21.4107 O   0  0  0  0  0  0  0  0  0  0  0  0
    6.3149  -11.5481   24.6129 N   0  0  0  0  0  0  0  0  0  0  0  0
    6.6219  -12.3973   25.7059 C   0  0  0  0  0  0  0  0  0  0  0  0
    6.1546  -12.1097   26.8740 N   0  0  0  0  0  0  0  0  0  0  0  0
    7.4320  -13.5532   25.5332 N   0  0  0  0  0  0  0  0  0  0  0  0
    7.7581  -14.0430   24.1770 C   0  0  0  0  0  0  0  0  0  0  0  0
    8.5030  -15.3111   24.2614 C   0  0  0  0  0  0  0  0  0  0  0  0
    8.9067  -16.0374   23.0624 C   0  0  0  0  0  0  0  0  0  0  0  0
   10.2956  -16.1850   22.5873 C   0  0  2  0  0  0  0  0  0  0  0  0
   10.4410  -15.2373   21.4459 N   0  0  0  0  0  0  0  0  0  0  0  0
   10.8391  -17.4742   22.2264 C   0  0  0  0  0  0  0  0  0  0  0  0
   10.9795  -17.8176   20.8451 O   0  0  0  0  0  0  0  0  0  0  0  0
   11.2178  -18.3658   22.9821 O   0  0  0  0  0  0  0  0  0  0  0  0
  1  2  1  0
  2  3  1  0
  3  4  1  6
  5  3  1  0
  5  7  1  0
  6  5  2  0
  8  7  1  0
  8  9  1  0
  9 19  1  0
  9 10  2  0
 11 12  1  0
 12 14  1  0
 12 13  2  0
 14 15  1  0
 16 15  1  0
 18 17  1  6
 17 16  1  0
 18 20  1  0
 19 18  1  0
 20 22  2  0
 20 21  1  0
M  END
$$$$
