SGR.pdb
     RDKit          3D

 22 21  0  0  1  0  0  0  0  0999 V2000
    7.6869  -16.3840   16.2577 O   0  0  0  0  0  0  0  0  0  0  0  0
    8.5203  -17.3626   16.8118 C   0  0  0  0  0  0  0  0  0  0  0  0
    7.8034  -18.0251   17.9596 C   0  0  2  0  0  0  0  0  0  0  0  0
    6.4354  -18.2453   17.5783 N   0  0  0  0  0  0  0  0  0  0  0  0
    7.8049  -17.0380   19.0870 C   0  0  0  0  0  0  0  0  0  0  0  0
    8.8865  -16.7350   19.6417 O   0  0  0  0  0  0  0  0  0  0  0  0
    6.6048  -16.4334   19.5455 N   0  0  0  0  0  0  0  0  0  0  0  0
    6.6035  -15.4510   20.5957 C   0  0  0  0  0  0  0  0  0  0  0  0
    6.4731  -16.1045   21.9478 C   0  0  0  0  0  0  0  0  0  0  0  0
    6.5100  -15.3982   22.9846 O   0  0  0  0  0  0  0  0  0  0  0  0
   -0.8740  -19.8609   22.3951 N   0  0  0  0  0  0  0  0  0  0  0  0
    0.4948  -20.1585   22.1763 C   0  0  0  0  0  0  0  0  0  0  0  0
    0.8286  -21.3560   21.8297 N   0  0  0  0  0  0  0  0  0  0  0  0
    1.4974  -19.1621   22.3325 N   0  0  0  0  0  0  0  0  0  0  0  0
    2.9176  -19.4825   22.0759 C   0  0  0  0  0  0  0  0  0  0  0  0
    3.7432  -19.0867   23.2300 C   0  0  0  0  0  0  0  0  0  0  0  0
    5.1935  -19.2435   23.2171 C   0  0  0  0  0  0  0  0  0  0  0  0
    6.1666  -18.1512   23.4078 C   0  0  2  0  0  0  0  0  0  0  0  0
    6.3101  -17.4937   22.0777 N   0  0  0  0  0  0  0  0  0  0  0  0
    7.4717  -18.3913   23.9793 C   0  0  0  0  0  0  0  0  0  0  0  0
    7.5840  -18.7116   25.3687 O   0  0  0  0  0  0  0  0  0  0  0  0
    8.5582  -18.3564   23.4069 O   0  0  0  0  0  0  0  0  0  0  0  0
  1  2  1  0
  2  3  1  0
  3  4  1  6
  5  3  1  0
  5  7  1  0
  6  5  2  0
  8  7  1  0
  8  9  1  0
  9 19  1  0
  9 10  2  0
 11 12  1  0
 12 14  1  0
 12 13  2  0
 14 15  1  0
 16 15  1  0
 18 17  1  6
 17 16  1  0
 18 20  1  0
 19 18  1  0
 20 22  2  0
 20 21  1  0
M  END
$$$$
