SGR.pdb
     RDKit          3D

 22 21  0  0  1  0  0  0  0  0999 V2000
    5.2434  -18.6961   18.8646 O   0  0  0  0  0  0  0  0  0  0  0  0
    5.7110  -19.8799   18.2822 C   0  0  0  0  0  0  0  0  0  0  0  0
    7.0293  -20.2491   18.9115 C   0  0  2  0  0  0  0  0  0  0  0  0
    6.8649  -20.2694   20.3390 N   0  0  0  0  0  0  0  0  0  0  0  0
    7.9816  -19.1400   18.5822 C   0  0  0  0  0  0  0  0  0  0  0  0
    8.3212  -18.9501   17.3913 O   0  0  0  0  0  0  0  0  0  0  0  0
    8.5122  -18.2935   19.5910 N   0  0  0  0  0  0  0  0  0  0  0  0
    9.4021  -17.2076   19.2795 C   0  0  0  0  0  0  0  0  0  0  0  0
    9.8135  -16.4700   20.5279 C   0  0  0  0  0  0  0  0  0  0  0  0
   10.6942  -15.5783   20.4602 O   0  0  0  0  0  0  0  0  0  0  0  0
    5.2608  -12.6920   27.0269 N   0  0  0  0  0  0  0  0  0  0  0  0
    6.5200  -12.1143   26.7257 C   0  0  0  0  0  0  0  0  0  0  0  0
    6.7325  -10.8788   27.0322 N   0  0  0  0  0  0  0  0  0  0  0  0
    7.5442  -12.8727   26.0948 N   0  0  0  0  0  0  0  0  0  0  0  0
    7.2162  -14.1241   25.3793 C   0  0  0  0  0  0  0  0  0  0  0  0
    8.4488  -14.7692   24.8948 C   0  0  0  0  0  0  0  0  0  0  0  0
    8.4958  -15.4468   23.6038 C   0  0  0  0  0  0  0  0  0  0  0  0
    9.6893  -16.0970   23.0299 C   0  0  2  0  0  0  0  0  0  0  0  0
    9.2321  -16.7572   21.7741 N   0  0  0  0  0  0  0  0  0  0  0  0
   10.4954  -17.0153   23.8011 C   0  0  0  0  0  0  0  0  0  0  0  0
   11.4776  -16.5019   24.7052 O   0  0  0  0  0  0  0  0  0  0  0  0
   10.4528  -18.2430   23.7873 O   0  0  0  0  0  0  0  0  0  0  0  0
  1  2  1  0
  2  3  1  0
  3  4  1  1
  5  3  1  0
  5  7  1  0
  6  5  2  0
  8  7  1  0
  8  9  1  0
  9 19  1  0
  9 10  2  0
 11 12  1  0
 12 14  1  0
 12 13  2  0
 14 15  1  0
 16 15  1  0
 18 17  1  1
 17 16  1  0
 18 20  1  0
 19 18  1  0
 20 22  2  0
 20 21  1  0
M  END
$$$$
