SGR.pdb
     RDKit          3D

 22 21  0  0  1  0  0  0  0  0999 V2000
    3.1695  -20.1559   21.5187 O   0  0  0  0  0  0  0  0  0  0  0  0
    4.2983  -20.8418   21.0555 C   0  0  0  0  0  0  0  0  0  0  0  0
    4.7083  -21.8633   22.0845 C   0  0  2  0  0  0  0  0  0  0  0  0
    3.5556  -22.6458   22.4366 N   0  0  0  0  0  0  0  0  0  0  0  0
    5.1224  -21.0953   23.3028 C   0  0  0  0  0  0  0  0  0  0  0  0
    4.4835  -21.2391   24.3708 O   0  0  0  0  0  0  0  0  0  0  0  0
    6.2269  -20.2034   23.2779 N   0  0  0  0  0  0  0  0  0  0  0  0
    6.6989  -19.5472   24.4673 C   0  0  0  0  0  0  0  0  0  0  0  0
    7.8043  -18.5742   24.1459 C   0  0  0  0  0  0  0  0  0  0  0  0
    8.8637  -18.9909   23.6174 O   0  0  0  0  0  0  0  0  0  0  0  0
    8.0706  -12.0272   19.0102 N   0  0  0  0  0  0  0  0  0  0  0  0
    7.9101  -13.4310   19.1276 C   0  0  0  0  0  0  0  0  0  0  0  0
    7.9932  -14.1626   18.0677 N   0  0  0  0  0  0  0  0  0  0  0  0
    7.6606  -14.0389   20.3888 N   0  0  0  0  0  0  0  0  0  0  0  0
    7.6166  -13.2201   21.6189 C   0  0  0  0  0  0  0  0  0  0  0  0
    8.3436  -13.8985   22.7058 C   0  0  0  0  0  0  0  0  0  0  0  0
    7.8192  -15.1063   23.3336 C   0  0  0  0  0  0  0  0  0  0  0  0
    8.6405  -16.1969   23.8927 C   0  0  2  0  0  0  0  0  0  0  0  0
    7.6779  -17.2032   24.4247 N   0  0  0  0  0  0  0  0  0  0  0  0
    9.6733  -15.9418   24.8704 C   0  0  0  0  0  0  0  0  0  0  0  0
   11.0085  -15.6767   24.4314 O   0  0  0  0  0  0  0  0  0  0  0  0
    9.5584  -15.9202   26.0933 O   0  0  0  0  0  0  0  0  0  0  0  0
  1  2  1  0
  2  3  1  0
  3  4  1  1
  5  3  1  0
  5  7  1  0
  6  5  2  0
  8  7  1  0
  8  9  1  0
  9 19  1  0
  9 10  2  0
 11 12  1  0
 12 14  1  0
 12 13  2  0
 14 15  1  0
 16 15  1  0
 18 17  1  1
 17 16  1  0
 18 20  1  0
 19 18  1  0
 20 22  2  0
 20 21  1  0
M  END
$$$$
