SGR.pdb
     RDKit          3D

 22 21  0  0  1  0  0  0  0  0999 V2000
   10.2966  -19.3226   15.6848 O   0  0  0  0  0  0  0  0  0  0  0  0
    9.7889  -18.0277   15.8416 C   0  0  0  0  0  0  0  0  0  0  0  0
   10.7056  -17.2475   16.7478 C   0  0  2  0  0  0  0  0  0  0  0  0
   12.0587  -17.6596   16.4941 N   0  0  0  0  0  0  0  0  0  0  0  0
   10.3644  -17.6552   18.1489 C   0  0  0  0  0  0  0  0  0  0  0  0
    9.2469  -17.3507   18.6264 O   0  0  0  0  0  0  0  0  0  0  0  0
   11.2804  -18.3822   18.9540 N   0  0  0  0  0  0  0  0  0  0  0  0
   10.9511  -18.7983   20.2906 C   0  0  0  0  0  0  0  0  0  0  0  0
   11.1152  -17.6617   21.2670 C   0  0  0  0  0  0  0  0  0  0  0  0
   12.2271  -17.0889   21.3715 O   0  0  0  0  0  0  0  0  0  0  0  0
    6.8996  -14.3848   19.1760 N   0  0  0  0  0  0  0  0  0  0  0  0
    7.4496  -13.1020   19.4245 C   0  0  0  0  0  0  0  0  0  0  0  0
    7.7916  -12.3618   18.4241 N   0  0  0  0  0  0  0  0  0  0  0  0
    7.6282  -12.6237   20.7517 N   0  0  0  0  0  0  0  0  0  0  0  0
    7.5770  -13.5570   21.8970 C   0  0  0  0  0  0  0  0  0  0  0  0
    8.7999  -14.3776   21.9374 C   0  0  0  0  0  0  0  0  0  0  0  0
    9.0599  -15.3017   23.0358 C   0  0  0  0  0  0  0  0  0  0  0  0
   10.2289  -16.1964   23.1330 C   0  0  2  0  0  0  0  0  0  0  0  0
   10.0477  -17.2240   22.0684 N   0  0  0  0  0  0  0  0  0  0  0  0
   10.5902  -16.8372   24.3765 C   0  0  0  0  0  0  0  0  0  0  0  0
   11.3449  -16.1103   25.3500 O   0  0  0  0  0  0  0  0  0  0  0  0
   10.3256  -17.9825   24.7337 O   0  0  0  0  0  0  0  0  0  0  0  0
  1  2  1  0
  2  3  1  0
  3  4  1  6
  5  3  1  0
  5  7  1  0
  6  5  2  0
  8  7  1  0
  8  9  1  0
  9 19  1  0
  9 10  2  0
 11 12  1  0
 12 14  1  0
 12 13  2  0
 14 15  1  0
 16 15  1  0
 18 17  1  1
 17 16  1  0
 18 20  1  0
 19 18  1  0
 20 22  2  0
 20 21  1  0
M  END
$$$$
