SGR.pdb
     RDKit          3D

 22 21  0  0  1  0  0  0  0  0999 V2000
    7.1657  -18.8187   19.7777 O   0  0  0  0  0  0  0  0  0  0  0  0
    8.0672  -19.4846   18.9392 C   0  0  0  0  0  0  0  0  0  0  0  0
    8.9810  -20.3380   19.7802 C   0  0  2  0  0  0  0  0  0  0  0  0
    8.1762  -21.2281   20.5708 N   0  0  0  0  0  0  0  0  0  0  0  0
    9.6830  -19.4071   20.7216 C   0  0  0  0  0  0  0  0  0  0  0  0
   10.4932  -18.5655   20.2691 O   0  0  0  0  0  0  0  0  0  0  0  0
    9.4522  -19.4545   22.1217 N   0  0  0  0  0  0  0  0  0  0  0  0
   10.0962  -18.5425   23.0280 C   0  0  0  0  0  0  0  0  0  0  0  0
    9.6889  -18.8177   24.4530 C   0  0  0  0  0  0  0  0  0  0  0  0
    8.9006  -18.0339   25.0356 O   0  0  0  0  0  0  0  0  0  0  0  0
    4.3403  -23.0658   25.9298 N   0  0  0  0  0  0  0  0  0  0  0  0
    4.8395  -22.9943   24.6048 C   0  0  0  0  0  0  0  0  0  0  0  0
    4.0045  -22.9398   23.6222 N   0  0  0  0  0  0  0  0  0  0  0  0
    6.2378  -22.9820   24.3462 N   0  0  0  0  0  0  0  0  0  0  0  0
    7.2058  -22.9892   25.4635 C   0  0  0  0  0  0  0  0  0  0  0  0
    7.8386  -21.6654   25.5947 C   0  0  0  0  0  0  0  0  0  0  0  0
    8.9513  -21.4417   26.5112 C   0  0  0  0  0  0  0  0  0  0  0  0
    9.7782  -20.2209   26.5596 C   0  0  2  0  0  0  0  0  0  0  0  0
   10.1725  -19.9372   25.1502 N   0  0  0  0  0  0  0  0  0  0  0  0
   10.9340  -20.1233   27.4211 C   0  0  0  0  0  0  0  0  0  0  0  0
   10.7588  -20.1507   28.8403 O   0  0  0  0  0  0  0  0  0  0  0  0
   12.1109  -20.0134   27.0862 O   0  0  0  0  0  0  0  0  0  0  0  0
  1  2  1  0
  2  3  1  0
  3  4  1  1
  5  3  1  0
  5  7  1  0
  6  5  2  0
  8  7  1  0
  8  9  1  0
  9 19  1  0
  9 10  2  0
 11 12  1  0
 12 14  1  0
 12 13  2  0
 14 15  1  0
 16 15  1  0
 18 17  1  6
 17 16  1  0
 18 20  1  0
 19 18  1  0
 20 22  2  0
 20 21  1  0
M  END
$$$$
