SGR.pdb
     RDKit          3D

 22 21  0  0  1  0  0  0  0  0999 V2000
    6.9373  -14.1043   17.0163 O   0  0  0  0  0  0  0  0  0  0  0  0
    7.5089  -12.9262   17.5106 C   0  0  0  0  0  0  0  0  0  0  0  0
    8.7491  -13.2730   18.2929 C   0  0  2  0  0  0  0  0  0  0  0  0
    9.4857  -14.2689   17.5644 N   0  0  0  0  0  0  0  0  0  0  0  0
    8.2824  -13.9011   19.5709 C   0  0  0  0  0  0  0  0  0  0  0  0
    7.7106  -13.1954   20.4336 O   0  0  0  0  0  0  0  0  0  0  0  0
    8.4725  -15.2840   19.8307 N   0  0  0  0  0  0  0  0  0  0  0  0
    8.0826  -15.8819   21.0791 C   0  0  0  0  0  0  0  0  0  0  0  0
    9.2658  -16.0297   22.0011 C   0  0  0  0  0  0  0  0  0  0  0  0
    9.3231  -15.3455   23.0518 O   0  0  0  0  0  0  0  0  0  0  0  0
   15.1887  -14.7334   16.9780 N   0  0  0  0  0  0  0  0  0  0  0  0
   14.7978  -14.6976   18.3403 C   0  0  0  0  0  0  0  0  0  0  0  0
   15.5427  -15.2751   19.2219 N   0  0  0  0  0  0  0  0  0  0  0  0
   13.6045  -14.0385   18.7451 N   0  0  0  0  0  0  0  0  0  0  0  0
   13.2137  -14.0062   20.1705 C   0  0  0  0  0  0  0  0  0  0  0  0
   12.8147  -15.3521   20.6174 C   0  0  0  0  0  0  0  0  0  0  0  0
   12.2495  -15.5768   21.9433 C   0  0  0  0  0  0  0  0  0  0  0  0
   11.6330  -16.8368   22.4003 C   0  0  2  0  0  0  0  0  0  0  0  0
   10.3132  -16.9202   21.7124 N   0  0  0  0  0  0  0  0  0  0  0  0
   11.4735  -17.1355   23.8050 C   0  0  0  0  0  0  0  0  0  0  0  0
   11.4880  -18.4974   24.2414 O   0  0  0  0  0  0  0  0  0  0  0  0
   11.3180  -16.3390   24.7273 O   0  0  0  0  0  0  0  0  0  0  0  0
  1  2  1  0
  2  3  1  0
  3  4  1  6
  5  3  1  0
  5  7  1  0
  6  5  2  0
  8  7  1  0
  8  9  1  0
  9 19  1  0
  9 10  2  0
 11 12  1  0
 12 14  1  0
 12 13  2  0
 14 15  1  0
 16 15  1  0
 18 17  1  1
 17 16  1  0
 18 20  1  0
 19 18  1  0
 20 22  2  0
 20 21  1  0
M  END
$$$$
