SGR.pdb
     RDKit          3D

 22 21  0  0  1  0  0  0  0  0999 V2000
    7.9122  -13.4082   16.5779 O   0  0  0  0  0  0  0  0  0  0  0  0
    7.2239  -14.2830   17.4265 C   0  0  0  0  0  0  0  0  0  0  0  0
    7.6766  -14.0490   18.8444 C   0  0  2  0  0  0  0  0  0  0  0  0
    7.5930  -12.6421   19.1249 N   0  0  0  0  0  0  0  0  0  0  0  0
    9.1237  -14.4348   18.8966 C   0  0  0  0  0  0  0  0  0  0  0  0
    9.4597  -15.6115   18.6283 O   0  0  0  0  0  0  0  0  0  0  0  0
   10.1300  -13.4954   19.2440 N   0  0  0  0  0  0  0  0  0  0  0  0
   11.5184  -13.8629   19.3167 C   0  0  0  0  0  0  0  0  0  0  0  0
   11.7981  -14.6789   20.5528 C   0  0  0  0  0  0  0  0  0  0  0  0
   12.9655  -15.0796   20.7809 O   0  0  0  0  0  0  0  0  0  0  0  0
    9.1663  -13.5276   28.6498 N   0  0  0  0  0  0  0  0  0  0  0  0
    9.7392  -14.8244   28.6362 C   0  0  0  0  0  0  0  0  0  0  0  0
   10.1842  -15.3250   29.7394 N   0  0  0  0  0  0  0  0  0  0  0  0
    9.8294  -15.5751   27.4318 N   0  0  0  0  0  0  0  0  0  0  0  0
    9.8944  -14.8879   26.1245 C   0  0  0  0  0  0  0  0  0  0  0  0
    9.8921  -15.8759   25.0317 C   0  0  0  0  0  0  0  0  0  0  0  0
    9.9526  -15.4639   23.6336 C   0  0  0  0  0  0  0  0  0  0  0  0
   11.0448  -15.7940   22.6984 C   0  0  2  0  0  0  0  0  0  0  0  0
   10.7783  -15.0044   21.4624 N   0  0  0  0  0  0  0  0  0  0  0  0
   11.3550  -17.1613   22.3494 C   0  0  0  0  0  0  0  0  0  0  0  0
   12.3476  -17.8708   23.0957 O   0  0  0  0  0  0  0  0  0  0  0  0
   10.8581  -17.8364   21.4512 O   0  0  0  0  0  0  0  0  0  0  0  0
  1  2  1  0
  2  3  1  0
  3  4  1  6
  5  3  1  0
  5  7  1  0
  6  5  2  0
  8  7  1  0
  8  9  1  0
  9 19  1  0
  9 10  2  0
 11 12  1  0
 12 14  1  0
 12 13  2  0
 14 15  1  0
 16 15  1  0
 18 17  1  1
 17 16  1  0
 18 20  1  0
 19 18  1  0
 20 22  2  0
 20 21  1  0
M  END
$$$$
