SGR.pdb
     RDKit          3D

 22 21  0  0  1  0  0  0  0  0999 V2000
    3.2218  -22.1769   20.8917 O   0  0  0  0  0  0  0  0  0  0  0  0
    3.5627  -21.4331   22.0273 C   0  0  0  0  0  0  0  0  0  0  0  0
    4.8781  -20.7401   21.7834 C   0  0  2  0  0  0  0  0  0  0  0  0
    5.9031  -21.7384   21.6498 N   0  0  0  0  0  0  0  0  0  0  0  0
    5.1765  -19.9491   23.0208 C   0  0  0  0  0  0  0  0  0  0  0  0
    4.4577  -18.9658   23.3140 O   0  0  0  0  0  0  0  0  0  0  0  0
    6.2592  -20.2875   23.8747 N   0  0  0  0  0  0  0  0  0  0  0  0
    6.6520  -19.4450   24.9719 C   0  0  0  0  0  0  0  0  0  0  0  0
    7.6094  -18.3739   24.5157 C   0  0  0  0  0  0  0  0  0  0  0  0
    8.4504  -18.6333   23.6209 O   0  0  0  0  0  0  0  0  0  0  0  0
    7.0117  -13.6454   19.1760 N   0  0  0  0  0  0  0  0  0  0  0  0
    8.1690  -13.1494   19.8277 C   0  0  0  0  0  0  0  0  0  0  0  0
    9.0075  -12.4328   19.1576 N   0  0  0  0  0  0  0  0  0  0  0  0
    8.4162  -13.4292   21.1998 N   0  0  0  0  0  0  0  0  0  0  0  0
    7.3364  -13.2859   22.1994 C   0  0  0  0  0  0  0  0  0  0  0  0
    7.8375  -13.6333   23.5405 C   0  0  0  0  0  0  0  0  0  0  0  0
    7.4737  -14.8895   24.1866 C   0  0  0  0  0  0  0  0  0  0  0  0
    8.4159  -15.9730   24.5257 C   0  0  2  0  0  0  0  0  0  0  0  0
    7.5840  -17.0835   25.0705 N   0  0  0  0  0  0  0  0  0  0  0  0
    9.5536  -15.7448   25.3865 C   0  0  0  0  0  0  0  0  0  0  0  0
   10.8230  -15.4302   24.8074 O   0  0  0  0  0  0  0  0  0  0  0  0
    9.5846  -15.7863   26.6140 O   0  0  0  0  0  0  0  0  0  0  0  0
  1  2  1  0
  2  3  1  0
  3  4  1  1
  5  3  1  0
  5  7  1  0
  6  5  2  0
  8  7  1  0
  8  9  1  0
  9 19  1  0
  9 10  2  0
 11 12  1  0
 12 14  1  0
 12 13  2  0
 14 15  1  0
 16 15  1  0
 18 17  1  1
 17 16  1  0
 18 20  1  0
 19 18  1  0
 20 22  2  0
 20 21  1  0
M  END
$$$$
