SGR.pdb
     RDKit          3D

 22 21  0  0  1  0  0  0  0  0999 V2000
   10.3359  -13.4850   17.9029 O   0  0  0  0  0  0  0  0  0  0  0  0
    9.4304  -14.1960   17.1068 C   0  0  0  0  0  0  0  0  0  0  0  0
    8.0267  -13.8435   17.5257 C   0  0  2  0  0  0  0  0  0  0  0  0
    8.0187  -12.4882   18.0034 N   0  0  0  0  0  0  0  0  0  0  0  0
    7.6941  -14.7331   18.6849 C   0  0  0  0  0  0  0  0  0  0  0  0
    7.5766  -15.9670   18.5032 O   0  0  0  0  0  0  0  0  0  0  0  0
    7.5078  -14.2103   19.9918 N   0  0  0  0  0  0  0  0  0  0  0  0
    7.1053  -15.0442   21.0921 C   0  0  0  0  0  0  0  0  0  0  0  0
    8.2634  -15.3140   22.0184 C   0  0  0  0  0  0  0  0  0  0  0  0
    9.4259  -14.9969   21.6673 O   0  0  0  0  0  0  0  0  0  0  0  0
    7.2274  -11.5428   25.5398 N   0  0  0  0  0  0  0  0  0  0  0  0
    6.2871  -11.8247   26.5628 C   0  0  0  0  0  0  0  0  0  0  0  0
    5.6750  -10.8456   27.1391 N   0  0  0  0  0  0  0  0  0  0  0  0
    6.0118  -13.1624   26.9593 N   0  0  0  0  0  0  0  0  0  0  0  0
    7.1067  -14.1485   27.0777 C   0  0  0  0  0  0  0  0  0  0  0  0
    7.4811  -14.6530   25.7452 C   0  0  0  0  0  0  0  0  0  0  0  0
    8.5535  -15.6271   25.5743 C   0  0  0  0  0  0  0  0  0  0  0  0
    9.1660  -15.9968   24.2841 C   0  0  2  0  0  0  0  0  0  0  0  0
    8.0732  -15.9154   23.2736 N   0  0  0  0  0  0  0  0  0  0  0  0
    9.8951  -17.2333   24.1192 C   0  0  0  0  0  0  0  0  0  0  0  0
   11.2262  -17.3396   24.6314 O   0  0  0  0  0  0  0  0  0  0  0  0
    9.5102  -18.2624   23.5695 O   0  0  0  0  0  0  0  0  0  0  0  0
  1  2  1  0
  2  3  1  0
  3  4  1  1
  5  3  1  0
  5  7  1  0
  6  5  2  0
  8  7  1  0
  8  9  1  0
  9 19  1  0
  9 10  2  0
 11 12  1  0
 12 14  1  0
 12 13  2  0
 14 15  1  0
 16 15  1  0
 18 17  1  1
 17 16  1  0
 18 20  1  0
 19 18  1  0
 20 22  2  0
 20 21  1  0
M  END
$$$$
