SGR.pdb
     RDKit          3D

 22 21  0  0  1  0  0  0  0  0999 V2000
   10.0051  -14.2195   16.8748 O   0  0  0  0  0  0  0  0  0  0  0  0
    8.8312  -14.5298   16.1785 C   0  0  0  0  0  0  0  0  0  0  0  0
    7.6795  -13.7842   16.8013 C   0  0  2  0  0  0  0  0  0  0  0  0
    8.1220  -12.4596   17.1401 N   0  0  0  0  0  0  0  0  0  0  0  0
    7.3574  -14.4940   18.0812 C   0  0  0  0  0  0  0  0  0  0  0  0
    6.8813  -15.6521   18.0427 O   0  0  0  0  0  0  0  0  0  0  0  0
    7.5794  -13.8842   19.3441 N   0  0  0  0  0  0  0  0  0  0  0  0
    7.3862  -14.5997   20.5764 C   0  0  0  0  0  0  0  0  0  0  0  0
    8.7056  -14.8975   21.2417 C   0  0  0  0  0  0  0  0  0  0  0  0
    9.7593  -14.3912   20.7848 O   0  0  0  0  0  0  0  0  0  0  0  0
   10.4379  -16.5009   30.0714 N   0  0  0  0  0  0  0  0  0  0  0  0
   10.2649  -15.2423   29.4421 C   0  0  0  0  0  0  0  0  0  0  0  0
    9.8728  -14.2363   30.1491 N   0  0  0  0  0  0  0  0  0  0  0  0
   10.5158  -15.0751   28.0524 N   0  0  0  0  0  0  0  0  0  0  0  0
    9.7884  -15.8908   27.0569 C   0  0  0  0  0  0  0  0  0  0  0  0
   10.2650  -15.5772   25.6987 C   0  0  0  0  0  0  0  0  0  0  0  0
    9.6615  -16.1900   24.5204 C   0  0  0  0  0  0  0  0  0  0  0  0
   10.0570  -15.9170   23.1256 C   0  0  2  0  0  0  0  0  0  0  0  0
    8.7864  -15.7330   22.3681 N   0  0  0  0  0  0  0  0  0  0  0  0
   10.9358  -16.8055   22.4004 C   0  0  0  0  0  0  0  0  0  0  0  0
   10.3868  -17.7029   21.4315 O   0  0  0  0  0  0  0  0  0  0  0  0
   12.1559  -16.9033   22.5062 O   0  0  0  0  0  0  0  0  0  0  0  0
  1  2  1  0
  2  3  1  0
  3  4  1  1
  5  3  1  0
  5  7  1  0
  6  5  2  0
  8  7  1  0
  8  9  1  0
  9 19  1  0
  9 10  2  0
 11 12  1  0
 12 14  1  0
 12 13  2  0
 14 15  1  0
 16 15  1  0
 18 17  1  1
 17 16  1  0
 18 20  1  0
 19 18  1  0
 20 22  2  0
 20 21  1  0
M  END
$$$$
