SGR.pdb
     RDKit          3D

 22 21  0  0  1  0  0  0  0  0999 V2000
   10.2331  -12.1341   19.0171 O   0  0  0  0  0  0  0  0  0  0  0  0
    9.1608  -12.7189   19.7006 C   0  0  0  0  0  0  0  0  0  0  0  0
    8.6842  -13.9220   18.9287 C   0  0  2  0  0  0  0  0  0  0  0  0
    8.0625  -13.4695   17.7147 N   0  0  0  0  0  0  0  0  0  0  0  0
    7.6231  -14.5696   19.7655 C   0  0  0  0  0  0  0  0  0  0  0  0
    6.4218  -14.4735   19.4233 O   0  0  0  0  0  0  0  0  0  0  0  0
    7.9460  -15.2938   20.9433 N   0  0  0  0  0  0  0  0  0  0  0  0
    6.9576  -16.0501   21.6637 C   0  0  0  0  0  0  0  0  0  0  0  0
    7.5725  -16.7589   22.8433 C   0  0  0  0  0  0  0  0  0  0  0  0
    8.7993  -17.0237   22.8377 O   0  0  0  0  0  0  0  0  0  0  0  0
   10.4612  -15.4186   28.9058 N   0  0  0  0  0  0  0  0  0  0  0  0
    9.7491  -14.2853   28.4381 C   0  0  0  0  0  0  0  0  0  0  0  0
    9.3782  -13.3844   29.2845 N   0  0  0  0  0  0  0  0  0  0  0  0
    9.4405  -14.1295   27.0587 N   0  0  0  0  0  0  0  0  0  0  0  0
    8.2465  -14.7818   26.4804 C   0  0  0  0  0  0  0  0  0  0  0  0
    8.2389  -16.2159   26.8173 C   0  0  0  0  0  0  0  0  0  0  0  0
    7.2212  -17.1165   26.2871 C   0  0  0  0  0  0  0  0  0  0  0  0
    7.3682  -17.9421   25.0733 C   0  0  2  0  0  0  0  0  0  0  0  0
    6.8019  -17.1332   23.9567 N   0  0  0  0  0  0  0  0  0  0  0  0
    6.8566  -19.2918   25.0095 C   0  0  0  0  0  0  0  0  0  0  0  0
    7.6010  -20.3562   25.6083 O   0  0  0  0  0  0  0  0  0  0  0  0
    5.8143  -19.6738   24.4833 O   0  0  0  0  0  0  0  0  0  0  0  0
  1  2  1  0
  2  3  1  0
  3  4  1  6
  5  3  1  0
  5  7  1  0
  6  5  2  0
  8  7  1  0
  8  9  1  0
  9 19  1  0
  9 10  2  0
 11 12  1  0
 12 14  1  0
 12 13  2  0
 14 15  1  0
 16 15  1  0
 18 17  1  1
 17 16  1  0
 18 20  1  0
 19 18  1  0
 20 22  2  0
 20 21  1  0
M  END
$$$$
