HMC.pdb
     RDKit          3D

 25 25  0  0  1  0  0  0  0  0999 V2000
   16.5513  -12.2326  -17.5731 N   0  0  0  0  0  0  0  0  0  0  0  0
   17.0986  -11.4283  -16.5081 C   0  0  1  0  0  0  0  0  0  0  0  0
   17.9905  -12.3889  -15.7021 C   0  0  0  0  0  0  0  0  0  0  0  0
   17.1232  -13.4245  -15.0412 C   0  0  0  0  0  0  0  0  0  0  0  0
   15.7504  -13.5223  -15.1097 C   0  0  0  0  0  0  0  0  0  0  0  0
   15.3354  -14.5787  -14.3779 N   0  0  0  0  0  0  0  0  0  0  0  0
   16.4256  -15.1457  -13.8508 C   0  0  0  0  0  0  0  0  0  0  0  0
   17.5096  -14.4454  -14.2533 N   0  0  0  0  0  0  0  0  0  0  0  0
   18.0164  -10.3647  -17.0069 C   0  0  0  0  0  0  0  0  0  0  0  0
   18.3751  -10.4191  -18.2013 O   0  0  0  0  0  0  0  0  0  0  0  0
   19.2470   -3.9450  -20.1686 C   0  0  0  0  0  0  0  0  0  0  0  0
   18.2835   -5.2912  -19.4483 S   0  0  0  0  0  0  0  0  0  0  0  0
   19.2265   -6.2073  -18.2055 C   0  0  0  0  0  0  0  0  0  0  0  0
   18.4354   -7.3895  -17.7047 C   0  0  0  0  0  0  0  0  0  0  0  0
   19.2246   -8.1778  -16.6604 C   0  0  2  0  0  0  0  0  0  0  0  0
   18.4881   -9.3139  -16.1943 N   0  0  0  0  0  0  0  0  0  0  0  0
   19.5433   -7.2437  -15.5583 C   0  0  0  0  0  0  0  0  0  0  0  0
   18.6481   -6.7654  -14.7965 O   0  0  0  0  0  0  0  0  0  0  0  0
   20.8784   -6.8055  -15.2597 N   0  0  0  0  0  0  0  0  0  0  0  0
   21.1568   -6.0007  -14.0821 C   0  0  1  0  0  0  0  0  0  0  0  0
   21.9962   -6.7903  -13.0846 C   0  0  0  0  0  0  0  0  0  0  0  0
   22.3969   -5.6675  -11.7159 S   0  0  0  0  0  0  0  0  0  0  0  0
   21.9365   -4.8092  -14.4691 C   0  0  0  0  0  0  0  0  0  0  0  0
   22.6341   -4.8211  -15.5059 O   0  0  0  0  0  0  0  0  0  0  0  0
   21.8880   -3.6792  -13.6736 O   0  0  0  0  0  0  0  0  0  0  0  0
  2  1  1  6
  2  9  1  0
  3  4  1  0
  3  2  1  0
  4  5  2  0
  6  5  1  0
  7  6  1  0
  8  7  2  0
  8  4  1  0
  9 10  2  0
 11 12  1  0
 12 13  1  0
 14 13  1  0
 15 14  1  6
 16 15  1  0
 16  9  1  0
 17 15  1  0
 18 17  2  0
 19 17  1  0
 20 23  1  0
 20 19  1  0
 20 21  1  1
 22 21  1  0
 23 25  1  0
 24 23  2  0
M  END
$$$$
