HMC.pdb
     RDKit          3D

 25 25  0  0  1  0  0  0  0  0999 V2000
   20.7114  -20.1037  -10.7059 N   0  0  0  0  0  0  0  0  0  0  0  0
   21.7265  -21.0020  -10.2124 C   0  0  1  0  0  0  0  0  0  0  0  0
   21.4394  -22.3458  -10.9049 C   0  0  0  0  0  0  0  0  0  0  0  0
   20.1884  -22.9410  -10.3199 C   0  0  0  0  0  0  0  0  0  0  0  0
   18.9941  -23.1644  -10.9701 C   0  0  0  0  0  0  0  0  0  0  0  0
   18.1052  -23.7053  -10.1094 N   0  0  0  0  0  0  0  0  0  0  0  0
   18.7219  -23.8251   -8.9291 C   0  0  0  0  0  0  0  0  0  0  0  0
   19.9854  -23.3613   -9.0572 N   0  0  0  0  0  0  0  0  0  0  0  0
   23.0969  -20.6165  -10.6547 C   0  0  0  0  0  0  0  0  0  0  0  0
   23.1992  -19.8863  -11.6620 O   0  0  0  0  0  0  0  0  0  0  0  0
   27.9783  -18.9905   -5.6745 C   0  0  0  0  0  0  0  0  0  0  0  0
   27.8111  -20.3222   -6.8820 S   0  0  0  0  0  0  0  0  0  0  0  0
   26.7396  -19.8525   -8.2619 C   0  0  0  0  0  0  0  0  0  0  0  0
   26.5927  -20.9972   -9.2327 C   0  0  0  0  0  0  0  0  0  0  0  0
   25.5996  -20.6543  -10.3422 C   0  0  2  0  0  0  0  0  0  0  0  0
   24.2659  -21.0376   -9.9889 N   0  0  0  0  0  0  0  0  0  0  0  0
   26.0596  -21.3439  -11.5675 C   0  0  0  0  0  0  0  0  0  0  0  0
   26.3545  -22.5782  -11.5791 O   0  0  0  0  0  0  0  0  0  0  0  0
   26.2081  -20.6823  -12.8340 N   0  0  0  0  0  0  0  0  0  0  0  0
   26.6579  -21.4080  -14.0100 C   0  0  1  0  0  0  0  0  0  0  0  0
   25.8626  -20.9778  -15.2369 C   0  0  0  0  0  0  0  0  0  0  0  0
   24.1139  -21.3146  -14.8858 S   0  0  0  0  0  0  0  0  0  0  0  0
   28.0762  -21.0966  -14.2722 C   0  0  0  0  0  0  0  0  0  0  0  0
   28.7395  -21.7966  -15.0671 O   0  0  0  0  0  0  0  0  0  0  0  0
   28.6647  -20.0226  -13.6300 O   0  0  0  0  0  0  0  0  0  0  0  0
  2  1  1  6
  2  9  1  0
  3  4  1  0
  3  2  1  0
  4  5  2  0
  6  5  1  0
  7  6  1  0
  8  7  2  0
  8  4  1  0
  9 10  2  0
 11 12  1  0
 12 13  1  0
 14 13  1  0
 15 14  1  1
 16 15  1  0
 16  9  1  0
 17 15  1  0
 18 17  2  0
 19 17  1  0
 20 23  1  0
 20 19  1  0
 20 21  1  6
 22 21  1  0
 23 25  1  0
 24 23  2  0
M  END
$$$$
