HMC.pdb
     RDKit          3D

 25 25  0  0  1  0  0  0  0  0999 V2000
   18.8093   -9.6732  -13.9860 N   0  0  0  0  0  0  0  0  0  0  0  0
   19.0129   -8.9442  -12.7581 C   0  0  1  0  0  0  0  0  0  0  0  0
   20.0242   -7.8402  -13.1137 C   0  0  0  0  0  0  0  0  0  0  0  0
   21.3006   -8.4790  -13.5872 C   0  0  0  0  0  0  0  0  0  0  0  0
   22.0997   -9.3546  -12.8847 C   0  0  0  0  0  0  0  0  0  0  0  0
   23.1624   -9.7032  -13.6414 N   0  0  0  0  0  0  0  0  0  0  0  0
   23.0437   -9.0605  -14.8079 C   0  0  0  0  0  0  0  0  0  0  0  0
   21.9143   -8.3181  -14.7745 N   0  0  0  0  0  0  0  0  0  0  0  0
   17.7870   -8.2247  -12.3089 C   0  0  0  0  0  0  0  0  0  0  0  0
   17.0918   -7.6609  -13.1790 O   0  0  0  0  0  0  0  0  0  0  0  0
   13.1058  -10.8329   -9.0635 C   0  0  0  0  0  0  0  0  0  0  0  0
   13.1715   -9.2596   -8.1805 S   0  0  0  0  0  0  0  0  0  0  0  0
   14.1106   -8.0113   -9.0931 C   0  0  0  0  0  0  0  0  0  0  0  0
   15.4456   -8.5634   -9.5258 C   0  0  0  0  0  0  0  0  0  0  0  0
   16.1485   -7.6110  -10.4920 C   0  0  2  0  0  0  0  0  0  0  0  0
   17.3870   -8.1574  -10.9589 N   0  0  0  0  0  0  0  0  0  0  0  0
   16.3511   -6.3332   -9.7745 C   0  0  0  0  0  0  0  0  0  0  0  0
   17.1367   -6.2312   -8.7830 O   0  0  0  0  0  0  0  0  0  0  0  0
   15.6846   -5.1133  -10.1366 N   0  0  0  0  0  0  0  0  0  0  0  0
   15.8869   -3.8938   -9.3723 C   0  0  1  0  0  0  0  0  0  0  0  0
   15.7876   -2.6741  -10.2809 C   0  0  0  0  0  0  0  0  0  0  0  0
   17.0377   -2.8730  -11.5817 S   0  0  0  0  0  0  0  0  0  0  0  0
   14.8309   -3.7691   -8.3493 C   0  0  0  0  0  0  0  0  0  0  0  0
   13.8877   -4.5881   -8.3131 O   0  0  0  0  0  0  0  0  0  0  0  0
   14.8947   -2.7372   -7.4310 O   0  0  0  0  0  0  0  0  0  0  0  0
  2  1  1  6
  2  9  1  0
  3  4  1  0
  3  2  1  0
  4  5  2  0
  6  5  1  0
  7  6  1  0
  8  7  2  0
  8  4  1  0
  9 10  2  0
 11 12  1  0
 12 13  1  0
 14 13  1  0
 15 14  1  1
 16 15  1  0
 16  9  1  0
 17 15  1  0
 18 17  2  0
 19 17  1  0
 20 23  1  0
 20 19  1  0
 20 21  1  6
 22 21  1  0
 23 25  1  0
 24 23  2  0
M  END
$$$$
