HMC.pdb
     RDKit          3D

 25 25  0  0  1  0  0  0  0  0999 V2000
   26.8896  -36.4632   -8.6995 N   0  0  0  0  0  0  0  0  0  0  0  0
   27.6215  -35.3527   -8.1413 C   0  0  1  0  0  0  0  0  0  0  0  0
   26.5478  -34.4348   -7.5311 C   0  0  0  0  0  0  0  0  0  0  0  0
   26.0134  -33.5257   -8.6033 C   0  0  0  0  0  0  0  0  0  0  0  0
   26.4208  -33.4658   -9.9183 C   0  0  0  0  0  0  0  0  0  0  0  0
   25.7106  -32.5193  -10.5689 N   0  0  0  0  0  0  0  0  0  0  0  0
   24.8638  -31.9836   -9.6835 C   0  0  0  0  0  0  0  0  0  0  0  0
   25.0479  -32.5943   -8.4914 N   0  0  0  0  0  0  0  0  0  0  0  0
   28.4903  -35.7553   -6.9988 C   0  0  0  0  0  0  0  0  0  0  0  0
   28.1512  -36.7565   -6.3348 O   0  0  0  0  0  0  0  0  0  0  0  0
   35.0059  -33.9376   -2.7288 C   0  0  0  0  0  0  0  0  0  0  0  0
   34.0989  -33.8056   -4.2842 S   0  0  0  0  0  0  0  0  0  0  0  0
   32.5868  -34.7986   -4.2709 C   0  0  0  0  0  0  0  0  0  0  0  0
   31.7621  -34.5256   -5.5036 C   0  0  0  0  0  0  0  0  0  0  0  0
   30.4582  -35.3219   -5.4816 C   0  0  2  0  0  0  0  0  0  0  0  0
   29.6641  -35.0600   -6.6439 N   0  0  0  0  0  0  0  0  0  0  0  0
   29.7446  -34.9556   -4.2385 C   0  0  0  0  0  0  0  0  0  0  0  0
   30.2478  -35.1443   -3.0888 O   0  0  0  0  0  0  0  0  0  0  0  0
   28.4372  -34.3605   -4.2280 N   0  0  0  0  0  0  0  0  0  0  0  0
   27.7991  -33.9762   -2.9801 C   0  0  1  0  0  0  0  0  0  0  0  0
   26.7953  -32.8545   -3.2195 C   0  0  0  0  0  0  0  0  0  0  0  0
   26.1047  -32.4010   -1.6034 S   0  0  0  0  0  0  0  0  0  0  0  0
   27.0540  -35.1250   -2.4301 C   0  0  0  0  0  0  0  0  0  0  0  0
   26.4252  -35.8917   -3.1906 O   0  0  0  0  0  0  0  0  0  0  0  0
   27.0582  -35.3452   -1.0649 O   0  0  0  0  0  0  0  0  0  0  0  0
  2  1  1  1
  2  9  1  0
  3  4  1  0
  3  2  1  0
  4  5  2  0
  6  5  1  0
  7  6  1  0
  8  7  2  0
  8  4  1  0
  9 10  2  0
 11 12  1  0
 12 13  1  0
 14 13  1  0
 15 14  1  6
 16 15  1  0
 16  9  1  0
 17 15  1  0
 18 17  2  0
 19 17  1  0
 20 23  1  0
 20 19  1  0
 20 21  1  6
 22 21  1  0
 23 25  1  0
 24 23  2  0
M  END
$$$$
