HMC.pdb
     RDKit          3D

 25 25  0  0  1  0  0  0  0  0999 V2000
   32.1414  -29.3915  -19.2702 N   0  0  0  0  0  0  0  0  0  0  0  0
   30.9750  -30.2324  -19.1560 C   0  0  1  0  0  0  0  0  0  0  0  0
   31.4981  -31.5633  -18.5877 C   0  0  0  0  0  0  0  0  0  0  0  0
   32.1631  -32.3394  -19.6909 C   0  0  0  0  0  0  0  0  0  0  0  0
   33.5165  -32.4602  -19.9202 C   0  0  0  0  0  0  0  0  0  0  0  0
   33.7234  -33.2313  -21.0093 N   0  0  0  0  0  0  0  0  0  0  0  0
   32.5217  -33.5967  -21.4677 C   0  0  0  0  0  0  0  0  0  0  0  0
   31.5756  -33.0554  -20.6678 N   0  0  0  0  0  0  0  0  0  0  0  0
   30.0021  -29.7285  -18.1452 C   0  0  0  0  0  0  0  0  0  0  0  0
   30.3419  -28.7506  -17.4478 O   0  0  0  0  0  0  0  0  0  0  0  0
   26.0389  -24.9106  -20.3864 C   0  0  0  0  0  0  0  0  0  0  0  0
   26.1878  -26.7035  -20.5371 S   0  0  0  0  0  0  0  0  0  0  0  0
   27.2089  -27.4096  -19.2212 C   0  0  0  0  0  0  0  0  0  0  0  0
   27.3471  -28.9007  -19.3995 C   0  0  0  0  0  0  0  0  0  0  0  0
   27.4844  -29.6063  -18.0511 C   0  0  2  0  0  0  0  0  0  0  0  0
   28.7305  -30.3044  -17.9491 N   0  0  0  0  0  0  0  0  0  0  0  0
   26.3316  -30.5241  -17.9199 C   0  0  0  0  0  0  0  0  0  0  0  0
   25.9956  -31.3249  -18.8454 O   0  0  0  0  0  0  0  0  0  0  0  0
   25.5055  -30.5870  -16.7464 N   0  0  0  0  0  0  0  0  0  0  0  0
   24.3954  -31.5210  -16.6610 C   0  0  1  0  0  0  0  0  0  0  0  0
   24.1068  -31.8724  -15.2062 C   0  0  0  0  0  0  0  0  0  0  0  0
   25.5753  -32.7206  -14.5594 S   0  0  0  0  0  0  0  0  0  0  0  0
   23.1783  -30.8962  -17.2137 C   0  0  0  0  0  0  0  0  0  0  0  0
   22.1363  -31.5694  -17.3647 O   0  0  0  0  0  0  0  0  0  0  0  0
   23.2015  -29.5585  -17.5632 O   0  0  0  0  0  0  0  0  0  0  0  0
  2  1  1  1
  2  9  1  0
  3  4  1  0
  3  2  1  0
  4  5  2  0
  6  5  1  0
  7  6  1  0
  8  7  2  0
  8  4  1  0
  9 10  2  0
 11 12  1  0
 12 13  1  0
 14 13  1  0
 15 14  1  6
 16 15  1  0
 16  9  1  0
 17 15  1  0
 18 17  2  0
 19 17  1  0
 20 23  1  0
 20 19  1  0
 20 21  1  1
 22 21  1  0
 23 25  1  0
 24 23  2  0
M  END
$$$$
