HMC.pdb
     RDKit          3D

 25 25  0  0  1  0  0  0  0  0999 V2000
   21.3994  -13.4251  -17.8907 N   0  0  0  0  0  0  0  0  0  0  0  0
   21.2831  -11.9981  -18.0657 C   0  0  1  0  0  0  0  0  0  0  0  0
   19.8162  -11.7647  -18.4675 C   0  0  0  0  0  0  0  0  0  0  0  0
   19.5865  -12.3382  -19.8386 C   0  0  0  0  0  0  0  0  0  0  0  0
   18.5841  -13.2044  -20.2177 C   0  0  0  0  0  0  0  0  0  0  0  0
   18.7139  -13.5000  -21.5289 N   0  0  0  0  0  0  0  0  0  0  0  0
   19.7820  -12.8336  -21.9794 C   0  0  0  0  0  0  0  0  0  0  0  0
   20.3110  -12.1291  -20.9538 N   0  0  0  0  0  0  0  0  0  0  0  0
   21.4658  -11.2476  -16.7907 C   0  0  0  0  0  0  0  0  0  0  0  0
   21.1159  -11.8072  -15.7312 O   0  0  0  0  0  0  0  0  0  0  0  0
   27.4826  -10.6138  -16.3889 C   0  0  0  0  0  0  0  0  0  0  0  0
   26.2150  -10.2164  -15.1663 S   0  0  0  0  0  0  0  0  0  0  0  0
   24.6028   -9.9271  -15.9342 C   0  0  0  0  0  0  0  0  0  0  0  0
   23.5740   -9.5723  -14.8902 C   0  0  0  0  0  0  0  0  0  0  0  0
   22.2397   -9.2012  -15.5355 C   0  0  2  0  0  0  0  0  0  0  0  0
   22.0114   -9.9490  -16.7351 N   0  0  0  0  0  0  0  0  0  0  0  0
   22.2718   -7.7454  -15.7970 C   0  0  0  0  0  0  0  0  0  0  0  0
   22.9400   -7.2443  -16.7526 O   0  0  0  0  0  0  0  0  0  0  0  0
   21.5561   -6.7871  -15.0015 N   0  0  0  0  0  0  0  0  0  0  0  0
   21.5757   -5.3727  -15.3351 C   0  0  1  0  0  0  0  0  0  0  0  0
   20.1548   -4.8320  -15.4426 C   0  0  0  0  0  0  0  0  0  0  0  0
   19.3200   -5.7777  -16.7476 S   0  0  0  0  0  0  0  0  0  0  0  0
   22.2542   -4.6199  -14.2626 C   0  0  0  0  0  0  0  0  0  0  0  0
   22.5472   -5.1817  -13.1855 O   0  0  0  0  0  0  0  0  0  0  0  0
   22.5629   -3.2866  -14.4607 O   0  0  0  0  0  0  0  0  0  0  0  0
  2  1  1  1
  2  9  1  0
  3  4  1  0
  3  2  1  0
  4  5  2  0
  6  5  1  0
  7  6  1  0
  8  7  2  0
  8  4  1  0
  9 10  2  0
 11 12  1  0
 12 13  1  0
 14 13  1  0
 15 14  1  6
 16 15  1  0
 16  9  1  0
 17 15  1  0
 18 17  2  0
 19 17  1  0
 20 23  1  0
 20 19  1  0
 20 21  1  1
 22 21  1  0
 23 25  1  0
 24 23  2  0
M  END
$$$$
