HMC.pdb
     RDKit          3D

 25 25  0  0  1  0  0  0  0  0999 V2000
   28.5228  -20.9773  -16.2673 N   0  0  0  0  0  0  0  0  0  0  0  0
   27.9159  -20.1239  -15.2753 C   0  0  1  0  0  0  0  0  0  0  0  0
   27.2276  -19.0067  -16.0788 C   0  0  0  0  0  0  0  0  0  0  0  0
   28.2784  -18.1767  -16.7632 C   0  0  0  0  0  0  0  0  0  0  0  0
   28.4964  -18.0691  -18.1196 C   0  0  0  0  0  0  0  0  0  0  0  0
   29.5347  -17.2358  -18.3458 N   0  0  0  0  0  0  0  0  0  0  0  0
   29.9723  -16.8184  -17.1533 C   0  0  0  0  0  0  0  0  0  0  0  0
   29.2101  -17.3894  -16.1937 N   0  0  0  0  0  0  0  0  0  0  0  0
   26.8196  -20.8036  -14.5280 C   0  0  0  0  0  0  0  0  0  0  0  0
   26.1730  -21.6903  -15.1229 O   0  0  0  0  0  0  0  0  0  0  0  0
   26.1769  -20.2271   -8.0336 C   0  0  0  0  0  0  0  0  0  0  0  0
   27.2089  -21.5201   -8.7565 S   0  0  0  0  0  0  0  0  0  0  0  0
   26.9129  -21.7075  -10.5313 C   0  0  0  0  0  0  0  0  0  0  0  0
   25.6634  -20.9695  -10.9414 C   0  0  0  0  0  0  0  0  0  0  0  0
   25.4238  -21.0857  -12.4460 C   0  0  2  0  0  0  0  0  0  0  0  0
   26.4893  -20.4894  -13.1942 N   0  0  0  0  0  0  0  0  0  0  0  0
   24.1255  -20.4368  -12.7323 C   0  0  0  0  0  0  0  0  0  0  0  0
   24.0282  -19.1941  -12.9706 O   0  0  0  0  0  0  0  0  0  0  0  0
   22.8795  -21.1508  -12.7658 N   0  0  0  0  0  0  0  0  0  0  0  0
   21.7920  -20.7196  -13.6282 C   0  0  1  0  0  0  0  0  0  0  0  0
   22.2303  -20.7409  -15.0878 C   0  0  0  0  0  0  0  0  0  0  0  0
   21.2321  -19.5038  -15.9640 S   0  0  0  0  0  0  0  0  0  0  0  0
   20.6551  -21.6508  -13.4953 C   0  0  0  0  0  0  0  0  0  0  0  0
   20.8536  -22.8823  -13.4198 O   0  0  0  0  0  0  0  0  0  0  0  0
   19.3677  -21.1478  -13.4550 O   0  0  0  0  0  0  0  0  0  0  0  0
  2  1  1  6
  2  9  1  0
  3  4  1  0
  3  2  1  0
  4  5  2  0
  6  5  1  0
  7  6  1  0
  8  7  2  0
  8  4  1  0
  9 10  2  0
 11 12  1  0
 12 13  1  0
 14 13  1  0
 15 14  1  1
 16 15  1  0
 16  9  1  0
 17 15  1  0
 18 17  2  0
 19 17  1  0
 20 23  1  0
 20 19  1  0
 20 21  1  6
 22 21  1  0
 23 25  1  0
 24 23  2  0
M  END
$$$$
