HMC.pdb
     RDKit          3D

 25 25  0  0  1  0  0  0  0  0999 V2000
   20.1812  -11.7266  -20.8880 N   0  0  0  0  0  0  0  0  0  0  0  0
   20.8951  -10.4766  -20.7964 C   0  0  1  0  0  0  0  0  0  0  0  0
   20.0616   -9.4808  -21.6218 C   0  0  0  0  0  0  0  0  0  0  0  0
   20.2150   -9.8056  -23.0821 C   0  0  0  0  0  0  0  0  0  0  0  0
   21.2302   -9.3978  -23.9198 C   0  0  0  0  0  0  0  0  0  0  0  0
   21.0155   -9.8851  -25.1608 N   0  0  0  0  0  0  0  0  0  0  0  0
   19.8816  -10.5922  -25.1160 C   0  0  0  0  0  0  0  0  0  0  0  0
   19.3964  -10.5437  -23.8550 N   0  0  0  0  0  0  0  0  0  0  0  0
   20.9091   -9.9248  -19.4116 C   0  0  0  0  0  0  0  0  0  0  0  0
   19.9978  -10.2786  -18.6353 O   0  0  0  0  0  0  0  0  0  0  0  0
   25.6325   -9.9344  -13.5768 C   0  0  0  0  0  0  0  0  0  0  0  0
   25.5475   -9.3855  -15.2946 S   0  0  0  0  0  0  0  0  0  0  0  0
   23.8839   -8.8377  -15.7473 C   0  0  0  0  0  0  0  0  0  0  0  0
   23.5978   -9.1511  -17.1945 C   0  0  0  0  0  0  0  0  0  0  0  0
   22.1741   -8.7471  -17.5745 C   0  0  2  0  0  0  0  0  0  0  0  0
   21.8977   -9.0321  -18.9503 N   0  0  0  0  0  0  0  0  0  0  0  0
   22.0362   -7.3044  -17.2771 C   0  0  0  0  0  0  0  0  0  0  0  0
   22.6554   -6.4152  -17.9379 O   0  0  0  0  0  0  0  0  0  0  0  0
   21.1978   -6.7939  -16.2283 N   0  0  0  0  0  0  0  0  0  0  0  0
   21.0367   -5.3636  -16.0273 C   0  0  1  0  0  0  0  0  0  0  0  0
   19.7188   -5.0711  -15.3197 C   0  0  0  0  0  0  0  0  0  0  0  0
   18.3858   -5.6073  -16.4288 S   0  0  0  0  0  0  0  0  0  0  0  0
   22.1221   -4.8590  -15.1645 C   0  0  0  0  0  0  0  0  0  0  0  0
   22.7873   -5.6486  -14.4604 O   0  0  0  0  0  0  0  0  0  0  0  0
   22.3965   -3.5038  -15.1424 O   0  0  0  0  0  0  0  0  0  0  0  0
  2  1  1  1
  2  9  1  0
  3  4  1  0
  3  2  1  0
  4  5  2  0
  6  5  1  0
  7  6  1  0
  8  7  2  0
  8  4  1  0
  9 10  2  0
 11 12  1  0
 12 13  1  0
 14 13  1  0
 15 14  1  6
 16 15  1  0
 16  9  1  0
 17 15  1  0
 18 17  2  0
 19 17  1  0
 20 23  1  0
 20 19  1  0
 20 21  1  1
 22 21  1  0
 23 25  1  0
 24 23  2  0
M  END
$$$$
