HMC.pdb
     RDKit          3D

 25 25  0  0  1  0  0  0  0  0999 V2000
   27.4225  -34.1350  -15.7851 N   0  0  0  0  0  0  0  0  0  0  0  0
   26.6555  -33.5618  -14.7064 C   0  0  1  0  0  0  0  0  0  0  0  0
   25.2039  -33.5426  -15.2166 C   0  0  0  0  0  0  0  0  0  0  0  0
   25.0157  -32.3505  -16.1138 C   0  0  0  0  0  0  0  0  0  0  0  0
   25.6200  -32.1259  -17.3317 C   0  0  0  0  0  0  0  0  0  0  0  0
   25.2047  -30.9418  -17.8308 N   0  0  0  0  0  0  0  0  0  0  0  0
   24.3495  -30.4191  -16.9459 C   0  0  0  0  0  0  0  0  0  0  0  0
   24.2351  -31.2738  -15.9046 N   0  0  0  0  0  0  0  0  0  0  0  0
   26.6347  -34.4292  -13.4941 C   0  0  0  0  0  0  0  0  0  0  0  0
   26.9574  -35.6273  -13.6305 O   0  0  0  0  0  0  0  0  0  0  0  0
   25.8150  -31.7329   -7.5796 C   0  0  0  0  0  0  0  0  0  0  0  0
   27.5261  -32.0802   -8.0388 S   0  0  0  0  0  0  0  0  0  0  0  0
   27.6314  -33.1515   -9.4927 C   0  0  0  0  0  0  0  0  0  0  0  0
   26.2967  -33.7942   -9.7756 C   0  0  0  0  0  0  0  0  0  0  0  0
   26.3723  -34.7044  -11.0006 C   0  0  2  0  0  0  0  0  0  0  0  0
   26.2709  -33.9560  -12.2171 N   0  0  0  0  0  0  0  0  0  0  0  0
   25.2805  -35.6948  -10.8759 C   0  0  0  0  0  0  0  0  0  0  0  0
   24.1235  -35.4904  -11.3556 O   0  0  0  0  0  0  0  0  0  0  0  0
   25.4364  -36.9582  -10.2101 N   0  0  0  0  0  0  0  0  0  0  0  0
   24.3407  -37.9106  -10.1445 C   0  0  1  0  0  0  0  0  0  0  0  0
   24.8758  -39.3377  -10.1434 C   0  0  0  0  0  0  0  0  0  0  0  0
   23.4401  -40.4473  -10.1882 S   0  0  0  0  0  0  0  0  0  0  0  0
   23.5921  -37.7191   -8.8874 C   0  0  0  0  0  0  0  0  0  0  0  0
   24.1337  -37.1606   -7.9094 O   0  0  0  0  0  0  0  0  0  0  0  0
   22.2855  -38.1636   -8.8017 O   0  0  0  0  0  0  0  0  0  0  0  0
  2  1  1  6
  2  9  1  0
  3  4  1  0
  3  2  1  0
  4  5  2  0
  6  5  1  0
  7  6  1  0
  8  7  2  0
  8  4  1  0
  9 10  2  0
 11 12  1  0
 12 13  1  0
 14 13  1  0
 15 14  1  1
 16 15  1  0
 16  9  1  0
 17 15  1  0
 18 17  2  0
 19 17  1  0
 20 23  1  0
 20 19  1  0
 20 21  1  1
 22 21  1  0
 23 25  1  0
 24 23  2  0
M  END
$$$$
