VYY.pdb
     RDKit          3D

 32 33  0  0  1  0  0  0  0  0999 V2000
   28.6114  -17.1959  -18.4524 C   0  0  0  0  0  0  0  0  0  0  0  0
   28.3361  -18.5252  -19.0768 C   0  0  1  0  0  0  0  0  0  0  0  0
   29.4335  -18.8165  -20.0699 C   0  0  0  0  0  0  0  0  0  0  0  0
   28.2398  -19.6637  -18.1162 C   0  0  2  0  0  0  0  0  0  0  0  0
   28.2580  -20.9275  -18.8002 N   0  0  0  0  0  0  0  0  0  0  0  0
   26.9832  -19.5483  -17.3117 C   0  0  0  0  0  0  0  0  0  0  0  0
   26.8556  -18.5260  -16.6026 O   0  0  0  0  0  0  0  0  0  0  0  0
   18.7933  -20.7103  -14.1652 O   0  0  0  0  0  0  0  0  0  0  0  0
   19.9778  -20.8038  -14.9096 C   0  0  0  0  0  0  0  0  0  0  0  0
   20.3072  -19.8591  -15.8581 C   0  0  0  0  0  0  0  0  0  0  0  0
   21.4738  -19.9633  -16.5818 C   0  0  0  0  0  0  0  0  0  0  0  0
   22.3708  -21.0227  -16.3902 C   0  0  0  0  0  0  0  0  0  0  0  0
   23.6085  -21.1301  -17.1880 C   0  0  0  0  0  0  0  0  0  0  0  0
   24.7452  -20.4294  -16.5415 C   0  0  2  0  0  0  0  0  0  0  0  0
   25.9691  -20.5142  -17.3200 N   0  0  0  0  0  0  0  0  0  0  0  0
   25.0084  -20.8785  -15.1745 C   0  0  0  0  0  0  0  0  0  0  0  0
   25.6454  -21.9316  -14.9168 O   0  0  0  0  0  0  0  0  0  0  0  0
   21.9938  -21.9380  -15.4317 C   0  0  0  0  0  0  0  0  0  0  0  0
   20.8316  -21.8463  -14.7013 C   0  0  0  0  0  0  0  0  0  0  0  0
   27.2757  -20.8423   -6.7160 O   0  0  0  0  0  0  0  0  0  0  0  0
   26.9556  -20.5982   -8.0633 C   0  0  0  0  0  0  0  0  0  0  0  0
   27.5309  -21.3434   -9.0691 C   0  0  0  0  0  0  0  0  0  0  0  0
   27.2132  -21.1002  -10.3938 C   0  0  0  0  0  0  0  0  0  0  0  0
   26.3220  -20.1180  -10.7628 C   0  0  0  0  0  0  0  0  0  0  0  0
   25.9796  -19.8442  -12.1537 C   0  0  0  0  0  0  0  0  0  0  0  0
   24.7647  -20.5800  -12.6667 C   0  0  2  0  0  0  0  0  0  0  0  0
   24.5631  -20.1569  -14.0248 N   0  0  0  0  0  0  0  0  0  0  0  0
   23.5770  -20.4601  -11.8282 C   0  0  0  0  0  0  0  0  0  0  0  0
   22.7652  -19.3414  -11.8321 O   0  0  0  0  0  0  0  0  0  0  0  0
   25.7626  -19.3890   -9.7385 C   0  0  0  0  0  0  0  0  0  0  0  0
   26.0630  -19.6129   -8.4143 C   0  0  0  0  0  0  0  0  0  0  0  0
   23.2616  -21.4029  -11.0622 O   0  0  0  0  0  0  0  0  0  0  0  0
  2  1  1  1
  2  3  1  0
  4  6  1  0
  4  2  1  0
  4  5  1  6
  6  7  2  0
  8  9  1  0
  9 10  2  0
  9 19  1  0
 10 11  1  0
 11 12  2  0
 12 13  1  0
 14 13  1  6
 15 14  1  0
 15  6  1  0
 16 17  2  0
 16 14  1  0
 18 12  1  0
 19 18  2  0
 20 21  1  0
 21 22  2  0
 21 31  1  0
 22 23  1  0
 23 24  2  0
 24 25  1  0
 26 25  1  1
 26 28  1  0
 26 27  1  0
 27 16  1  0
 28 29  1  0
 30 24  1  0
 31 30  2  0
 32 28  2  0
M  END
$$$$
