VYY.pdb
     RDKit          3D

 32 33  0  0  1  0  0  0  0  0999 V2000
   26.5990  -24.9570  -16.3820 C   0  0  0  0  0  0  0  0  0  0  0  0
   28.0258  -24.5535  -16.5664 C   0  0  1  0  0  0  0  0  0  0  0  0
   28.7778  -25.7278  -17.1419 C   0  0  0  0  0  0  0  0  0  0  0  0
   28.2354  -23.3673  -17.4480 C   0  0  2  0  0  0  0  0  0  0  0  0
   29.6317  -23.0529  -17.5779 N   0  0  0  0  0  0  0  0  0  0  0  0
   27.5054  -22.1841  -16.8943 C   0  0  0  0  0  0  0  0  0  0  0  0
   28.0833  -21.5289  -15.9993 O   0  0  0  0  0  0  0  0  0  0  0  0
   30.8347  -17.2790  -18.3507 O   0  0  0  0  0  0  0  0  0  0  0  0
   29.5450  -17.8182  -18.2418 C   0  0  0  0  0  0  0  0  0  0  0  0
   28.6614  -17.3796  -17.2787 C   0  0  0  0  0  0  0  0  0  0  0  0
   27.3979  -17.9180  -17.1834 C   0  0  0  0  0  0  0  0  0  0  0  0
   26.9558  -18.9255  -18.0511 C   0  0  0  0  0  0  0  0  0  0  0  0
   25.6041  -19.5057  -17.9234 C   0  0  0  0  0  0  0  0  0  0  0  0
   25.5572  -20.5769  -16.8980 C   0  0  2  0  0  0  0  0  0  0  0  0
   26.2329  -21.7899  -17.3263 N   0  0  0  0  0  0  0  0  0  0  0  0
   24.2018  -20.9070  -16.4580 C   0  0  0  0  0  0  0  0  0  0  0  0
   23.4529  -21.6904  -17.0958 O   0  0  0  0  0  0  0  0  0  0  0  0
   27.8772  -19.3270  -18.9937 C   0  0  0  0  0  0  0  0  0  0  0  0
   29.1426  -18.7980  -19.1005 C   0  0  0  0  0  0  0  0  0  0  0  0
   16.7932  -19.9674  -11.4647 O   0  0  0  0  0  0  0  0  0  0  0  0
   18.0938  -19.9167  -11.9969 C   0  0  0  0  0  0  0  0  0  0  0  0
   19.0282  -20.8724  -11.6633 C   0  0  0  0  0  0  0  0  0  0  0  0
   20.3069  -20.8190  -12.1893 C   0  0  0  0  0  0  0  0  0  0  0  0
   20.6991  -19.8244  -13.0565 C   0  0  0  0  0  0  0  0  0  0  0  0
   22.0438  -19.7493  -13.6161 C   0  0  0  0  0  0  0  0  0  0  0  0
   22.2761  -20.6141  -14.8321 C   0  0  2  0  0  0  0  0  0  0  0  0
   23.6218  -20.3661  -15.2698 N   0  0  0  0  0  0  0  0  0  0  0  0
   21.2767  -20.4710  -15.8852 C   0  0  0  0  0  0  0  0  0  0  0  0
   21.2877  -19.4296  -16.7940 O   0  0  0  0  0  0  0  0  0  0  0  0
   19.7464  -18.8832  -13.3725 C   0  0  0  0  0  0  0  0  0  0  0  0
   18.4688  -18.9159  -12.8621 C   0  0  0  0  0  0  0  0  0  0  0  0
   20.3579  -21.3198  -15.9870 O   0  0  0  0  0  0  0  0  0  0  0  0
  2  1  1  6
  2  3  1  0
  4  6  1  0
  4  2  1  0
  4  5  1  1
  6  7  2  0
  8  9  1  0
  9 10  2  0
  9 19  1  0
 10 11  1  0
 11 12  2  0
 12 13  1  0
 14 13  1  6
 15 14  1  0
 15  6  1  0
 16 17  2  0
 16 14  1  0
 18 12  1  0
 19 18  2  0
 20 21  1  0
 21 22  2  0
 21 31  1  0
 22 23  1  0
 23 24  2  0
 24 25  1  0
 26 25  1  1
 26 28  1  0
 26 27  1  0
 27 16  1  0
 28 29  1  0
 30 24  1  0
 31 30  2  0
 32 28  2  0
M  END
$$$$
