VYY.pdb
     RDKit          3D

 32 33  0  0  1  0  0  0  0  0999 V2000
   28.9706  -20.3278  -13.7673 C   0  0  0  0  0  0  0  0  0  0  0  0
   28.3841  -19.4083  -14.7885 C   0  0  1  0  0  0  0  0  0  0  0  0
   29.2706  -19.4311  -16.0088 C   0  0  0  0  0  0  0  0  0  0  0  0
   26.9870  -19.7348  -15.2008 C   0  0  2  0  0  0  0  0  0  0  0  0
   26.5180  -18.8337  -16.2174 N   0  0  0  0  0  0  0  0  0  0  0  0
   26.0762  -19.6695  -14.0152 C   0  0  0  0  0  0  0  0  0  0  0  0
   25.7302  -18.5318  -13.6276 O   0  0  0  0  0  0  0  0  0  0  0  0
   19.8190  -19.1163  -15.8338 O   0  0  0  0  0  0  0  0  0  0  0  0
   20.7411  -19.7153  -14.9638 C   0  0  0  0  0  0  0  0  0  0  0  0
   21.6824  -20.6129  -15.4209 C   0  0  0  0  0  0  0  0  0  0  0  0
   22.5818  -21.1935  -14.5553 C   0  0  0  0  0  0  0  0  0  0  0  0
   22.5826  -20.9025  -13.1846 C   0  0  0  0  0  0  0  0  0  0  0  0
   23.5418  -21.5483  -12.2665 C   0  0  0  0  0  0  0  0  0  0  0  0
   24.7941  -20.7638  -12.1345 C   0  0  2  0  0  0  0  0  0  0  0  0
   25.6067  -20.8021  -13.3384 N   0  0  0  0  0  0  0  0  0  0  0  0
   25.6113  -21.1546  -10.9859 C   0  0  0  0  0  0  0  0  0  0  0  0
   26.2038  -22.2618  -10.9196 O   0  0  0  0  0  0  0  0  0  0  0  0
   21.6224  -20.0004  -12.7809 C   0  0  0  0  0  0  0  0  0  0  0  0
   20.7177  -19.4127  -13.6345 C   0  0  0  0  0  0  0  0  0  0  0  0
   29.4454  -19.7148   -2.9972 O   0  0  0  0  0  0  0  0  0  0  0  0
   28.9603  -19.6964   -4.3169 C   0  0  0  0  0  0  0  0  0  0  0  0
   27.8621  -18.9352   -4.6521 C   0  0  0  0  0  0  0  0  0  0  0  0
   27.3879  -18.9197   -5.9520 C   0  0  0  0  0  0  0  0  0  0  0  0
   27.9816  -19.6524   -6.9550 C   0  0  0  0  0  0  0  0  0  0  0  0
   27.4922  -19.6523   -8.3288 C   0  0  0  0  0  0  0  0  0  0  0  0
   26.4587  -20.7096   -8.6361 C   0  0  2  0  0  0  0  0  0  0  0  0
   25.8009  -20.3102   -9.8493 N   0  0  0  0  0  0  0  0  0  0  0  0
   25.5443  -21.0090   -7.5395 C   0  0  0  0  0  0  0  0  0  0  0  0
   25.9055  -21.7794   -6.4500 O   0  0  0  0  0  0  0  0  0  0  0  0
   29.0761  -20.4035   -6.5925 C   0  0  0  0  0  0  0  0  0  0  0  0
   29.5656  -20.4345   -5.3067 C   0  0  0  0  0  0  0  0  0  0  0  0
   24.3738  -20.5573   -7.5678 O   0  0  0  0  0  0  0  0  0  0  0  0
  2  1  1  1
  2  3  1  0
  4  6  1  0
  4  2  1  0
  4  5  1  6
  6  7  2  0
  8  9  1  0
  9 10  2  0
  9 19  1  0
 10 11  1  0
 11 12  2  0
 12 13  1  0
 14 13  1  6
 15 14  1  0
 15  6  1  0
 16 17  2  0
 16 14  1  0
 18 12  1  0
 19 18  2  0
 20 21  1  0
 21 22  2  0
 21 31  1  0
 22 23  1  0
 23 24  2  0
 24 25  1  0
 26 25  1  1
 26 28  1  0
 26 27  1  0
 27 16  1  0
 28 29  1  0
 30 24  1  0
 31 30  2  0
 32 28  2  0
M  END
$$$$
