VYY.pdb
     RDKit          3D

 32 33  0  0  1  0  0  0  0  0999 V2000
   27.0253  -32.6180  -13.8444 C   0  0  0  0  0  0  0  0  0  0  0  0
   27.7886  -32.2692  -15.0806 C   0  0  1  0  0  0  0  0  0  0  0  0
   29.0840  -33.0421  -15.0693 C   0  0  0  0  0  0  0  0  0  0  0  0
   27.0729  -32.5457  -16.3611 C   0  0  2  0  0  0  0  0  0  0  0  0
   26.8731  -33.9557  -16.5543 N   0  0  0  0  0  0  0  0  0  0  0  0
   27.8509  -31.9883  -17.5116 C   0  0  0  0  0  0  0  0  0  0  0  0
   28.3180  -32.8092  -18.3314 O   0  0  0  0  0  0  0  0  0  0  0  0
   22.7748  -28.5900  -20.7184 O   0  0  0  0  0  0  0  0  0  0  0  0
   24.0846  -29.0707  -20.5784 C   0  0  0  0  0  0  0  0  0  0  0  0
   24.3374  -30.3414  -20.1074 C   0  0  0  0  0  0  0  0  0  0  0  0
   25.6286  -30.8005  -19.9751 C   0  0  0  0  0  0  0  0  0  0  0  0
   26.7337  -30.0064  -20.3094 C   0  0  0  0  0  0  0  0  0  0  0  0
   28.1129  -30.5070  -20.1437 C   0  0  0  0  0  0  0  0  0  0  0  0
   28.7192  -30.0449  -18.8709 C   0  0  2  0  0  0  0  0  0  0  0  0
   28.0721  -30.6187  -17.7033 N   0  0  0  0  0  0  0  0  0  0  0  0
   28.7589  -28.5889  -18.7362 C   0  0  0  0  0  0  0  0  0  0  0  0
   27.8494  -27.9350  -18.1648 O   0  0  0  0  0  0  0  0  0  0  0  0
   26.4254  -28.7465  -20.7744 C   0  0  0  0  0  0  0  0  0  0  0  0
   25.1405  -28.2749  -20.9117 C   0  0  0  0  0  0  0  0  0  0  0  0
   33.4117  -26.1224  -24.5449 O   0  0  0  0  0  0  0  0  0  0  0  0
   32.9095  -26.0927  -23.2318 C   0  0  0  0  0  0  0  0  0  0  0  0
   32.3674  -24.9379  -22.7119 C   0  0  0  0  0  0  0  0  0  0  0  0
   31.8742  -24.9128  -21.4193 C   0  0  0  0  0  0  0  0  0  0  0  0
   31.9019  -26.0226  -20.6052 C   0  0  0  0  0  0  0  0  0  0  0  0
   31.3918  -26.0129  -19.2390 C   0  0  0  0  0  0  0  0  0  0  0  0
   29.9305  -26.3684  -19.1028 C   0  0  2  0  0  0  0  0  0  0  0  0
   29.8331  -27.7950  -19.2426 N   0  0  0  0  0  0  0  0  0  0  0  0
   29.0352  -25.6262  -19.9836 C   0  0  0  0  0  0  0  0  0  0  0  0
   28.3228  -26.2238  -21.0063 O   0  0  0  0  0  0  0  0  0  0  0  0
   32.4488  -27.1620  -21.1495 C   0  0  0  0  0  0  0  0  0  0  0  0
   32.9451  -27.2108  -22.4321 C   0  0  0  0  0  0  0  0  0  0  0  0
   28.8920  -24.3898  -19.8225 O   0  0  0  0  0  0  0  0  0  0  0  0
  2  1  1  1
  2  3  1  0
  4  6  1  0
  4  2  1  0
  4  5  1  6
  6  7  2  0
  8  9  1  0
  9 10  2  0
  9 19  1  0
 10 11  1  0
 11 12  2  0
 12 13  1  0
 14 13  1  6
 15 14  1  0
 15  6  1  0
 16 17  2  0
 16 14  1  0
 18 12  1  0
 19 18  2  0
 20 21  1  0
 21 22  2  0
 21 31  1  0
 22 23  1  0
 23 24  2  0
 24 25  1  0
 26 25  1  6
 26 28  1  0
 26 27  1  0
 27 16  1  0
 28 29  1  0
 30 24  1  0
 31 30  2  0
 32 28  2  0
M  END
$$$$
