VYY.pdb
     RDKit          3D

 32 33  0  0  1  0  0  0  0  0999 V2000
   29.1057  -18.3337  -16.0980 C   0  0  0  0  0  0  0  0  0  0  0  0
   27.9374  -18.3286  -15.1666 C   0  0  1  0  0  0  0  0  0  0  0  0
   27.5493  -16.8947  -14.9041 C   0  0  0  0  0  0  0  0  0  0  0  0
   26.7386  -19.0709  -15.6568 C   0  0  2  0  0  0  0  0  0  0  0  0
   26.2262  -18.4938  -16.8692 N   0  0  0  0  0  0  0  0  0  0  0  0
   25.6702  -19.0642  -14.6090 C   0  0  0  0  0  0  0  0  0  0  0  0
   24.9451  -18.0472  -14.5445 O   0  0  0  0  0  0  0  0  0  0  0  0
   20.1997  -17.3765  -16.7430 O   0  0  0  0  0  0  0  0  0  0  0  0
   20.9200  -18.2387  -15.9040 C   0  0  0  0  0  0  0  0  0  0  0  0
   20.6880  -18.2799  -14.5457 C   0  0  0  0  0  0  0  0  0  0  0  0
   21.4028  -19.1316  -13.7338 C   0  0  0  0  0  0  0  0  0  0  0  0
   22.3884  -19.9867  -14.2444 C   0  0  0  0  0  0  0  0  0  0  0  0
   23.1593  -20.8805  -13.3573 C   0  0  0  0  0  0  0  0  0  0  0  0
   24.3457  -20.1997  -12.7828 C   0  0  2  0  0  0  0  0  0  0  0  0
   25.4541  -20.1240  -13.7193 N   0  0  0  0  0  0  0  0  0  0  0  0
   24.8106  -20.7926  -11.5289 C   0  0  0  0  0  0  0  0  0  0  0  0
   25.2167  -21.9800  -11.4489 O   0  0  0  0  0  0  0  0  0  0  0  0
   22.5802  -19.9056  -15.6065 C   0  0  0  0  0  0  0  0  0  0  0  0
   21.8735  -19.0597  -16.4296 C   0  0  0  0  0  0  0  0  0  0  0  0
   30.5003  -19.6698   -5.6523 O   0  0  0  0  0  0  0  0  0  0  0  0
   29.2254  -19.6406   -6.2448 C   0  0  0  0  0  0  0  0  0  0  0  0
   28.6643  -20.7869   -6.7635 C   0  0  0  0  0  0  0  0  0  0  0  0
   27.4095  -20.7539   -7.3458 C   0  0  0  0  0  0  0  0  0  0  0  0
   26.6748  -19.5929   -7.4327 C   0  0  0  0  0  0  0  0  0  0  0  0
   25.3535  -19.5385   -8.0476 C   0  0  0  0  0  0  0  0  0  0  0  0
   25.0510  -20.6654   -9.0063 C   0  0  2  0  0  0  0  0  0  0  0  0
   24.8401  -20.0702  -10.2968 N   0  0  0  0  0  0  0  0  0  0  0  0
   23.9759  -21.5565   -8.5841 C   0  0  0  0  0  0  0  0  0  0  0  0
   24.1563  -22.5617   -7.6526 O   0  0  0  0  0  0  0  0  0  0  0  0
   27.2589  -18.4633   -6.9070 C   0  0  0  0  0  0  0  0  0  0  0  0
   28.5051  -18.4719   -6.3233 C   0  0  0  0  0  0  0  0  0  0  0  0
   22.8296  -21.4213   -9.0768 O   0  0  0  0  0  0  0  0  0  0  0  0
  2  1  1  6
  2  3  1  0
  4  6  1  0
  4  2  1  0
  4  5  1  6
  6  7  2  0
  8  9  1  0
  9 10  2  0
  9 19  1  0
 10 11  1  0
 11 12  2  0
 12 13  1  0
 14 13  1  6
 15 14  1  0
 15  6  1  0
 16 17  2  0
 16 14  1  0
 18 12  1  0
 19 18  2  0
 20 21  1  0
 21 22  2  0
 21 31  1  0
 22 23  1  0
 23 24  2  0
 24 25  1  0
 26 25  1  1
 26 28  1  0
 26 27  1  0
 27 16  1  0
 28 29  1  0
 30 24  1  0
 31 30  2  0
 32 28  2  0
M  END
$$$$
