VYY.pdb
     RDKit          3D

 32 33  0  0  1  0  0  0  0  0999 V2000
   21.1586  -22.3665  -19.5690 C   0  0  0  0  0  0  0  0  0  0  0  0
   22.4570  -22.7808  -20.1813 C   0  0  1  0  0  0  0  0  0  0  0  0
   22.3297  -22.6670  -21.6801 C   0  0  0  0  0  0  0  0  0  0  0  0
   23.6430  -21.9908  -19.7364 C   0  0  2  0  0  0  0  0  0  0  0  0
   24.8414  -22.4305  -20.3966 N   0  0  0  0  0  0  0  0  0  0  0  0
   23.8133  -22.1159  -18.2548 C   0  0  0  0  0  0  0  0  0  0  0  0
   24.4106  -23.1318  -17.8362 O   0  0  0  0  0  0  0  0  0  0  0  0
   29.7138  -21.0783  -17.5241 O   0  0  0  0  0  0  0  0  0  0  0  0
   28.4322  -20.8724  -16.9936 C   0  0  0  0  0  0  0  0  0  0  0  0
   27.8957  -21.7299  -16.0569 C   0  0  0  0  0  0  0  0  0  0  0  0
   26.6360  -21.5155  -15.5445 C   0  0  0  0  0  0  0  0  0  0  0  0
   25.8492  -20.4280  -15.9465 C   0  0  0  0  0  0  0  0  0  0  0  0
   24.4924  -20.2229  -15.4013 C   0  0  0  0  0  0  0  0  0  0  0  0
   23.5361  -21.2406  -15.9021 C   0  0  2  0  0  0  0  0  0  0  0  0
   23.3427  -21.1653  -17.3402 N   0  0  0  0  0  0  0  0  0  0  0  0
   22.2346  -21.1987  -15.2355 C   0  0  0  0  0  0  0  0  0  0  0  0
   21.3569  -20.3422  -15.5133 O   0  0  0  0  0  0  0  0  0  0  0  0
   26.4323  -19.6031  -16.8837 C   0  0  0  0  0  0  0  0  0  0  0  0
   27.6896  -19.8051  -17.4041 C   0  0  0  0  0  0  0  0  0  0  0  0
   15.5907  -24.0975   -9.9859 O   0  0  0  0  0  0  0  0  0  0  0  0
   16.8138  -23.9161  -10.6556 C   0  0  0  0  0  0  0  0  0  0  0  0
   17.9339  -23.4952   -9.9729 C   0  0  0  0  0  0  0  0  0  0  0  0
   19.1357  -23.3179  -10.6356 C   0  0  0  0  0  0  0  0  0  0  0  0
   19.2663  -23.5499  -11.9862 C   0  0  0  0  0  0  0  0  0  0  0  0
   20.5232  -23.3631  -12.7018 C   0  0  0  0  0  0  0  0  0  0  0  0
   20.6296  -22.0697  -13.4739 C   0  0  2  0  0  0  0  0  0  0  0  0
   21.8579  -22.1269  -14.2170 N   0  0  0  0  0  0  0  0  0  0  0  0
   20.4821  -20.8621  -12.6688 C   0  0  0  0  0  0  0  0  0  0  0  0
   19.2661  -20.2349  -12.4722 O   0  0  0  0  0  0  0  0  0  0  0  0
   18.1322  -23.9692  -12.6432 C   0  0  0  0  0  0  0  0  0  0  0  0
   16.9266  -24.1525  -12.0054 C   0  0  0  0  0  0  0  0  0  0  0  0
   21.4916  -20.3543  -12.1227 O   0  0  0  0  0  0  0  0  0  0  0  0
  2  1  1  1
  2  3  1  0
  4  6  1  0
  4  2  1  0
  4  5  1  6
  6  7  2  0
  8  9  1  0
  9 10  2  0
  9 19  1  0
 10 11  1  0
 11 12  2  0
 12 13  1  0
 14 13  1  1
 15 14  1  0
 15  6  1  0
 16 17  2  0
 16 14  1  0
 18 12  1  0
 19 18  2  0
 20 21  1  0
 21 22  2  0
 21 31  1  0
 22 23  1  0
 23 24  2  0
 24 25  1  0
 26 25  1  1
 26 28  1  0
 26 27  1  0
 27 16  1  0
 28 29  1  0
 30 24  1  0
 31 30  2  0
 32 28  2  0
M  END
$$$$
