RFL.pdb
     RDKit          3D

 31 31  0  0  1  0  0  0  0  0999 V2000
   29.5558  -23.7439  -20.7440 N   0  0  0  0  0  0  0  0  0  0  0  0
   28.4250  -24.6099  -20.9309 C   0  0  0  0  0  0  0  0  0  0  0  0
   28.5827  -25.8798  -21.1574 N   0  0  0  0  0  0  0  0  0  0  0  0
   27.0939  -24.1214  -20.8787 N   0  0  0  0  0  0  0  0  0  0  0  0
   26.7488  -22.7495  -20.5861 C   0  0  0  0  0  0  0  0  0  0  0  0
   27.5342  -22.2057  -19.3950 C   0  0  0  0  0  0  0  0  0  0  0  0
   26.7970  -22.4738  -18.1207 C   0  0  0  0  0  0  0  0  0  0  0  0
   26.3290  -21.2740  -17.3819 C   0  0  2  0  0  0  0  0  0  0  0  0
   27.1714  -20.1082  -17.5228 N   0  0  0  0  0  0  0  0  0  0  0  0
   25.9133  -21.5315  -15.9792 C   0  0  0  0  0  0  0  0  0  0  0  0
   25.1143  -22.4696  -15.7778 O   0  0  0  0  0  0  0  0  0  0  0  0
   27.7662  -26.5083  -21.2855 N   0  0  0  0  0  0  0  0  0  0  0  0
   26.3830  -20.7616  -14.8776 C   0  0  1  0  0  0  0  0  0  0  0  0
   25.9066  -20.9368  -13.5214 C   0  0  0  0  0  0  0  0  0  0  0  0
   26.7719  -20.2429  -12.4928 C   0  0  0  0  0  0  0  0  0  0  0  0
   26.3321  -20.4299  -11.1117 C   0  0  0  0  0  0  0  0  0  0  0  0
   25.6021  -19.4444  -10.4830 C   0  0  0  0  0  0  0  0  0  0  0  0
   25.1677  -19.5872   -9.1764 C   0  0  0  0  0  0  0  0  0  0  0  0
   25.4507  -20.7325   -8.4437 C   0  0  0  0  0  0  0  0  0  0  0  0
   26.1814  -21.7135   -9.0799 C   0  0  0  0  0  0  0  0  0  0  0  0
   26.6192  -21.5813  -10.3824 C   0  0  0  0  0  0  0  0  0  0  0  0
   24.5306  -20.3899  -13.3556 O   0  0  0  0  0  0  0  0  0  0  0  0
   24.3230  -19.2144  -13.7291 C   0  0  0  0  0  0  0  0  0  0  0  0
   20.6188  -21.9553  -15.9018 C   0  0  1  0  0  0  0  0  0  0  0  0
   21.4416  -21.0378  -15.0057 C   0  0  0  0  0  0  0  0  0  0  0  0
   20.9092  -19.6216  -15.2722 C   0  0  0  0  0  0  0  0  0  0  0  0
   21.1781  -21.3741  -13.5694 C   0  0  2  0  0  0  0  0  0  0  0  0
   22.1029  -20.6401  -12.6643 N   0  0  0  0  0  0  0  0  0  0  0  0
   23.4833  -21.1521  -12.7993 C   0  0  0  0  0  0  0  0  0  0  0  0
   21.6927  -20.6960  -11.2462 O   0  0  0  0  0  0  0  0  0  0  0  0
   20.7459  -19.8883  -10.6568 O   0  0  0  0  0  0  0  0  0  0  0  0
  2  1  1  0
  2  3  2  0
  4  5  1  0
  4  2  1  0
  6  5  1  0
  7  6  1  0
  8  9  1  1
  8  7  1  0
 10  8  1  0
 10 11  2  0
 12 10  1  0
 13 12  1  0
 13 21  1  0
 13 14  1  1
 15 14  1  0
 16 15  2  0
 17 16  1  0
 18 17  2  0
 18 19  1  0
 19 20  2  0
 20 15  1  0
 21 28  1  0
 22 21  2  0
 24 23  1  6
 24 25  1  0
 24 26  1  0
 27 26  1  6
 27 29  1  0
 28 27  1  0
 29 31  2  0
 29 30  1  0
M  END
$$$$
