RFL.pdb
     RDKit          3D

 31 31  0  0  1  0  0  0  0  0999 V2000
   22.7703  -19.6022  -16.2217 N   0  0  0  0  0  0  0  0  0  0  0  0
   24.1035  -19.0841  -16.3551 C   0  0  0  0  0  0  0  0  0  0  0  0
   24.6553  -18.9447  -17.5234 N   0  0  0  0  0  0  0  0  0  0  0  0
   24.8736  -18.7052  -15.2253 N   0  0  0  0  0  0  0  0  0  0  0  0
   24.3704  -18.6984  -13.8712 C   0  0  0  0  0  0  0  0  0  0  0  0
   23.6747  -20.0100  -13.5151 C   0  0  0  0  0  0  0  0  0  0  0  0
   24.0799  -20.4577  -12.1459 C   0  0  0  0  0  0  0  0  0  0  0  0
   25.4610  -20.9889  -12.0235 C   0  0  2  0  0  0  0  0  0  0  0  0
   25.7555  -22.1155  -12.8794 N   0  0  0  0  0  0  0  0  0  0  0  0
   25.9340  -21.1731  -10.6275 C   0  0  0  0  0  0  0  0  0  0  0  0
   25.6160  -22.2313  -10.0461 O   0  0  0  0  0  0  0  0  0  0  0  0
   25.6262  -18.5898  -17.6202 N   0  0  0  0  0  0  0  0  0  0  0  0
   26.7203  -20.2048   -9.9412 C   0  0  2  0  0  0  0  0  0  0  0  0
   27.1892  -20.3765   -8.5820 C   0  0  0  0  0  0  0  0  0  0  0  0
   28.3054  -19.4244   -8.2132 C   0  0  0  0  0  0  0  0  0  0  0  0
   28.7428  -19.5200   -6.8220 C   0  0  0  0  0  0  0  0  0  0  0  0
   28.3897  -18.5385   -5.9212 C   0  0  0  0  0  0  0  0  0  0  0  0
   28.7848  -18.5964   -4.5957 C   0  0  0  0  0  0  0  0  0  0  0  0
   29.5553  -19.6486   -4.1183 C   0  0  0  0  0  0  0  0  0  0  0  0
   29.9041  -20.6262   -5.0259 C   0  0  0  0  0  0  0  0  0  0  0  0
   29.5154  -20.5782   -6.3495 C   0  0  0  0  0  0  0  0  0  0  0  0
   26.0942  -20.1466   -7.5980 O   0  0  0  0  0  0  0  0  0  0  0  0
   25.3808  -19.1304   -7.7485 C   0  0  0  0  0  0  0  0  0  0  0  0
   21.9007  -22.7824   -6.9071 C   0  0  1  0  0  0  0  0  0  0  0  0
   22.8717  -21.6150   -6.7797 C   0  0  0  0  0  0  0  0  0  0  0  0
   21.9942  -20.3794   -6.5277 C   0  0  0  0  0  0  0  0  0  0  0  0
   23.7459  -21.8206   -5.5801 C   0  0  2  0  0  0  0  0  0  0  0  0
   24.8118  -20.7854   -5.5048 N   0  0  0  0  0  0  0  0  0  0  0  0
   25.8520  -21.0301   -6.5265 C   0  0  0  0  0  0  0  0  0  0  0  0
   25.4414  -20.6969   -4.1713 O   0  0  0  0  0  0  0  0  0  0  0  0
   24.9734  -19.9462   -3.1160 O   0  0  0  0  0  0  0  0  0  0  0  0
  2  1  1  0
  2  3  2  0
  4  5  1  0
  4  2  1  0
  6  5  1  0
  7  6  1  0
  8  9  1  6
  8  7  1  0
 10  8  1  0
 10 11  2  0
 12 10  1  0
 13 12  1  0
 13 21  1  0
 13 14  1  6
 15 14  1  0
 16 15  2  0
 17 16  1  0
 18 17  2  0
 18 19  1  0
 19 20  2  0
 20 15  1  0
 21 28  1  0
 22 21  2  0
 24 23  1  6
 24 25  1  0
 24 26  1  0
 27 26  1  6
 27 29  1  0
 28 27  1  0
 29 31  2  0
 29 30  1  0
M  END
$$$$
