RFL.pdb
     RDKit          3D

 31 31  0  0  1  0  0  0  0  0999 V2000
   29.1543  -19.6393  -16.9586 N   0  0  0  0  0  0  0  0  0  0  0  0
   28.5771  -18.3755  -16.5937 C   0  0  0  0  0  0  0  0  0  0  0  0
   28.0619  -17.5891  -17.4910 N   0  0  0  0  0  0  0  0  0  0  0  0
   28.5447  -17.9306  -15.2468 N   0  0  0  0  0  0  0  0  0  0  0  0
   28.9188  -18.7498  -14.1173 C   0  0  0  0  0  0  0  0  0  0  0  0
   28.7353  -20.2377  -14.4067 C   0  0  0  0  0  0  0  0  0  0  0  0
   28.0755  -20.9149  -13.2468 C   0  0  0  0  0  0  0  0  0  0  0  0
   28.8398  -20.9042  -11.9738 C   0  0  2  0  0  0  0  0  0  0  0  0
   30.1248  -21.5629  -12.0324 N   0  0  0  0  0  0  0  0  0  0  0  0
   28.0478  -21.2686  -10.7711 C   0  0  0  0  0  0  0  0  0  0  0  0
   27.9051  -22.4836  -10.5213 O   0  0  0  0  0  0  0  0  0  0  0  0
   27.6986  -16.6500  -17.2378 N   0  0  0  0  0  0  0  0  0  0  0  0
   27.4560  -20.3014   -9.9103 C   0  0  2  0  0  0  0  0  0  0  0  0
   26.1681  -20.4824   -9.2735 C   0  0  0  0  0  0  0  0  0  0  0  0
   25.9227  -19.5101   -8.1409 C   0  0  0  0  0  0  0  0  0  0  0  0
   26.8119  -19.6850   -6.9944 C   0  0  0  0  0  0  0  0  0  0  0  0
   27.7171  -18.6979   -6.6693 C   0  0  0  0  0  0  0  0  0  0  0  0
   28.5741  -18.8285   -5.5900 C   0  0  0  0  0  0  0  0  0  0  0  0
   28.5567  -19.9626   -4.7886 C   0  0  0  0  0  0  0  0  0  0  0  0
   27.6482  -20.9452   -5.1207 C   0  0  0  0  0  0  0  0  0  0  0  0
   26.7893  -20.8250   -6.1945 C   0  0  0  0  0  0  0  0  0  0  0  0
   25.0528  -20.2930  -10.2433 O   0  0  0  0  0  0  0  0  0  0  0  0
   25.1243  -19.3230  -11.0296 C   0  0  0  0  0  0  0  0  0  0  0  0
   23.6575  -23.7256  -13.8619 C   0  0  1  0  0  0  0  0  0  0  0  0
   23.8619  -22.4531  -13.0490 C   0  0  0  0  0  0  0  0  0  0  0  0
   23.7940  -21.3034  -14.0657 C   0  0  0  0  0  0  0  0  0  0  0  0
   22.7289  -22.2902  -12.0820 C   0  0  2  0  0  0  0  0  0  0  0  0
   22.8671  -21.0358  -11.2943 N   0  0  0  0  0  0  0  0  0  0  0  0
   23.9454  -21.1639  -10.2910 C   0  0  0  0  0  0  0  0  0  0  0  0
   21.6147  -20.6311  -10.6234 O   0  0  0  0  0  0  0  0  0  0  0  0
   20.4586  -20.2388  -11.2605 O   0  0  0  0  0  0  0  0  0  0  0  0
  2  1  1  0
  2  3  2  0
  4  5  1  0
  4  2  1  0
  6  5  1  0
  7  6  1  0
  8  9  1  6
  8  7  1  0
 10  8  1  0
 10 11  2  0
 12 10  1  0
 13 12  1  0
 13 21  1  0
 13 14  1  1
 15 14  1  0
 16 15  2  0
 17 16  1  0
 18 17  2  0
 18 19  1  0
 19 20  2  0
 20 15  1  0
 21 28  1  0
 22 21  2  0
 24 23  1  6
 24 25  1  0
 24 26  1  0
 27 26  1  6
 27 29  1  0
 28 27  1  0
 29 31  2  0
 29 30  1  0
M  END
$$$$
