RFL.pdb
     RDKit          3D

 31 31  0  0  1  0  0  0  0  0999 V2000
   27.7615  -21.6835  -19.3793 N   0  0  0  0  0  0  0  0  0  0  0  0
   26.9245  -20.5548  -19.0811 C   0  0  0  0  0  0  0  0  0  0  0  0
   26.1101  -20.0699  -19.9704 N   0  0  0  0  0  0  0  0  0  0  0  0
   26.9495  -19.9215  -17.8117 N   0  0  0  0  0  0  0  0  0  0  0  0
   28.1000  -19.9102  -16.9382 C   0  0  0  0  0  0  0  0  0  0  0  0
   28.3951  -21.2948  -16.3664 C   0  0  0  0  0  0  0  0  0  0  0  0
   27.3871  -21.6497  -15.3189 C   0  0  0  0  0  0  0  0  0  0  0  0
   27.7374  -21.2619  -13.9291 C   0  0  2  0  0  0  0  0  0  0  0  0
   29.0018  -21.7776  -13.4560 N   0  0  0  0  0  0  0  0  0  0  0  0
   26.6355  -21.4162  -12.9450 C   0  0  0  0  0  0  0  0  0  0  0  0
   25.8920  -22.4123  -13.0636 O   0  0  0  0  0  0  0  0  0  0  0  0
   25.4788  -19.2770  -19.7453 N   0  0  0  0  0  0  0  0  0  0  0  0
   26.4001  -20.4867  -11.8926 C   0  0  2  0  0  0  0  0  0  0  0  0
   25.3134  -20.6143  -10.9441 C   0  0  0  0  0  0  0  0  0  0  0  0
   25.4925  -19.7513   -9.7147 C   0  0  0  0  0  0  0  0  0  0  0  0
   26.7005  -20.0430   -8.9456 C   0  0  0  0  0  0  0  0  0  0  0  0
   27.5451  -21.0545   -9.3491 C   0  0  0  0  0  0  0  0  0  0  0  0
   28.6984  -21.3583   -8.6463 C   0  0  0  0  0  0  0  0  0  0  0  0
   29.0523  -20.6542   -7.5026 C   0  0  0  0  0  0  0  0  0  0  0  0
   28.2020  -19.6440   -7.1059 C   0  0  0  0  0  0  0  0  0  0  0  0
   27.0498  -19.3329   -7.7994 C   0  0  0  0  0  0  0  0  0  0  0  0
   24.0128  -20.2181  -11.5538 O   0  0  0  0  0  0  0  0  0  0  0  0
   24.0373  -19.3828  -12.4845 C   0  0  0  0  0  0  0  0  0  0  0  0
   20.7995  -21.0319  -15.0460 C   0  0  2  0  0  0  0  0  0  0  0  0
   20.8402  -22.1625  -14.0253 C   0  0  0  0  0  0  0  0  0  0  0  0
   21.1173  -23.4366  -14.8377 C   0  0  0  0  0  0  0  0  0  0  0  0
   21.9881  -21.9474  -13.0864 C   0  0  1  0  0  0  0  0  0  0  0  0
   21.6365  -20.9744  -12.0174 N   0  0  0  0  0  0  0  0  0  0  0  0
   22.7850  -20.7525  -11.1133 C   0  0  0  0  0  0  0  0  0  0  0  0
   20.4576  -21.3826  -11.2262 O   0  0  0  0  0  0  0  0  0  0  0  0
   19.1995  -20.8317  -11.3261 O   0  0  0  0  0  0  0  0  0  0  0  0
  2  1  1  0
  2  3  2  0
  4  5  1  0
  4  2  1  0
  6  5  1  0
  7  6  1  0
  8  9  1  1
  8  7  1  0
 10  8  1  0
 10 11  2  0
 12 10  1  0
 13 12  1  0
 13 21  1  0
 13 14  1  6
 15 14  1  0
 16 15  2  0
 17 16  1  0
 18 17  2  0
 18 19  1  0
 19 20  2  0
 20 15  1  0
 21 28  1  0
 22 21  2  0
 24 23  1  6
 24 25  1  0
 24 26  1  0
 27 26  1  6
 27 29  1  0
 28 27  1  0
 29 31  2  0
 29 30  1  0
M  END
$$$$
