RFL.pdb
     RDKit          3D

 31 31  0  0  1  0  0  0  0  0999 V2000
   25.6429  -16.8213  -19.7186 N   0  0  0  0  0  0  0  0  0  0  0  0
   25.9430  -17.9892  -20.4993 C   0  0  0  0  0  0  0  0  0  0  0  0
   25.4991  -18.1165  -21.7141 N   0  0  0  0  0  0  0  0  0  0  0  0
   26.7307  -19.0503  -19.9827 N   0  0  0  0  0  0  0  0  0  0  0  0
   27.2366  -19.0954  -18.6304 C   0  0  0  0  0  0  0  0  0  0  0  0
   26.1111  -19.0578  -17.5993 C   0  0  0  0  0  0  0  0  0  0  0  0
   25.7554  -20.4458  -17.1680 C   0  0  0  0  0  0  0  0  0  0  0  0
   26.7225  -21.1050  -16.2544 C   0  0  2  0  0  0  0  0  0  0  0  0
   27.4439  -22.2153  -16.8336 N   0  0  0  0  0  0  0  0  0  0  0  0
   26.1962  -21.3921  -14.8953 C   0  0  0  0  0  0  0  0  0  0  0  0
   25.3371  -22.2917  -14.7880 O   0  0  0  0  0  0  0  0  0  0  0  0
   25.7000  -18.9680  -22.2732 N   0  0  0  0  0  0  0  0  0  0  0  0
   26.6266  -20.6912  -13.7332 C   0  0  2  0  0  0  0  0  0  0  0  0
   26.0150  -20.8550  -12.4309 C   0  0  0  0  0  0  0  0  0  0  0  0
   26.7963  -20.1904  -11.3190 C   0  0  0  0  0  0  0  0  0  0  0  0
   26.2181  -20.3670   -9.9885 C   0  0  0  0  0  0  0  0  0  0  0  0
   25.2607  -21.3357   -9.7777 C   0  0  0  0  0  0  0  0  0  0  0  0
   24.6918  -21.5322   -8.5311 C   0  0  0  0  0  0  0  0  0  0  0  0
   25.0636  -20.7591   -7.4390 C   0  0  0  0  0  0  0  0  0  0  0  0
   26.0219  -19.7923   -7.6583 C   0  0  0  0  0  0  0  0  0  0  0  0
   26.5955  -19.5881   -8.8972 C   0  0  0  0  0  0  0  0  0  0  0  0
   24.6465  -20.2665  -12.3972 O   0  0  0  0  0  0  0  0  0  0  0  0
   24.5371  -19.0369  -12.5984 C   0  0  0  0  0  0  0  0  0  0  0  0
   21.3735  -21.2100  -15.7101 C   0  0  1  0  0  0  0  0  0  0  0  0
   21.9360  -20.4103  -14.5414 C   0  0  0  0  0  0  0  0  0  0  0  0
   21.4627  -18.9666  -14.7688 C   0  0  0  0  0  0  0  0  0  0  0  0
   21.3331  -20.9042  -13.2615 C   0  0  2  0  0  0  0  0  0  0  0  0
   22.1382  -20.4778  -12.0854 N   0  0  0  0  0  0  0  0  0  0  0  0
   23.5004  -21.0488  -12.1488 C   0  0  0  0  0  0  0  0  0  0  0  0
   21.5136  -20.8342  -10.7948 O   0  0  0  0  0  0  0  0  0  0  0  0
   22.0587  -21.6739   -9.8493 O   0  0  0  0  0  0  0  0  0  0  0  0
  2  1  1  0
  2  3  2  0
  4  5  1  0
  4  2  1  0
  6  5  1  0
  7  6  1  0
  8  9  1  6
  8  7  1  0
 10  8  1  0
 10 11  2  0
 12 10  1  0
 13 12  1  0
 13 21  1  0
 13 14  1  6
 15 14  1  0
 16 15  2  0
 17 16  1  0
 18 17  2  0
 18 19  1  0
 19 20  2  0
 20 15  1  0
 21 28  1  0
 22 21  2  0
 24 23  1  6
 24 25  1  0
 24 26  1  0
 27 26  1  6
 27 29  1  0
 28 27  1  0
 29 31  2  0
 29 30  1  0
M  END
$$$$
