RFL.pdb
     RDKit          3D

 31 31  0  0  1  0  0  0  0  0999 V2000
   28.5801  -16.0037  -18.1654 N   0  0  0  0  0  0  0  0  0  0  0  0
   29.6916  -16.9003  -18.3202 C   0  0  0  0  0  0  0  0  0  0  0  0
   30.7629  -16.5367  -18.9598 N   0  0  0  0  0  0  0  0  0  0  0  0
   29.6701  -18.2150  -17.7871 N   0  0  0  0  0  0  0  0  0  0  0  0
   28.5664  -18.7616  -17.0320 C   0  0  0  0  0  0  0  0  0  0  0  0
   28.5712  -18.2774  -15.5841 C   0  0  0  0  0  0  0  0  0  0  0  0
   27.4596  -18.9220  -14.8172 C   0  0  0  0  0  0  0  0  0  0  0  0
   27.6502  -20.3575  -14.4894 C   0  0  2  0  0  0  0  0  0  0  0  0
   28.2172  -21.1527  -15.5546 N   0  0  0  0  0  0  0  0  0  0  0  0
   26.4863  -21.0037  -13.8304 C   0  0  0  0  0  0  0  0  0  0  0  0
   25.7229  -21.6843  -14.5468 O   0  0  0  0  0  0  0  0  0  0  0  0
   31.5197  -17.2158  -19.1702 N   0  0  0  0  0  0  0  0  0  0  0  0
   26.2141  -20.8766  -12.4388 C   0  0  2  0  0  0  0  0  0  0  0  0
   25.0005  -21.3626  -11.8159 C   0  0  0  0  0  0  0  0  0  0  0  0
   25.1669  -21.6615  -10.3423 C   0  0  0  0  0  0  0  0  0  0  0  0
   26.2569  -20.9305   -9.6994 C   0  0  0  0  0  0  0  0  0  0  0  0
   27.5653  -21.2634   -9.9758 C   0  0  0  0  0  0  0  0  0  0  0  0
   28.6231  -20.5925   -9.3866 C   0  0  0  0  0  0  0  0  0  0  0  0
   28.4084  -19.5535   -8.4903 C   0  0  0  0  0  0  0  0  0  0  0  0
   27.0966  -19.2267   -8.2194 C   0  0  0  0  0  0  0  0  0  0  0  0
   26.0346  -19.8892   -8.8014 C   0  0  0  0  0  0  0  0  0  0  0  0
   23.8991  -20.3649  -11.9239 O   0  0  0  0  0  0  0  0  0  0  0  0
   24.2149  -19.1609  -12.0458 C   0  0  0  0  0  0  0  0  0  0  0  0
   22.8270  -20.1137  -16.5523 C   0  0  1  0  0  0  0  0  0  0  0  0
   22.5717  -19.6704  -15.1170 C   0  0  0  0  0  0  0  0  0  0  0  0
   21.3918  -18.6897  -15.1961 C   0  0  0  0  0  0  0  0  0  0  0  0
   22.1452  -20.8503  -14.2976 C   0  0  2  0  0  0  0  0  0  0  0  0
   21.5950  -20.4243  -12.9827 N   0  0  0  0  0  0  0  0  0  0  0  0
   22.5411  -20.7417  -11.8919 C   0  0  0  0  0  0  0  0  0  0  0  0
   20.2781  -21.0234  -12.6833 O   0  0  0  0  0  0  0  0  0  0  0  0
   19.0667  -20.3751  -12.7759 O   0  0  0  0  0  0  0  0  0  0  0  0
  2  1  1  0
  2  3  2  0
  4  5  1  0
  4  2  1  0
  6  5  1  0
  7  6  1  0
  8  9  1  6
  8  7  1  0
 10  8  1  0
 10 11  2  0
 12 10  1  0
 13 12  1  0
 13 21  1  0
 13 14  1  1
 15 14  1  0
 16 15  2  0
 17 16  1  0
 18 17  2  0
 18 19  1  0
 19 20  2  0
 20 15  1  0
 21 28  1  0
 22 21  2  0
 24 23  1  6
 24 25  1  0
 24 26  1  0
 27 26  1  6
 27 29  1  0
 28 27  1  0
 29 31  2  0
 29 30  1  0
M  END
$$$$
