HKD.pdb
     RDKit          3D

 28 28  0  0  1  0  0  0  0  0999 V2000
   20.9206  -19.4984  -17.5150 N   0  0  0  0  0  0  0  0  0  0  0  0
   21.2008  -18.2178  -16.8908 C   0  0  1  0  0  0  0  0  0  0  0  0
   22.4861  -17.6209  -17.4525 C   0  0  0  0  0  0  0  0  0  0  0  0
   23.6574  -18.4658  -17.2308 C   0  0  0  0  0  0  0  0  0  0  0  0
   24.3470  -19.2739  -18.1217 C   0  0  0  0  0  0  0  0  0  0  0  0
   25.3602  -19.8550  -17.4321 N   0  0  0  0  0  0  0  0  0  0  0  0
   25.2910  -19.4167  -16.1646 C   0  0  0  0  0  0  0  0  0  0  0  0
   24.2696  -18.5809  -16.0355 N   0  0  0  0  0  0  0  0  0  0  0  0
   20.0685  -17.3119  -17.1877 C   0  0  0  0  0  0  0  0  0  0  0  0
   19.9355  -16.7487  -18.2978 O   0  0  0  0  0  0  0  0  0  0  0  0
   19.0984  -17.0690  -16.1921 N   0  0  0  0  0  0  0  0  0  0  0  0
   17.8799  -16.2984  -16.3796 C   0  0  1  0  0  0  0  0  0  0  0  0
   16.6679  -17.1073  -16.0079 C   0  0  0  0  0  0  0  0  0  0  0  0
   16.4358  -18.1890  -16.9916 C   0  0  0  0  0  0  0  0  0  0  0  0
   15.2879  -19.1048  -16.6774 C   0  0  0  0  0  0  0  0  0  0  0  0
   15.2160  -20.2928  -17.6079 C   0  0  0  0  0  0  0  0  0  0  0  0
   14.2569  -21.2226  -17.0252 N   0  0  0  0  0  0  0  0  0  0  0  0
   17.9757  -15.0297  -15.6265 C   0  0  0  0  0  0  0  0  0  0  0  0
   18.4810  -14.9172  -14.4779 O   0  0  0  0  0  0  0  0  0  0  0  0
   17.4851  -13.7948  -16.1713 N   0  0  0  0  0  0  0  0  0  0  0  0
   17.5928  -12.5253  -15.4496 C   0  0  1  0  0  0  0  0  0  0  0  0
   17.6964  -11.3753  -16.3900 C   0  0  0  0  0  0  0  0  0  0  0  0
   17.8007  -10.1012  -15.6661 C   0  0  0  0  0  0  0  0  0  0  0  0
   18.4053   -9.9503  -14.5542 O   0  0  0  0  0  0  0  0  0  0  0  0
   16.3565  -12.3405  -14.6141 C   0  0  0  0  0  0  0  0  0  0  0  0
   15.2777  -12.8826  -15.0353 O   0  0  0  0  0  0  0  0  0  0  0  0
   17.2237   -8.9148  -16.1498 O   0  0  0  0  0  0  0  0  0  0  0  0
   16.2901  -11.6430  -13.4453 O   0  0  0  0  0  0  0  0  0  0  0  0
  2  1  1  6
  3  4  1  0
  3  2  1  0
  4  5  2  0
  6  5  1  0
  7  6  1  0
  8  7  2  0
  8  4  1  0
  9 11  1  0
  9  2  1  0
 10  9  2  0
 12 11  1  0
 12 13  1  1
 13 14  1  0
 14 15  1  0
 15 16  1  0
 17 16  1  0
 18 12  1  0
 19 18  2  0
 20 18  1  0
 21 25  1  0
 21 20  1  0
 21 22  1  6
 23 27  1  0
 23 22  1  0
 24 23  2  0
 25 28  1  0
 26 25  2  0
M  END
$$$$
