HKD.pdb
     RDKit          3D

 28 28  0  0  1  0  0  0  0  0999 V2000
   24.6243  -34.8470   -7.6753 N   0  0  0  0  0  0  0  0  0  0  0  0
   26.0203  -34.9337   -7.2857 C   0  0  1  0  0  0  0  0  0  0  0  0
   26.5864  -33.5439   -7.0184 C   0  0  0  0  0  0  0  0  0  0  0  0
   26.8220  -32.7745   -8.2380 C   0  0  0  0  0  0  0  0  0  0  0  0
   26.6463  -33.1413   -9.5634 C   0  0  0  0  0  0  0  0  0  0  0  0
   27.0046  -32.0765  -10.3235 N   0  0  0  0  0  0  0  0  0  0  0  0
   27.3857  -31.0943   -9.4906 C   0  0  0  0  0  0  0  0  0  0  0  0
   27.2788  -31.5064   -8.2347 N   0  0  0  0  0  0  0  0  0  0  0  0
   26.0955  -35.7407   -6.0472 C   0  0  0  0  0  0  0  0  0  0  0  0
   25.1847  -35.7345   -5.1883 O   0  0  0  0  0  0  0  0  0  0  0  0
   27.2284  -36.5501   -5.8173 N   0  0  0  0  0  0  0  0  0  0  0  0
   27.4304  -37.3980   -4.6537 C   0  0  1  0  0  0  0  0  0  0  0  0
   28.6771  -38.2261   -4.8000 C   0  0  0  0  0  0  0  0  0  0  0  0
   28.3977  -39.4681   -5.5555 C   0  0  0  0  0  0  0  0  0  0  0  0
   29.6024  -40.3015   -5.8859 C   0  0  0  0  0  0  0  0  0  0  0  0
   29.2517  -41.5649   -6.6364 C   0  0  0  0  0  0  0  0  0  0  0  0
   30.5053  -42.2654   -6.8843 N   0  0  0  0  0  0  0  0  0  0  0  0
   27.4338  -36.5675   -3.4305 C   0  0  0  0  0  0  0  0  0  0  0  0
   27.7159  -35.3400   -3.4014 O   0  0  0  0  0  0  0  0  0  0  0  0
   27.1021  -37.1203   -2.1473 N   0  0  0  0  0  0  0  0  0  0  0  0
   27.1417  -36.3232   -0.9196 C   0  0  1  0  0  0  0  0  0  0  0  0
   25.7696  -35.9930   -0.4443 C   0  0  0  0  0  0  0  0  0  0  0  0
   25.8072  -35.2627    0.8299 C   0  0  0  0  0  0  0  0  0  0  0  0
   26.8737  -34.8584    1.3988 O   0  0  0  0  0  0  0  0  0  0  0  0
   27.8313  -37.1226    0.1510 C   0  0  0  0  0  0  0  0  0  0  0  0
   27.6461  -38.3878    0.1491 O   0  0  0  0  0  0  0  0  0  0  0  0
   24.6410  -34.9459    1.5470 O   0  0  0  0  0  0  0  0  0  0  0  0
   28.6372  -36.6106    1.1234 O   0  0  0  0  0  0  0  0  0  0  0  0
  2  1  1  1
  3  4  1  0
  3  2  1  0
  4  5  2  0
  6  5  1  0
  7  6  1  0
  8  7  2  0
  8  4  1  0
  9 11  1  0
  9  2  1  0
 10  9  2  0
 12 11  1  0
 12 13  1  6
 13 14  1  0
 14 15  1  0
 15 16  1  0
 17 16  1  0
 18 12  1  0
 19 18  2  0
 20 18  1  0
 21 25  1  0
 21 20  1  0
 21 22  1  1
 23 27  1  0
 23 22  1  0
 24 23  2  0
 25 28  1  0
 26 25  2  0
M  END
$$$$
