HKD.pdb
     RDKit          3D

 28 28  0  0  1  0  0  0  0  0999 V2000
   25.3012  -13.7498  -19.8190 N   0  0  0  0  0  0  0  0  0  0  0  0
   24.6519  -13.6858  -18.5219 C   0  0  1  0  0  0  0  0  0  0  0  0
   23.2296  -13.1563  -18.6633 C   0  0  0  0  0  0  0  0  0  0  0  0
   23.1755  -11.7583  -19.0848 C   0  0  0  0  0  0  0  0  0  0  0  0
   23.1475  -11.2197  -20.3621 C   0  0  0  0  0  0  0  0  0  0  0  0
   23.1002   -9.8710  -20.2260 N   0  0  0  0  0  0  0  0  0  0  0  0
   23.0995   -9.5964  -18.9114 C   0  0  0  0  0  0  0  0  0  0  0  0
   23.1447  -10.7262  -18.2186 N   0  0  0  0  0  0  0  0  0  0  0  0
   24.6120  -15.0575  -17.9673 C   0  0  0  0  0  0  0  0  0  0  0  0
   24.0596  -16.0065  -18.5686 O   0  0  0  0  0  0  0  0  0  0  0  0
   25.2161  -15.3160  -16.7184 N   0  0  0  0  0  0  0  0  0  0  0  0
   25.2770  -16.6157  -16.0699 C   0  0  1  0  0  0  0  0  0  0  0  0
   26.3376  -16.6373  -15.0040 C   0  0  0  0  0  0  0  0  0  0  0  0
   26.4219  -17.9739  -14.3733 C   0  0  0  0  0  0  0  0  0  0  0  0
   26.9911  -19.0577  -15.2431 C   0  0  0  0  0  0  0  0  0  0  0  0
   26.9857  -20.4106  -14.5707 C   0  0  0  0  0  0  0  0  0  0  0  0
   27.5256  -21.3593  -15.5363 N   0  0  0  0  0  0  0  0  0  0  0  0
   23.9386  -16.9750  -15.5545 C   0  0  0  0  0  0  0  0  0  0  0  0
   23.2485  -16.2482  -14.7910 O   0  0  0  0  0  0  0  0  0  0  0  0
   23.3095  -18.2183  -15.9020 N   0  0  0  0  0  0  0  0  0  0  0  0
   21.9954  -18.6010  -15.3817 C   0  0  1  0  0  0  0  0  0  0  0  0
   21.1136  -19.1167  -16.4652 C   0  0  0  0  0  0  0  0  0  0  0  0
   19.8059  -19.5296  -15.9382 C   0  0  0  0  0  0  0  0  0  0  0  0
   19.3968  -20.7357  -15.8864 O   0  0  0  0  0  0  0  0  0  0  0  0
   22.1800  -19.6931  -14.3648 C   0  0  0  0  0  0  0  0  0  0  0  0
   23.2364  -20.4078  -14.4571 O   0  0  0  0  0  0  0  0  0  0  0  0
   18.8727  -18.6050  -15.4395 O   0  0  0  0  0  0  0  0  0  0  0  0
   21.3149  -19.9848  -13.3532 O   0  0  0  0  0  0  0  0  0  0  0  0
  2  1  1  6
  3  4  1  0
  3  2  1  0
  4  5  2  0
  6  5  1  0
  7  6  1  0
  8  7  2  0
  8  4  1  0
  9 11  1  0
  9  2  1  0
 10  9  2  0
 12 11  1  0
 12 13  1  1
 13 14  1  0
 14 15  1  0
 15 16  1  0
 17 16  1  0
 18 12  1  0
 19 18  2  0
 20 18  1  0
 21 25  1  0
 21 20  1  0
 21 22  1  6
 23 27  1  0
 23 22  1  0
 24 23  2  0
 25 28  1  0
 26 25  2  0
M  END
$$$$
