HKD.pdb
     RDKit          3D

 28 28  0  0  1  0  0  0  0  0999 V2000
   24.6466  -12.1935  -17.9985 N   0  0  0  0  0  0  0  0  0  0  0  0
   24.4192  -11.5612  -16.7114 C   0  0  1  0  0  0  0  0  0  0  0  0
   25.7316  -11.0475  -16.1306 C   0  0  0  0  0  0  0  0  0  0  0  0
   26.6946  -12.1115  -15.8560 C   0  0  0  0  0  0  0  0  0  0  0  0
   27.9747  -12.2969  -16.3553 C   0  0  0  0  0  0  0  0  0  0  0  0
   28.4606  -13.4335  -15.7969 N   0  0  0  0  0  0  0  0  0  0  0  0
   27.5100  -13.9243  -14.9851 C   0  0  0  0  0  0  0  0  0  0  0  0
   26.4449  -13.1350  -15.0153 N   0  0  0  0  0  0  0  0  0  0  0  0
   23.4972  -10.4228  -16.9227 C   0  0  0  0  0  0  0  0  0  0  0  0
   23.6634   -9.5888  -17.8414 O   0  0  0  0  0  0  0  0  0  0  0  0
   22.3879  -10.2633  -16.0650 N   0  0  0  0  0  0  0  0  0  0  0  0
   21.3269   -9.2851  -16.2403 C   0  0  1  0  0  0  0  0  0  0  0  0
   19.9830   -9.8865  -15.9342 C   0  0  0  0  0  0  0  0  0  0  0  0
   19.5565  -10.7998  -17.0183 C   0  0  0  0  0  0  0  0  0  0  0  0
   18.1650  -11.3480  -16.8834 C   0  0  0  0  0  0  0  0  0  0  0  0
   17.7327  -12.1496  -18.0888 C   0  0  0  0  0  0  0  0  0  0  0  0
   16.4935  -12.8224  -17.7209 N   0  0  0  0  0  0  0  0  0  0  0  0
   21.6184   -8.0870  -15.4243 C   0  0  0  0  0  0  0  0  0  0  0  0
   22.0911   -8.1158  -14.2569 O   0  0  0  0  0  0  0  0  0  0  0  0
   21.3772   -6.7623  -15.9235 N   0  0  0  0  0  0  0  0  0  0  0  0
   21.7741   -5.5638  -15.1816 C   0  0  1  0  0  0  0  0  0  0  0  0
   21.8508   -4.3750  -16.0751 C   0  0  0  0  0  0  0  0  0  0  0  0
   22.2424   -3.1712  -15.3297 C   0  0  0  0  0  0  0  0  0  0  0  0
   21.4226   -2.3251  -14.8430 O   0  0  0  0  0  0  0  0  0  0  0  0
   20.7431   -5.2906  -14.1217 C   0  0  0  0  0  0  0  0  0  0  0  0
   19.5466   -5.6772  -14.3541 O   0  0  0  0  0  0  0  0  0  0  0  0
   23.5873   -2.8424  -15.0896 O   0  0  0  0  0  0  0  0  0  0  0  0
   20.9779   -4.6650  -12.9341 O   0  0  0  0  0  0  0  0  0  0  0  0
  2  1  1  6
  3  4  1  0
  3  2  1  0
  4  5  2  0
  6  5  1  0
  7  6  1  0
  8  7  2  0
  8  4  1  0
  9 11  1  0
  9  2  1  0
 10  9  2  0
 12 11  1  0
 12 13  1  1
 13 14  1  0
 14 15  1  0
 15 16  1  0
 17 16  1  0
 18 12  1  0
 19 18  2  0
 20 18  1  0
 21 25  1  0
 21 20  1  0
 21 22  1  6
 23 27  1  0
 23 22  1  0
 24 23  2  0
 25 28  1  0
 26 25  2  0
M  END
$$$$
