HKD.pdb
     RDKit          3D

 28 28  0  0  1  0  0  0  0  0999 V2000
   25.2067  -16.0095  -17.4659 N   0  0  0  0  0  0  0  0  0  0  0  0
   24.4155  -16.6969  -18.4706 C   0  0  1  0  0  0  0  0  0  0  0  0
   25.1996  -16.8236  -19.7717 C   0  0  0  0  0  0  0  0  0  0  0  0
   25.9526  -15.6177  -20.1092 C   0  0  0  0  0  0  0  0  0  0  0  0
   27.3053  -15.3501  -19.9656 C   0  0  0  0  0  0  0  0  0  0  0  0
   27.5141  -14.0904  -20.4231 N   0  0  0  0  0  0  0  0  0  0  0  0
   26.3298  -13.6063  -20.8315 C   0  0  0  0  0  0  0  0  0  0  0  0
   25.3858  -14.5189  -20.6459 N   0  0  0  0  0  0  0  0  0  0  0  0
   24.1014  -18.0477  -17.9536 C   0  0  0  0  0  0  0  0  0  0  0  0
   23.4791  -18.8959  -18.6322 O   0  0  0  0  0  0  0  0  0  0  0  0
   24.5145  -18.4028  -16.6518 N   0  0  0  0  0  0  0  0  0  0  0  0
   24.2455  -19.6770  -16.0055 C   0  0  1  0  0  0  0  0  0  0  0  0
   25.5093  -20.2825  -15.4601 C   0  0  0  0  0  0  0  0  0  0  0  0
   26.2537  -20.9930  -16.5243 C   0  0  0  0  0  0  0  0  0  0  0  0
   27.4382  -21.7882  -16.0557 C   0  0  0  0  0  0  0  0  0  0  0  0
   28.2487  -22.3577  -17.1964 C   0  0  0  0  0  0  0  0  0  0  0  0
   29.3950  -23.0310  -16.5993 N   0  0  0  0  0  0  0  0  0  0  0  0
   23.2031  -19.4977  -14.9723 C   0  0  0  0  0  0  0  0  0  0  0  0
   23.3376  -18.7929  -13.9368 O   0  0  0  0  0  0  0  0  0  0  0  0
   21.9204  -20.1340  -15.0822 N   0  0  0  0  0  0  0  0  0  0  0  0
   20.8495  -19.9059  -14.1098 C   0  0  1  0  0  0  0  0  0  0  0  0
   20.4021  -18.4856  -14.1210 C   0  0  0  0  0  0  0  0  0  0  0  0
   19.2241  -18.2902  -13.2653 C   0  0  0  0  0  0  0  0  0  0  0  0
   18.1182  -17.7954  -13.6615 O   0  0  0  0  0  0  0  0  0  0  0  0
   19.6760  -20.7723  -14.4745 C   0  0  0  0  0  0  0  0  0  0  0  0
   18.7513  -20.9049  -13.6014 O   0  0  0  0  0  0  0  0  0  0  0  0
   19.2208  -18.6371  -11.9036 O   0  0  0  0  0  0  0  0  0  0  0  0
   19.5162  -21.4282  -15.6583 O   0  0  0  0  0  0  0  0  0  0  0  0
  2  1  1  1
  3  4  1  0
  3  2  1  0
  4  5  2  0
  6  5  1  0
  7  6  1  0
  8  7  2  0
  8  4  1  0
  9 11  1  0
  9  2  1  0
 10  9  2  0
 12 11  1  0
 12 13  1  1
 13 14  1  0
 14 15  1  0
 15 16  1  0
 17 16  1  0
 18 12  1  0
 19 18  2  0
 20 18  1  0
 21 25  1  0
 21 20  1  0
 21 22  1  6
 23 27  1  0
 23 22  1  0
 24 23  2  0
 25 28  1  0
 26 25  2  0
M  END
$$$$
