HKD.pdb
     RDKit          3D

 28 28  0  0  1  0  0  0  0  0999 V2000
   20.6033  -12.9472  -15.9773 N   0  0  0  0  0  0  0  0  0  0  0  0
   20.2268  -11.6244  -16.4425 C   0  0  1  0  0  0  0  0  0  0  0  0
   18.7705  -11.3330  -16.0990 C   0  0  0  0  0  0  0  0  0  0  0  0
   17.8369  -12.2840  -16.6982 C   0  0  0  0  0  0  0  0  0  0  0  0
   16.9312  -13.1386  -16.0885 C   0  0  0  0  0  0  0  0  0  0  0  0
   16.2974  -13.8193  -17.0757 N   0  0  0  0  0  0  0  0  0  0  0  0
   16.7990  -13.3948  -18.2469 C   0  0  0  0  0  0  0  0  0  0  0  0
   17.7254  -12.4715  -18.0283 N   0  0  0  0  0  0  0  0  0  0  0  0
   21.0978  -10.6401  -15.7620 C   0  0  0  0  0  0  0  0  0  0  0  0
   21.0138  -10.4083  -14.5346 O   0  0  0  0  0  0  0  0  0  0  0  0
   22.0611   -9.9336  -16.5133 N   0  0  0  0  0  0  0  0  0  0  0  0
   22.9437   -8.9046  -15.9883 C   0  0  1  0  0  0  0  0  0  0  0  0
   24.2908   -8.9584  -16.6543 C   0  0  0  0  0  0  0  0  0  0  0  0
   25.0750  -10.1133  -16.1616 C   0  0  0  0  0  0  0  0  0  0  0  0
   26.5215  -10.1241  -16.5651 C   0  0  0  0  0  0  0  0  0  0  0  0
   27.1983  -11.4444  -16.2803 C   0  0  0  0  0  0  0  0  0  0  0  0
   28.5449  -11.3508  -16.8296 N   0  0  0  0  0  0  0  0  0  0  0  0
   22.2935   -7.5827  -16.1154 C   0  0  0  0  0  0  0  0  0  0  0  0
   21.7996   -7.1294  -17.1820 O   0  0  0  0  0  0  0  0  0  0  0  0
   22.1734   -6.6946  -14.9933 N   0  0  0  0  0  0  0  0  0  0  0  0
   21.6258   -5.3427  -15.1224 C   0  0  1  0  0  0  0  0  0  0  0  0
   20.1937   -5.2979  -14.7167 C   0  0  0  0  0  0  0  0  0  0  0  0
   19.6459   -3.9404  -14.8403 C   0  0  0  0  0  0  0  0  0  0  0  0
   19.4591   -3.1455  -13.8615 O   0  0  0  0  0  0  0  0  0  0  0  0
   22.3999   -4.4219  -14.2203 C   0  0  0  0  0  0  0  0  0  0  0  0
   22.2325   -3.1646  -14.3825 O   0  0  0  0  0  0  0  0  0  0  0  0
   19.2688   -3.3941  -16.0788 O   0  0  0  0  0  0  0  0  0  0  0  0
   23.2654   -4.8161  -13.2443 O   0  0  0  0  0  0  0  0  0  0  0  0
  2  1  1  1
  3  4  1  0
  3  2  1  0
  4  5  2  0
  6  5  1  0
  7  6  1  0
  8  7  2  0
  8  4  1  0
  9 11  1  0
  9  2  1  0
 10  9  2  0
 12 11  1  0
 12 13  1  6
 13 14  1  0
 14 15  1  0
 15 16  1  0
 17 16  1  0
 18 12  1  0
 19 18  2  0
 20 18  1  0
 21 25  1  0
 21 20  1  0
 21 22  1  1
 23 27  1  0
 23 22  1  0
 24 23  2  0
 25 28  1  0
 26 25  2  0
M  END
$$$$
