HKD.pdb
     RDKit          3D

 28 28  0  0  1  0  0  0  0  0999 V2000
   29.8132  -34.3850   -4.7356 N   0  0  0  0  0  0  0  0  0  0  0  0
   29.8630  -34.6973   -3.3185 C   0  0  1  0  0  0  0  0  0  0  0  0
   31.2740  -34.4968   -2.7778 C   0  0  0  0  0  0  0  0  0  0  0  0
   32.2619  -35.3671   -3.4114 C   0  0  0  0  0  0  0  0  0  0  0  0
   32.0810  -36.3874   -4.3325 C   0  0  0  0  0  0  0  0  0  0  0  0
   33.3073  -36.8945   -4.6131 N   0  0  0  0  0  0  0  0  0  0  0  0
   34.2051  -36.2075   -3.8883 C   0  0  0  0  0  0  0  0  0  0  0  0
   33.5843  -35.2872   -3.1630 N   0  0  0  0  0  0  0  0  0  0  0  0
   28.9348  -33.7803   -2.6198 C   0  0  0  0  0  0  0  0  0  0  0  0
   28.4528  -32.7664   -3.1736 O   0  0  0  0  0  0  0  0  0  0  0  0
   28.5727  -34.0500   -1.2827 N   0  0  0  0  0  0  0  0  0  0  0  0
   27.2290  -33.9370   -0.7393 C   0  0  1  0  0  0  0  0  0  0  0  0
   26.2441  -34.7111   -1.5712 C   0  0  0  0  0  0  0  0  0  0  0  0
   25.2449  -33.8051   -2.1815 C   0  0  0  0  0  0  0  0  0  0  0  0
   23.9022  -33.7870   -1.5093 C   0  0  0  0  0  0  0  0  0  0  0  0
   22.8736  -32.9919   -2.2789 C   0  0  0  0  0  0  0  0  0  0  0  0
   21.6094  -33.1479   -1.5709 N   0  0  0  0  0  0  0  0  0  0  0  0
   27.2324  -34.3522    0.6797 C   0  0  0  0  0  0  0  0  0  0  0  0
   27.4590  -35.5251    1.0802 O   0  0  0  0  0  0  0  0  0  0  0  0
   26.9714  -33.4154    1.7363 N   0  0  0  0  0  0  0  0  0  0  0  0
   26.8820  -33.8253    3.1393 C   0  0  1  0  0  0  0  0  0  0  0  0
   26.7198  -32.6487    4.0375 C   0  0  0  0  0  0  0  0  0  0  0  0
   27.9903  -31.9324    4.2138 C   0  0  0  0  0  0  0  0  0  0  0  0
   29.1103  -32.3241    3.7482 O   0  0  0  0  0  0  0  0  0  0  0  0
   25.6804  -34.7137    3.3052 C   0  0  0  0  0  0  0  0  0  0  0  0
   25.6719  -35.5073    4.3079 O   0  0  0  0  0  0  0  0  0  0  0  0
   28.0784  -30.7282    4.9325 O   0  0  0  0  0  0  0  0  0  0  0  0
   24.5996  -34.7436    2.4757 O   0  0  0  0  0  0  0  0  0  0  0  0
  2  1  1  6
  3  4  1  0
  3  2  1  0
  4  5  2  0
  6  5  1  0
  7  6  1  0
  8  7  2  0
  8  4  1  0
  9 11  1  0
  9  2  1  0
 10  9  2  0
 12 11  1  0
 12 13  1  6
 13 14  1  0
 14 15  1  0
 15 16  1  0
 17 16  1  0
 18 12  1  0
 19 18  2  0
 20 18  1  0
 21 25  1  0
 21 20  1  0
 21 22  1  1
 23 27  1  0
 23 22  1  0
 24 23  2  0
 25 28  1  0
 26 25  2  0
M  END
$$$$
