HKD.pdb
     RDKit          3D

 28 28  0  0  1  0  0  0  0  0999 V2000
   19.4845  -11.6462  -20.2940 N   0  0  0  0  0  0  0  0  0  0  0  0
   20.4724  -10.7480  -19.7237 C   0  0  1  0  0  0  0  0  0  0  0  0
   21.1444   -9.9294  -20.8200 C   0  0  0  0  0  0  0  0  0  0  0  0
   21.8954  -10.7471  -21.7700 C   0  0  0  0  0  0  0  0  0  0  0  0
   21.6252  -11.0316  -23.0998 C   0  0  0  0  0  0  0  0  0  0  0  0
   22.6213  -11.8365  -23.5466 N   0  0  0  0  0  0  0  0  0  0  0  0
   23.4696  -12.0362  -22.5248 C   0  0  0  0  0  0  0  0  0  0  0  0
   23.0399  -11.3844  -21.4529 N   0  0  0  0  0  0  0  0  0  0  0  0
   19.7715   -9.8372  -18.7911 C   0  0  0  0  0  0  0  0  0  0  0  0
   18.7893   -9.1454  -19.1431 O   0  0  0  0  0  0  0  0  0  0  0  0
   20.2168   -9.7386  -17.4556 N   0  0  0  0  0  0  0  0  0  0  0  0
   19.6352   -8.8766  -16.4397 C   0  0  1  0  0  0  0  0  0  0  0  0
   19.0322   -9.6869  -15.3256 C   0  0  0  0  0  0  0  0  0  0  0  0
   17.7159  -10.2333  -15.7259 C   0  0  0  0  0  0  0  0  0  0  0  0
   17.0705  -11.1472  -14.7243 C   0  0  0  0  0  0  0  0  0  0  0  0
   15.7522  -11.7058  -15.2065 C   0  0  0  0  0  0  0  0  0  0  0  0
   15.3359  -12.7002  -14.2258 N   0  0  0  0  0  0  0  0  0  0  0  0
   20.6532   -7.9157  -15.9639 C   0  0  0  0  0  0  0  0  0  0  0  0
   21.8522   -8.2107  -15.7139 O   0  0  0  0  0  0  0  0  0  0  0  0
   20.3361   -6.5317  -15.7487 N   0  0  0  0  0  0  0  0  0  0  0  0
   21.3239   -5.5724  -15.2503 C   0  0  1  0  0  0  0  0  0  0  0  0
   20.8647   -4.1699  -15.4497 C   0  0  0  0  0  0  0  0  0  0  0  0
   21.8444   -3.2079  -14.9274 C   0  0  0  0  0  0  0  0  0  0  0  0
   22.9795   -2.9736  -15.4579 O   0  0  0  0  0  0  0  0  0  0  0  0
   21.5149   -5.8004  -13.7764 C   0  0  0  0  0  0  0  0  0  0  0  0
   20.5967   -6.4408  -13.1583 O   0  0  0  0  0  0  0  0  0  0  0  0
   21.6069   -2.4509  -13.7676 O   0  0  0  0  0  0  0  0  0  0  0  0
   22.5851   -5.3810  -13.0445 O   0  0  0  0  0  0  0  0  0  0  0  0
  2  1  1  6
  3  4  1  0
  3  2  1  0
  4  5  2  0
  6  5  1  0
  7  6  1  0
  8  7  2  0
  8  4  1  0
  9 11  1  0
  9  2  1  0
 10  9  2  0
 12 11  1  0
 12 13  1  1
 13 14  1  0
 14 15  1  0
 15 16  1  0
 17 16  1  0
 18 12  1  0
 19 18  2  0
 20 18  1  0
 21 25  1  0
 21 20  1  0
 21 22  1  1
 23 27  1  0
 23 22  1  0
 24 23  2  0
 25 28  1  0
 26 25  2  0
M  END
$$$$
