HKD.pdb
     RDKit          3D

 28 28  0  0  1  0  0  0  0  0999 V2000
   22.3911  -15.4296  -17.9937 N   0  0  0  0  0  0  0  0  0  0  0  0
   21.7276  -15.6118  -16.7152 C   0  0  1  0  0  0  0  0  0  0  0  0
   20.4658  -14.7596  -16.6432 C   0  0  0  0  0  0  0  0  0  0  0  0
   20.7432  -13.3290  -16.5372 C   0  0  0  0  0  0  0  0  0  0  0  0
   20.3229  -12.4144  -15.5837 C   0  0  0  0  0  0  0  0  0  0  0  0
   20.8460  -11.2108  -15.9266 N   0  0  0  0  0  0  0  0  0  0  0  0
   21.5605  -11.3851  -17.0503 C   0  0  0  0  0  0  0  0  0  0  0  0
   21.5035  -12.6562  -17.4238 N   0  0  0  0  0  0  0  0  0  0  0  0
   21.3621  -17.0409  -16.5942 C   0  0  0  0  0  0  0  0  0  0  0  0
   20.4970  -17.5744  -17.3251 O   0  0  0  0  0  0  0  0  0  0  0  0
   22.0064  -17.8396  -15.6254 N   0  0  0  0  0  0  0  0  0  0  0  0
   21.7845  -19.2631  -15.4305 C   0  0  1  0  0  0  0  0  0  0  0  0
   23.0765  -19.9752  -15.1391 C   0  0  0  0  0  0  0  0  0  0  0  0
   22.8448  -21.4234  -14.9378 C   0  0  0  0  0  0  0  0  0  0  0  0
   24.0803  -22.2421  -14.6962 C   0  0  0  0  0  0  0  0  0  0  0  0
   23.7787  -23.7070  -14.4830 C   0  0  0  0  0  0  0  0  0  0  0  0
   25.0629  -24.3827  -14.3476 N   0  0  0  0  0  0  0  0  0  0  0  0
   20.7675  -19.4659  -14.3767 C   0  0  0  0  0  0  0  0  0  0  0  0
   20.8968  -19.0975  -13.1789 O   0  0  0  0  0  0  0  0  0  0  0  0
   19.5180  -20.1168  -14.6551 N   0  0  0  0  0  0  0  0  0  0  0  0
   18.4923  -20.3103  -13.6281 C   0  0  1  0  0  0  0  0  0  0  0  0
   17.1361  -20.4241  -14.2325 C   0  0  0  0  0  0  0  0  0  0  0  0
   16.1113  -20.6535  -13.2052 C   0  0  0  0  0  0  0  0  0  0  0  0
   16.2291  -20.3193  -11.9808 O   0  0  0  0  0  0  0  0  0  0  0  0
   18.7868  -21.5858  -12.8884 C   0  0  0  0  0  0  0  0  0  0  0  0
   18.0693  -21.8481  -11.8629 O   0  0  0  0  0  0  0  0  0  0  0  0
   14.8873  -21.2805  -13.4942 O   0  0  0  0  0  0  0  0  0  0  0  0
   19.7551  -22.4856  -13.2200 O   0  0  0  0  0  0  0  0  0  0  0  0
  2  1  1  6
  3  4  1  0
  3  2  1  0
  4  5  2  0
  6  5  1  0
  7  6  1  0
  8  7  2  0
  8  4  1  0
  9 11  1  0
  9  2  1  0
 10  9  2  0
 12 11  1  0
 12 13  1  1
 13 14  1  0
 14 15  1  0
 15 16  1  0
 17 16  1  0
 18 12  1  0
 19 18  2  0
 20 18  1  0
 21 25  1  0
 21 20  1  0
 21 22  1  6
 23 27  1  0
 23 22  1  0
 24 23  2  0
 25 28  1  0
 26 25  2  0
M  END
$$$$
