HKD.pdb
     RDKit          3D

 28 28  0  0  1  0  0  0  0  0999 V2000
   27.2582  -11.0191  -19.0134 N   0  0  0  0  0  0  0  0  0  0  0  0
   26.8428  -10.4307  -17.7527 C   0  0  1  0  0  0  0  0  0  0  0  0
   27.5149   -9.0779  -17.5486 C   0  0  0  0  0  0  0  0  0  0  0  0
   28.9705   -9.1667  -17.4579 C   0  0  0  0  0  0  0  0  0  0  0  0
   29.9438   -8.5931  -18.2615 C   0  0  0  0  0  0  0  0  0  0  0  0
   31.1473   -8.9759  -17.7666 N   0  0  0  0  0  0  0  0  0  0  0  0
   30.9161   -9.7561  -16.6982 C   0  0  0  0  0  0  0  0  0  0  0  0
   29.6095   -9.8757  -16.5062 N   0  0  0  0  0  0  0  0  0  0  0  0
   25.3749  -10.2470  -17.8007 C   0  0  0  0  0  0  0  0  0  0  0  0
   24.8055   -9.6520  -18.7436 O   0  0  0  0  0  0  0  0  0  0  0  0
   24.5797  -10.7579  -16.7527 N   0  0  0  0  0  0  0  0  0  0  0  0
   23.1315  -10.6581  -16.6744 C   0  0  1  0  0  0  0  0  0  0  0  0
   22.5424  -11.8720  -16.0105 C   0  0  0  0  0  0  0  0  0  0  0  0
   21.0674  -11.7687  -15.9396 C   0  0  0  0  0  0  0  0  0  0  0  0
   20.3773  -12.9151  -15.2579 C   0  0  0  0  0  0  0  0  0  0  0  0
   18.8734  -12.7712  -15.2501 C   0  0  0  0  0  0  0  0  0  0  0  0
   18.3465  -13.9285  -14.5381 N   0  0  0  0  0  0  0  0  0  0  0  0
   22.7579   -9.3970  -15.9990 C   0  0  0  0  0  0  0  0  0  0  0  0
   23.2863   -8.9718  -14.9373 O   0  0  0  0  0  0  0  0  0  0  0  0
   21.7340   -8.5387  -16.5252 N   0  0  0  0  0  0  0  0  0  0  0  0
   21.3860   -7.2622  -15.8976 C   0  0  1  0  0  0  0  0  0  0  0  0
   21.0684   -6.2259  -16.9188 C   0  0  0  0  0  0  0  0  0  0  0  0
   20.6549   -4.9648  -16.2890 C   0  0  0  0  0  0  0  0  0  0  0  0
   20.9090   -4.6435  -15.0820 O   0  0  0  0  0  0  0  0  0  0  0  0
   20.1692   -7.4647  -15.0379 C   0  0  0  0  0  0  0  0  0  0  0  0
   19.2410   -8.2117  -15.5020 O   0  0  0  0  0  0  0  0  0  0  0  0
   19.9226   -3.9858  -16.9816 O   0  0  0  0  0  0  0  0  0  0  0  0
   19.9734   -6.9180  -13.8051 O   0  0  0  0  0  0  0  0  0  0  0  0
  2  1  1  6
  3  4  1  0
  3  2  1  0
  4  5  2  0
  6  5  1  0
  7  6  1  0
  8  7  2  0
  8  4  1  0
  9 11  1  0
  9  2  1  0
 10  9  2  0
 12 11  1  0
 12 13  1  1
 13 14  1  0
 14 15  1  0
 15 16  1  0
 17 16  1  0
 18 12  1  0
 19 18  2  0
 20 18  1  0
 21 25  1  0
 21 20  1  0
 21 22  1  6
 23 27  1  0
 23 22  1  0
 24 23  2  0
 25 28  1  0
 26 25  2  0
M  END
$$$$
