HKD.pdb
     RDKit          3D

 28 28  0  0  1  0  0  0  0  0999 V2000
   20.5657  -13.1617  -16.7532 N   0  0  0  0  0  0  0  0  0  0  0  0
   20.2586  -11.7937  -17.1305 C   0  0  1  0  0  0  0  0  0  0  0  0
   18.7648  -11.5245  -16.9900 C   0  0  0  0  0  0  0  0  0  0  0  0
   17.9409  -12.4127  -17.8068 C   0  0  0  0  0  0  0  0  0  0  0  0
   17.0236  -13.3763  -17.4165 C   0  0  0  0  0  0  0  0  0  0  0  0
   16.5219  -13.9317  -18.5477 N   0  0  0  0  0  0  0  0  0  0  0  0
   17.1128  -13.3280  -19.5918 C   0  0  0  0  0  0  0  0  0  0  0  0
   17.9675  -12.4134  -19.1544 N   0  0  0  0  0  0  0  0  0  0  0  0
   21.0066  -10.8949  -16.2232 C   0  0  0  0  0  0  0  0  0  0  0  0
   20.6545  -10.6960  -15.0384 O   0  0  0  0  0  0  0  0  0  0  0  0
   22.1595  -10.2351  -16.6997 N   0  0  0  0  0  0  0  0  0  0  0  0
   22.9709   -9.3053  -15.9312 C   0  0  1  0  0  0  0  0  0  0  0  0
   24.4070   -9.3482  -16.3754 C   0  0  0  0  0  0  0  0  0  0  0  0
   25.0554  -10.6047  -15.9373 C   0  0  0  0  0  0  0  0  0  0  0  0
   26.4461  -10.8237  -16.4601 C   0  0  0  0  0  0  0  0  0  0  0  0
   27.0209  -12.1597  -16.0515 C   0  0  0  0  0  0  0  0  0  0  0  0
   28.3614  -12.2292  -16.6191 N   0  0  0  0  0  0  0  0  0  0  0  0
   22.3848   -7.9505  -16.0151 C   0  0  0  0  0  0  0  0  0  0  0  0
   22.1449   -7.3415  -17.0917 O   0  0  0  0  0  0  0  0  0  0  0  0
   22.0339   -7.2103  -14.8357 N   0  0  0  0  0  0  0  0  0  0  0  0
   21.5223   -5.8396  -14.8971 C   0  0  1  0  0  0  0  0  0  0  0  0
   20.0381   -5.8102  -14.7793 C   0  0  0  0  0  0  0  0  0  0  0  0
   19.5262   -4.4339  -14.8224 C   0  0  0  0  0  0  0  0  0  0  0  0
   19.0948   -3.7922  -13.8091 O   0  0  0  0  0  0  0  0  0  0  0  0
   22.1013   -5.0581  -13.7504 C   0  0  0  0  0  0  0  0  0  0  0  0
   21.9392   -3.7898  -13.7640 O   0  0  0  0  0  0  0  0  0  0  0  0
   19.4642   -3.6942  -16.0156 O   0  0  0  0  0  0  0  0  0  0  0  0
   22.7849   -5.5893  -12.6980 O   0  0  0  0  0  0  0  0  0  0  0  0
  2  1  1  1
  3  4  1  0
  3  2  1  0
  4  5  2  0
  6  5  1  0
  7  6  1  0
  8  7  2  0
  8  4  1  0
  9 11  1  0
  9  2  1  0
 10  9  2  0
 12 11  1  0
 12 13  1  6
 13 14  1  0
 14 15  1  0
 15 16  1  0
 17 16  1  0
 18 12  1  0
 19 18  2  0
 20 18  1  0
 21 25  1  0
 21 20  1  0
 21 22  1  1
 23 27  1  0
 23 22  1  0
 24 23  2  0
 25 28  1  0
 26 25  2  0
M  END
$$$$
