GMV.pdb
     RDKit          3D

 20 19  0  0  1  0  0  0  0  0999 V2000
    6.1217  -16.5721   20.0680 N   0  0  0  0  0  0  0  0  0  0  0  0
    5.8332  -16.5576   21.4720 C   0  0  0  0  0  0  0  0  0  0  0  0
    6.9494  -15.9361   22.2532 C   0  0  0  0  0  0  0  0  0  0  0  0
    8.1114  -15.8411   21.8154 O   0  0  0  0  0  0  0  0  0  0  0  0
    7.4477  -11.9978   27.6480 C   0  0  0  0  0  0  0  0  0  0  0  0
    6.1116  -11.7775   26.4428 S   0  0  0  0  0  0  0  0  0  0  0  0
    6.4861  -12.8628   25.0245 C   0  0  0  0  0  0  0  0  0  0  0  0
    7.1994  -14.0908   25.4702 C   0  0  0  0  0  0  0  0  0  0  0  0
    7.7883  -14.9253   24.3665 C   0  0  2  0  0  0  0  0  0  0  0  0
    6.6681  -15.4329   23.5514 N   0  0  0  0  0  0  0  0  0  0  0  0
    8.5280  -16.1088   24.8963 C   0  0  0  0  0  0  0  0  0  0  0  0
    7.9416  -17.1070   25.3872 O   0  0  0  0  0  0  0  0  0  0  0  0
   12.8408  -16.3496   24.2697 C   0  0  0  0  0  0  0  0  0  0  0  0
   11.8950  -17.4605   24.0851 C   0  0  1  0  0  0  0  0  0  0  0  0
   12.6455  -18.7668   24.1881 C   0  0  0  0  0  0  0  0  0  0  0  0
   10.7182  -17.3825   24.9964 C   0  0  2  0  0  0  0  0  0  0  0  0
    9.9705  -16.1613   24.8686 N   0  0  0  0  0  0  0  0  0  0  0  0
   11.1111  -17.6106   26.4181 C   0  0  0  0  0  0  0  0  0  0  0  0
   11.4416  -18.7392   26.8659 O   0  0  0  0  0  0  0  0  0  0  0  0
   11.1221  -16.5491   27.3113 O   0  0  0  0  0  0  0  0  0  0  0  0
  2  1  1  0
  3 10  1  0
  3  2  1  0
  4  3  2  0
  5  6  1  0
  6  7  1  0
  8  7  1  0
  9  8  1  1
  9 10  1  0
  9 11  1  0
 11 12  2  0
 14 13  1  1
 14 15  1  0
 16 14  1  0
 17 11  1  0
 16 17  1  1
 18 16  1  0
 18 20  1  0
 19 18  2  0
M  END
$$$$
