GMV.pdb
     RDKit          3D

 20 19  0  0  1  0  0  0  0  0999 V2000
    5.2320  -18.3343   21.5231 N   0  0  0  0  0  0  0  0  0  0  0  0
    5.2569  -18.0536   22.9286 C   0  0  0  0  0  0  0  0  0  0  0  0
    6.3533  -17.0944   23.2751 C   0  0  0  0  0  0  0  0  0  0  0  0
    7.2673  -16.7960   22.4837 O   0  0  0  0  0  0  0  0  0  0  0  0
    7.7995  -11.9520   27.2882 C   0  0  0  0  0  0  0  0  0  0  0  0
    6.8255  -12.1042   25.7670 S   0  0  0  0  0  0  0  0  0  0  0  0
    6.0518  -13.7567   25.7901 C   0  0  0  0  0  0  0  0  0  0  0  0
    7.0548  -14.8073   26.1154 C   0  0  0  0  0  0  0  0  0  0  0  0
    7.4943  -15.6545   24.9534 C   0  0  2  0  0  0  0  0  0  0  0  0
    6.3487  -16.4993   24.5649 N   0  0  0  0  0  0  0  0  0  0  0  0
    8.6176  -16.5662   25.3215 C   0  0  0  0  0  0  0  0  0  0  0  0
    8.4656  -17.5473   26.0932 O   0  0  0  0  0  0  0  0  0  0  0  0
   12.6346  -15.9682   23.6520 C   0  0  0  0  0  0  0  0  0  0  0  0
   11.9239  -17.2557   23.6608 C   0  0  1  0  0  0  0  0  0  0  0  0
   12.9358  -18.3756   23.6112 C   0  0  0  0  0  0  0  0  0  0  0  0
   10.9589  -17.3818   24.7896 C   0  0  2  0  0  0  0  0  0  0  0  0
    9.9482  -16.3595   24.8005 N   0  0  0  0  0  0  0  0  0  0  0  0
   11.6607  -17.4396   26.1056 C   0  0  0  0  0  0  0  0  0  0  0  0
   11.6548  -16.4878   26.9286 O   0  0  0  0  0  0  0  0  0  0  0  0
   12.3604  -18.5819   26.4665 O   0  0  0  0  0  0  0  0  0  0  0  0
  2  1  1  0
  3 10  1  0
  3  2  1  0
  4  3  2  0
  5  6  1  0
  6  7  1  0
  8  7  1  0
  9  8  1  1
  9 10  1  0
  9 11  1  0
 11 12  2  0
 14 13  1  1
 14 15  1  0
 16 14  1  0
 17 11  1  0
 16 17  1  1
 18 16  1  0
 18 20  1  0
 19 18  2  0
M  END
$$$$
