GMV.pdb
     RDKit          3D

 20 19  0  0  1  0  0  0  0  0999 V2000
    6.6098  -16.2587   19.8977 N   0  0  0  0  0  0  0  0  0  0  0  0
    6.0820  -16.1282   21.2240 C   0  0  0  0  0  0  0  0  0  0  0  0
    7.1370  -15.6882   22.1913 C   0  0  0  0  0  0  0  0  0  0  0  0
    8.3442  -15.6219   21.8930 O   0  0  0  0  0  0  0  0  0  0  0  0
    7.6134  -11.6114   27.5648 C   0  0  0  0  0  0  0  0  0  0  0  0
    6.0705  -11.9070   26.6602 S   0  0  0  0  0  0  0  0  0  0  0  0
    6.4937  -12.9051   25.1924 C   0  0  0  0  0  0  0  0  0  0  0  0
    7.1154  -14.1974   25.5912 C   0  0  0  0  0  0  0  0  0  0  0  0
    7.7862  -14.9552   24.4789 C   0  0  2  0  0  0  0  0  0  0  0  0
    6.7408  -15.3309   23.5078 N   0  0  0  0  0  0  0  0  0  0  0  0
    8.4182  -16.2168   24.9659 C   0  0  0  0  0  0  0  0  0  0  0  0
    7.7431  -17.2127   25.3314 O   0  0  0  0  0  0  0  0  0  0  0  0
   11.3479  -18.0230   23.0880 C   0  0  0  0  0  0  0  0  0  0  0  0
   11.6938  -17.8816   24.5103 C   0  0  1  0  0  0  0  0  0  0  0  0
   12.8034  -16.8665   24.6474 C   0  0  0  0  0  0  0  0  0  0  0  0
   10.5137  -17.5858   25.3713 C   0  0  2  0  0  0  0  0  0  0  0  0
    9.8537  -16.3523   25.0402 N   0  0  0  0  0  0  0  0  0  0  0  0
   10.8718  -17.6168   26.8199 C   0  0  0  0  0  0  0  0  0  0  0  0
   10.8535  -16.5943   27.5531 O   0  0  0  0  0  0  0  0  0  0  0  0
   11.2461  -18.8132   27.4142 O   0  0  0  0  0  0  0  0  0  0  0  0
  2  1  1  0
  3 10  1  0
  3  2  1  0
  4  3  2  0
  5  6  1  0
  6  7  1  0
  8  7  1  0
  9  8  1  1
  9 10  1  0
  9 11  1  0
 11 12  2  0
 14 13  1  6
 14 15  1  0
 16 14  1  0
 17 11  1  0
 16 17  1  6
 18 16  1  0
 18 20  1  0
 19 18  2  0
M  END
$$$$
