GMV.pdb
     RDKit          3D

 20 19  0  0  1  0  0  0  0  0999 V2000
    7.4017  -14.9096   19.5435 N   0  0  0  0  0  0  0  0  0  0  0  0
    6.6925  -15.1214   20.7710 C   0  0  0  0  0  0  0  0  0  0  0  0
    7.5221  -14.7333   21.9557 C   0  0  0  0  0  0  0  0  0  0  0  0
    8.7319  -14.4502   21.8718 O   0  0  0  0  0  0  0  0  0  0  0  0
    7.7300  -11.3118   27.5261 C   0  0  0  0  0  0  0  0  0  0  0  0
    6.0957  -11.6684   26.8277 S   0  0  0  0  0  0  0  0  0  0  0  0
    6.3671  -12.5597   25.2587 C   0  0  0  0  0  0  0  0  0  0  0  0
    6.8821  -13.9332   25.5113 C   0  0  0  0  0  0  0  0  0  0  0  0
    7.7499  -14.5017   24.4227 C   0  0  2  0  0  0  0  0  0  0  0  0
    6.8992  -14.6865   23.2314 N   0  0  0  0  0  0  0  0  0  0  0  0
    8.3009  -15.8395   24.7904 C   0  0  0  0  0  0  0  0  0  0  0  0
    7.5842  -16.8709   24.8527 O   0  0  0  0  0  0  0  0  0  0  0  0
   12.2406  -18.7738   24.9045 C   0  0  0  0  0  0  0  0  0  0  0  0
   11.6327  -17.4568   24.6624 C   0  0  1  0  0  0  0  0  0  0  0  0
   11.5936  -17.1999   23.1748 C   0  0  0  0  0  0  0  0  0  0  0  0
   10.3071  -17.2955   25.3242 C   0  0  2  0  0  0  0  0  0  0  0  0
    9.7015  -16.0118   25.0956 N   0  0  0  0  0  0  0  0  0  0  0  0
   10.3866  -17.5850   26.7863 C   0  0  0  0  0  0  0  0  0  0  0  0
   10.5352  -16.6881   27.6561 O   0  0  0  0  0  0  0  0  0  0  0  0
   10.2956  -18.8936   27.2379 O   0  0  0  0  0  0  0  0  0  0  0  0
  2  1  1  0
  3 10  1  0
  3  2  1  0
  4  3  2  0
  5  6  1  0
  6  7  1  0
  8  7  1  0
  9  8  1  1
  9 10  1  0
  9 11  1  0
 11 12  2  0
 14 13  1  6
 14 15  1  0
 16 14  1  0
 17 11  1  0
 16 17  1  1
 18 16  1  0
 18 20  1  0
 19 18  2  0
M  END
$$$$
