GMV.pdb
     RDKit          3D

 20 19  0  0  1  0  0  0  0  0999 V2000
    4.7530  -19.3055   22.1032 N   0  0  0  0  0  0  0  0  0  0  0  0
    4.9222  -18.7425   23.4106 C   0  0  0  0  0  0  0  0  0  0  0  0
    5.9520  -17.6554   23.4086 C   0  0  0  0  0  0  0  0  0  0  0  0
    6.6443  -17.3801   22.4107 O   0  0  0  0  0  0  0  0  0  0  0  0
    5.8205  -11.7072   26.6214 C   0  0  0  0  0  0  0  0  0  0  0  0
    7.2509  -12.6484   27.2165 S   0  0  0  0  0  0  0  0  0  0  0  0
    7.7763  -13.7423   25.8537 C   0  0  0  0  0  0  0  0  0  0  0  0
    6.8431  -14.8927   25.7072 C   0  0  0  0  0  0  0  0  0  0  0  0
    7.1888  -15.8617   24.6105 C   0  0  2  0  0  0  0  0  0  0  0  0
    6.1464  -16.9058   24.5994 N   0  0  0  0  0  0  0  0  0  0  0  0
    8.4966  -16.5382   24.8560 C   0  0  0  0  0  0  0  0  0  0  0  0
    8.6635  -17.3677   25.7862 O   0  0  0  0  0  0  0  0  0  0  0  0
   11.1424  -17.2061   21.6899 C   0  0  0  0  0  0  0  0  0  0  0  0
   11.7811  -16.8152   22.9556 C   0  0  1  0  0  0  0  0  0  0  0  0
   12.3324  -15.4162   22.8161 C   0  0  0  0  0  0  0  0  0  0  0  0
   10.8871  -16.9822   24.1364 C   0  0  2  0  0  0  0  0  0  0  0  0
    9.6453  -16.2666   24.0246 N   0  0  0  0  0  0  0  0  0  0  0  0
   11.5856  -16.6256   25.4063 C   0  0  0  0  0  0  0  0  0  0  0  0
   11.3515  -15.5664   26.0438 O   0  0  0  0  0  0  0  0  0  0  0  0
   12.5421  -17.4813   25.9331 O   0  0  0  0  0  0  0  0  0  0  0  0
  2  1  1  0
  3 10  1  0
  3  2  1  0
  4  3  2  0
  5  6  1  0
  6  7  1  0
  8  7  1  0
  9  8  1  1
  9 10  1  0
  9 11  1  0
 11 12  2  0
 14 13  1  6
 14 15  1  0
 16 14  1  0
 17 11  1  0
 16 17  1  6
 18 16  1  0
 18 20  1  0
 19 18  2  0
M  END
$$$$
