GMV.pdb
     RDKit          3D

 20 19  0  0  1  0  0  0  0  0999 V2000
    7.0041  -17.2383   19.5750 N   0  0  0  0  0  0  0  0  0  0  0  0
    6.3925  -17.0649   20.8598 C   0  0  0  0  0  0  0  0  0  0  0  0
    7.3078  -16.3565   21.8099 C   0  0  0  0  0  0  0  0  0  0  0  0
    8.5194  -16.1828   21.5805 O   0  0  0  0  0  0  0  0  0  0  0  0
    7.4123  -11.4849   27.9824 C   0  0  0  0  0  0  0  0  0  0  0  0
    6.4179  -12.3648   26.7483 S   0  0  0  0  0  0  0  0  0  0  0  0
    7.5450  -13.4878   25.8549 C   0  0  0  0  0  0  0  0  0  0  0  0
    6.8128  -14.2512   24.8076 C   0  0  0  0  0  0  0  0  0  0  0  0
    7.6662  -15.1507   23.9568 C   0  0  2  0  0  0  0  0  0  0  0  0
    6.7677  -15.8610   23.0266 N   0  0  0  0  0  0  0  0  0  0  0  0
    8.3730  -16.1827   24.7715 C   0  0  0  0  0  0  0  0  0  0  0  0
    7.7598  -17.0816   25.4016 O   0  0  0  0  0  0  0  0  0  0  0  0
   11.9536  -17.6527   23.4941 C   0  0  0  0  0  0  0  0  0  0  0  0
   11.9294  -17.4287   24.9473 C   0  0  1  0  0  0  0  0  0  0  0  0
   12.8448  -16.2751   25.2818 C   0  0  0  0  0  0  0  0  0  0  0  0
   10.5509  -17.2647   25.4896 C   0  0  2  0  0  0  0  0  0  0  0  0
    9.8131  -16.1954   24.8740 N   0  0  0  0  0  0  0  0  0  0  0  0
   10.5619  -17.1077   26.9739 C   0  0  0  0  0  0  0  0  0  0  0  0
   10.2947  -16.0219   27.5509 O   0  0  0  0  0  0  0  0  0  0  0  0
   10.8773  -18.1909   27.7814 O   0  0  0  0  0  0  0  0  0  0  0  0
  2  1  1  0
  3 10  1  0
  3  2  1  0
  4  3  2  0
  5  6  1  0
  6  7  1  0
  8  7  1  0
  9  8  1  1
  9 10  1  0
  9 11  1  0
 11 12  2  0
 14 13  1  6
 14 15  1  0
 16 14  1  0
 17 11  1  0
 16 17  1  6
 18 16  1  0
 18 20  1  0
 19 18  2  0
M  END
$$$$
