GMV.pdb
     RDKit          3D

 20 19  0  0  1  0  0  0  0  0999 V2000
    7.8602  -15.4517   19.0958 N   0  0  0  0  0  0  0  0  0  0  0  0
    7.1257  -15.6144   20.3159 C   0  0  0  0  0  0  0  0  0  0  0  0
    7.9015  -15.1087   21.4926 C   0  0  0  0  0  0  0  0  0  0  0  0
    9.1398  -14.9777   21.4817 O   0  0  0  0  0  0  0  0  0  0  0  0
    6.5795  -10.6702   26.4789 C   0  0  0  0  0  0  0  0  0  0  0  0
    6.4766  -12.3572   27.1343 S   0  0  0  0  0  0  0  0  0  0  0  0
    7.6267  -13.3823   26.1563 C   0  0  0  0  0  0  0  0  0  0  0  0
    7.0474  -13.7050   24.8237 C   0  0  0  0  0  0  0  0  0  0  0  0
    7.9623  -14.4499   23.8914 C   0  0  2  0  0  0  0  0  0  0  0  0
    7.1911  -14.7633   22.6732 N   0  0  0  0  0  0  0  0  0  0  0  0
    8.4202  -15.7449   24.4762 C   0  0  0  0  0  0  0  0  0  0  0  0
    7.6553  -16.7343   24.6074 O   0  0  0  0  0  0  0  0  0  0  0  0
   12.2445  -18.7451   25.1956 C   0  0  0  0  0  0  0  0  0  0  0  0
   11.6812  -17.4606   24.7535 C   0  0  1  0  0  0  0  0  0  0  0  0
   11.7304  -17.3956   23.2456 C   0  0  0  0  0  0  0  0  0  0  0  0
   10.3250  -17.1952   25.3117 C   0  0  2  0  0  0  0  0  0  0  0  0
    9.7813  -15.9221   24.9238 N   0  0  0  0  0  0  0  0  0  0  0  0
   10.3059  -17.3431   26.7967 C   0  0  0  0  0  0  0  0  0  0  0  0
   10.4704  -16.3760   27.5847 O   0  0  0  0  0  0  0  0  0  0  0  0
   10.0995  -18.5920   27.3646 O   0  0  0  0  0  0  0  0  0  0  0  0
  2  1  1  0
  3 10  1  0
  3  2  1  0
  4  3  2  0
  5  6  1  0
  6  7  1  0
  8  7  1  0
  9  8  1  1
  9 10  1  0
  9 11  1  0
 11 12  2  0
 14 13  1  6
 14 15  1  0
 16 14  1  0
 17 11  1  0
 16 17  1  1
 18 16  1  0
 18 20  1  0
 19 18  2  0
M  END
$$$$
