SRS.pdb
     RDKit          3D

 24 23  0  0  1  0  0  0  0  0999 V2000
    8.3778  -22.8388   21.6052 O   0  0  0  0  0  0  0  0  0  0  0  0
    7.0728  -22.3887   21.6782 C   0  0  0  0  0  0  0  0  0  0  0  0
    6.7123  -21.5774   20.4235 C   0  0  2  0  0  0  0  0  0  0  0  0
    7.0543  -22.4231   19.2863 N   0  0  0  0  0  0  0  0  0  0  0  0
    7.4621  -20.3147   20.4388 C   0  0  0  0  0  0  0  0  0  0  0  0
    8.5426  -20.2705   19.8055 O   0  0  0  0  0  0  0  0  0  0  0  0
    9.4566  -13.4754   19.3763 N   0  0  0  0  0  0  0  0  0  0  0  0
    8.7446  -12.6178   20.2753 C   0  0  0  0  0  0  0  0  0  0  0  0
    8.9025  -11.3491   20.1691 N   0  0  0  0  0  0  0  0  0  0  0  0
    7.8765  -13.1150   21.2712 N   0  0  0  0  0  0  0  0  0  0  0  0
    6.9726  -14.2203   20.9922 C   0  0  0  0  0  0  0  0  0  0  0  0
    7.7323  -15.4772   20.7413 C   0  0  0  0  0  0  0  0  0  0  0  0
    7.2110  -16.6766   21.4177 C   0  0  0  0  0  0  0  0  0  0  0  0
    7.8471  -17.9894   21.1391 C   0  0  2  0  0  0  0  0  0  0  0  0
    7.0074  -19.1391   21.1462 N   0  0  0  0  0  0  0  0  0  0  0  0
    8.8750  -18.2012   22.2054 C   0  0  0  0  0  0  0  0  0  0  0  0
    8.5631  -18.8728   23.1983 O   0  0  0  0  0  0  0  0  0  0  0  0
    8.5054  -10.6224   20.7704 O   0  0  0  0  0  0  0  0  0  0  0  0
   13.5458  -18.3429   23.2128 C   0  0  0  0  0  0  0  0  0  0  0  0
   12.5591  -18.0060   22.2650 C   0  0  2  0  0  0  0  0  0  0  0  0
   11.2319  -17.9396   22.9948 N   0  0  0  0  0  0  0  0  0  0  0  0
   10.1480  -17.6511   22.0710 C   0  0  0  0  0  0  0  0  0  0  0  0
   11.2608  -16.9124   24.0466 O   0  0  0  0  0  0  0  0  0  0  0  0
   11.9984  -16.9953   25.2175 O   0  0  0  0  0  0  0  0  0  0  0  0
  1  2  1  0
  3  2  1  0
  3  5  1  0
  3  4  1  6
  5  6  2  0
  7  8  1  0
  8  9  2  0
  8 10  1  0
 10 11  1  0
 11 12  1  0
 12 13  1  0
 14 13  1  1
 15 14  1  0
 15  5  1  0
 16 17  2  0
 16 14  1  0
 18 19  1  0
 20 19  1  6
 20 22  1  0
 20 21  1  0
 21 16  1  0
 22 23  1  0
 24 22  2  0
M  END
$$$$
