SRS.pdb
     RDKit          3D

 24 23  0  0  1  0  0  0  0  0999 V2000
    7.8498  -12.5476   21.0555 O   0  0  0  0  0  0  0  0  0  0  0  0
    8.4464  -11.9717   19.9494 C   0  0  0  0  0  0  0  0  0  0  0  0
    8.3469  -12.9090   18.7352 C   0  0  2  0  0  0  0  0  0  0  0  0
    6.9235  -13.0533   18.4546 N   0  0  0  0  0  0  0  0  0  0  0  0
    8.9940  -14.1861   19.0627 C   0  0  0  0  0  0  0  0  0  0  0  0
    8.2587  -15.1419   19.4035 O   0  0  0  0  0  0  0  0  0  0  0  0
   15.0148  -17.2739   16.7538 N   0  0  0  0  0  0  0  0  0  0  0  0
   14.3727  -16.5603   15.6912 C   0  0  0  0  0  0  0  0  0  0  0  0
   15.0988  -15.8804   14.8809 N   0  0  0  0  0  0  0  0  0  0  0  0
   12.9741  -16.5776   15.5017 N   0  0  0  0  0  0  0  0  0  0  0  0
   12.1338  -17.5258   16.2168 C   0  0  0  0  0  0  0  0  0  0  0  0
   11.2051  -16.8191   17.1431 C   0  0  0  0  0  0  0  0  0  0  0  0
   11.8024  -16.3595   18.4080 C   0  0  0  0  0  0  0  0  0  0  0  0
   10.9432  -15.6488   19.3891 C   0  0  2  0  0  0  0  0  0  0  0  0
   10.4255  -14.3786   19.0075 N   0  0  0  0  0  0  0  0  0  0  0  0
   11.7821  -15.4229   20.6071 C   0  0  0  0  0  0  0  0  0  0  0  0
   12.4774  -14.3994   20.6613 O   0  0  0  0  0  0  0  0  0  0  0  0
   14.7951  -15.4018   14.0288 O   0  0  0  0  0  0  0  0  0  0  0  0
   10.5477  -16.3170   24.1713 C   0  0  0  0  0  0  0  0  0  0  0  0
   11.8377  -16.8677   24.0359 C   0  0  2  0  0  0  0  0  0  0  0  0
   12.5157  -16.1579   22.8805 N   0  0  0  0  0  0  0  0  0  0  0  0
   11.7709  -16.3495   21.6476 C   0  0  0  0  0  0  0  0  0  0  0  0
   13.8913  -16.6448   22.6984 O   0  0  0  0  0  0  0  0  0  0  0  0
   14.9216  -16.4734   23.6099 O   0  0  0  0  0  0  0  0  0  0  0  0
  1  2  1  0
  3  2  1  0
  3  5  1  0
  3  4  1  1
  5  6  2  0
  7  8  1  0
  8  9  2  0
  8 10  1  0
 10 11  1  0
 11 12  1  0
 12 13  1  0
 14 13  1  6
 15 14  1  0
 15  5  1  0
 16 17  2  0
 16 14  1  0
 18 19  1  0
 20 19  1  1
 20 22  1  0
 20 21  1  0
 21 16  1  0
 22 23  1  0
 24 22  2  0
M  END
$$$$
