SRS.pdb
     RDKit          3D

 24 23  0  0  1  0  0  0  0  0999 V2000
   13.0055  -20.3627   22.1456 O   0  0  0  0  0  0  0  0  0  0  0  0
   12.8005  -19.2087   22.8786 C   0  0  0  0  0  0  0  0  0  0  0  0
   12.4036  -18.0471   21.9537 C   0  0  2  0  0  0  0  0  0  0  0  0
   13.6178  -17.6676   21.2416 N   0  0  0  0  0  0  0  0  0  0  0  0
   11.8565  -16.9536   22.7672 C   0  0  0  0  0  0  0  0  0  0  0  0
   12.6373  -16.0360   23.1117 O   0  0  0  0  0  0  0  0  0  0  0  0
    7.7121  -13.8849   18.4583 N   0  0  0  0  0  0  0  0  0  0  0  0
    7.5313  -13.2872   19.7470 C   0  0  0  0  0  0  0  0  0  0  0  0
    7.9880  -12.1048   19.9455 N   0  0  0  0  0  0  0  0  0  0  0  0
    6.8700  -13.9483   20.8044 N   0  0  0  0  0  0  0  0  0  0  0  0
    7.4204  -13.9423   22.1511 C   0  0  0  0  0  0  0  0  0  0  0  0
    8.0240  -15.2632   22.4840 C   0  0  0  0  0  0  0  0  0  0  0  0
    8.6251  -15.3637   23.8244 C   0  0  0  0  0  0  0  0  0  0  0  0
   10.0481  -15.7725   23.9422 C   0  0  2  0  0  0  0  0  0  0  0  0
   10.4721  -16.8972   23.1791 N   0  0  0  0  0  0  0  0  0  0  0  0
   10.2760  -16.1178   25.3799 C   0  0  0  0  0  0  0  0  0  0  0  0
   10.4771  -17.3036   25.6757 O   0  0  0  0  0  0  0  0  0  0  0  0
    8.0219  -11.5941   20.8317 O   0  0  0  0  0  0  0  0  0  0  0  0
   11.1835  -13.0712   27.8863 C   0  0  0  0  0  0  0  0  0  0  0  0
   10.4919  -14.0973   28.5604 C   0  0  2  0  0  0  0  0  0  0  0  0
   10.6356  -15.3606   27.7345 N   0  0  0  0  0  0  0  0  0  0  0  0
   10.2603  -15.1193   26.3515 C   0  0  0  0  0  0  0  0  0  0  0  0
    9.8055  -16.4440   28.2818 O   0  0  0  0  0  0  0  0  0  0  0  0
    9.9624  -17.0070   29.5388 O   0  0  0  0  0  0  0  0  0  0  0  0
  1  2  1  0
  3  2  1  0
  3  5  1  0
  3  4  1  1
  5  6  2  0
  7  8  1  0
  8  9  2  0
  8 10  1  0
 10 11  1  0
 11 12  1  0
 12 13  1  0
 14 13  1  1
 15 14  1  0
 15  5  1  0
 16 17  2  0
 16 14  1  0
 18 19  1  0
 20 19  1  6
 20 22  1  0
 20 21  1  0
 21 16  1  0
 22 23  1  0
 24 22  2  0
M  END
$$$$
