SRS.pdb
     RDKit          3D

 24 23  0  0  1  0  0  0  0  0999 V2000
   15.4295  -16.7462   18.5091 O   0  0  0  0  0  0  0  0  0  0  0  0
   14.5575  -16.3273   17.5216 C   0  0  0  0  0  0  0  0  0  0  0  0
   14.1183  -14.8758   17.7719 C   0  0  2  0  0  0  0  0  0  0  0  0
   15.3249  -14.0655   17.6576 N   0  0  0  0  0  0  0  0  0  0  0  0
   13.4972  -14.7863   19.0997 C   0  0  0  0  0  0  0  0  0  0  0  0
   14.2290  -14.4671   20.0655 O   0  0  0  0  0  0  0  0  0  0  0  0
    8.1005  -14.3277   16.0458 N   0  0  0  0  0  0  0  0  0  0  0  0
    7.9153  -13.3393   17.0653 C   0  0  0  0  0  0  0  0  0  0  0  0
    8.1931  -12.1166   16.7935 N   0  0  0  0  0  0  0  0  0  0  0  0
    7.4388  -13.6589   18.3549 N   0  0  0  0  0  0  0  0  0  0  0  0
    8.1600  -14.5892   19.2099 C   0  0  0  0  0  0  0  0  0  0  0  0
    9.3159  -13.9183   19.8684 C   0  0  0  0  0  0  0  0  0  0  0  0
   10.0991  -14.7636   20.7851 C   0  0  0  0  0  0  0  0  0  0  0  0
   11.5760  -14.8065   20.6341 C   0  0  2  0  0  0  0  0  0  0  0  0
   12.0946  -15.0488   19.3305 N   0  0  0  0  0  0  0  0  0  0  0  0
   12.0624  -15.9218   21.5045 C   0  0  0  0  0  0  0  0  0  0  0  0
   12.2672  -17.0273   20.9850 O   0  0  0  0  0  0  0  0  0  0  0  0
    8.1763  -11.3196   17.4354 O   0  0  0  0  0  0  0  0  0  0  0  0
   14.9831  -16.0183   23.6043 C   0  0  0  0  0  0  0  0  0  0  0  0
   13.9621  -16.2845   24.5382 C   0  0  2  0  0  0  0  0  0  0  0  0
   12.7459  -16.7496   23.7615 N   0  0  0  0  0  0  0  0  0  0  0  0
   12.2761  -15.7074   22.8645 C   0  0  0  0  0  0  0  0  0  0  0  0
   11.6570  -17.1357   24.6712 O   0  0  0  0  0  0  0  0  0  0  0  0
   11.7414  -18.1293   25.6343 O   0  0  0  0  0  0  0  0  0  0  0  0
  1  2  1  0
  3  2  1  0
  3  5  1  0
  3  4  1  1
  5  6  2  0
  7  8  1  0
  8  9  2  0
  8 10  1  0
 10 11  1  0
 11 12  1  0
 12 13  1  0
 14 13  1  6
 15 14  1  0
 15  5  1  0
 16 17  2  0
 16 14  1  0
 18 19  1  0
 20 19  1  6
 20 22  1  0
 20 21  1  0
 21 16  1  0
 22 23  1  0
 24 22  2  0
M  END
$$$$
