SRS.pdb
     RDKit          3D

 24 23  0  0  1  0  0  0  0  0999 V2000
    5.5167  -18.4908   19.8947 O   0  0  0  0  0  0  0  0  0  0  0  0
    6.5615  -17.6056   20.0844 C   0  0  0  0  0  0  0  0  0  0  0  0
    7.8949  -18.3624   20.1932 C   0  0  2  0  0  0  0  0  0  0  0  0
    7.6311  -19.5220   21.0365 N   0  0  0  0  0  0  0  0  0  0  0  0
    8.9090  -17.4650   20.7617 C   0  0  0  0  0  0  0  0  0  0  0  0
    9.2562  -16.4718   20.0810 O   0  0  0  0  0  0  0  0  0  0  0  0
   11.2784  -14.9287   28.4703 N   0  0  0  0  0  0  0  0  0  0  0  0
    9.9848  -14.4679   28.0643 C   0  0  0  0  0  0  0  0  0  0  0  0
    9.4774  -13.4538   28.6644 N   0  0  0  0  0  0  0  0  0  0  0  0
    9.2490  -15.0856   27.0301 N   0  0  0  0  0  0  0  0  0  0  0  0
    9.8217  -16.1723   26.2505 C   0  0  0  0  0  0  0  0  0  0  0  0
    9.8519  -15.8276   24.8013 C   0  0  0  0  0  0  0  0  0  0  0  0
   10.7321  -16.6660   23.9703 C   0  0  0  0  0  0  0  0  0  0  0  0
   10.4800  -16.7397   22.5085 C   0  0  2  0  0  0  0  0  0  0  0  0
    9.5124  -17.6815   22.0571 N   0  0  0  0  0  0  0  0  0  0  0  0
   11.7788  -17.1176   21.8693 C   0  0  0  0  0  0  0  0  0  0  0  0
   12.1132  -18.3101   21.8765 O   0  0  0  0  0  0  0  0  0  0  0  0
    8.5290  -13.0831   28.5614 O   0  0  0  0  0  0  0  0  0  0  0  0
   13.8749  -14.2936   19.7163 C   0  0  0  0  0  0  0  0  0  0  0  0
   14.0927  -15.6547   19.4241 C   0  0  1  0  0  0  0  0  0  0  0  0
   13.8835  -16.4342   20.7075 N   0  0  0  0  0  0  0  0  0  0  0  0
   12.5819  -16.1414   21.2835 C   0  0  0  0  0  0  0  0  0  0  0  0
   14.9318  -16.1209   21.6900 O   0  0  0  0  0  0  0  0  0  0  0  0
   14.7016  -15.6634   22.9782 O   0  0  0  0  0  0  0  0  0  0  0  0
  1  2  1  0
  3  2  1  0
  3  5  1  0
  3  4  1  1
  5  6  2  0
  7  8  1  0
  8  9  2  0
  8 10  1  0
 10 11  1  0
 11 12  1  0
 12 13  1  0
 14 13  1  1
 15 14  1  0
 15  5  1  0
 16 17  2  0
 16 14  1  0
 18 19  1  0
 20 19  1  6
 20 22  1  0
 20 21  1  0
 21 16  1  0
 22 23  1  0
 24 22  2  0
M  END
$$$$
