SRS.pdb
     RDKit          3D

 24 23  0  0  1  0  0  0  0  0999 V2000
   14.4823  -18.9676   14.4270 O   0  0  0  0  0  0  0  0  0  0  0  0
   14.9420  -18.0243   15.3269 C   0  0  0  0  0  0  0  0  0  0  0  0
   14.3731  -16.6368   14.9897 C   0  0  2  0  0  0  0  0  0  0  0  0
   15.3299  -16.0209   14.0783 N   0  0  0  0  0  0  0  0  0  0  0  0
   14.2017  -15.8751   16.2336 C   0  0  0  0  0  0  0  0  0  0  0  0
   15.1630  -15.1725   16.6244 O   0  0  0  0  0  0  0  0  0  0  0  0
    7.1079  -13.3542   20.5630 N   0  0  0  0  0  0  0  0  0  0  0  0
    7.7856  -13.2262   19.3080 C   0  0  0  0  0  0  0  0  0  0  0  0
    7.1239  -12.8062   18.2923 N   0  0  0  0  0  0  0  0  0  0  0  0
    9.1517  -13.5432   19.1472 N   0  0  0  0  0  0  0  0  0  0  0  0
   10.0629  -13.5235   20.2811 C   0  0  0  0  0  0  0  0  0  0  0  0
   11.4526  -13.8462   19.8513 C   0  0  0  0  0  0  0  0  0  0  0  0
   11.5625  -14.7215   18.6725 C   0  0  0  0  0  0  0  0  0  0  0  0
   12.9134  -15.0831   18.1724 C   0  0  2  0  0  0  0  0  0  0  0  0
   12.9842  -15.9052   17.0122 N   0  0  0  0  0  0  0  0  0  0  0  0
   13.5899  -15.8354   19.2744 C   0  0  0  0  0  0  0  0  0  0  0  0
   13.3880  -17.0541   19.3654 O   0  0  0  0  0  0  0  0  0  0  0  0
    7.4680  -12.6823   17.3364 O   0  0  0  0  0  0  0  0  0  0  0  0
   16.9540  -15.7379   22.7394 C   0  0  0  0  0  0  0  0  0  0  0  0
   16.2905  -14.9994   21.7394 C   0  0  2  0  0  0  0  0  0  0  0  0
   15.1413  -15.8494   21.2340 N   0  0  0  0  0  0  0  0  0  0  0  0
   14.4246  -15.1686   20.1688 C   0  0  0  0  0  0  0  0  0  0  0  0
   14.2056  -16.1698   22.3223 O   0  0  0  0  0  0  0  0  0  0  0  0
   14.3997  -17.1630   23.2697 O   0  0  0  0  0  0  0  0  0  0  0  0
  1  2  1  0
  3  2  1  0
  3  5  1  0
  3  4  1  6
  5  6  2  0
  7  8  1  0
  8  9  2  0
  8 10  1  0
 10 11  1  0
 11 12  1  0
 12 13  1  0
 14 13  1  1
 15 14  1  0
 15  5  1  0
 16 17  2  0
 16 14  1  0
 18 19  1  0
 20 19  1  6
 20 22  1  0
 20 21  1  0
 21 16  1  0
 22 23  1  0
 24 22  2  0
M  END
$$$$
