SRS.pdb
     RDKit          3D

 24 23  0  0  1  0  0  0  0  0999 V2000
   12.2690  -20.3150   17.7074 O   0  0  0  0  0  0  0  0  0  0  0  0
   11.0091  -20.3280   18.2762 C   0  0  0  0  0  0  0  0  0  0  0  0
   10.2315  -19.0595   17.8908 C   0  0  2  0  0  0  0  0  0  0  0  0
   10.6724  -18.7111   16.5455 N   0  0  0  0  0  0  0  0  0  0  0  0
   10.5176  -18.0061   18.8733 C   0  0  0  0  0  0  0  0  0  0  0  0
   11.4650  -17.2230   18.6295 O   0  0  0  0  0  0  0  0  0  0  0  0
    8.3107  -13.1356   18.1555 N   0  0  0  0  0  0  0  0  0  0  0  0
    7.7117  -12.8086   19.4144 C   0  0  0  0  0  0  0  0  0  0  0  0
    7.8928  -11.6326   19.8942 N   0  0  0  0  0  0  0  0  0  0  0  0
    6.9302  -13.7293   20.1453 N   0  0  0  0  0  0  0  0  0  0  0  0
    7.4350  -15.0578   20.4567 C   0  0  0  0  0  0  0  0  0  0  0  0
    8.3990  -15.0070   21.5916 C   0  0  0  0  0  0  0  0  0  0  0  0
    9.0800  -16.2756   21.8997 C   0  0  0  0  0  0  0  0  0  0  0  0
   10.1199  -16.7757   20.9647 C   0  0  2  0  0  0  0  0  0  0  0  0
    9.7589  -17.8417   20.0926 N   0  0  0  0  0  0  0  0  0  0  0  0
   11.2496  -17.2749   21.8090 C   0  0  0  0  0  0  0  0  0  0  0  0
   11.1893  -18.4312   22.2488 O   0  0  0  0  0  0  0  0  0  0  0  0
    7.5644  -11.2729   20.7942 O   0  0  0  0  0  0  0  0  0  0  0  0
   15.6853  -16.4166   23.5294 C   0  0  0  0  0  0  0  0  0  0  0  0
   14.5861  -15.8631   22.8430 C   0  0  2  0  0  0  0  0  0  0  0  0
   13.4516  -16.8659   22.9183 N   0  0  0  0  0  0  0  0  0  0  0  0
   12.3367  -16.4483   22.0851 C   0  0  0  0  0  0  0  0  0  0  0  0
   12.9878  -17.0324   24.3038 O   0  0  0  0  0  0  0  0  0  0  0  0
   13.5788  -17.8612   25.2448 O   0  0  0  0  0  0  0  0  0  0  0  0
  1  2  1  0
  3  2  1  0
  3  5  1  0
  3  4  1  6
  5  6  2  0
  7  8  1  0
  8  9  2  0
  8 10  1  0
 10 11  1  0
 11 12  1  0
 12 13  1  0
 14 13  1  1
 15 14  1  0
 15  5  1  0
 16 17  2  0
 16 14  1  0
 18 19  1  0
 20 19  1  6
 20 22  1  0
 20 21  1  0
 21 16  1  0
 22 23  1  0
 24 22  2  0
M  END
$$$$
