SRS.pdb
     RDKit          3D

 24 23  0  0  1  0  0  0  0  0999 V2000
   13.8466  -20.2293   18.4065 O   0  0  0  0  0  0  0  0  0  0  0  0
   12.5414  -20.1017   17.9693 C   0  0  0  0  0  0  0  0  0  0  0  0
   12.2630  -18.6585   17.5198 C   0  0  2  0  0  0  0  0  0  0  0  0
   13.2672  -18.3520   16.5082 N   0  0  0  0  0  0  0  0  0  0  0  0
   12.3424  -17.7705   18.6869 C   0  0  0  0  0  0  0  0  0  0  0  0
   13.4117  -17.1436   18.8710 O   0  0  0  0  0  0  0  0  0  0  0  0
    7.3340  -14.8626   18.3849 N   0  0  0  0  0  0  0  0  0  0  0  0
    7.3107  -13.5874   19.0360 C   0  0  0  0  0  0  0  0  0  0  0  0
    6.9690  -12.5556   18.3544 N   0  0  0  0  0  0  0  0  0  0  0  0
    7.6478  -13.4236   20.3968 N   0  0  0  0  0  0  0  0  0  0  0  0
    8.2223  -14.5191   21.1625 C   0  0  0  0  0  0  0  0  0  0  0  0
    9.5249  -14.9481   20.5804 C   0  0  0  0  0  0  0  0  0  0  0  0
   10.1848  -16.0713   21.2667 C   0  0  0  0  0  0  0  0  0  0  0  0
   11.4148  -16.6520   20.6704 C   0  0  2  0  0  0  0  0  0  0  0  0
   11.2498  -17.5953   19.6168 N   0  0  0  0  0  0  0  0  0  0  0  0
   12.1312  -17.3622   21.7751 C   0  0  0  0  0  0  0  0  0  0  0  0
   11.7054  -18.4673   22.1378 O   0  0  0  0  0  0  0  0  0  0  0  0
    6.9634  -11.5808   18.6660 O   0  0  0  0  0  0  0  0  0  0  0  0
   15.5942  -15.6784   23.2712 C   0  0  0  0  0  0  0  0  0  0  0  0
   15.5319  -17.0839   23.1936 C   0  0  1  0  0  0  0  0  0  0  0  0
   14.0766  -17.4830   23.3396 N   0  0  0  0  0  0  0  0  0  0  0  0
   13.2492  -16.7829   22.3716 C   0  0  0  0  0  0  0  0  0  0  0  0
   13.5862  -17.1966   24.6961 O   0  0  0  0  0  0  0  0  0  0  0  0
   14.0933  -17.7563   25.8585 O   0  0  0  0  0  0  0  0  0  0  0  0
  1  2  1  0
  3  2  1  0
  3  5  1  0
  3  4  1  6
  5  6  2  0
  7  8  1  0
  8  9  2  0
  8 10  1  0
 10 11  1  0
 11 12  1  0
 12 13  1  0
 14 13  1  1
 15 14  1  0
 15  5  1  0
 16 17  2  0
 16 14  1  0
 18 19  1  0
 20 19  1  6
 20 22  1  0
 20 21  1  0
 21 16  1  0
 22 23  1  0
 24 22  2  0
M  END
$$$$
