SRS.pdb
     RDKit          3D

 24 23  0  0  1  0  0  0  0  0999 V2000
    7.7368  -13.3580   20.6244 O   0  0  0  0  0  0  0  0  0  0  0  0
    8.2021  -12.4979   19.6472 C   0  0  0  0  0  0  0  0  0  0  0  0
    8.6370  -13.2847   18.4005 C   0  0  2  0  0  0  0  0  0  0  0  0
    7.4246  -13.8932   17.8662 N   0  0  0  0  0  0  0  0  0  0  0  0
    9.6471  -14.2772   18.7897 C   0  0  0  0  0  0  0  0  0  0  0  0
    9.2606  -15.4500   19.0026 O   0  0  0  0  0  0  0  0  0  0  0  0
   15.7213  -13.1484   13.6605 N   0  0  0  0  0  0  0  0  0  0  0  0
   15.5993  -13.6422   14.9991 C   0  0  0  0  0  0  0  0  0  0  0  0
   16.1954  -13.0110   15.9437 N   0  0  0  0  0  0  0  0  0  0  0  0
   14.8487  -14.7944   15.3177 N   0  0  0  0  0  0  0  0  0  0  0  0
   14.8317  -15.3255   16.6720 C   0  0  0  0  0  0  0  0  0  0  0  0
   13.4423  -15.3684   17.2082 C   0  0  0  0  0  0  0  0  0  0  0  0
   13.2965  -14.9708   18.6185 C   0  0  0  0  0  0  0  0  0  0  0  0
   11.9483  -15.0172   19.2399 C   0  0  2  0  0  0  0  0  0  0  0  0
   11.0491  -13.9565   18.9342 N   0  0  0  0  0  0  0  0  0  0  0  0
   12.1591  -14.9888   20.7208 C   0  0  0  0  0  0  0  0  0  0  0  0
   12.6770  -13.9817   21.2223 O   0  0  0  0  0  0  0  0  0  0  0  0
   16.2096  -13.2526   16.9381 O   0  0  0  0  0  0  0  0  0  0  0  0
    9.7478  -15.7403   23.4244 C   0  0  0  0  0  0  0  0  0  0  0  0
   10.7960  -16.6498   23.6688 C   0  0  2  0  0  0  0  0  0  0  0  0
   12.0207  -16.1394   22.9351 N   0  0  0  0  0  0  0  0  0  0  0  0
   11.7765  -16.0757   21.5041 C   0  0  0  0  0  0  0  0  0  0  0  0
   13.1846  -17.0007   23.1920 O   0  0  0  0  0  0  0  0  0  0  0  0
   13.7411  -17.2321   24.4404 O   0  0  0  0  0  0  0  0  0  0  0  0
  1  2  1  0
  3  2  1  0
  3  5  1  0
  3  4  1  1
  5  6  2  0
  7  8  1  0
  8  9  2  0
  8 10  1  0
 10 11  1  0
 11 12  1  0
 12 13  1  0
 14 13  1  6
 15 14  1  0
 15  5  1  0
 16 17  2  0
 16 14  1  0
 18 19  1  0
 20 19  1  1
 20 22  1  0
 20 21  1  0
 21 16  1  0
 22 23  1  0
 24 22  2  0
M  END
$$$$
