CPD.pdb
     RDKit          3D

 22 22  0  0  1  0  0  0  0  0999 V2000
   20.0499  -11.1936  -15.7567 N   0  0  0  0  0  0  0  0  0  0  0  0
   20.7441  -10.2845  -16.7194 C   0  0  1  0  0  0  0  0  0  0  0  0
   19.7071  -10.1575  -17.8462 C   0  0  0  0  0  0  0  0  0  0  0  0
   19.6131  -11.5967  -18.9068 S   0  0  0  0  0  0  0  0  0  0  0  0
   20.9990   -9.0613  -15.9899 C   0  0  0  0  0  0  0  0  0  0  0  0
   19.9926   -8.5639  -15.3295 O   0  0  0  0  0  0  0  0  0  0  0  0
   22.1897   -8.2851  -15.8673 N   0  0  0  0  0  0  0  0  0  0  0  0
   23.4500   -8.8220  -16.3181 C   0  0  0  0  0  0  0  0  0  0  0  0
   24.3645   -7.6691  -16.4454 C   0  0  0  0  0  0  0  0  0  0  0  0
   23.6848   -6.4768  -15.8761 C   0  0  0  0  0  0  0  0  0  0  0  0
   22.3562   -7.0050  -15.3438 C   0  0  1  0  0  0  0  0  0  0  0  0
   21.3107   -5.9928  -15.7097 C   0  0  0  0  0  0  0  0  0  0  0  0
   20.6874   -6.1826  -16.7782 O   0  0  0  0  0  0  0  0  0  0  0  0
   20.9875   -4.8612  -14.9286 N   0  0  0  0  0  0  0  0  0  0  0  0
   20.0227   -3.8543  -15.3387 C   0  0  1  0  0  0  0  0  0  0  0  0
   18.7111   -4.2403  -14.6677 C   0  0  0  0  0  0  0  0  0  0  0  0
   17.7054   -3.2131  -15.0147 C   0  0  0  0  0  0  0  0  0  0  0  0
   17.5241   -2.8234  -16.1821 O   0  0  0  0  0  0  0  0  0  0  0  0
   20.3769   -2.5132  -14.9013 C   0  0  0  0  0  0  0  0  0  0  0  0
   21.2420   -2.2096  -13.8473 O   0  0  0  0  0  0  0  0  0  0  0  0
   16.9421   -2.6747  -13.9892 O   0  0  0  0  0  0  0  0  0  0  0  0
   19.8835   -1.5194  -15.4923 O   0  0  0  0  0  0  0  0  0  0  0  0
  2  1  1  1
  2  3  1  0
  3  4  1  0
  5  6  2  0
  5  2  1  0
  7  5  1  0
  8  7  1  0
  9  8  1  0
 10  9  1  0
 10 11  1  0
 11  7  1  0
 11 12  1  6
 12 14  1  0
 13 12  2  0
 14 15  1  0
 15 16  1  1
 15 19  1  0
 16 17  1  0
 17 21  1  0
 18 17  2  0
 19 20  1  0
 22 19  2  0
M  END
$$$$
