CPD.pdb
     RDKit          3D

 22 22  0  0  1  0  0  0  0  0999 V2000
   18.7550  -23.3327  -11.9574 N   0  0  0  0  0  0  0  0  0  0  0  0
   19.5647  -23.2235  -13.2096 C   0  0  1  0  0  0  0  0  0  0  0  0
   18.7714  -24.1088  -14.1832 C   0  0  0  0  0  0  0  0  0  0  0  0
   19.5904  -24.3692  -15.7536 S   0  0  0  0  0  0  0  0  0  0  0  0
   19.5802  -21.8163  -13.5454 C   0  0  0  0  0  0  0  0  0  0  0  0
   18.4184  -21.2449  -13.6870 O   0  0  0  0  0  0  0  0  0  0  0  0
   20.6738  -20.9247  -13.7559 N   0  0  0  0  0  0  0  0  0  0  0  0
   22.0049  -21.3089  -13.3552 C   0  0  0  0  0  0  0  0  0  0  0  0
   22.9256  -20.3988  -14.0662 C   0  0  0  0  0  0  0  0  0  0  0  0
   22.1122  -19.3505  -14.7348 C   0  0  0  0  0  0  0  0  0  0  0  0
   20.6752  -19.6508  -14.3196 C   0  0  1  0  0  0  0  0  0  0  0  0
   19.8235  -19.4597  -15.5401 C   0  0  0  0  0  0  0  0  0  0  0  0
   19.6156  -20.4693  -16.2499 O   0  0  0  0  0  0  0  0  0  0  0  0
   19.2450  -18.2300  -15.9249 N   0  0  0  0  0  0  0  0  0  0  0  0
   18.4008  -18.0748  -17.0980 C   0  0  1  0  0  0  0  0  0  0  0  0
   17.6142  -16.7898  -16.8748 C   0  0  0  0  0  0  0  0  0  0  0  0
   16.7421  -16.9914  -15.6977 C   0  0  0  0  0  0  0  0  0  0  0  0
   16.3212  -18.1130  -15.3624 O   0  0  0  0  0  0  0  0  0  0  0  0
   19.1585  -17.9326  -18.3314 C   0  0  0  0  0  0  0  0  0  0  0  0
   18.6613  -18.1651  -19.6160 O   0  0  0  0  0  0  0  0  0  0  0  0
   16.3905  -15.8785  -14.9480 O   0  0  0  0  0  0  0  0  0  0  0  0
   20.3628  -17.5759  -18.2798 O   0  0  0  0  0  0  0  0  0  0  0  0
  2  1  1  1
  2  3  1  0
  3  4  1  0
  5  6  2  0
  5  2  1  0
  7  5  1  0
  8  7  1  0
  9  8  1  0
 10  9  1  0
 10 11  1  0
 11  7  1  0
 11 12  1  6
 12 14  1  0
 13 12  2  0
 14 15  1  0
 15 16  1  1
 15 19  1  0
 16 17  1  0
 17 21  1  0
 18 17  2  0
 19 20  1  0
 22 19  2  0
M  END
$$$$
