CPD.pdb
     RDKit          3D

 22 22  0  0  1  0  0  0  0  0999 V2000
   19.1910  -13.4147  -15.6976 N   0  0  0  0  0  0  0  0  0  0  0  0
   20.0048  -12.4371  -16.4834 C   0  0  1  0  0  0  0  0  0  0  0  0
   19.2363  -12.3749  -17.8126 C   0  0  0  0  0  0  0  0  0  0  0  0
   19.6187  -13.7190  -18.9316 S   0  0  0  0  0  0  0  0  0  0  0  0
   19.9910  -11.2097  -15.7176 C   0  0  0  0  0  0  0  0  0  0  0  0
   18.8227  -10.7885  -15.3252 O   0  0  0  0  0  0  0  0  0  0  0  0
   21.0608  -10.3587  -15.3096 N   0  0  0  0  0  0  0  0  0  0  0  0
   22.4225  -10.8290  -15.3777 C   0  0  0  0  0  0  0  0  0  0  0  0
   23.2758   -9.6258  -15.3012 C   0  0  0  0  0  0  0  0  0  0  0  0
   22.4055   -8.4626  -14.9897 C   0  0  0  0  0  0  0  0  0  0  0  0
   21.0111   -9.0569  -14.8160 C   0  0  1  0  0  0  0  0  0  0  0  0
   20.0546   -8.1214  -15.4953 C   0  0  0  0  0  0  0  0  0  0  0  0
   19.8315   -8.3224  -16.7102 O   0  0  0  0  0  0  0  0  0  0  0  0
   19.3953   -7.0497  -14.8536 N   0  0  0  0  0  0  0  0  0  0  0  0
   18.5291   -6.1116  -15.5482 C   0  0  1  0  0  0  0  0  0  0  0  0
   17.1855   -6.1824  -14.8344 C   0  0  0  0  0  0  0  0  0  0  0  0
   16.2346   -5.3239  -15.5730 C   0  0  0  0  0  0  0  0  0  0  0  0
   16.4802   -4.8775  -16.7079 O   0  0  0  0  0  0  0  0  0  0  0  0
   19.0048   -4.7387  -15.4813 C   0  0  0  0  0  0  0  0  0  0  0  0
   18.8855   -3.7921  -16.5016 O   0  0  0  0  0  0  0  0  0  0  0  0
   15.0265   -5.0152  -14.9650 O   0  0  0  0  0  0  0  0  0  0  0  0
   19.5778   -4.3328  -14.4386 O   0  0  0  0  0  0  0  0  0  0  0  0
  2  1  1  1
  2  3  1  0
  3  4  1  0
  5  6  2  0
  5  2  1  0
  7  5  1  0
  8  7  1  0
  9  8  1  0
 10  9  1  0
 10 11  1  0
 11  7  1  0
 11 12  1  6
 12 14  1  0
 13 12  2  0
 14 15  1  0
 15 16  1  1
 15 19  1  0
 16 17  1  0
 17 21  1  0
 18 17  2  0
 19 20  1  0
 22 19  2  0
M  END
$$$$
