CPD.pdb
     RDKit          3D

 22 22  0  0  1  0  0  0  0  0999 V2000
   25.0610  -15.6670  -15.9178 N   0  0  0  0  0  0  0  0  0  0  0  0
   25.5363  -14.4953  -16.7156 C   0  0  1  0  0  0  0  0  0  0  0  0
   24.7810  -14.6815  -18.0408 C   0  0  0  0  0  0  0  0  0  0  0  0
   25.3780  -16.0519  -19.0259 S   0  0  0  0  0  0  0  0  0  0  0  0
   25.1523  -13.3235  -15.9589 C   0  0  0  0  0  0  0  0  0  0  0  0
   23.9264  -13.2974  -15.5198 O   0  0  0  0  0  0  0  0  0  0  0  0
   25.9008  -12.1622  -15.6034 N   0  0  0  0  0  0  0  0  0  0  0  0
   27.3326  -12.1465  -15.7760 C   0  0  0  0  0  0  0  0  0  0  0  0
   27.7355  -10.7263  -15.7275 C   0  0  0  0  0  0  0  0  0  0  0  0
   26.5502   -9.9244  -15.3281 C   0  0  0  0  0  0  0  0  0  0  0  0
   25.4529  -10.9537  -15.0749 C   0  0  1  0  0  0  0  0  0  0  0  0
   24.1911  -10.3943  -15.6635 C   0  0  0  0  0  0  0  0  0  0  0  0
   23.9894  -10.6089  -16.8799 O   0  0  0  0  0  0  0  0  0  0  0  0
   23.2290   -9.6589  -14.9365 N   0  0  0  0  0  0  0  0  0  0  0  0
   22.0423   -9.0764  -15.5408 C   0  0  1  0  0  0  0  0  0  0  0  0
   20.8596   -9.8056  -14.9170 C   0  0  0  0  0  0  0  0  0  0  0  0
   19.6259   -9.2935  -15.5517 C   0  0  0  0  0  0  0  0  0  0  0  0
   18.9054   -8.4337  -15.0138 O   0  0  0  0  0  0  0  0  0  0  0  0
   21.8974   -7.6566  -15.2599 C   0  0  0  0  0  0  0  0  0  0  0  0
   21.2049   -6.7423  -16.0573 O   0  0  0  0  0  0  0  0  0  0  0  0
   19.2732   -9.7993  -16.7942 O   0  0  0  0  0  0  0  0  0  0  0  0
   22.4258   -7.1735  -14.2267 O   0  0  0  0  0  0  0  0  0  0  0  0
  2  1  1  1
  2  3  1  0
  3  4  1  0
  5  6  2  0
  5  2  1  0
  7  5  1  0
  8  7  1  0
  9  8  1  0
 10  9  1  0
 10 11  1  0
 11  7  1  0
 11 12  1  6
 12 14  1  0
 13 12  2  0
 14 15  1  0
 15 16  1  1
 15 19  1  0
 16 17  1  0
 17 21  1  0
 18 17  2  0
 19 20  1  0
 22 19  2  0
M  END
$$$$
