CPD.pdb
     RDKit          3D

 22 22  0  0  1  0  0  0  0  0999 V2000
   18.1488  -13.2636  -15.6128 N   0  0  0  0  0  0  0  0  0  0  0  0
   17.3156  -12.0710  -15.9575 C   0  0  1  0  0  0  0  0  0  0  0  0
   16.4919  -11.8733  -14.6755 C   0  0  0  0  0  0  0  0  0  0  0  0
   15.1144  -13.0060  -14.5201 S   0  0  0  0  0  0  0  0  0  0  0  0
   18.2530  -11.0072  -16.2455 C   0  0  0  0  0  0  0  0  0  0  0  0
   19.2431  -10.8701  -15.4106 O   0  0  0  0  0  0  0  0  0  0  0  0
   18.2806  -10.0578  -17.3099 N   0  0  0  0  0  0  0  0  0  0  0  0
   17.3957  -10.2134  -18.4381 C   0  0  0  0  0  0  0  0  0  0  0  0
   17.3655   -8.9030  -19.1189 C   0  0  0  0  0  0  0  0  0  0  0  0
   18.3947   -8.0340  -18.4919 C   0  0  0  0  0  0  0  0  0  0  0  0
   19.0779   -8.9252  -17.4591 C   0  0  1  0  0  0  0  0  0  0  0  0
   19.2826   -8.0864  -16.2319 C   0  0  0  0  0  0  0  0  0  0  0  0
   18.3620   -8.0882  -15.3841 O   0  0  0  0  0  0  0  0  0  0  0  0
   20.4372   -7.3139  -15.9768 N   0  0  0  0  0  0  0  0  0  0  0  0
   20.5927   -6.4699  -14.8036 C   0  0  1  0  0  0  0  0  0  0  0  0
   22.0940   -6.3424  -14.5814 C   0  0  0  0  0  0  0  0  0  0  0  0
   22.3047   -5.4990  -13.3851 C   0  0  0  0  0  0  0  0  0  0  0  0
   21.9570   -5.8572  -12.2456 O   0  0  0  0  0  0  0  0  0  0  0  0
   20.0474   -5.1338  -14.9857 C   0  0  0  0  0  0  0  0  0  0  0  0
   19.9067   -4.4793  -16.2117 O   0  0  0  0  0  0  0  0  0  0  0  0
   22.9160   -4.2656  -13.5559 O   0  0  0  0  0  0  0  0  0  0  0  0
   19.6627   -4.4809  -13.9828 O   0  0  0  0  0  0  0  0  0  0  0  0
  2  1  1  1
  2  3  1  0
  3  4  1  0
  5  6  2  0
  5  2  1  0
  7  5  1  0
  8  7  1  0
  9  8  1  0
 10  9  1  0
 10 11  1  0
 11  7  1  0
 11 12  1  1
 12 14  1  0
 13 12  2  0
 14 15  1  0
 15 16  1  6
 15 19  1  0
 16 17  1  0
 17 21  1  0
 18 17  2  0
 19 20  1  0
 22 19  2  0
M  END
$$$$
