CPD.pdb
     RDKit          3D

 22 22  0  0  1  0  0  0  0  0999 V2000
   16.8334   -8.9343  -15.1855 N   0  0  0  0  0  0  0  0  0  0  0  0
   17.9617   -8.5458  -16.0863 C   0  0  1  0  0  0  0  0  0  0  0  0
   17.2194   -7.9421  -17.2887 C   0  0  0  0  0  0  0  0  0  0  0  0
   16.6306   -9.1610  -18.4602 S   0  0  0  0  0  0  0  0  0  0  0  0
   18.7598   -7.6040  -15.3318 C   0  0  0  0  0  0  0  0  0  0  0  0
   18.1048   -6.6884  -14.6769 O   0  0  0  0  0  0  0  0  0  0  0  0
   20.1744   -7.5001  -15.1787 N   0  0  0  0  0  0  0  0  0  0  0  0
   21.0185   -8.6260  -15.4947 C   0  0  0  0  0  0  0  0  0  0  0  0
   22.3856   -8.0856  -15.6382 C   0  0  0  0  0  0  0  0  0  0  0  0
   22.3662   -6.6631  -15.2095 C   0  0  0  0  0  0  0  0  0  0  0  0
   20.9354   -6.4191  -14.7395 C   0  0  1  0  0  0  0  0  0  0  0  0
   20.5355   -5.0678  -15.2548 C   0  0  0  0  0  0  0  0  0  0  0  0
   20.0644   -5.0196  -16.4132 O   0  0  0  0  0  0  0  0  0  0  0  0
   20.6496   -3.8675  -14.5191 N   0  0  0  0  0  0  0  0  0  0  0  0
   20.2727   -2.5664  -15.0465 C   0  0  1  0  0  0  0  0  0  0  0  0
   19.0365   -2.1446  -14.2631 C   0  0  0  0  0  0  0  0  0  0  0  0
   18.5885   -0.8386  -14.7930 C   0  0  0  0  0  0  0  0  0  0  0  0
   19.1629   -0.2685  -15.7378 O   0  0  0  0  0  0  0  0  0  0  0  0
   21.2982   -1.5534  -14.8527 C   0  0  0  0  0  0  0  0  0  0  0  0
   22.4381   -1.6999  -14.0586 O   0  0  0  0  0  0  0  0  0  0  0  0
   17.4837   -0.2403  -14.2050 O   0  0  0  0  0  0  0  0  0  0  0  0
   21.1852   -0.4411  -15.4272 O   0  0  0  0  0  0  0  0  0  0  0  0
  2  1  1  1
  2  3  1  0
  3  4  1  0
  5  6  2  0
  5  2  1  0
  7  5  1  0
  8  7  1  0
  9  8  1  0
 10  9  1  0
 10 11  1  0
 11  7  1  0
 11 12  1  6
 12 14  1  0
 13 12  2  0
 14 15  1  0
 15 16  1  1
 15 19  1  0
 16 17  1  0
 17 21  1  0
 18 17  2  0
 19 20  1  0
 22 19  2  0
M  END
$$$$
