YNV.pdb
     RDKit          3D

 28 28  0  0  1  0  0  0  0  0999 V2000
   33.6843  -17.5427  -20.5006 O   0  0  0  0  0  0  0  0  0  0  0  0
   32.4887  -17.3940  -19.8334 C   0  0  0  0  0  0  0  0  0  0  0  0
   32.3543  -16.4647  -18.8354 C   0  0  0  0  0  0  0  0  0  0  0  0
   31.1452  -16.3060  -18.1522 C   0  0  0  0  0  0  0  0  0  0  0  0
   30.0814  -17.1073  -18.5028 C   0  0  0  0  0  0  0  0  0  0  0  0
   28.8026  -16.9391  -17.7790 C   0  0  0  0  0  0  0  0  0  0  0  0
   28.5764  -18.2297  -16.9895 C   0  0  2  0  0  0  0  0  0  0  0  0
   28.3948  -19.2884  -17.9367 N   0  0  0  0  0  0  0  0  0  0  0  0
   27.3577  -18.0160  -16.1615 C   0  0  0  0  0  0  0  0  0  0  0  0
   27.2792  -17.0393  -15.3779 O   0  0  0  0  0  0  0  0  0  0  0  0
   30.1881  -18.0421  -19.4945 C   0  0  0  0  0  0  0  0  0  0  0  0
   31.4152  -18.1744  -20.1587 C   0  0  0  0  0  0  0  0  0  0  0  0
   22.2175  -18.5463  -15.0648 N   0  0  0  0  0  0  0  0  0  0  0  0
   22.6250  -18.6083  -16.4385 C   0  0  0  0  0  0  0  0  0  0  0  0
   21.7454  -18.5483  -17.3011 O   0  0  0  0  0  0  0  0  0  0  0  0
   24.0321  -18.7362  -16.7000 C   0  0  0  0  0  0  0  0  0  0  0  0
   25.0032  -18.7571  -15.5543 C   0  0  2  0  0  0  0  0  0  0  0  0
   26.3044  -18.9369  -16.2841 N   0  0  0  0  0  0  0  0  0  0  0  0
   24.9315  -19.9362  -14.6860 C   0  0  0  0  0  0  0  0  0  0  0  0
   25.0820  -21.1007  -15.2057 O   0  0  0  0  0  0  0  0  0  0  0  0
   27.0228  -21.2353  -12.1100 C   0  0  0  0  0  0  0  0  0  0  0  0
   25.6376  -21.3250  -11.5067 C   0  0  1  0  0  0  0  0  0  0  0  0
   25.4773  -20.1669  -10.5475 C   0  0  0  0  0  0  0  0  0  0  0  0
   24.5781  -21.2131  -12.5642 C   0  0  2  0  0  0  0  0  0  0  0  0
   24.7129  -19.9427  -13.2950 N   0  0  0  0  0  0  0  0  0  0  0  0
   23.2447  -21.2197  -11.9357 C   0  0  0  0  0  0  0  0  0  0  0  0
   22.6680  -22.4122  -11.4618 O   0  0  0  0  0  0  0  0  0  0  0  0
   22.6080  -20.1495  -11.8183 O   0  0  0  0  0  0  0  0  0  0  0  0
  2  1  1  0
  2 12  2  0
  3  2  1  0
  4  3  2  0
  4  5  1  0
  5 11  2  0
  6  5  1  0
  7  9  1  0
  7  6  1  0
  7  8  1  6
  9 18  1  0
 10  9  2  0
 11 12  1  0
 14 13  1  0
 15 14  2  0
 16 14  1  0
 17 16  1  6
 18 17  1  0
 19 17  1  0
 20 19  2  0
 22 21  1  6
 22 23  1  0
 22 24  1  0
 24 26  1  0
 24 25  1  1
 25 19  1  0
 26 27  1  0
 28 26  2  0
M  END
$$$$
