YNV.pdb
     RDKit          3D

 28 28  0  0  1  0  0  0  0  0999 V2000
   28.8720  -20.4380   -3.6009 O   0  0  0  0  0  0  0  0  0  0  0  0
   28.3805  -20.1956   -4.8644 C   0  0  0  0  0  0  0  0  0  0  0  0
   27.1635  -20.6932   -5.2501 C   0  0  0  0  0  0  0  0  0  0  0  0
   26.6559  -20.4528   -6.5301 C   0  0  0  0  0  0  0  0  0  0  0  0
   27.4072  -19.7001   -7.4050 C   0  0  0  0  0  0  0  0  0  0  0  0
   26.8696  -19.4467   -8.7594 C   0  0  0  0  0  0  0  0  0  0  0  0
   26.7844  -20.8064   -9.4553 C   0  0  2  0  0  0  0  0  0  0  0  0
   28.1216  -21.2948   -9.6124 N   0  0  0  0  0  0  0  0  0  0  0  0
   26.1249  -20.5732  -10.7694 C   0  0  0  0  0  0  0  0  0  0  0  0
   26.5836  -19.7275  -11.5748 O   0  0  0  0  0  0  0  0  0  0  0  0
   28.6243  -19.1916   -7.0463 C   0  0  0  0  0  0  0  0  0  0  0  0
   29.1029  -19.4522   -5.7549 C   0  0  0  0  0  0  0  0  0  0  0  0
   25.9013  -21.1956  -14.7722 N   0  0  0  0  0  0  0  0  0  0  0  0
   25.6323  -22.4828  -14.1996 C   0  0  0  0  0  0  0  0  0  0  0  0
   26.1574  -23.4664  -14.7270 O   0  0  0  0  0  0  0  0  0  0  0  0
   24.7684  -22.5224  -13.0521 C   0  0  0  0  0  0  0  0  0  0  0  0
   24.3104  -21.2389  -12.4205 C   0  0  2  0  0  0  0  0  0  0  0  0
   24.9793  -21.3250  -11.0777 N   0  0  0  0  0  0  0  0  0  0  0  0
   22.8840  -21.1709  -12.0890 C   0  0  0  0  0  0  0  0  0  0  0  0
   22.4450  -21.8491  -11.0909 O   0  0  0  0  0  0  0  0  0  0  0  0
   20.7241  -17.9982  -11.5939 C   0  0  0  0  0  0  0  0  0  0  0  0
   19.9400  -19.0053  -12.4073 C   0  0  1  0  0  0  0  0  0  0  0  0
   20.0365  -18.5986  -13.8606 C   0  0  0  0  0  0  0  0  0  0  0  0
   20.5159  -20.3841  -12.2629 C   0  0  2  0  0  0  0  0  0  0  0  0
   21.9011  -20.4175  -12.7590 N   0  0  0  0  0  0  0  0  0  0  0  0
   19.7353  -21.3369  -13.0728 C   0  0  0  0  0  0  0  0  0  0  0  0
   18.4918  -21.8230  -12.6294 O   0  0  0  0  0  0  0  0  0  0  0  0
   20.1803  -21.7253  -14.1754 O   0  0  0  0  0  0  0  0  0  0  0  0
  2  1  1  0
  2 12  2  0
  3  2  1  0
  4  3  2  0
  4  5  1  0
  5 11  2  0
  6  5  1  0
  7  9  1  0
  7  6  1  0
  7  8  1  6
  9 18  1  0
 10  9  2  0
 11 12  1  0
 14 13  1  0
 15 14  2  0
 16 14  1  0
 17 16  1  6
 18 17  1  0
 19 17  1  0
 20 19  2  0
 22 21  1  1
 22 23  1  0
 22 24  1  0
 24 26  1  0
 24 25  1  6
 25 19  1  0
 26 27  1  0
 28 26  2  0
M  END
$$$$
