YNV.pdb
     RDKit          3D

 28 28  0  0  1  0  0  0  0  0999 V2000
   24.1875  -20.0958  -11.3717 O   0  0  0  0  0  0  0  0  0  0  0  0
   25.1848  -20.4714  -12.2442 C   0  0  0  0  0  0  0  0  0  0  0  0
   25.3619  -21.7878  -12.5808 C   0  0  0  0  0  0  0  0  0  0  0  0
   26.3710  -22.1793  -13.4652 C   0  0  0  0  0  0  0  0  0  0  0  0
   27.1918  -21.2100  -13.9975 C   0  0  0  0  0  0  0  0  0  0  0  0
   28.2597  -21.6252  -14.9328 C   0  0  0  0  0  0  0  0  0  0  0  0
   27.5598  -22.2268  -16.1529 C   0  0  2  0  0  0  0  0  0  0  0  0
   28.4427  -23.2022  -16.7189 N   0  0  0  0  0  0  0  0  0  0  0  0
   27.3030  -21.1033  -17.0953 C   0  0  0  0  0  0  0  0  0  0  0  0
   28.2111  -20.6816  -17.8515 O   0  0  0  0  0  0  0  0  0  0  0  0
   27.0372  -19.8897  -13.6788 C   0  0  0  0  0  0  0  0  0  0  0  0
   26.0151  -19.5325  -12.7887 C   0  0  0  0  0  0  0  0  0  0  0  0
   24.3298  -17.8872  -20.0316 N   0  0  0  0  0  0  0  0  0  0  0  0
   24.0375  -19.2902  -19.9740 C   0  0  0  0  0  0  0  0  0  0  0  0
   23.2983  -19.7584  -20.8434 O   0  0  0  0  0  0  0  0  0  0  0  0
   24.6323  -20.0406  -18.9026 C   0  0  0  0  0  0  0  0  0  0  0  0
   25.6676  -19.3947  -18.0268 C   0  0  2  0  0  0  0  0  0  0  0  0
   26.0196  -20.5330  -17.1111 N   0  0  0  0  0  0  0  0  0  0  0  0
   25.1684  -18.3622  -17.1136 C   0  0  0  0  0  0  0  0  0  0  0  0
   24.3484  -18.6982  -16.1843 O   0  0  0  0  0  0  0  0  0  0  0  0
   26.8025  -16.2065  -14.5922 C   0  0  0  0  0  0  0  0  0  0  0  0
   25.9476  -15.2905  -15.4415 C   0  0  1  0  0  0  0  0  0  0  0  0
   26.8493  -14.6367  -16.4644 C   0  0  0  0  0  0  0  0  0  0  0  0
   24.8867  -16.0623  -16.1710 C   0  0  2  0  0  0  0  0  0  0  0  0
   25.4978  -16.9933  -17.1332 N   0  0  0  0  0  0  0  0  0  0  0  0
   24.0342  -15.1349  -16.9367 C   0  0  0  0  0  0  0  0  0  0  0  0
   23.0016  -14.4107  -16.3134 O   0  0  0  0  0  0  0  0  0  0  0  0
   24.2262  -14.9839  -18.1634 O   0  0  0  0  0  0  0  0  0  0  0  0
  2  1  1  0
  2 12  2  0
  3  2  1  0
  4  3  2  0
  4  5  1  0
  5 11  2  0
  6  5  1  0
  7  9  1  0
  7  6  1  0
  7  8  1  6
  9 18  1  0
 10  9  2  0
 11 12  1  0
 14 13  1  0
 15 14  2  0
 16 14  1  0
 17 16  1  6
 18 17  1  0
 19 17  1  0
 20 19  2  0
 22 21  1  1
 22 23  1  0
 22 24  1  0
 24 26  1  0
 24 25  1  6
 25 19  1  0
 26 27  1  0
 28 26  2  0
M  END
$$$$
