YNV.pdb
     RDKit          3D

 28 28  0  0  1  0  0  0  0  0999 V2000
   21.2773  -19.2183  -23.3470 O   0  0  0  0  0  0  0  0  0  0  0  0
   21.3347  -18.2787  -22.3418 C   0  0  0  0  0  0  0  0  0  0  0  0
   21.3588  -16.9403  -22.6345 C   0  0  0  0  0  0  0  0  0  0  0  0
   21.4171  -15.9788  -21.6216 C   0  0  0  0  0  0  0  0  0  0  0  0
   21.4502  -16.4039  -20.3121 C   0  0  0  0  0  0  0  0  0  0  0  0
   21.5124  -15.3859  -19.2409 C   0  0  0  0  0  0  0  0  0  0  0  0
   20.0738  -15.1576  -18.7734 C   0  0  2  0  0  0  0  0  0  0  0  0
   19.5392  -16.4289  -18.3872 N   0  0  0  0  0  0  0  0  0  0  0  0
   19.3361  -14.5775  -19.9291 C   0  0  0  0  0  0  0  0  0  0  0  0
   18.4715  -15.2510  -20.5400 O   0  0  0  0  0  0  0  0  0  0  0  0
   21.4273  -17.7328  -19.9920 C   0  0  0  0  0  0  0  0  0  0  0  0
   21.3687  -18.6697  -21.0328 C   0  0  0  0  0  0  0  0  0  0  0  0
   15.4220  -11.2615  -20.9172 N   0  0  0  0  0  0  0  0  0  0  0  0
   16.4385  -11.9668  -21.6428 C   0  0  0  0  0  0  0  0  0  0  0  0
   16.3361  -12.0176  -22.8710 O   0  0  0  0  0  0  0  0  0  0  0  0
   17.4991  -12.5603  -20.8764 C   0  0  0  0  0  0  0  0  0  0  0  0
   18.8981  -12.5679  -21.4228 C   0  0  2  0  0  0  0  0  0  0  0  0
   19.6365  -13.2601  -20.3122 N   0  0  0  0  0  0  0  0  0  0  0  0
   19.5521  -11.2584  -21.5051 C   0  0  0  0  0  0  0  0  0  0  0  0
   19.8968  -10.6666  -20.4189 O   0  0  0  0  0  0  0  0  0  0  0  0
   22.4235  -10.0489  -24.0558 C   0  0  0  0  0  0  0  0  0  0  0  0
   21.3392   -9.0092  -23.8710 C   0  0  1  0  0  0  0  0  0  0  0  0
   20.3904   -9.1201  -25.0433 C   0  0  0  0  0  0  0  0  0  0  0  0
   20.5631   -9.2546  -22.6097 C   0  0  2  0  0  0  0  0  0  0  0  0
   19.8627  -10.5472  -22.6800 N   0  0  0  0  0  0  0  0  0  0  0  0
   19.5387   -8.2076  -22.4439 C   0  0  0  0  0  0  0  0  0  0  0  0
   19.8571   -6.9591  -21.8791 O   0  0  0  0  0  0  0  0  0  0  0  0
   18.3625   -8.4258  -22.8094 O   0  0  0  0  0  0  0  0  0  0  0  0
  2  1  1  0
  2 12  2  0
  3  2  1  0
  4  3  2  0
  4  5  1  0
  5 11  2  0
  6  5  1  0
  7  9  1  0
  7  6  1  0
  7  8  1  6
  9 18  1  0
 10  9  2  0
 11 12  1  0
 14 13  1  0
 15 14  2  0
 16 14  1  0
 17 16  1  1
 18 17  1  0
 19 17  1  0
 20 19  2  0
 22 21  1  6
 22 23  1  0
 22 24  1  0
 24 26  1  0
 24 25  1  6
 25 19  1  0
 26 27  1  0
 28 26  2  0
M  END
$$$$
