YNV.pdb
     RDKit          3D

 28 28  0  0  1  0  0  0  0  0999 V2000
   30.3772  -18.0592  -18.3314 O   0  0  0  0  0  0  0  0  0  0  0  0
   29.5770  -18.0424  -17.2106 C   0  0  0  0  0  0  0  0  0  0  0  0
   28.4914  -17.2095  -17.1374 C   0  0  0  0  0  0  0  0  0  0  0  0
   27.6731  -17.1849  -16.0044 C   0  0  0  0  0  0  0  0  0  0  0  0
   27.9797  -18.0201  -14.9532 C   0  0  0  0  0  0  0  0  0  0  0  0
   27.1137  -17.9930  -13.7546 C   0  0  0  0  0  0  0  0  0  0  0  0
   26.3745  -19.3320  -13.7214 C   0  0  2  0  0  0  0  0  0  0  0  0
   25.6106  -19.4327  -14.9287 N   0  0  0  0  0  0  0  0  0  0  0  0
   25.5005  -19.3078  -12.5165 C   0  0  0  0  0  0  0  0  0  0  0  0
   24.3323  -18.8546  -12.5820 O   0  0  0  0  0  0  0  0  0  0  0  0
   29.0566  -18.8609  -14.9999 C   0  0  0  0  0  0  0  0  0  0  0  0
   29.8557  -18.8597  -16.1514 C   0  0  0  0  0  0  0  0  0  0  0  0
   22.7125  -20.2314   -8.7032 N   0  0  0  0  0  0  0  0  0  0  0  0
   22.9351  -21.1000   -9.8226 C   0  0  0  0  0  0  0  0  0  0  0  0
   22.0345  -21.8861  -10.1267 O   0  0  0  0  0  0  0  0  0  0  0  0
   24.1956  -20.9837  -10.5024 C   0  0  0  0  0  0  0  0  0  0  0  0
   25.1783  -19.9319  -10.0735 C   0  0  2  0  0  0  0  0  0  0  0  0
   26.0215  -19.8051  -11.3108 N   0  0  0  0  0  0  0  0  0  0  0  0
   26.1384  -20.3450   -9.0455 C   0  0  0  0  0  0  0  0  0  0  0  0
   26.8423  -21.4010   -9.2410 O   0  0  0  0  0  0  0  0  0  0  0  0
   28.5780  -19.9143   -4.7388 C   0  0  0  0  0  0  0  0  0  0  0  0
   27.7552  -19.2800   -5.8394 C   0  0  1  0  0  0  0  0  0  0  0  0
   28.6488  -18.3129   -6.5832 C   0  0  0  0  0  0  0  0  0  0  0  0
   27.2635  -20.3127   -6.8116 C   0  0  2  0  0  0  0  0  0  0  0  0
   26.3927  -19.6932   -7.8235 N   0  0  0  0  0  0  0  0  0  0  0  0
   26.4609  -21.3239   -6.1000 C   0  0  0  0  0  0  0  0  0  0  0  0
   27.0731  -22.3665   -5.3806 O   0  0  0  0  0  0  0  0  0  0  0  0
   25.2120  -21.2608   -6.1320 O   0  0  0  0  0  0  0  0  0  0  0  0
  2  1  1  0
  2 12  2  0
  3  2  1  0
  4  3  2  0
  4  5  1  0
  5 11  2  0
  6  5  1  0
  7  9  1  0
  7  6  1  0
  7  8  1  6
  9 18  1  0
 10  9  2  0
 11 12  1  0
 14 13  1  0
 15 14  2  0
 16 14  1  0
 17 16  1  6
 18 17  1  0
 19 17  1  0
 20 19  2  0
 22 21  1  1
 22 23  1  0
 22 24  1  0
 24 26  1  0
 24 25  1  6
 25 19  1  0
 26 27  1  0
 28 26  2  0
M  END
$$$$
