YNV.pdb
     RDKit          3D

 28 28  0  0  1  0  0  0  0  0999 V2000
   28.6702  -20.4751  -23.3455 O   0  0  0  0  0  0  0  0  0  0  0  0
   28.2064  -20.1082  -22.1017 C   0  0  0  0  0  0  0  0  0  0  0  0
   27.4586  -20.9752  -21.3491 C   0  0  0  0  0  0  0  0  0  0  0  0
   26.9831  -20.6124  -20.0857 C   0  0  0  0  0  0  0  0  0  0  0  0
   27.2821  -19.3566  -19.6060 C   0  0  0  0  0  0  0  0  0  0  0  0
   26.7782  -18.9732  -18.2694 C   0  0  0  0  0  0  0  0  0  0  0  0
   25.2552  -18.8892  -18.3861 C   0  0  2  0  0  0  0  0  0  0  0  0
   24.9483  -17.7718  -19.2278 N   0  0  0  0  0  0  0  0  0  0  0  0
   24.7307  -18.6999  -17.0057 C   0  0  0  0  0  0  0  0  0  0  0  0
   24.7305  -17.5648  -16.4710 O   0  0  0  0  0  0  0  0  0  0  0  0
   28.0261  -18.4720  -20.3359 C   0  0  0  0  0  0  0  0  0  0  0  0
   28.4867  -18.8688  -21.5987 C   0  0  0  0  0  0  0  0  0  0  0  0
   20.6436  -21.5604  -13.8710 N   0  0  0  0  0  0  0  0  0  0  0  0
   21.4727  -20.3921  -13.9381 C   0  0  0  0  0  0  0  0  0  0  0  0
   21.3975  -19.5812  -13.0116 O   0  0  0  0  0  0  0  0  0  0  0  0
   22.3283  -20.2601  -15.0849 C   0  0  0  0  0  0  0  0  0  0  0  0
   23.7266  -19.7390  -14.9144 C   0  0  2  0  0  0  0  0  0  0  0  0
   24.2392  -19.8253  -16.3243 N   0  0  0  0  0  0  0  0  0  0  0  0
   24.6384  -20.6082  -14.1645 C   0  0  0  0  0  0  0  0  0  0  0  0
   24.7822  -21.8282  -14.5386 O   0  0  0  0  0  0  0  0  0  0  0  0
   28.3130  -20.6078  -13.2303 C   0  0  0  0  0  0  0  0  0  0  0  0
   27.5203  -20.8230  -11.9590 C   0  0  1  0  0  0  0  0  0  0  0  0
   27.4467  -19.4986  -11.2326 C   0  0  0  0  0  0  0  0  0  0  0  0
   26.1212  -21.2739  -12.2630 C   0  0  2  0  0  0  0  0  0  0  0  0
   25.4080  -20.2485  -13.0416 N   0  0  0  0  0  0  0  0  0  0  0  0
   25.3766  -21.4686  -11.0057 C   0  0  0  0  0  0  0  0  0  0  0  0
   25.5878  -22.6035  -10.2017 O   0  0  0  0  0  0  0  0  0  0  0  0
   24.5399  -20.6136  -10.6405 O   0  0  0  0  0  0  0  0  0  0  0  0
  2  1  1  0
  2 12  2  0
  3  2  1  0
  4  3  2  0
  4  5  1  0
  5 11  2  0
  6  5  1  0
  7  9  1  0
  7  6  1  0
  7  8  1  6
  9 18  1  0
 10  9  2  0
 11 12  1  0
 14 13  1  0
 15 14  2  0
 16 14  1  0
 17 16  1  6
 18 17  1  0
 19 17  1  0
 20 19  2  0
 22 21  1  6
 22 23  1  0
 22 24  1  0
 24 26  1  0
 24 25  1  6
 25 19  1  0
 26 27  1  0
 28 26  2  0
M  END
$$$$
