YNV.pdb
     RDKit          3D

 28 28  0  0  1  0  0  0  0  0999 V2000
   31.7750  -26.9564  -18.1677 O   0  0  0  0  0  0  0  0  0  0  0  0
   30.4014  -26.9481  -18.0684 C   0  0  0  0  0  0  0  0  0  0  0  0
   29.7525  -27.8391  -17.2544 C   0  0  0  0  0  0  0  0  0  0  0  0
   28.3588  -27.8388  -17.1467 C   0  0  0  0  0  0  0  0  0  0  0  0
   27.6425  -26.9189  -17.8797 C   0  0  0  0  0  0  0  0  0  0  0  0
   26.1679  -26.9197  -17.7656 C   0  0  0  0  0  0  0  0  0  0  0  0
   25.7805  -25.5863  -17.1236 C   0  0  2  0  0  0  0  0  0  0  0  0
   26.1991  -25.6291  -15.7546 N   0  0  0  0  0  0  0  0  0  0  0  0
   24.3013  -25.4679  -17.2441 C   0  0  0  0  0  0  0  0  0  0  0  0
   23.7420  -25.5460  -18.3645 O   0  0  0  0  0  0  0  0  0  0  0  0
   28.2645  -26.0188  -18.6993 C   0  0  0  0  0  0  0  0  0  0  0  0
   29.6633  -26.0472  -18.7833 C   0  0  0  0  0  0  0  0  0  0  0  0
   21.9439  -27.9252  -13.5560 N   0  0  0  0  0  0  0  0  0  0  0  0
   21.3608  -27.1731  -14.6290 C   0  0  0  0  0  0  0  0  0  0  0  0
   20.5829  -27.7605  -15.3848 O   0  0  0  0  0  0  0  0  0  0  0  0
   21.7322  -25.7893  -14.7374 C   0  0  0  0  0  0  0  0  0  0  0  0
   22.0542  -25.2083  -16.0845 C   0  0  2  0  0  0  0  0  0  0  0  0
   23.5557  -25.2668  -16.0710 N   0  0  0  0  0  0  0  0  0  0  0  0
   21.7684  -23.7790  -16.2415 C   0  0  0  0  0  0  0  0  0  0  0  0
   22.4358  -22.9316  -15.5448 O   0  0  0  0  0  0  0  0  0  0  0  0
   19.6715  -22.0436  -19.4594 C   0  0  0  0  0  0  0  0  0  0  0  0
   20.7257  -21.3174  -18.6518 C   0  0  1  0  0  0  0  0  0  0  0  0
   20.4204  -19.8379  -18.7209 C   0  0  0  0  0  0  0  0  0  0  0  0
   20.6914  -21.7405  -17.2119 C   0  0  2  0  0  0  0  0  0  0  0  0
   20.8146  -23.2030  -17.1024 N   0  0  0  0  0  0  0  0  0  0  0  0
   19.3989  -21.3618  -16.6124 C   0  0  0  0  0  0  0  0  0  0  0  0
   19.2062  -20.0925  -16.0370 O   0  0  0  0  0  0  0  0  0  0  0  0
   18.4516  -22.1785  -16.6113 O   0  0  0  0  0  0  0  0  0  0  0  0
  2  1  1  0
  2 12  2  0
  3  2  1  0
  4  3  2  0
  4  5  1  0
  5 11  2  0
  6  5  1  0
  7  9  1  0
  7  6  1  0
  7  8  1  1
  9 18  1  0
 10  9  2  0
 11 12  1  0
 14 13  1  0
 15 14  2  0
 16 14  1  0
 17 16  1  1
 18 17  1  0
 19 17  1  0
 20 19  2  0
 22 21  1  6
 22 23  1  0
 22 24  1  0
 24 26  1  0
 24 25  1  6
 25 19  1  0
 26 27  1  0
 28 26  2  0
M  END
$$$$
