YNV.pdb
     RDKit          3D

 28 28  0  0  1  0  0  0  0  0999 V2000
   30.9096  -21.5524  -11.1955 O   0  0  0  0  0  0  0  0  0  0  0  0
   29.7423  -20.9814  -11.6518 C   0  0  0  0  0  0  0  0  0  0  0  0
   29.7708  -19.8452  -12.4171 C   0  0  0  0  0  0  0  0  0  0  0  0
   28.5918  -19.2580  -12.8851 C   0  0  0  0  0  0  0  0  0  0  0  0
   27.3898  -19.8467  -12.5606 C   0  0  0  0  0  0  0  0  0  0  0  0
   26.1427  -19.2245  -13.0557 C   0  0  0  0  0  0  0  0  0  0  0  0
   25.6760  -20.0696  -14.2423 C   0  0  2  0  0  0  0  0  0  0  0  0
   26.5821  -19.8299  -15.3252 N   0  0  0  0  0  0  0  0  0  0  0  0
   24.2948  -19.6207  -14.5696 C   0  0  0  0  0  0  0  0  0  0  0  0
   24.1028  -18.5805  -15.2445 O   0  0  0  0  0  0  0  0  0  0  0  0
   27.3327  -20.9804  -11.7988 C   0  0  0  0  0  0  0  0  0  0  0  0
   28.5343  -21.5425  -11.3463 C   0  0  0  0  0  0  0  0  0  0  0  0
   21.6132  -19.0888  -17.9792 N   0  0  0  0  0  0  0  0  0  0  0  0
   20.9686  -19.6140  -16.8105 C   0  0  0  0  0  0  0  0  0  0  0  0
   19.7721  -19.3598  -16.6521 O   0  0  0  0  0  0  0  0  0  0  0  0
   21.7731  -20.3977  -15.9142 C   0  0  0  0  0  0  0  0  0  0  0  0
   21.7949  -20.0651  -14.4497 C   0  0  2  0  0  0  0  0  0  0  0  0
   23.2194  -20.3934  -14.1018 N   0  0  0  0  0  0  0  0  0  0  0  0
   21.0167  -20.9587  -13.5865 C   0  0  0  0  0  0  0  0  0  0  0  0
   21.3425  -22.1991  -13.5215 O   0  0  0  0  0  0  0  0  0  0  0  0
   20.0918  -20.4605   -9.8553 C   0  0  0  0  0  0  0  0  0  0  0  0
   18.8791  -20.9693  -10.6047 C   0  0  1  0  0  0  0  0  0  0  0  0
   17.9873  -19.7834  -10.8966 C   0  0  0  0  0  0  0  0  0  0  0  0
   19.2734  -21.5971  -11.9100 C   0  0  2  0  0  0  0  0  0  0  0  0
   19.9142  -20.6031  -12.7861 N   0  0  0  0  0  0  0  0  0  0  0  0
   18.0722  -22.0897  -12.6083 C   0  0  0  0  0  0  0  0  0  0  0  0
   17.4950  -23.3299  -12.2797 O   0  0  0  0  0  0  0  0  0  0  0  0
   17.5510  -21.3981  -13.5109 O   0  0  0  0  0  0  0  0  0  0  0  0
  2  1  1  0
  2 12  2  0
  3  2  1  0
  4  3  2  0
  4  5  1  0
  5 11  2  0
  6  5  1  0
  7  9  1  0
  7  6  1  0
  7  8  1  6
  9 18  1  0
 10  9  2  0
 11 12  1  0
 14 13  1  0
 15 14  2  0
 16 14  1  0
 17 16  1  6
 18 17  1  0
 19 17  1  0
 20 19  2  0
 22 21  1  6
 22 23  1  0
 22 24  1  0
 24 26  1  0
 24 25  1  6
 25 19  1  0
 26 27  1  0
 28 26  2  0
M  END
$$$$
