LHC.pdb
     RDKit          3D

 25 25  0  0  1  0  0  0  0  0999 V2000
   27.2758  -12.6409  -15.4339 C   0  0  0  0  0  0  0  0  0  0  0  0
   27.2647  -11.7288  -16.6326 C   0  0  2  0  0  0  0  0  0  0  0  0
   28.4684  -10.7888  -16.5374 C   0  0  0  0  0  0  0  0  0  0  0  0
   26.0383  -10.8614  -16.6872 C   0  0  0  0  0  0  0  0  0  0  0  0
   24.7682  -11.6515  -16.8279 C   0  0  2  0  0  0  0  0  0  0  0  0
   24.7927  -12.4209  -18.0327 N   0  0  0  0  0  0  0  0  0  0  0  0
   23.6198  -10.7262  -16.7493 C   0  0  0  0  0  0  0  0  0  0  0  0
   23.3905  -10.0143  -17.7716 O   0  0  0  0  0  0  0  0  0  0  0  0
   22.7752  -10.5824  -15.6347 N   0  0  0  0  0  0  0  0  0  0  0  0
   21.6846   -9.6547  -15.6390 C   0  0  1  0  0  0  0  0  0  0  0  0
   20.4846  -10.1298  -14.8680 C   0  0  0  0  0  0  0  0  0  0  0  0
   19.3286   -9.2138  -14.9720 C   0  0  0  0  0  0  0  0  0  0  0  0
   19.2444   -7.9945  -15.6120 C   0  0  0  0  0  0  0  0  0  0  0  0
   17.9861   -7.4888  -15.4555 N   0  0  0  0  0  0  0  0  0  0  0  0
   17.2970   -8.3642  -14.7376 C   0  0  0  0  0  0  0  0  0  0  0  0
   18.1097   -9.4167  -14.4404 N   0  0  0  0  0  0  0  0  0  0  0  0
   22.1575   -8.3990  -14.9733 C   0  0  0  0  0  0  0  0  0  0  0  0
   22.6761   -8.4039  -13.8295 O   0  0  0  0  0  0  0  0  0  0  0  0
   22.0305   -7.1358  -15.6310 N   0  0  0  0  0  0  0  0  0  0  0  0
   22.6334   -5.9229  -15.1477 C   0  0  1  0  0  0  0  0  0  0  0  0
   23.2174   -5.2112  -16.3758 C   0  0  0  0  0  0  0  0  0  0  0  0
   24.6500   -6.1602  -16.9079 S   0  0  0  0  0  0  0  0  0  0  0  0
   21.6644   -5.0485  -14.4599 C   0  0  0  0  0  0  0  0  0  0  0  0
   20.4615   -5.0922  -14.8039 O   0  0  0  0  0  0  0  0  0  0  0  0
   21.9982   -4.1665  -13.4416 O   0  0  0  0  0  0  0  0  0  0  0  0
  2  1  1  1
  3  2  1  0
  4  2  1  0
  4  5  1  0
  5  6  1  6
  7  5  1  0
  7  8  2  0
  9  7  1  0
 10  9  1  0
 10 11  1  1
 12 16  1  0
 12 11  1  0
 13 12  2  0
 14 13  1  0
 14 15  1  0
 15 16  2  0
 17 10  1  0
 18 17  2  0
 19 17  1  0
 20 21  1  6
 20 19  1  0
 21 22  1  0
 23 20  1  0
 24 23  2  0
 25 23  1  0
M  END
$$$$
