LHC.pdb
     RDKit          3D

 25 25  0  0  1  0  0  0  0  0999 V2000
   18.4780  -14.2399  -20.6994 C   0  0  0  0  0  0  0  0  0  0  0  0
   18.5051  -14.6978  -19.2646 C   0  0  2  0  0  0  0  0  0  0  0  0
   17.0927  -14.5717  -18.6892 C   0  0  0  0  0  0  0  0  0  0  0  0
   19.4023  -13.8520  -18.4051 C   0  0  0  0  0  0  0  0  0  0  0  0
   20.8046  -13.7593  -18.9363 C   0  0  2  0  0  0  0  0  0  0  0  0
   21.5071  -14.9820  -18.6999 N   0  0  0  0  0  0  0  0  0  0  0  0
   21.4646  -12.5816  -18.3376 C   0  0  0  0  0  0  0  0  0  0  0  0
   21.8438  -12.6914  -17.1340 O   0  0  0  0  0  0  0  0  0  0  0  0
   21.6980  -11.3643  -19.0009 N   0  0  0  0  0  0  0  0  0  0  0  0
   22.3491  -10.2700  -18.3461 C   0  0  1  0  0  0  0  0  0  0  0  0
   23.3769   -9.5806  -19.1996 C   0  0  0  0  0  0  0  0  0  0  0  0
   24.0667   -8.4764  -18.4986 C   0  0  0  0  0  0  0  0  0  0  0  0
   25.0351   -8.5437  -17.5183 C   0  0  0  0  0  0  0  0  0  0  0  0
   25.3943   -7.2788  -17.1515 N   0  0  0  0  0  0  0  0  0  0  0  0
   24.6730   -6.4384  -17.8797 C   0  0  0  0  0  0  0  0  0  0  0  0
   23.8627   -7.1624  -18.7018 N   0  0  0  0  0  0  0  0  0  0  0  0
   21.3013   -9.2501  -18.0217 C   0  0  0  0  0  0  0  0  0  0  0  0
   20.4098   -8.9235  -18.8438 O   0  0  0  0  0  0  0  0  0  0  0  0
   21.2841   -8.6068  -16.7449 N   0  0  0  0  0  0  0  0  0  0  0  0
   20.3465   -7.5774  -16.3850 C   0  0  1  0  0  0  0  0  0  0  0  0
   19.3784   -8.2084  -15.3747 C   0  0  0  0  0  0  0  0  0  0  0  0
   20.3699   -8.8429  -14.0145 S   0  0  0  0  0  0  0  0  0  0  0  0
   21.0063   -6.3967  -15.7956 C   0  0  0  0  0  0  0  0  0  0  0  0
   22.2437   -6.4274  -15.6081 O   0  0  0  0  0  0  0  0  0  0  0  0
   20.3406   -5.2356  -15.4285 O   0  0  0  0  0  0  0  0  0  0  0  0
  2  1  1  6
  3  2  1  0
  4  2  1  0
  4  5  1  0
  5  6  1  1
  7  5  1  0
  7  8  2  0
  9  7  1  0
 10  9  1  0
 10 11  1  6
 12 16  1  0
 12 11  1  0
 13 12  2  0
 14 13  1  0
 14 15  1  0
 15 16  2  0
 17 10  1  0
 18 17  2  0
 19 17  1  0
 20 21  1  1
 20 19  1  0
 21 22  1  0
 23 20  1  0
 24 23  2  0
 25 23  1  0
M  END
$$$$
