LHC.pdb
     RDKit          3D

 25 25  0  0  1  0  0  0  0  0999 V2000
   19.1668  -16.5248  -15.5686 C   0  0  0  0  0  0  0  0  0  0  0  0
   20.6448  -16.5278  -15.8597 C   0  0  2  0  0  0  0  0  0  0  0  0
   21.3909  -16.8907  -14.5739 C   0  0  0  0  0  0  0  0  0  0  0  0
   21.1514  -15.1801  -16.2913 C   0  0  0  0  0  0  0  0  0  0  0  0
   20.4635  -14.6631  -17.5229 C   0  0  2  0  0  0  0  0  0  0  0  0
   20.8166  -15.4561  -18.6590 N   0  0  0  0  0  0  0  0  0  0  0  0
   20.7893  -13.2319  -17.6858 C   0  0  0  0  0  0  0  0  0  0  0  0
   21.9345  -12.9576  -18.1525 O   0  0  0  0  0  0  0  0  0  0  0  0
   19.9292  -12.1675  -17.3637 N   0  0  0  0  0  0  0  0  0  0  0  0
   20.2917  -10.8080  -17.6290 C   0  0  1  0  0  0  0  0  0  0  0  0
   19.2391  -10.0370  -18.3757 C   0  0  0  0  0  0  0  0  0  0  0  0
   19.0619  -10.4980  -19.7694 C   0  0  0  0  0  0  0  0  0  0  0  0
   17.9663  -11.1044  -20.3485 C   0  0  0  0  0  0  0  0  0  0  0  0
   18.2351  -11.3621  -21.6618 N   0  0  0  0  0  0  0  0  0  0  0  0
   19.4647  -10.9304  -21.9036 C   0  0  0  0  0  0  0  0  0  0  0  0
   19.9729  -10.4032  -20.7546 N   0  0  0  0  0  0  0  0  0  0  0  0
   20.4747  -10.1239  -16.3091 C   0  0  0  0  0  0  0  0  0  0  0  0
   19.6257  -10.2118  -15.3878 O   0  0  0  0  0  0  0  0  0  0  0  0
   21.6410   -9.3371  -16.0540 N   0  0  0  0  0  0  0  0  0  0  0  0
   21.9485   -8.7625  -14.7720 C   0  0  1  0  0  0  0  0  0  0  0  0
   23.4532   -8.9730  -14.5537 C   0  0  0  0  0  0  0  0  0  0  0  0
   23.7116  -10.7354  -14.3023 S   0  0  0  0  0  0  0  0  0  0  0  0
   21.6157   -7.3268  -14.7048 C   0  0  0  0  0  0  0  0  0  0  0  0
   21.5594   -6.6696  -15.7688 O   0  0  0  0  0  0  0  0  0  0  0  0
   21.3564   -6.6425  -13.5255 O   0  0  0  0  0  0  0  0  0  0  0  0
  2  1  1  1
  3  2  1  0
  4  2  1  0
  4  5  1  0
  5  6  1  6
  7  5  1  0
  7  8  2  0
  9  7  1  0
 10  9  1  0
 10 11  1  1
 12 16  1  0
 12 11  1  0
 13 12  2  0
 14 13  1  0
 14 15  1  0
 15 16  2  0
 17 10  1  0
 18 17  2  0
 19 17  1  0
 20 21  1  6
 20 19  1  0
 21 22  1  0
 23 20  1  0
 24 23  2  0
 25 23  1  0
M  END
$$$$
