LHC.pdb
     RDKit          3D

 25 25  0  0  1  0  0  0  0  0999 V2000
   25.7358  -12.1934  -16.5599 C   0  0  0  0  0  0  0  0  0  0  0  0
   24.4603  -12.8591  -16.1137 C   0  0  2  0  0  0  0  0  0  0  0  0
   24.3351  -14.2011  -16.8384 C   0  0  0  0  0  0  0  0  0  0  0  0
   23.2374  -12.0590  -16.4650 C   0  0  0  0  0  0  0  0  0  0  0  0
   23.2611  -10.6709  -15.8907 C   0  0  2  0  0  0  0  0  0  0  0  0
   23.4503  -10.7225  -14.4744 N   0  0  0  0  0  0  0  0  0  0  0  0
   22.0246   -9.9686  -16.2894 C   0  0  0  0  0  0  0  0  0  0  0  0
   21.7530   -9.9507  -17.5265 O   0  0  0  0  0  0  0  0  0  0  0  0
   21.1404   -9.3276  -15.4042 N   0  0  0  0  0  0  0  0  0  0  0  0
   19.9294   -8.7202  -15.8678 C   0  0  1  0  0  0  0  0  0  0  0  0
   18.7062   -9.1580  -15.1114 C   0  0  0  0  0  0  0  0  0  0  0  0
   18.1557  -10.4430  -15.5929 C   0  0  0  0  0  0  0  0  0  0  0  0
   18.6021  -11.2451  -16.6228 C   0  0  0  0  0  0  0  0  0  0  0  0
   17.7954  -12.3417  -16.7228 N   0  0  0  0  0  0  0  0  0  0  0  0
   16.8671  -12.2340  -15.7830 C   0  0  0  0  0  0  0  0  0  0  0  0
   17.0817  -11.0796  -15.0919 N   0  0  0  0  0  0  0  0  0  0  0  0
   20.0588   -7.2420  -15.6632 C   0  0  0  0  0  0  0  0  0  0  0  0
   20.6210   -6.7544  -14.6515 O   0  0  0  0  0  0  0  0  0  0  0  0
   19.5376   -6.3264  -16.6298 N   0  0  0  0  0  0  0  0  0  0  0  0
   19.5581   -4.8979  -16.4647 C   0  0  1  0  0  0  0  0  0  0  0  0
   19.9899   -4.3126  -17.8163 C   0  0  0  0  0  0  0  0  0  0  0  0
   21.7680   -4.5486  -17.9532 S   0  0  0  0  0  0  0  0  0  0  0  0
   18.2433   -4.3587  -16.0680 C   0  0  0  0  0  0  0  0  0  0  0  0
   17.2254   -5.0689  -16.2310 O   0  0  0  0  0  0  0  0  0  0  0  0
   18.0527   -3.0989  -15.5179 O   0  0  0  0  0  0  0  0  0  0  0  0
  2  1  1  6
  3  2  1  0
  4  2  1  0
  4  5  1  0
  5  6  1  1
  7  5  1  0
  7  8  2  0
  9  7  1  0
 10  9  1  0
 10 11  1  1
 12 16  1  0
 12 11  1  0
 13 12  2  0
 14 13  1  0
 14 15  1  0
 15 16  2  0
 17 10  1  0
 18 17  2  0
 19 17  1  0
 20 21  1  6
 20 19  1  0
 21 22  1  0
 23 20  1  0
 24 23  2  0
 25 23  1  0
M  END
$$$$
