LHC.pdb
     RDKit          3D

 25 25  0  0  1  0  0  0  0  0999 V2000
   27.3864  -12.4618  -15.2959 C   0  0  0  0  0  0  0  0  0  0  0  0
   27.1452  -11.8008  -16.6278 C   0  0  2  0  0  0  0  0  0  0  0  0
   28.3227  -10.8705  -16.9273 C   0  0  0  0  0  0  0  0  0  0  0  0
   25.9059  -10.9502  -16.6347 C   0  0  0  0  0  0  0  0  0  0  0  0
   24.6495  -11.7446  -16.4166 C   0  0  2  0  0  0  0  0  0  0  0  0
   24.5155  -12.7490  -17.4253 N   0  0  0  0  0  0  0  0  0  0  0  0
   23.5021  -10.8165  -16.3608 C   0  0  0  0  0  0  0  0  0  0  0  0
   23.0974  -10.3436  -17.4641 O   0  0  0  0  0  0  0  0  0  0  0  0
   22.8369  -10.4266  -15.1853 N   0  0  0  0  0  0  0  0  0  0  0  0
   21.6709   -9.5967  -15.2272 C   0  0  1  0  0  0  0  0  0  0  0  0
   20.5380  -10.1035  -14.3788 C   0  0  0  0  0  0  0  0  0  0  0  0
   19.7842  -11.2047  -15.0158 C   0  0  0  0  0  0  0  0  0  0  0  0
   19.9731  -11.7801  -16.2553 C   0  0  0  0  0  0  0  0  0  0  0  0
   19.0486  -12.7675  -16.4398 N   0  0  0  0  0  0  0  0  0  0  0  0
   18.2986  -12.8130  -15.3480 C   0  0  0  0  0  0  0  0  0  0  0  0
   18.7422  -11.8634  -14.4774 N   0  0  0  0  0  0  0  0  0  0  0  0
   22.0525   -8.2545  -14.6828 C   0  0  0  0  0  0  0  0  0  0  0  0
   23.0249   -8.1018  -13.9027 O   0  0  0  0  0  0  0  0  0  0  0  0
   21.3087   -7.0870  -15.0408 N   0  0  0  0  0  0  0  0  0  0  0  0
   21.6518   -5.7601  -14.6048 C   0  0  1  0  0  0  0  0  0  0  0  0
   22.9844   -5.4134  -15.2828 C   0  0  0  0  0  0  0  0  0  0  0  0
   23.4355   -3.7555  -14.7501 S   0  0  0  0  0  0  0  0  0  0  0  0
   20.6206   -4.7669  -14.9609 C   0  0  0  0  0  0  0  0  0  0  0  0
   19.8810   -4.9911  -15.9457 O   0  0  0  0  0  0  0  0  0  0  0  0
   20.4096   -3.5823  -14.2694 O   0  0  0  0  0  0  0  0  0  0  0  0
  2  1  1  1
  3  2  1  0
  4  2  1  0
  4  5  1  0
  5  6  1  6
  7  5  1  0
  7  8  2  0
  9  7  1  0
 10  9  1  0
 10 11  1  1
 12 16  1  0
 12 11  1  0
 13 12  2  0
 14 13  1  0
 14 15  1  0
 15 16  2  0
 17 10  1  0
 18 17  2  0
 19 17  1  0
 20 21  1  6
 20 19  1  0
 21 22  1  0
 23 20  1  0
 24 23  2  0
 25 23  1  0
M  END
$$$$
