LHC.pdb
     RDKit          3D

 25 25  0  0  1  0  0  0  0  0999 V2000
   28.7783  -17.6433  -17.9241 C   0  0  0  0  0  0  0  0  0  0  0  0
   28.7514  -18.3657  -16.6025 C   0  0  2  0  0  0  0  0  0  0  0  0
   28.5206  -19.8548  -16.8690 C   0  0  0  0  0  0  0  0  0  0  0  0
   27.6303  -17.9037  -15.7143 C   0  0  0  0  0  0  0  0  0  0  0  0
   26.2728  -18.2508  -16.2565 C   0  0  2  0  0  0  0  0  0  0  0  0
   25.7735  -17.1834  -17.0663 N   0  0  0  0  0  0  0  0  0  0  0  0
   25.3825  -18.5941  -15.1292 C   0  0  0  0  0  0  0  0  0  0  0  0
   24.9696  -17.6323  -14.4158 O   0  0  0  0  0  0  0  0  0  0  0  0
   24.9671  -19.8955  -14.7974 N   0  0  0  0  0  0  0  0  0  0  0  0
   24.1410  -20.1473  -13.6554 C   0  0  1  0  0  0  0  0  0  0  0  0
   23.1022  -21.2099  -13.8840 C   0  0  0  0  0  0  0  0  0  0  0  0
   22.0861  -21.2676  -12.8114 C   0  0  0  0  0  0  0  0  0  0  0  0
   21.9448  -20.4528  -11.7072 C   0  0  0  0  0  0  0  0  0  0  0  0
   20.8674  -20.8649  -10.9773 N   0  0  0  0  0  0  0  0  0  0  0  0
   20.3445  -21.9095  -11.6035 C   0  0  0  0  0  0  0  0  0  0  0  0
   21.0828  -22.1591  -12.7211 N   0  0  0  0  0  0  0  0  0  0  0  0
   25.0298  -20.6404  -12.5552 C   0  0  0  0  0  0  0  0  0  0  0  0
   25.8462  -21.5793  -12.7261 O   0  0  0  0  0  0  0  0  0  0  0  0
   24.9746  -20.0470  -11.2555 N   0  0  0  0  0  0  0  0  0  0  0  0
   25.7324  -20.5240  -10.1301 C   0  0  1  0  0  0  0  0  0  0  0  0
   26.5318  -19.3228   -9.6067 C   0  0  0  0  0  0  0  0  0  0  0  0
   27.4496  -19.8836   -8.1648 S   0  0  0  0  0  0  0  0  0  0  0  0
   24.8718  -21.0720   -9.0644 C   0  0  0  0  0  0  0  0  0  0  0  0
   23.6814  -20.6908   -8.9938 O   0  0  0  0  0  0  0  0  0  0  0  0
   25.2962  -21.9954   -8.1193 O   0  0  0  0  0  0  0  0  0  0  0  0
  2  1  1  6
  3  2  1  0
  4  2  1  0
  4  5  1  0
  5  6  1  1
  7  5  1  0
  7  8  2  0
  9  7  1  0
 10  9  1  0
 10 11  1  6
 12 16  1  0
 12 11  1  0
 13 12  2  0
 14 13  1  0
 14 15  1  0
 15 16  2  0
 17 10  1  0
 18 17  2  0
 19 17  1  0
 20 21  1  1
 20 19  1  0
 21 22  1  0
 23 20  1  0
 24 23  2  0
 25 23  1  0
M  END
$$$$
