MFD.pdb
     RDKit          3D

 28 28  0  0  1  0  0  0  0  0999 V2000
    8.9718  -13.8899    8.9853 C   0  0  0  0  0  0  0  0  0  0  0  0
   10.1202  -15.0528    8.2903 S   0  0  0  0  0  0  0  0  0  0  0  0
   11.1994  -14.3909    7.0603 C   0  0  0  0  0  0  0  0  0  0  0  0
   12.1979  -15.3690    6.5476 C   0  0  0  0  0  0  0  0  0  0  0  0
   13.2207  -14.7326    5.6693 C   0  0  2  0  0  0  0  0  0  0  0  0
   12.6167  -14.4066    4.3910 N   0  0  0  0  0  0  0  0  0  0  0  0
   14.4030  -15.6402    5.4639 C   0  0  0  0  0  0  0  0  0  0  0  0
   14.4525  -16.4845    4.5328 O   0  0  0  0  0  0  0  0  0  0  0  0
   15.5333  -15.5851    6.3238 N   0  0  0  0  0  0  0  0  0  0  0  0
   16.6948  -16.4465    6.1603 C   0  0  1  0  0  0  0  0  0  0  0  0
   17.9780  -15.7159    6.2982 C   0  0  0  0  0  0  0  0  0  0  0  0
   18.1908  -14.7594    5.1885 C   0  0  0  0  0  0  0  0  0  0  0  0
   18.3134  -13.4118    5.3543 C   0  0  0  0  0  0  0  0  0  0  0  0
   18.5166  -12.6173    4.2485 C   0  0  0  0  0  0  0  0  0  0  0  0
   18.5961  -13.1807    2.9762 C   0  0  0  0  0  0  0  0  0  0  0  0
   18.4719  -14.5438    2.8092 C   0  0  0  0  0  0  0  0  0  0  0  0
   18.2711  -15.3179    3.9127 C   0  0  0  0  0  0  0  0  0  0  0  0
   16.6175  -17.6268    7.0536 C   0  0  0  0  0  0  0  0  0  0  0  0
   16.2024  -17.5869    8.2344 O   0  0  0  0  0  0  0  0  0  0  0  0
   17.0274  -18.9325    6.6048 N   0  0  0  0  0  0  0  0  0  0  0  0
   16.9599  -20.1070    7.4951 C   0  0  1  0  0  0  0  0  0  0  0  0
   16.4615  -21.2418    6.6673 C   0  0  0  0  0  0  0  0  0  0  0  0
   16.3174  -22.5297    7.3402 C   0  0  0  0  0  0  0  0  0  0  0  0
   15.7750  -23.5631    6.9100 O   0  0  0  0  0  0  0  0  0  0  0  0
   18.3138  -20.3303    8.0315 C   0  0  0  0  0  0  0  0  0  0  0  0
   19.3092  -20.0429    7.3307 O   0  0  0  0  0  0  0  0  0  0  0  0
   16.8615  -22.6070    8.6375 O   0  0  0  0  0  0  0  0  0  0  0  0
   18.5417  -20.8477    9.2864 O   0  0  0  0  0  0  0  0  0  0  0  0
  2  1  1  0
  3  4  1  0
  3  2  1  0
  5  4  1  0
  5  6  1  6
  7  8  2  0
  7  5  1  0
  9  7  1  0
 10  9  1  0
 11 12  1  0
 10 11  1  1
 12 13  2  0
 13 14  1  0
 15 14  2  0
 16 15  1  0
 17 12  1  0
 17 16  2  0
 18 20  1  0
 18 10  1  0
 19 18  2  0
 21 20  1  0
 21 25  1  0
 21 22  1  6
 23 22  1  0
 24 23  2  0
 25 28  1  0
 26 25  2  0
 27 23  1  0
M  END
$$$$
