MFD.pdb
     RDKit          3D

 28 28  0  0  1  0  0  0  0  0999 V2000
   21.6975  -10.6270  -23.7561 C   0  0  0  0  0  0  0  0  0  0  0  0
   23.3991  -10.9746  -24.1271 S   0  0  0  0  0  0  0  0  0  0  0  0
   24.4286  -11.2474  -22.7195 C   0  0  0  0  0  0  0  0  0  0  0  0
   23.9354  -10.5904  -21.4779 C   0  0  0  0  0  0  0  0  0  0  0  0
   24.8762  -10.7553  -20.3331 C   0  0  2  0  0  0  0  0  0  0  0  0
   24.9916  -12.1647  -20.0085 N   0  0  0  0  0  0  0  0  0  0  0  0
   24.4078   -9.9858  -19.1280 C   0  0  0  0  0  0  0  0  0  0  0  0
   23.6302  -10.4799  -18.2716 O   0  0  0  0  0  0  0  0  0  0  0  0
   24.8276   -8.6474  -18.8985 N   0  0  0  0  0  0  0  0  0  0  0  0
   24.5252   -7.9222  -17.6738 C   0  0  1  0  0  0  0  0  0  0  0  0
   25.7421   -7.4882  -16.9456 C   0  0  0  0  0  0  0  0  0  0  0  0
   26.5458   -8.6400  -16.4778 C   0  0  0  0  0  0  0  0  0  0  0  0
   27.6447   -9.1190  -17.1273 C   0  0  0  0  0  0  0  0  0  0  0  0
   28.3208  -10.1937  -16.5953 C   0  0  0  0  0  0  0  0  0  0  0  0
   27.8898  -10.7855  -15.4094 C   0  0  0  0  0  0  0  0  0  0  0  0
   26.7783  -10.3007  -14.7530 C   0  0  0  0  0  0  0  0  0  0  0  0
   26.1188   -9.2363  -15.2912 C   0  0  0  0  0  0  0  0  0  0  0  0
   23.5904   -6.8009  -17.9310 C   0  0  0  0  0  0  0  0  0  0  0  0
   23.6983   -6.0038  -18.8907 O   0  0  0  0  0  0  0  0  0  0  0  0
   22.4656   -6.5516  -17.0666 N   0  0  0  0  0  0  0  0  0  0  0  0
   21.4826   -5.4944  -17.3708 C   0  0  1  0  0  0  0  0  0  0  0  0
   20.4536   -6.1103  -18.2558 C   0  0  0  0  0  0  0  0  0  0  0  0
   19.3206   -5.2678  -18.6279 C   0  0  0  0  0  0  0  0  0  0  0  0
   19.1177   -4.0783  -18.3257 O   0  0  0  0  0  0  0  0  0  0  0  0
   20.9360   -5.0201  -16.0875 C   0  0  0  0  0  0  0  0  0  0  0  0
   20.1520   -4.0455  -16.0743 O   0  0  0  0  0  0  0  0  0  0  0  0
   18.3375   -5.8822  -19.4286 O   0  0  0  0  0  0  0  0  0  0  0  0
   21.2500   -5.6059  -14.8822 O   0  0  0  0  0  0  0  0  0  0  0  0
  2  1  1  0
  3  4  1  0
  3  2  1  0
  5  4  1  0
  5  6  1  1
  7  8  2  0
  7  5  1  0
  9  7  1  0
 10  9  1  0
 11 12  1  0
 10 11  1  6
 12 13  2  0
 13 14  1  0
 15 14  2  0
 16 15  1  0
 17 12  1  0
 17 16  2  0
 18 20  1  0
 18 10  1  0
 19 18  2  0
 21 20  1  0
 21 25  1  0
 21 22  1  6
 23 22  1  0
 24 23  2  0
 25 28  1  0
 26 25  2  0
 27 23  1  0
M  END
$$$$
