MFD.pdb
     RDKit          3D

 28 28  0  0  1  0  0  0  0  0999 V2000
   26.5084  -23.8331  -20.4627 C   0  0  0  0  0  0  0  0  0  0  0  0
   27.8945  -22.7228  -20.4781 S   0  0  0  0  0  0  0  0  0  0  0  0
   28.9443  -22.8209  -19.0625 C   0  0  0  0  0  0  0  0  0  0  0  0
   28.2131  -23.0563  -17.7872 C   0  0  0  0  0  0  0  0  0  0  0  0
   27.2809  -21.9427  -17.4503 C   0  0  2  0  0  0  0  0  0  0  0  0
   27.9979  -20.6830  -17.5154 N   0  0  0  0  0  0  0  0  0  0  0  0
   26.6854  -22.1263  -16.0808 C   0  0  0  0  0  0  0  0  0  0  0  0
   26.1692  -23.2115  -15.7089 O   0  0  0  0  0  0  0  0  0  0  0  0
   26.6780  -21.0684  -15.1317 N   0  0  0  0  0  0  0  0  0  0  0  0
   25.9667  -21.1470  -13.8646 C   0  0  1  0  0  0  0  0  0  0  0  0
   26.5238  -20.2380  -12.8337 C   0  0  0  0  0  0  0  0  0  0  0  0
   25.8685  -20.4260  -11.5196 C   0  0  0  0  0  0  0  0  0  0  0  0
   24.6960  -19.8314  -11.1585 C   0  0  0  0  0  0  0  0  0  0  0  0
   24.1738  -20.0849   -9.9103 C   0  0  0  0  0  0  0  0  0  0  0  0
   24.8329  -20.9373   -9.0262 C   0  0  0  0  0  0  0  0  0  0  0  0
   26.0188  -21.5384   -9.3920 C   0  0  0  0  0  0  0  0  0  0  0  0
   26.5239  -21.2782  -10.6308 C   0  0  0  0  0  0  0  0  0  0  0  0
   24.5087  -20.9595  -14.0552 C   0  0  0  0  0  0  0  0  0  0  0  0
   23.9955  -19.9524  -14.5942 O   0  0  0  0  0  0  0  0  0  0  0  0
   23.5634  -21.9547  -13.6190 N   0  0  0  0  0  0  0  0  0  0  0  0
   22.1091  -21.7373  -13.7386 C   0  0  1  0  0  0  0  0  0  0  0  0
   21.5138  -23.0438  -14.1387 C   0  0  0  0  0  0  0  0  0  0  0  0
   20.0572  -23.1017  -14.2225 C   0  0  0  0  0  0  0  0  0  0  0  0
   19.2801  -22.2403  -14.6713 O   0  0  0  0  0  0  0  0  0  0  0  0
   21.6277  -21.2558  -12.4320 C   0  0  0  0  0  0  0  0  0  0  0  0
   22.3403  -21.4145  -11.4163 O   0  0  0  0  0  0  0  0  0  0  0  0
   19.4621  -24.2814  -13.7332 O   0  0  0  0  0  0  0  0  0  0  0  0
   20.4130  -20.6292  -12.2706 O   0  0  0  0  0  0  0  0  0  0  0  0
  2  1  1  0
  3  4  1  0
  3  2  1  0
  5  4  1  0
  5  6  1  1
  7  8  2  0
  7  5  1  0
  9  7  1  0
 10  9  1  0
 11 12  1  0
 10 11  1  1
 12 13  2  0
 13 14  1  0
 15 14  2  0
 16 15  1  0
 17 12  1  0
 17 16  2  0
 18 20  1  0
 18 10  1  0
 19 18  2  0
 21 20  1  0
 21 25  1  0
 21 22  1  1
 23 22  1  0
 24 23  2  0
 25 28  1  0
 26 25  2  0
 27 23  1  0
M  END
$$$$
