MFD.pdb
     RDKit          3D

 28 28  0  0  1  0  0  0  0  0999 V2000
   26.2332  -15.6963  -14.1362 C   0  0  0  0  0  0  0  0  0  0  0  0
   27.3591  -15.7494  -15.5087 S   0  0  0  0  0  0  0  0  0  0  0  0
   26.8586  -16.7895  -16.8440 C   0  0  0  0  0  0  0  0  0  0  0  0
   25.7505  -17.7214  -16.4972 C   0  0  0  0  0  0  0  0  0  0  0  0
   26.2217  -18.9041  -15.7213 C   0  0  2  0  0  0  0  0  0  0  0  0
   27.1840  -19.6444  -16.5158 N   0  0  0  0  0  0  0  0  0  0  0  0
   25.0731  -19.7976  -15.3390 C   0  0  0  0  0  0  0  0  0  0  0  0
   24.0240  -19.8808  -16.0281 O   0  0  0  0  0  0  0  0  0  0  0  0
   25.1207  -20.5992  -14.1663 N   0  0  0  0  0  0  0  0  0  0  0  0
   24.0440  -21.4975  -13.7776 C   0  0  1  0  0  0  0  0  0  0  0  0
   24.4052  -22.3688  -12.6330 C   0  0  0  0  0  0  0  0  0  0  0  0
   25.0768  -21.6112  -11.5530 C   0  0  0  0  0  0  0  0  0  0  0  0
   26.3957  -21.2659  -11.5679 C   0  0  0  0  0  0  0  0  0  0  0  0
   26.9127  -20.5529  -10.5100 C   0  0  0  0  0  0  0  0  0  0  0  0
   26.1012  -20.1879   -9.4373 C   0  0  0  0  0  0  0  0  0  0  0  0
   24.7674  -20.5374   -9.4227 C   0  0  0  0  0  0  0  0  0  0  0  0
   24.2692  -21.2433  -10.4767 C   0  0  0  0  0  0  0  0  0  0  0  0
   22.7825  -20.7544  -13.5461 C   0  0  0  0  0  0  0  0  0  0  0  0
   22.6844  -19.7542  -12.7990 O   0  0  0  0  0  0  0  0  0  0  0  0
   21.5539  -21.1488  -14.1861 N   0  0  0  0  0  0  0  0  0  0  0  0
   20.2860  -20.4449  -13.9147 C   0  0  1  0  0  0  0  0  0  0  0  0
   19.6119  -20.2575  -15.2307 C   0  0  0  0  0  0  0  0  0  0  0  0
   20.0561  -19.1254  -16.0388 C   0  0  0  0  0  0  0  0  0  0  0  0
   20.7386  -18.1490  -15.6812 O   0  0  0  0  0  0  0  0  0  0  0  0
   19.5117  -21.2792  -12.9792 C   0  0  0  0  0  0  0  0  0  0  0  0
   19.6768  -22.5191  -12.9781 O   0  0  0  0  0  0  0  0  0  0  0  0
   19.6602  -19.1454  -17.3909 O   0  0  0  0  0  0  0  0  0  0  0  0
   18.6007  -20.7535  -12.0914 O   0  0  0  0  0  0  0  0  0  0  0  0
  2  1  1  0
  3  4  1  0
  3  2  1  0
  5  4  1  0
  5  6  1  6
  7  8  2  0
  7  5  1  0
  9  7  1  0
 10  9  1  0
 11 12  1  0
 10 11  1  1
 12 13  2  0
 13 14  1  0
 15 14  2  0
 16 15  1  0
 17 12  1  0
 17 16  2  0
 18 20  1  0
 18 10  1  0
 19 18  2  0
 21 20  1  0
 21 25  1  0
 21 22  1  6
 23 22  1  0
 24 23  2  0
 25 28  1  0
 26 25  2  0
 27 23  1  0
M  END
$$$$
