MFD.pdb
     RDKit          3D

 28 28  0  0  1  0  0  0  0  0999 V2000
   28.3610  -17.0080  -17.5999 C   0  0  0  0  0  0  0  0  0  0  0  0
   29.0814  -18.2049  -18.6965 S   0  0  0  0  0  0  0  0  0  0  0  0
   27.9786  -19.4661  -19.2522 C   0  0  0  0  0  0  0  0  0  0  0  0
   27.1856  -20.0948  -18.1603 C   0  0  0  0  0  0  0  0  0  0  0  0
   28.0460  -20.7626  -17.1422 C   0  0  2  0  0  0  0  0  0  0  0  0
   28.6305  -21.9580  -17.7205 N   0  0  0  0  0  0  0  0  0  0  0  0
   27.2573  -21.1183  -15.9113 C   0  0  0  0  0  0  0  0  0  0  0  0
   26.6264  -22.2012  -15.8031 O   0  0  0  0  0  0  0  0  0  0  0  0
   27.1874  -20.2358  -14.7993 N   0  0  0  0  0  0  0  0  0  0  0  0
   26.3639  -20.5008  -13.6293 C   0  0  1  0  0  0  0  0  0  0  0  0
   26.8125  -19.7557  -12.4280 C   0  0  0  0  0  0  0  0  0  0  0  0
   26.0349  -20.1286  -11.2247 C   0  0  0  0  0  0  0  0  0  0  0  0
   24.8098  -19.6153  -10.9174 C   0  0  0  0  0  0  0  0  0  0  0  0
   24.1738  -20.0413   -9.7732 C   0  0  0  0  0  0  0  0  0  0  0  0
   24.7720  -20.9841   -8.9391 C   0  0  0  0  0  0  0  0  0  0  0  0
   26.0111  -21.5028   -9.2504 C   0  0  0  0  0  0  0  0  0  0  0  0
   26.6290  -21.0719  -10.3862 C   0  0  0  0  0  0  0  0  0  0  0  0
   24.9273  -20.2853  -13.9242 C   0  0  0  0  0  0  0  0  0  0  0  0
   24.4746  -19.2718  -14.5040 O   0  0  0  0  0  0  0  0  0  0  0  0
   23.9330  -21.2581  -13.5510 N   0  0  0  0  0  0  0  0  0  0  0  0
   22.5134  -21.0832  -13.9127 C   0  0  1  0  0  0  0  0  0  0  0  0
   22.0630  -22.3726  -14.5093 C   0  0  0  0  0  0  0  0  0  0  0  0
   20.6426  -22.4862  -14.8280 C   0  0  0  0  0  0  0  0  0  0  0  0
   19.9938  -23.5166  -15.0818 O   0  0  0  0  0  0  0  0  0  0  0  0
   21.7867  -20.7279  -12.6814 C   0  0  0  0  0  0  0  0  0  0  0  0
   20.9275  -19.8194  -12.7135 O   0  0  0  0  0  0  0  0  0  0  0  0
   19.9213  -21.2761  -14.8497 O   0  0  0  0  0  0  0  0  0  0  0  0
   22.0094  -21.3565  -11.4774 O   0  0  0  0  0  0  0  0  0  0  0  0
  2  1  1  0
  3  4  1  0
  3  2  1  0
  5  4  1  0
  5  6  1  6
  7  8  2  0
  7  5  1  0
  9  7  1  0
 10  9  1  0
 11 12  1  0
 10 11  1  1
 12 13  2  0
 13 14  1  0
 15 14  2  0
 16 15  1  0
 17 12  1  0
 17 16  2  0
 18 20  1  0
 18 10  1  0
 19 18  2  0
 21 20  1  0
 21 25  1  0
 21 22  1  1
 23 22  1  0
 24 23  2  0
 25 28  1  0
 26 25  2  0
 27 23  1  0
M  END
$$$$
