IDM.pdb
     RDKit          3D

 25 24  0  0  1  0  0  0  0  0999 V2000
    8.1205  -12.4879   18.5114 C   0  0  0  0  0  0  0  0  0  0  0  0
    7.0387  -13.0748   19.3876 C   0  0  0  0  0  0  0  0  0  0  0  0
    7.5614  -13.8728   20.5419 C   0  0  2  0  0  0  0  0  0  0  0  0
    8.5839  -13.0772   21.3277 C   0  0  0  0  0  0  0  0  0  0  0  0
    8.1349  -15.1984   20.1821 C   0  0  2  0  0  0  0  0  0  0  0  0
    7.2674  -15.9455   19.2971 N   0  0  0  0  0  0  0  0  0  0  0  0
    8.6145  -15.9940   21.3183 C   0  0  0  0  0  0  0  0  0  0  0  0
    7.7814  -16.5011   22.1118 O   0  0  0  0  0  0  0  0  0  0  0  0
   10.0062  -16.2315   21.5862 N   0  0  0  0  0  0  0  0  0  0  0  0
   10.4269  -16.9640   22.7620 C   0  0  1  0  0  0  0  0  0  0  0  0
   11.8237  -17.4863   22.5264 C   0  0  0  0  0  0  0  0  0  0  0  0
   12.3707  -18.2637   23.6394 C   0  0  0  0  0  0  0  0  0  0  0  0
   13.6140  -18.3787   23.7768 O   0  0  0  0  0  0  0  0  0  0  0  0
   10.4989  -15.9998   23.9103 C   0  0  0  0  0  0  0  0  0  0  0  0
   11.2063  -14.9653   23.8788 O   0  0  0  0  0  0  0  0  0  0  0  0
   11.5384  -18.8920   24.5691 O   0  0  0  0  0  0  0  0  0  0  0  0
    6.6185  -11.8098   25.7815 C   0  0  0  0  0  0  0  0  0  0  0  0
    7.1049  -12.4193   27.3866 S   0  0  0  0  0  0  0  0  0  0  0  0
    8.4194  -13.6141   27.4165 C   0  0  0  0  0  0  0  0  0  0  0  0
    8.5610  -14.4847   26.2095 C   0  0  0  0  0  0  0  0  0  0  0  0
    9.7426  -15.3856   26.2535 C   0  0  2  0  0  0  0  0  0  0  0  0
    9.7468  -16.2690   25.0579 N   0  0  0  0  0  0  0  0  0  0  0  0
    9.6070  -16.3172   27.3864 C   0  0  0  0  0  0  0  0  0  0  0  0
    9.9170  -15.9252   28.6685 O   0  0  0  0  0  0  0  0  0  0  0  0
    9.2111  -17.4779   27.2204 O   0  0  0  0  0  0  0  0  0  0  0  0
  1  2  1  0
  3  4  1  6
  3  2  1  0
  5  7  1  0
  5  3  1  0
  5  6  1  1
  7  8  2  0
  9 10  1  0
  9  7  1  0
 10 11  1  6
 12 16  1  0
 12 11  1  0
 13 12  2  0
 14 22  1  0
 14 10  1  0
 15 14  2  0
 18 17  1  0
 19 18  1  0
 21 20  1  6
 20 19  1  0
 21 22  1  0
 23 21  1  0
 23 24  1  0
 25 23  2  0
M  END
$$$$
