IDM.pdb
     RDKit          3D

 25 24  0  0  1  0  0  0  0  0999 V2000
    7.4688  -11.6495   19.3671 C   0  0  0  0  0  0  0  0  0  0  0  0
    7.6093  -13.1187   19.0438 C   0  0  0  0  0  0  0  0  0  0  0  0
    7.8719  -13.9792   20.2410 C   0  0  2  0  0  0  0  0  0  0  0  0
    9.0699  -13.4710   21.0173 C   0  0  0  0  0  0  0  0  0  0  0  0
    8.0493  -15.4277   19.9480 C   0  0  2  0  0  0  0  0  0  0  0  0
    6.9566  -15.9632   19.1647 N   0  0  0  0  0  0  0  0  0  0  0  0
    8.3792  -16.2585   21.1119 C   0  0  0  0  0  0  0  0  0  0  0  0
    7.4576  -16.6460   21.8744 O   0  0  0  0  0  0  0  0  0  0  0  0
    9.7184  -16.6621   21.4417 N   0  0  0  0  0  0  0  0  0  0  0  0
    9.9962  -17.4211   22.6428 C   0  0  1  0  0  0  0  0  0  0  0  0
   11.3616  -18.0507   22.5061 C   0  0  0  0  0  0  0  0  0  0  0  0
   11.7892  -18.8193   23.6760 C   0  0  0  0  0  0  0  0  0  0  0  0
   11.0190  -19.6698   24.1873 O   0  0  0  0  0  0  0  0  0  0  0  0
   10.0608  -16.4616   23.7955 C   0  0  0  0  0  0  0  0  0  0  0  0
   10.7135  -15.3924   23.7472 O   0  0  0  0  0  0  0  0  0  0  0  0
   13.0489  -18.6329   24.2508 O   0  0  0  0  0  0  0  0  0  0  0  0
    6.6657  -11.1310   25.8925 C   0  0  0  0  0  0  0  0  0  0  0  0
    6.6091  -12.8808   26.2378 S   0  0  0  0  0  0  0  0  0  0  0  0
    8.1366  -13.7725   26.0697 C   0  0  0  0  0  0  0  0  0  0  0  0
    8.0912  -15.2389   26.3570 C   0  0  0  0  0  0  0  0  0  0  0  0
    9.3986  -15.9255   26.1859 C   0  0  2  0  0  0  0  0  0  0  0  0
    9.3648  -16.7757   24.9668 N   0  0  0  0  0  0  0  0  0  0  0  0
    9.5963  -16.8848   27.2860 C   0  0  0  0  0  0  0  0  0  0  0  0
   10.0808  -16.4746   28.5068 O   0  0  0  0  0  0  0  0  0  0  0  0
    9.3335  -18.0861   27.1464 O   0  0  0  0  0  0  0  0  0  0  0  0
  1  2  1  0
  3  4  1  6
  3  2  1  0
  5  7  1  0
  5  3  1  0
  5  6  1  1
  7  8  2  0
  9 10  1  0
  9  7  1  0
 10 11  1  6
 12 16  1  0
 12 11  1  0
 13 12  2  0
 14 22  1  0
 14 10  1  0
 15 14  2  0
 18 17  1  0
 19 18  1  0
 21 20  1  1
 20 19  1  0
 21 22  1  0
 23 21  1  0
 23 24  1  0
 25 23  2  0
M  END
$$$$
