IDM.pdb
     RDKit          3D

 25 24  0  0  1  0  0  0  0  0999 V2000
    7.3957  -11.6379   19.5296 C   0  0  0  0  0  0  0  0  0  0  0  0
    7.7021  -13.0400   19.0576 C   0  0  0  0  0  0  0  0  0  0  0  0
    8.0283  -13.9936   20.1653 C   0  0  2  0  0  0  0  0  0  0  0  0
    9.1461  -13.4502   21.0322 C   0  0  0  0  0  0  0  0  0  0  0  0
    8.3679  -15.3749   19.7269 C   0  0  2  0  0  0  0  0  0  0  0  0
    7.3850  -15.9133   18.8115 N   0  0  0  0  0  0  0  0  0  0  0  0
    8.7069  -16.3027   20.8123 C   0  0  0  0  0  0  0  0  0  0  0  0
    7.7835  -16.8587   21.4596 O   0  0  0  0  0  0  0  0  0  0  0  0
   10.0569  -16.6189   21.1899 N   0  0  0  0  0  0  0  0  0  0  0  0
   10.3377  -17.4070   22.3715 C   0  0  1  0  0  0  0  0  0  0  0  0
   11.7153  -18.0083   22.2296 C   0  0  0  0  0  0  0  0  0  0  0  0
   11.8777  -18.8696   21.0574 C   0  0  0  0  0  0  0  0  0  0  0  0
   11.0660  -19.8045   20.8448 O   0  0  0  0  0  0  0  0  0  0  0  0
   10.3749  -16.4801   23.5516 C   0  0  0  0  0  0  0  0  0  0  0  0
   11.2378  -15.5790   23.6743 O   0  0  0  0  0  0  0  0  0  0  0  0
   12.9252  -18.6804   20.1525 O   0  0  0  0  0  0  0  0  0  0  0  0
    6.2764  -11.2373   26.6875 C   0  0  0  0  0  0  0  0  0  0  0  0
    6.3144  -12.9745   26.2816 S   0  0  0  0  0  0  0  0  0  0  0  0
    7.9204  -13.7190   26.1303 C   0  0  0  0  0  0  0  0  0  0  0  0
    7.9546  -15.1899   25.8655 C   0  0  0  0  0  0  0  0  0  0  0  0
    9.3275  -15.7469   25.7437 C   0  0  2  0  0  0  0  0  0  0  0  0
    9.4083  -16.6302   24.5507 N   0  0  0  0  0  0  0  0  0  0  0  0
    9.5925  -16.6502   26.8766 C   0  0  0  0  0  0  0  0  0  0  0  0
    9.9364  -16.1550   28.1136 O   0  0  0  0  0  0  0  0  0  0  0  0
    9.5142  -17.8788   26.7510 O   0  0  0  0  0  0  0  0  0  0  0  0
  1  2  1  0
  3  4  1  6
  3  2  1  0
  5  7  1  0
  5  3  1  0
  5  6  1  1
  7  8  2  0
  9 10  1  0
  9  7  1  0
 10 11  1  6
 12 16  1  0
 12 11  1  0
 13 12  2  0
 14 22  1  0
 14 10  1  0
 15 14  2  0
 18 17  1  0
 19 18  1  0
 21 20  1  1
 20 19  1  0
 21 22  1  0
 23 21  1  0
 23 24  1  0
 25 23  2  0
M  END
$$$$
