IDM.pdb
     RDKit          3D

 25 24  0  0  1  0  0  0  0  0999 V2000
    7.3766  -12.0695   18.5872 C   0  0  0  0  0  0  0  0  0  0  0  0
    7.6680  -13.5494   18.4996 C   0  0  0  0  0  0  0  0  0  0  0  0
    8.1255  -14.1536   19.7912 C   0  0  2  0  0  0  0  0  0  0  0  0
    9.3986  -13.4896   20.2754 C   0  0  0  0  0  0  0  0  0  0  0  0
    8.3160  -15.6295   19.7630 C   0  0  2  0  0  0  0  0  0  0  0  0
    7.1788  -16.3149   19.1876 N   0  0  0  0  0  0  0  0  0  0  0  0
    8.7580  -16.2206   21.0314 C   0  0  0  0  0  0  0  0  0  0  0  0
    7.9003  -16.5603   21.8857 O   0  0  0  0  0  0  0  0  0  0  0  0
   10.1390  -16.4370   21.3646 N   0  0  0  0  0  0  0  0  0  0  0  0
   10.5167  -17.0881   22.6013 C   0  0  1  0  0  0  0  0  0  0  0  0
   12.0085  -17.3195   22.5843 C   0  0  0  0  0  0  0  0  0  0  0  0
   12.4485  -18.3360   21.6276 C   0  0  0  0  0  0  0  0  0  0  0  0
   13.5525  -18.2134   21.0409 O   0  0  0  0  0  0  0  0  0  0  0  0
   10.2243  -16.1453   23.7322 C   0  0  0  0  0  0  0  0  0  0  0  0
   10.6141  -14.9538   23.7348 O   0  0  0  0  0  0  0  0  0  0  0  0
   11.6652  -19.4572   21.3424 O   0  0  0  0  0  0  0  0  0  0  0  0
    6.8218  -11.7761   27.8696 C   0  0  0  0  0  0  0  0  0  0  0  0
    7.5883  -12.8497   26.6679 S   0  0  0  0  0  0  0  0  0  0  0  0
    6.8307  -14.4383   26.4257 C   0  0  0  0  0  0  0  0  0  0  0  0
    7.5058  -15.3628   25.4642 C   0  0  0  0  0  0  0  0  0  0  0  0
    8.8947  -15.7238   25.8522 C   0  0  2  0  0  0  0  0  0  0  0  0
    9.4885  -16.6176   24.8234 N   0  0  0  0  0  0  0  0  0  0  0  0
    8.8642  -16.5510   27.0706 C   0  0  0  0  0  0  0  0  0  0  0  0
    9.0787  -15.9955   28.3111 O   0  0  0  0  0  0  0  0  0  0  0  0
    8.6452  -17.7678   27.0160 O   0  0  0  0  0  0  0  0  0  0  0  0
  1  2  1  0
  3  4  1  6
  3  2  1  0
  5  7  1  0
  5  3  1  0
  5  6  1  1
  7  8  2  0
  9 10  1  0
  9  7  1  0
 10 11  1  6
 12 16  1  0
 12 11  1  0
 13 12  2  0
 14 22  1  0
 14 10  1  0
 15 14  2  0
 18 17  1  0
 19 18  1  0
 21 20  1  6
 20 19  1  0
 21 22  1  0
 23 21  1  0
 23 24  1  0
 25 23  2  0
M  END
$$$$
