IDM.pdb
     RDKit          3D

 25 24  0  0  1  0  0  0  0  0999 V2000
    7.1482  -11.5630   19.9363 C   0  0  0  0  0  0  0  0  0  0  0  0
    7.5662  -12.9116   19.3987 C   0  0  0  0  0  0  0  0  0  0  0  0
    7.9798  -13.8843   20.4596 C   0  0  2  0  0  0  0  0  0  0  0  0
    9.1014  -13.3150   21.3046 C   0  0  0  0  0  0  0  0  0  0  0  0
    8.3696  -15.2314   19.9609 C   0  0  2  0  0  0  0  0  0  0  0  0
    7.3831  -15.7850   19.0585 N   0  0  0  0  0  0  0  0  0  0  0  0
    8.7887  -16.1786   21.0006 C   0  0  0  0  0  0  0  0  0  0  0  0
    7.9165  -16.8322   21.6276 O   0  0  0  0  0  0  0  0  0  0  0  0
   10.1624  -16.4075   21.3549 N   0  0  0  0  0  0  0  0  0  0  0  0
   10.5144  -17.2522   22.4768 C   0  0  1  0  0  0  0  0  0  0  0  0
   11.9624  -17.6560   22.3362 C   0  0  0  0  0  0  0  0  0  0  0  0
   12.2453  -18.4804   21.1604 C   0  0  0  0  0  0  0  0  0  0  0  0
   11.4362  -19.3743   20.8079 O   0  0  0  0  0  0  0  0  0  0  0  0
   10.3991  -16.4340   23.7300 C   0  0  0  0  0  0  0  0  0  0  0  0
   11.1355  -15.4460   23.9605 O   0  0  0  0  0  0  0  0  0  0  0  0
   13.4071  -18.3004   20.4056 O   0  0  0  0  0  0  0  0  0  0  0  0
    6.5019  -11.3662   25.8654 C   0  0  0  0  0  0  0  0  0  0  0  0
    6.4957  -13.1137   26.2263 S   0  0  0  0  0  0  0  0  0  0  0  0
    7.9714  -14.0139   25.8159 C   0  0  0  0  0  0  0  0  0  0  0  0
    7.9633  -15.4807   26.1044 C   0  0  0  0  0  0  0  0  0  0  0  0
    9.3001  -16.1219   25.9960 C   0  0  2  0  0  0  0  0  0  0  0  0
    9.4320  -16.7905   24.6748 N   0  0  0  0  0  0  0  0  0  0  0  0
    9.3948  -17.2256   26.9669 C   0  0  0  0  0  0  0  0  0  0  0  0
    9.6674  -16.9823   28.2935 O   0  0  0  0  0  0  0  0  0  0  0  0
    9.2324  -18.4024   26.6200 O   0  0  0  0  0  0  0  0  0  0  0  0
  1  2  1  0
  3  4  1  6
  3  2  1  0
  5  7  1  0
  5  3  1  0
  5  6  1  1
  7  8  2  0
  9 10  1  0
  9  7  1  0
 10 11  1  6
 12 16  1  0
 12 11  1  0
 13 12  2  0
 14 22  1  0
 14 10  1  0
 15 14  2  0
 18 17  1  0
 19 18  1  0
 21 20  1  6
 20 19  1  0
 21 22  1  0
 23 21  1  0
 23 24  1  0
 25 23  2  0
M  END
$$$$
