IDM.pdb
     RDKit          3D

 25 24  0  0  1  0  0  0  0  0999 V2000
    7.3444  -11.7619   19.1069 C   0  0  0  0  0  0  0  0  0  0  0  0
    7.5214  -13.2353   18.8235 C   0  0  0  0  0  0  0  0  0  0  0  0
    8.3691  -13.9478   19.8317 C   0  0  2  0  0  0  0  0  0  0  0  0
    9.7314  -13.2947   19.9480 C   0  0  0  0  0  0  0  0  0  0  0  0
    8.5379  -15.4073   19.5931 C   0  0  2  0  0  0  0  0  0  0  0  0
    7.2678  -16.0907   19.4748 N   0  0  0  0  0  0  0  0  0  0  0  0
    9.4662  -16.0806   20.5088 C   0  0  0  0  0  0  0  0  0  0  0  0
   10.6369  -15.6397   20.6349 O   0  0  0  0  0  0  0  0  0  0  0  0
    9.1128  -17.2380   21.2838 N   0  0  0  0  0  0  0  0  0  0  0  0
   10.0252  -17.7888   22.2638 C   0  0  1  0  0  0  0  0  0  0  0  0
   11.3263  -18.1201   21.5734 C   0  0  0  0  0  0  0  0  0  0  0  0
   12.1199  -19.1485   22.2478 C   0  0  0  0  0  0  0  0  0  0  0  0
   13.0979  -19.6755   21.6612 O   0  0  0  0  0  0  0  0  0  0  0  0
   10.3178  -16.7222   23.2788 C   0  0  0  0  0  0  0  0  0  0  0  0
   11.0693  -15.7485   23.0364 O   0  0  0  0  0  0  0  0  0  0  0  0
   11.8181  -19.5689   23.5455 O   0  0  0  0  0  0  0  0  0  0  0  0
    6.3816  -11.3606   26.7649 C   0  0  0  0  0  0  0  0  0  0  0  0
    6.6073  -12.8332   25.7827 S   0  0  0  0  0  0  0  0  0  0  0  0
    8.1043  -13.7493   26.0588 C   0  0  0  0  0  0  0  0  0  0  0  0
    8.3759  -14.8855   25.1260 C   0  0  0  0  0  0  0  0  0  0  0  0
    9.5922  -15.6679   25.4701 C   0  0  2  0  0  0  0  0  0  0  0  0
    9.7277  -16.8217   24.5425 N   0  0  0  0  0  0  0  0  0  0  0  0
    9.4164  -16.2910   26.7932 C   0  0  0  0  0  0  0  0  0  0  0  0
    9.7633  -15.6218   27.9445 O   0  0  0  0  0  0  0  0  0  0  0  0
    8.9526  -17.4325   26.9096 O   0  0  0  0  0  0  0  0  0  0  0  0
  1  2  1  0
  3  4  1  6
  3  2  1  0
  5  7  1  0
  5  3  1  0
  5  6  1  1
  7  8  2  0
  9 10  1  0
  9  7  1  0
 10 11  1  6
 12 16  1  0
 12 11  1  0
 13 12  2  0
 14 22  1  0
 14 10  1  0
 15 14  2  0
 18 17  1  0
 19 18  1  0
 21 20  1  6
 20 19  1  0
 21 22  1  0
 23 21  1  0
 23 24  1  0
 25 23  2  0
M  END
$$$$
