EYP.pdb
     RDKit          3D

 29 30  0  0  1  0  0  0  0  0999 V2000
   11.9193  -16.9997   20.3207 N   0  0  0  0  0  0  0  0  0  0  0  0
   10.7235  -17.4633   21.0494 C   0  0  1  0  0  0  0  0  0  0  0  0
   11.0740  -18.8572   21.5191 C   0  0  0  0  0  0  0  0  0  0  0  0
   12.2353  -19.4728   20.8240 C   0  0  0  0  0  0  0  0  0  0  0  0
   12.1981  -20.9519   20.8229 C   0  0  0  0  0  0  0  0  0  0  0  0
   12.7179  -21.6874   21.6996 O   0  0  0  0  0  0  0  0  0  0  0  0
   10.4880  -16.5399   22.1755 C   0  0  0  0  0  0  0  0  0  0  0  0
   11.4236  -16.0995   22.8894 O   0  0  0  0  0  0  0  0  0  0  0  0
   11.5465  -21.6570   19.7895 O   0  0  0  0  0  0  0  0  0  0  0  0
    6.6229  -11.2860   27.9314 O   0  0  0  0  0  0  0  0  0  0  0  0
    6.8629  -12.0837   26.8266 C   0  0  0  0  0  0  0  0  0  0  0  0
    7.4979  -11.6153   25.6999 C   0  0  0  0  0  0  0  0  0  0  0  0
    7.7296  -12.4209   24.6082 C   0  0  0  0  0  0  0  0  0  0  0  0
    7.3111  -13.7350   24.6498 C   0  0  0  0  0  0  0  0  0  0  0  0
    7.5286  -14.6586   23.5058 C   0  0  0  0  0  0  0  0  0  0  0  0
    8.8911  -15.3224   23.6469 C   0  0  2  0  0  0  0  0  0  0  0  0
    9.1683  -16.1147   22.4899 N   0  0  0  0  0  0  0  0  0  0  0  0
    9.0025  -15.9956   24.9522 C   0  0  0  0  0  0  0  0  0  0  0  0
    8.5959  -17.2386   24.8882 O   0  0  0  0  0  0  0  0  0  0  0  0
    6.6724  -14.2361   25.7623 C   0  0  0  0  0  0  0  0  0  0  0  0
    6.4573  -13.3856   26.8470 C   0  0  0  0  0  0  0  0  0  0  0  0
    9.4635  -15.4927   26.1733 N   0  0  0  0  0  0  0  0  0  0  0  0
    9.1925  -14.1390   26.6190 C   0  0  0  0  0  0  0  0  0  0  0  0
   10.3218  -13.8135   27.5578 C   0  0  0  0  0  0  0  0  0  0  0  0
   11.2368  -15.0149   27.5486 C   0  0  0  0  0  0  0  0  0  0  0  0
   10.2151  -16.1183   27.1964 C   0  0  1  0  0  0  0  0  0  0  0  0
    9.4218  -16.3126   28.4526 C   0  0  0  0  0  0  0  0  0  0  0  0
    9.9572  -16.6965   29.5276 O   0  0  0  0  0  0  0  0  0  0  0  0
    8.0568  -16.0725   28.4701 O   0  0  0  0  0  0  0  0  0  0  0  0
  2  1  1  1
  3  2  1  0
  4  3  1  0
  4  5  1  0
  5  9  1  0
  5  6  2  0
  7  2  1  0
  7  8  2  0
 10 11  1  0
 11 12  2  0
 12 13  1  0
 14 15  1  0
 14 13  2  0
 16 17  1  0
 16 15  1  6
 17  7  1  0
 18 16  1  0
 19 18  2  0
 20 14  1  0
 21 11  1  0
 21 20  2  0
 22 18  1  0
 22 26  1  0
 23 22  1  0
 24 23  1  0
 24 25  1  0
 25 26  1  0
 26 27  1  1
 27 29  1  0
 28 27  2  0
M  END
$$$$
