EYP.pdb
     RDKit          3D

 29 30  0  0  1  0  0  0  0  0999 V2000
    9.6768  -15.6800   19.8617 N   0  0  0  0  0  0  0  0  0  0  0  0
    9.9058  -16.6694   20.9314 C   0  0  1  0  0  0  0  0  0  0  0  0
   11.2639  -17.2602   20.6265 C   0  0  0  0  0  0  0  0  0  0  0  0
   11.6917  -18.3427   21.5515 C   0  0  0  0  0  0  0  0  0  0  0  0
   12.2600  -19.5168   20.8531 C   0  0  0  0  0  0  0  0  0  0  0  0
   13.2926  -20.1383   21.2096 O   0  0  0  0  0  0  0  0  0  0  0  0
    9.8861  -15.9583   22.2237 C   0  0  0  0  0  0  0  0  0  0  0  0
   10.7426  -15.0897   22.5251 O   0  0  0  0  0  0  0  0  0  0  0  0
   11.6476  -20.0322   19.6917 O   0  0  0  0  0  0  0  0  0  0  0  0
    5.7571  -10.5041   26.5615 O   0  0  0  0  0  0  0  0  0  0  0  0
    6.2074  -11.7537   26.1740 C   0  0  0  0  0  0  0  0  0  0  0  0
    7.3475  -11.9297   25.4248 C   0  0  0  0  0  0  0  0  0  0  0  0
    7.7831  -13.1793   25.0467 C   0  0  0  0  0  0  0  0  0  0  0  0
    7.0521  -14.2841   25.4324 C   0  0  0  0  0  0  0  0  0  0  0  0
    7.4654  -15.6617   25.0574 C   0  0  0  0  0  0  0  0  0  0  0  0
    8.8697  -15.6238   24.4715 C   0  0  2  0  0  0  0  0  0  0  0  0
    8.8761  -16.2428   23.1831 N   0  0  0  0  0  0  0  0  0  0  0  0
    9.8494  -16.1242   25.4510 C   0  0  0  0  0  0  0  0  0  0  0  0
   10.6410  -17.0234   24.9225 O   0  0  0  0  0  0  0  0  0  0  0  0
    5.9059  -14.1435   26.1828 C   0  0  0  0  0  0  0  0  0  0  0  0
    5.4995  -12.8589   26.5447 C   0  0  0  0  0  0  0  0  0  0  0  0
   10.0208  -15.7718   26.7937 N   0  0  0  0  0  0  0  0  0  0  0  0
    9.0778  -14.9377   27.5144 C   0  0  0  0  0  0  0  0  0  0  0  0
    9.8914  -14.2981   28.6060 C   0  0  0  0  0  0  0  0  0  0  0  0
   11.3117  -14.7699   28.4044 C   0  0  0  0  0  0  0  0  0  0  0  0
   11.0411  -16.1226   27.7097 C   0  0  1  0  0  0  0  0  0  0  0  0
   10.5448  -17.0165   28.8050 C   0  0  0  0  0  0  0  0  0  0  0  0
    9.3247  -17.3104   28.9254 O   0  0  0  0  0  0  0  0  0  0  0  0
   11.4249  -17.5541   29.7310 O   0  0  0  0  0  0  0  0  0  0  0  0
  2  1  1  6
  3  2  1  0
  4  3  1  0
  4  5  1  0
  5  9  1  0
  5  6  2  0
  7  2  1  0
  7  8  2  0
 10 11  1  0
 11 12  2  0
 12 13  1  0
 14 15  1  0
 14 13  2  0
 16 17  1  0
 16 15  1  1
 17  7  1  0
 18 16  1  0
 19 18  2  0
 20 14  1  0
 21 11  1  0
 21 20  2  0
 22 18  1  0
 22 26  1  0
 23 22  1  0
 24 23  1  0
 24 25  1  0
 25 26  1  0
 26 27  1  1
 27 29  1  0
 28 27  2  0
M  END
$$$$
