EYP.pdb
     RDKit          3D

 29 30  0  0  1  0  0  0  0  0999 V2000
    4.5496  -20.6190   22.5113 N   0  0  0  0  0  0  0  0  0  0  0  0
    5.6379  -20.3764   23.4769 C   0  0  1  0  0  0  0  0  0  0  0  0
    6.8149  -21.1567   22.9362 C   0  0  0  0  0  0  0  0  0  0  0  0
    7.2683  -20.7382   21.5835 C   0  0  0  0  0  0  0  0  0  0  0  0
    8.3096  -21.6236   21.0169 C   0  0  0  0  0  0  0  0  0  0  0  0
    8.8156  -22.6116   21.6064 O   0  0  0  0  0  0  0  0  0  0  0  0
    5.9020  -18.9255   23.5129 C   0  0  0  0  0  0  0  0  0  0  0  0
    5.6684  -18.1761   22.5316 O   0  0  0  0  0  0  0  0  0  0  0  0
    8.8199  -21.4007   19.7210 O   0  0  0  0  0  0  0  0  0  0  0  0
    6.9453  -10.9049   26.5051 O   0  0  0  0  0  0  0  0  0  0  0  0
    6.9579  -12.2858   26.4185 C   0  0  0  0  0  0  0  0  0  0  0  0
    5.8167  -13.0448   26.5349 C   0  0  0  0  0  0  0  0  0  0  0  0
    5.8450  -14.4181   26.4466 C   0  0  0  0  0  0  0  0  0  0  0  0
    7.0549  -15.0468   26.2352 C   0  0  0  0  0  0  0  0  0  0  0  0
    7.1566  -16.5260   26.1310 C   0  0  0  0  0  0  0  0  0  0  0  0
    6.8437  -16.9526   24.7038 C   0  0  2  0  0  0  0  0  0  0  0  0
    6.4393  -18.3234   24.6834 N   0  0  0  0  0  0  0  0  0  0  0  0
    7.9441  -16.5737   23.8008 C   0  0  0  0  0  0  0  0  0  0  0  0
    8.8232  -17.5370   23.6840 O   0  0  0  0  0  0  0  0  0  0  0  0
    8.2164  -14.3169   26.1141 C   0  0  0  0  0  0  0  0  0  0  0  0
    8.1433  -12.9270   26.2099 C   0  0  0  0  0  0  0  0  0  0  0  0
    8.1447  -15.3808   23.0986 N   0  0  0  0  0  0  0  0  0  0  0  0
    7.4944  -14.1358   23.4612 C   0  0  0  0  0  0  0  0  0  0  0  0
    7.4437  -13.3456   22.1823 C   0  0  0  0  0  0  0  0  0  0  0  0
    8.0314  -14.2359   21.1134 C   0  0  0  0  0  0  0  0  0  0  0  0
    8.9691  -15.1026   21.9823 C   0  0  1  0  0  0  0  0  0  0  0  0
   10.1109  -14.1951   22.3256 C   0  0  0  0  0  0  0  0  0  0  0  0
   10.2332  -13.6797   23.4698 O   0  0  0  0  0  0  0  0  0  0  0  0
   11.0798  -13.8914   21.3823 O   0  0  0  0  0  0  0  0  0  0  0  0
  2  1  1  6
  3  2  1  0
  4  3  1  0
  4  5  1  0
  5  9  1  0
  5  6  2  0
  7  2  1  0
  7  8  2  0
 10 11  1  0
 11 12  2  0
 12 13  1  0
 14 15  1  0
 14 13  2  0
 16 17  1  0
 16 15  1  1
 17  7  1  0
 18 16  1  0
 19 18  2  0
 20 14  1  0
 21 11  1  0
 21 20  2  0
 22 18  1  0
 22 26  1  0
 23 22  1  0
 24 23  1  0
 24 25  1  0
 25 26  1  0
 26 27  1  1
 27 29  1  0
 28 27  2  0
M  END
$$$$
