EYP.pdb
     RDKit          3D

 29 30  0  0  1  0  0  0  0  0999 V2000
    8.0790  -12.9758   17.9573 N   0  0  0  0  0  0  0  0  0  0  0  0
    7.6837  -14.2504   18.5855 C   0  0  1  0  0  0  0  0  0  0  0  0
    8.4409  -15.3104   17.8177 C   0  0  0  0  0  0  0  0  0  0  0  0
    8.2624  -16.6946   18.3302 C   0  0  0  0  0  0  0  0  0  0  0  0
    8.9998  -17.7081   17.5438 C   0  0  0  0  0  0  0  0  0  0  0  0
   10.0782  -18.2495   17.8951 O   0  0  0  0  0  0  0  0  0  0  0  0
    8.0804  -14.2025   20.0055 C   0  0  0  0  0  0  0  0  0  0  0  0
    9.2341  -13.8626   20.3691 O   0  0  0  0  0  0  0  0  0  0  0  0
    8.5130  -18.1471   16.2948 O   0  0  0  0  0  0  0  0  0  0  0  0
    7.9279  -13.0369   28.5358 O   0  0  0  0  0  0  0  0  0  0  0  0
    7.5271  -13.2510   27.2289 C   0  0  0  0  0  0  0  0  0  0  0  0
    6.8527  -14.3844   26.8381 C   0  0  0  0  0  0  0  0  0  0  0  0
    6.4604  -14.5835   25.5340 C   0  0  0  0  0  0  0  0  0  0  0  0
    6.7541  -13.6158   24.5953 C   0  0  0  0  0  0  0  0  0  0  0  0
    6.3606  -13.7678   23.1701 C   0  0  0  0  0  0  0  0  0  0  0  0
    7.4836  -14.4579   22.4088 C   0  0  2  0  0  0  0  0  0  0  0  0
    7.1481  -14.5469   21.0222 N   0  0  0  0  0  0  0  0  0  0  0  0
    7.8642  -15.7128   23.0796 C   0  0  0  0  0  0  0  0  0  0  0  0
    6.9889  -16.6610   22.8577 O   0  0  0  0  0  0  0  0  0  0  0  0
    7.4279  -12.4691   24.9527 C   0  0  0  0  0  0  0  0  0  0  0  0
    7.8074  -12.3070   26.2854 C   0  0  0  0  0  0  0  0  0  0  0  0
    8.9812  -15.9905   23.8744 N   0  0  0  0  0  0  0  0  0  0  0  0
    9.8458  -14.9538   24.4056 C   0  0  0  0  0  0  0  0  0  0  0  0
   11.1741  -15.6307   24.6055 C   0  0  0  0  0  0  0  0  0  0  0  0
   11.0058  -17.0453   24.1043 C   0  0  0  0  0  0  0  0  0  0  0  0
    9.4900  -17.2266   24.3393 C   0  0  1  0  0  0  0  0  0  0  0  0
    9.3542  -17.3801   25.8235 C   0  0  0  0  0  0  0  0  0  0  0  0
    9.2473  -16.3852   26.5905 O   0  0  0  0  0  0  0  0  0  0  0  0
    9.3417  -18.6382   26.4052 O   0  0  0  0  0  0  0  0  0  0  0  0
  2  1  1  6
  3  2  1  0
  4  3  1  0
  4  5  1  0
  5  9  1  0
  5  6  2  0
  7  2  1  0
  7  8  2  0
 10 11  1  0
 11 12  2  0
 12 13  1  0
 14 15  1  0
 14 13  2  0
 16 17  1  0
 16 15  1  1
 17  7  1  0
 18 16  1  0
 19 18  2  0
 20 14  1  0
 21 11  1  0
 21 20  2  0
 22 18  1  0
 22 26  1  0
 23 22  1  0
 24 23  1  0
 24 25  1  0
 25 26  1  0
 26 27  1  1
 27 29  1  0
 28 27  2  0
M  END
$$$$
