EYP.pdb
     RDKit          3D

 29 30  0  0  1  0  0  0  0  0999 V2000
    4.6506  -20.2945   22.1145 N   0  0  0  0  0  0  0  0  0  0  0  0
    5.4608  -20.1243   23.3352 C   0  0  1  0  0  0  0  0  0  0  0  0
    6.6273  -21.0703   23.1593 C   0  0  0  0  0  0  0  0  0  0  0  0
    7.2396  -21.0555   21.8045 C   0  0  0  0  0  0  0  0  0  0  0  0
    8.7176  -21.1208   21.8310 C   0  0  0  0  0  0  0  0  0  0  0  0
    9.4854  -20.3439   21.2094 O   0  0  0  0  0  0  0  0  0  0  0  0
    5.8930  -18.7155   23.4043 C   0  0  0  0  0  0  0  0  0  0  0  0
    5.9299  -17.9743   22.3903 O   0  0  0  0  0  0  0  0  0  0  0  0
    9.3833  -22.1050   22.5912 O   0  0  0  0  0  0  0  0  0  0  0  0
    7.1250  -10.7762   26.5731 O   0  0  0  0  0  0  0  0  0  0  0  0
    7.1064  -12.1564   26.4763 C   0  0  0  0  0  0  0  0  0  0  0  0
    8.2450  -12.8985   26.2642 C   0  0  0  0  0  0  0  0  0  0  0  0
    8.2108  -14.2712   26.1700 C   0  0  0  0  0  0  0  0  0  0  0  0
    6.9976  -14.9169   26.2926 C   0  0  0  0  0  0  0  0  0  0  0  0
    6.8895  -16.3964   26.2000 C   0  0  0  0  0  0  0  0  0  0  0  0
    6.7603  -16.8010   24.7383 C   0  0  2  0  0  0  0  0  0  0  0  0
    6.2876  -18.1468   24.6461 N   0  0  0  0  0  0  0  0  0  0  0  0
    7.9975  -16.4824   24.0052 C   0  0  0  0  0  0  0  0  0  0  0  0
    8.8943  -17.4265   24.1427 O   0  0  0  0  0  0  0  0  0  0  0  0
    5.8386  -14.2042   26.5055 C   0  0  0  0  0  0  0  0  0  0  0  0
    5.9177  -12.8142   26.5945 C   0  0  0  0  0  0  0  0  0  0  0  0
    8.3046  -15.3603   23.2286 N   0  0  0  0  0  0  0  0  0  0  0  0
    7.7005  -14.0604   23.4515 C   0  0  0  0  0  0  0  0  0  0  0  0
    7.7713  -13.3730   22.1155 C   0  0  0  0  0  0  0  0  0  0  0  0
    8.3756  -14.3729   21.1587 C   0  0  0  0  0  0  0  0  0  0  0  0
    9.2102  -15.2121   22.1511 C   0  0  1  0  0  0  0  0  0  0  0  0
   10.3753  -14.3365   22.4986 C   0  0  0  0  0  0  0  0  0  0  0  0
   10.4541  -13.7383   23.6057 O   0  0  0  0  0  0  0  0  0  0  0  0
   11.4156  -14.1559   21.6006 O   0  0  0  0  0  0  0  0  0  0  0  0
  2  1  1  6
  3  2  1  0
  4  3  1  0
  4  5  1  0
  5  9  1  0
  5  6  2  0
  7  2  1  0
  7  8  2  0
 10 11  1  0
 11 12  2  0
 12 13  1  0
 14 15  1  0
 14 13  2  0
 16 17  1  0
 16 15  1  1
 17  7  1  0
 18 16  1  0
 19 18  2  0
 20 14  1  0
 21 11  1  0
 21 20  2  0
 22 18  1  0
 22 26  1  0
 23 22  1  0
 24 23  1  0
 24 25  1  0
 25 26  1  0
 26 27  1  1
 27 29  1  0
 28 27  2  0
M  END
$$$$
