IVP.pdb
     RDKit          3D

 23 23  0  0  1  0  0  0  0  0999 V2000
    6.6973  -10.8511   26.5635 C   0  0  0  0  0  0  0  0  0  0  0  0
    7.4356  -12.1514   26.6797 C   0  0  0  0  0  0  0  0  0  0  0  0
    6.6161  -13.2815   26.1555 C   0  0  2  0  0  0  0  0  0  0  0  0
    5.2999  -13.3676   26.8912 C   0  0  0  0  0  0  0  0  0  0  0  0
    7.3096  -14.5920   26.0440 C   0  0  2  0  0  0  0  0  0  0  0  0
    8.0060  -14.8322   27.3219 N   0  0  0  0  0  0  0  0  0  0  0  0
    8.3117  -14.7126   24.9876 C   0  0  0  0  0  0  0  0  0  0  0  0
    9.4441  -14.1013   25.0427 O   0  0  0  0  0  0  0  0  0  0  0  0
   10.8454  -16.8444   21.5324 C   0  0  0  0  0  0  0  0  0  0  0  0
    9.9264  -16.7568   22.7276 C   0  0  1  0  0  0  0  0  0  0  0  0
   10.7891  -16.8389   23.9817 C   0  0  0  0  0  0  0  0  0  0  0  0
    9.0522  -15.5422   22.7064 C   0  0  2  0  0  0  0  0  0  0  0  0
    8.1210  -15.5023   23.8232 N   0  0  0  0  0  0  0  0  0  0  0  0
    8.3069  -15.4474   21.4116 C   0  0  0  0  0  0  0  0  0  0  0  0
    7.4832  -16.3712   21.1347 O   0  0  0  0  0  0  0  0  0  0  0  0
    8.4774  -14.3916   20.5004 N   0  0  0  0  0  0  0  0  0  0  0  0
    9.3146  -13.2138   20.6058 C   0  0  0  0  0  0  0  0  0  0  0  0
    8.5608  -12.1665   19.7611 C   0  0  0  0  0  0  0  0  0  0  0  0
    8.2148  -13.0332   18.5574 C   0  0  0  0  0  0  0  0  0  0  0  0
    7.7836  -14.3216   19.2086 C   0  0  1  0  0  0  0  0  0  0  0  0
    8.1066  -15.4999   18.3940 C   0  0  0  0  0  0  0  0  0  0  0  0
    9.1062  -16.2059   18.6610 O   0  0  0  0  0  0  0  0  0  0  0  0
    7.2972  -15.8302   17.3231 O   0  0  0  0  0  0  0  0  0  0  0  0
  2  1  1  0
  3  2  1  0
  3  4  1  1
  5  3  1  0
  5  7  1  0
  5  6  1  1
  7  8  2  0
 10 12  1  0
 10  9  1  6
 11 10  1  0
 12 14  1  0
 13  7  1  0
 12 13  1  1
 14 15  2  0
 16 14  1  0
 16 17  1  0
 17 18  1  0
 19 18  1  0
 20 19  1  0
 20 16  1  0
 20 21  1  6
 22 21  2  0
 23 21  1  0
M  END
$$$$
