IVP.pdb
     RDKit          3D

 23 23  0  0  1  0  0  0  0  0999 V2000
   11.3326  -16.5709   30.7068 C   0  0  0  0  0  0  0  0  0  0  0  0
    9.8930  -16.8332   30.3781 C   0  0  0  0  0  0  0  0  0  0  0  0
    9.6041  -16.5205   28.9490 C   0  0  2  0  0  0  0  0  0  0  0  0
   10.1724  -15.1717   28.5764 C   0  0  0  0  0  0  0  0  0  0  0  0
    8.1933  -16.6999   28.5153 C   0  0  2  0  0  0  0  0  0  0  0  0
    7.8987  -18.1445   28.5606 N   0  0  0  0  0  0  0  0  0  0  0  0
    7.8614  -16.2431   27.1677 C   0  0  0  0  0  0  0  0  0  0  0  0
    7.6843  -17.0622   26.1895 O   0  0  0  0  0  0  0  0  0  0  0  0
    6.8464  -12.4114   24.0580 C   0  0  0  0  0  0  0  0  0  0  0  0
    7.1861  -12.9146   25.4408 C   0  0  1  0  0  0  0  0  0  0  0  0
    6.1010  -12.4226   26.3918 C   0  0  0  0  0  0  0  0  0  0  0  0
    7.3719  -14.3987   25.4948 C   0  0  2  0  0  0  0  0  0  0  0  0
    7.7117  -14.8729   26.8272 N   0  0  0  0  0  0  0  0  0  0  0  0
    8.4110  -14.8395   24.5114 C   0  0  0  0  0  0  0  0  0  0  0  0
    9.6273  -14.6277   24.8019 O   0  0  0  0  0  0  0  0  0  0  0  0
    8.1015  -15.4708   23.2950 N   0  0  0  0  0  0  0  0  0  0  0  0
    6.8060  -15.7727   22.7208 C   0  0  0  0  0  0  0  0  0  0  0  0
    7.0811  -17.0261   21.8651 C   0  0  0  0  0  0  0  0  0  0  0  0
    8.3807  -16.5850   21.2046 C   0  0  0  0  0  0  0  0  0  0  0  0
    9.1205  -15.9510   22.3537 C   0  0  1  0  0  0  0  0  0  0  0  0
    9.9802  -14.8401   21.9257 C   0  0  0  0  0  0  0  0  0  0  0  0
    9.6385  -13.6528   22.1311 O   0  0  0  0  0  0  0  0  0  0  0  0
   11.1777  -15.1114   21.2903 O   0  0  0  0  0  0  0  0  0  0  0  0
  2  1  1  0
  3  2  1  0
  3  4  1  1
  5  3  1  0
  5  7  1  0
  5  6  1  6
  7  8  2  0
 10 12  1  0
 10  9  1  6
 11 10  1  0
 12 14  1  0
 13  7  1  0
 12 13  1  1
 14 15  2  0
 16 14  1  0
 16 17  1  0
 17 18  1  0
 19 18  1  0
 20 19  1  0
 20 16  1  0
 20 21  1  6
 22 21  2  0
 23 21  1  0
M  END
$$$$
