IVP.pdb
     RDKit          3D

 23 23  0  0  1  0  0  0  0  0999 V2000
    8.9176  -20.9065   23.9317 C   0  0  0  0  0  0  0  0  0  0  0  0
    7.6812  -20.0747   23.7615 C   0  0  0  0  0  0  0  0  0  0  0  0
    6.9865  -19.8743   25.0657 C   0  0  2  0  0  0  0  0  0  0  0  0
    6.6859  -21.2041   25.7157 C   0  0  0  0  0  0  0  0  0  0  0  0
    5.8173  -18.9561   25.0465 C   0  0  2  0  0  0  0  0  0  0  0  0
    4.8179  -19.5344   24.1286 N   0  0  0  0  0  0  0  0  0  0  0  0
    6.0674  -17.5900   24.5926 C   0  0  0  0  0  0  0  0  0  0  0  0
    5.7322  -17.1853   23.4165 O   0  0  0  0  0  0  0  0  0  0  0  0
    8.0766  -13.0659   25.5128 C   0  0  0  0  0  0  0  0  0  0  0  0
    7.4614  -14.3529   26.0086 C   0  0  1  0  0  0  0  0  0  0  0  0
    6.2371  -13.9899   26.8411 C   0  0  0  0  0  0  0  0  0  0  0  0
    7.1456  -15.3142   24.9058 C   0  0  2  0  0  0  0  0  0  0  0  0
    6.6972  -16.6066   25.4001 N   0  0  0  0  0  0  0  0  0  0  0  0
    8.3257  -15.4906   24.0016 C   0  0  0  0  0  0  0  0  0  0  0  0
    9.2679  -16.2408   24.3991 O   0  0  0  0  0  0  0  0  0  0  0  0
    8.4336  -14.8692   22.7461 N   0  0  0  0  0  0  0  0  0  0  0  0
    7.5857  -13.8596   22.1454 C   0  0  0  0  0  0  0  0  0  0  0  0
    7.7318  -14.1281   20.6336 C   0  0  0  0  0  0  0  0  0  0  0  0
    9.2410  -14.3226   20.5693 C   0  0  0  0  0  0  0  0  0  0  0  0
    9.5030  -15.1706   21.7866 C   0  0  1  0  0  0  0  0  0  0  0  0
   10.8155  -14.9023   22.3881 C   0  0  0  0  0  0  0  0  0  0  0  0
   10.9028  -14.3737   23.5202 O   0  0  0  0  0  0  0  0  0  0  0  0
   11.9636  -15.2381   21.6951 O   0  0  0  0  0  0  0  0  0  0  0  0
  2  1  1  0
  3  2  1  0
  3  4  1  6
  5  3  1  0
  5  7  1  0
  5  6  1  6
  7  8  2  0
 10 12  1  0
 10  9  1  6
 11 10  1  0
 12 14  1  0
 13  7  1  0
 12 13  1  1
 14 15  2  0
 16 14  1  0
 16 17  1  0
 17 18  1  0
 19 18  1  0
 20 19  1  0
 20 16  1  0
 20 21  1  1
 22 21  2  0
 23 21  1  0
M  END
$$$$
