IVP.pdb
     RDKit          3D

 23 23  0  0  1  0  0  0  0  0999 V2000
    5.9063  -11.1234   26.8134 C   0  0  0  0  0  0  0  0  0  0  0  0
    6.5086  -12.1970   27.6701 C   0  0  0  0  0  0  0  0  0  0  0  0
    7.2337  -13.2013   26.8398 C   0  0  2  0  0  0  0  0  0  0  0  0
    8.4662  -12.5861   26.2205 C   0  0  0  0  0  0  0  0  0  0  0  0
    6.4063  -13.9594   25.8645 C   0  0  2  0  0  0  0  0  0  0  0  0
    5.4489  -14.7730   26.6373 N   0  0  0  0  0  0  0  0  0  0  0  0
    7.1188  -14.8753   24.9766 C   0  0  0  0  0  0  0  0  0  0  0  0
    7.4863  -16.0506   25.3544 O   0  0  0  0  0  0  0  0  0  0  0  0
    8.8455  -15.9415   20.3829 C   0  0  0  0  0  0  0  0  0  0  0  0
    8.2088  -14.9564   21.3341 C   0  0  1  0  0  0  0  0  0  0  0  0
    6.8059  -14.6561   20.8189 C   0  0  0  0  0  0  0  0  0  0  0  0
    8.2139  -15.4270   22.7548 C   0  0  2  0  0  0  0  0  0  0  0  0
    7.4649  -14.5479   23.6391 N   0  0  0  0  0  0  0  0  0  0  0  0
    9.6155  -15.5876   23.2555 C   0  0  0  0  0  0  0  0  0  0  0  0
   10.3098  -14.5384   23.4158 O   0  0  0  0  0  0  0  0  0  0  0  0
   10.1888  -16.8354   23.5529 N   0  0  0  0  0  0  0  0  0  0  0  0
    9.5796  -18.1499   23.5502 C   0  0  0  0  0  0  0  0  0  0  0  0
   10.3988  -18.9223   24.6042 C   0  0  0  0  0  0  0  0  0  0  0  0
   11.7965  -18.4758   24.1960 C   0  0  0  0  0  0  0  0  0  0  0  0
   11.5958  -17.0055   23.9358 C   0  0  1  0  0  0  0  0  0  0  0  0
   12.4757  -16.4957   22.8765 C   0  0  0  0  0  0  0  0  0  0  0  0
   12.0972  -16.4848   21.6826 O   0  0  0  0  0  0  0  0  0  0  0  0
   13.7332  -16.0238   23.2040 O   0  0  0  0  0  0  0  0  0  0  0  0
  2  1  1  0
  3  2  1  0
  3  4  1  6
  5  3  1  0
  5  7  1  0
  5  6  1  1
  7  8  2  0
 10 12  1  0
 10  9  1  6
 11 10  1  0
 12 14  1  0
 13  7  1  0
 12 13  1  1
 14 15  2  0
 16 14  1  0
 16 17  1  0
 17 18  1  0
 19 18  1  0
 20 19  1  0
 20 16  1  0
 20 21  1  6
 22 21  2  0
 23 21  1  0
M  END
$$$$
