IVP.pdb
     RDKit          3D

 23 23  0  0  1  0  0  0  0  0999 V2000
    8.9192  -21.6687   26.7408 C   0  0  0  0  0  0  0  0  0  0  0  0
    7.9020  -20.7449   27.3418 C   0  0  0  0  0  0  0  0  0  0  0  0
    7.6968  -19.5427   26.4838 C   0  0  2  0  0  0  0  0  0  0  0  0
    9.0247  -18.9526   26.0722 C   0  0  0  0  0  0  0  0  0  0  0  0
    6.7423  -18.5275   27.0025 C   0  0  2  0  0  0  0  0  0  0  0  0
    5.4167  -19.1696   27.0830 N   0  0  0  0  0  0  0  0  0  0  0  0
    6.5773  -17.3169   26.2012 C   0  0  0  0  0  0  0  0  0  0  0  0
    5.8856  -17.3019   25.1147 O   0  0  0  0  0  0  0  0  0  0  0  0
    7.6297  -12.4527   25.4771 C   0  0  0  0  0  0  0  0  0  0  0  0
    7.4406  -13.6348   26.3976 C   0  0  1  0  0  0  0  0  0  0  0  0
    6.3133  -13.2923   27.3650 C   0  0  0  0  0  0  0  0  0  0  0  0
    7.2018  -14.9168   25.6632 C   0  0  2  0  0  0  0  0  0  0  0  0
    7.1626  -16.0707   26.5479 N   0  0  0  0  0  0  0  0  0  0  0  0
    8.2355  -15.1193   24.5994 C   0  0  0  0  0  0  0  0  0  0  0  0
    9.3430  -15.6341   24.9417 O   0  0  0  0  0  0  0  0  0  0  0  0
    8.0347  -14.7686   23.2538 N   0  0  0  0  0  0  0  0  0  0  0  0
    6.9516  -14.0175   22.6524 C   0  0  0  0  0  0  0  0  0  0  0  0
    6.8843  -14.5796   21.2177 C   0  0  0  0  0  0  0  0  0  0  0  0
    8.3734  -14.6013   20.8986 C   0  0  0  0  0  0  0  0  0  0  0  0
    8.9634  -15.1357   22.1777 C   0  0  1  0  0  0  0  0  0  0  0  0
   10.2994  -14.5914   22.4522 C   0  0  0  0  0  0  0  0  0  0  0  0
   10.4792  -13.7858   23.3943 O   0  0  0  0  0  0  0  0  0  0  0  0
   11.3666  -14.9744   21.6612 O   0  0  0  0  0  0  0  0  0  0  0  0
  2  1  1  0
  3  2  1  0
  3  4  1  1
  5  3  1  0
  5  7  1  0
  5  6  1  6
  7  8  2  0
 10 12  1  0
 10  9  1  6
 11 10  1  0
 12 14  1  0
 13  7  1  0
 12 13  1  1
 14 15  2  0
 16 14  1  0
 16 17  1  0
 17 18  1  0
 19 18  1  0
 20 19  1  0
 20 16  1  0
 20 21  1  1
 22 21  2  0
 23 21  1  0
M  END
$$$$
