IVP.pdb
     RDKit          3D

 23 23  0  0  1  0  0  0  0  0999 V2000
   10.8582  -15.5046   29.9466 C   0  0  0  0  0  0  0  0  0  0  0  0
    9.4123  -15.6064   29.5613 C   0  0  0  0  0  0  0  0  0  0  0  0
    9.1359  -16.8881   28.8512 C   0  0  2  0  0  0  0  0  0  0  0  0
   10.2221  -17.1804   27.8433 C   0  0  0  0  0  0  0  0  0  0  0  0
    7.7659  -17.0421   28.2946 C   0  0  2  0  0  0  0  0  0  0  0  0
    7.5215  -18.4861   28.1185 N   0  0  0  0  0  0  0  0  0  0  0  0
    7.5114  -16.4100   27.0021 C   0  0  0  0  0  0  0  0  0  0  0  0
    7.1714  -17.0883   25.9613 O   0  0  0  0  0  0  0  0  0  0  0  0
    7.1041  -12.1749   24.3053 C   0  0  0  0  0  0  0  0  0  0  0  0
    7.3262  -12.8638   25.6308 C   0  0  1  0  0  0  0  0  0  0  0  0
    6.2771  -12.3412   26.6055 C   0  0  0  0  0  0  0  0  0  0  0  0
    7.3218  -14.3565   25.5230 C   0  0  2  0  0  0  0  0  0  0  0  0
    7.6201  -15.0107   26.7875 N   0  0  0  0  0  0  0  0  0  0  0  0
    8.2797  -14.8153   24.4680 C   0  0  0  0  0  0  0  0  0  0  0  0
    9.4853  -15.0118   24.8095 O   0  0  0  0  0  0  0  0  0  0  0  0
    7.9061  -15.0357   23.1317 N   0  0  0  0  0  0  0  0  0  0  0  0
    6.6685  -14.7003   22.4571 C   0  0  0  0  0  0  0  0  0  0  0  0
    6.5618  -15.7761   21.3571 C   0  0  0  0  0  0  0  0  0  0  0  0
    8.0009  -15.7535   20.8590 C   0  0  0  0  0  0  0  0  0  0  0  0
    8.7803  -15.6837   22.1464 C   0  0  1  0  0  0  0  0  0  0  0  0
   10.0332  -14.9307   22.0062 C   0  0  0  0  0  0  0  0  0  0  0  0
   11.1316  -15.5278   21.9302 O   0  0  0  0  0  0  0  0  0  0  0  0
    9.9960  -13.5496   21.9577 O   0  0  0  0  0  0  0  0  0  0  0  0
  2  1  1  0
  3  2  1  0
  3  4  1  6
  5  3  1  0
  5  7  1  0
  5  6  1  6
  7  8  2  0
 10 12  1  0
 10  9  1  6
 11 10  1  0
 12 14  1  0
 13  7  1  0
 12 13  1  1
 14 15  2  0
 16 14  1  0
 16 17  1  0
 17 18  1  0
 19 18  1  0
 20 19  1  0
 20 16  1  0
 20 21  1  6
 22 21  2  0
 23 21  1  0
M  END
$$$$
