IVP.pdb
     RDKit          3D

 23 23  0  0  1  0  0  0  0  0999 V2000
    9.3673  -21.4509   27.2418 C   0  0  0  0  0  0  0  0  0  0  0  0
    8.5611  -20.3808   27.9158 C   0  0  0  0  0  0  0  0  0  0  0  0
    8.0460  -19.3934   26.9242 C   0  0  2  0  0  0  0  0  0  0  0  0
    9.1456  -18.9669   25.9808 C   0  0  0  0  0  0  0  0  0  0  0  0
    7.2793  -18.2486   27.4830 C   0  0  2  0  0  0  0  0  0  0  0  0
    6.0530  -18.7957   28.0937 N   0  0  0  0  0  0  0  0  0  0  0  0
    6.8565  -17.2207   26.5346 C   0  0  0  0  0  0  0  0  0  0  0  0
    5.9081  -17.4184   25.6857 O   0  0  0  0  0  0  0  0  0  0  0  0
    6.2033  -13.1473   26.8441 C   0  0  0  0  0  0  0  0  0  0  0  0
    7.3036  -13.5506   25.8915 C   0  0  1  0  0  0  0  0  0  0  0  0
    8.6356  -13.2759   26.5800 C   0  0  0  0  0  0  0  0  0  0  0  0
    7.1792  -14.9648   25.4179 C   0  0  2  0  0  0  0  0  0  0  0  0
    7.4522  -15.9336   26.4680 N   0  0  0  0  0  0  0  0  0  0  0  0
    8.0751  -15.2121   24.2443 C   0  0  0  0  0  0  0  0  0  0  0  0
    9.1739  -15.8095   24.4551 O   0  0  0  0  0  0  0  0  0  0  0  0
    7.7554  -14.8167   22.9346 N   0  0  0  0  0  0  0  0  0  0  0  0
    6.6069  -14.0760   22.4535 C   0  0  0  0  0  0  0  0  0  0  0  0
    6.4375  -14.5848   21.0074 C   0  0  0  0  0  0  0  0  0  0  0  0
    7.8955  -14.5498   20.5685 C   0  0  0  0  0  0  0  0  0  0  0  0
    8.6024  -15.1145   21.7731 C   0  0  1  0  0  0  0  0  0  0  0  0
    9.9413  -14.5412   21.9605 C   0  0  0  0  0  0  0  0  0  0  0  0
   10.1850  -13.7944   22.9359 O   0  0  0  0  0  0  0  0  0  0  0  0
   10.9399  -14.8312   21.0495 O   0  0  0  0  0  0  0  0  0  0  0  0
  2  1  1  0
  3  2  1  0
  3  4  1  1
  5  3  1  0
  5  7  1  0
  5  6  1  6
  7  8  2  0
 10 12  1  0
 10  9  1  1
 11 10  1  0
 12 14  1  0
 13  7  1  0
 12 13  1  1
 14 15  2  0
 16 14  1  0
 16 17  1  0
 17 18  1  0
 19 18  1  0
 20 19  1  0
 20 16  1  0
 20 21  1  1
 22 21  2  0
 23 21  1  0
M  END
$$$$
