IVP.pdb
     RDKit          3D

 23 23  0  0  1  0  0  0  0  0999 V2000
   11.4606  -16.9095   30.4715 C   0  0  0  0  0  0  0  0  0  0  0  0
    9.9729  -16.9312   30.2828 C   0  0  0  0  0  0  0  0  0  0  0  0
    9.6075  -16.6250   28.8699 C   0  0  2  0  0  0  0  0  0  0  0  0
   10.3438  -15.3983   28.3861 C   0  0  0  0  0  0  0  0  0  0  0  0
    8.1524  -16.5904   28.5663 C   0  0  2  0  0  0  0  0  0  0  0  0
    7.6324  -17.9592   28.7445 N   0  0  0  0  0  0  0  0  0  0  0  0
    7.7763  -16.1676   27.2192 C   0  0  0  0  0  0  0  0  0  0  0  0
    7.4966  -17.0122   26.2877 O   0  0  0  0  0  0  0  0  0  0  0  0
    7.0454  -12.4069   23.9469 C   0  0  0  0  0  0  0  0  0  0  0  0
    7.2735  -12.8786   25.3633 C   0  0  1  0  0  0  0  0  0  0  0  0
    6.1405  -12.3290   26.2223 C   0  0  0  0  0  0  0  0  0  0  0  0
    7.4109  -14.3650   25.4707 C   0  0  2  0  0  0  0  0  0  0  0  0
    7.6925  -14.8053   26.8281 N   0  0  0  0  0  0  0  0  0  0  0  0
    8.4670  -14.8691   24.5370 C   0  0  0  0  0  0  0  0  0  0  0  0
    9.6790  -14.7178   24.8785 O   0  0  0  0  0  0  0  0  0  0  0  0
    8.1776  -15.4959   23.3133 N   0  0  0  0  0  0  0  0  0  0  0  0
    6.8918  -15.7904   22.7139 C   0  0  0  0  0  0  0  0  0  0  0  0
    7.1774  -17.0428   21.8603 C   0  0  0  0  0  0  0  0  0  0  0  0
    8.4911  -16.6060   21.2255 C   0  0  0  0  0  0  0  0  0  0  0  0
    9.2120  -15.9782   22.3900 C   0  0  1  0  0  0  0  0  0  0  0  0
   10.0846  -14.8702   21.9813 C   0  0  0  0  0  0  0  0  0  0  0  0
    9.6157  -13.7239   21.7946 O   0  0  0  0  0  0  0  0  0  0  0  0
   11.4363  -15.0983   21.8019 O   0  0  0  0  0  0  0  0  0  0  0  0
  2  1  1  0
  3  2  1  0
  3  4  1  1
  5  3  1  0
  5  7  1  0
  5  6  1  6
  7  8  2  0
 10 12  1  0
 10  9  1  6
 11 10  1  0
 12 14  1  0
 13  7  1  0
 12 13  1  1
 14 15  2  0
 16 14  1  0
 16 17  1  0
 17 18  1  0
 19 18  1  0
 20 19  1  0
 20 16  1  0
 20 21  1  6
 22 21  2  0
 23 21  1  0
M  END
$$$$
