ICA.pdb
     RDKit          3D

 20 19  0  0  1  0  0  0  0  0999 V2000
    7.9121  -15.8904   15.3507 C   0  0  0  0  0  0  0  0  0  0  0  0
    7.5641  -14.8113   16.3168 C   0  0  0  0  0  0  0  0  0  0  0  0
    8.2475  -14.8873   17.6496 C   0  0  2  0  0  0  0  0  0  0  0  0
    8.2442  -16.3173   18.1218 C   0  0  0  0  0  0  0  0  0  0  0  0
    7.9153  -13.8553   18.6428 C   0  0  2  0  0  0  0  0  0  0  0  0
    8.2117  -12.5256   18.0565 N   0  0  0  0  0  0  0  0  0  0  0  0
    8.5110  -13.9138   19.9622 C   0  0  0  0  0  0  0  0  0  0  0  0
    9.7133  -13.6343   20.2049 O   0  0  0  0  0  0  0  0  0  0  0  0
    7.7197  -14.3068   21.0764 N   0  0  0  0  0  0  0  0  0  0  0  0
    8.3579  -14.3939   22.4068 C   0  0  1  0  0  0  0  0  0  0  0  0
    7.2483  -14.0195   23.3714 C   0  0  0  0  0  0  0  0  0  0  0  0
    7.5582  -14.4846   25.0676 S   0  0  0  0  0  0  0  0  0  0  0  0
    8.8860  -15.7541   22.6126 C   0  0  0  0  0  0  0  0  0  0  0  0
    8.2515  -16.7947   22.2752 O   0  0  0  0  0  0  0  0  0  0  0  0
   11.9138  -17.5290   22.7181 C   0  0  0  0  0  0  0  0  0  0  0  0
   10.6683  -17.2707   23.5279 C   0  0  2  0  0  0  0  0  0  0  0  0
   10.1564  -15.9403   23.2103 N   0  0  0  0  0  0  0  0  0  0  0  0
   10.9080  -17.3995   24.9924 C   0  0  0  0  0  0  0  0  0  0  0  0
   10.6306  -16.4104   25.7181 O   0  0  0  0  0  0  0  0  0  0  0  0
   11.4133  -18.5381   25.5822 O   0  0  0  0  0  0  0  0  0  0  0  0
  1  2  1  0
  2  3  1  0
  3  4  1  1
  5  7  1  0
  5  3  1  0
  5  6  1  6
  7  8  2  0
  7  9  1  0
  9 10  1  0
 10 13  1  0
 11 12  1  0
 10 11  1  1
 13 14  2  0
 13 17  1  0
 16 15  1  6
 16 18  1  0
 17 16  1  0
 18 20  1  0
 19 18  2  0
M  END
$$$$
