ICA.pdb
     RDKit          3D

 20 19  0  0  1  0  0  0  0  0999 V2000
    3.5675  -23.6572   19.8281 C   0  0  0  0  0  0  0  0  0  0  0  0
    3.4352  -22.5793   20.8477 C   0  0  0  0  0  0  0  0  0  0  0  0
    4.6693  -21.7637   21.0947 C   0  0  2  0  0  0  0  0  0  0  0  0
    5.8694  -22.6734   21.0809 C   0  0  0  0  0  0  0  0  0  0  0  0
    4.6118  -20.7503   22.1585 C   0  0  2  0  0  0  0  0  0  0  0  0
    3.4244  -19.8922   21.9267 N   0  0  0  0  0  0  0  0  0  0  0  0
    5.7552  -19.8917   22.3915 C   0  0  0  0  0  0  0  0  0  0  0  0
    6.2004  -19.0684   21.5508 O   0  0  0  0  0  0  0  0  0  0  0  0
    6.4425  -19.9543   23.6348 N   0  0  0  0  0  0  0  0  0  0  0  0
    7.6481  -19.1204   23.8240 C   0  0  1  0  0  0  0  0  0  0  0  0
    7.1025  -17.7924   24.3144 C   0  0  0  0  0  0  0  0  0  0  0  0
    6.1262  -17.9022   25.8058 S   0  0  0  0  0  0  0  0  0  0  0  0
    8.5562  -19.7760   24.7814 C   0  0  0  0  0  0  0  0  0  0  0  0
    8.1448  -20.5151   25.7214 O   0  0  0  0  0  0  0  0  0  0  0  0
   12.2574  -20.3150   24.8692 C   0  0  0  0  0  0  0  0  0  0  0  0
   10.8952  -20.3279   25.5158 C   0  0  2  0  0  0  0  0  0  0  0  0
    9.9565  -19.5928   24.6725 N   0  0  0  0  0  0  0  0  0  0  0  0
   10.9156  -19.7566   26.8913 C   0  0  0  0  0  0  0  0  0  0  0  0
   10.3961  -18.6237   27.0601 O   0  0  0  0  0  0  0  0  0  0  0  0
   11.4705  -20.4036   27.9744 O   0  0  0  0  0  0  0  0  0  0  0  0
  1  2  1  0
  2  3  1  0
  3  4  1  1
  5  7  1  0
  5  3  1  0
  5  6  1  6
  7  8  2  0
  7  9  1  0
  9 10  1  0
 10 13  1  0
 11 12  1  0
 10 11  1  1
 13 14  2  0
 13 17  1  0
 16 15  1  6
 16 18  1  0
 17 16  1  0
 18 20  1  0
 19 18  2  0
M  END
$$$$
