ICA.pdb
     RDKit          3D

 20 19  0  0  1  0  0  0  0  0999 V2000
    7.5721  -12.0638   19.3305 C   0  0  0  0  0  0  0  0  0  0  0  0
    8.0036  -13.4791   19.5021 C   0  0  0  0  0  0  0  0  0  0  0  0
    7.8441  -14.0442   20.8821 C   0  0  2  0  0  0  0  0  0  0  0  0
    8.4033  -13.0653   21.8807 C   0  0  0  0  0  0  0  0  0  0  0  0
    8.1787  -15.4625   21.0779 C   0  0  2  0  0  0  0  0  0  0  0  0
    7.3556  -16.2726   20.1474 N   0  0  0  0  0  0  0  0  0  0  0  0
    8.0776  -16.0456   22.4003 C   0  0  0  0  0  0  0  0  0  0  0  0
    6.9902  -16.3553   22.9520 O   0  0  0  0  0  0  0  0  0  0  0  0
    9.2581  -16.2986   23.1517 N   0  0  0  0  0  0  0  0  0  0  0  0
    9.1267  -16.7294   24.5595 C   0  0  1  0  0  0  0  0  0  0  0  0
    9.7710  -18.1028   24.5846 C   0  0  0  0  0  0  0  0  0  0  0  0
   10.1455  -18.7113   26.2214 S   0  0  0  0  0  0  0  0  0  0  0  0
    9.7886  -15.7499   25.4391 C   0  0  0  0  0  0  0  0  0  0  0  0
   10.9403  -15.2840   25.2029 O   0  0  0  0  0  0  0  0  0  0  0  0
    8.7864  -13.2612   27.8825 C   0  0  0  0  0  0  0  0  0  0  0  0
    9.7716  -14.3444   27.5221 C   0  0  2  0  0  0  0  0  0  0  0  0
    9.1345  -15.2879   26.6073 N   0  0  0  0  0  0  0  0  0  0  0  0
   10.2949  -15.0560   28.7215 C   0  0  0  0  0  0  0  0  0  0  0  0
    9.9274  -16.2454   28.9006 O   0  0  0  0  0  0  0  0  0  0  0  0
   11.1526  -14.4789   29.6330 O   0  0  0  0  0  0  0  0  0  0  0  0
  1  2  1  0
  2  3  1  0
  3  4  1  1
  5  7  1  0
  5  3  1  0
  5  6  1  6
  7  8  2  0
  7  9  1  0
  9 10  1  0
 10 13  1  0
 11 12  1  0
 10 11  1  6
 13 14  2  0
 13 17  1  0
 16 15  1  1
 16 18  1  0
 17 16  1  0
 18 20  1  0
 19 18  2  0
M  END
$$$$
