ICA.pdb
     RDKit          3D

 20 19  0  0  1  0  0  0  0  0999 V2000
    7.1625  -12.3101   18.8900 C   0  0  0  0  0  0  0  0  0  0  0  0
    7.0659  -13.5562   19.7003 C   0  0  0  0  0  0  0  0  0  0  0  0
    8.1270  -13.7358   20.7448 C   0  0  2  0  0  0  0  0  0  0  0  0
    9.4743  -13.4725   20.1258 C   0  0  0  0  0  0  0  0  0  0  0  0
    8.0163  -14.9035   21.6315 C   0  0  2  0  0  0  0  0  0  0  0  0
    6.5782  -15.1963   21.8460 N   0  0  0  0  0  0  0  0  0  0  0  0
    8.6749  -14.8873   22.9218 C   0  0  0  0  0  0  0  0  0  0  0  0
    9.9233  -14.9074   23.0753 O   0  0  0  0  0  0  0  0  0  0  0  0
    7.8959  -14.8462   24.1107 N   0  0  0  0  0  0  0  0  0  0  0  0
    8.5827  -14.9526   25.4153 C   0  0  1  0  0  0  0  0  0  0  0  0
    7.6769  -14.1971   26.3695 C   0  0  0  0  0  0  0  0  0  0  0  0
    5.9477  -14.6235   26.2376 S   0  0  0  0  0  0  0  0  0  0  0  0
    8.7578  -16.3729   25.7663 C   0  0  0  0  0  0  0  0  0  0  0  0
    7.8409  -17.2324   25.6258 O   0  0  0  0  0  0  0  0  0  0  0  0
   11.4022  -18.7571   25.8888 C   0  0  0  0  0  0  0  0  0  0  0  0
   10.2071  -18.2295   26.6421 C   0  0  2  0  0  0  0  0  0  0  0  0
    9.9941  -16.8296   26.2849 N   0  0  0  0  0  0  0  0  0  0  0  0
   10.3590  -18.3723   28.1170 C   0  0  0  0  0  0  0  0  0  0  0  0
   10.3974  -17.3196   28.8041 O   0  0  0  0  0  0  0  0  0  0  0  0
   10.4582  -19.5895   28.7561 O   0  0  0  0  0  0  0  0  0  0  0  0
  1  2  1  0
  2  3  1  0
  3  4  1  6
  5  7  1  0
  5  3  1  0
  5  6  1  1
  7  8  2  0
  7  9  1  0
  9 10  1  0
 10 13  1  0
 11 12  1  0
 10 11  1  1
 13 14  2  0
 13 17  1  0
 16 15  1  6
 16 18  1  0
 17 16  1  0
 18 20  1  0
 19 18  2  0
M  END
$$$$
