ICA.pdb
     RDKit          3D

 20 19  0  0  1  0  0  0  0  0999 V2000
    7.9897  -11.6737   20.1068 C   0  0  0  0  0  0  0  0  0  0  0  0
    7.1636  -12.8639   20.4531 C   0  0  0  0  0  0  0  0  0  0  0  0
    7.7316  -14.1902   20.0440 C   0  0  2  0  0  0  0  0  0  0  0  0
    7.3022  -14.4936   18.6328 C   0  0  0  0  0  0  0  0  0  0  0  0
    7.6553  -15.2905   21.0163 C   0  0  2  0  0  0  0  0  0  0  0  0
    6.2305  -15.6606   21.1968 N   0  0  0  0  0  0  0  0  0  0  0  0
    8.2535  -15.1308   22.3261 C   0  0  0  0  0  0  0  0  0  0  0  0
    7.9585  -14.2064   23.1269 O   0  0  0  0  0  0  0  0  0  0  0  0
    9.2381  -16.0560   22.7694 N   0  0  0  0  0  0  0  0  0  0  0  0
    9.9162  -15.8096   24.0595 C   0  0  1  0  0  0  0  0  0  0  0  0
    8.8145  -15.9713   25.0899 C   0  0  0  0  0  0  0  0  0  0  0  0
    7.7713  -17.3984   24.8358 S   0  0  0  0  0  0  0  0  0  0  0  0
   11.0250  -16.7660   24.2246 C   0  0  0  0  0  0  0  0  0  0  0  0
   10.9632  -17.9638   23.8240 O   0  0  0  0  0  0  0  0  0  0  0  0
   14.6433  -16.3769   24.7323 C   0  0  0  0  0  0  0  0  0  0  0  0
   13.4045  -17.2217   24.8916 C   0  0  2  0  0  0  0  0  0  0  0  0
   12.2268  -16.3590   24.8540 N   0  0  0  0  0  0  0  0  0  0  0  0
   13.4225  -18.0223   26.1476 C   0  0  0  0  0  0  0  0  0  0  0  0
   12.6078  -17.7065   27.0523 O   0  0  0  0  0  0  0  0  0  0  0  0
   14.2797  -19.0801   26.3621 O   0  0  0  0  0  0  0  0  0  0  0  0
  1  2  1  0
  2  3  1  0
  3  4  1  6
  5  7  1  0
  5  3  1  0
  5  6  1  1
  7  8  2  0
  7  9  1  0
  9 10  1  0
 10 13  1  0
 11 12  1  0
 10 11  1  1
 13 14  2  0
 13 17  1  0
 16 15  1  1
 16 18  1  0
 17 16  1  0
 18 20  1  0
 19 18  2  0
M  END
$$$$
