ICA.pdb
     RDKit          3D

 20 19  0  0  1  0  0  0  0  0999 V2000
    7.6366  -11.4591   18.9964 C   0  0  0  0  0  0  0  0  0  0  0  0
    8.3563  -12.7113   18.6322 C   0  0  0  0  0  0  0  0  0  0  0  0
    8.2063  -13.8506   19.5959 C   0  0  2  0  0  0  0  0  0  0  0  0
    8.4772  -13.3521   20.9909 C   0  0  0  0  0  0  0  0  0  0  0  0
    8.8029  -15.1408   19.2202 C   0  0  2  0  0  0  0  0  0  0  0  0
    8.2140  -15.5731   17.9294 N   0  0  0  0  0  0  0  0  0  0  0  0
    8.7402  -16.2546   20.1447 C   0  0  0  0  0  0  0  0  0  0  0  0
    7.7818  -17.0673   20.2039 O   0  0  0  0  0  0  0  0  0  0  0  0
    9.8089  -16.4753   21.0564 N   0  0  0  0  0  0  0  0  0  0  0  0
    9.7176  -17.6111   21.9979 C   0  0  1  0  0  0  0  0  0  0  0  0
   10.9954  -18.3923   21.7556 C   0  0  0  0  0  0  0  0  0  0  0  0
   12.4872  -17.4162   21.8613 S   0  0  0  0  0  0  0  0  0  0  0  0
    9.5883  -17.1017   23.3745 C   0  0  0  0  0  0  0  0  0  0  0  0
   10.2223  -16.0914   23.7945 O   0  0  0  0  0  0  0  0  0  0  0  0
    7.2527  -17.5508   26.2035 C   0  0  0  0  0  0  0  0  0  0  0  0
    8.6579  -17.3471   25.6959 C   0  0  2  0  0  0  0  0  0  0  0  0
    8.7244  -17.7470   24.2929 N   0  0  0  0  0  0  0  0  0  0  0  0
    9.6643  -18.0969   26.4983 C   0  0  0  0  0  0  0  0  0  0  0  0
   10.2145  -19.0922   25.9612 O   0  0  0  0  0  0  0  0  0  0  0  0
   10.0165  -17.7550   27.7863 O   0  0  0  0  0  0  0  0  0  0  0  0
  1  2  1  0
  2  3  1  0
  3  4  1  1
  5  7  1  0
  5  3  1  0
  5  6  1  6
  7  8  2  0
  7  9  1  0
  9 10  1  0
 10 13  1  0
 11 12  1  0
 10 11  1  1
 13 14  2  0
 13 17  1  0
 16 15  1  1
 16 18  1  0
 17 16  1  0
 18 20  1  0
 19 18  2  0
M  END
$$$$
