ICA.pdb
     RDKit          3D

 20 19  0  0  1  0  0  0  0  0999 V2000
    8.3724  -20.7446   17.1925 C   0  0  0  0  0  0  0  0  0  0  0  0
    8.3829  -19.2571   17.2712 C   0  0  0  0  0  0  0  0  0  0  0  0
    9.0151  -18.6761   18.5008 C   0  0  2  0  0  0  0  0  0  0  0  0
    8.6306  -19.5130   19.6923 C   0  0  0  0  0  0  0  0  0  0  0  0
    8.9633  -17.2160   18.6657 C   0  0  2  0  0  0  0  0  0  0  0  0
    9.6318  -16.5872   17.5005 N   0  0  0  0  0  0  0  0  0  0  0  0
    9.4905  -16.6129   19.8729 C   0  0  0  0  0  0  0  0  0  0  0  0
   10.7178  -16.4842   20.1175 O   0  0  0  0  0  0  0  0  0  0  0  0
    8.5971  -16.1245   20.8654 N   0  0  0  0  0  0  0  0  0  0  0  0
    9.1570  -15.5755   22.1184 C   0  0  1  0  0  0  0  0  0  0  0  0
    8.0309  -14.7309   22.6845 C   0  0  0  0  0  0  0  0  0  0  0  0
    8.2436  -14.2711   24.3970 S   0  0  0  0  0  0  0  0  0  0  0  0
    9.5678  -16.6813   23.0014 C   0  0  0  0  0  0  0  0  0  0  0  0
    8.8237  -17.6729   23.2506 O   0  0  0  0  0  0  0  0  0  0  0  0
   12.7873  -17.9931   24.1782 C   0  0  0  0  0  0  0  0  0  0  0  0
   11.3173  -17.7764   24.4348 C   0  0  2  0  0  0  0  0  0  0  0  0
   10.8452  -16.6652   23.6131 N   0  0  0  0  0  0  0  0  0  0  0  0
   11.0250  -17.5203   25.8728 C   0  0  0  0  0  0  0  0  0  0  0  0
   10.5811  -16.3856   26.1848 O   0  0  0  0  0  0  0  0  0  0  0  0
   11.2160  -18.4573   26.8654 O   0  0  0  0  0  0  0  0  0  0  0  0
  1  2  1  0
  2  3  1  0
  3  4  1  1
  5  7  1  0
  5  3  1  0
  5  6  1  6
  7  8  2  0
  7  9  1  0
  9 10  1  0
 10 13  1  0
 11 12  1  0
 10 11  1  1
 13 14  2  0
 13 17  1  0
 16 15  1  1
 16 18  1  0
 17 16  1  0
 18 20  1  0
 19 18  2  0
M  END
$$$$
