ICA.pdb
     RDKit          3D

 20 19  0  0  1  0  0  0  0  0999 V2000
    7.6210  -12.1031   19.5910 C   0  0  0  0  0  0  0  0  0  0  0  0
    7.3512  -13.1461   20.6197 C   0  0  0  0  0  0  0  0  0  0  0  0
    8.2341  -14.3572   20.5641 C   0  0  2  0  0  0  0  0  0  0  0  0
    8.1325  -14.9759   19.1949 C   0  0  0  0  0  0  0  0  0  0  0  0
    8.2044  -15.2724   21.7144 C   0  0  2  0  0  0  0  0  0  0  0  0
    6.8368  -15.8339   21.8334 N   0  0  0  0  0  0  0  0  0  0  0  0
    8.6155  -14.7955   23.0193 C   0  0  0  0  0  0  0  0  0  0  0  0
    9.7869  -14.4315   23.2988 O   0  0  0  0  0  0  0  0  0  0  0  0
    7.6650  -14.7197   24.0742 N   0  0  0  0  0  0  0  0  0  0  0  0
    8.1288  -14.3326   25.4232 C   0  0  1  0  0  0  0  0  0  0  0  0
    7.0451  -13.3997   25.9301 C   0  0  0  0  0  0  0  0  0  0  0  0
    5.4816  -14.1969   26.2606 S   0  0  0  0  0  0  0  0  0  0  0  0
    8.3039  -15.5397   26.2500 C   0  0  0  0  0  0  0  0  0  0  0  0
    8.5336  -15.4927   27.4926 O   0  0  0  0  0  0  0  0  0  0  0  0
    7.5347  -19.1435   25.7651 C   0  0  0  0  0  0  0  0  0  0  0  0
    8.2985  -18.0439   26.4587 C   0  0  2  0  0  0  0  0  0  0  0  0
    8.2162  -16.8242   25.6597 N   0  0  0  0  0  0  0  0  0  0  0  0
    9.7215  -18.4099   26.7035 C   0  0  0  0  0  0  0  0  0  0  0  0
   10.5891  -17.9269   25.9316 O   0  0  0  0  0  0  0  0  0  0  0  0
   10.1268  -19.2431   27.7238 O   0  0  0  0  0  0  0  0  0  0  0  0
  1  2  1  0
  2  3  1  0
  3  4  1  6
  5  7  1  0
  5  3  1  0
  5  6  1  1
  7  8  2  0
  7  9  1  0
  9 10  1  0
 10 13  1  0
 11 12  1  0
 10 11  1  1
 13 14  2  0
 13 17  1  0
 16 15  1  6
 16 18  1  0
 17 16  1  0
 18 20  1  0
 19 18  2  0
M  END
$$$$
