KPM.pdb
     RDKit          3D

 25 25  0  0  1  0  0  0  0  0999 V2000
   26.0793  -24.0330  -16.6274 N   0  0  0  0  0  0  0  0  0  0  0  0
   25.6873  -22.7536  -16.1795 C   0  0  1  0  0  0  0  0  0  0  0  0
   24.2182  -22.5165  -16.0114 C   0  0  0  0  0  0  0  0  0  0  0  0
   23.4072  -22.6860  -17.2364 C   0  0  0  0  0  0  0  0  0  0  0  0
   23.3386  -24.0925  -17.7065 C   0  0  0  0  0  0  0  0  0  0  0  0
   22.3945  -24.2133  -18.9225 C   0  0  0  0  0  0  0  0  0  0  0  0
   22.3426  -25.5812  -19.3740 N   0  0  0  0  0  0  0  0  0  0  0  0
   26.3990  -22.3381  -14.9380 C   0  0  0  0  0  0  0  0  0  0  0  0
   26.7605  -23.3084  -14.2011 O   0  0  0  0  0  0  0  0  0  0  0  0
   26.6943  -21.0371  -14.5242 N   0  0  0  0  0  0  0  0  0  0  0  0
   26.3846  -19.8412  -15.2510 C   0  0  0  0  0  0  0  0  0  0  0  0
   26.8106  -18.6434  -14.4518 C   0  0  0  0  0  0  0  0  0  0  0  0
   27.8061  -19.2315  -13.4752 C   0  0  0  0  0  0  0  0  0  0  0  0
   27.3527  -20.6648  -13.3155 C   0  0  1  0  0  0  0  0  0  0  0  0
   26.5240  -20.7901  -12.1114 C   0  0  0  0  0  0  0  0  0  0  0  0
   25.2780  -20.8998  -12.2420 O   0  0  0  0  0  0  0  0  0  0  0  0
   28.6952  -19.9211   -5.6581 C   0  0  0  0  0  0  0  0  0  0  0  0
   26.9190  -19.7040   -5.7557 S   0  0  0  0  0  0  0  0  0  0  0  0
   26.1884  -20.4308   -7.2204 C   0  0  0  0  0  0  0  0  0  0  0  0
   27.0807  -20.3198   -8.4398 C   0  0  0  0  0  0  0  0  0  0  0  0
   26.3462  -20.9794   -9.6038 C   0  0  2  0  0  0  0  0  0  0  0  0
   27.1091  -20.7888  -10.8195 N   0  0  0  0  0  0  0  0  0  0  0  0
   25.0542  -20.2679   -9.7707 C   0  0  0  0  0  0  0  0  0  0  0  0
   24.9847  -19.1411  -10.3515 O   0  0  0  0  0  0  0  0  0  0  0  0
   23.8662  -20.8111   -9.2950 O   0  0  0  0  0  0  0  0  0  0  0  0
  2  1  1  1
  2  3  1  0
  3  4  1  0
  4  5  1  0
  6  7  1  0
  6  5  1  0
  8  2  1  0
  8 10  1  0
  9  8  2  0
 10 14  1  0
 11 10  1  0
 12 13  1  0
 12 11  1  0
 13 14  1  0
 14 15  1  1
 15 16  2  0
 15 22  1  0
 17 18  1  0
 18 19  1  0
 19 20  1  0
 21 20  1  1
 21 23  1  0
 22 21  1  0
 23 24  2  0
 23 25  1  0
M  END
$$$$
