KPM.pdb
     RDKit          3D

 25 25  0  0  1  0  0  0  0  0999 V2000
   24.8097  -20.5722  -17.3540 N   0  0  0  0  0  0  0  0  0  0  0  0
   25.5226  -19.6968  -16.5073 C   0  0  1  0  0  0  0  0  0  0  0  0
   25.0223  -18.2884  -16.4147 C   0  0  0  0  0  0  0  0  0  0  0  0
   25.0179  -17.5351  -17.6874 C   0  0  0  0  0  0  0  0  0  0  0  0
   26.2656  -16.7647  -17.9192 C   0  0  0  0  0  0  0  0  0  0  0  0
   25.9391  -15.3338  -18.3993 C   0  0  0  0  0  0  0  0  0  0  0  0
   26.1370  -15.2330  -19.8234 N   0  0  0  0  0  0  0  0  0  0  0  0
   25.7024  -20.2475  -15.1343 C   0  0  0  0  0  0  0  0  0  0  0  0
   24.6622  -20.8037  -14.6610 O   0  0  0  0  0  0  0  0  0  0  0  0
   26.8578  -20.2117  -14.3504 N   0  0  0  0  0  0  0  0  0  0  0  0
   28.0804  -19.5492  -14.6980 C   0  0  0  0  0  0  0  0  0  0  0  0
   29.0657  -19.6913  -13.5738 C   0  0  0  0  0  0  0  0  0  0  0  0
   28.5164  -20.8678  -12.7960 C   0  0  0  0  0  0  0  0  0  0  0  0
   27.0310  -20.8233  -13.0739 C   0  0  1  0  0  0  0  0  0  0  0  0
   26.3427  -20.1365  -11.9753 C   0  0  0  0  0  0  0  0  0  0  0  0
   26.2752  -18.8808  -11.9933 O   0  0  0  0  0  0  0  0  0  0  0  0
   20.9732  -22.2667   -9.0320 C   0  0  0  0  0  0  0  0  0  0  0  0
   21.6222  -21.1395   -7.7991 S   0  0  0  0  0  0  0  0  0  0  0  0
   23.1512  -20.3459   -8.2890 C   0  0  0  0  0  0  0  0  0  0  0  0
   23.8101  -21.0201   -9.4750 C   0  0  0  0  0  0  0  0  0  0  0  0
   25.0820  -20.2392   -9.7946 C   0  0  2  0  0  0  0  0  0  0  0  0
   25.7611  -20.8676  -10.9083 N   0  0  0  0  0  0  0  0  0  0  0  0
   25.9728  -20.3430   -8.6118 C   0  0  0  0  0  0  0  0  0  0  0  0
   26.8191  -21.2822   -8.4958 O   0  0  0  0  0  0  0  0  0  0  0  0
   25.9136  -19.4112   -7.5817 O   0  0  0  0  0  0  0  0  0  0  0  0
  2  1  1  6
  2  3  1  0
  3  4  1  0
  4  5  1  0
  6  7  1  0
  6  5  1  0
  8  2  1  0
  8 10  1  0
  9  8  2  0
 10 14  1  0
 11 10  1  0
 12 13  1  0
 12 11  1  0
 13 14  1  0
 14 15  1  1
 15 16  2  0
 15 22  1  0
 17 18  1  0
 18 19  1  0
 19 20  1  0
 21 20  1  1
 21 23  1  0
 22 21  1  0
 23 24  2  0
 23 25  1  0
M  END
$$$$
