KPM.pdb
     RDKit          3D

 25 25  0  0  1  0  0  0  0  0999 V2000
   24.4044  -22.9468  -15.5212 N   0  0  0  0  0  0  0  0  0  0  0  0
   24.6157  -21.7135  -14.8689 C   0  0  1  0  0  0  0  0  0  0  0  0
   23.3964  -20.9601  -14.4348 C   0  0  0  0  0  0  0  0  0  0  0  0
   22.5375  -20.4634  -15.5315 C   0  0  0  0  0  0  0  0  0  0  0  0
   21.3289  -19.7463  -15.0532 C   0  0  0  0  0  0  0  0  0  0  0  0
   20.4522  -19.3045  -16.2453 C   0  0  0  0  0  0  0  0  0  0  0  0
   19.2292  -18.7109  -15.7662 N   0  0  0  0  0  0  0  0  0  0  0  0
   25.5600  -21.8263  -13.7217 C   0  0  0  0  0  0  0  0  0  0  0  0
   25.3869  -22.8657  -13.0111 O   0  0  0  0  0  0  0  0  0  0  0  0
   26.5754  -20.9349  -13.3677 N   0  0  0  0  0  0  0  0  0  0  0  0
   26.9014  -19.7247  -14.0628 C   0  0  0  0  0  0  0  0  0  0  0  0
   28.0119  -19.0155  -13.3427 C   0  0  0  0  0  0  0  0  0  0  0  0
   28.6176  -20.1159  -12.4984 C   0  0  0  0  0  0  0  0  0  0  0  0
   27.4655  -21.0657  -12.2614 C   0  0  1  0  0  0  0  0  0  0  0  0
   26.8550  -20.7869  -10.9569 C   0  0  0  0  0  0  0  0  0  0  0  0
   25.8594  -20.0201  -10.9052 O   0  0  0  0  0  0  0  0  0  0  0  0
   29.4603  -20.5011   -4.5967 C   0  0  0  0  0  0  0  0  0  0  0  0
   28.0486  -19.4755   -5.0054 S   0  0  0  0  0  0  0  0  0  0  0  0
   26.9905  -20.1832   -6.2652 C   0  0  0  0  0  0  0  0  0  0  0  0
   27.7580  -20.6425   -7.4880 C   0  0  0  0  0  0  0  0  0  0  0  0
   26.7436  -21.2141   -8.4749 C   0  0  2  0  0  0  0  0  0  0  0  0
   27.3716  -21.3672   -9.7705 N   0  0  0  0  0  0  0  0  0  0  0  0
   25.6569  -20.2134   -8.6204 C   0  0  0  0  0  0  0  0  0  0  0  0
   24.4711  -20.4578   -8.2383 O   0  0  0  0  0  0  0  0  0  0  0  0
   25.8978  -18.9652   -9.1831 O   0  0  0  0  0  0  0  0  0  0  0  0
  2  1  1  1
  2  3  1  0
  3  4  1  0
  4  5  1  0
  6  7  1  0
  6  5  1  0
  8  2  1  0
  8 10  1  0
  9  8  2  0
 10 14  1  0
 11 10  1  0
 12 13  1  0
 12 11  1  0
 13 14  1  0
 14 15  1  1
 15 16  2  0
 15 22  1  0
 17 18  1  0
 18 19  1  0
 19 20  1  0
 21 20  1  1
 21 23  1  0
 22 21  1  0
 23 24  2  0
 23 25  1  0
M  END
$$$$
