KPM.pdb
     RDKit          3D

 25 25  0  0  1  0  0  0  0  0999 V2000
   22.5625  -21.9114  -14.0722 N   0  0  0  0  0  0  0  0  0  0  0  0
   23.5115  -20.9190  -13.7470 C   0  0  1  0  0  0  0  0  0  0  0  0
   22.9923  -19.5308  -13.5329 C   0  0  0  0  0  0  0  0  0  0  0  0
   22.7000  -18.7688  -14.7662 C   0  0  0  0  0  0  0  0  0  0  0  0
   21.4282  -19.1704  -15.4181 C   0  0  0  0  0  0  0  0  0  0  0  0
   21.1673  -18.3118  -16.6749 C   0  0  0  0  0  0  0  0  0  0  0  0
   20.1849  -17.2975  -16.3854 N   0  0  0  0  0  0  0  0  0  0  0  0
   24.3737  -21.3061  -12.5948 C   0  0  0  0  0  0  0  0  0  0  0  0
   23.7432  -21.8651  -11.6434 O   0  0  0  0  0  0  0  0  0  0  0  0
   25.7521  -21.1205  -12.4665 N   0  0  0  0  0  0  0  0  0  0  0  0
   26.6068  -20.5194  -13.4475 C   0  0  0  0  0  0  0  0  0  0  0  0
   28.0095  -20.4497  -12.9163 C   0  0  0  0  0  0  0  0  0  0  0  0
   27.9950  -21.4736  -11.8019 C   0  0  0  0  0  0  0  0  0  0  0  0
   26.5533  -21.4931  -11.3473 C   0  0  1  0  0  0  0  0  0  0  0  0
   26.3932  -20.6279  -10.1734 C   0  0  0  0  0  0  0  0  0  0  0  0
   26.0789  -19.4226  -10.3472 O   0  0  0  0  0  0  0  0  0  0  0  0
   27.3644  -20.0219   -2.3142 C   0  0  0  0  0  0  0  0  0  0  0  0
   27.6652  -20.9831   -3.7965 S   0  0  0  0  0  0  0  0  0  0  0  0
   27.1293  -20.1686   -5.2988 C   0  0  0  0  0  0  0  0  0  0  0  0
   27.0299  -21.1150   -6.4777 C   0  0  0  0  0  0  0  0  0  0  0  0
   26.5633  -20.2985   -7.6798 C   0  0  2  0  0  0  0  0  0  0  0  0
   26.5872  -21.1332   -8.8626 N   0  0  0  0  0  0  0  0  0  0  0  0
   27.5496  -19.2078   -7.8825 C   0  0  0  0  0  0  0  0  0  0  0  0
   27.3951  -18.0636   -7.3546 O   0  0  0  0  0  0  0  0  0  0  0  0
   28.6850  -19.3992   -8.6617 O   0  0  0  0  0  0  0  0  0  0  0  0
  2  1  1  1
  2  3  1  0
  3  4  1  0
  4  5  1  0
  6  7  1  0
  6  5  1  0
  8  2  1  0
  8 10  1  0
  9  8  2  0
 10 14  1  0
 11 10  1  0
 12 13  1  0
 12 11  1  0
 13 14  1  0
 14 15  1  1
 15 16  2  0
 15 22  1  0
 17 18  1  0
 18 19  1  0
 19 20  1  0
 21 20  1  1
 21 23  1  0
 22 21  1  0
 23 24  2  0
 23 25  1  0
M  END
$$$$
