KPM.pdb
     RDKit          3D

 25 25  0  0  1  0  0  0  0  0999 V2000
   24.3967  -22.2852  -12.5388 N   0  0  0  0  0  0  0  0  0  0  0  0
   25.3633  -21.2748  -12.3493 C   0  0  1  0  0  0  0  0  0  0  0  0
   24.8868  -19.8578  -12.4366 C   0  0  0  0  0  0  0  0  0  0  0  0
   23.8072  -19.6141  -13.4175 C   0  0  0  0  0  0  0  0  0  0  0  0
   22.4912  -20.1512  -12.9893 C   0  0  0  0  0  0  0  0  0  0  0  0
   21.3689  -19.6464  -13.9222 C   0  0  0  0  0  0  0  0  0  0  0  0
   21.4798  -20.2755  -15.2143 N   0  0  0  0  0  0  0  0  0  0  0  0
   26.1431  -21.4562  -11.0924 C   0  0  0  0  0  0  0  0  0  0  0  0
   25.4360  -21.7869  -10.0895 O   0  0  0  0  0  0  0  0  0  0  0  0
   27.5206  -21.3035  -10.9191 N   0  0  0  0  0  0  0  0  0  0  0  0
   28.4630  -21.0048  -11.9569 C   0  0  0  0  0  0  0  0  0  0  0  0
   29.8353  -20.8642  -11.3639 C   0  0  0  0  0  0  0  0  0  0  0  0
   29.6980  -21.5742  -10.0343 C   0  0  0  0  0  0  0  0  0  0  0  0
   28.2344  -21.4173   -9.6899 C   0  0  1  0  0  0  0  0  0  0  0  0
   28.0595  -20.2792   -8.7808 C   0  0  0  0  0  0  0  0  0  0  0  0
   27.2224  -19.3889   -9.0783 O   0  0  0  0  0  0  0  0  0  0  0  0
   24.1579  -21.5681   -5.0284 C   0  0  0  0  0  0  0  0  0  0  0  0
   25.3939  -21.1157   -3.8122 S   0  0  0  0  0  0  0  0  0  0  0  0
   26.7361  -20.1390   -4.4848 C   0  0  0  0  0  0  0  0  0  0  0  0
   27.2726  -20.6950   -5.7879 C   0  0  0  0  0  0  0  0  0  0  0  0
   28.2689  -19.6796   -6.3411 C   0  0  2  0  0  0  0  0  0  0  0  0
   28.8164  -20.1769   -7.5858 N   0  0  0  0  0  0  0  0  0  0  0  0
   29.3861  -19.5823   -5.3686 C   0  0  0  0  0  0  0  0  0  0  0  0
   30.1642  -20.5611   -5.1481 O   0  0  0  0  0  0  0  0  0  0  0  0
   29.6236  -18.4104   -4.6595 O   0  0  0  0  0  0  0  0  0  0  0  0
  2  1  1  1
  2  3  1  0
  3  4  1  0
  4  5  1  0
  6  7  1  0
  6  5  1  0
  8  2  1  0
  8 10  1  0
  9  8  2  0
 10 14  1  0
 11 10  1  0
 12 13  1  0
 12 11  1  0
 13 14  1  0
 14 15  1  1
 15 16  2  0
 15 22  1  0
 17 18  1  0
 18 19  1  0
 19 20  1  0
 21 20  1  1
 21 23  1  0
 22 21  1  0
 23 24  2  0
 23 25  1  0
M  END
$$$$
