KPM.pdb
     RDKit          3D

 25 25  0  0  1  0  0  0  0  0999 V2000
   21.1711  -21.0429  -12.8289 N   0  0  0  0  0  0  0  0  0  0  0  0
   22.4334  -20.4307  -12.9813 C   0  0  1  0  0  0  0  0  0  0  0  0
   22.4484  -18.9416  -13.1392 C   0  0  0  0  0  0  0  0  0  0  0  0
   22.6200  -18.4554  -14.5253 C   0  0  0  0  0  0  0  0  0  0  0  0
   21.8983  -19.2761  -15.5300 C   0  0  0  0  0  0  0  0  0  0  0  0
   22.1837  -18.7617  -16.9578 C   0  0  0  0  0  0  0  0  0  0  0  0
   21.4709  -19.5606  -17.9228 N   0  0  0  0  0  0  0  0  0  0  0  0
   23.3934  -20.8227  -11.9110 C   0  0  0  0  0  0  0  0  0  0  0  0
   22.8957  -20.8108  -10.7417 O   0  0  0  0  0  0  0  0  0  0  0  0
   24.7330  -21.1869  -12.0647 N   0  0  0  0  0  0  0  0  0  0  0  0
   25.4505  -21.2199  -13.3051 C   0  0  0  0  0  0  0  0  0  0  0  0
   26.8787  -21.6062  -13.0489 C   0  0  0  0  0  0  0  0  0  0  0  0
   26.8080  -22.2580  -11.6848 C   0  0  0  0  0  0  0  0  0  0  0  0
   25.6226  -21.5900  -11.0258 C   0  0  1  0  0  0  0  0  0  0  0  0
   26.0864  -20.4947  -10.1672 C   0  0  0  0  0  0  0  0  0  0  0  0
   26.2497  -19.3551  -10.6736 O   0  0  0  0  0  0  0  0  0  0  0  0
   26.7199  -19.0429   -3.1448 C   0  0  0  0  0  0  0  0  0  0  0  0
   28.1234  -19.7358   -4.0177 S   0  0  0  0  0  0  0  0  0  0  0  0
   28.1150  -19.3905   -5.7751 C   0  0  0  0  0  0  0  0  0  0  0  0
   27.1783  -20.2963   -6.5480 C   0  0  0  0  0  0  0  0  0  0  0  0
   27.2318  -19.8656   -8.0112 C   0  0  2  0  0  0  0  0  0  0  0  0
   26.3483  -20.7080   -8.7898 N   0  0  0  0  0  0  0  0  0  0  0  0
   28.6157  -20.1048   -8.4917 C   0  0  0  0  0  0  0  0  0  0  0  0
   28.9464  -21.1938   -9.0545 O   0  0  0  0  0  0  0  0  0  0  0  0
   29.6065  -19.1411   -8.3426 O   0  0  0  0  0  0  0  0  0  0  0  0
  2  1  1  1
  2  3  1  0
  3  4  1  0
  4  5  1  0
  6  7  1  0
  6  5  1  0
  8  2  1  0
  8 10  1  0
  9  8  2  0
 10 14  1  0
 11 10  1  0
 12 13  1  0
 12 11  1  0
 13 14  1  0
 14 15  1  6
 15 16  2  0
 15 22  1  0
 17 18  1  0
 18 19  1  0
 19 20  1  0
 21 20  1  1
 21 23  1  0
 22 21  1  0
 23 24  2  0
 23 25  1  0
M  END
$$$$
