KPM.pdb
     RDKit          3D

 25 25  0  0  1  0  0  0  0  0999 V2000
   23.3784  -18.1494  -15.5212 N   0  0  0  0  0  0  0  0  0  0  0  0
   24.6843  -18.0737  -14.9918 C   0  0  1  0  0  0  0  0  0  0  0  0
   25.2242  -16.7044  -14.7160 C   0  0  0  0  0  0  0  0  0  0  0  0
   25.3510  -15.8258  -15.8989 C   0  0  0  0  0  0  0  0  0  0  0  0
   24.0908  -15.6957  -16.6727 C   0  0  0  0  0  0  0  0  0  0  0  0
   24.2796  -14.7252  -17.8589 C   0  0  0  0  0  0  0  0  0  0  0  0
   23.8400  -13.4028  -17.4905 N   0  0  0  0  0  0  0  0  0  0  0  0
   24.8629  -18.9268  -13.7830 C   0  0  0  0  0  0  0  0  0  0  0  0
   24.0028  -18.7164  -12.8713 O   0  0  0  0  0  0  0  0  0  0  0  0
   25.8453  -19.8956  -13.5658 N   0  0  0  0  0  0  0  0  0  0  0  0
   26.8826  -20.2518  -14.4886 C   0  0  0  0  0  0  0  0  0  0  0  0
   27.7717  -21.2906  -13.8681 C   0  0  0  0  0  0  0  0  0  0  0  0
   26.9070  -21.8498  -12.7589 C   0  0  0  0  0  0  0  0  0  0  0  0
   25.9935  -20.7004  -12.3982 C   0  0  1  0  0  0  0  0  0  0  0  0
   26.5324  -19.9867  -11.2353 C   0  0  0  0  0  0  0  0  0  0  0  0
   27.5815  -19.3071  -11.3740 O   0  0  0  0  0  0  0  0  0  0  0  0
   29.1822  -18.5323   -4.8095 C   0  0  0  0  0  0  0  0  0  0  0  0
   27.4590  -18.8472   -5.1883 S   0  0  0  0  0  0  0  0  0  0  0  0
   27.2211  -20.0591   -6.4853 C   0  0  0  0  0  0  0  0  0  0  0  0
   26.5186  -19.4895   -7.7009 C   0  0  0  0  0  0  0  0  0  0  0  0
   26.5326  -20.5668   -8.7819 C   0  0  2  0  0  0  0  0  0  0  0  0
   25.8882  -20.0560   -9.9737 N   0  0  0  0  0  0  0  0  0  0  0  0
   25.7162  -21.7024   -8.2843 C   0  0  0  0  0  0  0  0  0  0  0  0
   26.2527  -22.7500   -7.8083 O   0  0  0  0  0  0  0  0  0  0  0  0
   24.3271  -21.6612   -8.3211 O   0  0  0  0  0  0  0  0  0  0  0  0
  2  1  1  1
  2  3  1  0
  3  4  1  0
  4  5  1  0
  6  7  1  0
  6  5  1  0
  8  2  1  0
  8 10  1  0
  9  8  2  0
 10 14  1  0
 11 10  1  0
 12 13  1  0
 12 11  1  0
 13 14  1  0
 14 15  1  1
 15 16  2  0
 15 22  1  0
 17 18  1  0
 18 19  1  0
 19 20  1  0
 21 20  1  1
 21 23  1  0
 22 21  1  0
 23 24  2  0
 23 25  1  0
M  END
$$$$
