NFW.pdb
     RDKit          3D

 34 36  0  0  1  0  0  0  0  0999 V2000
   23.8122  -22.2729  -19.1894 N   0  0  0  0  0  0  0  0  0  0  0  0
   25.0731  -21.6452  -19.0847 C   0  0  0  0  0  0  0  0  0  0  0  0
   25.6618  -21.2411  -20.1103 O   0  0  0  0  0  0  0  0  0  0  0  0
   25.6867  -21.4718  -17.7550 C   0  0  0  0  0  0  0  0  0  0  0  0
   27.2001  -21.5411  -17.8933 C   0  0  2  0  0  0  0  0  0  0  0  0
   27.6497  -22.5747  -18.7562 N   0  0  0  0  0  0  0  0  0  0  0  0
   27.7741  -21.5639  -16.5368 C   0  0  0  0  0  0  0  0  0  0  0  0
   28.3036  -22.6487  -16.1612 O   0  0  0  0  0  0  0  0  0  0  0  0
   27.7732  -20.4673  -15.6356 N   0  0  0  0  0  0  0  0  0  0  0  0
   28.4707  -20.4865  -14.3566 C   0  0  1  0  0  0  0  0  0  0  0  0
   29.0325  -19.1277  -14.0931 C   0  0  0  0  0  0  0  0  0  0  0  0
   28.2234  -18.0292  -14.6255 C   0  0  0  0  0  0  0  0  0  0  0  0
   27.3332  -17.3178  -13.8534 C   0  0  0  0  0  0  0  0  0  0  0  0
   26.5769  -16.2743  -14.3922 C   0  0  0  0  0  0  0  0  0  0  0  0
   26.7004  -15.9258  -15.7162 C   0  0  0  0  0  0  0  0  0  0  0  0
   27.5880  -16.6323  -16.4941 C   0  0  0  0  0  0  0  0  0  0  0  0
   28.3301  -17.6632  -15.9465 C   0  0  0  0  0  0  0  0  0  0  0  0
   27.6108  -20.9896  -13.2710 C   0  0  0  0  0  0  0  0  0  0  0  0
   28.1265  -21.6424  -12.3297 O   0  0  0  0  0  0  0  0  0  0  0  0
   26.2073  -20.7730  -13.2306 N   0  0  0  0  0  0  0  0  0  0  0  0
   25.2713  -21.7023  -12.6542 C   0  0  1  0  0  0  0  0  0  0  0  0
   25.7502  -22.2504  -11.3277 C   0  0  0  0  0  0  0  0  0  0  0  0
   26.0161  -21.1607  -10.3608 C   0  0  0  0  0  0  0  0  0  0  0  0
   25.0763  -20.2678   -9.9006 C   0  0  0  0  0  0  0  0  0  0  0  0
   25.6167  -19.3992   -9.0361 N   0  0  0  0  0  0  0  0  0  0  0  0
   26.9181  -19.7343   -8.9370 C   0  0  0  0  0  0  0  0  0  0  0  0
   27.9656  -19.1895   -8.1924 C   0  0  0  0  0  0  0  0  0  0  0  0
   29.2227  -19.7306   -8.2747 C   0  0  0  0  0  0  0  0  0  0  0  0
   29.4867  -20.8123   -9.0828 C   0  0  0  0  0  0  0  0  0  0  0  0
   28.4658  -21.3632   -9.8247 C   0  0  0  0  0  0  0  0  0  0  0  0
   27.1978  -20.8189   -9.7430 C   0  0  0  0  0  0  0  0  0  0  0  0
   23.9921  -20.9891  -12.4103 C   0  0  0  0  0  0  0  0  0  0  0  0
   23.8533  -19.7505  -12.5721 O   0  0  0  0  0  0  0  0  0  0  0  0
   22.8629  -21.6800  -11.9808 O   0  0  0  0  0  0  0  0  0  0  0  0
  2  1  1  0
  2  3  2  0
  4  2  1  0
  5  7  1  0
  5  4  1  0
  5  6  1  1
  7  8  2  0
  9 10  1  0
  9  7  1  0
 10 11  1  1
 11 12  1  0
 12 17  2  0
 13 14  2  0
 13 12  1  0
 14 15  1  0
 15 16  2  0
 17 16  1  0
 18 10  1  0
 19 18  2  0
 20 18  1  0
 21 20  1  0
 21 22  1  1
 22 23  1  0
 23 31  1  0
 24 25  1  0
 24 23  2  0
 25 26  1  0
 26 31  2  0
 26 27  1  0
 27 28  2  0
 28 29  1  0
 30 29  2  0
 31 30  1  0
 32 21  1  0
 32 34  1  0
 33 32  2  0
M  END
$$$$
