NFW.pdb
     RDKit          3D

 34 36  0  0  1  0  0  0  0  0999 V2000
   16.8382  -25.0339    7.7703 N   0  0  0  0  0  0  0  0  0  0  0  0
   16.4583  -23.6775    7.8745 C   0  0  0  0  0  0  0  0  0  0  0  0
   15.3917  -23.3649    8.4459 O   0  0  0  0  0  0  0  0  0  0  0  0
   17.3317  -22.6358    7.3029 C   0  0  0  0  0  0  0  0  0  0  0  0
   16.5294  -21.8014    6.3158 C   0  0  2  0  0  0  0  0  0  0  0  0
   16.1704  -22.5007    5.1338 N   0  0  0  0  0  0  0  0  0  0  0  0
   17.2571  -20.5389    6.0998 C   0  0  0  0  0  0  0  0  0  0  0  0
   18.4451  -20.6319    5.6775 O   0  0  0  0  0  0  0  0  0  0  0  0
   16.7236  -19.2439    6.3304 N   0  0  0  0  0  0  0  0  0  0  0  0
   17.4046  -18.0191    5.9321 C   0  0  1  0  0  0  0  0  0  0  0  0
   16.6358  -17.3784    4.8231 C   0  0  0  0  0  0  0  0  0  0  0  0
   16.7348  -18.0784    3.5406 C   0  0  0  0  0  0  0  0  0  0  0  0
   17.8988  -18.1289    2.8076 C   0  0  0  0  0  0  0  0  0  0  0  0
   17.9599  -18.8065    1.5876 C   0  0  0  0  0  0  0  0  0  0  0  0
   16.8536  -19.4460    1.0811 C   0  0  0  0  0  0  0  0  0  0  0  0
   15.6867  -19.3999    1.8080 C   0  0  0  0  0  0  0  0  0  0  0  0
   15.6413  -18.7249    3.0145 C   0  0  0  0  0  0  0  0  0  0  0  0
   17.6402  -17.1251    7.0794 C   0  0  0  0  0  0  0  0  0  0  0  0
   16.8532  -17.1592    8.0580 O   0  0  0  0  0  0  0  0  0  0  0  0
   18.7267  -16.2116    7.1398 N   0  0  0  0  0  0  0  0  0  0  0  0
   19.0090  -15.3795    8.2798 C   0  0  1  0  0  0  0  0  0  0  0  0
   20.2818  -14.5803    8.1055 C   0  0  0  0  0  0  0  0  0  0  0  0
   20.1106  -13.5110    7.0953 C   0  0  0  0  0  0  0  0  0  0  0  0
   20.5084  -12.2039    7.2551 C   0  0  0  0  0  0  0  0  0  0  0  0
   20.2190  -11.4740    6.1702 N   0  0  0  0  0  0  0  0  0  0  0  0
   19.6286  -12.3177    5.3011 C   0  0  0  0  0  0  0  0  0  0  0  0
   19.1172  -12.1239    4.0168 C   0  0  0  0  0  0  0  0  0  0  0  0
   18.5561  -13.1721    3.3340 C   0  0  0  0  0  0  0  0  0  0  0  0
   18.4808  -14.4300    3.8862 C   0  0  0  0  0  0  0  0  0  0  0  0
   18.9801  -14.6402    5.1521 C   0  0  0  0  0  0  0  0  0  0  0  0
   19.5461  -13.5846    5.8420 C   0  0  0  0  0  0  0  0  0  0  0  0
   17.8920  -14.4153    8.4447 C   0  0  0  0  0  0  0  0  0  0  0  0
   16.9601  -14.2927    7.6105 O   0  0  0  0  0  0  0  0  0  0  0  0
   17.8279  -13.5844    9.5595 O   0  0  0  0  0  0  0  0  0  0  0  0
  2  1  1  0
  2  3  2  0
  4  2  1  0
  5  7  1  0
  5  4  1  0
  5  6  1  6
  7  8  2  0
  9 10  1  0
  9  7  1  0
 10 11  1  6
 11 12  1  0
 12 17  2  0
 13 14  2  0
 13 12  1  0
 14 15  1  0
 15 16  2  0
 17 16  1  0
 18 10  1  0
 19 18  2  0
 20 18  1  0
 21 20  1  0
 21 22  1  6
 22 23  1  0
 23 31  1  0
 24 25  1  0
 24 23  2  0
 25 26  1  0
 26 31  2  0
 26 27  1  0
 27 28  2  0
 28 29  1  0
 30 29  2  0
 31 30  1  0
 32 21  1  0
 32 34  1  0
 33 32  2  0
M  END
$$$$
