NFW.pdb
     RDKit          3D

 34 36  0  0  1  0  0  0  0  0999 V2000
   28.5460  -23.6595  -17.7839 N   0  0  0  0  0  0  0  0  0  0  0  0
   29.2945  -23.2571  -16.6558 C   0  0  0  0  0  0  0  0  0  0  0  0
   30.3443  -23.8618  -16.3489 O   0  0  0  0  0  0  0  0  0  0  0  0
   28.8255  -22.1179  -15.8453 C   0  0  0  0  0  0  0  0  0  0  0  0
   27.4804  -21.6488  -16.3790 C   0  0  2  0  0  0  0  0  0  0  0  0
   27.5646  -20.9572  -17.6159 N   0  0  0  0  0  0  0  0  0  0  0  0
   26.7989  -20.9169  -15.2974 C   0  0  0  0  0  0  0  0  0  0  0  0
   27.2232  -19.7536  -15.0422 O   0  0  0  0  0  0  0  0  0  0  0  0
   25.7144  -21.4210  -14.5330 N   0  0  0  0  0  0  0  0  0  0  0  0
   25.0216  -20.6368  -13.5192 C   0  0  1  0  0  0  0  0  0  0  0  0
   23.5788  -20.5332  -13.8920 C   0  0  0  0  0  0  0  0  0  0  0  0
   23.3030  -19.5777  -14.9670 C   0  0  0  0  0  0  0  0  0  0  0  0
   23.1468  -18.2287  -14.7424 C   0  0  0  0  0  0  0  0  0  0  0  0
   22.8854  -17.3434  -15.7909 C   0  0  0  0  0  0  0  0  0  0  0  0
   22.7761  -17.7963  -17.0842 C   0  0  0  0  0  0  0  0  0  0  0  0
   22.9310  -19.1432  -17.3164 C   0  0  0  0  0  0  0  0  0  0  0  0
   23.1895  -20.0078  -16.2680 C   0  0  0  0  0  0  0  0  0  0  0  0
   25.2436  -21.1734  -12.1650 C   0  0  0  0  0  0  0  0  0  0  0  0
   25.0157  -22.3880  -11.9392 O   0  0  0  0  0  0  0  0  0  0  0  0
   25.7087  -20.3785  -11.0832 N   0  0  0  0  0  0  0  0  0  0  0  0
   25.9323  -20.8876   -9.7555 C   0  0  1  0  0  0  0  0  0  0  0  0
   26.8672  -20.0086   -8.9539 C   0  0  0  0  0  0  0  0  0  0  0  0
   26.9967  -20.4926   -7.5603 C   0  0  0  0  0  0  0  0  0  0  0  0
   26.6245  -21.7421   -7.1215 C   0  0  0  0  0  0  0  0  0  0  0  0
   26.8630  -21.8857   -5.8114 N   0  0  0  0  0  0  0  0  0  0  0  0
   27.3943  -20.7177   -5.4001 C   0  0  0  0  0  0  0  0  0  0  0  0
   27.8360  -20.2853   -4.1485 C   0  0  0  0  0  0  0  0  0  0  0  0
   28.3450  -19.0213   -3.9971 C   0  0  0  0  0  0  0  0  0  0  0  0
   28.4347  -18.1520   -5.0597 C   0  0  0  0  0  0  0  0  0  0  0  0
   28.0040  -18.5609   -6.3020 C   0  0  0  0  0  0  0  0  0  0  0  0
   27.4906  -19.8349   -6.4564 C   0  0  0  0  0  0  0  0  0  0  0  0
   24.6305  -20.9265   -9.0426 C   0  0  0  0  0  0  0  0  0  0  0  0
   24.3398  -21.8012   -8.1883 O   0  0  0  0  0  0  0  0  0  0  0  0
   23.6511  -19.9709   -9.2969 O   0  0  0  0  0  0  0  0  0  0  0  0
  2  1  1  0
  2  3  2  0
  4  2  1  0
  5  7  1  0
  5  4  1  0
  5  6  1  6
  7  8  2  0
  9 10  1  0
  9  7  1  0
 10 11  1  6
 11 12  1  0
 12 17  2  0
 13 14  2  0
 13 12  1  0
 14 15  1  0
 15 16  2  0
 17 16  1  0
 18 10  1  0
 19 18  2  0
 20 18  1  0
 21 20  1  0
 21 22  1  1
 22 23  1  0
 23 31  1  0
 24 25  1  0
 24 23  2  0
 25 26  1  0
 26 31  2  0
 26 27  1  0
 27 28  2  0
 28 29  1  0
 30 29  2  0
 31 30  1  0
 32 21  1  0
 32 34  1  0
 33 32  2  0
M  END
$$$$
