NFW.pdb
     RDKit          3D

 34 36  0  0  1  0  0  0  0  0999 V2000
   27.6811  -21.6677  -20.7381 N   0  0  0  0  0  0  0  0  0  0  0  0
   27.8636  -21.0720  -19.4706 C   0  0  0  0  0  0  0  0  0  0  0  0
   28.6575  -20.1168  -19.3327 O   0  0  0  0  0  0  0  0  0  0  0  0
   27.1090  -21.5880  -18.3134 C   0  0  0  0  0  0  0  0  0  0  0  0
   28.0867  -21.9642  -17.2103 C   0  0  2  0  0  0  0  0  0  0  0  0
   28.8910  -23.0927  -17.5180 N   0  0  0  0  0  0  0  0  0  0  0  0
   27.3277  -22.0606  -15.9514 C   0  0  0  0  0  0  0  0  0  0  0  0
   26.4882  -23.0018  -15.8639 O   0  0  0  0  0  0  0  0  0  0  0  0
   27.4720  -21.1817  -14.8463 N   0  0  0  0  0  0  0  0  0  0  0  0
   26.6096  -21.2286  -13.6730 C   0  0  1  0  0  0  0  0  0  0  0  0
   27.3448  -20.6466  -12.5102 C   0  0  0  0  0  0  0  0  0  0  0  0
   26.5247  -20.4648  -11.3106 C   0  0  0  0  0  0  0  0  0  0  0  0
   26.2232  -21.4968  -10.4511 C   0  0  0  0  0  0  0  0  0  0  0  0
   25.4386  -21.2894   -9.3142 C   0  0  0  0  0  0  0  0  0  0  0  0
   24.9421  -20.0419   -9.0193 C   0  0  0  0  0  0  0  0  0  0  0  0
   25.2392  -19.0056   -9.8736 C   0  0  0  0  0  0  0  0  0  0  0  0
   26.0174  -19.2263  -10.9957 C   0  0  0  0  0  0  0  0  0  0  0  0
   25.3057  -20.5905  -13.9254 C   0  0  0  0  0  0  0  0  0  0  0  0
   25.2704  -19.4019  -14.3306 O   0  0  0  0  0  0  0  0  0  0  0  0
   24.0662  -21.2573  -13.7320 N   0  0  0  0  0  0  0  0  0  0  0  0
   22.7840  -20.6375  -13.9405 C   0  0  1  0  0  0  0  0  0  0  0  0
   22.4493  -20.4915  -15.4089 C   0  0  0  0  0  0  0  0  0  0  0  0
   21.1714  -19.7677  -15.5991 C   0  0  0  0  0  0  0  0  0  0  0  0
   20.9517  -18.4527  -15.2602 C   0  0  0  0  0  0  0  0  0  0  0  0
   19.6986  -18.0807  -15.5519 N   0  0  0  0  0  0  0  0  0  0  0  0
   19.1031  -19.1660  -16.0842 C   0  0  0  0  0  0  0  0  0  0  0  0
   17.8110  -19.3750  -16.5693 C   0  0  0  0  0  0  0  0  0  0  0  0
   17.4529  -20.6009  -17.0679 C   0  0  0  0  0  0  0  0  0  0  0  0
   18.3440  -21.6485  -17.1049 C   0  0  0  0  0  0  0  0  0  0  0  0
   19.6231  -21.4611  -16.6308 C   0  0  0  0  0  0  0  0  0  0  0  0
   19.9858  -20.2258  -16.1277 C   0  0  0  0  0  0  0  0  0  0  0  0
   21.7417  -21.4976  -13.3255 C   0  0  0  0  0  0  0  0  0  0  0  0
   21.8138  -22.7520  -13.2967 O   0  0  0  0  0  0  0  0  0  0  0  0
   20.6110  -20.9365  -12.7393 O   0  0  0  0  0  0  0  0  0  0  0  0
  2  1  1  0
  2  3  2  0
  4  2  1  0
  5  7  1  0
  5  4  1  0
  5  6  1  6
  7  8  2  0
  9 10  1  0
  9  7  1  0
 10 11  1  1
 11 12  1  0
 12 17  2  0
 13 14  2  0
 13 12  1  0
 14 15  1  0
 15 16  2  0
 17 16  1  0
 18 10  1  0
 19 18  2  0
 20 18  1  0
 21 20  1  0
 21 22  1  6
 22 23  1  0
 23 31  1  0
 24 25  1  0
 24 23  2  0
 25 26  1  0
 26 31  2  0
 26 27  1  0
 27 28  2  0
 28 29  1  0
 30 29  2  0
 31 30  1  0
 32 21  1  0
 32 34  1  0
 33 32  2  0
M  END
$$$$
