NFW.pdb
     RDKit          3D

 34 36  0  0  1  0  0  0  0  0999 V2000
   22.4167  -21.0105  -18.7445 N   0  0  0  0  0  0  0  0  0  0  0  0
   21.8861  -21.5781  -17.5650 C   0  0  0  0  0  0  0  0  0  0  0  0
   20.6965  -21.3674  -17.2453 O   0  0  0  0  0  0  0  0  0  0  0  0
   22.7489  -22.4204  -16.7160 C   0  0  0  0  0  0  0  0  0  0  0  0
   24.1322  -22.5057  -17.3434 C   0  0  2  0  0  0  0  0  0  0  0  0
   24.2696  -23.5578  -18.2864 N   0  0  0  0  0  0  0  0  0  0  0  0
   25.1208  -22.5105  -16.2513 C   0  0  0  0  0  0  0  0  0  0  0  0
   25.3415  -23.6208  -15.6884 O   0  0  0  0  0  0  0  0  0  0  0  0
   25.8320  -21.3704  -15.7940 N   0  0  0  0  0  0  0  0  0  0  0  0
   26.7507  -21.4048  -14.6638 C   0  0  1  0  0  0  0  0  0  0  0  0
   27.9088  -20.5076  -14.9559 C   0  0  0  0  0  0  0  0  0  0  0  0
   28.8972  -20.4320  -13.8780 C   0  0  0  0  0  0  0  0  0  0  0  0
   29.8017  -21.4383  -13.6249 C   0  0  0  0  0  0  0  0  0  0  0  0
   30.7328  -21.3342  -12.5888 C   0  0  0  0  0  0  0  0  0  0  0  0
   30.7730  -20.2179  -11.7877 C   0  0  0  0  0  0  0  0  0  0  0  0
   29.8723  -19.2081  -12.0345 C   0  0  0  0  0  0  0  0  0  0  0  0
   28.9559  -19.3254  -13.0641 C   0  0  0  0  0  0  0  0  0  0  0  0
   26.0698  -21.0942  -13.3945 C   0  0  0  0  0  0  0  0  0  0  0  0
   25.1990  -20.1892  -13.3685 O   0  0  0  0  0  0  0  0  0  0  0  0
   26.3495  -21.7739  -12.1786 N   0  0  0  0  0  0  0  0  0  0  0  0
   25.8451  -21.3582  -10.8962 C   0  0  1  0  0  0  0  0  0  0  0  0
   26.7490  -21.7822   -9.7593 C   0  0  0  0  0  0  0  0  0  0  0  0
   26.7909  -20.7540   -8.6943 C   0  0  0  0  0  0  0  0  0  0  0  0
   25.7808  -19.8615   -8.4195 C   0  0  0  0  0  0  0  0  0  0  0  0
   26.1106  -19.0561   -7.4015 N   0  0  0  0  0  0  0  0  0  0  0  0
   27.3455  -19.4321   -7.0150 C   0  0  0  0  0  0  0  0  0  0  0  0
   28.1918  -18.9576   -6.0113 C   0  0  0  0  0  0  0  0  0  0  0  0
   29.4242  -19.5281   -5.8235 C   0  0  0  0  0  0  0  0  0  0  0  0
   29.8589  -20.5716   -6.6078 C   0  0  0  0  0  0  0  0  0  0  0  0
   29.0377  -21.0531   -7.6028 C   0  0  0  0  0  0  0  0  0  0  0  0
   27.7949  -20.4791   -7.7936 C   0  0  0  0  0  0  0  0  0  0  0  0
   25.7687  -19.8755  -10.8804 C   0  0  0  0  0  0  0  0  0  0  0  0
   26.6788  -19.1349  -11.3307 O   0  0  0  0  0  0  0  0  0  0  0  0
   24.6569  -19.2258  -10.3526 O   0  0  0  0  0  0  0  0  0  0  0  0
  2  1  1  0
  2  3  2  0
  4  2  1  0
  5  7  1  0
  5  4  1  0
  5  6  1  1
  7  8  2  0
  9 10  1  0
  9  7  1  0
 10 11  1  6
 11 12  1  0
 12 17  2  0
 13 14  2  0
 13 12  1  0
 14 15  1  0
 15 16  2  0
 17 16  1  0
 18 10  1  0
 19 18  2  0
 20 18  1  0
 21 20  1  0
 21 22  1  1
 22 23  1  0
 23 31  1  0
 24 25  1  0
 24 23  2  0
 25 26  1  0
 26 31  2  0
 26 27  1  0
 27 28  2  0
 28 29  1  0
 30 29  2  0
 31 30  1  0
 32 21  1  0
 32 34  1  0
 33 32  2  0
M  END
$$$$
