NFW.pdb
     RDKit          3D

 34 36  0  0  1  0  0  0  0  0999 V2000
   28.4884  -23.0540  -19.5293 N   0  0  0  0  0  0  0  0  0  0  0  0
   27.2114  -23.6409  -19.3891 C   0  0  0  0  0  0  0  0  0  0  0  0
   26.5843  -24.0316  -20.3970 O   0  0  0  0  0  0  0  0  0  0  0  0
   26.6266  -23.7877  -18.0433 C   0  0  0  0  0  0  0  0  0  0  0  0
   27.6331  -23.3066  -17.0090 C   0  0  2  0  0  0  0  0  0  0  0  0
   28.6495  -24.2531  -16.7153 N   0  0  0  0  0  0  0  0  0  0  0  0
   26.8786  -22.8158  -15.8428 C   0  0  0  0  0  0  0  0  0  0  0  0
   26.5086  -23.6816  -14.9991 O   0  0  0  0  0  0  0  0  0  0  0  0
   26.5432  -21.4573  -15.6053 N   0  0  0  0  0  0  0  0  0  0  0  0
   25.8947  -20.9985  -14.3839 C   0  0  1  0  0  0  0  0  0  0  0  0
   26.6804  -19.8607  -13.8186 C   0  0  0  0  0  0  0  0  0  0  0  0
   27.7819  -20.2673  -12.9434 C   0  0  0  0  0  0  0  0  0  0  0  0
   27.5806  -20.9022  -11.7388 C   0  0  0  0  0  0  0  0  0  0  0  0
   28.6539  -21.2779  -10.9276 C   0  0  0  0  0  0  0  0  0  0  0  0
   29.9492  -21.0232  -11.3109 C   0  0  0  0  0  0  0  0  0  0  0  0
   30.1583  -20.3891  -12.5134 C   0  0  0  0  0  0  0  0  0  0  0  0
   29.0854  -20.0229  -13.3061 C   0  0  0  0  0  0  0  0  0  0  0  0
   24.4728  -20.6811  -14.6044 C   0  0  0  0  0  0  0  0  0  0  0  0
   24.1348  -20.0585  -15.6417 O   0  0  0  0  0  0  0  0  0  0  0  0
   23.4467  -21.0470  -13.6924 N   0  0  0  0  0  0  0  0  0  0  0  0
   22.0418  -20.9025  -13.9699 C   0  0  1  0  0  0  0  0  0  0  0  0
   21.1804  -21.6428  -12.9702 C   0  0  0  0  0  0  0  0  0  0  0  0
   21.5433  -21.2851  -11.5797 C   0  0  0  0  0  0  0  0  0  0  0  0
   22.4916  -20.3532  -11.2268 C   0  0  0  0  0  0  0  0  0  0  0  0
   22.5963  -20.2496   -9.8956 N   0  0  0  0  0  0  0  0  0  0  0  0
   21.7070  -21.1231   -9.3837 C   0  0  0  0  0  0  0  0  0  0  0  0
   21.3745  -21.4497   -8.0679 C   0  0  0  0  0  0  0  0  0  0  0  0
   20.4135  -22.3944   -7.8151 C   0  0  0  0  0  0  0  0  0  0  0  0
   19.7564  -23.0406   -8.8365 C   0  0  0  0  0  0  0  0  0  0  0  0
   20.0709  -22.7314  -10.1410 C   0  0  0  0  0  0  0  0  0  0  0  0
   21.0396  -21.7794  -10.3977 C   0  0  0  0  0  0  0  0  0  0  0  0
   21.6925  -19.4619  -13.8840 C   0  0  0  0  0  0  0  0  0  0  0  0
   20.5576  -19.0103  -14.1801 O   0  0  0  0  0  0  0  0  0  0  0  0
   22.6316  -18.5260  -13.4608 O   0  0  0  0  0  0  0  0  0  0  0  0
  2  1  1  0
  2  3  2  0
  4  2  1  0
  5  7  1  0
  5  4  1  0
  5  6  1  1
  7  8  2  0
  9 10  1  0
  9  7  1  0
 10 11  1  6
 11 12  1  0
 12 17  2  0
 13 14  2  0
 13 12  1  0
 14 15  1  0
 15 16  2  0
 17 16  1  0
 18 10  1  0
 19 18  2  0
 20 18  1  0
 21 20  1  0
 21 22  1  1
 22 23  1  0
 23 31  1  0
 24 25  1  0
 24 23  2  0
 25 26  1  0
 26 31  2  0
 26 27  1  0
 27 28  2  0
 28 29  1  0
 30 29  2  0
 31 30  1  0
 32 21  1  0
 32 34  1  0
 33 32  2  0
M  END
$$$$
