NFW.pdb
     RDKit          3D

 34 36  0  0  1  0  0  0  0  0999 V2000
   17.4750  -29.3732   -3.1439 N   0  0  0  0  0  0  0  0  0  0  0  0
   16.3781  -28.5388   -3.4529 C   0  0  0  0  0  0  0  0  0  0  0  0
   15.5045  -28.9212   -4.2606 O   0  0  0  0  0  0  0  0  0  0  0  0
   16.2745  -27.2139   -2.8136 C   0  0  0  0  0  0  0  0  0  0  0  0
   16.2506  -26.1420   -3.8928 C   0  0  2  0  0  0  0  0  0  0  0  0
   17.3970  -26.1464   -4.7300 N   0  0  0  0  0  0  0  0  0  0  0  0
   15.9568  -24.8544   -3.2401 C   0  0  0  0  0  0  0  0  0  0  0  0
   16.8956  -24.3235   -2.5806 O   0  0  0  0  0  0  0  0  0  0  0  0
   14.7098  -24.1791   -3.2998 N   0  0  0  0  0  0  0  0  0  0  0  0
   14.4607  -22.9057   -2.6372 C   0  0  1  0  0  0  0  0  0  0  0  0
   14.5525  -21.8098   -3.6481 C   0  0  0  0  0  0  0  0  0  0  0  0
   13.8799  -22.1033   -4.9154 C   0  0  0  0  0  0  0  0  0  0  0  0
   12.5514  -21.8193   -5.1367 C   0  0  0  0  0  0  0  0  0  0  0  0
   11.9400  -22.1112   -6.3583 C   0  0  0  0  0  0  0  0  0  0  0  0
   12.6512  -22.6938   -7.3802 C   0  0  0  0  0  0  0  0  0  0  0  0
   13.9794  -22.9806   -7.1665 C   0  0  0  0  0  0  0  0  0  0  0  0
   14.5712  -22.6858   -5.9514 C   0  0  0  0  0  0  0  0  0  0  0  0
   13.1898  -22.9153   -1.8918 C   0  0  0  0  0  0  0  0  0  0  0  0
   12.2950  -23.7371   -2.2111 O   0  0  0  0  0  0  0  0  0  0  0  0
   12.9170  -22.0307   -0.8139 N   0  0  0  0  0  0  0  0  0  0  0  0
   11.6835  -22.0311   -0.0722 C   0  0  1  0  0  0  0  0  0  0  0  0
   11.8374  -22.6571    1.2967 C   0  0  0  0  0  0  0  0  0  0  0  0
   12.9069  -21.9909    2.0748 C   0  0  0  0  0  0  0  0  0  0  0  0
   12.7452  -20.8432    2.8157 C   0  0  0  0  0  0  0  0  0  0  0  0
   13.8921  -20.4828    3.4061 N   0  0  0  0  0  0  0  0  0  0  0  0
   14.8034  -21.4067    3.0431 C   0  0  0  0  0  0  0  0  0  0  0  0
   16.1578  -21.5489    3.3494 C   0  0  0  0  0  0  0  0  0  0  0  0
   16.8721  -22.6017    2.8383 C   0  0  0  0  0  0  0  0  0  0  0  0
   16.2840  -23.5375    2.0191 C   0  0  0  0  0  0  0  0  0  0  0  0
   14.9488  -23.4136    1.7060 C   0  0  0  0  0  0  0  0  0  0  0  0
   14.2271  -22.3529    2.2203 C   0  0  0  0  0  0  0  0  0  0  0  0
   11.2532  -20.6236    0.1232 C   0  0  0  0  0  0  0  0  0  0  0  0
   12.0296  -19.6432   -0.0016 O   0  0  0  0  0  0  0  0  0  0  0  0
    9.9374  -20.3222    0.4618 O   0  0  0  0  0  0  0  0  0  0  0  0
  2  1  1  0
  2  3  2  0
  4  2  1  0
  5  7  1  0
  5  4  1  0
  5  6  1  1
  7  8  2  0
  9 10  1  0
  9  7  1  0
 10 11  1  6
 11 12  1  0
 12 17  2  0
 13 14  2  0
 13 12  1  0
 14 15  1  0
 15 16  2  0
 17 16  1  0
 18 10  1  0
 19 18  2  0
 20 18  1  0
 21 20  1  0
 21 22  1  1
 22 23  1  0
 23 31  1  0
 24 25  1  0
 24 23  2  0
 25 26  1  0
 26 31  2  0
 26 27  1  0
 27 28  2  0
 28 29  1  0
 30 29  2  0
 31 30  1  0
 32 21  1  0
 32 34  1  0
 33 32  2  0
M  END
$$$$
