NFW.pdb
     RDKit          3D

 34 36  0  0  1  0  0  0  0  0999 V2000
   30.1718  -22.8725  -17.6080 N   0  0  0  0  0  0  0  0  0  0  0  0
   30.3881  -23.5962  -16.4146 C   0  0  0  0  0  0  0  0  0  0  0  0
   31.2441  -24.5059  -16.3768 O   0  0  0  0  0  0  0  0  0  0  0  0
   29.5948  -23.2678  -15.2156 C   0  0  0  0  0  0  0  0  0  0  0  0
   28.5425  -22.2329  -15.5842 C   0  0  2  0  0  0  0  0  0  0  0  0
   29.0814  -21.0332  -16.1186 N   0  0  0  0  0  0  0  0  0  0  0  0
   27.6579  -22.0577  -14.4194 C   0  0  0  0  0  0  0  0  0  0  0  0
   27.1422  -23.1050  -13.9339 O   0  0  0  0  0  0  0  0  0  0  0  0
   27.3491  -20.8117  -13.8137 N   0  0  0  0  0  0  0  0  0  0  0  0
   26.3951  -20.6714  -12.7216 C   0  0  1  0  0  0  0  0  0  0  0  0
   26.9004  -19.6372  -11.7695 C   0  0  0  0  0  0  0  0  0  0  0  0
   27.5071  -20.1845  -10.5541 C   0  0  0  0  0  0  0  0  0  0  0  0
   28.7812  -20.7046  -10.5270 C   0  0  0  0  0  0  0  0  0  0  0  0
   29.3311  -21.2182   -9.3501 C   0  0  0  0  0  0  0  0  0  0  0  0
   28.6117  -21.2192   -8.1787 C   0  0  0  0  0  0  0  0  0  0  0  0
   27.3377  -20.7011   -8.1980 C   0  0  0  0  0  0  0  0  0  0  0  0
   26.8065  -20.1960   -9.3711 C   0  0  0  0  0  0  0  0  0  0  0  0
   25.0328  -20.4030  -13.2150 C   0  0  0  0  0  0  0  0  0  0  0  0
   24.8339  -19.4170  -13.9675 O   0  0  0  0  0  0  0  0  0  0  0  0
   23.9140  -21.2122  -12.8802 N   0  0  0  0  0  0  0  0  0  0  0  0
   22.5866  -20.9918  -13.3914 C   0  0  1  0  0  0  0  0  0  0  0  0
   22.0719  -22.1757  -14.1805 C   0  0  0  0  0  0  0  0  0  0  0  0
   21.2795  -21.7366  -15.3521 C   0  0  0  0  0  0  0  0  0  0  0  0
   19.9783  -21.2933  -15.3030 C   0  0  0  0  0  0  0  0  0  0  0  0
   19.5317  -20.9675  -16.5229 N   0  0  0  0  0  0  0  0  0  0  0  0
   20.5545  -21.2027  -17.3682 C   0  0  0  0  0  0  0  0  0  0  0  0
   20.6736  -21.0503  -18.7506 C   0  0  0  0  0  0  0  0  0  0  0  0
   21.8494  -21.3693  -19.3794 C   0  0  0  0  0  0  0  0  0  0  0  0
   22.9332  -21.8430  -18.6768 C   0  0  0  0  0  0  0  0  0  0  0  0
   22.8344  -21.9998  -17.3123 C   0  0  0  0  0  0  0  0  0  0  0  0
   21.6497  -21.6788  -16.6767 C   0  0  0  0  0  0  0  0  0  0  0  0
   21.6698  -20.7850  -12.2420 C   0  0  0  0  0  0  0  0  0  0  0  0
   20.4212  -20.7079  -12.3631 O   0  0  0  0  0  0  0  0  0  0  0  0
   22.1671  -20.6648  -10.9477 O   0  0  0  0  0  0  0  0  0  0  0  0
  2  1  1  0
  2  3  2  0
  4  2  1  0
  5  7  1  0
  5  4  1  0
  5  6  1  1
  7  8  2  0
  9 10  1  0
  9  7  1  0
 10 11  1  1
 11 12  1  0
 12 17  2  0
 13 14  2  0
 13 12  1  0
 14 15  1  0
 15 16  2  0
 17 16  1  0
 18 10  1  0
 19 18  2  0
 20 18  1  0
 21 20  1  0
 21 22  1  1
 22 23  1  0
 23 31  1  0
 24 25  1  0
 24 23  2  0
 25 26  1  0
 26 31  2  0
 26 27  1  0
 27 28  2  0
 28 29  1  0
 30 29  2  0
 31 30  1  0
 32 21  1  0
 32 34  1  0
 33 32  2  0
M  END
$$$$
