CDL.pdb
     RDKit          3D

 23 22  0  0  1  0  0  0  0  0999 V2000
   18.7527  -11.1300  -20.6918 N   0  0  0  0  0  0  0  0  0  0  0  0
   18.2802   -9.9160  -20.0764 C   0  0  1  0  0  0  0  0  0  0  0  0
   17.2398  -10.2274  -18.9939 C   0  0  0  0  0  0  0  0  0  0  0  0
   15.6382  -10.5293  -19.7421 S   0  0  0  0  0  0  0  0  0  0  0  0
   19.4216   -9.2484  -19.3377 C   0  0  0  0  0  0  0  0  0  0  0  0
   20.2501  -10.0060  -18.8393 O   0  0  0  0  0  0  0  0  0  0  0  0
   19.4426   -7.8526  -19.2815 N   0  0  0  0  0  0  0  0  0  0  0  0
   20.3841   -6.9817  -18.6842 C   0  0  1  0  0  0  0  0  0  0  0  0
   20.4944   -5.5835  -19.2499 C   0  0  0  0  0  0  0  0  0  0  0  0
   20.9968   -5.5466  -20.6471 C   0  0  0  0  0  0  0  0  0  0  0  0
   20.2856   -4.9158  -21.5030 O   0  0  0  0  0  0  0  0  0  0  0  0
   20.3355   -7.0243  -17.2153 C   0  0  0  0  0  0  0  0  0  0  0  0
   19.2325   -6.8220  -16.5957 O   0  0  0  0  0  0  0  0  0  0  0  0
   22.1504   -6.1356  -21.0641 O   0  0  0  0  0  0  0  0  0  0  0  0
   23.0410   -9.8855  -12.5182 C   0  0  0  0  0  0  0  0  0  0  0  0
   22.1663   -8.7815  -12.9784 C   0  0  2  0  0  0  0  0  0  0  0  0
   20.7996   -8.9435  -12.2946 C   0  0  0  0  0  0  0  0  0  0  0  0
   21.9969   -8.5399  -14.4214 C   0  0  0  0  0  0  0  0  0  0  0  0
   21.4257   -7.2914  -14.9246 C   0  0  2  0  0  0  0  0  0  0  0  0
   21.4712   -7.2839  -16.4101 N   0  0  0  0  0  0  0  0  0  0  0  0
   21.9255   -6.0322  -14.4017 C   0  0  0  0  0  0  0  0  0  0  0  0
   21.6705   -5.4938  -13.3063 O   0  0  0  0  0  0  0  0  0  0  0  0
   22.8210   -5.2940  -15.2192 O   0  0  0  0  0  0  0  0  0  0  0  0
  2  1  1  1
  2  5  1  0
  3  2  1  0
  4  3  1  0
  5  6  2  0
  7  8  1  0
  7  5  1  0
  8 12  1  0
  8  9  1  6
 10  9  1  0
 11 10  2  0
 12 13  2  0
 12 20  1  0
 14 10  1  0
 16 17  1  6
 16 15  1  0
 18 16  1  0
 19 18  1  1
 20 19  1  0
 21 19  1  0
 21 23  1  0
 22 21  2  0
M  END
$$$$
