CDL.pdb
     RDKit          3D

 23 22  0  0  1  0  0  0  0  0999 V2000
   24.5759  -33.8558   -8.0198 N   0  0  0  0  0  0  0  0  0  0  0  0
   24.1145  -33.6435   -6.6716 C   0  0  1  0  0  0  0  0  0  0  0  0
   23.0539  -34.6840   -6.2924 C   0  0  0  0  0  0  0  0  0  0  0  0
   23.7350  -36.3381   -6.4198 S   0  0  0  0  0  0  0  0  0  0  0  0
   25.2559  -33.8822   -5.7050 C   0  0  0  0  0  0  0  0  0  0  0  0
   26.2830  -34.3438   -6.1958 O   0  0  0  0  0  0  0  0  0  0  0  0
   25.0560  -33.5660   -4.3589 N   0  0  0  0  0  0  0  0  0  0  0  0
   25.9451  -33.6588   -3.2624 C   0  0  1  0  0  0  0  0  0  0  0  0
   25.7175  -32.7171   -2.1011 C   0  0  0  0  0  0  0  0  0  0  0  0
   26.8104  -32.7397   -1.0957 C   0  0  0  0  0  0  0  0  0  0  0  0
   28.0092  -32.7526   -1.5418 O   0  0  0  0  0  0  0  0  0  0  0  0
   26.1935  -35.0500   -2.8569 C   0  0  0  0  0  0  0  0  0  0  0  0
   27.1973  -35.3414   -2.1159 O   0  0  0  0  0  0  0  0  0  0  0  0
   26.6150  -32.7482    0.2509 O   0  0  0  0  0  0  0  0  0  0  0  0
   25.6326  -39.1397    0.2214 C   0  0  0  0  0  0  0  0  0  0  0  0
   25.0330  -37.8514   -0.1987 C   0  0  2  0  0  0  0  0  0  0  0  0
   23.9117  -37.5049    0.7935 C   0  0  0  0  0  0  0  0  0  0  0  0
   24.5664  -37.6831   -1.5855 C   0  0  0  0  0  0  0  0  0  0  0  0
   25.5064  -37.5011   -2.6906 C   0  0  2  0  0  0  0  0  0  0  0  0
   25.3646  -36.1301   -3.2467 N   0  0  0  0  0  0  0  0  0  0  0  0
   25.5216  -38.4783   -3.7647 C   0  0  0  0  0  0  0  0  0  0  0  0
   25.3913  -38.2837   -4.9894 O   0  0  0  0  0  0  0  0  0  0  0  0
   25.7055  -39.8399   -3.4075 O   0  0  0  0  0  0  0  0  0  0  0  0
  2  1  1  6
  2  5  1  0
  3  2  1  0
  4  3  1  0
  5  6  2  0
  7  8  1  0
  7  5  1  0
  8 12  1  0
  8  9  1  1
 10  9  1  0
 11 10  2  0
 12 13  2  0
 12 20  1  0
 14 10  1  0
 16 17  1  1
 16 15  1  0
 18 16  1  0
 19 18  1  1
 20 19  1  0
 21 19  1  0
 21 23  1  0
 22 21  2  0
M  END
$$$$
