CDL.pdb
     RDKit          3D

 23 22  0  0  1  0  0  0  0  0999 V2000
   28.4271  -21.5258  -17.6712 N   0  0  0  0  0  0  0  0  0  0  0  0
   27.8165  -22.2976  -16.6190 C   0  0  1  0  0  0  0  0  0  0  0  0
   28.8812  -22.8399  -15.6579 C   0  0  0  0  0  0  0  0  0  0  0  0
   30.2221  -23.5938  -16.5798 S   0  0  0  0  0  0  0  0  0  0  0  0
   26.9500  -21.3924  -15.7682 C   0  0  0  0  0  0  0  0  0  0  0  0
   27.4657  -20.3333  -15.4199 O   0  0  0  0  0  0  0  0  0  0  0  0
   25.6592  -21.8234  -15.4520 N   0  0  0  0  0  0  0  0  0  0  0  0
   24.6613  -21.2017  -14.6651 C   0  0  1  0  0  0  0  0  0  0  0  0
   23.2323  -21.2984  -15.1509 C   0  0  0  0  0  0  0  0  0  0  0  0
   23.0686  -20.9523  -16.5859 C   0  0  0  0  0  0  0  0  0  0  0  0
   23.6365  -19.8808  -16.9929 O   0  0  0  0  0  0  0  0  0  0  0  0
   24.8198  -21.4842  -13.2310 C   0  0  0  0  0  0  0  0  0  0  0  0
   25.8522  -22.1103  -12.8024 O   0  0  0  0  0  0  0  0  0  0  0  0
   22.3607  -21.6958  -17.4791 O   0  0  0  0  0  0  0  0  0  0  0  0
   26.5141  -19.4499   -8.5260 C   0  0  0  0  0  0  0  0  0  0  0  0
   25.8998  -20.6889   -9.0581 C   0  0  2  0  0  0  0  0  0  0  0  0
   26.8671  -21.8518   -8.7859 C   0  0  0  0  0  0  0  0  0  0  0  0
   25.4260  -20.7262  -10.4521 C   0  0  0  0  0  0  0  0  0  0  0  0
   24.1020  -21.2438  -10.7949 C   0  0  2  0  0  0  0  0  0  0  0  0
   23.8699  -21.0948  -12.2553 N   0  0  0  0  0  0  0  0  0  0  0  0
   22.9495  -20.7642  -10.0530 C   0  0  0  0  0  0  0  0  0  0  0  0
   22.5554  -21.1162   -8.9235 O   0  0  0  0  0  0  0  0  0  0  0  0
   22.1463  -19.7667  -10.6655 O   0  0  0  0  0  0  0  0  0  0  0  0
  2  1  1  6
  2  5  1  0
  3  2  1  0
  4  3  1  0
  5  6  2  0
  7  8  1  0
  7  5  1  0
  8 12  1  0
  8  9  1  6
 10  9  1  0
 11 10  2  0
 12 13  2  0
 12 20  1  0
 14 10  1  0
 16 17  1  6
 16 15  1  0
 18 16  1  0
 19 18  1  1
 20 19  1  0
 21 19  1  0
 21 23  1  0
 22 21  2  0
M  END
$$$$
