CDL.pdb
     RDKit          3D

 23 22  0  0  1  0  0  0  0  0999 V2000
   28.7835  -26.7625  -16.8097 N   0  0  0  0  0  0  0  0  0  0  0  0
   27.7892  -25.8651  -17.3406 C   0  0  1  0  0  0  0  0  0  0  0  0
   26.3840  -26.4568  -17.1776 C   0  0  0  0  0  0  0  0  0  0  0  0
   26.2530  -28.0007  -18.0806 S   0  0  0  0  0  0  0  0  0  0  0  0
   27.7717  -24.5911  -16.5215 C   0  0  0  0  0  0  0  0  0  0  0  0
   28.3438  -24.6469  -15.4359 O   0  0  0  0  0  0  0  0  0  0  0  0
   27.1196  -23.4756  -17.0528 N   0  0  0  0  0  0  0  0  0  0  0  0
   27.0182  -22.1574  -16.5491 C   0  0  1  0  0  0  0  0  0  0  0  0
   26.8934  -21.0360  -17.5560 C   0  0  0  0  0  0  0  0  0  0  0  0
   28.0344  -20.9597  -18.5038 C   0  0  0  0  0  0  0  0  0  0  0  0
   29.2088  -21.0630  -18.0076 O   0  0  0  0  0  0  0  0  0  0  0  0
   26.0715  -22.0556  -15.4287 C   0  0  0  0  0  0  0  0  0  0  0  0
   24.9138  -22.5989  -15.5051 O   0  0  0  0  0  0  0  0  0  0  0  0
   27.9062  -20.7884  -19.8476 O   0  0  0  0  0  0  0  0  0  0  0  0
   25.9177  -19.5025   -9.6687 C   0  0  0  0  0  0  0  0  0  0  0  0
   25.3219  -20.3891  -10.6956 C   0  0  2  0  0  0  0  0  0  0  0  0
   24.9332  -21.7101  -10.0130 C   0  0  0  0  0  0  0  0  0  0  0  0
   26.0543  -20.6497  -11.9466 C   0  0  0  0  0  0  0  0  0  0  0  0
   25.3904  -21.2288  -13.1136 C   0  0  2  0  0  0  0  0  0  0  0  0
   26.3669  -21.3702  -14.2251 N   0  0  0  0  0  0  0  0  0  0  0  0
   24.1657  -20.6167  -13.5975 C   0  0  0  0  0  0  0  0  0  0  0  0
   24.0386  -19.6291  -14.3482 O   0  0  0  0  0  0  0  0  0  0  0  0
   22.9373  -21.1924  -13.1793 O   0  0  0  0  0  0  0  0  0  0  0  0
  2  1  1  1
  2  5  1  0
  3  2  1  0
  4  3  1  0
  5  6  2  0
  7  8  1  0
  7  5  1  0
  8 12  1  0
  8  9  1  6
 10  9  1  0
 11 10  2  0
 12 13  2  0
 12 20  1  0
 14 10  1  0
 16 17  1  1
 16 15  1  0
 18 16  1  0
 19 18  1  1
 20 19  1  0
 21 19  1  0
 21 23  1  0
 22 21  2  0
M  END
$$$$
