CDL.pdb
     RDKit          3D

 23 22  0  0  1  0  0  0  0  0999 V2000
   15.0003  -11.1567  -17.4517 N   0  0  0  0  0  0  0  0  0  0  0  0
   16.1561  -10.9466  -16.6177 C   0  0  1  0  0  0  0  0  0  0  0  0
   17.1553  -12.0987  -16.7773 C   0  0  0  0  0  0  0  0  0  0  0  0
   16.6797  -13.4802  -15.7374 S   0  0  0  0  0  0  0  0  0  0  0  0
   16.9024   -9.7167  -17.0914 C   0  0  0  0  0  0  0  0  0  0  0  0
   17.1677   -9.6824  -18.2903 O   0  0  0  0  0  0  0  0  0  0  0  0
   17.2245   -8.7378  -16.1481 N   0  0  0  0  0  0  0  0  0  0  0  0
   17.9512   -7.5336  -16.3006 C   0  0  1  0  0  0  0  0  0  0  0  0
   17.1563   -6.2613  -16.4915 C   0  0  0  0  0  0  0  0  0  0  0  0
   17.9966   -5.0787  -16.8099 C   0  0  0  0  0  0  0  0  0  0  0  0
   18.4659   -5.0031  -17.9975 O   0  0  0  0  0  0  0  0  0  0  0  0
   19.0431   -7.4089  -15.3238 C   0  0  0  0  0  0  0  0  0  0  0  0
   18.8016   -7.4766  -14.0674 O   0  0  0  0  0  0  0  0  0  0  0  0
   18.2927   -4.0869  -15.9266 O   0  0  0  0  0  0  0  0  0  0  0  0
   23.7982  -10.2034  -14.3507 C   0  0  0  0  0  0  0  0  0  0  0  0
   22.9231   -9.0717  -13.9647 C   0  0  2  0  0  0  0  0  0  0  0  0
   21.6845   -9.6491  -13.2616 C   0  0  0  0  0  0  0  0  0  0  0  0
   22.5265   -8.0792  -14.9781 C   0  0  0  0  0  0  0  0  0  0  0  0
   21.4956   -7.0789  -14.7046 C   0  0  2  0  0  0  0  0  0  0  0  0
   20.3954   -7.2113  -15.6950 N   0  0  0  0  0  0  0  0  0  0  0  0
   21.8880   -5.6868  -14.5749 C   0  0  0  0  0  0  0  0  0  0  0  0
   21.7422   -4.7620  -15.3985 O   0  0  0  0  0  0  0  0  0  0  0  0
   22.5233   -5.2962  -13.3669 O   0  0  0  0  0  0  0  0  0  0  0  0
  2  1  1  6
  2  5  1  0
  3  2  1  0
  4  3  1  0
  5  6  2  0
  7  8  1  0
  7  5  1  0
  8 12  1  0
  8  9  1  1
 10  9  1  0
 11 10  2  0
 12 13  2  0
 12 20  1  0
 14 10  1  0
 16 17  1  6
 16 15  1  0
 18 16  1  0
 19 18  1  6
 20 19  1  0
 21 19  1  0
 21 23  1  0
 22 21  2  0
M  END
$$$$
