CDL.pdb
     RDKit          3D

 23 22  0  0  1  0  0  0  0  0999 V2000
   23.7356  -20.4149  -19.3930 N   0  0  0  0  0  0  0  0  0  0  0  0
   22.7390  -20.9256  -18.4865 C   0  0  1  0  0  0  0  0  0  0  0  0
   22.8250  -22.4537  -18.3927 C   0  0  0  0  0  0  0  0  0  0  0  0
   21.8176  -23.2106  -19.6689 S   0  0  0  0  0  0  0  0  0  0  0  0
   23.0335  -20.4332  -17.0847 C   0  0  0  0  0  0  0  0  0  0  0  0
   24.2086  -20.1630  -16.8499 O   0  0  0  0  0  0  0  0  0  0  0  0
   21.9685  -20.3272  -16.1867 N   0  0  0  0  0  0  0  0  0  0  0  0
   21.9781  -20.1843  -14.7792 C   0  0  1  0  0  0  0  0  0  0  0  0
   21.1331  -21.1483  -13.9767 C   0  0  0  0  0  0  0  0  0  0  0  0
   21.0956  -20.8378  -12.5248 C   0  0  0  0  0  0  0  0  0  0  0  0
   20.8894  -19.6186  -12.1972 O   0  0  0  0  0  0  0  0  0  0  0  0
   23.3342  -19.9973  -14.2428 C   0  0  0  0  0  0  0  0  0  0  0  0
   23.5944  -19.0150  -13.4625 O   0  0  0  0  0  0  0  0  0  0  0  0
   21.2657  -21.7591  -11.5379 O   0  0  0  0  0  0  0  0  0  0  0  0
   26.2632  -19.4656  -10.9580 C   0  0  0  0  0  0  0  0  0  0  0  0
   25.1662  -20.4136  -11.2637 C   0  0  2  0  0  0  0  0  0  0  0  0
   24.7953  -21.1441   -9.9634 C   0  0  0  0  0  0  0  0  0  0  0  0
   25.3204  -21.3737  -12.3700 C   0  0  0  0  0  0  0  0  0  0  0  0
   25.6505  -20.9316  -13.7241 C   0  0  2  0  0  0  0  0  0  0  0  0
   24.4125  -20.8646  -14.5438 N   0  0  0  0  0  0  0  0  0  0  0  0
   26.6963  -21.6279  -14.4523 C   0  0  0  0  0  0  0  0  0  0  0  0
   27.9283  -21.5875  -14.2642 O   0  0  0  0  0  0  0  0  0  0  0  0
   26.2978  -22.4704  -15.5231 O   0  0  0  0  0  0  0  0  0  0  0  0
  2  1  1  6
  2  5  1  0
  3  2  1  0
  4  3  1  0
  5  6  2  0
  7  8  1  0
  7  5  1  0
  8 12  1  0
  8  9  1  1
 10  9  1  0
 11 10  2  0
 12 13  2  0
 12 20  1  0
 14 10  1  0
 16 17  1  1
 16 15  1  0
 18 16  1  0
 19 18  1  1
 20 19  1  0
 21 19  1  0
 21 23  1  0
 22 21  2  0
M  END
$$$$
