CDL.pdb
     RDKit          3D

 23 22  0  0  1  0  0  0  0  0999 V2000
   29.9568   -5.4556  -52.9576 N   0  0  0  0  0  0  0  0  0  0  0  0
   29.4903   -5.8045  -51.6399 C   0  0  1  0  0  0  0  0  0  0  0  0
   28.2280   -6.6710  -51.7243 C   0  0  0  0  0  0  0  0  0  0  0  0
   27.8666   -7.0746  -53.4339 S   0  0  0  0  0  0  0  0  0  0  0  0
   30.5189   -6.6820  -50.9572 C   0  0  0  0  0  0  0  0  0  0  0  0
   31.1555   -7.4303  -51.6946 O   0  0  0  0  0  0  0  0  0  0  0  0
   30.6605   -6.5747  -49.5715 N   0  0  0  0  0  0  0  0  0  0  0  0
   29.7524   -6.9032  -48.5375 C   0  0  1  0  0  0  0  0  0  0  0  0
   28.9408   -8.1688  -48.7011 C   0  0  0  0  0  0  0  0  0  0  0  0
   29.7696   -9.3795  -48.9324 C   0  0  0  0  0  0  0  0  0  0  0  0
   29.7936  -10.2534  -47.9987 O   0  0  0  0  0  0  0  0  0  0  0  0
   30.3434   -6.7471  -47.2004 C   0  0  0  0  0  0  0  0  0  0  0  0
   31.5557   -7.0986  -46.9809 O   0  0  0  0  0  0  0  0  0  0  0  0
   30.4941   -9.6099  -50.0610 O   0  0  0  0  0  0  0  0  0  0  0  0
   27.7046   -4.9023  -43.4428 C   0  0  0  0  0  0  0  0  0  0  0  0
   28.9943   -4.1739  -43.4826 C   0  0  2  0  0  0  0  0  0  0  0  0
   28.7160   -2.6992  -43.1513 C   0  0  0  0  0  0  0  0  0  0  0  0
   29.8557   -4.2827  -44.6723 C   0  0  0  0  0  0  0  0  0  0  0  0
   29.3348   -4.7652  -45.9506 C   0  0  2  0  0  0  0  0  0  0  0  0
   29.6333   -6.2138  -46.0972 N   0  0  0  0  0  0  0  0  0  0  0  0
   29.6927   -4.0545  -47.1653 C   0  0  0  0  0  0  0  0  0  0  0  0
   29.0406   -3.1814  -47.7714 O   0  0  0  0  0  0  0  0  0  0  0  0
   30.9390   -4.3726  -47.7661 O   0  0  0  0  0  0  0  0  0  0  0  0
  2  1  1  6
  2  5  1  0
  3  2  1  0
  4  3  1  0
  5  6  2  0
  7  8  1  0
  7  5  1  0
  8 12  1  0
  8  9  1  6
 10  9  1  0
 11 10  2  0
 12 13  2  0
 12 20  1  0
 14 10  1  0
 16 17  1  6
 16 15  1  0
 18 16  1  0
 19 18  1  1
 20 19  1  0
 21 19  1  0
 21 23  1  0
 22 21  2  0
M  END
$$$$
