CDL.pdb
     RDKit          3D

 23 22  0  0  1  0  0  0  0  0999 V2000
   21.8063  -36.3644  -14.0703 N   0  0  0  0  0  0  0  0  0  0  0  0
   22.1219  -36.7329  -12.7137 C   0  0  1  0  0  0  0  0  0  0  0  0
   23.6089  -36.4992  -12.4214 C   0  0  0  0  0  0  0  0  0  0  0  0
   24.6203  -37.4753  -13.5352 S   0  0  0  0  0  0  0  0  0  0  0  0
   21.3891  -35.8137  -11.7585 C   0  0  0  0  0  0  0  0  0  0  0  0
   20.3437  -35.3275  -12.1824 O   0  0  0  0  0  0  0  0  0  0  0  0
   21.9475  -35.5946  -10.4968 N   0  0  0  0  0  0  0  0  0  0  0  0
   21.4226  -34.9050   -9.3785 C   0  0  1  0  0  0  0  0  0  0  0  0
   19.9878  -35.1913   -8.9958 C   0  0  0  0  0  0  0  0  0  0  0  0
   19.4499  -34.2604   -7.9711 C   0  0  0  0  0  0  0  0  0  0  0  0
   18.6303  -33.3647   -8.3739 O   0  0  0  0  0  0  0  0  0  0  0  0
   22.3498  -34.8973   -8.2375 C   0  0  0  0  0  0  0  0  0  0  0  0
   22.7149  -35.9965   -7.6897 O   0  0  0  0  0  0  0  0  0  0  0  0
   19.7730  -34.3029   -6.6500 O   0  0  0  0  0  0  0  0  0  0  0  0
   26.6937  -34.2468   -8.5731 C   0  0  0  0  0  0  0  0  0  0  0  0
   25.8203  -33.0519   -8.5016 C   0  0  2  0  0  0  0  0  0  0  0  0
   26.6560  -31.8290   -8.9113 C   0  0  0  0  0  0  0  0  0  0  0  0
   25.0672  -32.7731   -7.2668 C   0  0  0  0  0  0  0  0  0  0  0  0
   24.0542  -33.7003   -6.7646 C   0  0  2  0  0  0  0  0  0  0  0  0
   22.8858  -33.7095   -7.6831 N   0  0  0  0  0  0  0  0  0  0  0  0
   23.6086  -33.5718   -5.3885 C   0  0  0  0  0  0  0  0  0  0  0  0
   22.4439  -33.4468   -4.9609 O   0  0  0  0  0  0  0  0  0  0  0  0
   24.6028  -33.5853   -4.3752 O   0  0  0  0  0  0  0  0  0  0  0  0
  2  1  1  6
  2  5  1  0
  3  2  1  0
  4  3  1  0
  5  6  2  0
  7  8  1  0
  7  5  1  0
  8 12  1  0
  8  9  1  1
 10  9  1  0
 11 10  2  0
 12 13  2  0
 12 20  1  0
 14 10  1  0
 16 17  1  1
 16 15  1  0
 18 16  1  0
 19 18  1  6
 20 19  1  0
 21 19  1  0
 21 23  1  0
 22 21  2  0
M  END
$$$$
