SKG.pdb
     RDKit          3D

 20 19  0  0  1  0  0  0  0  0999 V2000
    7.0966  -19.4367   19.1409 O   0  0  0  0  0  0  0  0  0  0  0  0
    6.0169  -19.9560   19.8522 C   0  0  0  0  0  0  0  0  0  0  0  0
    5.3371  -18.8136   20.5868 C   0  0  2  0  0  0  0  0  0  0  0  0
    4.4668  -18.1231   19.6898 N   0  0  0  0  0  0  0  0  0  0  0  0
    6.3064  -17.9377   21.2669 C   0  0  0  0  0  0  0  0  0  0  0  0
    6.6809  -16.8269   20.7676 O   0  0  0  0  0  0  0  0  0  0  0  0
    6.8414  -18.3352   22.5115 N   0  0  0  0  0  0  0  0  0  0  0  0
    7.8196  -17.5780   23.2603 C   0  0  1  0  0  0  0  0  0  0  0  0
    7.5771  -17.8076   24.7135 C   0  0  0  0  0  0  0  0  0  0  0  0
    8.5938  -17.1921   25.6199 C   0  0  0  0  0  0  0  0  0  0  0  0
    8.5708  -17.7146   27.0199 C   0  0  0  0  0  0  0  0  0  0  0  0
    9.6539  -16.9891   27.8012 C   0  0  0  0  0  0  0  0  0  0  0  0
    9.7358  -17.5110   29.1511 N   0  0  0  0  0  0  0  0  0  0  0  0
    9.1749  -18.1202   22.9378 C   0  0  0  0  0  0  0  0  0  0  0  0
    9.3522  -19.2873   22.5019 O   0  0  0  0  0  0  0  0  0  0  0  0
   10.3312  -17.3104   23.1196 N   0  0  0  0  0  0  0  0  0  0  0  0
   11.5797  -17.5413   22.4671 C   0  0  0  0  0  0  0  0  0  0  0  0
   12.5550  -16.4595   22.6618 C   0  0  0  0  0  0  0  0  0  0  0  0
   13.6981  -16.5684   22.1556 O   0  0  0  0  0  0  0  0  0  0  0  0
   12.2842  -15.3092   23.3814 O   0  0  0  0  0  0  0  0  0  0  0  0
  2  1  1  0
  3  2  1  0
  3  4  1  6
  5  3  1  0
  6  5  2  0
  7  5  1  0
  8  9  1  1
  8  7  1  0
 10  9  1  0
 11 12  1  0
 11 10  1  0
 13 12  1  0
 14 15  2  0
 14  8  1  0
 16 14  1  0
 17 16  1  0
 18 17  1  0
 18 20  1  0
 19 18  2  0
M  END
$$$$
