SKG.pdb
     RDKit          3D

 20 19  0  0  1  0  0  0  0  0999 V2000
    9.9193  -18.1429   17.1741 O   0  0  0  0  0  0  0  0  0  0  0  0
    9.5240  -18.0901   18.5091 C   0  0  0  0  0  0  0  0  0  0  0  0
    8.1206  -17.5124   18.5678 C   0  0  2  0  0  0  0  0  0  0  0  0
    7.9627  -16.5423   17.5320 N   0  0  0  0  0  0  0  0  0  0  0  0
    7.7847  -17.0085   19.9103 C   0  0  0  0  0  0  0  0  0  0  0  0
    7.9267  -15.7827   20.2280 O   0  0  0  0  0  0  0  0  0  0  0  0
    7.2892  -17.9063   20.8808 N   0  0  0  0  0  0  0  0  0  0  0  0
    6.9774  -17.5447   22.2457 C   0  0  1  0  0  0  0  0  0  0  0  0
    5.8839  -18.4361   22.7281 C   0  0  0  0  0  0  0  0  0  0  0  0
    4.8235  -18.7259   21.7154 C   0  0  0  0  0  0  0  0  0  0  0  0
    3.7540  -19.6560   22.1892 C   0  0  0  0  0  0  0  0  0  0  0  0
    2.7641  -19.8395   21.0505 C   0  0  0  0  0  0  0  0  0  0  0  0
    1.7106  -20.7549   21.4421 N   0  0  0  0  0  0  0  0  0  0  0  0
    8.1838  -17.8149   23.0863 C   0  0  0  0  0  0  0  0  0  0  0  0
    8.1547  -18.5726   24.0906 O   0  0  0  0  0  0  0  0  0  0  0  0
    9.4302  -17.2070   22.7652 N   0  0  0  0  0  0  0  0  0  0  0  0
   10.6141  -17.3478   23.5502 C   0  0  0  0  0  0  0  0  0  0  0  0
   11.8176  -16.8072   22.9031 C   0  0  0  0  0  0  0  0  0  0  0  0
   12.9077  -16.8282   23.5244 O   0  0  0  0  0  0  0  0  0  0  0  0
   11.8211  -16.2675   21.6291 O   0  0  0  0  0  0  0  0  0  0  0  0
  2  1  1  0
  3  2  1  0
  3  4  1  6
  5  3  1  0
  6  5  2  0
  7  5  1  0
  8  9  1  1
  8  7  1  0
 10  9  1  0
 11 12  1  0
 11 10  1  0
 13 12  1  0
 14 15  2  0
 14  8  1  0
 16 14  1  0
 17 16  1  0
 18 17  1  0
 18 20  1  0
 19 18  2  0
M  END
$$$$
