SKG.pdb
     RDKit          3D

 20 19  0  0  1  0  0  0  0  0999 V2000
    7.3790  -16.3834   18.7044 O   0  0  0  0  0  0  0  0  0  0  0  0
    8.4303  -15.4831   18.8644 C   0  0  0  0  0  0  0  0  0  0  0  0
    7.8498  -14.1414   19.2761 C   0  0  2  0  0  0  0  0  0  0  0  0
    8.0555  -13.1933   18.2284 N   0  0  0  0  0  0  0  0  0  0  0  0
    8.3548  -13.6980   20.5866 C   0  0  0  0  0  0  0  0  0  0  0  0
    9.3828  -12.9535   20.6989 O   0  0  0  0  0  0  0  0  0  0  0  0
    7.6837  -14.1070   21.7595 N   0  0  0  0  0  0  0  0  0  0  0  0
    8.0507  -13.6968   23.0967 C   0  0  1  0  0  0  0  0  0  0  0  0
    6.8164  -13.6667   23.9326 C   0  0  0  0  0  0  0  0  0  0  0  0
    7.0306  -13.2266   25.3449 C   0  0  0  0  0  0  0  0  0  0  0  0
    6.0632  -12.1931   25.8238 C   0  0  0  0  0  0  0  0  0  0  0  0
    6.4220  -11.8560   27.2617 C   0  0  0  0  0  0  0  0  0  0  0  0
    5.5223  -10.8451   27.7812 N   0  0  0  0  0  0  0  0  0  0  0  0
    8.9587  -14.7367   23.6702 C   0  0  0  0  0  0  0  0  0  0  0  0
    9.5239  -14.6025   24.7865 O   0  0  0  0  0  0  0  0  0  0  0  0
    9.2153  -15.9378   22.9507 N   0  0  0  0  0  0  0  0  0  0  0  0
   10.1680  -16.9222   23.3521 C   0  0  0  0  0  0  0  0  0  0  0  0
    9.8463  -17.5650   24.6338 C   0  0  0  0  0  0  0  0  0  0  0  0
   10.6473  -18.4019   25.1162 O   0  0  0  0  0  0  0  0  0  0  0  0
    8.6945  -17.2984   25.3526 O   0  0  0  0  0  0  0  0  0  0  0  0
  2  1  1  0
  3  2  1  0
  3  4  1  6
  5  3  1  0
  6  5  2  0
  7  5  1  0
  8  9  1  1
  8  7  1  0
 10  9  1  0
 11 12  1  0
 11 10  1  0
 13 12  1  0
 14 15  2  0
 14  8  1  0
 16 14  1  0
 17 16  1  0
 18 17  1  0
 18 20  1  0
 19 18  2  0
M  END
$$$$
