SKG.pdb
     RDKit          3D

 20 19  0  0  1  0  0  0  0  0999 V2000
    7.2823  -15.0464   17.5350 O   0  0  0  0  0  0  0  0  0  0  0  0
    8.1380  -15.0126   18.6341 C   0  0  0  0  0  0  0  0  0  0  0  0
    7.8009  -13.7850   19.4624 C   0  0  2  0  0  0  0  0  0  0  0  0
    8.0767  -12.6084   18.7018 N   0  0  0  0  0  0  0  0  0  0  0  0
    8.4582  -13.8085   20.7802 C   0  0  0  0  0  0  0  0  0  0  0  0
    9.6580  -13.4126   20.9450 O   0  0  0  0  0  0  0  0  0  0  0  0
    7.7421  -14.2835   21.9005 N   0  0  0  0  0  0  0  0  0  0  0  0
    8.3017  -14.4325   23.2255 C   0  0  1  0  0  0  0  0  0  0  0  0
    7.2108  -14.2258   24.2206 C   0  0  0  0  0  0  0  0  0  0  0  0
    7.2704  -12.9220   24.9491 C   0  0  0  0  0  0  0  0  0  0  0  0
    6.1797  -12.7236   25.9514 C   0  0  0  0  0  0  0  0  0  0  0  0
    6.3502  -11.3373   26.5506 C   0  0  0  0  0  0  0  0  0  0  0  0
    5.3435  -11.1009   27.5665 N   0  0  0  0  0  0  0  0  0  0  0  0
    8.7850  -15.8396   23.3715 C   0  0  0  0  0  0  0  0  0  0  0  0
    8.0114  -16.8310   23.3215 O   0  0  0  0  0  0  0  0  0  0  0  0
   10.1687  -16.1032   23.5762 N   0  0  0  0  0  0  0  0  0  0  0  0
   10.7182  -17.4109   23.7372 C   0  0  0  0  0  0  0  0  0  0  0  0
   12.1553  -17.4121   24.0443 C   0  0  0  0  0  0  0  0  0  0  0  0
   12.7795  -16.3236   24.0535 O   0  0  0  0  0  0  0  0  0  0  0  0
   12.8731  -18.5603   24.3287 O   0  0  0  0  0  0  0  0  0  0  0  0
  2  1  1  0
  3  2  1  0
  3  4  1  6
  5  3  1  0
  6  5  2  0
  7  5  1  0
  8  9  1  1
  8  7  1  0
 10  9  1  0
 11 12  1  0
 11 10  1  0
 13 12  1  0
 14 15  2  0
 14  8  1  0
 16 14  1  0
 17 16  1  0
 18 17  1  0
 18 20  1  0
 19 18  2  0
M  END
$$$$
