SKG.pdb
     RDKit          3D

 20 19  0  0  1  0  0  0  0  0999 V2000
    6.9164  -15.7240   17.5450 O   0  0  0  0  0  0  0  0  0  0  0  0
    8.0437  -15.2084   18.1813 C   0  0  0  0  0  0  0  0  0  0  0  0
    7.6591  -13.8962   18.8423 C   0  0  2  0  0  0  0  0  0  0  0  0
    7.8832  -12.8211   17.9298 N   0  0  0  0  0  0  0  0  0  0  0  0
    8.3214  -13.7175   20.1456 C   0  0  0  0  0  0  0  0  0  0  0  0
    9.4021  -13.0540   20.2699 O   0  0  0  0  0  0  0  0  0  0  0  0
    7.7464  -14.2968   21.2976 N   0  0  0  0  0  0  0  0  0  0  0  0
    8.2534  -14.1224   22.6405 C   0  0  1  0  0  0  0  0  0  0  0  0
    7.2078  -13.4336   23.4500 C   0  0  0  0  0  0  0  0  0  0  0  0
    7.5727  -13.2144   24.8828 C   0  0  0  0  0  0  0  0  0  0  0  0
    6.5167  -12.5341   25.6925 C   0  0  0  0  0  0  0  0  0  0  0  0
    7.0319  -12.4164   27.1175 C   0  0  0  0  0  0  0  0  0  0  0  0
    6.0202  -11.8257   27.9712 N   0  0  0  0  0  0  0  0  0  0  0  0
    8.4668  -15.4764   23.2373 C   0  0  0  0  0  0  0  0  0  0  0  0
    7.5509  -16.3360   23.3134 O   0  0  0  0  0  0  0  0  0  0  0  0
    9.7446  -15.8393   23.7487 N   0  0  0  0  0  0  0  0  0  0  0  0
   10.0199  -17.0743   24.4097 C   0  0  0  0  0  0  0  0  0  0  0  0
   11.3644  -17.1401   24.9990 C   0  0  0  0  0  0  0  0  0  0  0  0
   12.1707  -16.2018   24.7888 O   0  0  0  0  0  0  0  0  0  0  0  0
   11.8019  -18.1916   25.7846 O   0  0  0  0  0  0  0  0  0  0  0  0
  2  1  1  0
  3  2  1  0
  3  4  1  6
  5  3  1  0
  6  5  2  0
  7  5  1  0
  8  9  1  1
  8  7  1  0
 10  9  1  0
 11 12  1  0
 11 10  1  0
 13 12  1  0
 14 15  2  0
 14  8  1  0
 16 14  1  0
 17 16  1  0
 18 17  1  0
 18 20  1  0
 19 18  2  0
M  END
$$$$
