SKG.pdb
     RDKit          3D

 20 19  0  0  1  0  0  0  0  0999 V2000
   15.9660  -16.7896   13.0326 O   0  0  0  0  0  0  0  0  0  0  0  0
   14.9067  -16.9778   13.9179 C   0  0  0  0  0  0  0  0  0  0  0  0
   14.1568  -15.6636   14.0493 C   0  0  2  0  0  0  0  0  0  0  0  0
   14.5437  -14.7879   12.9898 N   0  0  0  0  0  0  0  0  0  0  0  0
   14.3031  -15.0740   15.3910 C   0  0  0  0  0  0  0  0  0  0  0  0
   14.9991  -14.0269   15.5977 O   0  0  0  0  0  0  0  0  0  0  0  0
   13.6546  -15.6832   16.4873 N   0  0  0  0  0  0  0  0  0  0  0  0
   13.6580  -15.1575   17.8343 C   0  0  1  0  0  0  0  0  0  0  0  0
   12.3340  -15.4501   18.4545 C   0  0  0  0  0  0  0  0  0  0  0  0
   12.1713  -14.9355   19.8484 C   0  0  0  0  0  0  0  0  0  0  0  0
   10.8275  -15.1933   20.4495 C   0  0  0  0  0  0  0  0  0  0  0  0
   10.8211  -14.5864   21.8429 C   0  0  0  0  0  0  0  0  0  0  0  0
    9.5077  -14.7165   22.4424 N   0  0  0  0  0  0  0  0  0  0  0  0
   14.6962  -15.8935   18.6188 C   0  0  0  0  0  0  0  0  0  0  0  0
   14.7814  -17.1490   18.6207 O   0  0  0  0  0  0  0  0  0  0  0  0
   15.6410  -15.1757   19.4052 N   0  0  0  0  0  0  0  0  0  0  0  0
   16.4180  -15.7588   20.4511 C   0  0  0  0  0  0  0  0  0  0  0  0
   17.2121  -14.7822   21.2095 C   0  0  0  0  0  0  0  0  0  0  0  0
   17.2623  -13.5934   20.8108 O   0  0  0  0  0  0  0  0  0  0  0  0
   17.9192  -15.0999   22.3555 O   0  0  0  0  0  0  0  0  0  0  0  0
  2  1  1  0
  3  2  1  0
  3  4  1  6
  5  3  1  0
  6  5  2  0
  7  5  1  0
  8  9  1  1
  8  7  1  0
 10  9  1  0
 11 12  1  0
 11 10  1  0
 13 12  1  0
 14 15  2  0
 14  8  1  0
 16 14  1  0
 17 16  1  0
 18 17  1  0
 18 20  1  0
 19 18  2  0
M  END
$$$$
