SKG.pdb
     RDKit          3D

 20 19  0  0  1  0  0  0  0  0999 V2000
    7.5431  -15.8610   19.7208 O   0  0  0  0  0  0  0  0  0  0  0  0
    6.4607  -15.1178   20.1868 C   0  0  0  0  0  0  0  0  0  0  0  0
    6.9595  -13.7325   20.5597 C   0  0  2  0  0  0  0  0  0  0  0  0
    7.1530  -12.9621   19.3732 N   0  0  0  0  0  0  0  0  0  0  0  0
    8.1443  -13.7869   21.4329 C   0  0  0  0  0  0  0  0  0  0  0  0
    9.2989  -13.4292   21.0298 O   0  0  0  0  0  0  0  0  0  0  0  0
    8.0035  -14.2489   22.7596 N   0  0  0  0  0  0  0  0  0  0  0  0
    9.0913  -14.3628   23.7055 C   0  0  1  0  0  0  0  0  0  0  0  0
    8.5307  -14.2361   25.0813 C   0  0  0  0  0  0  0  0  0  0  0  0
    9.5425  -14.3289   26.1776 C   0  0  0  0  0  0  0  0  0  0  0  0
    8.9698  -14.2484   27.5557 C   0  0  0  0  0  0  0  0  0  0  0  0
   10.1158  -14.4050   28.5416 C   0  0  0  0  0  0  0  0  0  0  0  0
    9.6411  -14.2197   29.8987 N   0  0  0  0  0  0  0  0  0  0  0  0
    9.6755  -15.7332   23.5808 C   0  0  0  0  0  0  0  0  0  0  0  0
    8.9688  -16.7744   23.5825 O   0  0  0  0  0  0  0  0  0  0  0  0
   11.0831  -15.9019   23.4534 N   0  0  0  0  0  0  0  0  0  0  0  0
   11.7348  -17.1709   23.4017 C   0  0  0  0  0  0  0  0  0  0  0  0
   13.2015  -17.0803   23.4019 C   0  0  0  0  0  0  0  0  0  0  0  0
   13.7442  -15.9489   23.4023 O   0  0  0  0  0  0  0  0  0  0  0  0
   14.0337  -18.1857   23.4015 O   0  0  0  0  0  0  0  0  0  0  0  0
  2  1  1  0
  3  2  1  0
  3  4  1  6
  5  3  1  0
  6  5  2  0
  7  5  1  0
  8  9  1  1
  8  7  1  0
 10  9  1  0
 11 12  1  0
 11 10  1  0
 13 12  1  0
 14 15  2  0
 14  8  1  0
 16 14  1  0
 17 16  1  0
 18 17  1  0
 18 20  1  0
 19 18  2  0
M  END
$$$$
