SKG.pdb
     RDKit          3D

 20 19  0  0  1  0  0  0  0  0999 V2000
    8.1774  -15.5790   15.2772 O   0  0  0  0  0  0  0  0  0  0  0  0
    8.1388  -16.2118   16.5180 C   0  0  0  0  0  0  0  0  0  0  0  0
    8.0262  -17.7085   16.2858 C   0  0  2  0  0  0  0  0  0  0  0  0
    6.8251  -17.9885   15.5661 N   0  0  0  0  0  0  0  0  0  0  0  0
    8.1621  -18.4747   17.5363 C   0  0  0  0  0  0  0  0  0  0  0  0
    7.1577  -18.7645   18.2648 O   0  0  0  0  0  0  0  0  0  0  0  0
    9.4427  -18.9048   17.9467 N   0  0  0  0  0  0  0  0  0  0  0  0
    9.6950  -19.7308   19.1065 C   0  0  1  0  0  0  0  0  0  0  0  0
   10.4161  -20.9571   18.6601 C   0  0  0  0  0  0  0  0  0  0  0  0
    9.5639  -21.9559   17.9455 C   0  0  0  0  0  0  0  0  0  0  0  0
   10.2847  -23.1962   17.5266 C   0  0  0  0  0  0  0  0  0  0  0  0
    9.3328  -24.0169   16.6721 C   0  0  0  0  0  0  0  0  0  0  0  0
    9.9094  -25.3147   16.3811 N   0  0  0  0  0  0  0  0  0  0  0  0
   10.6064  -18.9802   20.0235 C   0  0  0  0  0  0  0  0  0  0  0  0
   11.8127  -18.7543   19.7453 O   0  0  0  0  0  0  0  0  0  0  0  0
   10.1220  -18.4880   21.2682 N   0  0  0  0  0  0  0  0  0  0  0  0
   10.0414  -19.2694   22.4602 C   0  0  0  0  0  0  0  0  0  0  0  0
   11.3432  -19.5020   23.1011 C   0  0  0  0  0  0  0  0  0  0  0  0
   11.4472  -19.3593   24.3435 O   0  0  0  0  0  0  0  0  0  0  0  0
   12.4797  -19.8748   22.4057 O   0  0  0  0  0  0  0  0  0  0  0  0
  2  1  1  0
  3  2  1  0
  3  4  1  1
  5  3  1  0
  6  5  2  0
  7  5  1  0
  8  9  1  6
  8  7  1  0
 10  9  1  0
 11 12  1  0
 11 10  1  0
 13 12  1  0
 14 15  2  0
 14  8  1  0
 16 14  1  0
 17 16  1  0
 18 17  1  0
 18 20  1  0
 19 18  2  0
M  END
$$$$
