SKG.pdb
     RDKit          3D

 20 19  0  0  1  0  0  0  0  0999 V2000
    9.9181  -20.6172   19.5670 O   0  0  0  0  0  0  0  0  0  0  0  0
   10.7820  -19.6274   20.0311 C   0  0  0  0  0  0  0  0  0  0  0  0
   10.6549  -18.4189   19.1200 C   0  0  2  0  0  0  0  0  0  0  0  0
   11.5538  -18.5573   18.0192 N   0  0  0  0  0  0  0  0  0  0  0  0
   10.8068  -17.1521   19.8558 C   0  0  0  0  0  0  0  0  0  0  0  0
   11.8988  -16.4955   19.8541 O   0  0  0  0  0  0  0  0  0  0  0  0
    9.7121  -16.6435   20.5881 N   0  0  0  0  0  0  0  0  0  0  0  0
    9.7467  -15.4295   21.3730 C   0  0  1  0  0  0  0  0  0  0  0  0
    8.5194  -14.6397   21.0683 C   0  0  0  0  0  0  0  0  0  0  0  0
    8.5134  -13.9921   19.7212 C   0  0  0  0  0  0  0  0  0  0  0  0
    7.1821  -13.4625   19.2959 C   0  0  0  0  0  0  0  0  0  0  0  0
    7.3502  -12.8445   17.9175 C   0  0  0  0  0  0  0  0  0  0  0  0
    6.0815  -12.3341   17.4368 N   0  0  0  0  0  0  0  0  0  0  0  0
    9.6927  -15.8077   22.8183 C   0  0  0  0  0  0  0  0  0  0  0  0
    8.6093  -16.0023   23.4284 O   0  0  0  0  0  0  0  0  0  0  0  0
   10.8960  -15.9620   23.5629 N   0  0  0  0  0  0  0  0  0  0  0  0
   10.9413  -16.3212   24.9437 C   0  0  0  0  0  0  0  0  0  0  0  0
   12.3052  -16.4296   25.4797 C   0  0  0  0  0  0  0  0  0  0  0  0
   13.2802  -16.3125   24.6985 O   0  0  0  0  0  0  0  0  0  0  0  0
   12.5835  -16.6569   26.8158 O   0  0  0  0  0  0  0  0  0  0  0  0
  2  1  1  0
  3  2  1  0
  3  4  1  6
  5  3  1  0
  6  5  2  0
  7  5  1  0
  8  9  1  6
  8  7  1  0
 10  9  1  0
 11 12  1  0
 11 10  1  0
 13 12  1  0
 14 15  2  0
 14  8  1  0
 16 14  1  0
 17 16  1  0
 18 17  1  0
 18 20  1  0
 19 18  2  0
M  END
$$$$
