SKG.pdb
     RDKit          3D

 20 19  0  0  1  0  0  0  0  0999 V2000
    5.9011  -20.8713   24.0142 O   0  0  0  0  0  0  0  0  0  0  0  0
    6.5995  -19.7207   23.6543 C   0  0  0  0  0  0  0  0  0  0  0  0
    6.1290  -19.2898   22.2759 C   0  0  2  0  0  0  0  0  0  0  0  0
    5.9951  -20.4389   21.4390 N   0  0  0  0  0  0  0  0  0  0  0  0
    6.9825  -18.2344   21.7042 C   0  0  0  0  0  0  0  0  0  0  0  0
    7.8922  -18.4891   20.8492 O   0  0  0  0  0  0  0  0  0  0  0  0
    6.7923  -16.8961   22.1120 N   0  0  0  0  0  0  0  0  0  0  0  0
    7.6143  -15.7862   21.6839 C   0  0  1  0  0  0  0  0  0  0  0  0
    6.7952  -14.5423   21.7547 C   0  0  0  0  0  0  0  0  0  0  0  0
    7.4410  -13.3358   21.1533 C   0  0  0  0  0  0  0  0  0  0  0  0
    7.9717  -13.5429   19.7716 C   0  0  0  0  0  0  0  0  0  0  0  0
    8.5387  -12.2170   19.2915 C   0  0  0  0  0  0  0  0  0  0  0  0
    9.0747  -12.3545   17.9517 N   0  0  0  0  0  0  0  0  0  0  0  0
    8.7417  -15.6399   22.6547 C   0  0  0  0  0  0  0  0  0  0  0  0
    8.5629  -15.3191   23.8584 O   0  0  0  0  0  0  0  0  0  0  0  0
   10.0824  -15.8653   22.2333 N   0  0  0  0  0  0  0  0  0  0  0  0
   11.2173  -15.7738   23.0944 C   0  0  0  0  0  0  0  0  0  0  0  0
   12.4949  -16.0276   22.4140 C   0  0  0  0  0  0  0  0  0  0  0  0
   12.4886  -16.3453   21.2001 O   0  0  0  0  0  0  0  0  0  0  0  0
   13.7244  -15.9359   23.0419 O   0  0  0  0  0  0  0  0  0  0  0  0
  2  1  1  0
  3  2  1  0
  3  4  1  6
  5  3  1  0
  6  5  2  0
  7  5  1  0
  8  9  1  1
  8  7  1  0
 10  9  1  0
 11 12  1  0
 11 10  1  0
 13 12  1  0
 14 15  2  0
 14  8  1  0
 16 14  1  0
 17 16  1  0
 18 17  1  0
 18 20  1  0
 19 18  2  0
M  END
$$$$
