SKG.pdb
     RDKit          3D

 20 19  0  0  1  0  0  0  0  0999 V2000
    7.9422  -17.4026   16.8340 O   0  0  0  0  0  0  0  0  0  0  0  0
    7.3155  -16.8573   17.9526 C   0  0  0  0  0  0  0  0  0  0  0  0
    7.8633  -17.5481   19.1894 C   0  0  2  0  0  0  0  0  0  0  0  0
    7.8366  -18.9624   18.9945 N   0  0  0  0  0  0  0  0  0  0  0  0
    7.1837  -17.1045   20.4184 C   0  0  0  0  0  0  0  0  0  0  0  0
    7.0457  -15.8713   20.7077 O   0  0  0  0  0  0  0  0  0  0  0  0
    6.6664  -18.0707   21.3085 N   0  0  0  0  0  0  0  0  0  0  0  0
    5.9928  -17.7611   22.5500 C   0  0  1  0  0  0  0  0  0  0  0  0
    4.7698  -18.6089   22.6433 C   0  0  0  0  0  0  0  0  0  0  0  0
    3.7405  -18.3356   21.5945 C   0  0  0  0  0  0  0  0  0  0  0  0
    2.9000  -19.5166   21.2308 C   0  0  0  0  0  0  0  0  0  0  0  0
    1.9762  -19.0949   20.0999 C   0  0  0  0  0  0  0  0  0  0  0  0
    1.1278  -20.2015   19.7040 N   0  0  0  0  0  0  0  0  0  0  0  0
    6.8955  -18.1456   23.6780 C   0  0  0  0  0  0  0  0  0  0  0  0
    6.4879  -18.2636   24.8628 O   0  0  0  0  0  0  0  0  0  0  0  0
    8.2759  -18.3950   23.4365 N   0  0  0  0  0  0  0  0  0  0  0  0
    9.2105  -18.7661   24.4497 C   0  0  0  0  0  0  0  0  0  0  0  0
   10.5688  -19.0009   23.9405 C   0  0  0  0  0  0  0  0  0  0  0  0
   11.4847  -19.2846   24.7500 O   0  0  0  0  0  0  0  0  0  0  0  0
   10.9040  -18.9268   22.6002 O   0  0  0  0  0  0  0  0  0  0  0  0
  2  1  1  0
  3  2  1  0
  3  4  1  6
  5  3  1  0
  6  5  2  0
  7  5  1  0
  8  9  1  1
  8  7  1  0
 10  9  1  0
 11 12  1  0
 11 10  1  0
 13 12  1  0
 14 15  2  0
 14  8  1  0
 16 14  1  0
 17 16  1  0
 18 17  1  0
 18 20  1  0
 19 18  2  0
M  END
$$$$
