SKG.pdb
     RDKit          3D

 20 19  0  0  1  0  0  0  0  0999 V2000
   -2.1352  -21.6632   16.4639 O   0  0  0  0  0  0  0  0  0  0  0  0
   -1.9640  -20.8066   17.5493 C   0  0  0  0  0  0  0  0  0  0  0  0
   -2.9882  -21.1712   18.6098 C   0  0  2  0  0  0  0  0  0  0  0  0
   -4.2897  -20.7874   18.1651 N   0  0  0  0  0  0  0  0  0  0  0  0
   -2.6301  -20.6340   19.9336 C   0  0  0  0  0  0  0  0  0  0  0  0
   -2.9489  -19.4541   20.2938 O   0  0  0  0  0  0  0  0  0  0  0  0
   -1.9110  -21.4465   20.8370 N   0  0  0  0  0  0  0  0  0  0  0  0
   -1.5064  -21.0351   22.1628 C   0  0  1  0  0  0  0  0  0  0  0  0
   -1.7291  -22.1767   23.0957 C   0  0  0  0  0  0  0  0  0  0  0  0
   -1.3531  -21.9033   24.5163 C   0  0  0  0  0  0  0  0  0  0  0  0
   -1.6088  -23.0394   25.4530 C   0  0  0  0  0  0  0  0  0  0  0  0
   -1.1458  -22.6106   26.8357 C   0  0  0  0  0  0  0  0  0  0  0  0
   -1.3160  -23.6953   27.7822 N   0  0  0  0  0  0  0  0  0  0  0  0
   -0.0383  -20.7544   22.1357 C   0  0  0  0  0  0  0  0  0  0  0  0
    0.7739  -21.4541   21.4766 O   0  0  0  0  0  0  0  0  0  0  0  0
    0.4945  -19.6600   22.8736 N   0  0  0  0  0  0  0  0  0  0  0  0
    1.8832  -19.3339   22.9296 C   0  0  0  0  0  0  0  0  0  0  0  0
    2.6732  -20.2612   23.7514 C   0  0  0  0  0  0  0  0  0  0  0  0
    2.1111  -21.2648   24.2528 O   0  0  0  0  0  0  0  0  0  0  0  0
    4.0219  -20.0914   24.0097 O   0  0  0  0  0  0  0  0  0  0  0  0
  2  1  1  0
  3  2  1  0
  3  4  1  6
  5  3  1  0
  6  5  2  0
  7  5  1  0
  8  9  1  1
  8  7  1  0
 10  9  1  0
 11 12  1  0
 11 10  1  0
 13 12  1  0
 14 15  2  0
 14  8  1  0
 16 14  1  0
 17 16  1  0
 18 17  1  0
 18 20  1  0
 19 18  2  0
M  END
$$$$
