SKG.pdb
     RDKit          3D

 20 19  0  0  1  0  0  0  0  0999 V2000
    7.2993  -15.0618   17.2443 O   0  0  0  0  0  0  0  0  0  0  0  0
    8.2433  -14.9087   18.2576 C   0  0  0  0  0  0  0  0  0  0  0  0
    7.6522  -14.0063   19.3267 C   0  0  2  0  0  0  0  0  0  0  0  0
    7.6174  -12.6617   18.8473 N   0  0  0  0  0  0  0  0  0  0  0  0
    8.3382  -14.1583   20.6211 C   0  0  0  0  0  0  0  0  0  0  0  0
    9.3002  -13.3992   20.9703 O   0  0  0  0  0  0  0  0  0  0  0  0
    7.9220  -15.1750   21.5079 N   0  0  0  0  0  0  0  0  0  0  0  0
    8.5885  -15.5007   22.7491 C   0  0  1  0  0  0  0  0  0  0  0  0
    7.7085  -16.4200   23.5260 C   0  0  0  0  0  0  0  0  0  0  0  0
    8.3010  -16.9172   24.8050 C   0  0  0  0  0  0  0  0  0  0  0  0
    7.4476  -17.8987   25.5412 C   0  0  0  0  0  0  0  0  0  0  0  0
    8.1058  -18.1660   26.8848 C   0  0  0  0  0  0  0  0  0  0  0  0
    7.2482  -18.9942   27.7094 N   0  0  0  0  0  0  0  0  0  0  0  0
    9.8429  -16.2455   22.4227 C   0  0  0  0  0  0  0  0  0  0  0  0
    9.8794  -17.1727   21.5727 O   0  0  0  0  0  0  0  0  0  0  0  0
   11.0615  -15.9178   23.0813 N   0  0  0  0  0  0  0  0  0  0  0  0
   12.3075  -16.5662   22.8266 C   0  0  0  0  0  0  0  0  0  0  0  0
   13.3939  -16.1227   23.7112 C   0  0  0  0  0  0  0  0  0  0  0  0
   14.5396  -16.6134   23.5658 O   0  0  0  0  0  0  0  0  0  0  0  0
   13.2265  -15.1812   24.7112 O   0  0  0  0  0  0  0  0  0  0  0  0
  2  1  1  0
  3  2  1  0
  3  4  1  6
  5  3  1  0
  6  5  2  0
  7  5  1  0
  8  9  1  1
  8  7  1  0
 10  9  1  0
 11 12  1  0
 11 10  1  0
 13 12  1  0
 14 15  2  0
 14  8  1  0
 16 14  1  0
 17 16  1  0
 18 17  1  0
 18 20  1  0
 19 18  2  0
M  END
$$$$
