SKG.pdb
     RDKit          3D

 20 19  0  0  1  0  0  0  0  0999 V2000
   12.7925  -18.4419   14.8070 O   0  0  0  0  0  0  0  0  0  0  0  0
   11.4305  -18.2174   14.6177 C   0  0  0  0  0  0  0  0  0  0  0  0
   11.2271  -16.7403   14.3285 C   0  0  2  0  0  0  0  0  0  0  0  0
   11.8927  -16.3984   13.1124 N   0  0  0  0  0  0  0  0  0  0  0  0
   11.6076  -15.8944   15.4725 C   0  0  0  0  0  0  0  0  0  0  0  0
   12.7637  -15.3677   15.5696 O   0  0  0  0  0  0  0  0  0  0  0  0
   10.6666  -15.6554   16.4976 N   0  0  0  0  0  0  0  0  0  0  0  0
   10.8995  -14.7964   17.6373 C   0  0  1  0  0  0  0  0  0  0  0  0
    9.5778  -14.3770   18.1854 C   0  0  0  0  0  0  0  0  0  0  0  0
    9.6541  -13.4880   19.3846 C   0  0  0  0  0  0  0  0  0  0  0  0
    8.3285  -13.0230   19.8946 C   0  0  0  0  0  0  0  0  0  0  0  0
    8.5791  -12.1985   21.1466 C   0  0  0  0  0  0  0  0  0  0  0  0
    7.3271  -11.6962   21.6772 N   0  0  0  0  0  0  0  0  0  0  0  0
   11.5911  -15.5991   18.6919 C   0  0  0  0  0  0  0  0  0  0  0  0
   11.1681  -16.7198   19.0777 O   0  0  0  0  0  0  0  0  0  0  0  0
   12.7773  -15.1050   19.3042 N   0  0  0  0  0  0  0  0  0  0  0  0
   13.4485  -15.7523   20.3850 C   0  0  0  0  0  0  0  0  0  0  0  0
   14.6039  -15.0012   20.8952 C   0  0  0  0  0  0  0  0  0  0  0  0
   15.0228  -14.0104   20.2492 O   0  0  0  0  0  0  0  0  0  0  0  0
   15.2685  -15.3262   22.0644 O   0  0  0  0  0  0  0  0  0  0  0  0
  2  1  1  0
  3  2  1  0
  3  4  1  6
  5  3  1  0
  6  5  2  0
  7  5  1  0
  8  9  1  1
  8  7  1  0
 10  9  1  0
 11 12  1  0
 11 10  1  0
 13 12  1  0
 14 15  2  0
 14  8  1  0
 16 14  1  0
 17 16  1  0
 18 17  1  0
 18 20  1  0
 19 18  2  0
M  END
$$$$
