ASH.pdb
     RDKit          3D

 22 22  0  0  1  0  0  0  0  0999 V2000
   18.1086  -12.0386  -17.0049 C   0  0  0  0  0  0  0  0  0  0  0  0
   19.6281  -12.0230  -17.1046 C   0  0  2  0  0  0  0  0  0  0  0  0
   20.1475  -13.3551  -17.0928 N   0  0  0  0  0  0  0  0  0  0  0  0
   20.2272  -11.1558  -16.0630 C   0  0  0  0  0  0  0  0  0  0  0  0
   19.4866  -10.7349  -15.1388 O   0  0  0  0  0  0  0  0  0  0  0  0
   24.0963   -9.9042  -16.3086 O   0  0  0  0  0  0  0  0  0  0  0  0
   23.6341  -10.0463  -15.0039 C   0  0  0  0  0  0  0  0  0  0  0  0
   22.1105   -9.8628  -14.9953 C   0  0  2  0  0  0  0  0  0  0  0  0
   21.5924  -10.7635  -16.0363 N   0  0  0  0  0  0  0  0  0  0  0  0
   21.8499   -8.4513  -15.3486 C   0  0  0  0  0  0  0  0  0  0  0  0
   21.6874   -8.1706  -16.5706 O   0  0  0  0  0  0  0  0  0  0  0  0
   21.7690   -7.4008  -14.4325 N   0  0  0  0  0  0  0  0  0  0  0  0
   21.4006   -6.0084  -14.8074 C   0  0  1  0  0  0  0  0  0  0  0  0
   19.9639   -5.7673  -14.4902 C   0  0  0  0  0  0  0  0  0  0  0  0
   19.1978   -5.3816  -15.6981 C   0  0  0  0  0  0  0  0  0  0  0  0
   19.4904   -4.4695  -16.6805 C   0  0  0  0  0  0  0  0  0  0  0  0
   18.5146   -4.5297  -17.6099 N   0  0  0  0  0  0  0  0  0  0  0  0
   17.6305   -5.4531  -17.2297 C   0  0  0  0  0  0  0  0  0  0  0  0
   18.0189   -5.9906  -16.0688 N   0  0  0  0  0  0  0  0  0  0  0  0
   22.2332   -5.2092  -13.8464 C   0  0  0  0  0  0  0  0  0  0  0  0
   22.7139   -5.7585  -12.8408 O   0  0  0  0  0  0  0  0  0  0  0  0
   22.4711   -3.8890  -14.0526 O   0  0  0  0  0  0  0  0  0  0  0  0
  2  1  1  1
  2  4  1  0
  2  3  1  0
  4  9  1  0
  5  4  2  0
  7  6  1  0
  8  7  1  6
  8 10  1  0
  9  8  1  0
 10 12  1  0
 10 11  2  0
 12 13  1  0
 13 20  1  0
 13 14  1  1
 14 15  1  0
 15 16  2  0
 15 19  1  0
 16 17  1  0
 17 18  1  0
 19 18  2  0
 20 22  1  0
 21 20  2  0
M  END
$$$$
