ASH.pdb
     RDKit          3D

 22 22  0  0  1  0  0  0  0  0999 V2000
   18.0021  -13.0093  -16.2982 C   0  0  0  0  0  0  0  0  0  0  0  0
   18.8025  -11.9081  -16.9806 C   0  0  2  0  0  0  0  0  0  0  0  0
   19.8333  -12.4674  -17.7985 N   0  0  0  0  0  0  0  0  0  0  0  0
   19.3105  -10.9231  -15.9970 C   0  0  0  0  0  0  0  0  0  0  0  0
   18.4921  -10.4002  -15.1992 O   0  0  0  0  0  0  0  0  0  0  0  0
   23.2064   -9.6575  -16.0139 O   0  0  0  0  0  0  0  0  0  0  0  0
   22.6144   -9.7022  -14.7554 C   0  0  0  0  0  0  0  0  0  0  0  0
   21.0995   -9.5144  -14.9136 C   0  0  2  0  0  0  0  0  0  0  0  0
   20.6703  -10.5252  -15.8921 N   0  0  0  0  0  0  0  0  0  0  0  0
   20.8931   -8.1509  -15.4460 C   0  0  0  0  0  0  0  0  0  0  0  0
   20.8979   -8.0022  -16.7015 O   0  0  0  0  0  0  0  0  0  0  0  0
   20.6922   -7.0109  -14.6653 N   0  0  0  0  0  0  0  0  0  0  0  0
   20.4380   -5.6590  -15.2332 C   0  0  1  0  0  0  0  0  0  0  0  0
   19.2322   -5.0634  -14.5893 C   0  0  0  0  0  0  0  0  0  0  0  0
   19.0206   -3.6626  -15.0225 C   0  0  0  0  0  0  0  0  0  0  0  0
   19.6128   -2.9472  -16.0326 C   0  0  0  0  0  0  0  0  0  0  0  0
   19.0316   -1.7308  -16.0788 N   0  0  0  0  0  0  0  0  0  0  0  0
   18.0979   -1.6764  -15.1280 C   0  0  0  0  0  0  0  0  0  0  0  0
   18.0665   -2.8383  -14.4672 N   0  0  0  0  0  0  0  0  0  0  0  0
   21.6449   -4.9024  -14.7575 C   0  0  0  0  0  0  0  0  0  0  0  0
   22.1857   -5.2145  -13.6832 O   0  0  0  0  0  0  0  0  0  0  0  0
   22.1600   -3.8754  -15.4800 O   0  0  0  0  0  0  0  0  0  0  0  0
  2  1  1  1
  2  4  1  0
  2  3  1  0
  4  9  1  0
  5  4  2  0
  7  6  1  0
  8  7  1  6
  8 10  1  0
  9  8  1  0
 10 12  1  0
 10 11  2  0
 12 13  1  0
 13 20  1  0
 13 14  1  1
 14 15  1  0
 15 16  2  0
 15 19  1  0
 16 17  1  0
 17 18  1  0
 19 18  2  0
 20 22  1  0
 21 20  2  0
M  END
$$$$
