ASH.pdb
     RDKit          3D

 22 22  0  0  1  0  0  0  0  0999 V2000
   18.0452  -13.1304  -17.9289 C   0  0  0  0  0  0  0  0  0  0  0  0
   19.1157  -13.5063  -16.9133 C   0  0  2  0  0  0  0  0  0  0  0  0
   18.7049  -14.6396  -16.1444 N   0  0  0  0  0  0  0  0  0  0  0  0
   19.4970  -12.3436  -16.0775 C   0  0  0  0  0  0  0  0  0  0  0  0
   18.6453  -11.8779  -15.2791 O   0  0  0  0  0  0  0  0  0  0  0  0
   22.9283   -9.3262  -14.4449 O   0  0  0  0  0  0  0  0  0  0  0  0
   22.5857  -10.4389  -15.2069 C   0  0  0  0  0  0  0  0  0  0  0  0
   21.0566  -10.5163  -15.3110 C   0  0  2  0  0  0  0  0  0  0  0  0
   20.7697  -11.7132  -16.1163 N   0  0  0  0  0  0  0  0  0  0  0  0
   20.6156   -9.2941  -16.0159 C   0  0  0  0  0  0  0  0  0  0  0  0
   20.7075   -9.2761  -17.2766 O   0  0  0  0  0  0  0  0  0  0  0  0
   20.1032   -8.1543  -15.3932 N   0  0  0  0  0  0  0  0  0  0  0  0
   19.6711   -6.9369  -16.1322 C   0  0  1  0  0  0  0  0  0  0  0  0
   18.1818   -6.8737  -16.1670 C   0  0  0  0  0  0  0  0  0  0  0  0
   17.7053   -5.6006  -16.7559 C   0  0  0  0  0  0  0  0  0  0  0  0
   17.8548   -5.0991  -18.0244 C   0  0  0  0  0  0  0  0  0  0  0  0
   17.1787   -3.9340  -18.0948 N   0  0  0  0  0  0  0  0  0  0  0  0
   16.6160   -3.7039  -16.9077 C   0  0  0  0  0  0  0  0  0  0  0  0
   16.9179   -4.7016  -16.0704 N   0  0  0  0  0  0  0  0  0  0  0  0
   20.1653   -5.8455  -15.2266 C   0  0  0  0  0  0  0  0  0  0  0  0
   20.6858   -6.1360  -14.1364 O   0  0  0  0  0  0  0  0  0  0  0  0
   20.0521   -4.5386  -15.5748 O   0  0  0  0  0  0  0  0  0  0  0  0
  2  1  1  6
  2  4  1  0
  2  3  1  0
  4  9  1  0
  5  4  2  0
  7  6  1  0
  8  7  1  6
  8 10  1  0
  9  8  1  0
 10 12  1  0
 10 11  2  0
 12 13  1  0
 13 20  1  0
 13 14  1  1
 14 15  1  0
 15 16  2  0
 15 19  1  0
 16 17  1  0
 17 18  1  0
 19 18  2  0
 20 22  1  0
 21 20  2  0
M  END
$$$$
