ASH.pdb
     RDKit          3D

 22 22  0  0  1  0  0  0  0  0999 V2000
   41.8195  -23.3586    7.4583 C   0  0  0  0  0  0  0  0  0  0  0  0
   41.8871  -24.1044    6.1323 C   0  0  2  0  0  0  0  0  0  0  0  0
   42.9531  -23.5995    5.3241 N   0  0  0  0  0  0  0  0  0  0  0  0
   40.5768  -24.0927    5.4404 C   0  0  0  0  0  0  0  0  0  0  0  0
   40.1738  -23.0104    4.9443 O   0  0  0  0  0  0  0  0  0  0  0  0
   37.9373  -27.2920    5.4779 O   0  0  0  0  0  0  0  0  0  0  0  0
   38.0592  -26.6036    4.2748 C   0  0  0  0  0  0  0  0  0  0  0  0
   38.4595  -25.1524    4.5728 C   0  0  2  0  0  0  0  0  0  0  0  0
   39.7370  -25.2297    5.2976 N   0  0  0  0  0  0  0  0  0  0  0  0
   37.4015  -24.5881    5.4374 C   0  0  0  0  0  0  0  0  0  0  0  0
   37.6012  -24.5840    6.6857 O   0  0  0  0  0  0  0  0  0  0  0  0
   36.1943  -24.0573    4.9787 N   0  0  0  0  0  0  0  0  0  0  0  0
   35.1530  -23.4861    5.8755 C   0  0  1  0  0  0  0  0  0  0  0  0
   34.0881  -22.8375    5.0579 C   0  0  0  0  0  0  0  0  0  0  0  0
   32.9769  -22.3446    5.9047 C   0  0  0  0  0  0  0  0  0  0  0  0
   32.8805  -22.2402    7.2695 C   0  0  0  0  0  0  0  0  0  0  0  0
   31.6965  -21.6636    7.5612 N   0  0  0  0  0  0  0  0  0  0  0  0
   31.0615  -21.4084    6.4165 C   0  0  0  0  0  0  0  0  0  0  0  0
   31.8160  -21.8114    5.3889 N   0  0  0  0  0  0  0  0  0  0  0  0
   34.5774  -24.7273    6.4949 C   0  0  0  0  0  0  0  0  0  0  0  0
   34.4776  -25.7654    5.8194 O   0  0  0  0  0  0  0  0  0  0  0  0
   34.1580  -24.7387    7.7856 O   0  0  0  0  0  0  0  0  0  0  0  0
  2  1  1  1
  2  4  1  0
  2  3  1  0
  4  9  1  0
  5  4  2  0
  7  6  1  0
  8  7  1  1
  8 10  1  0
  9  8  1  0
 10 12  1  0
 10 11  2  0
 12 13  1  0
 13 20  1  0
 13 14  1  6
 14 15  1  0
 15 16  2  0
 15 19  1  0
 16 17  1  0
 17 18  1  0
 19 18  2  0
 20 22  1  0
 21 20  2  0
M  END
$$$$
