ASH.pdb
     RDKit          3D

 22 22  0  0  1  0  0  0  0  0999 V2000
   43.3946  -14.4528  -11.6348 C   0  0  0  0  0  0  0  0  0  0  0  0
   43.8531  -14.9768  -10.2805 C   0  0  2  0  0  0  0  0  0  0  0  0
   43.7339  -16.4005  -10.2245 N   0  0  0  0  0  0  0  0  0  0  0  0
   43.1504  -14.2901   -9.1713 C   0  0  0  0  0  0  0  0  0  0  0  0
   41.9589  -14.6103   -8.9310 O   0  0  0  0  0  0  0  0  0  0  0  0
   44.8265  -11.1963   -6.9126 O   0  0  0  0  0  0  0  0  0  0  0  0
   44.0636  -12.1609   -6.2618 C   0  0  0  0  0  0  0  0  0  0  0  0
   42.9965  -12.6859   -7.2319 C   0  0  2  0  0  0  0  0  0  0  0  0
   43.7348  -13.2861   -8.3534 N   0  0  0  0  0  0  0  0  0  0  0  0
   42.2199  -11.5128   -7.6857 C   0  0  0  0  0  0  0  0  0  0  0  0
   42.5897  -10.9374   -8.7490 O   0  0  0  0  0  0  0  0  0  0  0  0
   41.1050  -10.9901   -7.0274 N   0  0  0  0  0  0  0  0  0  0  0  0
   40.3057   -9.8460   -7.5441 C   0  0  1  0  0  0  0  0  0  0  0  0
   39.0474   -9.7166   -6.7549 C   0  0  0  0  0  0  0  0  0  0  0  0
   38.2645   -8.5296   -7.1708 C   0  0  0  0  0  0  0  0  0  0  0  0
   38.4482   -7.6705   -8.2248 C   0  0  0  0  0  0  0  0  0  0  0  0
   37.4288   -6.7871   -8.2257 N   0  0  0  0  0  0  0  0  0  0  0  0
   36.6218   -7.0778   -7.2044 C   0  0  0  0  0  0  0  0  0  0  0  0
   37.1036   -8.1349   -6.5426 N   0  0  0  0  0  0  0  0  0  0  0  0
   41.1933   -8.6830   -7.2048 C   0  0  0  0  0  0  0  0  0  0  0  0
   41.6748   -8.5860   -6.0635 O   0  0  0  0  0  0  0  0  0  0  0  0
   41.4805   -7.7268   -8.1242 O   0  0  0  0  0  0  0  0  0  0  0  0
  2  1  1  6
  2  4  1  0
  2  3  1  0
  4  9  1  0
  5  4  2  0
  7  6  1  0
  8  7  1  1
  8 10  1  0
  9  8  1  0
 10 12  1  0
 10 11  2  0
 12 13  1  0
 13 20  1  0
 13 14  1  1
 14 15  1  0
 15 16  2  0
 15 19  1  0
 16 17  1  0
 17 18  1  0
 19 18  2  0
 20 22  1  0
 21 20  2  0
M  END
$$$$
