ASH.pdb
     RDKit          3D

 22 22  0  0  1  0  0  0  0  0999 V2000
   25.7174  -32.1600   -9.5078 C   0  0  0  0  0  0  0  0  0  0  0  0
   25.4053  -33.3738   -8.6429 C   0  0  2  0  0  0  0  0  0  0  0  0
   24.1138  -33.8994   -8.9594 N   0  0  0  0  0  0  0  0  0  0  0  0
   25.5711  -33.0659   -7.2029 C   0  0  0  0  0  0  0  0  0  0  0  0
   26.6828  -32.6304   -6.8101 O   0  0  0  0  0  0  0  0  0  0  0  0
   23.5871  -32.5625   -2.7986 O   0  0  0  0  0  0  0  0  0  0  0  0
   23.4288  -32.9405   -4.1284 C   0  0  0  0  0  0  0  0  0  0  0  0
   24.8076  -32.9735   -4.8014 C   0  0  2  0  0  0  0  0  0  0  0  0
   24.5518  -33.2302   -6.2268 N   0  0  0  0  0  0  0  0  0  0  0  0
   25.5512  -34.0970   -4.1932 C   0  0  0  0  0  0  0  0  0  0  0  0
   25.2161  -35.2710   -4.5214 O   0  0  0  0  0  0  0  0  0  0  0  0
   26.5994  -33.9600   -3.2810 N   0  0  0  0  0  0  0  0  0  0  0  0
   27.3958  -35.1061   -2.7644 C   0  0  1  0  0  0  0  0  0  0  0  0
   28.6298  -34.5995   -2.0984 C   0  0  0  0  0  0  0  0  0  0  0  0
   29.4703  -35.7101   -1.5936 C   0  0  0  0  0  0  0  0  0  0  0  0
   29.7307  -36.9431   -2.1365 C   0  0  0  0  0  0  0  0  0  0  0  0
   30.6151  -37.5731   -1.3361 N   0  0  0  0  0  0  0  0  0  0  0  0
   30.9082  -36.7639   -0.3172 C   0  0  0  0  0  0  0  0  0  0  0  0
   30.2268  -35.6208   -0.4457 N   0  0  0  0  0  0  0  0  0  0  0  0
   26.4822  -35.6524   -1.7050 C   0  0  0  0  0  0  0  0  0  0  0  0
   25.8254  -34.8733   -0.9941 O   0  0  0  0  0  0  0  0  0  0  0  0
   26.3599  -36.9891   -1.5039 O   0  0  0  0  0  0  0  0  0  0  0  0
  2  1  1  6
  2  4  1  0
  2  3  1  0
  4  9  1  0
  5  4  2  0
  7  6  1  0
  8  7  1  1
  8 10  1  0
  9  8  1  0
 10 12  1  0
 10 11  2  0
 12 13  1  0
 13 20  1  0
 13 14  1  1
 14 15  1  0
 15 16  2  0
 15 19  1  0
 16 17  1  0
 17 18  1  0
 19 18  2  0
 20 22  1  0
 21 20  2  0
M  END
$$$$
