ASH.pdb
     RDKit          3D

 22 22  0  0  1  0  0  0  0  0999 V2000
   17.2599  -12.1793  -17.7586 C   0  0  0  0  0  0  0  0  0  0  0  0
   18.5801  -12.3210  -17.0131 C   0  0  2  0  0  0  0  0  0  0  0  0
   18.6098  -13.5412  -16.2684 N   0  0  0  0  0  0  0  0  0  0  0  0
   18.8608  -11.1260  -16.1831 C   0  0  0  0  0  0  0  0  0  0  0  0
   17.8999  -10.5694  -15.5944 O   0  0  0  0  0  0  0  0  0  0  0  0
   22.5839   -9.5509  -15.9927 O   0  0  0  0  0  0  0  0  0  0  0  0
   21.8538   -9.3521  -14.8250 C   0  0  0  0  0  0  0  0  0  0  0  0
   20.3578   -9.3694  -15.1672 C   0  0  2  0  0  0  0  0  0  0  0  0
   20.1521  -10.5606  -16.0050 N   0  0  0  0  0  0  0  0  0  0  0  0
   20.0826   -8.1366  -15.9351 C   0  0  0  0  0  0  0  0  0  0  0  0
   20.2851   -8.1626  -17.1827 O   0  0  0  0  0  0  0  0  0  0  0  0
   19.6143   -6.9415  -15.3856 N   0  0  0  0  0  0  0  0  0  0  0  0
   19.2907   -5.7350  -16.1945 C   0  0  1  0  0  0  0  0  0  0  0  0
   18.1150   -5.0349  -15.6024 C   0  0  0  0  0  0  0  0  0  0  0  0
   17.7655   -3.8160  -16.3685 C   0  0  0  0  0  0  0  0  0  0  0  0
   17.9212   -3.5310  -17.7016 C   0  0  0  0  0  0  0  0  0  0  0  0
   17.3819   -2.3168  -17.9345 N   0  0  0  0  0  0  0  0  0  0  0  0
   16.8972   -1.8462  -16.7845 C   0  0  0  0  0  0  0  0  0  0  0  0
   17.1151   -2.7368  -15.8114 N   0  0  0  0  0  0  0  0  0  0  0  0
   20.5071   -4.8848  -15.9640 C   0  0  0  0  0  0  0  0  0  0  0  0
   21.3121   -5.1886  -15.0676 O   0  0  0  0  0  0  0  0  0  0  0  0
   20.7462   -3.7816  -16.7177 O   0  0  0  0  0  0  0  0  0  0  0  0
  2  1  1  1
  2  4  1  0
  2  3  1  0
  4  9  1  0
  5  4  2  0
  7  6  1  0
  8  7  1  6
  8 10  1  0
  9  8  1  0
 10 12  1  0
 10 11  2  0
 12 13  1  0
 13 20  1  0
 13 14  1  1
 14 15  1  0
 15 16  2  0
 15 19  1  0
 16 17  1  0
 17 18  1  0
 19 18  2  0
 20 22  1  0
 21 20  2  0
M  END
$$$$
