ASH.pdb
     RDKit          3D

 22 22  0  0  1  0  0  0  0  0999 V2000
   18.7567  -15.1039  -15.5304 C   0  0  0  0  0  0  0  0  0  0  0  0
   17.4856  -14.4261  -16.0240 C   0  0  2  0  0  0  0  0  0  0  0  0
   16.8143  -15.2498  -16.9807 N   0  0  0  0  0  0  0  0  0  0  0  0
   17.7638  -13.0600  -16.5260 C   0  0  0  0  0  0  0  0  0  0  0  0
   18.8969  -12.8238  -17.0161 O   0  0  0  0  0  0  0  0  0  0  0  0
   15.0749  -10.0696  -16.0700 O   0  0  0  0  0  0  0  0  0  0  0  0
   15.8103   -9.9548  -17.2456 C   0  0  0  0  0  0  0  0  0  0  0  0
   17.1542  -10.6724  -17.0613 C   0  0  2  0  0  0  0  0  0  0  0  0
   16.8307  -11.9892  -16.4915 N   0  0  0  0  0  0  0  0  0  0  0  0
   17.9390   -9.8665  -16.1023 C   0  0  0  0  0  0  0  0  0  0  0  0
   17.8457  -10.1561  -14.8752 O   0  0  0  0  0  0  0  0  0  0  0  0
   18.7786   -8.8063  -16.4495 N   0  0  0  0  0  0  0  0  0  0  0  0
   19.4470   -7.9256  -15.4533 C   0  0  1  0  0  0  0  0  0  0  0  0
   20.4989   -7.1129  -16.1287 C   0  0  0  0  0  0  0  0  0  0  0  0
   21.0267   -6.0559  -15.2348 C   0  0  0  0  0  0  0  0  0  0  0  0
   21.6808   -6.1556  -14.0328 C   0  0  0  0  0  0  0  0  0  0  0  0
   22.0256   -4.9117  -13.6410 N   0  0  0  0  0  0  0  0  0  0  0  0
   21.6045   -4.0491  -14.5670 C   0  0  0  0  0  0  0  0  0  0  0  0
   20.9923   -4.7154  -15.5512 N   0  0  0  0  0  0  0  0  0  0  0  0
   18.3239   -7.0077  -15.0638 C   0  0  0  0  0  0  0  0  0  0  0  0
   17.4632   -6.6941  -15.9032 O   0  0  0  0  0  0  0  0  0  0  0  0
   18.2300   -6.5072  -13.8057 O   0  0  0  0  0  0  0  0  0  0  0  0
  2  1  1  6
  2  4  1  0
  2  3  1  0
  4  9  1  0
  5  4  2  0
  7  6  1  0
  8  7  1  1
  8 10  1  0
  9  8  1  0
 10 12  1  0
 10 11  2  0
 12 13  1  0
 13 20  1  0
 13 14  1  6
 14 15  1  0
 15 16  2  0
 15 19  1  0
 16 17  1  0
 17 18  1  0
 19 18  2  0
 20 22  1  0
 21 20  2  0
M  END
$$$$
