WVD.pdb
     RDKit          3D

 30 31  0  0  1  0  0  0  0  0999 V2000
    6.2692  -17.4689   23.9872 N   0  0  0  0  0  0  0  0  0  0  0  0
    6.8301  -16.1722   23.6422 C   0  0  1  0  0  0  0  0  0  0  0  0
    7.8343  -15.7862   24.7074 C   0  0  0  0  0  0  0  0  0  0  0  0
    7.2250  -15.0004   25.7917 C   0  0  0  0  0  0  0  0  0  0  0  0
    6.4041  -15.4556   26.8070 C   0  0  0  0  0  0  0  0  0  0  0  0
    6.0397  -14.4422   27.6105 N   0  0  0  0  0  0  0  0  0  0  0  0
    6.6271  -13.3408   27.1092 C   0  0  0  0  0  0  0  0  0  0  0  0
    6.5454  -12.0367   27.6045 C   0  0  0  0  0  0  0  0  0  0  0  0
    7.2328  -11.0291   26.9388 C   0  0  0  0  0  0  0  0  0  0  0  0
    7.9760  -11.3211   25.8151 C   0  0  0  0  0  0  0  0  0  0  0  0
    8.0319  -12.6179   25.3580 C   0  0  0  0  0  0  0  0  0  0  0  0
    7.3676  -13.6574   25.9822 C   0  0  0  0  0  0  0  0  0  0  0  0
    7.4625  -16.2180   22.2965 C   0  0  0  0  0  0  0  0  0  0  0  0
    7.5581  -17.2642   21.6092 O   0  0  0  0  0  0  0  0  0  0  0  0
    8.9834  -13.4018   18.5741 C   0  0  0  0  0  0  0  0  0  0  0  0
    8.3799  -13.5457   19.9388 C   0  0  1  0  0  0  0  0  0  0  0  0
    7.0527  -12.9011   20.1142 C   0  0  0  0  0  0  0  0  0  0  0  0
    8.4393  -15.0058   20.3388 C   0  0  2  0  0  0  0  0  0  0  0  0
    7.9920  -15.0232   21.7424 N   0  0  0  0  0  0  0  0  0  0  0  0
    9.7884  -15.5799   20.2795 C   0  0  0  0  0  0  0  0  0  0  0  0
   10.3054  -15.9767   19.1775 O   0  0  0  0  0  0  0  0  0  0  0  0
   10.6261  -15.7442   21.4147 N   0  0  0  0  0  0  0  0  0  0  0  0
   11.8661  -16.5378   21.3631 C   0  0  1  0  0  0  0  0  0  0  0  0
   13.0168  -15.6046   21.5261 C   0  0  0  0  0  0  0  0  0  0  0  0
   13.7063  -15.2250   20.2915 C   0  0  0  0  0  0  0  0  0  0  0  0
   14.3846  -14.1655   20.2768 O   0  0  0  0  0  0  0  0  0  0  0  0
   11.8117  -17.5868   22.4077 C   0  0  0  0  0  0  0  0  0  0  0  0
   12.7573  -18.3967   22.5122 O   0  0  0  0  0  0  0  0  0  0  0  0
   13.6551  -15.9713   19.1268 O   0  0  0  0  0  0  0  0  0  0  0  0
   10.7283  -17.6646   23.2532 O   0  0  0  0  0  0  0  0  0  0  0  0
  2  1  1  1
  2  3  1  0
  2 13  1  0
  3  4  1  0
  4  5  2  0
  4 12  1  0
  5  6  1  0
  6  7  1  0
  7  8  2  0
  8  9  1  0
 10  9  2  0
 11 10  1  0
 12 11  2  0
 12  7  1  0
 13 14  2  0
 16 15  1  6
 16 17  1  0
 18 16  1  0
 19 13  1  0
 18 19  1  1
 20 22  1  0
 20 18  1  0
 21 20  2  0
 23 22  1  0
 23 27  1  0
 23 24  1  1
 25 26  2  0
 25 24  1  0
 27 30  1  0
 28 27  2  0
 29 25  1  0
M  END
$$$$
