WVD.pdb
     RDKit          3D

 30 31  0  0  1  0  0  0  0  0999 V2000
    6.6037  -16.9632   25.1824 N   0  0  0  0  0  0  0  0  0  0  0  0
    7.1863  -15.7771   24.5753 C   0  0  1  0  0  0  0  0  0  0  0  0
    8.3944  -15.3665   25.3901 C   0  0  0  0  0  0  0  0  0  0  0  0
    8.0308  -14.5397   26.5514 C   0  0  0  0  0  0  0  0  0  0  0  0
    8.2738  -14.8044   27.8866 C   0  0  0  0  0  0  0  0  0  0  0  0
    7.7910  -13.8172   28.6597 N   0  0  0  0  0  0  0  0  0  0  0  0
    7.2403  -12.9227   27.8195 C   0  0  0  0  0  0  0  0  0  0  0  0
    6.6099  -11.7215   28.1546 C   0  0  0  0  0  0  0  0  0  0  0  0
    6.1033  -10.9292   27.1315 C   0  0  0  0  0  0  0  0  0  0  0  0
    6.2255  -11.3295   25.8182 C   0  0  0  0  0  0  0  0  0  0  0  0
    6.8530  -12.5195   25.5282 C   0  0  0  0  0  0  0  0  0  0  0  0
    7.3745  -13.3449   26.5071 C   0  0  0  0  0  0  0  0  0  0  0  0
    7.5563  -16.0432   23.1593 C   0  0  0  0  0  0  0  0  0  0  0  0
    7.6174  -17.1943   22.6619 O   0  0  0  0  0  0  0  0  0  0  0  0
    8.4988  -13.9995   18.7942 C   0  0  0  0  0  0  0  0  0  0  0  0
    7.9820  -13.8924   20.1973 C   0  0  1  0  0  0  0  0  0  0  0  0
    6.5872  -13.3952   20.3209 C   0  0  0  0  0  0  0  0  0  0  0  0
    8.2610  -15.1983   20.9130 C   0  0  2  0  0  0  0  0  0  0  0  0
    7.8598  -14.9483   22.3083 N   0  0  0  0  0  0  0  0  0  0  0  0
    9.6762  -15.5859   20.9044 C   0  0  0  0  0  0  0  0  0  0  0  0
   10.4787  -15.2318   21.8369 O   0  0  0  0  0  0  0  0  0  0  0  0
   10.2722  -16.3724   19.8829 N   0  0  0  0  0  0  0  0  0  0  0  0
   11.5678  -17.0477   20.0718 C   0  0  1  0  0  0  0  0  0  0  0  0
   11.4663  -17.9067   21.2857 C   0  0  0  0  0  0  0  0  0  0  0  0
   12.6335  -18.7436   21.5706 C   0  0  0  0  0  0  0  0  0  0  0  0
   13.6357  -18.6643   20.8143 O   0  0  0  0  0  0  0  0  0  0  0  0
   11.8994  -17.8077   18.8441 C   0  0  0  0  0  0  0  0  0  0  0  0
   13.0915  -17.8927   18.4797 O   0  0  0  0  0  0  0  0  0  0  0  0
   12.6997  -19.6266   22.6345 O   0  0  0  0  0  0  0  0  0  0  0  0
   10.9010  -18.4132   18.1152 O   0  0  0  0  0  0  0  0  0  0  0  0
  2  1  1  1
  2  3  1  0
  2 13  1  0
  3  4  1  0
  4  5  2  0
  4 12  1  0
  5  6  1  0
  6  7  1  0
  7  8  2  0
  8  9  1  0
 10  9  2  0
 11 10  1  0
 12 11  2  0
 12  7  1  0
 13 14  2  0
 16 15  1  6
 16 17  1  0
 18 16  1  0
 19 13  1  0
 18 19  1  1
 20 22  1  0
 20 18  1  0
 21 20  2  0
 23 22  1  0
 23 27  1  0
 23 24  1  1
 25 26  2  0
 25 24  1  0
 27 30  1  0
 28 27  2  0
 29 25  1  0
M  END
$$$$
