WVD.pdb
     RDKit          3D

 30 31  0  0  1  0  0  0  0  0999 V2000
    6.1900  -17.7307   24.1029 N   0  0  0  0  0  0  0  0  0  0  0  0
    6.6688  -16.3886   23.8121 C   0  0  1  0  0  0  0  0  0  0  0  0
    7.5204  -15.9221   24.9737 C   0  0  0  0  0  0  0  0  0  0  0  0
    6.8030  -14.9849   25.8520 C   0  0  0  0  0  0  0  0  0  0  0  0
    5.6758  -15.2342   26.6130 C   0  0  0  0  0  0  0  0  0  0  0  0
    5.3057  -14.1313   27.2851 N   0  0  0  0  0  0  0  0  0  0  0  0
    6.1953  -13.1783   26.9541 C   0  0  0  0  0  0  0  0  0  0  0  0
    6.2271  -11.8556   27.4034 C   0  0  0  0  0  0  0  0  0  0  0  0
    7.2375  -11.0211   26.9411 C   0  0  0  0  0  0  0  0  0  0  0  0
    8.1826  -11.4983   26.0584 C   0  0  0  0  0  0  0  0  0  0  0  0
    8.1177  -12.8074   25.6388 C   0  0  0  0  0  0  0  0  0  0  0  0
    7.1343  -13.6795   26.0675 C   0  0  0  0  0  0  0  0  0  0  0  0
    7.4384  -16.3730   22.5392 C   0  0  0  0  0  0  0  0  0  0  0  0
    7.8849  -17.4071   21.9848 O   0  0  0  0  0  0  0  0  0  0  0  0
    9.1101  -13.5101   18.8984 C   0  0  0  0  0  0  0  0  0  0  0  0
    8.2627  -13.6822   20.1230 C   0  0  1  0  0  0  0  0  0  0  0  0
    6.8555  -13.2251   19.9873 C   0  0  0  0  0  0  0  0  0  0  0  0
    8.4282  -15.1017   20.6260 C   0  0  2  0  0  0  0  0  0  0  0  0
    7.6909  -15.1304   21.9012 N   0  0  0  0  0  0  0  0  0  0  0  0
    9.8220  -15.4751   20.8928 C   0  0  0  0  0  0  0  0  0  0  0  0
   10.4950  -14.9386   21.8405 O   0  0  0  0  0  0  0  0  0  0  0  0
   10.5363  -16.4451   20.1404 N   0  0  0  0  0  0  0  0  0  0  0  0
   11.9130  -16.8418   20.4831 C   0  0  1  0  0  0  0  0  0  0  0  0
   11.9367  -18.3226   20.6514 C   0  0  0  0  0  0  0  0  0  0  0  0
   13.2642  -18.9246   20.7903 C   0  0  0  0  0  0  0  0  0  0  0  0
   14.2789  -18.1938   20.6526 O   0  0  0  0  0  0  0  0  0  0  0  0
   12.8318  -16.3589   19.4261 C   0  0  0  0  0  0  0  0  0  0  0  0
   14.0590  -16.3121   19.6559 O   0  0  0  0  0  0  0  0  0  0  0  0
   13.4707  -20.2651   21.0669 O   0  0  0  0  0  0  0  0  0  0  0  0
   12.3343  -15.9670   18.2040 O   0  0  0  0  0  0  0  0  0  0  0  0
  2  1  1  1
  2  3  1  0
  2 13  1  0
  3  4  1  0
  4  5  2  0
  4 12  1  0
  5  6  1  0
  6  7  1  0
  7  8  2  0
  8  9  1  0
 10  9  2  0
 11 10  1  0
 12 11  2  0
 12  7  1  0
 13 14  2  0
 16 15  1  6
 16 17  1  0
 18 16  1  0
 19 13  1  0
 18 19  1  1
 20 22  1  0
 20 18  1  0
 21 20  2  0
 23 22  1  0
 23 27  1  0
 23 24  1  6
 25 26  2  0
 25 24  1  0
 27 30  1  0
 28 27  2  0
 29 25  1  0
M  END
$$$$
