WVD.pdb
     RDKit          3D

 30 31  0  0  1  0  0  0  0  0999 V2000
    6.2446  -17.6559   24.4315 N   0  0  0  0  0  0  0  0  0  0  0  0
    6.7056  -16.3126   24.1186 C   0  0  1  0  0  0  0  0  0  0  0  0
    7.4976  -15.7912   25.2989 C   0  0  0  0  0  0  0  0  0  0  0  0
    6.7055  -14.8887   26.1488 C   0  0  0  0  0  0  0  0  0  0  0  0
    5.6717  -15.2235   27.0038 C   0  0  0  0  0  0  0  0  0  0  0  0
    5.1870  -14.1275   27.6115 N   0  0  0  0  0  0  0  0  0  0  0  0
    5.9103  -13.0937   27.1455 C   0  0  0  0  0  0  0  0  0  0  0  0
    5.7784  -11.7449   27.4863 C   0  0  0  0  0  0  0  0  0  0  0  0
    6.6303  -10.8228   26.8906 C   0  0  0  0  0  0  0  0  0  0  0  0
    7.5812  -11.2407   25.9843 C   0  0  0  0  0  0  0  0  0  0  0  0
    7.6803  -12.5778   25.6743 C   0  0  0  0  0  0  0  0  0  0  0  0
    6.8584  -13.5363   26.2376 C   0  0  0  0  0  0  0  0  0  0  0  0
    7.5271  -16.3180   22.8784 C   0  0  0  0  0  0  0  0  0  0  0  0
    8.1082  -17.3385   22.4347 O   0  0  0  0  0  0  0  0  0  0  0  0
    8.9690  -13.6421   19.0078 C   0  0  0  0  0  0  0  0  0  0  0  0
    8.1306  -13.7840   20.2424 C   0  0  1  0  0  0  0  0  0  0  0  0
    6.6801  -13.5224   20.0549 C   0  0  0  0  0  0  0  0  0  0  0  0
    8.4618  -15.1089   20.8983 C   0  0  2  0  0  0  0  0  0  0  0  0
    7.6730  -15.1129   22.1426 N   0  0  0  0  0  0  0  0  0  0  0  0
    9.8784  -15.2551   21.2520 C   0  0  0  0  0  0  0  0  0  0  0  0
   10.3078  -15.0118   22.4333 O   0  0  0  0  0  0  0  0  0  0  0  0
   10.8810  -15.6712   20.3360 N   0  0  0  0  0  0  0  0  0  0  0  0
   12.1471  -16.2761   20.7844 C   0  0  1  0  0  0  0  0  0  0  0  0
   11.8181  -17.4564   21.6331 C   0  0  0  0  0  0  0  0  0  0  0  0
   12.5076  -17.5228   22.9231 C   0  0  0  0  0  0  0  0  0  0  0  0
   13.3812  -16.6575   23.1891 O   0  0  0  0  0  0  0  0  0  0  0  0
   12.9650  -16.6192   19.5978 C   0  0  0  0  0  0  0  0  0  0  0  0
   12.4591  -17.3023   18.6820 O   0  0  0  0  0  0  0  0  0  0  0  0
   12.2520  -18.4922   23.8776 O   0  0  0  0  0  0  0  0  0  0  0  0
   14.2689  -16.1874   19.5088 O   0  0  0  0  0  0  0  0  0  0  0  0
  2  1  1  1
  2  3  1  0
  2 13  1  0
  3  4  1  0
  4  5  2  0
  4 12  1  0
  5  6  1  0
  6  7  1  0
  7  8  2  0
  8  9  1  0
 10  9  2  0
 11 10  1  0
 12 11  2  0
 12  7  1  0
 13 14  2  0
 16 15  1  6
 16 17  1  0
 18 16  1  0
 19 13  1  0
 18 19  1  1
 20 22  1  0
 20 18  1  0
 21 20  2  0
 23 22  1  0
 23 27  1  0
 23 24  1  6
 25 26  2  0
 25 24  1  0
 27 30  1  0
 28 27  2  0
 29 25  1  0
M  END
$$$$
