WVD.pdb
     RDKit          3D

 30 31  0  0  1  0  0  0  0  0999 V2000
    6.0190  -17.6053   24.0282 N   0  0  0  0  0  0  0  0  0  0  0  0
    6.6347  -16.3042   23.8206 C   0  0  1  0  0  0  0  0  0  0  0  0
    7.4905  -15.9816   25.0272 C   0  0  0  0  0  0  0  0  0  0  0  0
    6.8405  -15.0218   25.9332 C   0  0  0  0  0  0  0  0  0  0  0  0
    5.7769  -15.2519   26.7862 C   0  0  0  0  0  0  0  0  0  0  0  0
    5.4565  -14.1316   27.4552 N   0  0  0  0  0  0  0  0  0  0  0  0
    6.3144  -13.1868   27.0302 C   0  0  0  0  0  0  0  0  0  0  0  0
    6.3767  -11.8523   27.4399 C   0  0  0  0  0  0  0  0  0  0  0  0
    7.3451  -11.0294   26.8779 C   0  0  0  0  0  0  0  0  0  0  0  0
    8.2201  -11.5292   25.9374 C   0  0  0  0  0  0  0  0  0  0  0  0
    8.1273  -12.8492   25.5596 C   0  0  0  0  0  0  0  0  0  0  0  0
    7.1832  -13.7107   26.0870 C   0  0  0  0  0  0  0  0  0  0  0  0
    7.4419  -16.3017   22.5711 C   0  0  0  0  0  0  0  0  0  0  0  0
    7.9964  -17.3249   22.1005 O   0  0  0  0  0  0  0  0  0  0  0  0
    9.0664  -13.5249   18.8414 C   0  0  0  0  0  0  0  0  0  0  0  0
    8.1982  -13.6782   20.0538 C   0  0  1  0  0  0  0  0  0  0  0  0
    6.7763  -13.2899   19.8662 C   0  0  0  0  0  0  0  0  0  0  0  0
    8.4121  -15.0649   20.6256 C   0  0  2  0  0  0  0  0  0  0  0  0
    7.6047  -15.0853   21.8577 N   0  0  0  0  0  0  0  0  0  0  0  0
    9.8065  -15.3466   20.9855 C   0  0  0  0  0  0  0  0  0  0  0  0
   10.4265  -14.6619   21.8719 O   0  0  0  0  0  0  0  0  0  0  0  0
   10.5791  -16.3826   20.3962 N   0  0  0  0  0  0  0  0  0  0  0  0
   12.0160  -16.5434   20.6784 C   0  0  1  0  0  0  0  0  0  0  0  0
   12.3557  -17.9869   20.5282 C   0  0  0  0  0  0  0  0  0  0  0  0
   11.8579  -18.8696   21.5851 C   0  0  0  0  0  0  0  0  0  0  0  0
   11.7321  -18.4103   22.7496 O   0  0  0  0  0  0  0  0  0  0  0  0
   12.7877  -15.6638   19.7699 C   0  0  0  0  0  0  0  0  0  0  0  0
   12.2189  -15.1549   18.7806 O   0  0  0  0  0  0  0  0  0  0  0  0
   11.5140  -20.1940   21.3761 O   0  0  0  0  0  0  0  0  0  0  0  0
   14.1181  -15.4117   20.0172 O   0  0  0  0  0  0  0  0  0  0  0  0
  2  1  1  1
  2  3  1  0
  2 13  1  0
  3  4  1  0
  4  5  2  0
  4 12  1  0
  5  6  1  0
  6  7  1  0
  7  8  2  0
  8  9  1  0
 10  9  2  0
 11 10  1  0
 12 11  2  0
 12  7  1  0
 13 14  2  0
 16 15  1  6
 16 17  1  0
 18 16  1  0
 19 13  1  0
 18 19  1  1
 20 22  1  0
 20 18  1  0
 21 20  2  0
 23 22  1  0
 23 27  1  0
 23 24  1  6
 25 26  2  0
 25 24  1  0
 27 30  1  0
 28 27  2  0
 29 25  1  0
M  END
$$$$
