WVD.pdb
     RDKit          3D

 30 31  0  0  1  0  0  0  0  0999 V2000
    6.3825  -17.3477   25.3747 N   0  0  0  0  0  0  0  0  0  0  0  0
    7.0427  -16.1619   24.8523 C   0  0  1  0  0  0  0  0  0  0  0  0
    8.2564  -15.8726   25.7099 C   0  0  0  0  0  0  0  0  0  0  0  0
    7.9321  -15.0305   26.8718 C   0  0  0  0  0  0  0  0  0  0  0  0
    7.9247  -15.3966   28.2051 C   0  0  0  0  0  0  0  0  0  0  0  0
    7.5744  -14.3557   28.9793 N   0  0  0  0  0  0  0  0  0  0  0  0
    7.3583  -13.3258   28.1416 C   0  0  0  0  0  0  0  0  0  0  0  0
    6.9734  -12.0255   28.4786 C   0  0  0  0  0  0  0  0  0  0  0  0
    6.8019  -11.0979   27.4583 C   0  0  0  0  0  0  0  0  0  0  0  0
    7.0096  -11.4635   26.1455 C   0  0  0  0  0  0  0  0  0  0  0  0
    7.3881  -12.7540   25.8535 C   0  0  0  0  0  0  0  0  0  0  0  0
    7.5726  -13.7155   26.8297 C   0  0  0  0  0  0  0  0  0  0  0  0
    7.4240  -16.3610   23.4283 C   0  0  0  0  0  0  0  0  0  0  0  0
    7.4945  -17.4877   22.8791 O   0  0  0  0  0  0  0  0  0  0  0  0
    8.6371  -14.0813   19.2408 C   0  0  0  0  0  0  0  0  0  0  0  0
    7.9929  -14.0566   20.5943 C   0  0  1  0  0  0  0  0  0  0  0  0
    6.6001  -13.5398   20.6220 C   0  0  0  0  0  0  0  0  0  0  0  0
    8.1847  -15.4125   21.2424 C   0  0  2  0  0  0  0  0  0  0  0  0
    7.7277  -15.2267   22.6306 N   0  0  0  0  0  0  0  0  0  0  0  0
    9.5821  -15.8593   21.2748 C   0  0  0  0  0  0  0  0  0  0  0  0
   10.4673  -15.2569   21.9767 O   0  0  0  0  0  0  0  0  0  0  0  0
   10.0697  -16.9768   20.5464 N   0  0  0  0  0  0  0  0  0  0  0  0
   11.4684  -17.4277   20.6500 C   0  0  1  0  0  0  0  0  0  0  0  0
   11.4605  -18.8664   21.0394 C   0  0  0  0  0  0  0  0  0  0  0  0
   12.7698  -19.4512   21.3355 C   0  0  0  0  0  0  0  0  0  0  0  0
   13.7946  -18.7295   21.2281 O   0  0  0  0  0  0  0  0  0  0  0  0
   12.1538  -17.1747   19.3612 C   0  0  0  0  0  0  0  0  0  0  0  0
   11.5750  -17.4645   18.2925 O   0  0  0  0  0  0  0  0  0  0  0  0
   12.9482  -20.7657   21.7308 O   0  0  0  0  0  0  0  0  0  0  0  0
   13.4157  -16.6253   19.3458 O   0  0  0  0  0  0  0  0  0  0  0  0
  2  1  1  1
  2  3  1  0
  2 13  1  0
  3  4  1  0
  4  5  2  0
  4 12  1  0
  5  6  1  0
  6  7  1  0
  7  8  2  0
  8  9  1  0
 10  9  2  0
 11 10  1  0
 12 11  2  0
 12  7  1  0
 13 14  2  0
 16 15  1  6
 16 17  1  0
 18 16  1  0
 19 13  1  0
 18 19  1  1
 20 22  1  0
 20 18  1  0
 21 20  2  0
 23 22  1  0
 23 27  1  0
 23 24  1  6
 25 26  2  0
 25 24  1  0
 27 30  1  0
 28 27  2  0
 29 25  1  0
M  END
$$$$
