WVD.pdb
     RDKit          3D

 30 31  0  0  1  0  0  0  0  0999 V2000
    5.2470  -16.5073   25.2492 N   0  0  0  0  0  0  0  0  0  0  0  0
    6.5262  -15.9621   24.8235 C   0  0  1  0  0  0  0  0  0  0  0  0
    7.5461  -16.2298   25.9099 C   0  0  0  0  0  0  0  0  0  0  0  0
    8.0455  -14.9905   26.5257 C   0  0  0  0  0  0  0  0  0  0  0  0
    9.3036  -14.7536   27.0479 C   0  0  0  0  0  0  0  0  0  0  0  0
    9.3885  -13.5013   27.5272 N   0  0  0  0  0  0  0  0  0  0  0  0
    8.1860  -12.9385   27.3114 C   0  0  0  0  0  0  0  0  0  0  0  0
    7.7872  -11.6397   27.6378 C   0  0  0  0  0  0  0  0  0  0  0  0
    6.4915  -11.2449   27.3276 C   0  0  0  0  0  0  0  0  0  0  0  0
    5.6267  -12.1240   26.7115 C   0  0  0  0  0  0  0  0  0  0  0  0
    6.0565  -13.3950   26.4059 C   0  0  0  0  0  0  0  0  0  0  0  0
    7.3343  -13.8386   26.6923 C   0  0  0  0  0  0  0  0  0  0  0  0
    6.9462  -16.5644   23.5297 C   0  0  0  0  0  0  0  0  0  0  0  0
    6.1619  -17.1683   22.7577 O   0  0  0  0  0  0  0  0  0  0  0  0
    8.5162  -14.2413   20.2042 C   0  0  0  0  0  0  0  0  0  0  0  0
    7.9382  -14.8325   21.4547 C   0  0  1  0  0  0  0  0  0  0  0  0
    6.4539  -14.8790   21.5044 C   0  0  0  0  0  0  0  0  0  0  0  0
    8.6286  -16.1538   21.7250 C   0  0  2  0  0  0  0  0  0  0  0  0
    8.3040  -16.4601   23.1290 N   0  0  0  0  0  0  0  0  0  0  0  0
   10.0889  -16.0948   21.5936 C   0  0  0  0  0  0  0  0  0  0  0  0
   10.7355  -14.9986   21.7328 O   0  0  0  0  0  0  0  0  0  0  0  0
   10.9010  -17.2241   21.3064 N   0  0  0  0  0  0  0  0  0  0  0  0
   12.3700  -17.1766   21.4069 C   0  0  1  0  0  0  0  0  0  0  0  0
   12.8172  -18.3701   22.1798 C   0  0  0  0  0  0  0  0  0  0  0  0
   12.4326  -18.3924   23.5924 C   0  0  0  0  0  0  0  0  0  0  0  0
   11.5648  -19.2206   23.9716 O   0  0  0  0  0  0  0  0  0  0  0  0
   12.9454  -17.1141   20.0432 C   0  0  0  0  0  0  0  0  0  0  0  0
   14.1831  -17.0155   19.9046 O   0  0  0  0  0  0  0  0  0  0  0  0
   12.9732  -17.5465   24.5454 O   0  0  0  0  0  0  0  0  0  0  0  0
   12.1208  -17.1649   18.9422 O   0  0  0  0  0  0  0  0  0  0  0  0
  2  1  1  1
  2  3  1  0
  2 13  1  0
  3  4  1  0
  4  5  2  0
  4 12  1  0
  5  6  1  0
  6  7  1  0
  7  8  2  0
  8  9  1  0
 10  9  2  0
 11 10  1  0
 12 11  2  0
 12  7  1  0
 13 14  2  0
 16 15  1  6
 16 17  1  0
 18 16  1  0
 19 13  1  0
 18 19  1  1
 20 22  1  0
 20 18  1  0
 21 20  2  0
 23 22  1  0
 23 27  1  0
 23 24  1  6
 25 26  2  0
 25 24  1  0
 27 30  1  0
 28 27  2  0
 29 25  1  0
M  END
$$$$
