WVD.pdb
     RDKit          3D

 30 31  0  0  1  0  0  0  0  0999 V2000
    6.0646  -17.2693   24.7195 N   0  0  0  0  0  0  0  0  0  0  0  0
    6.8066  -16.0981   24.2805 C   0  0  1  0  0  0  0  0  0  0  0  0
    8.0118  -15.9296   25.1812 C   0  0  0  0  0  0  0  0  0  0  0  0
    7.7472  -15.0168   26.3043 C   0  0  0  0  0  0  0  0  0  0  0  0
    7.4073  -15.3503   27.6024 C   0  0  0  0  0  0  0  0  0  0  0  0
    7.2413  -14.2441   28.3467 N   0  0  0  0  0  0  0  0  0  0  0  0
    7.4749  -13.2050   27.5252 C   0  0  0  0  0  0  0  0  0  0  0  0
    7.4253  -11.8452   27.8433 C   0  0  0  0  0  0  0  0  0  0  0  0
    7.7031  -10.9190   26.8453 C   0  0  0  0  0  0  0  0  0  0  0  0
    8.0196  -11.3436   25.5727 C   0  0  0  0  0  0  0  0  0  0  0  0
    8.0583  -12.6916   25.2983 C   0  0  0  0  0  0  0  0  0  0  0  0
    7.7906  -13.6546   26.2536 C   0  0  0  0  0  0  0  0  0  0  0  0
    7.2135  -16.2409   22.8568 C   0  0  0  0  0  0  0  0  0  0  0  0
    7.3680  -17.3484   22.2864 O   0  0  0  0  0  0  0  0  0  0  0  0
    8.2728  -13.8474   18.6996 C   0  0  0  0  0  0  0  0  0  0  0  0
    7.6037  -13.8972   20.0402 C   0  0  1  0  0  0  0  0  0  0  0  0
    6.1472  -13.6033   20.0310 C   0  0  0  0  0  0  0  0  0  0  0  0
    7.9898  -15.1940   20.7220 C   0  0  2  0  0  0  0  0  0  0  0  0
    7.4436  -15.0721   22.0848 N   0  0  0  0  0  0  0  0  0  0  0  0
    9.4392  -15.3984   20.8247 C   0  0  0  0  0  0  0  0  0  0  0  0
   10.1834  -14.6199   21.5169 O   0  0  0  0  0  0  0  0  0  0  0  0
   10.1341  -16.4559   20.1797 N   0  0  0  0  0  0  0  0  0  0  0  0
   11.5706  -16.6967   20.4005 C   0  0  1  0  0  0  0  0  0  0  0  0
   11.7750  -16.9610   21.8531 C   0  0  0  0  0  0  0  0  0  0  0  0
   13.1486  -17.2700   22.2550 C   0  0  0  0  0  0  0  0  0  0  0  0
   14.0361  -17.3531   21.3673 O   0  0  0  0  0  0  0  0  0  0  0  0
   12.0110  -17.8156   19.5352 C   0  0  0  0  0  0  0  0  0  0  0  0
   11.5751  -18.9662   19.7526 O   0  0  0  0  0  0  0  0  0  0  0  0
   13.5323  -17.4783   23.5686 O   0  0  0  0  0  0  0  0  0  0  0  0
   12.8915  -17.5855   18.5025 O   0  0  0  0  0  0  0  0  0  0  0  0
  2  1  1  1
  2  3  1  0
  2 13  1  0
  3  4  1  0
  4  5  2  0
  4 12  1  0
  5  6  1  0
  6  7  1  0
  7  8  2  0
  8  9  1  0
 10  9  2  0
 11 10  1  0
 12 11  2  0
 12  7  1  0
 13 14  2  0
 16 15  1  6
 16 17  1  0
 18 16  1  0
 19 13  1  0
 18 19  1  1
 20 22  1  0
 20 18  1  0
 21 20  2  0
 23 22  1  0
 23 27  1  0
 23 24  1  1
 25 26  2  0
 25 24  1  0
 27 30  1  0
 28 27  2  0
 29 25  1  0
M  END
$$$$
