WVD.pdb
     RDKit          3D

 30 31  0  0  1  0  0  0  0  0999 V2000
    6.0023  -18.1184   24.6339 N   0  0  0  0  0  0  0  0  0  0  0  0
    6.5236  -16.7923   24.3427 C   0  0  1  0  0  0  0  0  0  0  0  0
    7.2917  -16.3036   25.5524 C   0  0  0  0  0  0  0  0  0  0  0  0
    6.6674  -15.1245   26.1722 C   0  0  0  0  0  0  0  0  0  0  0  0
    5.4663  -15.0647   26.8546 C   0  0  0  0  0  0  0  0  0  0  0  0
    5.2236  -13.8121   27.2757 N   0  0  0  0  0  0  0  0  0  0  0  0
    6.2684  -13.0723   26.8629 C   0  0  0  0  0  0  0  0  0  0  0  0
    6.4707  -11.7044   27.0643 C   0  0  0  0  0  0  0  0  0  0  0  0
    7.6254  -11.1218   26.5562 C   0  0  0  0  0  0  0  0  0  0  0  0
    8.5445  -11.8862   25.8699 C   0  0  0  0  0  0  0  0  0  0  0  0
    8.3098  -13.2304   25.6920 C   0  0  0  0  0  0  0  0  0  0  0  0
    7.1782  -13.8599   26.1766 C   0  0  0  0  0  0  0  0  0  0  0  0
    7.3880  -16.8251   23.1325 C   0  0  0  0  0  0  0  0  0  0  0  0
    7.8955  -17.8759   22.6697 O   0  0  0  0  0  0  0  0  0  0  0  0
    9.1621  -14.1288   19.4175 C   0  0  0  0  0  0  0  0  0  0  0  0
    8.2260  -14.2814   20.5785 C   0  0  1  0  0  0  0  0  0  0  0  0
    6.8034  -13.9647   20.2893 C   0  0  0  0  0  0  0  0  0  0  0  0
    8.4632  -15.6371   21.2118 C   0  0  2  0  0  0  0  0  0  0  0  0
    7.6649  -15.6117   22.4498 N   0  0  0  0  0  0  0  0  0  0  0  0
    9.8639  -15.8831   21.5735 C   0  0  0  0  0  0  0  0  0  0  0  0
   10.4914  -15.1283   22.3954 O   0  0  0  0  0  0  0  0  0  0  0  0
   10.6348  -16.9580   21.0563 N   0  0  0  0  0  0  0  0  0  0  0  0
   12.0328  -17.1838   21.4622 C   0  0  1  0  0  0  0  0  0  0  0  0
   12.3896  -18.5902   21.1214 C   0  0  0  0  0  0  0  0  0  0  0  0
   11.6805  -19.6257   21.8755 C   0  0  0  0  0  0  0  0  0  0  0  0
   11.5576  -19.4924   23.1205 O   0  0  0  0  0  0  0  0  0  0  0  0
   12.8970  -16.1832   20.7939 C   0  0  0  0  0  0  0  0  0  0  0  0
   12.7269  -15.9401   19.5802 O   0  0  0  0  0  0  0  0  0  0  0  0
   11.1315  -20.7551   21.2930 O   0  0  0  0  0  0  0  0  0  0  0  0
   13.8763  -15.5295   21.5070 O   0  0  0  0  0  0  0  0  0  0  0  0
  2  1  1  1
  2  3  1  0
  2 13  1  0
  3  4  1  0
  4  5  2  0
  4 12  1  0
  5  6  1  0
  6  7  1  0
  7  8  2  0
  8  9  1  0
 10  9  2  0
 11 10  1  0
 12 11  2  0
 12  7  1  0
 13 14  2  0
 16 15  1  6
 16 17  1  0
 18 16  1  0
 19 13  1  0
 18 19  1  1
 20 22  1  0
 20 18  1  0
 21 20  2  0
 23 22  1  0
 23 27  1  0
 23 24  1  6
 25 26  2  0
 25 24  1  0
 27 30  1  0
 28 27  2  0
 29 25  1  0
M  END
$$$$
