WVD.pdb
     RDKit          3D

 30 31  0  0  1  0  0  0  0  0999 V2000
    6.6098  -17.6667   24.8753 N   0  0  0  0  0  0  0  0  0  0  0  0
    7.1259  -16.3688   24.4702 C   0  0  1  0  0  0  0  0  0  0  0  0
    8.3650  -16.0701   25.2874 C   0  0  0  0  0  0  0  0  0  0  0  0
    8.0651  -15.2716   26.4861 C   0  0  0  0  0  0  0  0  0  0  0  0
    8.2106  -15.6459   27.8091 C   0  0  0  0  0  0  0  0  0  0  0  0
    7.8316  -14.6494   28.6269 N   0  0  0  0  0  0  0  0  0  0  0  0
    7.4445  -13.6395   27.8272 C   0  0  0  0  0  0  0  0  0  0  0  0
    6.9678  -12.3850   28.2167 C   0  0  0  0  0  0  0  0  0  0  0  0
    6.6187  -11.4713   27.2297 C   0  0  0  0  0  0  0  0  0  0  0  0
    6.7439  -11.8060   25.8983 C   0  0  0  0  0  0  0  0  0  0  0  0
    7.2173  -13.0515   25.5544 C   0  0  0  0  0  0  0  0  0  0  0  0
    7.5787  -13.9974   26.4958 C   0  0  0  0  0  0  0  0  0  0  0  0
    7.4256  -16.3574   23.0132 C   0  0  0  0  0  0  0  0  0  0  0  0
    7.2619  -17.3503   22.2627 O   0  0  0  0  0  0  0  0  0  0  0  0
    8.1061  -13.3693   19.2008 C   0  0  0  0  0  0  0  0  0  0  0  0
    7.8092  -13.6052   20.6512 C   0  0  1  0  0  0  0  0  0  0  0  0
    6.5135  -13.0563   21.1285 C   0  0  0  0  0  0  0  0  0  0  0  0
    8.0324  -15.0726   20.9547 C   0  0  2  0  0  0  0  0  0  0  0  0
    7.9240  -15.1675   22.4209 N   0  0  0  0  0  0  0  0  0  0  0  0
    9.3580  -15.5624   20.5595 C   0  0  0  0  0  0  0  0  0  0  0  0
    9.7418  -15.5606   19.3382 O   0  0  0  0  0  0  0  0  0  0  0  0
   10.3158  -16.0721   21.4761 N   0  0  0  0  0  0  0  0  0  0  0  0
   11.6189  -16.5977   21.0336 C   0  0  1  0  0  0  0  0  0  0  0  0
   12.6751  -15.9938   21.8946 C   0  0  0  0  0  0  0  0  0  0  0  0
   12.5464  -16.2491   23.3306 C   0  0  0  0  0  0  0  0  0  0  0  0
   11.5586  -16.9100   23.7429 O   0  0  0  0  0  0  0  0  0  0  0  0
   11.5890  -18.0775   21.0963 C   0  0  0  0  0  0  0  0  0  0  0  0
   12.5943  -18.7262   20.7361 O   0  0  0  0  0  0  0  0  0  0  0  0
   13.4576  -15.8011   24.2715 O   0  0  0  0  0  0  0  0  0  0  0  0
   10.4630  -18.7275   21.5482 O   0  0  0  0  0  0  0  0  0  0  0  0
  2  1  1  1
  2  3  1  0
  2 13  1  0
  3  4  1  0
  4  5  2  0
  4 12  1  0
  5  6  1  0
  6  7  1  0
  7  8  2  0
  8  9  1  0
 10  9  2  0
 11 10  1  0
 12 11  2  0
 12  7  1  0
 13 14  2  0
 16 15  1  6
 16 17  1  0
 18 16  1  0
 19 13  1  0
 18 19  1  1
 20 22  1  0
 20 18  1  0
 21 20  2  0
 23 22  1  0
 23 27  1  0
 23 24  1  1
 25 26  2  0
 25 24  1  0
 27 30  1  0
 28 27  2  0
 29 25  1  0
M  END
$$$$
