WVD.pdb
     RDKit          3D

 30 31  0  0  1  0  0  0  0  0999 V2000
    5.9830  -18.2565   24.7792 N   0  0  0  0  0  0  0  0  0  0  0  0
    6.4729  -16.9168   24.4960 C   0  0  1  0  0  0  0  0  0  0  0  0
    7.2511  -16.4274   25.6990 C   0  0  0  0  0  0  0  0  0  0  0  0
    6.6998  -15.1806   26.2520 C   0  0  0  0  0  0  0  0  0  0  0  0
    5.4494  -14.9828   26.8079 C   0  0  0  0  0  0  0  0  0  0  0  0
    5.3038  -13.7066   27.2023 N   0  0  0  0  0  0  0  0  0  0  0  0
    6.4599  -13.0897   26.8987 C   0  0  0  0  0  0  0  0  0  0  0  0
    6.7892  -11.7498   27.1201 C   0  0  0  0  0  0  0  0  0  0  0  0
    8.0464  -11.3021   26.7329 C   0  0  0  0  0  0  0  0  0  0  0  0
    8.9413  -12.1696   26.1441 C   0  0  0  0  0  0  0  0  0  0  0  0
    8.5801  -13.4821   25.9428 C   0  0  0  0  0  0  0  0  0  0  0  0
    7.3430  -13.9791   26.3089 C   0  0  0  0  0  0  0  0  0  0  0  0
    7.3177  -16.9175   23.2715 C   0  0  0  0  0  0  0  0  0  0  0  0
    7.8391  -17.9521   22.7881 O   0  0  0  0  0  0  0  0  0  0  0  0
    9.0497  -14.1310   19.6035 C   0  0  0  0  0  0  0  0  0  0  0  0
    8.0955  -14.3304   20.7424 C   0  0  1  0  0  0  0  0  0  0  0  0
    6.6675  -14.0719   20.4232 C   0  0  0  0  0  0  0  0  0  0  0  0
    8.3755  -15.6790   21.3733 C   0  0  2  0  0  0  0  0  0  0  0  0
    7.5580  -15.6908   22.5988 N   0  0  0  0  0  0  0  0  0  0  0  0
    9.7790  -15.8723   21.7556 C   0  0  0  0  0  0  0  0  0  0  0  0
   10.3450  -15.1390   22.6393 O   0  0  0  0  0  0  0  0  0  0  0  0
   10.6196  -16.8690   21.1925 N   0  0  0  0  0  0  0  0  0  0  0  0
   12.0202  -17.0410   21.6156 C   0  0  1  0  0  0  0  0  0  0  0  0
   12.4170  -18.4494   21.3320 C   0  0  0  0  0  0  0  0  0  0  0  0
   11.7712  -19.4699   22.1599 C   0  0  0  0  0  0  0  0  0  0  0  0
   11.6922  -19.2828   23.4015 O   0  0  0  0  0  0  0  0  0  0  0  0
   12.8621  -16.0440   20.9142 C   0  0  0  0  0  0  0  0  0  0  0  0
   12.5471  -15.6787   19.7617 O   0  0  0  0  0  0  0  0  0  0  0  0
   11.2368  -20.6412   21.6514 O   0  0  0  0  0  0  0  0  0  0  0  0
   13.9795  -15.5274   21.5301 O   0  0  0  0  0  0  0  0  0  0  0  0
  2  1  1  1
  2  3  1  0
  2 13  1  0
  3  4  1  0
  4  5  2  0
  4 12  1  0
  5  6  1  0
  6  7  1  0
  7  8  2  0
  8  9  1  0
 10  9  2  0
 11 10  1  0
 12 11  2  0
 12  7  1  0
 13 14  2  0
 16 15  1  6
 16 17  1  0
 18 16  1  0
 19 13  1  0
 18 19  1  1
 20 22  1  0
 20 18  1  0
 21 20  2  0
 23 22  1  0
 23 27  1  0
 23 24  1  6
 25 26  2  0
 25 24  1  0
 27 30  1  0
 28 27  2  0
 29 25  1  0
M  END
$$$$
