HVT.pdb
     RDKit          3D

 25 25  0  0  1  0  0  0  0  0999 V2000
   22.0342  -12.2663  -19.1023 N   0  0  0  0  0  0  0  0  0  0  0  0
   22.9007  -11.2542  -18.5153 C   0  0  1  0  0  0  0  0  0  0  0  0
   23.4632  -10.4229  -19.6801 C   0  0  0  0  0  0  0  0  0  0  0  0
   24.3442  -11.2426  -20.5442 C   0  0  0  0  0  0  0  0  0  0  0  0
   25.6497  -11.6229  -20.2221 C   0  0  0  0  0  0  0  0  0  0  0  0
   26.1117  -12.3409  -21.2392 N   0  0  0  0  0  0  0  0  0  0  0  0
   25.1534  -12.4251  -22.1812 C   0  0  0  0  0  0  0  0  0  0  0  0
   24.0771  -11.7512  -21.7504 N   0  0  0  0  0  0  0  0  0  0  0  0
   22.1676  -10.3943  -17.5778 C   0  0  0  0  0  0  0  0  0  0  0  0
   20.9661  -10.0316  -17.8717 O   0  0  0  0  0  0  0  0  0  0  0  0
   22.9110  -10.3173  -13.5148 C   0  0  0  0  0  0  0  0  0  0  0  0
   21.6108   -9.9424  -14.1538 C   0  0  1  0  0  0  0  0  0  0  0  0
   20.9201   -8.9612  -13.1944 C   0  0  0  0  0  0  0  0  0  0  0  0
   21.8384   -9.1429  -15.4247 C   0  0  2  0  0  0  0  0  0  0  0  0
   22.6559   -9.9055  -16.3453 N   0  0  0  0  0  0  0  0  0  0  0  0
   22.4287   -7.8225  -15.1193 C   0  0  0  0  0  0  0  0  0  0  0  0
   23.6341   -7.6769  -14.7745 O   0  0  0  0  0  0  0  0  0  0  0  0
   22.0782   -4.5738  -17.4377 C   0  0  0  0  0  0  0  0  0  0  0  0
   21.6793   -4.3119  -16.0308 C   0  0  1  0  0  0  0  0  0  0  0  0
   20.2964   -4.3065  -15.9042 O   0  0  0  0  0  0  0  0  0  0  0  0
   22.2301   -5.2944  -15.0191 C   0  0  2  0  0  0  0  0  0  0  0  0
   21.6785   -6.6180  -15.1940 N   0  0  0  0  0  0  0  0  0  0  0  0
   21.9654   -4.8367  -13.6492 C   0  0  0  0  0  0  0  0  0  0  0  0
   22.6053   -3.7164  -13.1283 O   0  0  0  0  0  0  0  0  0  0  0  0
   21.1563   -5.4445  -12.9197 O   0  0  0  0  0  0  0  0  0  0  0  0
  2  3  1  0
  2  1  1  6
  4  3  1  0
  4  8  1  0
  5  6  1  0
  5  4  2  0
  6  7  1  0
  7  8  2  0
  9  2  1  0
 10  9  2  0
 12 11  1  1
 12 14  1  0
 13 12  1  0
 14 16  1  0
 14 15  1  6
 15  9  1  0
 16 22  1  0
 17 16  2  0
 19 20  1  0
 19 18  1  6
 21 19  1  0
 21 23  1  0
 21 22  1  6
 23 25  2  0
 23 24  1  0
M  END
$$$$
