HVT.pdb
     RDKit          3D

 25 25  0  0  1  0  0  0  0  0999 V2000
   19.1247  -10.5907  -15.8982 N   0  0  0  0  0  0  0  0  0  0  0  0
   18.5888   -9.2545  -15.6815 C   0  0  1  0  0  0  0  0  0  0  0  0
   17.1028   -9.3043  -16.0736 C   0  0  0  0  0  0  0  0  0  0  0  0
   16.9399   -9.3294  -17.5459 C   0  0  0  0  0  0  0  0  0  0  0  0
   16.1949  -10.2781  -18.2513 C   0  0  0  0  0  0  0  0  0  0  0  0
   16.2907   -9.9734  -19.5401 N   0  0  0  0  0  0  0  0  0  0  0  0
   17.0623   -8.8776  -19.6705 C   0  0  0  0  0  0  0  0  0  0  0  0
   17.4560   -8.4903  -18.4486 N   0  0  0  0  0  0  0  0  0  0  0  0
   18.7369   -8.8343  -14.2825 C   0  0  0  0  0  0  0  0  0  0  0  0
   18.5177   -9.6924  -13.3459 O   0  0  0  0  0  0  0  0  0  0  0  0
   21.5866   -7.9134  -12.3559 C   0  0  0  0  0  0  0  0  0  0  0  0
   20.6328   -6.7871  -12.1083 C   0  0  1  0  0  0  0  0  0  0  0  0
   20.9705   -5.6956  -13.1354 C   0  0  0  0  0  0  0  0  0  0  0  0
   19.2078   -7.1972  -12.4362 C   0  0  2  0  0  0  0  0  0  0  0  0
   19.1070   -7.5449  -13.8385 N   0  0  0  0  0  0  0  0  0  0  0  0
   18.2520   -6.1356  -12.0562 C   0  0  0  0  0  0  0  0  0  0  0  0
   18.0542   -5.1098  -12.7645 O   0  0  0  0  0  0  0  0  0  0  0  0
   14.4499   -6.4732  -11.2529 C   0  0  0  0  0  0  0  0  0  0  0  0
   15.1730   -5.8540  -10.1124 C   0  0  1  0  0  0  0  0  0  0  0  0
   15.4114   -6.7898   -9.1146 O   0  0  0  0  0  0  0  0  0  0  0  0
   16.4980   -5.2148  -10.4699 C   0  0  2  0  0  0  0  0  0  0  0  0
   17.4837   -6.1952  -10.8624 N   0  0  0  0  0  0  0  0  0  0  0  0
   17.0189   -4.4284   -9.3445 C   0  0  0  0  0  0  0  0  0  0  0  0
   16.4050   -3.2441   -8.9488 O   0  0  0  0  0  0  0  0  0  0  0  0
   18.0269   -4.8076   -8.7149 O   0  0  0  0  0  0  0  0  0  0  0  0
  2  3  1  0
  2  1  1  1
  4  3  1  0
  4  8  1  0
  5  6  1  0
  5  4  2  0
  6  7  1  0
  7  8  2  0
  9  2  1  0
 10  9  2  0
 12 11  1  6
 12 14  1  0
 13 12  1  0
 14 16  1  0
 14 15  1  6
 15  9  1  0
 16 22  1  0
 17 16  2  0
 19 20  1  0
 19 18  1  6
 21 19  1  0
 21 23  1  0
 21 22  1  1
 23 25  2  0
 23 24  1  0
M  END
$$$$
