HVT.pdb
     RDKit          3D

 25 25  0  0  1  0  0  0  0  0999 V2000
   22.7970  -14.4261  -19.7847 N   0  0  0  0  0  0  0  0  0  0  0  0
   23.3322  -13.0728  -19.8278 C   0  0  1  0  0  0  0  0  0  0  0  0
   22.6022  -12.3439  -20.9680 C   0  0  0  0  0  0  0  0  0  0  0  0
   22.9545  -12.9247  -22.2846 C   0  0  0  0  0  0  0  0  0  0  0  0
   22.0431  -13.5015  -23.1730 C   0  0  0  0  0  0  0  0  0  0  0  0
   22.7319  -13.9089  -24.2326 N   0  0  0  0  0  0  0  0  0  0  0  0
   24.0319  -13.6127  -24.0449 C   0  0  0  0  0  0  0  0  0  0  0  0
   24.1605  -13.0126  -22.8527 N   0  0  0  0  0  0  0  0  0  0  0  0
   23.1268  -12.3707  -18.5548 C   0  0  0  0  0  0  0  0  0  0  0  0
   22.0658  -12.6219  -17.8670 O   0  0  0  0  0  0  0  0  0  0  0  0
   26.2062  -10.3752  -16.4080 C   0  0  0  0  0  0  0  0  0  0  0  0
   25.0088  -11.0427  -15.8078 C   0  0  1  0  0  0  0  0  0  0  0  0
   24.6974  -10.2905  -14.5048 C   0  0  0  0  0  0  0  0  0  0  0  0
   23.7787  -10.8379  -16.6745 C   0  0  2  0  0  0  0  0  0  0  0  0
   23.9983  -11.4163  -17.9839 N   0  0  0  0  0  0  0  0  0  0  0  0
   23.4198   -9.4060  -16.7519 C   0  0  0  0  0  0  0  0  0  0  0  0
   24.1526   -8.5482  -17.3178 O   0  0  0  0  0  0  0  0  0  0  0  0
   20.3257   -7.9608  -18.4027 C   0  0  0  0  0  0  0  0  0  0  0  0
   20.3801   -7.4801  -16.9981 C   0  0  1  0  0  0  0  0  0  0  0  0
   19.5111   -8.2072  -16.1952 O   0  0  0  0  0  0  0  0  0  0  0  0
   21.7514   -7.5344  -16.3589 C   0  0  2  0  0  0  0  0  0  0  0  0
   22.2185   -8.8914  -16.1940 N   0  0  0  0  0  0  0  0  0  0  0  0
   21.7459   -6.8623  -15.0533 C   0  0  0  0  0  0  0  0  0  0  0  0
   21.5404   -5.4900  -14.9511 O   0  0  0  0  0  0  0  0  0  0  0  0
   21.9248   -7.5104  -14.0025 O   0  0  0  0  0  0  0  0  0  0  0  0
  2  3  1  0
  2  1  1  1
  4  3  1  0
  4  8  1  0
  5  6  1  0
  5  4  2  0
  6  7  1  0
  7  8  2  0
  9  2  1  0
 10  9  2  0
 12 11  1  6
 12 14  1  0
 13 12  1  0
 14 16  1  0
 14 15  1  6
 15  9  1  0
 16 22  1  0
 17 16  2  0
 19 20  1  0
 19 18  1  6
 21 19  1  0
 21 23  1  0
 21 22  1  1
 23 25  2  0
 23 24  1  0
M  END
$$$$
