HVT.pdb
     RDKit          3D

 25 25  0  0  1  0  0  0  0  0999 V2000
   18.7734  -12.2895  -17.3989 N   0  0  0  0  0  0  0  0  0  0  0  0
   19.6359  -11.1498  -17.6763 C   0  0  1  0  0  0  0  0  0  0  0  0
   18.8269  -10.1869  -18.5609 C   0  0  0  0  0  0  0  0  0  0  0  0
   18.5713  -10.7760  -19.8960 C   0  0  0  0  0  0  0  0  0  0  0  0
   17.3045  -11.0369  -20.4250 C   0  0  0  0  0  0  0  0  0  0  0  0
   17.4834  -11.5642  -21.6304 N   0  0  0  0  0  0  0  0  0  0  0  0
   18.8046  -11.6444  -21.8770 C   0  0  0  0  0  0  0  0  0  0  0  0
   19.4630  -11.1621  -20.8130 N   0  0  0  0  0  0  0  0  0  0  0  0
   20.0582  -10.4795  -16.4401 C   0  0  0  0  0  0  0  0  0  0  0  0
   19.2283  -10.4015  -15.4569 O   0  0  0  0  0  0  0  0  0  0  0  0
   22.4372  -11.5007  -14.1960 C   0  0  0  0  0  0  0  0  0  0  0  0
   22.7785  -10.0455  -14.2699 C   0  0  1  0  0  0  0  0  0  0  0  0
   23.9806   -9.9269  -15.2192 C   0  0  0  0  0  0  0  0  0  0  0  0
   21.6713   -9.2596  -14.9501 C   0  0  2  0  0  0  0  0  0  0  0  0
   21.3210   -9.8905  -16.2058 N   0  0  0  0  0  0  0  0  0  0  0  0
   22.0606   -7.8447  -15.1280 C   0  0  0  0  0  0  0  0  0  0  0  0
   22.9922   -7.4849  -15.8998 O   0  0  0  0  0  0  0  0  0  0  0  0
   19.8984   -4.9888  -16.3839 C   0  0  0  0  0  0  0  0  0  0  0  0
   20.4538   -4.6114  -15.0587 C   0  0  1  0  0  0  0  0  0  0  0  0
   19.5006   -4.7723  -14.0618 O   0  0  0  0  0  0  0  0  0  0  0  0
   21.6891   -5.3815  -14.6430 C   0  0  2  0  0  0  0  0  0  0  0  0
   21.4101   -6.7844  -14.4412 N   0  0  0  0  0  0  0  0  0  0  0  0
   22.2649   -4.8208  -13.4140 C   0  0  0  0  0  0  0  0  0  0  0  0
   22.2640   -5.5425  -12.2244 O   0  0  0  0  0  0  0  0  0  0  0  0
   22.7709   -3.6805  -13.4101 O   0  0  0  0  0  0  0  0  0  0  0  0
  2  3  1  0
  2  1  1  1
  4  3  1  0
  4  8  1  0
  5  6  1  0
  5  4  2  0
  6  7  1  0
  7  8  2  0
  9  2  1  0
 10  9  2  0
 12 11  1  6
 12 14  1  0
 13 12  1  0
 14 16  1  0
 14 15  1  6
 15  9  1  0
 16 22  1  0
 17 16  2  0
 19 20  1  0
 19 18  1  6
 21 19  1  0
 21 23  1  0
 21 22  1  1
 23 25  2  0
 23 24  1  0
M  END
$$$$
