HVT.pdb
     RDKit          3D

 25 25  0  0  1  0  0  0  0  0999 V2000
   17.2933  -13.5320  -18.1731 N   0  0  0  0  0  0  0  0  0  0  0  0
   17.2626  -12.6603  -17.0074 C   0  0  1  0  0  0  0  0  0  0  0  0
   17.9980  -13.4028  -15.8795 C   0  0  0  0  0  0  0  0  0  0  0  0
   17.2222  -14.5782  -15.4199 C   0  0  0  0  0  0  0  0  0  0  0  0
   17.5706  -15.9097  -15.6616 C   0  0  0  0  0  0  0  0  0  0  0  0
   16.6359  -16.6681  -15.1009 N   0  0  0  0  0  0  0  0  0  0  0  0
   15.7199  -15.8697  -14.5209 C   0  0  0  0  0  0  0  0  0  0  0  0
   16.0839  -14.5946  -14.7205 N   0  0  0  0  0  0  0  0  0  0  0  0
   17.9099  -11.3711  -17.2808 C   0  0  0  0  0  0  0  0  0  0  0  0
   19.0507  -11.3596  -17.8808 O   0  0  0  0  0  0  0  0  0  0  0  0
   16.1406   -8.8477  -18.8775 C   0  0  0  0  0  0  0  0  0  0  0  0
   17.1397   -8.0051  -18.1485 C   0  0  1  0  0  0  0  0  0  0  0  0
   16.3469   -7.1699  -17.1315 C   0  0  0  0  0  0  0  0  0  0  0  0
   18.0648   -8.8640  -17.3043 C   0  0  2  0  0  0  0  0  0  0  0  0
   17.3975  -10.0979  -16.9446 N   0  0  0  0  0  0  0  0  0  0  0  0
   18.5380   -8.1210  -16.1172 C   0  0  0  0  0  0  0  0  0  0  0  0
   17.8615   -8.0280  -15.0557 O   0  0  0  0  0  0  0  0  0  0  0  0
   22.2966   -8.5336  -14.6654 C   0  0  0  0  0  0  0  0  0  0  0  0
   21.8882   -7.1177  -14.8540 C   0  0  1  0  0  0  0  0  0  0  0  0
   22.4321   -6.6001  -16.0221 O   0  0  0  0  0  0  0  0  0  0  0  0
   20.3926   -6.8872  -14.9011 C   0  0  2  0  0  0  0  0  0  0  0  0
   19.7940   -7.4572  -16.0858 N   0  0  0  0  0  0  0  0  0  0  0  0
   20.0835   -5.4527  -14.8450 C   0  0  0  0  0  0  0  0  0  0  0  0
   20.3659   -4.6995  -13.7097 O   0  0  0  0  0  0  0  0  0  0  0  0
   19.5598   -4.8753  -15.8189 O   0  0  0  0  0  0  0  0  0  0  0  0
  2  3  1  0
  2  1  1  6
  4  3  1  0
  4  8  1  0
  5  6  1  0
  5  4  2  0
  6  7  1  0
  7  8  2  0
  9  2  1  0
 10  9  2  0
 12 11  1  1
 12 14  1  0
 13 12  1  0
 14 16  1  0
 14 15  1  1
 15  9  1  0
 16 22  1  0
 17 16  2  0
 19 20  1  0
 19 18  1  6
 21 19  1  0
 21 23  1  0
 21 22  1  6
 23 25  2  0
 23 24  1  0
M  END
$$$$
