HVT.pdb
     RDKit          3D

 25 25  0  0  1  0  0  0  0  0999 V2000
   27.5342  -21.6286  -20.6017 N   0  0  0  0  0  0  0  0  0  0  0  0
   26.4560  -22.5713  -20.3399 C   0  0  1  0  0  0  0  0  0  0  0  0
   26.0268  -23.1425  -21.7014 C   0  0  0  0  0  0  0  0  0  0  0  0
   25.3729  -22.1054  -22.5331 C   0  0  0  0  0  0  0  0  0  0  0  0
   25.8057  -21.7080  -23.8009 C   0  0  0  0  0  0  0  0  0  0  0  0
   24.9739  -20.7621  -24.2211 N   0  0  0  0  0  0  0  0  0  0  0  0
   24.0421  -20.5513  -23.2723 C   0  0  0  0  0  0  0  0  0  0  0  0
   24.2925  -21.3745  -22.2439 N   0  0  0  0  0  0  0  0  0  0  0  0
   26.8891  -23.6506  -19.4436 C   0  0  0  0  0  0  0  0  0  0  0  0
   28.1098  -24.0604  -19.5034 O   0  0  0  0  0  0  0  0  0  0  0  0
   26.4848  -23.6861  -15.7295 C   0  0  0  0  0  0  0  0  0  0  0  0
   26.1079  -25.0622  -16.1810 C   0  0  1  0  0  0  0  0  0  0  0  0
   24.5755  -25.0815  -16.2892 C   0  0  0  0  0  0  0  0  0  0  0  0
   26.5973  -25.3255  -17.5943 C   0  0  2  0  0  0  0  0  0  0  0  0
   26.0821  -24.3106  -18.4898 N   0  0  0  0  0  0  0  0  0  0  0  0
   26.2353  -26.6899  -18.0329 C   0  0  0  0  0  0  0  0  0  0  0  0
   25.2757  -26.9221  -18.8191 O   0  0  0  0  0  0  0  0  0  0  0  0
   28.0133  -30.1185  -16.0316 C   0  0  0  0  0  0  0  0  0  0  0  0
   27.6134  -30.1983  -17.4602 C   0  0  1  0  0  0  0  0  0  0  0  0
   27.1469  -31.4690  -17.7703 O   0  0  0  0  0  0  0  0  0  0  0  0
   26.5530  -29.2033  -17.8813 C   0  0  2  0  0  0  0  0  0  0  0  0
   26.9458  -27.8419  -17.6000 N   0  0  0  0  0  0  0  0  0  0  0  0
   25.2764  -29.4866  -17.2132 C   0  0  0  0  0  0  0  0  0  0  0  0
   24.9345  -28.8601  -16.0188 O   0  0  0  0  0  0  0  0  0  0  0  0
   24.4663  -30.2979  -17.7050 O   0  0  0  0  0  0  0  0  0  0  0  0
  2  3  1  0
  2  1  1  6
  4  3  1  0
  4  8  1  0
  5  6  1  0
  5  4  2  0
  6  7  1  0
  7  8  2  0
  9  2  1  0
 10  9  2  0
 12 11  1  6
 12 14  1  0
 13 12  1  0
 14 16  1  0
 14 15  1  6
 15  9  1  0
 16 22  1  0
 17 16  2  0
 19 20  1  0
 19 18  1  1
 21 19  1  0
 21 23  1  0
 21 22  1  1
 23 25  2  0
 23 24  1  0
M  END
$$$$
