HVT.pdb
     RDKit          3D

 25 25  0  0  1  0  0  0  0  0999 V2000
   21.9469  -11.6955  -18.6530 N   0  0  0  0  0  0  0  0  0  0  0  0
   22.7630  -10.8476  -17.7958 C   0  0  1  0  0  0  0  0  0  0  0  0
   23.8690  -10.2538  -18.6838 C   0  0  0  0  0  0  0  0  0  0  0  0
   24.8079  -11.3046  -19.1412 C   0  0  0  0  0  0  0  0  0  0  0  0
   24.7628  -12.6438  -18.7448 C   0  0  0  0  0  0  0  0  0  0  0  0
   25.7613  -13.2685  -19.3579 N   0  0  0  0  0  0  0  0  0  0  0  0
   26.4275  -12.3792  -20.1183 C   0  0  0  0  0  0  0  0  0  0  0  0
   25.8402  -11.1816  -19.9803 N   0  0  0  0  0  0  0  0  0  0  0  0
   21.9677   -9.7772  -17.1813 C   0  0  0  0  0  0  0  0  0  0  0  0
   21.1145   -9.1381  -17.9061 O   0  0  0  0  0  0  0  0  0  0  0  0
   19.7502  -10.1932  -14.3634 C   0  0  0  0  0  0  0  0  0  0  0  0
   20.4593   -8.9143  -14.0455 C   0  0  1  0  0  0  0  0  0  0  0  0
   21.5989   -9.2755  -13.0806 C   0  0  0  0  0  0  0  0  0  0  0  0
   21.1566   -8.3575  -15.2743 C   0  0  2  0  0  0  0  0  0  0  0  0
   22.0407   -9.3589  -15.8337 N   0  0  0  0  0  0  0  0  0  0  0  0
   21.8694   -7.1028  -14.9538 C   0  0  0  0  0  0  0  0  0  0  0  0
   23.0091   -7.0845  -14.4119 O   0  0  0  0  0  0  0  0  0  0  0  0
   20.5062   -3.3709  -16.6788 C   0  0  0  0  0  0  0  0  0  0  0  0
   21.8981   -3.6655  -16.2511 C   0  0  1  0  0  0  0  0  0  0  0  0
   22.5844   -2.4921  -15.9674 O   0  0  0  0  0  0  0  0  0  0  0  0
   22.0152   -4.5707  -15.0432 C   0  0  2  0  0  0  0  0  0  0  0  0
   21.3206   -5.8227  -15.2356 N   0  0  0  0  0  0  0  0  0  0  0  0
   21.4937   -3.9076  -13.8413 C   0  0  0  0  0  0  0  0  0  0  0  0
   22.0994   -2.7640  -13.3301 O   0  0  0  0  0  0  0  0  0  0  0  0
   20.4908   -4.3564  -13.2505 O   0  0  0  0  0  0  0  0  0  0  0  0
  2  3  1  0
  2  1  1  6
  4  3  1  0
  4  8  1  0
  5  6  1  0
  5  4  2  0
  6  7  1  0
  7  8  2  0
  9  2  1  0
 10  9  2  0
 12 11  1  6
 12 14  1  0
 13 12  1  0
 14 16  1  0
 14 15  1  1
 15  9  1  0
 16 22  1  0
 17 16  2  0
 19 20  1  0
 19 18  1  1
 21 19  1  0
 21 23  1  0
 21 22  1  6
 23 25  2  0
 23 24  1  0
M  END
$$$$
