NLT.pdb
     RDKit          3D

 24 23  0  0  1  0  0  0  0  0999 V2000
    8.8607  -21.7609   20.1662 N   0  0  0  0  0  0  0  0  0  0  0  0
    9.3208  -20.5390   19.6084 C   0  0  0  0  0  0  0  0  0  0  0  0
    9.5591  -20.4405   18.3912 O   0  0  0  0  0  0  0  0  0  0  0  0
    9.5078  -19.3802   20.5322 C   0  0  0  0  0  0  0  0  0  0  0  0
    9.8233  -18.1652   19.7072 C   0  0  2  0  0  0  0  0  0  0  0  0
   11.0508  -18.3708   18.9659 N   0  0  0  0  0  0  0  0  0  0  0  0
    9.8740  -16.9204   20.4706 C   0  0  0  0  0  0  0  0  0  0  0  0
   11.0166  -16.4491   20.7631 O   0  0  0  0  0  0  0  0  0  0  0  0
    8.7395  -12.5476   19.4522 C   0  0  0  0  0  0  0  0  0  0  0  0
    7.7109  -13.5624   19.8102 C   0  0  2  0  0  0  0  0  0  0  0  0
    6.3335  -12.9103   19.5626 C   0  0  0  0  0  0  0  0  0  0  0  0
    7.7453  -14.1058   21.1694 C   0  0  0  0  0  0  0  0  0  0  0  0
    8.8935  -14.9030   21.6728 C   0  0  2  0  0  0  0  0  0  0  0  0
    8.7687  -16.1900   20.9148 N   0  0  0  0  0  0  0  0  0  0  0  0
    8.8564  -15.2001   23.1117 C   0  0  0  0  0  0  0  0  0  0  0  0
    8.8545  -14.2885   23.9853 O   0  0  0  0  0  0  0  0  0  0  0  0
    6.3167  -16.4017   25.2927 C   0  0  0  0  0  0  0  0  0  0  0  0
    7.4469  -17.3632   25.4662 C   0  0  1  0  0  0  0  0  0  0  0  0
    7.1925  -18.4682   24.6273 O   0  0  0  0  0  0  0  0  0  0  0  0
    8.7671  -16.7829   25.0060 C   0  0  2  0  0  0  0  0  0  0  0  0
    8.8205  -16.5621   23.5998 N   0  0  0  0  0  0  0  0  0  0  0  0
    9.8812  -17.6702   25.4152 C   0  0  0  0  0  0  0  0  0  0  0  0
   10.6903  -18.1481   24.5800 O   0  0  0  0  0  0  0  0  0  0  0  0
   10.0337  -17.9798   26.7508 O   0  0  0  0  0  0  0  0  0  0  0  0
  1  2  1  0
  2  3  2  0
  4  2  1  0
  4  5  1  0
  5  6  1  1
  7  5  1  0
  7  8  2  0
 10  9  1  1
 10 11  1  0
 10 12  1  0
 13 12  1  6
 13 14  1  0
 14  7  1  0
 15 13  1  0
 16 15  2  0
 18 17  1  6
 19 18  1  0
 20 18  1  0
 20 21  1  6
 21 15  1  0
 22 24  1  0
 22 20  1  0
 23 22  2  0
M  END
$$$$
