NLT.pdb
     RDKit          3D

 24 23  0  0  1  0  0  0  0  0999 V2000
    9.5064  -15.6957   18.0039 N   0  0  0  0  0  0  0  0  0  0  0  0
    9.8933  -16.2620   19.2471 C   0  0  0  0  0  0  0  0  0  0  0  0
   10.2073  -17.4627   19.3336 O   0  0  0  0  0  0  0  0  0  0  0  0
    9.9096  -15.3673   20.4432 C   0  0  0  0  0  0  0  0  0  0  0  0
    9.3905  -16.1432   21.6200 C   0  0  2  0  0  0  0  0  0  0  0  0
    8.0671  -16.6580   21.3332 N   0  0  0  0  0  0  0  0  0  0  0  0
    9.4031  -15.4011   22.8786 C   0  0  0  0  0  0  0  0  0  0  0  0
   10.5301  -15.0681   23.3604 O   0  0  0  0  0  0  0  0  0  0  0  0
    5.2762  -12.4012   26.3170 C   0  0  0  0  0  0  0  0  0  0  0  0
    6.6858  -12.8732   26.2402 C   0  0  2  0  0  0  0  0  0  0  0  0
    7.5844  -11.6298   26.4137 C   0  0  0  0  0  0  0  0  0  0  0  0
    7.0909  -13.5907   25.0297 C   0  0  0  0  0  0  0  0  0  0  0  0
    8.3639  -14.3527   24.9515 C   0  0  2  0  0  0  0  0  0  0  0  0
    8.2767  -15.0184   23.6114 N   0  0  0  0  0  0  0  0  0  0  0  0
    8.5283  -15.3890   25.9806 C   0  0  0  0  0  0  0  0  0  0  0  0
    8.6336  -15.1064   27.2067 O   0  0  0  0  0  0  0  0  0  0  0  0
    6.5148  -18.8594   25.8882 C   0  0  0  0  0  0  0  0  0  0  0  0
    7.9322  -19.0587   26.3159 C   0  0  1  0  0  0  0  0  0  0  0  0
    8.6405  -19.5633   25.2054 O   0  0  0  0  0  0  0  0  0  0  0  0
    8.6066  -17.7550   26.6859 C   0  0  2  0  0  0  0  0  0  0  0  0
    8.5784  -16.7935   25.6353 N   0  0  0  0  0  0  0  0  0  0  0  0
   10.0084  -18.0073   27.0949 C   0  0  0  0  0  0  0  0  0  0  0  0
   10.2907  -18.6958   28.1082 O   0  0  0  0  0  0  0  0  0  0  0  0
   11.0318  -17.4708   26.3413 O   0  0  0  0  0  0  0  0  0  0  0  0
  1  2  1  0
  2  3  2  0
  4  2  1  0
  4  5  1  0
  5  6  1  6
  7  5  1  0
  7  8  2  0
 10  9  1  6
 10 11  1  0
 10 12  1  0
 13 12  1  1
 13 14  1  0
 14  7  1  0
 15 13  1  0
 16 15  2  0
 18 17  1  6
 19 18  1  0
 20 18  1  0
 20 21  1  6
 21 15  1  0
 22 24  1  0
 22 20  1  0
 23 22  2  0
M  END
$$$$
