NLT.pdb
     RDKit          3D

 24 23  0  0  1  0  0  0  0  0999 V2000
    8.1132  -17.7524   18.1476 N   0  0  0  0  0  0  0  0  0  0  0  0
    7.1774  -17.5529   19.1966 C   0  0  0  0  0  0  0  0  0  0  0  0
    5.9534  -17.5658   18.9738 O   0  0  0  0  0  0  0  0  0  0  0  0
    7.7135  -17.3278   20.5726 C   0  0  0  0  0  0  0  0  0  0  0  0
    8.1142  -15.8851   20.6927 C   0  0  2  0  0  0  0  0  0  0  0  0
    9.1808  -15.5845   19.7596 N   0  0  0  0  0  0  0  0  0  0  0  0
    8.4724  -15.4745   22.0484 C   0  0  0  0  0  0  0  0  0  0  0  0
    9.6657  -15.6757   22.4342 O   0  0  0  0  0  0  0  0  0  0  0  0
    5.8764  -12.0143   26.4419 C   0  0  0  0  0  0  0  0  0  0  0  0
    7.0336  -12.8843   26.0960 C   0  0  2  0  0  0  0  0  0  0  0  0
    8.3083  -12.0397   26.3090 C   0  0  0  0  0  0  0  0  0  0  0  0
    7.0628  -13.4634   24.7514 C   0  0  0  0  0  0  0  0  0  0  0  0
    8.0367  -14.5170   24.3657 C   0  0  2  0  0  0  0  0  0  0  0  0
    7.6139  -14.8734   22.9725 N   0  0  0  0  0  0  0  0  0  0  0  0
    7.9951  -15.7304   25.1938 C   0  0  0  0  0  0  0  0  0  0  0  0
    6.9236  -16.3655   25.4003 O   0  0  0  0  0  0  0  0  0  0  0  0
    8.6965  -18.8025   24.3584 C   0  0  0  0  0  0  0  0  0  0  0  0
    9.5570  -18.6709   25.5725 C   0  0  1  0  0  0  0  0  0  0  0  0
   10.8581  -18.3484   25.1338 O   0  0  0  0  0  0  0  0  0  0  0  0
    9.1193  -17.5272   26.4623 C   0  0  2  0  0  0  0  0  0  0  0  0
    9.1893  -16.2590   25.8174 N   0  0  0  0  0  0  0  0  0  0  0  0
    9.9365  -17.5049   27.6984 C   0  0  0  0  0  0  0  0  0  0  0  0
   10.7108  -16.5511   27.9652 O   0  0  0  0  0  0  0  0  0  0  0  0
    9.8440  -18.5616   28.5804 O   0  0  0  0  0  0  0  0  0  0  0  0
  1  2  1  0
  2  3  2  0
  4  2  1  0
  4  5  1  0
  5  6  1  6
  7  5  1  0
  7  8  2  0
 10  9  1  6
 10 11  1  0
 10 12  1  0
 13 12  1  1
 13 14  1  0
 14  7  1  0
 15 13  1  0
 16 15  2  0
 18 17  1  6
 19 18  1  0
 20 18  1  0
 20 21  1  6
 21 15  1  0
 22 24  1  0
 22 20  1  0
 23 22  2  0
M  END
$$$$
