NLT.pdb
     RDKit          3D

 24 23  0  0  1  0  0  0  0  0999 V2000
   10.8031  -17.6128   16.6282 N   0  0  0  0  0  0  0  0  0  0  0  0
   10.5608  -18.4587   17.7426 C   0  0  0  0  0  0  0  0  0  0  0  0
    9.4856  -19.0740   17.8575 O   0  0  0  0  0  0  0  0  0  0  0  0
   11.6396  -18.5828   18.7684 C   0  0  0  0  0  0  0  0  0  0  0  0
   11.0099  -18.4898   20.1289 C   0  0  2  0  0  0  0  0  0  0  0  0
    9.7921  -19.2733   20.1694 N   0  0  0  0  0  0  0  0  0  0  0  0
   10.7691  -17.1225   20.5846 C   0  0  0  0  0  0  0  0  0  0  0  0
   11.7616  -16.3320   20.6415 O   0  0  0  0  0  0  0  0  0  0  0  0
    6.3330  -13.0275   20.3629 C   0  0  0  0  0  0  0  0  0  0  0  0
    7.6591  -13.3498   20.9573 C   0  0  2  0  0  0  0  0  0  0  0  0
    8.6798  -12.3767   20.3290 C   0  0  0  0  0  0  0  0  0  0  0  0
    8.1499  -14.7210   20.8059 C   0  0  0  0  0  0  0  0  0  0  0  0
    9.3699  -15.2051   21.5020 C   0  0  2  0  0  0  0  0  0  0  0  0
    9.5330  -16.5962   20.9686 N   0  0  0  0  0  0  0  0  0  0  0  0
    9.2603  -15.2735   22.9660 C   0  0  0  0  0  0  0  0  0  0  0  0
    9.2812  -14.2390   23.6896 O   0  0  0  0  0  0  0  0  0  0  0  0
    6.5312  -15.9375   25.1101 C   0  0  0  0  0  0  0  0  0  0  0  0
    7.5637  -16.9435   25.5024 C   0  0  1  0  0  0  0  0  0  0  0  0
    7.2736  -18.1372   24.8094 O   0  0  0  0  0  0  0  0  0  0  0  0
    8.9548  -16.5342   25.0681 C   0  0  2  0  0  0  0  0  0  0  0  0
    9.1227  -16.5395   23.6536 N   0  0  0  0  0  0  0  0  0  0  0  0
    9.9631  -17.4215   25.6943 C   0  0  0  0  0  0  0  0  0  0  0  0
   10.7085  -18.1668   25.0090 O   0  0  0  0  0  0  0  0  0  0  0  0
   10.0864  -17.4288   27.0682 O   0  0  0  0  0  0  0  0  0  0  0  0
  1  2  1  0
  2  3  2  0
  4  2  1  0
  4  5  1  0
  5  6  1  6
  7  5  1  0
  7  8  2  0
 10  9  1  6
 10 11  1  0
 10 12  1  0
 13 12  1  6
 13 14  1  0
 14  7  1  0
 15 13  1  0
 16 15  2  0
 18 17  1  6
 19 18  1  0
 20 18  1  0
 20 21  1  6
 21 15  1  0
 22 24  1  0
 22 20  1  0
 23 22  2  0
M  END
$$$$
