NLT.pdb
     RDKit          3D

 24 23  0  0  1  0  0  0  0  0999 V2000
   11.4615  -19.6512   19.1372 N   0  0  0  0  0  0  0  0  0  0  0  0
   12.0604  -18.4204   18.7599 C   0  0  0  0  0  0  0  0  0  0  0  0
   12.8905  -18.3694   17.8346 O   0  0  0  0  0  0  0  0  0  0  0  0
   11.6595  -17.1932   19.5114 C   0  0  0  0  0  0  0  0  0  0  0  0
   10.8086  -17.6105   20.6768 C   0  0  2  0  0  0  0  0  0  0  0  0
    9.6396  -18.3271   20.2094 N   0  0  0  0  0  0  0  0  0  0  0  0
   10.4308  -16.5134   21.5649 C   0  0  0  0  0  0  0  0  0  0  0  0
   11.3486  -15.9543   22.2418 O   0  0  0  0  0  0  0  0  0  0  0  0
    8.6251  -12.7028   20.1591 C   0  0  0  0  0  0  0  0  0  0  0  0
    7.6991  -13.8086   20.5272 C   0  0  2  0  0  0  0  0  0  0  0  0
    6.2842  -13.3720   20.0902 C   0  0  0  0  0  0  0  0  0  0  0  0
    7.6610  -14.2153   21.9334 C   0  0  0  0  0  0  0  0  0  0  0  0
    8.8313  -14.8322   22.6095 C   0  0  2  0  0  0  0  0  0  0  0  0
    9.1374  -16.0151   21.7416 N   0  0  0  0  0  0  0  0  0  0  0  0
    8.5761  -15.3066   23.9769 C   0  0  0  0  0  0  0  0  0  0  0  0
    8.2050  -14.5281   24.8991 O   0  0  0  0  0  0  0  0  0  0  0  0
    6.1202  -17.7870   25.3215 C   0  0  0  0  0  0  0  0  0  0  0  0
    7.4732  -18.2074   25.7954 C   0  0  1  0  0  0  0  0  0  0  0  0
    7.9200  -19.2338   24.9373 O   0  0  0  0  0  0  0  0  0  0  0  0
    8.4910  -17.0928   25.6809 C   0  0  2  0  0  0  0  0  0  0  0  0
    8.7398  -16.6993   24.3347 N   0  0  0  0  0  0  0  0  0  0  0  0
    9.7620  -17.4985   26.3259 C   0  0  0  0  0  0  0  0  0  0  0  0
   10.8381  -17.5782   25.6806 O   0  0  0  0  0  0  0  0  0  0  0  0
    9.7631  -17.7969   27.6728 O   0  0  0  0  0  0  0  0  0  0  0  0
  1  2  1  0
  2  3  2  0
  4  2  1  0
  4  5  1  0
  5  6  1  6
  7  5  1  0
  7  8  2  0
 10  9  1  1
 10 11  1  0
 10 12  1  0
 13 12  1  6
 13 14  1  0
 14  7  1  0
 15 13  1  0
 16 15  2  0
 18 17  1  6
 19 18  1  0
 20 18  1  0
 20 21  1  6
 21 15  1  0
 22 24  1  0
 22 20  1  0
 23 22  2  0
M  END
$$$$
