NLT.pdb
     RDKit          3D

 24 23  0  0  1  0  0  0  0  0999 V2000
   11.3477  -17.2414   18.7158 N   0  0  0  0  0  0  0  0  0  0  0  0
   10.2312  -16.4568   19.1075 C   0  0  0  0  0  0  0  0  0  0  0  0
    9.1886  -16.4428   18.4287 O   0  0  0  0  0  0  0  0  0  0  0  0
   10.3528  -15.6514   20.3597 C   0  0  0  0  0  0  0  0  0  0  0  0
    9.5411  -16.3207   21.4319 C   0  0  2  0  0  0  0  0  0  0  0  0
    8.1675  -16.4706   20.9970 N   0  0  0  0  0  0  0  0  0  0  0  0
    9.6099  -15.6612   22.7339 C   0  0  0  0  0  0  0  0  0  0  0  0
   10.7593  -15.4087   23.2118 O   0  0  0  0  0  0  0  0  0  0  0  0
    5.7321  -12.6118   26.4127 C   0  0  0  0  0  0  0  0  0  0  0  0
    7.0837  -13.2262   26.3050 C   0  0  2  0  0  0  0  0  0  0  0  0
    8.1089  -12.1000   26.5585 C   0  0  0  0  0  0  0  0  0  0  0  0
    7.4177  -13.9034   25.0504 C   0  0  0  0  0  0  0  0  0  0  0  0
    8.6563  -14.7085   24.8924 C   0  0  2  0  0  0  0  0  0  0  0  0
    8.5153  -15.2771   23.5128 N   0  0  0  0  0  0  0  0  0  0  0  0
    8.7981  -15.8183   25.8454 C   0  0  0  0  0  0  0  0  0  0  0  0
    7.8259  -16.5590   26.1624 O   0  0  0  0  0  0  0  0  0  0  0  0
   10.6656  -18.7791   25.3203 C   0  0  0  0  0  0  0  0  0  0  0  0
   11.1116  -18.3269   26.6725 C   0  0  1  0  0  0  0  0  0  0  0  0
   12.3560  -17.6825   26.5122 O   0  0  0  0  0  0  0  0  0  0  0  0
   10.1782  -17.2938   27.2666 C   0  0  2  0  0  0  0  0  0  0  0  0
   10.0683  -16.1171   26.4713 N   0  0  0  0  0  0  0  0  0  0  0  0
   10.6242  -16.9335   28.6331 C   0  0  0  0  0  0  0  0  0  0  0  0
   10.6113  -17.7645   29.5763 O   0  0  0  0  0  0  0  0  0  0  0  0
   11.0659  -15.6493   28.8756 O   0  0  0  0  0  0  0  0  0  0  0  0
  1  2  1  0
  2  3  2  0
  4  2  1  0
  4  5  1  0
  5  6  1  6
  7  5  1  0
  7  8  2  0
 10  9  1  6
 10 11  1  0
 10 12  1  0
 13 12  1  1
 13 14  1  0
 14  7  1  0
 15 13  1  0
 16 15  2  0
 18 17  1  6
 19 18  1  0
 20 18  1  0
 20 21  1  6
 21 15  1  0
 22 24  1  0
 22 20  1  0
 23 22  2  0
M  END
$$$$
