NLT.pdb
     RDKit          3D

 24 23  0  0  1  0  0  0  0  0999 V2000
    7.2685  -20.1413   23.8829 N   0  0  0  0  0  0  0  0  0  0  0  0
    6.0217  -19.8528   23.2681 C   0  0  0  0  0  0  0  0  0  0  0  0
    4.9629  -20.3332   23.7111 O   0  0  0  0  0  0  0  0  0  0  0  0
    6.0267  -18.9548   22.0744 C   0  0  0  0  0  0  0  0  0  0  0  0
    7.4420  -18.5246   21.8136 C   0  0  2  0  0  0  0  0  0  0  0  0
    7.9675  -17.8158   22.9625 N   0  0  0  0  0  0  0  0  0  0  0  0
    7.6141  -17.7425   20.5913 C   0  0  0  0  0  0  0  0  0  0  0  0
    7.2845  -18.2820   19.4897 O   0  0  0  0  0  0  0  0  0  0  0  0
    7.6657  -13.1269   21.7886 C   0  0  0  0  0  0  0  0  0  0  0  0
    8.4338  -13.4895   20.5661 C   0  0  2  0  0  0  0  0  0  0  0  0
    8.8603  -12.1655   19.8963 C   0  0  0  0  0  0  0  0  0  0  0  0
    7.7630  -14.3327   19.5745 C   0  0  0  0  0  0  0  0  0  0  0  0
    8.2559  -15.6910   19.2292 C   0  0  2  0  0  0  0  0  0  0  0  0
    8.1137  -16.4396   20.5199 N   0  0  0  0  0  0  0  0  0  0  0  0
    9.6619  -15.7492   18.8051 C   0  0  0  0  0  0  0  0  0  0  0  0
   10.0539  -15.2551   17.7113 O   0  0  0  0  0  0  0  0  0  0  0  0
   14.0678  -14.9942   18.7742 C   0  0  0  0  0  0  0  0  0  0  0  0
   12.6073  -14.9753   19.0883 C   0  0  1  0  0  0  0  0  0  0  0  0
   11.9523  -14.3466   18.0089 O   0  0  0  0  0  0  0  0  0  0  0  0
   12.0237  -16.3691   19.1781 C   0  0  2  0  0  0  0  0  0  0  0  0
   10.6718  -16.3810   19.6270 N   0  0  0  0  0  0  0  0  0  0  0  0
   12.8543  -17.2101   20.0719 C   0  0  0  0  0  0  0  0  0  0  0  0
   12.3865  -17.7335   21.1149 O   0  0  0  0  0  0  0  0  0  0  0  0
   14.1784  -17.4239   19.7492 O   0  0  0  0  0  0  0  0  0  0  0  0
  1  2  1  0
  2  3  2  0
  4  2  1  0
  4  5  1  0
  5  6  1  1
  7  5  1  0
  7  8  2  0
 10  9  1  1
 10 11  1  0
 10 12  1  0
 13 12  1  1
 13 14  1  0
 14  7  1  0
 15 13  1  0
 16 15  2  0
 18 17  1  6
 19 18  1  0
 20 18  1  0
 20 21  1  1
 21 15  1  0
 22 24  1  0
 22 20  1  0
 23 22  2  0
M  END
$$$$
