FDI.pdb
     RDKit          3D

 28 28  0  0  1  0  0  0  0  0999 V2000
   28.8188  -20.8620   -8.8765 N   0  0  0  0  0  0  0  0  0  0  0  0
   27.4062  -20.7000   -8.6376 C   0  0  1  0  0  0  0  0  0  0  0  0
   27.2370  -19.4354   -7.8129 C   0  0  0  0  0  0  0  0  0  0  0  0
   27.7793  -19.7172   -6.4744 C   0  0  0  0  0  0  0  0  0  0  0  0
   29.1182  -19.6129   -6.1885 C   0  0  0  0  0  0  0  0  0  0  0  0
   29.6259  -19.8794   -4.9289 C   0  0  0  0  0  0  0  0  0  0  0  0
   28.7191  -20.2644   -3.9405 C   0  0  0  0  0  0  0  0  0  0  0  0
   27.3731  -20.3783   -4.1936 C   0  0  0  0  0  0  0  0  0  0  0  0
   26.9274  -20.0996   -5.4677 C   0  0  0  0  0  0  0  0  0  0  0  0
   26.7363  -20.5389   -9.9534 C   0  0  0  0  0  0  0  0  0  0  0  0
   27.0562  -19.6211  -10.7541 O   0  0  0  0  0  0  0  0  0  0  0  0
   25.6895  -21.4444  -10.3473 N   0  0  0  0  0  0  0  0  0  0  0  0
   25.0455  -21.3569  -11.6162 C   0  0  1  0  0  0  0  0  0  0  0  0
   25.4370  -22.4375  -12.5851 C   0  0  0  0  0  0  0  0  0  0  0  0
   25.0075  -22.1811  -13.9621 C   0  0  0  0  0  0  0  0  0  0  0  0
   24.3452  -21.1819  -14.3334 O   0  0  0  0  0  0  0  0  0  0  0  0
   23.5610  -21.2352  -11.4954 C   0  0  0  0  0  0  0  0  0  0  0  0
   23.0077  -21.7876  -10.5324 O   0  0  0  0  0  0  0  0  0  0  0  0
   25.3562  -23.1094  -14.9334 O   0  0  0  0  0  0  0  0  0  0  0  0
   19.0630  -18.5602  -11.1176 C   0  0  0  0  0  0  0  0  0  0  0  0
   19.4444  -18.7549  -12.5612 C   0  0  0  0  0  0  0  0  0  0  0  0
   20.9155  -18.9860  -12.7439 C   0  0  2  0  0  0  0  0  0  0  0  0
   21.2647  -18.6680  -14.1790 C   0  0  0  0  0  0  0  0  0  0  0  0
   21.3431  -20.3485  -12.3228 C   0  0  2  0  0  0  0  0  0  0  0  0
   22.7927  -20.5135  -12.4440 N   0  0  0  0  0  0  0  0  0  0  0  0
   20.6381  -21.4574  -13.0013 C   0  0  0  0  0  0  0  0  0  0  0  0
   19.4212  -21.9120  -12.6087 O   0  0  0  0  0  0  0  0  0  0  0  0
   21.1956  -22.0129  -13.9967 O   0  0  0  0  0  0  0  0  0  0  0  0
  2  1  1  6
  2  3  1  0
  2 10  1  0
  3  4  1  0
  4  9  2  0
  5  6  2  0
  5  4  1  0
  6  7  1  0
  7  8  2  0
  9  8  1  0
 10 12  1  0
 10 11  2  0
 12 13  1  0
 13 14  1  6
 15 14  1  0
 15 19  1  0
 16 15  2  0
 17 13  1  0
 17 18  2  0
 20 21  1  0
 22 24  1  0
 22 21  1  0
 22 23  1  6
 24 25  1  6
 25 17  1  0
 26 24  1  0
 27 26  1  0
 28 26  2  0
M  END
$$$$
