FDI.pdb
     RDKit          3D

 28 28  0  0  1  0  0  0  0  0999 V2000
   22.3638  -19.1735  -18.7266 N   0  0  0  0  0  0  0  0  0  0  0  0
   23.0523  -18.4216  -17.7072 C   0  0  1  0  0  0  0  0  0  0  0  0
   22.0022  -17.6110  -16.9669 C   0  0  0  0  0  0  0  0  0  0  0  0
   21.7767  -16.3830  -17.7457 C   0  0  0  0  0  0  0  0  0  0  0  0
   20.8067  -16.2959  -18.7136 C   0  0  0  0  0  0  0  0  0  0  0  0
   20.5973  -15.1402  -19.4454 C   0  0  0  0  0  0  0  0  0  0  0  0
   21.4169  -14.0462  -19.1644 C   0  0  0  0  0  0  0  0  0  0  0  0
   22.3967  -14.1003  -18.2022 C   0  0  0  0  0  0  0  0  0  0  0  0
   22.5574  -15.2792  -17.5064 C   0  0  0  0  0  0  0  0  0  0  0  0
   23.6908  -19.3896  -16.7790 C   0  0  0  0  0  0  0  0  0  0  0  0
   23.0711  -20.3915  -16.3342 O   0  0  0  0  0  0  0  0  0  0  0  0
   25.0548  -19.1991  -16.3618 N   0  0  0  0  0  0  0  0  0  0  0  0
   25.7223  -20.1186  -15.5008 C   0  0  1  0  0  0  0  0  0  0  0  0
   27.2078  -20.2016  -15.7160 C   0  0  0  0  0  0  0  0  0  0  0  0
   27.5945  -21.0379  -16.8551 C   0  0  0  0  0  0  0  0  0  0  0  0
   26.7945  -21.6759  -17.5817 O   0  0  0  0  0  0  0  0  0  0  0  0
   25.3845  -19.9007  -14.0615 C   0  0  0  0  0  0  0  0  0  0  0  0
   25.0540  -18.7588  -13.7072 O   0  0  0  0  0  0  0  0  0  0  0  0
   28.9454  -21.1357  -17.1585 O   0  0  0  0  0  0  0  0  0  0  0  0
   21.7497  -19.6020  -10.1185 C   0  0  0  0  0  0  0  0  0  0  0  0
   23.1879  -20.0376  -10.2144 C   0  0  0  0  0  0  0  0  0  0  0  0
   23.6113  -20.3258  -11.6247 C   0  0  2  0  0  0  0  0  0  0  0  0
   22.6238  -21.3022  -12.2198 C   0  0  0  0  0  0  0  0  0  0  0  0
   25.0240  -20.7857  -11.7212 C   0  0  2  0  0  0  0  0  0  0  0  0
   25.4348  -20.9564  -13.1160 N   0  0  0  0  0  0  0  0  0  0  0  0
   25.3358  -22.0008  -10.9381 C   0  0  0  0  0  0  0  0  0  0  0  0
   25.4997  -21.9922   -9.5910 O   0  0  0  0  0  0  0  0  0  0  0  0
   25.4580  -23.1045  -11.5522 O   0  0  0  0  0  0  0  0  0  0  0  0
  2  1  1  6
  2  3  1  0
  2 10  1  0
  3  4  1  0
  4  9  2  0
  5  6  2  0
  5  4  1  0
  6  7  1  0
  7  8  2  0
  9  8  1  0
 10 12  1  0
 10 11  2  0
 12 13  1  0
 13 14  1  1
 15 14  1  0
 15 19  1  0
 16 15  2  0
 17 13  1  0
 17 18  2  0
 20 21  1  0
 22 24  1  0
 22 21  1  0
 22 23  1  1
 24 25  1  6
 25 17  1  0
 26 24  1  0
 27 26  1  0
 28 26  2  0
M  END
$$$$
