FDI.pdb
     RDKit          3D

 28 28  0  0  1  0  0  0  0  0999 V2000
   41.1824  -11.1309   -6.5707 N   0  0  0  0  0  0  0  0  0  0  0  0
   40.5222  -10.1935   -7.4448 C   0  0  1  0  0  0  0  0  0  0  0  0
   39.0631  -10.1451   -7.0243 C   0  0  0  0  0  0  0  0  0  0  0  0
   38.3581  -11.1838   -7.7919 C   0  0  0  0  0  0  0  0  0  0  0  0
   38.2440  -11.1350   -9.1593 C   0  0  0  0  0  0  0  0  0  0  0  0
   37.5795  -12.1128   -9.8789 C   0  0  0  0  0  0  0  0  0  0  0  0
   37.0189  -13.1688   -9.1591 C   0  0  0  0  0  0  0  0  0  0  0  0
   37.1151  -13.2475   -7.7904 C   0  0  0  0  0  0  0  0  0  0  0  0
   37.7893  -12.2434   -7.1293 C   0  0  0  0  0  0  0  0  0  0  0  0
   41.1504   -8.8625   -7.2447 C   0  0  0  0  0  0  0  0  0  0  0  0
   42.0808   -8.6848   -6.4149 O   0  0  0  0  0  0  0  0  0  0  0  0
   40.7009   -7.7288   -8.0085 N   0  0  0  0  0  0  0  0  0  0  0  0
   41.1846   -6.4094   -7.7679 C   0  0  1  0  0  0  0  0  0  0  0  0
   42.1803   -5.9204   -8.7825 C   0  0  0  0  0  0  0  0  0  0  0  0
   42.7071   -4.5834   -8.4972 C   0  0  0  0  0  0  0  0  0  0  0  0
   42.5208   -3.5702   -9.2140 O   0  0  0  0  0  0  0  0  0  0  0  0
   40.0791   -5.4255   -7.5607 C   0  0  0  0  0  0  0  0  0  0  0  0
   39.2326   -5.3027   -8.4590 O   0  0  0  0  0  0  0  0  0  0  0  0
   43.4702   -4.4186   -7.3495 O   0  0  0  0  0  0  0  0  0  0  0  0
   36.1698   -4.6860   -3.2448 C   0  0  0  0  0  0  0  0  0  0  0  0
   36.8732   -3.9376   -4.3459 C   0  0  0  0  0  0  0  0  0  0  0  0
   38.1363   -4.6150   -4.7893 C   0  0  2  0  0  0  0  0  0  0  0  0
   39.0676   -4.6926   -3.6021 C   0  0  0  0  0  0  0  0  0  0  0  0
   38.7529   -3.9662   -5.9790 C   0  0  2  0  0  0  0  0  0  0  0  0
   39.9855   -4.6476   -6.3788 N   0  0  0  0  0  0  0  0  0  0  0  0
   38.9872   -2.5126   -5.8413 C   0  0  0  0  0  0  0  0  0  0  0  0
   40.2265   -1.9597   -5.8294 O   0  0  0  0  0  0  0  0  0  0  0  0
   37.9841   -1.7438   -5.7272 O   0  0  0  0  0  0  0  0  0  0  0  0
  2  1  1  1
  2  3  1  0
  2 10  1  0
  3  4  1  0
  4  9  2  0
  5  6  2  0
  5  4  1  0
  6  7  1  0
  7  8  2  0
  9  8  1  0
 10 12  1  0
 10 11  2  0
 12 13  1  0
 13 14  1  6
 15 14  1  0
 15 19  1  0
 16 15  2  0
 17 13  1  0
 17 18  2  0
 20 21  1  0
 22 24  1  0
 22 21  1  0
 22 23  1  1
 24 25  1  1
 25 17  1  0
 26 24  1  0
 27 26  1  0
 28 26  2  0
M  END
$$$$
