FDI.pdb
     RDKit          3D

 28 28  0  0  1  0  0  0  0  0999 V2000
   19.3911  -12.8473  -17.4568 N   0  0  0  0  0  0  0  0  0  0  0  0
   18.4663  -11.8702  -16.9385 C   0  0  1  0  0  0  0  0  0  0  0  0
   18.2411  -12.2041  -15.4737 C   0  0  0  0  0  0  0  0  0  0  0  0
   17.4204  -13.4247  -15.4306 C   0  0  0  0  0  0  0  0  0  0  0  0
   17.9261  -14.6346  -15.0235 C   0  0  0  0  0  0  0  0  0  0  0  0
   17.1524  -15.7814  -14.9847 C   0  0  0  0  0  0  0  0  0  0  0  0
   15.8185  -15.6684  -15.3790 C   0  0  0  0  0  0  0  0  0  0  0  0
   15.2814  -14.4726  -15.7917 C   0  0  0  0  0  0  0  0  0  0  0  0
   16.1018  -13.3652  -15.8088 C   0  0  0  0  0  0  0  0  0  0  0  0
   19.1000  -10.5323  -17.0604 C   0  0  0  0  0  0  0  0  0  0  0  0
   20.3268  -10.3554  -16.8381 O   0  0  0  0  0  0  0  0  0  0  0  0
   18.3112   -9.3908  -17.4420 N   0  0  0  0  0  0  0  0  0  0  0  0
   18.8607   -8.0775  -17.5178 C   0  0  1  0  0  0  0  0  0  0  0  0
   18.0149   -7.0955  -18.2795 C   0  0  0  0  0  0  0  0  0  0  0  0
   18.6454   -5.7851  -18.4571 C   0  0  0  0  0  0  0  0  0  0  0  0
   18.0335   -4.6894  -18.4678 O   0  0  0  0  0  0  0  0  0  0  0  0
   19.2531   -7.5451  -16.1778 C   0  0  0  0  0  0  0  0  0  0  0  0
   18.6239   -7.9434  -15.1857 O   0  0  0  0  0  0  0  0  0  0  0  0
   20.0225   -5.7458  -18.6267 O   0  0  0  0  0  0  0  0  0  0  0  0
   22.9794   -9.2727  -13.8286 C   0  0  0  0  0  0  0  0  0  0  0  0
   21.7401   -8.4480  -14.0553 C   0  0  0  0  0  0  0  0  0  0  0  0
   22.0498   -7.0131  -14.3654 C   0  0  2  0  0  0  0  0  0  0  0  0
   22.8188   -6.4375  -13.1991 C   0  0  0  0  0  0  0  0  0  0  0  0
   20.8378   -6.2235  -14.7177 C   0  0  2  0  0  0  0  0  0  0  0  0
   20.3104   -6.6122  -16.0268 N   0  0  0  0  0  0  0  0  0  0  0  0
   21.0101   -4.7566  -14.6446 C   0  0  0  0  0  0  0  0  0  0  0  0
   20.8615   -3.9388  -15.7173 O   0  0  0  0  0  0  0  0  0  0  0  0
   21.3125   -4.2354  -13.5278 O   0  0  0  0  0  0  0  0  0  0  0  0
  2  1  1  1
  2  3  1  0
  2 10  1  0
  3  4  1  0
  4  9  2  0
  5  6  2  0
  5  4  1  0
  6  7  1  0
  7  8  2  0
  9  8  1  0
 10 12  1  0
 10 11  2  0
 12 13  1  0
 13 14  1  1
 15 14  1  0
 15 19  1  0
 16 15  2  0
 17 13  1  0
 17 18  2  0
 20 21  1  0
 22 24  1  0
 22 21  1  0
 22 23  1  1
 24 25  1  6
 25 17  1  0
 26 24  1  0
 27 26  1  0
 28 26  2  0
M  END
$$$$
