FDI.pdb
     RDKit          3D

 28 28  0  0  1  0  0  0  0  0999 V2000
   23.9243  -10.4278  -17.3243 N   0  0  0  0  0  0  0  0  0  0  0  0
   24.2669   -9.4844  -16.2893 C   0  0  1  0  0  0  0  0  0  0  0  0
   25.6402   -8.9308  -16.6291 C   0  0  0  0  0  0  0  0  0  0  0  0
   26.5919  -10.0490  -16.5344 C   0  0  0  0  0  0  0  0  0  0  0  0
   26.8275  -10.7140  -15.3564 C   0  0  0  0  0  0  0  0  0  0  0  0
   27.7239  -11.7648  -15.2697 C   0  0  0  0  0  0  0  0  0  0  0  0
   28.3929  -12.1347  -16.4372 C   0  0  0  0  0  0  0  0  0  0  0  0
   28.1801  -11.4900  -17.6321 C   0  0  0  0  0  0  0  0  0  0  0  0
   27.2752  -10.4507  -17.6556 C   0  0  0  0  0  0  0  0  0  0  0  0
   23.2607   -8.3921  -16.3161 C   0  0  0  0  0  0  0  0  0  0  0  0
   22.7432   -7.9916  -17.3920 O   0  0  0  0  0  0  0  0  0  0  0  0
   22.8491   -7.7582  -15.0916 N   0  0  0  0  0  0  0  0  0  0  0  0
   21.8325   -6.7594  -15.0565 C   0  0  1  0  0  0  0  0  0  0  0  0
   20.8135   -6.9511  -13.9679 C   0  0  0  0  0  0  0  0  0  0  0  0
   20.0247   -8.1780  -14.1058 C   0  0  0  0  0  0  0  0  0  0  0  0
   19.9413   -9.0794  -13.2366 O   0  0  0  0  0  0  0  0  0  0  0  0
   22.3934   -5.3743  -15.0497 C   0  0  0  0  0  0  0  0  0  0  0  0
   23.2532   -5.0982  -14.1993 O   0  0  0  0  0  0  0  0  0  0  0  0
   19.3141   -8.3629  -15.2837 O   0  0  0  0  0  0  0  0  0  0  0  0
   22.7290   -2.5470  -19.8968 C   0  0  0  0  0  0  0  0  0  0  0  0
   22.1448   -2.7935  -18.5311 C   0  0  0  0  0  0  0  0  0  0  0  0
   23.1943   -2.8965  -17.4638 C   0  0  2  0  0  0  0  0  0  0  0  0
   24.1611   -3.9872  -17.8616 C   0  0  0  0  0  0  0  0  0  0  0  0
   22.6189   -3.0880  -16.1041 C   0  0  2  0  0  0  0  0  0  0  0  0
   21.9669   -4.3929  -15.9802 N   0  0  0  0  0  0  0  0  0  0  0  0
   21.7089   -2.0110  -15.6582 C   0  0  0  0  0  0  0  0  0  0  0  0
   22.1350   -0.7581  -15.3577 O   0  0  0  0  0  0  0  0  0  0  0  0
   20.4711   -2.2681  -15.5489 O   0  0  0  0  0  0  0  0  0  0  0  0
  2  1  1  6
  2  3  1  0
  2 10  1  0
  3  4  1  0
  4  9  2  0
  5  6  2  0
  5  4  1  0
  6  7  1  0
  7  8  2  0
  9  8  1  0
 10 12  1  0
 10 11  2  0
 12 13  1  0
 13 14  1  1
 15 14  1  0
 15 19  1  0
 16 15  2  0
 17 13  1  0
 17 18  2  0
 20 21  1  0
 22 24  1  0
 22 21  1  0
 22 23  1  6
 24 25  1  6
 25 17  1  0
 26 24  1  0
 27 26  1  0
 28 26  2  0
M  END
$$$$
