FDI.pdb
     RDKit          3D

 28 28  0  0  1  0  0  0  0  0999 V2000
   20.4976  -11.7741  -17.8724 N   0  0  0  0  0  0  0  0  0  0  0  0
   20.8115  -10.6981  -16.9655 C   0  0  1  0  0  0  0  0  0  0  0  0
   22.2014  -10.2029  -17.3273 C   0  0  0  0  0  0  0  0  0  0  0  0
   23.1473  -11.2712  -16.9679 C   0  0  0  0  0  0  0  0  0  0  0  0
   23.3223  -11.6908  -15.6722 C   0  0  0  0  0  0  0  0  0  0  0  0
   24.2133  -12.6951  -15.3366 C   0  0  0  0  0  0  0  0  0  0  0  0
   24.9417  -13.2788  -16.3740 C   0  0  0  0  0  0  0  0  0  0  0  0
   24.7904  -12.8822  -17.6811 C   0  0  0  0  0  0  0  0  0  0  0  0
   23.8875  -11.8769  -17.9530 C   0  0  0  0  0  0  0  0  0  0  0  0
   19.8174   -9.6156  -17.1801 C   0  0  0  0  0  0  0  0  0  0  0  0
   19.3768   -9.3356  -18.3260 O   0  0  0  0  0  0  0  0  0  0  0  0
   19.3286   -8.8512  -16.0631 N   0  0  0  0  0  0  0  0  0  0  0  0
   18.3747   -7.8031  -16.2179 C   0  0  1  0  0  0  0  0  0  0  0  0
   17.2687   -7.8172  -15.1998 C   0  0  0  0  0  0  0  0  0  0  0  0
   16.4813   -9.0527  -15.1992 C   0  0  0  0  0  0  0  0  0  0  0  0
   15.8825   -9.5231  -16.1969 O   0  0  0  0  0  0  0  0  0  0  0  0
   19.0168   -6.4573  -16.3166 C   0  0  0  0  0  0  0  0  0  0  0  0
   19.9464   -6.1969  -15.5378 O   0  0  0  0  0  0  0  0  0  0  0  0
   16.3867   -9.7606  -14.0090 O   0  0  0  0  0  0  0  0  0  0  0  0
   19.0473   -3.9502  -21.2081 C   0  0  0  0  0  0  0  0  0  0  0  0
   19.4423   -4.4703  -19.8513 C   0  0  0  0  0  0  0  0  0  0  0  0
   18.9720   -3.5859  -18.7342 C   0  0  2  0  0  0  0  0  0  0  0  0
   19.6094   -2.2278  -18.9124 C   0  0  0  0  0  0  0  0  0  0  0  0
   19.2130   -4.1766  -17.3891 C   0  0  2  0  0  0  0  0  0  0  0  0
   18.5887   -5.4951  -17.2663 N   0  0  0  0  0  0  0  0  0  0  0  0
   18.8243   -3.3129  -16.2534 C   0  0  0  0  0  0  0  0  0  0  0  0
   19.7040   -2.5201  -15.5906 O   0  0  0  0  0  0  0  0  0  0  0  0
   17.6122   -3.3120  -15.8779 O   0  0  0  0  0  0  0  0  0  0  0  0
  2  1  1  6
  2  3  1  0
  2 10  1  0
  3  4  1  0
  4  9  2  0
  5  6  2  0
  5  4  1  0
  6  7  1  0
  7  8  2  0
  9  8  1  0
 10 12  1  0
 10 11  2  0
 12 13  1  0
 13 14  1  1
 15 14  1  0
 15 19  1  0
 16 15  2  0
 17 13  1  0
 17 18  2  0
 20 21  1  0
 22 24  1  0
 22 21  1  0
 22 23  1  1
 24 25  1  6
 25 17  1  0
 26 24  1  0
 27 26  1  0
 28 26  2  0
M  END
$$$$
