FDI.pdb
     RDKit          3D

 28 28  0  0  1  0  0  0  0  0999 V2000
   24.1720  -12.5383  -17.5564 N   0  0  0  0  0  0  0  0  0  0  0  0
   24.4240  -11.4528  -16.6416 C   0  0  1  0  0  0  0  0  0  0  0  0
   25.7517  -10.8328  -17.0423 C   0  0  0  0  0  0  0  0  0  0  0  0
   26.7936  -11.8388  -16.7828 C   0  0  0  0  0  0  0  0  0  0  0  0
   27.0961  -12.2716  -15.5153 C   0  0  0  0  0  0  0  0  0  0  0  0
   28.0772  -13.2173  -15.2738 C   0  0  0  0  0  0  0  0  0  0  0  0
   28.7621  -13.7268  -16.3778 C   0  0  0  0  0  0  0  0  0  0  0  0
   28.4838  -13.3151  -17.6592 C   0  0  0  0  0  0  0  0  0  0  0  0
   27.4957  -12.3705  -17.8362 C   0  0  0  0  0  0  0  0  0  0  0  0
   23.3326  -10.4581  -16.8020 C   0  0  0  0  0  0  0  0  0  0  0  0
   22.3650  -10.6535  -17.5838 O   0  0  0  0  0  0  0  0  0  0  0  0
   23.3590   -9.2291  -16.0539 N   0  0  0  0  0  0  0  0  0  0  0  0
   22.2518   -8.3314  -16.0265 C   0  0  1  0  0  0  0  0  0  0  0  0
   20.9664   -8.9481  -15.5498 C   0  0  0  0  0  0  0  0  0  0  0  0
   20.3962   -9.9225  -16.4834 C   0  0  0  0  0  0  0  0  0  0  0  0
   20.1318   -9.6927  -17.6885 O   0  0  0  0  0  0  0  0  0  0  0  0
   22.5615   -7.0658  -15.2946 C   0  0  0  0  0  0  0  0  0  0  0  0
   23.3193   -7.1301  -14.3147 O   0  0  0  0  0  0  0  0  0  0  0  0
   20.1260  -11.1973  -16.0052 O   0  0  0  0  0  0  0  0  0  0  0  0
   22.8273   -2.3769  -18.0720 C   0  0  0  0  0  0  0  0  0  0  0  0
   23.0725   -3.4813  -17.0783 C   0  0  0  0  0  0  0  0  0  0  0  0
   22.1698   -3.3939  -15.8831 C   0  0  2  0  0  0  0  0  0  0  0  0
   22.4396   -2.0801  -15.1876 C   0  0  0  0  0  0  0  0  0  0  0  0
   22.2897   -4.5722  -14.9810 C   0  0  2  0  0  0  0  0  0  0  0  0
   22.0143   -5.8203  -15.6949 N   0  0  0  0  0  0  0  0  0  0  0  0
   21.4798   -4.4934  -13.7462 C   0  0  0  0  0  0  0  0  0  0  0  0
   21.9807   -4.0724  -12.5573 O   0  0  0  0  0  0  0  0  0  0  0  0
   20.2591   -4.8363  -13.7975 O   0  0  0  0  0  0  0  0  0  0  0  0
  2  1  1  6
  2  3  1  0
  2 10  1  0
  3  4  1  0
  4  9  2  0
  5  6  2  0
  5  4  1  0
  6  7  1  0
  7  8  2  0
  9  8  1  0
 10 12  1  0
 10 11  2  0
 12 13  1  0
 13 14  1  1
 15 14  1  0
 15 19  1  0
 16 15  2  0
 17 13  1  0
 17 18  2  0
 20 21  1  0
 22 24  1  0
 22 21  1  0
 22 23  1  1
 24 25  1  6
 25 17  1  0
 26 24  1  0
 27 26  1  0
 28 26  2  0
M  END
$$$$
