FDI.pdb
     RDKit          3D

 28 28  0  0  1  0  0  0  0  0999 V2000
   28.7462  -19.4039  -13.1719 N   0  0  0  0  0  0  0  0  0  0  0  0
   28.1204  -20.6944  -13.3196 C   0  0  1  0  0  0  0  0  0  0  0  0
   27.8908  -21.2399  -11.9205 C   0  0  0  0  0  0  0  0  0  0  0  0
   29.2144  -21.5371  -11.3505 C   0  0  0  0  0  0  0  0  0  0  0  0
   30.1706  -22.2383  -12.0429 C   0  0  0  0  0  0  0  0  0  0  0  0
   31.4145  -22.5173  -11.5043 C   0  0  0  0  0  0  0  0  0  0  0  0
   31.6719  -22.0560  -10.2126 C   0  0  0  0  0  0  0  0  0  0  0  0
   30.7369  -21.3514   -9.4927 C   0  0  0  0  0  0  0  0  0  0  0  0
   29.5160  -21.1045  -10.0828 C   0  0  0  0  0  0  0  0  0  0  0  0
   26.8175  -20.4941  -14.0042 C   0  0  0  0  0  0  0  0  0  0  0  0
   26.2010  -19.3973  -13.9519 O   0  0  0  0  0  0  0  0  0  0  0  0
   26.2226  -21.5682  -14.7547 N   0  0  0  0  0  0  0  0  0  0  0  0
   24.9349  -21.4541  -15.3558 C   0  0  1  0  0  0  0  0  0  0  0  0
   24.7517  -22.2916  -16.5906 C   0  0  0  0  0  0  0  0  0  0  0  0
   23.4815  -22.0560  -17.2817 C   0  0  0  0  0  0  0  0  0  0  0  0
   22.8048  -21.0022  -17.2010 O   0  0  0  0  0  0  0  0  0  0  0  0
   23.8270  -21.6661  -14.3756 C   0  0  0  0  0  0  0  0  0  0  0  0
   23.9522  -22.5770  -13.5430 O   0  0  0  0  0  0  0  0  0  0  0  0
   22.9841  -23.0708  -18.0876 O   0  0  0  0  0  0  0  0  0  0  0  0
   20.6976  -18.9038  -10.2960 C   0  0  0  0  0  0  0  0  0  0  0  0
   20.5876  -19.9826  -11.3407 C   0  0  0  0  0  0  0  0  0  0  0  0
   21.6344  -19.8615  -12.4086 C   0  0  2  0  0  0  0  0  0  0  0  0
   21.4804  -18.5089  -13.0640 C   0  0  0  0  0  0  0  0  0  0  0  0
   21.6046  -20.9912  -13.3778 C   0  0  2  0  0  0  0  0  0  0  0  0
   22.6608  -20.8593  -14.3829 N   0  0  0  0  0  0  0  0  0  0  0  0
   20.2961  -21.2155  -14.0293 C   0  0  0  0  0  0  0  0  0  0  0  0
   19.2170  -21.7117  -13.3728 O   0  0  0  0  0  0  0  0  0  0  0  0
   20.1742  -20.9330  -15.2604 O   0  0  0  0  0  0  0  0  0  0  0  0
  2  1  1  1
  2  3  1  0
  2 10  1  0
  3  4  1  0
  4  9  2  0
  5  6  2  0
  5  4  1  0
  6  7  1  0
  7  8  2  0
  9  8  1  0
 10 12  1  0
 10 11  2  0
 12 13  1  0
 13 14  1  6
 15 14  1  0
 15 19  1  0
 16 15  2  0
 17 13  1  0
 17 18  2  0
 20 21  1  0
 22 24  1  0
 22 21  1  0
 22 23  1  6
 24 25  1  6
 25 17  1  0
 26 24  1  0
 27 26  1  0
 28 26  2  0
M  END
$$$$
