KED.pdb
     RDKit          3D

 27 26  0  0  1  0  0  0  0  0999 V2000
    9.0233  -16.3919   17.6313 N   0  0  0  0  0  0  0  0  0  0  0  0
    9.9021  -15.4308   18.2663 C   0  0  1  0  0  0  0  0  0  0  0  0
    9.2635  -14.7284   19.4187 C   0  0  0  0  0  0  0  0  0  0  0  0
    8.3294  -13.6582   18.9246 C   0  0  0  0  0  0  0  0  0  0  0  0
    7.7469  -12.9269   20.1379 C   0  0  0  0  0  0  0  0  0  0  0  0
    6.8721  -11.7707   19.7165 C   0  0  0  0  0  0  0  0  0  0  0  0
    6.3054  -11.0679   20.8443 N   0  0  0  0  0  0  0  0  0  0  0  0
   11.1301  -16.1237   18.8026 C   0  0  0  0  0  0  0  0  0  0  0  0
   11.1656  -17.3629   18.9789 O   0  0  0  0  0  0  0  0  0  0  0  0
   12.2907  -15.3919   19.1262 N   0  0  0  0  0  0  0  0  0  0  0  0
   13.5253  -16.0848   19.6397 C   0  0  1  0  0  0  0  0  0  0  0  0
   14.6542  -15.5485   18.8818 C   0  0  0  0  0  0  0  0  0  0  0  0
   14.4929  -14.3070   18.0964 C   0  0  0  0  0  0  0  0  0  0  0  0
   15.6820  -13.8170   17.3889 C   0  0  0  0  0  0  0  0  0  0  0  0
   16.6662  -13.3697   17.9759 O   0  0  0  0  0  0  0  0  0  0  0  0
   13.4140  -16.1034   21.0544 C   0  0  0  0  0  0  0  0  0  0  0  0
   13.4434  -15.0048   21.7158 O   0  0  0  0  0  0  0  0  0  0  0  0
   15.6748  -13.8693   15.9942 O   0  0  0  0  0  0  0  0  0  0  0  0
   13.2545  -17.2583   21.8554 N   0  0  0  0  0  0  0  0  0  0  0  0
   13.1237  -17.1803   23.3052 C   0  0  1  0  0  0  0  0  0  0  0  0
   12.2751  -18.3389   23.8073 C   0  0  0  0  0  0  0  0  0  0  0  0
   10.9080  -18.2784   23.2806 C   0  0  0  0  0  0  0  0  0  0  0  0
   10.5302  -17.2920   22.6307 O   0  0  0  0  0  0  0  0  0  0  0  0
   14.4314  -17.1261   23.9594 C   0  0  0  0  0  0  0  0  0  0  0  0
   14.5745  -16.8054   25.3163 O   0  0  0  0  0  0  0  0  0  0  0  0
   10.0190  -19.3247   23.5007 O   0  0  0  0  0  0  0  0  0  0  0  0
   15.4839  -17.3630   23.3381 O   0  0  0  0  0  0  0  0  0  0  0  0
  2  1  1  1
  3  2  1  0
  4  3  1  0
  5  4  1  0
  5  6  1  0
  6  7  1  0
  8 10  1  0
  8  2  1  0
  9  8  2  0
 11 10  1  0
 11 12  1  1
 12 13  1  0
 13 14  1  0
 14 18  1  0
 15 14  2  0
 16 17  2  0
 16 11  1  0
 19 16  1  0
 20 21  1  1
 20 19  1  0
 22 21  1  0
 22 23  2  0
 24 20  1  0
 25 24  1  0
 26 22  1  0
 27 24  2  0
M  END
$$$$
