KED.pdb
     RDKit          3D

 27 26  0  0  1  0  0  0  0  0999 V2000
   10.8180  -13.4132   17.8446 N   0  0  0  0  0  0  0  0  0  0  0  0
    9.7806  -14.0405   18.6381 C   0  0  1  0  0  0  0  0  0  0  0  0
    8.7028  -14.6560   17.8083 C   0  0  0  0  0  0  0  0  0  0  0  0
    8.4581  -13.8304   16.5753 C   0  0  0  0  0  0  0  0  0  0  0  0
    6.9458  -13.6725   16.3912 C   0  0  0  0  0  0  0  0  0  0  0  0
    6.6224  -12.8600   15.1604 C   0  0  0  0  0  0  0  0  0  0  0  0
    5.2001  -12.7254   14.9461 N   0  0  0  0  0  0  0  0  0  0  0  0
   10.3674  -15.1448   19.4819 C   0  0  0  0  0  0  0  0  0  0  0  0
    9.6529  -15.8697   20.2113 O   0  0  0  0  0  0  0  0  0  0  0  0
   11.7537  -15.4004   19.4772 N   0  0  0  0  0  0  0  0  0  0  0  0
   12.3358  -16.5301   20.2853 C   0  0  1  0  0  0  0  0  0  0  0  0
   12.9723  -17.4414   19.3361 C   0  0  0  0  0  0  0  0  0  0  0  0
   13.6483  -18.6616   19.8244 C   0  0  0  0  0  0  0  0  0  0  0  0
   14.2961  -19.5046   18.8121 C   0  0  0  0  0  0  0  0  0  0  0  0
   15.5184  -19.5791   18.6939 O   0  0  0  0  0  0  0  0  0  0  0  0
   12.9661  -15.9346   21.4087 C   0  0  0  0  0  0  0  0  0  0  0  0
   14.1283  -15.4053   21.2879 O   0  0  0  0  0  0  0  0  0  0  0  0
   13.4738  -20.2427   17.9595 O   0  0  0  0  0  0  0  0  0  0  0  0
   12.4212  -15.8457   22.7110 N   0  0  0  0  0  0  0  0  0  0  0  0
   13.1900  -16.2061   23.8959 C   0  0  1  0  0  0  0  0  0  0  0  0
   12.4061  -17.2067   24.7319 C   0  0  0  0  0  0  0  0  0  0  0  0
   13.1477  -17.6115   25.9304 C   0  0  0  0  0  0  0  0  0  0  0  0
   14.2550  -17.1120   26.1803 O   0  0  0  0  0  0  0  0  0  0  0  0
   14.5206  -16.7010   23.5417 C   0  0  0  0  0  0  0  0  0  0  0  0
   15.6924  -16.0459   23.9449 O   0  0  0  0  0  0  0  0  0  0  0  0
   12.6198  -18.5575   26.8021 O   0  0  0  0  0  0  0  0  0  0  0  0
   14.6754  -17.7320   22.8615 O   0  0  0  0  0  0  0  0  0  0  0  0
  2  1  1  6
  3  2  1  0
  4  3  1  0
  5  4  1  0
  5  6  1  0
  6  7  1  0
  8 10  1  0
  8  2  1  0
  9  8  2  0
 11 10  1  0
 11 12  1  6
 12 13  1  0
 13 14  1  0
 14 18  1  0
 15 14  2  0
 16 17  2  0
 16 11  1  0
 19 16  1  0
 20 21  1  6
 20 19  1  0
 22 21  1  0
 22 23  2  0
 24 20  1  0
 25 24  1  0
 26 22  1  0
 27 24  2  0
M  END
$$$$
