KED.pdb
     RDKit          3D

 27 26  0  0  1  0  0  0  0  0999 V2000
    8.1126  -18.6921   20.9649 N   0  0  0  0  0  0  0  0  0  0  0  0
    9.2268  -17.9007   20.4836 C   0  0  1  0  0  0  0  0  0  0  0  0
    9.0147  -16.4322   20.6501 C   0  0  0  0  0  0  0  0  0  0  0  0
    8.3861  -15.8524   19.4129 C   0  0  0  0  0  0  0  0  0  0  0  0
    8.2188  -14.3437   19.6171 C   0  0  0  0  0  0  0  0  0  0  0  0
    7.6041  -13.6883   18.4036 C   0  0  0  0  0  0  0  0  0  0  0  0
    7.5647  -12.2485   18.5146 N   0  0  0  0  0  0  0  0  0  0  0  0
   10.4810  -18.2505   21.2456 C   0  0  0  0  0  0  0  0  0  0  0  0
   10.4892  -19.1308   22.1360 O   0  0  0  0  0  0  0  0  0  0  0  0
   11.6979  -17.5914   20.9777 N   0  0  0  0  0  0  0  0  0  0  0  0
   12.9868  -18.0625   21.5982 C   0  0  1  0  0  0  0  0  0  0  0  0
   14.0697  -17.5316   20.7723 C   0  0  0  0  0  0  0  0  0  0  0  0
   14.8521  -18.4400   19.9080 C   0  0  0  0  0  0  0  0  0  0  0  0
   16.1692  -17.9607   19.4718 C   0  0  0  0  0  0  0  0  0  0  0  0
   16.9811  -18.6836   18.8958 O   0  0  0  0  0  0  0  0  0  0  0  0
   12.8479  -17.8761   22.9982 C   0  0  0  0  0  0  0  0  0  0  0  0
   12.2111  -16.8588   23.4510 O   0  0  0  0  0  0  0  0  0  0  0  0
   16.4934  -16.6282   19.7311 O   0  0  0  0  0  0  0  0  0  0  0  0
   13.3501  -18.7388   24.0003 N   0  0  0  0  0  0  0  0  0  0  0  0
   12.7472  -18.8166   25.3253 C   0  0  1  0  0  0  0  0  0  0  0  0
   11.2569  -19.0935   25.1959 C   0  0  0  0  0  0  0  0  0  0  0  0
   10.6322  -19.3235   26.5024 C   0  0  0  0  0  0  0  0  0  0  0  0
   11.3196  -19.3202   27.5347 O   0  0  0  0  0  0  0  0  0  0  0  0
   13.4242  -19.8052   26.1652 C   0  0  0  0  0  0  0  0  0  0  0  0
   14.5463  -20.5185   25.7215 O   0  0  0  0  0  0  0  0  0  0  0  0
    9.2633  -19.5463   26.6017 O   0  0  0  0  0  0  0  0  0  0  0  0
   13.0330  -20.0611   27.3190 O   0  0  0  0  0  0  0  0  0  0  0  0
  2  1  1  1
  3  2  1  0
  4  3  1  0
  5  4  1  0
  5  6  1  0
  6  7  1  0
  8 10  1  0
  8  2  1  0
  9  8  2  0
 11 10  1  0
 11 12  1  6
 12 13  1  0
 13 14  1  0
 14 18  1  0
 15 14  2  0
 16 17  2  0
 16 11  1  0
 19 16  1  0
 20 21  1  6
 20 19  1  0
 22 21  1  0
 22 23  2  0
 24 20  1  0
 25 24  1  0
 26 22  1  0
 27 24  2  0
M  END
$$$$
