KED.pdb
     RDKit          3D

 27 26  0  0  1  0  0  0  0  0999 V2000
    6.8623  -17.4752   21.5196 N   0  0  0  0  0  0  0  0  0  0  0  0
    7.8616  -16.5631   21.0011 C   0  0  1  0  0  0  0  0  0  0  0  0
    7.8490  -15.2347   21.6826 C   0  0  0  0  0  0  0  0  0  0  0  0
    7.2008  -14.2025   20.8015 C   0  0  0  0  0  0  0  0  0  0  0  0
    8.2941  -13.2832   20.2487 C   0  0  0  0  0  0  0  0  0  0  0  0
    7.7109  -12.1919   19.3835 C   0  0  0  0  0  0  0  0  0  0  0  0
    8.7291  -11.4017   18.7309 N   0  0  0  0  0  0  0  0  0  0  0  0
    9.2422  -17.1400   21.1930 C   0  0  0  0  0  0  0  0  0  0  0  0
    9.4875  -17.9838   22.0851 O   0  0  0  0  0  0  0  0  0  0  0  0
   10.3130  -16.7446   20.3660 N   0  0  0  0  0  0  0  0  0  0  0  0
   11.6345  -17.4656   20.4121 C   0  0  1  0  0  0  0  0  0  0  0  0
   12.0664  -17.6406   19.0267 C   0  0  0  0  0  0  0  0  0  0  0  0
   13.3666  -18.2796   18.7341 C   0  0  0  0  0  0  0  0  0  0  0  0
   13.6965  -18.4815   17.3181 C   0  0  0  0  0  0  0  0  0  0  0  0
   12.8929  -18.9424   16.5086 O   0  0  0  0  0  0  0  0  0  0  0  0
   12.3910  -16.8480   21.4418 C   0  0  0  0  0  0  0  0  0  0  0  0
   12.3093  -15.5814   21.6279 O   0  0  0  0  0  0  0  0  0  0  0  0
   14.9789  -18.1301   16.8941 O   0  0  0  0  0  0  0  0  0  0  0  0
   13.2610  -17.5107   22.3387 N   0  0  0  0  0  0  0  0  0  0  0  0
   14.0485  -16.7857   23.3283 C   0  0  1  0  0  0  0  0  0  0  0  0
   14.4294  -17.7204   24.4666 C   0  0  0  0  0  0  0  0  0  0  0  0
   13.3021  -17.9583   25.3738 C   0  0  0  0  0  0  0  0  0  0  0  0
   13.3548  -18.8704   26.2125 O   0  0  0  0  0  0  0  0  0  0  0  0
   15.2163  -16.1468   22.7208 C   0  0  0  0  0  0  0  0  0  0  0  0
   16.0423  -15.2679   23.4349 O   0  0  0  0  0  0  0  0  0  0  0  0
   12.1620  -17.1651   25.3072 O   0  0  0  0  0  0  0  0  0  0  0  0
   15.5323  -16.3543   21.5347 O   0  0  0  0  0  0  0  0  0  0  0  0
  2  1  1  1
  3  2  1  0
  4  3  1  0
  5  4  1  0
  5  6  1  0
  6  7  1  0
  8 10  1  0
  8  2  1  0
  9  8  2  0
 11 10  1  0
 11 12  1  6
 12 13  1  0
 13 14  1  0
 14 18  1  0
 15 14  2  0
 16 17  2  0
 16 11  1  0
 19 16  1  0
 20 21  1  1
 20 19  1  0
 22 21  1  0
 22 23  2  0
 24 20  1  0
 25 24  1  0
 26 22  1  0
 27 24  2  0
M  END
$$$$
