KED.pdb
     RDKit          3D

 27 26  0  0  1  0  0  0  0  0999 V2000
    4.6836  -19.2437   21.1486 N   0  0  0  0  0  0  0  0  0  0  0  0
    5.5532  -20.4001   21.2257 C   0  0  1  0  0  0  0  0  0  0  0  0
    5.1555  -21.4929   20.2893 C   0  0  0  0  0  0  0  0  0  0  0  0
    3.6810  -21.7663   20.4029 C   0  0  0  0  0  0  0  0  0  0  0  0
    3.4639  -22.7921   21.5193 C   0  0  0  0  0  0  0  0  0  0  0  0
    2.0049  -23.1548   21.6583 C   0  0  0  0  0  0  0  0  0  0  0  0
    1.7714  -24.1060   22.7202 N   0  0  0  0  0  0  0  0  0  0  0  0
    6.9671  -20.0125   20.8701 C   0  0  0  0  0  0  0  0  0  0  0  0
    7.8845  -20.8610   20.7899 O   0  0  0  0  0  0  0  0  0  0  0  0
    7.3061  -18.6685   20.6135 N   0  0  0  0  0  0  0  0  0  0  0  0
    8.7318  -18.2682   20.3390 C   0  0  1  0  0  0  0  0  0  0  0  0
    8.7573  -17.7014   18.9919 C   0  0  0  0  0  0  0  0  0  0  0  0
    8.8441  -18.5940   17.8171 C   0  0  0  0  0  0  0  0  0  0  0  0
    8.9581  -17.9455   16.5052 C   0  0  0  0  0  0  0  0  0  0  0  0
    7.9962  -17.7957   15.7531 O   0  0  0  0  0  0  0  0  0  0  0  0
    9.2000  -17.6259   21.5147 C   0  0  0  0  0  0  0  0  0  0  0  0
    8.3640  -17.1613   22.3695 O   0  0  0  0  0  0  0  0  0  0  0  0
   10.2176  -17.4881   16.1147 O   0  0  0  0  0  0  0  0  0  0  0  0
   10.5564  -17.4424   21.8715 N   0  0  0  0  0  0  0  0  0  0  0  0
   10.9744  -17.2774   23.2583 C   0  0  1  0  0  0  0  0  0  0  0  0
   10.3467  -18.3653   24.1167 C   0  0  0  0  0  0  0  0  0  0  0  0
   10.8482  -18.3267   25.4941 C   0  0  0  0  0  0  0  0  0  0  0  0
   11.6541  -17.4510   25.8430 O   0  0  0  0  0  0  0  0  0  0  0  0
   12.4323  -17.2476   23.3788 C   0  0  0  0  0  0  0  0  0  0  0  0
   13.2749  -17.2928   22.2596 O   0  0  0  0  0  0  0  0  0  0  0  0
   10.4267  -19.2685   26.4262 O   0  0  0  0  0  0  0  0  0  0  0  0
   12.9958  -17.1811   24.4869 O   0  0  0  0  0  0  0  0  0  0  0  0
  2  1  1  6
  3  2  1  0
  4  3  1  0
  5  4  1  0
  5  6  1  0
  6  7  1  0
  8 10  1  0
  8  2  1  0
  9  8  2  0
 11 10  1  0
 11 12  1  6
 12 13  1  0
 13 14  1  0
 14 18  1  0
 15 14  2  0
 16 17  2  0
 16 11  1  0
 19 16  1  0
 20 21  1  1
 20 19  1  0
 22 21  1  0
 22 23  2  0
 24 20  1  0
 25 24  1  0
 26 22  1  0
 27 24  2  0
M  END
$$$$
