HIY.pdb
     RDKit          3D

 31 32  0  0  1  0  0  0  0  0999 V2000
   23.5750   -7.5644  -21.6512 N   0  0  0  0  0  0  0  0  0  0  0  0
   23.6531   -8.3546  -20.4410 C   0  0  1  0  0  0  0  0  0  0  0  0
   24.7315   -7.7394  -19.5792 C   0  0  0  0  0  0  0  0  0  0  0  0
   26.0301   -8.0054  -20.2570 C   0  0  0  0  0  0  0  0  0  0  0  0
   26.9280   -7.0555  -20.7402 C   0  0  0  0  0  0  0  0  0  0  0  0
   27.9916   -7.6554  -21.2906 N   0  0  0  0  0  0  0  0  0  0  0  0
   27.7694   -8.9854  -21.1572 C   0  0  0  0  0  0  0  0  0  0  0  0
   26.5914   -9.1942  -20.5365 N   0  0  0  0  0  0  0  0  0  0  0  0
   22.3321   -8.3027  -19.7684 C   0  0  0  0  0  0  0  0  0  0  0  0
   21.5758   -7.2892  -19.8692 O   0  0  0  0  0  0  0  0  0  0  0  0
   17.7528  -11.9394  -18.9501 C   0  0  0  0  0  0  0  0  0  0  0  0
   18.4535  -10.7996  -18.3011 C   0  0  0  0  0  0  0  0  0  0  0  0
   19.7860  -10.4822  -18.8574 C   0  0  2  0  0  0  0  0  0  0  0  0
   20.7086  -11.7072  -18.7951 C   0  0  0  0  0  0  0  0  0  0  0  0
   20.5335   -9.3279  -18.3097 C   0  0  2  0  0  0  0  0  0  0  0  0
   21.8576   -9.3737  -18.9886 N   0  0  0  0  0  0  0  0  0  0  0  0
   20.8578   -9.4388  -16.8450 C   0  0  0  0  0  0  0  0  0  0  0  0
   21.3084  -10.5336  -16.3831 O   0  0  0  0  0  0  0  0  0  0  0  0
   26.7906   -8.9289  -16.8866 O   0  0  0  0  0  0  0  0  0  0  0  0
   25.6398   -8.5855  -16.2163 C   0  0  0  0  0  0  0  0  0  0  0  0
   25.1200   -9.5171  -15.3310 C   0  0  0  0  0  0  0  0  0  0  0  0
   23.9692   -9.2051  -14.6439 C   0  0  0  0  0  0  0  0  0  0  0  0
   23.3527   -7.9883  -14.8384 C   0  0  0  0  0  0  0  0  0  0  0  0
   22.1339   -7.6910  -14.0932 C   0  0  0  0  0  0  0  0  0  0  0  0
   20.8976   -8.3971  -14.5152 C   0  0  2  0  0  0  0  0  0  0  0  0
   20.6850   -8.3647  -15.9419 N   0  0  0  0  0  0  0  0  0  0  0  0
   19.6980   -8.1373  -13.6995 C   0  0  0  0  0  0  0  0  0  0  0  0
   18.6474   -7.6342  -14.2360 O   0  0  0  0  0  0  0  0  0  0  0  0
   23.8698   -7.0763  -15.7113 C   0  0  0  0  0  0  0  0  0  0  0  0
   25.0207   -7.3764  -16.4048 C   0  0  0  0  0  0  0  0  0  0  0  0
   19.5738   -8.3865  -12.3430 O   0  0  0  0  0  0  0  0  0  0  0  0
  2  1  1  6
  3  4  1  0
  3  2  1  0
  4  8  1  0
  4  5  2  0
  5  6  1  0
  7  6  1  0
  8  7  2  0
  9 16  1  0
  9  2  1  0
 10  9  2  0
 11 12  1  0
 13 12  1  0
 13 15  1  0
 13 14  1  1
 15 16  1  6
 17 15  1  0
 18 17  2  0
 20 19  1  0
 20 30  2  0
 21 20  1  0
 22 21  2  0
 22 23  1  0
 23 29  2  0
 24 23  1  0
 25 26  1  0
 25 24  1  6
 26 17  1  0
 27 25  1  0
 28 27  2  0
 29 30  1  0
 31 27  1  0
M  END
$$$$
