HIY.pdb
     RDKit          3D

 31 32  0  0  1  0  0  0  0  0999 V2000
   22.3416   -4.1089  -20.6474 N   0  0  0  0  0  0  0  0  0  0  0  0
   21.0947   -4.7907  -20.3725 C   0  0  1  0  0  0  0  0  0  0  0  0
   21.2577   -6.2181  -20.8417 C   0  0  0  0  0  0  0  0  0  0  0  0
   21.1521   -6.1992  -22.3266 C   0  0  0  0  0  0  0  0  0  0  0  0
   22.1433   -6.5599  -23.2373 C   0  0  0  0  0  0  0  0  0  0  0  0
   21.6983   -6.4185  -24.4927 N   0  0  0  0  0  0  0  0  0  0  0  0
   20.4253   -5.9682  -24.3795 C   0  0  0  0  0  0  0  0  0  0  0  0
   20.0986   -5.8371  -23.0785 N   0  0  0  0  0  0  0  0  0  0  0  0
   20.8463   -4.7298  -18.9114 C   0  0  0  0  0  0  0  0  0  0  0  0
   21.7937   -4.8237  -18.0730 O   0  0  0  0  0  0  0  0  0  0  0  0
   18.4792   -0.7537  -16.6139 C   0  0  0  0  0  0  0  0  0  0  0  0
   19.2936   -1.9767  -16.8428 C   0  0  0  0  0  0  0  0  0  0  0  0
   18.5623   -3.2540  -16.7030 C   0  0  2  0  0  0  0  0  0  0  0  0
   17.8761   -3.3421  -15.3328 C   0  0  0  0  0  0  0  0  0  0  0  0
   19.2910   -4.5234  -16.9234 C   0  0  2  0  0  0  0  0  0  0  0  0
   19.5501   -4.5653  -18.3888 N   0  0  0  0  0  0  0  0  0  0  0  0
   18.4786   -5.7594  -16.6496 C   0  0  0  0  0  0  0  0  0  0  0  0
   17.4081   -5.9643  -17.3030 O   0  0  0  0  0  0  0  0  0  0  0  0
   15.9848  -13.9160  -15.0245 O   0  0  0  0  0  0  0  0  0  0  0  0
   16.6581  -12.7443  -15.2811 C   0  0  0  0  0  0  0  0  0  0  0  0
   15.9466  -11.7262  -15.8965 C   0  0  0  0  0  0  0  0  0  0  0  0
   16.5905  -10.5406  -16.1675 C   0  0  0  0  0  0  0  0  0  0  0  0
   17.9164  -10.3777  -15.8301 C   0  0  0  0  0  0  0  0  0  0  0  0
   18.5676   -9.1074  -16.1323 C   0  0  0  0  0  0  0  0  0  0  0  0
   18.1367   -7.9254  -15.3434 C   0  0  2  0  0  0  0  0  0  0  0  0
   18.8560   -6.7224  -15.6855 N   0  0  0  0  0  0  0  0  0  0  0  0
   17.9478   -8.1500  -13.8991 C   0  0  0  0  0  0  0  0  0  0  0  0
   18.8017   -7.6962  -13.0567 O   0  0  0  0  0  0  0  0  0  0  0  0
   18.6105  -11.3841  -15.2245 C   0  0  0  0  0  0  0  0  0  0  0  0
   17.9776  -12.5751  -14.9481 C   0  0  0  0  0  0  0  0  0  0  0  0
   16.8947   -8.8373  -13.3194 O   0  0  0  0  0  0  0  0  0  0  0  0
  2  1  1  1
  3  4  1  0
  3  2  1  0
  4  8  1  0
  4  5  2  0
  5  6  1  0
  7  6  1  0
  8  7  2  0
  9 16  1  0
  9  2  1  0
 10  9  2  0
 11 12  1  0
 13 12  1  0
 13 15  1  0
 13 14  1  1
 15 16  1  6
 17 15  1  0
 18 17  2  0
 20 19  1  0
 20 30  2  0
 21 20  1  0
 22 21  2  0
 22 23  1  0
 23 29  2  0
 24 23  1  0
 25 26  1  0
 25 24  1  1
 26 17  1  0
 27 25  1  0
 28 27  2  0
 29 30  1  0
 31 27  1  0
M  END
$$$$
