HIY.pdb
     RDKit          3D

 31 32  0  0  1  0  0  0  0  0999 V2000
   26.9561  -18.6768  -17.1562 N   0  0  0  0  0  0  0  0  0  0  0  0
   26.1166  -18.2945  -16.0406 C   0  0  1  0  0  0  0  0  0  0  0  0
   24.9648  -17.4960  -16.6064 C   0  0  0  0  0  0  0  0  0  0  0  0
   25.4743  -16.1192  -16.8538 C   0  0  0  0  0  0  0  0  0  0  0  0
   26.6235  -15.5461  -16.3126 C   0  0  0  0  0  0  0  0  0  0  0  0
   26.7724  -14.2907  -16.7551 N   0  0  0  0  0  0  0  0  0  0  0  0
   25.7184  -14.0665  -17.5766 C   0  0  0  0  0  0  0  0  0  0  0  0
   24.9399  -15.1651  -17.6350 N   0  0  0  0  0  0  0  0  0  0  0  0
   25.6385  -19.5315  -15.3761 C   0  0  0  0  0  0  0  0  0  0  0  0
   25.3679  -20.5786  -16.0392 O   0  0  0  0  0  0  0  0  0  0  0  0
   28.1378  -21.2013  -11.0745 C   0  0  0  0  0  0  0  0  0  0  0  0
   27.3319  -21.1264  -12.3220 C   0  0  0  0  0  0  0  0  0  0  0  0
   25.8744  -20.9808  -12.1208 C   0  0  2  0  0  0  0  0  0  0  0  0
   25.3246  -22.1310  -11.2660 C   0  0  0  0  0  0  0  0  0  0  0  0
   24.9989  -20.8431  -13.3062 C   0  0  2  0  0  0  0  0  0  0  0  0
   25.4633  -19.6002  -13.9815 N   0  0  0  0  0  0  0  0  0  0  0  0
   23.5543  -20.5775  -12.9816 C   0  0  0  0  0  0  0  0  0  0  0  0
   23.2529  -19.6312  -12.1887 O   0  0  0  0  0  0  0  0  0  0  0  0
   21.1563  -15.1351  -15.2731 O   0  0  0  0  0  0  0  0  0  0  0  0
   20.9852  -16.4857  -15.0773 C   0  0  0  0  0  0  0  0  0  0  0  0
   19.9938  -16.8770  -14.1909 C   0  0  0  0  0  0  0  0  0  0  0  0
   19.7962  -18.2212  -13.9720 C   0  0  0  0  0  0  0  0  0  0  0  0
   20.5734  -19.1526  -14.6256 C   0  0  0  0  0  0  0  0  0  0  0  0
   20.3366  -20.5695  -14.3695 C   0  0  0  0  0  0  0  0  0  0  0  0
   21.0898  -21.1859  -13.2479 C   0  0  2  0  0  0  0  0  0  0  0  0
   22.4968  -21.3411  -13.5273 N   0  0  0  0  0  0  0  0  0  0  0  0
   20.4497  -22.3470  -12.6044 C   0  0  0  0  0  0  0  0  0  0  0  0
   20.8837  -23.5326  -12.8303 O   0  0  0  0  0  0  0  0  0  0  0  0
   21.5473  -18.7603  -15.4966 C   0  0  0  0  0  0  0  0  0  0  0  0
   21.7548  -17.4184  -15.7242 C   0  0  0  0  0  0  0  0  0  0  0  0
   19.3704  -22.2975  -11.7384 O   0  0  0  0  0  0  0  0  0  0  0  0
  2  1  1  6
  3  4  1  0
  3  2  1  0
  4  8  1  0
  4  5  2  0
  5  6  1  0
  7  6  1  0
  8  7  2  0
  9 16  1  0
  9  2  1  0
 10  9  2  0
 11 12  1  0
 13 12  1  0
 13 15  1  0
 13 14  1  6
 15 16  1  6
 17 15  1  0
 18 17  2  0
 20 19  1  0
 20 30  2  0
 21 20  1  0
 22 21  2  0
 22 23  1  0
 23 29  2  0
 24 23  1  0
 25 26  1  0
 25 24  1  6
 26 17  1  0
 27 25  1  0
 28 27  2  0
 29 30  1  0
 31 27  1  0
M  END
$$$$
