HIY.pdb
     RDKit          3D

 31 32  0  0  1  0  0  0  0  0999 V2000
   24.0042  -15.8842  -20.1133 N   0  0  0  0  0  0  0  0  0  0  0  0
   22.8860  -14.9698  -20.2070 C   0  0  1  0  0  0  0  0  0  0  0  0
   21.8585  -15.4216  -19.1950 C   0  0  0  0  0  0  0  0  0  0  0  0
   21.3432  -16.7383  -19.6612 C   0  0  0  0  0  0  0  0  0  0  0  0
   20.5671  -16.9757  -20.7940 C   0  0  0  0  0  0  0  0  0  0  0  0
   20.2863  -18.2808  -20.9028 N   0  0  0  0  0  0  0  0  0  0  0  0
   20.8837  -18.8719  -19.8398 C   0  0  0  0  0  0  0  0  0  0  0  0
   21.5178  -17.9447  -19.0952 N   0  0  0  0  0  0  0  0  0  0  0  0
   23.3780  -13.6043  -19.9013 C   0  0  0  0  0  0  0  0  0  0  0  0
   24.3379  -13.4101  -19.0949 O   0  0  0  0  0  0  0  0  0  0  0  0
   23.7375  -10.7492  -24.0690 C   0  0  0  0  0  0  0  0  0  0  0  0
   24.2234  -10.9534  -22.6784 C   0  0  0  0  0  0  0  0  0  0  0  0
   23.3180  -10.4624  -21.6178 C   0  0  2  0  0  0  0  0  0  0  0  0
   23.4831   -8.9496  -21.4176 C   0  0  0  0  0  0  0  0  0  0  0  0
   23.3670  -11.1007  -20.2832 C   0  0  2  0  0  0  0  0  0  0  0  0
   22.8034  -12.4629  -20.4907 N   0  0  0  0  0  0  0  0  0  0  0  0
   22.4606  -10.4702  -19.2616 C   0  0  0  0  0  0  0  0  0  0  0  0
   21.2541  -10.8581  -19.1686 O   0  0  0  0  0  0  0  0  0  0  0  0
   18.7533   -8.0584  -11.9417 O   0  0  0  0  0  0  0  0  0  0  0  0
   19.4121   -8.5051  -13.0634 C   0  0  0  0  0  0  0  0  0  0  0  0
   20.7108   -8.9601  -12.8966 C   0  0  0  0  0  0  0  0  0  0  0  0
   21.3985   -9.4141  -13.9987 C   0  0  0  0  0  0  0  0  0  0  0  0
   20.7998   -9.4128  -15.2397 C   0  0  0  0  0  0  0  0  0  0  0  0
   21.5584   -9.9010  -16.3865 C   0  0  0  0  0  0  0  0  0  0  0  0
   22.1435   -8.8791  -17.2912 C   0  0  2  0  0  0  0  0  0  0  0  0
   22.8941   -9.4510  -18.3827 N   0  0  0  0  0  0  0  0  0  0  0  0
   22.7816   -7.7258  -16.6319 C   0  0  0  0  0  0  0  0  0  0  0  0
   22.0637   -6.8137  -16.0864 O   0  0  0  0  0  0  0  0  0  0  0  0
   19.5212   -8.9635  -15.3966 C   0  0  0  0  0  0  0  0  0  0  0  0
   18.8226   -8.5067  -14.3016 C   0  0  0  0  0  0  0  0  0  0  0  0
   24.1449   -7.5040  -16.5337 O   0  0  0  0  0  0  0  0  0  0  0  0
  2  1  1  1
  3  4  1  0
  3  2  1  0
  4  8  1  0
  4  5  2  0
  5  6  1  0
  7  6  1  0
  8  7  2  0
  9 16  1  0
  9  2  1  0
 10  9  2  0
 11 12  1  0
 13 12  1  0
 13 15  1  0
 13 14  1  1
 15 16  1  6
 17 15  1  0
 18 17  2  0
 20 19  1  0
 20 30  2  0
 21 20  1  0
 22 21  2  0
 22 23  1  0
 23 29  2  0
 24 23  1  0
 25 26  1  0
 25 24  1  1
 26 17  1  0
 27 25  1  0
 28 27  2  0
 29 30  1  0
 31 27  1  0
M  END
$$$$
