HIY.pdb
     RDKit          3D

 31 32  0  0  1  0  0  0  0  0999 V2000
   26.6729  -12.2594  -22.0155 N   0  0  0  0  0  0  0  0  0  0  0  0
   25.6395  -11.2508  -21.9149 C   0  0  1  0  0  0  0  0  0  0  0  0
   24.3864  -11.9470  -21.4361 C   0  0  0  0  0  0  0  0  0  0  0  0
   23.9123  -12.8028  -22.5583 C   0  0  0  0  0  0  0  0  0  0  0  0
   23.2842  -12.3736  -23.7259 C   0  0  0  0  0  0  0  0  0  0  0  0
   22.9970  -13.4185  -24.5131 N   0  0  0  0  0  0  0  0  0  0  0  0
   23.4422  -14.5106  -23.8459 C   0  0  0  0  0  0  0  0  0  0  0  0
   23.9915  -14.1395  -22.6725 N   0  0  0  0  0  0  0  0  0  0  0  0
   26.0886  -10.2234  -20.9440 C   0  0  0  0  0  0  0  0  0  0  0  0
   26.8310  -10.5207  -19.9592 O   0  0  0  0  0  0  0  0  0  0  0  0
   28.1550   -4.7186  -21.4587 C   0  0  0  0  0  0  0  0  0  0  0  0
   27.4293   -5.5913  -20.4979 C   0  0  0  0  0  0  0  0  0  0  0  0
   26.9717   -6.8857  -21.0464 C   0  0  2  0  0  0  0  0  0  0  0  0
   26.1195   -6.6734  -22.3053 C   0  0  0  0  0  0  0  0  0  0  0  0
   26.2408   -7.8197  -20.1608 C   0  0  2  0  0  0  0  0  0  0  0  0
   25.7122   -8.8733  -21.0702 N   0  0  0  0  0  0  0  0  0  0  0  0
   25.0163   -7.2310  -19.5154 C   0  0  0  0  0  0  0  0  0  0  0  0
   23.9409   -7.1305  -20.1848 O   0  0  0  0  0  0  0  0  0  0  0  0
   18.9150   -5.2799  -13.5802 O   0  0  0  0  0  0  0  0  0  0  0  0
   20.0720   -5.6709  -14.2129 C   0  0  0  0  0  0  0  0  0  0  0  0
   19.9427   -6.5103  -15.3085 C   0  0  0  0  0  0  0  0  0  0  0  0
   21.0808   -6.9204  -15.9645 C   0  0  0  0  0  0  0  0  0  0  0  0
   22.3201   -6.4999  -15.5336 C   0  0  0  0  0  0  0  0  0  0  0  0
   23.5057   -6.9545  -16.2527 C   0  0  0  0  0  0  0  0  0  0  0  0
   23.8828   -6.1993  -17.4744 C   0  0  2  0  0  0  0  0  0  0  0  0
   25.0027   -6.7785  -18.1759 N   0  0  0  0  0  0  0  0  0  0  0  0
   23.9235   -4.7325  -17.3372 C   0  0  0  0  0  0  0  0  0  0  0  0
   25.0130   -4.1439  -17.0034 O   0  0  0  0  0  0  0  0  0  0  0  0
   22.4399   -5.6738  -14.4545 C   0  0  0  0  0  0  0  0  0  0  0  0
   21.3088   -5.2564  -13.7897 C   0  0  0  0  0  0  0  0  0  0  0  0
   22.8565   -3.8726  -17.5362 O   0  0  0  0  0  0  0  0  0  0  0  0
  2  1  1  1
  3  4  1  0
  3  2  1  0
  4  8  1  0
  4  5  2  0
  5  6  1  0
  7  6  1  0
  8  7  2  0
  9 16  1  0
  9  2  1  0
 10  9  2  0
 11 12  1  0
 13 12  1  0
 13 15  1  0
 13 14  1  6
 15 16  1  6
 17 15  1  0
 18 17  2  0
 20 19  1  0
 20 30  2  0
 21 20  1  0
 22 21  2  0
 22 23  1  0
 23 29  2  0
 24 23  1  0
 25 26  1  0
 25 24  1  1
 26 17  1  0
 27 25  1  0
 28 27  2  0
 29 30  1  0
 31 27  1  0
M  END
$$$$
