HIY.pdb
     RDKit          3D

 31 32  0  0  1  0  0  0  0  0999 V2000
   17.9552  -10.0900  -14.5722 N   0  0  0  0  0  0  0  0  0  0  0  0
   16.7586   -9.6596  -13.8807 C   0  0  1  0  0  0  0  0  0  0  0  0
   16.4400  -10.7157  -12.8476 C   0  0  0  0  0  0  0  0  0  0  0  0
   15.9080  -11.8945  -13.5852 C   0  0  0  0  0  0  0  0  0  0  0  0
   14.7399  -11.9454  -14.3434 C   0  0  0  0  0  0  0  0  0  0  0  0
   14.5736  -13.1683  -14.8638 N   0  0  0  0  0  0  0  0  0  0  0  0
   15.6354  -13.8937  -14.4365 C   0  0  0  0  0  0  0  0  0  0  0  0
   16.4357  -13.1277  -13.6689 N   0  0  0  0  0  0  0  0  0  0  0  0
   17.0386   -8.3501  -13.2426 C   0  0  0  0  0  0  0  0  0  0  0  0
   18.1198   -8.1358  -12.6147 O   0  0  0  0  0  0  0  0  0  0  0  0
   16.9183   -4.1486  -16.1189 C   0  0  0  0  0  0  0  0  0  0  0  0
   17.2823   -4.9464  -14.9180 C   0  0  0  0  0  0  0  0  0  0  0  0
   16.2466   -5.0048  -13.8646 C   0  0  2  0  0  0  0  0  0  0  0  0
   15.9905   -3.6114  -13.2741 C   0  0  0  0  0  0  0  0  0  0  0  0
   16.4262   -5.9455  -12.7360 C   0  0  2  0  0  0  0  0  0  0  0  0
   16.1190   -7.2868  -13.3043 N   0  0  0  0  0  0  0  0  0  0  0  0
   15.4312   -5.7724  -11.6212 C   0  0  0  0  0  0  0  0  0  0  0  0
   14.1896   -5.8910  -11.8642 O   0  0  0  0  0  0  0  0  0  0  0  0
   11.5259  -10.6333   -9.2768 O   0  0  0  0  0  0  0  0  0  0  0  0
   12.4010   -9.6039   -9.0192 C   0  0  0  0  0  0  0  0  0  0  0  0
   11.8576   -8.4013   -8.5949 C   0  0  0  0  0  0  0  0  0  0  0  0
   12.7054   -7.3507   -8.3283 C   0  0  0  0  0  0  0  0  0  0  0  0
   14.0664   -7.5004   -8.4830 C   0  0  0  0  0  0  0  0  0  0  0  0
   14.9359   -6.3654   -8.1916 C   0  0  0  0  0  0  0  0  0  0  0  0
   14.9382   -5.2499   -9.1720 C   0  0  2  0  0  0  0  0  0  0  0  0
   15.8172   -5.4816  -10.2924 N   0  0  0  0  0  0  0  0  0  0  0  0
   14.9987   -3.8923   -8.6017 C   0  0  0  0  0  0  0  0  0  0  0  0
   15.9872   -3.1209   -8.8713 O   0  0  0  0  0  0  0  0  0  0  0  0
   14.5944   -8.6869   -8.9010 C   0  0  0  0  0  0  0  0  0  0  0  0
   13.7566   -9.7456   -9.1709 C   0  0  0  0  0  0  0  0  0  0  0  0
   14.0569   -3.3277   -7.7582 O   0  0  0  0  0  0  0  0  0  0  0  0
  2  1  1  1
  3  4  1  0
  3  2  1  0
  4  8  1  0
  4  5  2  0
  5  6  1  0
  7  6  1  0
  8  7  2  0
  9 16  1  0
  9  2  1  0
 10  9  2  0
 11 12  1  0
 13 12  1  0
 13 15  1  0
 13 14  1  1
 15 16  1  6
 17 15  1  0
 18 17  2  0
 20 19  1  0
 20 30  2  0
 21 20  1  0
 22 21  2  0
 22 23  1  0
 23 29  2  0
 24 23  1  0
 25 26  1  0
 25 24  1  1
 26 17  1  0
 27 25  1  0
 28 27  2  0
 29 30  1  0
 31 27  1  0
M  END
$$$$
