HIY.pdb
     RDKit          3D

 31 32  0  0  1  0  0  0  0  0999 V2000
   23.4782  -14.6155  -18.9899 N   0  0  0  0  0  0  0  0  0  0  0  0
   23.5280  -13.2217  -19.3774 C   0  0  1  0  0  0  0  0  0  0  0  0
   22.3347  -12.9671  -20.2692 C   0  0  0  0  0  0  0  0  0  0  0  0
   22.5876  -13.6902  -21.5458 C   0  0  0  0  0  0  0  0  0  0  0  0
   21.8613  -14.7665  -22.0519 C   0  0  0  0  0  0  0  0  0  0  0  0
   22.3720  -15.1647  -23.2244 N   0  0  0  0  0  0  0  0  0  0  0  0
   23.4220  -14.3420  -23.4628 C   0  0  0  0  0  0  0  0  0  0  0  0
   23.5502  -13.4572  -22.4542 N   0  0  0  0  0  0  0  0  0  0  0  0
   23.4654  -12.3966  -18.1464 C   0  0  0  0  0  0  0  0  0  0  0  0
   22.6994  -12.7010  -17.1820 O   0  0  0  0  0  0  0  0  0  0  0  0
   27.6843  -11.2818  -15.4881 C   0  0  0  0  0  0  0  0  0  0  0  0
   26.2582  -11.4799  -15.8602 C   0  0  0  0  0  0  0  0  0  0  0  0
   25.5448  -10.2580  -16.2886 C   0  0  2  0  0  0  0  0  0  0  0  0
   25.5553   -9.2019  -15.1747 C   0  0  0  0  0  0  0  0  0  0  0  0
   24.1545  -10.3772  -16.7822 C   0  0  2  0  0  0  0  0  0  0  0  0
   24.2515  -11.2398  -17.9918 N   0  0  0  0  0  0  0  0  0  0  0  0
   23.5634   -9.0887  -17.2855 C   0  0  0  0  0  0  0  0  0  0  0  0
   23.9335   -8.6253  -18.4094 O   0  0  0  0  0  0  0  0  0  0  0  0
   18.7432   -2.8540  -20.4663 O   0  0  0  0  0  0  0  0  0  0  0  0
   19.3704   -3.9696  -19.9625 C   0  0  0  0  0  0  0  0  0  0  0  0
   20.7124   -3.8495  -19.6368 C   0  0  0  0  0  0  0  0  0  0  0  0
   21.3702   -4.9469  -19.1302 C   0  0  0  0  0  0  0  0  0  0  0  0
   20.6998   -6.1377  -18.9535 C   0  0  0  0  0  0  0  0  0  0  0  0
   21.4284   -7.2811  -18.4142 C   0  0  0  0  0  0  0  0  0  0  0  0
   21.8895   -7.1823  -17.0061 C   0  0  2  0  0  0  0  0  0  0  0  0
   22.5974   -8.3568  -16.5575 N   0  0  0  0  0  0  0  0  0  0  0  0
   20.9129   -6.6377  -16.0460 C   0  0  0  0  0  0  0  0  0  0  0  0
   20.1323   -7.4245  -15.4007 O   0  0  0  0  0  0  0  0  0  0  0  0
   19.3789   -6.2488  -19.2762 C   0  0  0  0  0  0  0  0  0  0  0  0
   18.7096   -5.1580  -19.7840 C   0  0  0  0  0  0  0  0  0  0  0  0
   20.7324   -5.2971  -15.7499 O   0  0  0  0  0  0  0  0  0  0  0  0
  2  1  1  1
  3  4  1  0
  3  2  1  0
  4  8  1  0
  4  5  2  0
  5  6  1  0
  7  6  1  0
  8  7  2  0
  9 16  1  0
  9  2  1  0
 10  9  2  0
 11 12  1  0
 13 12  1  0
 13 15  1  0
 13 14  1  1
 15 16  1  6
 17 15  1  0
 18 17  2  0
 20 19  1  0
 20 30  2  0
 21 20  1  0
 22 21  2  0
 22 23  1  0
 23 29  2  0
 24 23  1  0
 25 26  1  0
 25 24  1  6
 26 17  1  0
 27 25  1  0
 28 27  2  0
 29 30  1  0
 31 27  1  0
M  END
$$$$
