HIY.pdb
     RDKit          3D

 31 32  0  0  1  0  0  0  0  0999 V2000
   26.7579  -17.5235  -16.5848 N   0  0  0  0  0  0  0  0  0  0  0  0
   25.8763  -17.4837  -15.4374 C   0  0  1  0  0  0  0  0  0  0  0  0
   24.5737  -16.8733  -15.9008 C   0  0  0  0  0  0  0  0  0  0  0  0
   24.7780  -15.3991  -15.9415 C   0  0  0  0  0  0  0  0  0  0  0  0
   25.6853  -14.6623  -15.1827 C   0  0  0  0  0  0  0  0  0  0  0  0
   25.5945  -13.3597  -15.4811 N   0  0  0  0  0  0  0  0  0  0  0  0
   24.6302  -13.2692  -16.4287 C   0  0  0  0  0  0  0  0  0  0  0  0
   24.1408  -14.4944  -16.7042 N   0  0  0  0  0  0  0  0  0  0  0  0
   25.6785  -18.8731  -14.9573 C   0  0  0  0  0  0  0  0  0  0  0  0
   25.5656  -19.8445  -15.7653 O   0  0  0  0  0  0  0  0  0  0  0  0
   28.9919  -20.7579  -11.5127 C   0  0  0  0  0  0  0  0  0  0  0  0
   27.9606  -20.6159  -12.5745 C   0  0  0  0  0  0  0  0  0  0  0  0
   26.5619  -20.7458  -12.1136 C   0  0  2  0  0  0  0  0  0  0  0  0
   26.3453  -22.0877  -11.4006 C   0  0  0  0  0  0  0  0  0  0  0  0
   25.4666  -20.5759  -13.0946 C   0  0  2  0  0  0  0  0  0  0  0  0
   25.6072  -19.1773  -13.5852 N   0  0  0  0  0  0  0  0  0  0  0  0
   24.0869  -20.6282  -12.4975 C   0  0  0  0  0  0  0  0  0  0  0  0
   23.8866  -20.1501  -11.3373 O   0  0  0  0  0  0  0  0  0  0  0  0
   15.9983  -18.3214  -11.3177 O   0  0  0  0  0  0  0  0  0  0  0  0
   17.3053  -18.6087  -11.6355 C   0  0  0  0  0  0  0  0  0  0  0  0
   18.0398  -19.3293  -10.7066 C   0  0  0  0  0  0  0  0  0  0  0  0
   19.3508  -19.6336  -10.9934 C   0  0  0  0  0  0  0  0  0  0  0  0
   19.9139  -19.2259  -12.1830 C   0  0  0  0  0  0  0  0  0  0  0  0
   21.3068  -19.5659  -12.4541 C   0  0  0  0  0  0  0  0  0  0  0  0
   21.5870  -20.9560  -12.8948 C   0  0  2  0  0  0  0  0  0  0  0  0
   22.9823  -21.1909  -13.1774 N   0  0  0  0  0  0  0  0  0  0  0  0
   20.6472  -21.5205  -13.8797 C   0  0  0  0  0  0  0  0  0  0  0  0
   19.6543  -22.2336  -13.4917 O   0  0  0  0  0  0  0  0  0  0  0  0
   19.1852  -18.5169  -13.0927 C   0  0  0  0  0  0  0  0  0  0  0  0
   17.8724  -18.2062  -12.8175 C   0  0  0  0  0  0  0  0  0  0  0  0
   20.7236  -21.3606  -15.2531 O   0  0  0  0  0  0  0  0  0  0  0  0
  2  1  1  6
  3  4  1  0
  3  2  1  0
  4  8  1  0
  4  5  2  0
  5  6  1  0
  7  6  1  0
  8  7  2  0
  9 16  1  0
  9  2  1  0
 10  9  2  0
 11 12  1  0
 13 12  1  0
 13 15  1  0
 13 14  1  6
 15 16  1  1
 17 15  1  0
 18 17  2  0
 20 19  1  0
 20 30  2  0
 21 20  1  0
 22 21  2  0
 22 23  1  0
 23 29  2  0
 24 23  1  0
 25 26  1  0
 25 24  1  6
 26 17  1  0
 27 25  1  0
 28 27  2  0
 29 30  1  0
 31 27  1  0
M  END
$$$$
