SEK.pdb
     RDKit          3D

 25 24  0  0  1  0  0  0  0  0999 V2000
   14.3217  -10.0961  -14.5594 O   0  0  0  0  0  0  0  0  0  0  0  0
   15.3425  -10.1456  -15.5188 C   0  0  0  0  0  0  0  0  0  0  0  0
   16.4421  -11.0068  -14.9333 C   0  0  2  0  0  0  0  0  0  0  0  0
   15.9524  -12.2679  -14.4686 N   0  0  0  0  0  0  0  0  0  0  0  0
   17.0487  -10.2770  -13.7789 C   0  0  0  0  0  0  0  0  0  0  0  0
   16.9665  -10.7119  -12.6030 O   0  0  0  0  0  0  0  0  0  0  0  0
   17.7485   -9.0625  -13.9242 N   0  0  0  0  0  0  0  0  0  0  0  0
   18.4018   -8.4041  -12.8699 C   0  0  1  0  0  0  0  0  0  0  0  0
   19.6278   -7.6262  -13.1917 C   0  0  0  0  0  0  0  0  0  0  0  0
   20.2379   -7.0023  -11.9485 C   0  0  0  0  0  0  0  0  0  0  0  0
   21.3806   -6.1274  -12.2800 C   0  0  0  0  0  0  0  0  0  0  0  0
   21.9735   -5.5062  -11.3738 O   0  0  0  0  0  0  0  0  0  0  0  0
   17.4357   -7.5291  -12.1653 C   0  0  0  0  0  0  0  0  0  0  0  0
   16.7583   -6.7133  -12.8305 O   0  0  0  0  0  0  0  0  0  0  0  0
   21.8077   -5.9832  -13.5818 O   0  0  0  0  0  0  0  0  0  0  0  0
   17.2440   -7.5737  -10.7733 N   0  0  0  0  0  0  0  0  0  0  0  0
   16.3007   -6.7337  -10.0551 C   0  0  1  0  0  0  0  0  0  0  0  0
   15.2686   -7.6797   -9.4844 C   0  0  0  0  0  0  0  0  0  0  0  0
   14.1995   -7.0185   -8.6783 C   0  0  0  0  0  0  0  0  0  0  0  0
   13.2548   -8.1062   -8.2097 C   0  0  0  0  0  0  0  0  0  0  0  0
   12.1240   -7.5589   -7.3670 C   0  0  0  0  0  0  0  0  0  0  0  0
   11.2127   -8.5715   -6.9147 N   0  0  0  0  0  0  0  0  0  0  0  0
   16.9518   -5.8749   -9.0665 C   0  0  0  0  0  0  0  0  0  0  0  0
   18.0867   -6.1828   -8.6292 O   0  0  0  0  0  0  0  0  0  0  0  0
   16.3770   -4.7125   -8.5710 O   0  0  0  0  0  0  0  0  0  0  0  0
  1  2  1  0
  3  5  1  0
  3  2  1  0
  3  4  1  1
  5  6  2  0
  7  8  1  0
  7  5  1  0
  8  9  1  6
  9 10  1  0
 11 10  1  0
 11 12  2  0
 13  8  1  0
 14 13  2  0
 15 11  1  0
 16 13  1  0
 17 16  1  0
 18 19  1  0
 17 18  1  1
 19 20  1  0
 20 21  1  0
 21 22  1  0
 23 17  1  0
 23 25  1  0
 24 23  2  0
M  END
$$$$
