SEK.pdb
     RDKit          3D

 25 24  0  0  1  0  0  0  0  0999 V2000
   15.0310  -10.6802  -14.3516 O   0  0  0  0  0  0  0  0  0  0  0  0
   15.7475  -10.3236  -15.5024 C   0  0  0  0  0  0  0  0  0  0  0  0
   17.1782  -10.7635  -15.2722 C   0  0  2  0  0  0  0  0  0  0  0  0
   17.2780  -12.1665  -15.0123 N   0  0  0  0  0  0  0  0  0  0  0  0
   17.7158  -10.0213  -14.0918 C   0  0  0  0  0  0  0  0  0  0  0  0
   17.5671  -10.4455  -12.9185 O   0  0  0  0  0  0  0  0  0  0  0  0
   18.4201   -8.8063  -14.2081 N   0  0  0  0  0  0  0  0  0  0  0  0
   18.9328   -8.0904  -13.1142 C   0  0  1  0  0  0  0  0  0  0  0  0
   20.0842   -7.1815  -13.3585 C   0  0  0  0  0  0  0  0  0  0  0  0
   20.5737   -6.5390  -12.0722 C   0  0  0  0  0  0  0  0  0  0  0  0
   21.7240   -5.6441  -12.3109 C   0  0  0  0  0  0  0  0  0  0  0  0
   21.7264   -4.4908  -11.8329 O   0  0  0  0  0  0  0  0  0  0  0  0
   17.8365   -7.3317  -12.4680 C   0  0  0  0  0  0  0  0  0  0  0  0
   17.1022   -6.6051  -13.1749 O   0  0  0  0  0  0  0  0  0  0  0  0
   22.8035   -6.0623  -13.0577 O   0  0  0  0  0  0  0  0  0  0  0  0
   17.5815   -7.3911  -11.0868 N   0  0  0  0  0  0  0  0  0  0  0  0
   16.5413   -6.6281  -10.4183 C   0  0  1  0  0  0  0  0  0  0  0  0
   15.6029   -7.6548   -9.8258 C   0  0  0  0  0  0  0  0  0  0  0  0
   14.4848   -7.0809   -9.0193 C   0  0  0  0  0  0  0  0  0  0  0  0
   13.6805   -8.2449   -8.4773 C   0  0  0  0  0  0  0  0  0  0  0  0
   12.4676   -7.7888   -7.6966 C   0  0  0  0  0  0  0  0  0  0  0  0
   11.7072   -8.8744   -7.1456 N   0  0  0  0  0  0  0  0  0  0  0  0
   17.0790   -5.6675   -9.4554 C   0  0  0  0  0  0  0  0  0  0  0  0
   18.2408   -5.8223   -9.0080 O   0  0  0  0  0  0  0  0  0  0  0  0
   16.3653   -4.5693   -8.9956 O   0  0  0  0  0  0  0  0  0  0  0  0
  1  2  1  0
  3  5  1  0
  3  2  1  0
  3  4  1  1
  5  6  2  0
  7  8  1  0
  7  5  1  0
  8  9  1  6
  9 10  1  0
 11 10  1  0
 11 12  2  0
 13  8  1  0
 14 13  2  0
 15 11  1  0
 16 13  1  0
 17 16  1  0
 18 19  1  0
 17 18  1  1
 19 20  1  0
 20 21  1  0
 21 22  1  0
 23 17  1  0
 23 25  1  0
 24 23  2  0
M  END
$$$$
