SEK.pdb
     RDKit          3D

 25 24  0  0  1  0  0  0  0  0999 V2000
   22.9427   -8.9104  -13.3887 O   0  0  0  0  0  0  0  0  0  0  0  0
   21.8939   -8.0636  -13.0043 C   0  0  0  0  0  0  0  0  0  0  0  0
   21.0879   -7.7817  -14.2550 C   0  0  2  0  0  0  0  0  0  0  0  0
   21.7150   -6.8088  -15.0953 N   0  0  0  0  0  0  0  0  0  0  0  0
   19.7473   -7.2638  -13.8454 C   0  0  0  0  0  0  0  0  0  0  0  0
   19.4741   -6.0377  -13.8726 O   0  0  0  0  0  0  0  0  0  0  0  0
   18.7050   -8.1033  -13.4044 N   0  0  0  0  0  0  0  0  0  0  0  0
   17.4023   -7.6565  -13.1301 C   0  0  1  0  0  0  0  0  0  0  0  0
   16.2892   -8.2289  -13.9332 C   0  0  0  0  0  0  0  0  0  0  0  0
   16.3693   -7.7996  -15.3879 C   0  0  0  0  0  0  0  0  0  0  0  0
   15.3110   -8.4290  -16.2032 C   0  0  0  0  0  0  0  0  0  0  0  0
   15.4616   -9.5928  -16.6294 O   0  0  0  0  0  0  0  0  0  0  0  0
   17.1141   -7.8422  -11.6887 C   0  0  0  0  0  0  0  0  0  0  0  0
   17.6349   -8.8071  -11.0848 O   0  0  0  0  0  0  0  0  0  0  0  0
   14.1510   -7.7498  -16.5045 O   0  0  0  0  0  0  0  0  0  0  0  0
   16.2760   -6.9776  -10.9630 N   0  0  0  0  0  0  0  0  0  0  0  0
   15.8458   -7.2195   -9.5964 C   0  0  1  0  0  0  0  0  0  0  0  0
   15.1708   -5.9418   -9.1519 C   0  0  0  0  0  0  0  0  0  0  0  0
   14.6233   -5.9802   -7.7631 C   0  0  0  0  0  0  0  0  0  0  0  0
   14.0477   -4.6095   -7.4708 C   0  0  0  0  0  0  0  0  0  0  0  0
   13.5007   -4.5060   -6.0642 C   0  0  0  0  0  0  0  0  0  0  0  0
   13.0479   -3.1860   -5.7279 N   0  0  0  0  0  0  0  0  0  0  0  0
   15.0197   -8.4198   -9.4709 C   0  0  0  0  0  0  0  0  0  0  0  0
   14.2290   -8.7277  -10.3949 O   0  0  0  0  0  0  0  0  0  0  0  0
   15.0583   -9.2588   -8.3656 O   0  0  0  0  0  0  0  0  0  0  0  0
  1  2  1  0
  3  5  1  0
  3  2  1  0
  3  4  1  6
  5  6  2  0
  7  8  1  0
  7  5  1  0
  8  9  1  6
  9 10  1  0
 11 10  1  0
 11 12  2  0
 13  8  1  0
 14 13  2  0
 15 11  1  0
 16 13  1  0
 17 16  1  0
 18 19  1  0
 17 18  1  6
 19 20  1  0
 20 21  1  0
 21 22  1  0
 23 17  1  0
 23 25  1  0
 24 23  2  0
M  END
$$$$
