SEK.pdb
     RDKit          3D

 25 24  0  0  1  0  0  0  0  0999 V2000
   13.4346  -11.7872  -12.1736 O   0  0  0  0  0  0  0  0  0  0  0  0
   13.9946  -10.6299  -11.6151 C   0  0  0  0  0  0  0  0  0  0  0  0
   15.4945  -10.8386  -11.6065 C   0  0  2  0  0  0  0  0  0  0  0  0
   15.8807  -11.9583  -10.8044 N   0  0  0  0  0  0  0  0  0  0  0  0
   16.1386   -9.6100  -11.0505 C   0  0  0  0  0  0  0  0  0  0  0  0
   16.1152   -9.3478   -9.8220 O   0  0  0  0  0  0  0  0  0  0  0  0
   16.8107   -8.6681  -11.8547 N   0  0  0  0  0  0  0  0  0  0  0  0
   17.4059   -7.4972  -11.3580 C   0  0  1  0  0  0  0  0  0  0  0  0
   18.5415   -6.9179  -12.1239 C   0  0  0  0  0  0  0  0  0  0  0  0
   19.7666   -7.8142  -12.0736 C   0  0  0  0  0  0  0  0  0  0  0  0
   20.8418   -7.3213  -12.9579 C   0  0  0  0  0  0  0  0  0  0  0  0
   21.1106   -7.9325  -14.0128 O   0  0  0  0  0  0  0  0  0  0  0  0
   16.3640   -6.4616  -11.1657 C   0  0  0  0  0  0  0  0  0  0  0  0
   15.4875   -6.3112  -12.0467 O   0  0  0  0  0  0  0  0  0  0  0  0
   21.5595   -6.1900  -12.6373 O   0  0  0  0  0  0  0  0  0  0  0  0
   16.3145   -5.6339  -10.0304 N   0  0  0  0  0  0  0  0  0  0  0  0
   15.2656   -4.6605   -9.7789 C   0  0  1  0  0  0  0  0  0  0  0  0
   14.7248   -4.9929   -8.4067 C   0  0  0  0  0  0  0  0  0  0  0  0
   13.6829   -4.0480   -7.9049 C   0  0  0  0  0  0  0  0  0  0  0  0
   13.3639   -4.4495   -6.4793 C   0  0  0  0  0  0  0  0  0  0  0  0
   12.3107   -3.5603   -5.8558 C   0  0  0  0  0  0  0  0  0  0  0  0
   12.0075   -3.9082   -4.4966 N   0  0  0  0  0  0  0  0  0  0  0  0
   15.7289   -3.2819   -9.9329 C   0  0  0  0  0  0  0  0  0  0  0  0
   16.9581   -3.0333   -9.8978 O   0  0  0  0  0  0  0  0  0  0  0  0
   14.8713   -2.2065  -10.1198 O   0  0  0  0  0  0  0  0  0  0  0  0
  1  2  1  0
  3  5  1  0
  3  2  1  0
  3  4  1  1
  5  6  2  0
  7  8  1  0
  7  5  1  0
  8  9  1  6
  9 10  1  0
 11 10  1  0
 11 12  2  0
 13  8  1  0
 14 13  2  0
 15 11  1  0
 16 13  1  0
 17 16  1  0
 18 19  1  0
 17 18  1  1
 19 20  1  0
 20 21  1  0
 21 22  1  0
 23 17  1  0
 23 25  1  0
 24 23  2  0
M  END
$$$$
