SEK.pdb
     RDKit          3D

 25 24  0  0  1  0  0  0  0  0999 V2000
   16.7141  -25.3466  -10.4595 O   0  0  0  0  0  0  0  0  0  0  0  0
   17.1066  -24.6555   -9.3049 C   0  0  0  0  0  0  0  0  0  0  0  0
   18.5930  -24.8964   -9.1435 C   0  0  2  0  0  0  0  0  0  0  0  0
   19.1757  -25.4851  -10.3096 N   0  0  0  0  0  0  0  0  0  0  0  0
   18.7982  -25.8231   -7.9892 C   0  0  0  0  0  0  0  0  0  0  0  0
   19.7807  -26.6042   -7.9331 O   0  0  0  0  0  0  0  0  0  0  0  0
   17.9148  -25.8869   -6.8932 N   0  0  0  0  0  0  0  0  0  0  0  0
   18.1338  -26.6811   -5.7560 C   0  0  1  0  0  0  0  0  0  0  0  0
   17.5243  -26.2390   -4.4735 C   0  0  0  0  0  0  0  0  0  0  0  0
   17.9622  -27.1160   -3.3133 C   0  0  0  0  0  0  0  0  0  0  0  0
   17.3590  -26.6780   -2.0384 C   0  0  0  0  0  0  0  0  0  0  0  0
   16.1441  -26.3947   -1.9884 O   0  0  0  0  0  0  0  0  0  0  0  0
   17.7175  -28.0737   -6.0434 C   0  0  0  0  0  0  0  0  0  0  0  0
   16.6755  -28.2709   -6.7083 O   0  0  0  0  0  0  0  0  0  0  0  0
   18.1188  -26.5755   -0.8938 O   0  0  0  0  0  0  0  0  0  0  0  0
   18.4450  -29.1920   -5.5999 N   0  0  0  0  0  0  0  0  0  0  0  0
   18.1157  -30.5647   -5.9437 C   0  0  1  0  0  0  0  0  0  0  0  0
   19.3862  -31.1564   -6.5108 C   0  0  0  0  0  0  0  0  0  0  0  0
   19.2879  -31.5848   -7.9379 C   0  0  0  0  0  0  0  0  0  0  0  0
   20.6577  -32.0832   -8.3510 C   0  0  0  0  0  0  0  0  0  0  0  0
   20.9811  -31.7436   -9.7893 C   0  0  0  0  0  0  0  0  0  0  0  0
   22.3345  -32.0528  -10.1542 N   0  0  0  0  0  0  0  0  0  0  0  0
   17.5487  -31.3061   -4.8177 C   0  0  0  0  0  0  0  0  0  0  0  0
   17.9384  -31.0562   -3.6516 O   0  0  0  0  0  0  0  0  0  0  0  0
   16.5830  -32.2925   -4.9641 O   0  0  0  0  0  0  0  0  0  0  0  0
  1  2  1  0
  3  5  1  0
  3  2  1  0
  3  4  1  6
  5  6  2  0
  7  8  1  0
  7  5  1  0
  8  9  1  1
  9 10  1  0
 11 10  1  0
 11 12  2  0
 13  8  1  0
 14 13  2  0
 15 11  1  0
 16 13  1  0
 17 16  1  0
 18 19  1  0
 17 18  1  1
 19 20  1  0
 20 21  1  0
 21 22  1  0
 23 17  1  0
 23 25  1  0
 24 23  2  0
M  END
$$$$
