SEK.pdb
     RDKit          3D

 25 24  0  0  1  0  0  0  0  0999 V2000
   15.9087  -11.6004  -16.9876 O   0  0  0  0  0  0  0  0  0  0  0  0
   16.0398  -10.4117  -16.2563 C   0  0  0  0  0  0  0  0  0  0  0  0
   17.4707  -10.3657  -15.7626 C   0  0  2  0  0  0  0  0  0  0  0  0
   17.7663  -11.4348  -14.8594 N   0  0  0  0  0  0  0  0  0  0  0  0
   17.6827   -9.0689  -15.0509 C   0  0  0  0  0  0  0  0  0  0  0  0
   16.8295   -8.6026  -14.2551 O   0  0  0  0  0  0  0  0  0  0  0  0
   18.8413   -8.2846  -15.2190 N   0  0  0  0  0  0  0  0  0  0  0  0
   19.0854   -7.0890  -14.5240 C   0  0  1  0  0  0  0  0  0  0  0  0
   20.4967   -6.6386  -14.3930 C   0  0  0  0  0  0  0  0  0  0  0  0
   20.5999   -5.3380  -13.6155 C   0  0  0  0  0  0  0  0  0  0  0  0
   21.9861   -4.8298  -13.5811 C   0  0  0  0  0  0  0  0  0  0  0  0
   22.7061   -5.0494  -12.5850 O   0  0  0  0  0  0  0  0  0  0  0  0
   18.2761   -6.0012  -15.1215 C   0  0  0  0  0  0  0  0  0  0  0  0
   18.2982   -5.8394  -16.3625 O   0  0  0  0  0  0  0  0  0  0  0  0
   22.5036   -4.1119  -14.6368 O   0  0  0  0  0  0  0  0  0  0  0  0
   17.4785   -5.1360  -14.3521 N   0  0  0  0  0  0  0  0  0  0  0  0
   16.6779   -4.0585  -14.9080 C   0  0  1  0  0  0  0  0  0  0  0  0
   15.2989   -4.2293  -14.3120 C   0  0  0  0  0  0  0  0  0  0  0  0
   14.3418   -3.1303  -14.6379 C   0  0  0  0  0  0  0  0  0  0  0  0
   13.0686   -3.4011  -13.8627 C   0  0  0  0  0  0  0  0  0  0  0  0
   11.9806   -2.3991  -14.1802 C   0  0  0  0  0  0  0  0  0  0  0  0
   11.4038   -2.5822  -15.4819 N   0  0  0  0  0  0  0  0  0  0  0  0
   17.2767   -2.7423  -14.6895 C   0  0  0  0  0  0  0  0  0  0  0  0
   18.0764   -2.5752  -13.7374 O   0  0  0  0  0  0  0  0  0  0  0  0
   17.0077   -1.6407  -15.4902 O   0  0  0  0  0  0  0  0  0  0  0  0
  1  2  1  0
  3  5  1  0
  3  2  1  0
  3  4  1  1
  5  6  2  0
  7  8  1  0
  7  5  1  0
  8  9  1  6
  9 10  1  0
 11 10  1  0
 11 12  2  0
 13  8  1  0
 14 13  2  0
 15 11  1  0
 16 13  1  0
 17 16  1  0
 18 19  1  0
 17 18  1  1
 19 20  1  0
 20 21  1  0
 21 22  1  0
 23 17  1  0
 23 25  1  0
 24 23  2  0
M  END
$$$$
