SEK.pdb
     RDKit          3D

 25 24  0  0  1  0  0  0  0  0999 V2000
   24.2455  -10.8252  -15.5816 O   0  0  0  0  0  0  0  0  0  0  0  0
   23.0774  -11.4470  -15.1191 C   0  0  0  0  0  0  0  0  0  0  0  0
   22.1101  -11.4664  -16.2841 C   0  0  2  0  0  0  0  0  0  0  0  0
   22.7346  -11.8902  -17.4992 N   0  0  0  0  0  0  0  0  0  0  0  0
   21.5787  -10.0834  -16.4791 C   0  0  0  0  0  0  0  0  0  0  0  0
   21.7244   -9.4643  -17.5627 O   0  0  0  0  0  0  0  0  0  0  0  0
   20.8840   -9.3821  -15.4736 N   0  0  0  0  0  0  0  0  0  0  0  0
   20.2279   -8.1582  -15.6829 C   0  0  1  0  0  0  0  0  0  0  0  0
   18.8022   -8.0564  -15.2719 C   0  0  0  0  0  0  0  0  0  0  0  0
   18.1754   -6.7550  -15.7411 C   0  0  0  0  0  0  0  0  0  0  0  0
   16.7798   -6.6214  -15.2769 C   0  0  0  0  0  0  0  0  0  0  0  0
   15.8481   -7.0987  -15.9573 O   0  0  0  0  0  0  0  0  0  0  0  0
   21.0030   -7.0708  -15.0411 C   0  0  0  0  0  0  0  0  0  0  0  0
   21.5985   -7.3033  -13.9650 O   0  0  0  0  0  0  0  0  0  0  0  0
   16.4848   -5.9743  -14.0971 O   0  0  0  0  0  0  0  0  0  0  0  0
   21.1007   -5.7802  -15.5899 N   0  0  0  0  0  0  0  0  0  0  0  0
   21.8926   -4.7083  -15.0111 C   0  0  1  0  0  0  0  0  0  0  0  0
   21.8070   -3.5641  -15.9957 C   0  0  0  0  0  0  0  0  0  0  0  0
   22.6168   -2.3653  -15.6255 C   0  0  0  0  0  0  0  0  0  0  0  0
   22.5991   -1.4282  -16.8159 C   0  0  0  0  0  0  0  0  0  0  0  0
   23.3701   -0.1535  -16.5529 C   0  0  0  0  0  0  0  0  0  0  0  0
   23.5701    0.6413  -17.7314 N   0  0  0  0  0  0  0  0  0  0  0  0
   21.4757   -4.3727  -13.6501 C   0  0  0  0  0  0  0  0  0  0  0  0
   20.2558   -4.3742  -13.3572 O   0  0  0  0  0  0  0  0  0  0  0  0
   22.3685   -4.0448  -12.6390 O   0  0  0  0  0  0  0  0  0  0  0  0
  1  2  1  0
  3  5  1  0
  3  2  1  0
  3  4  1  6
  5  6  2  0
  7  8  1  0
  7  5  1  0
  8  9  1  1
  9 10  1  0
 11 10  1  0
 11 12  2  0
 13  8  1  0
 14 13  2  0
 15 11  1  0
 16 13  1  0
 17 16  1  0
 18 19  1  0
 17 18  1  6
 19 20  1  0
 20 21  1  0
 21 22  1  0
 23 17  1  0
 23 25  1  0
 24 23  2  0
M  END
$$$$
