SEK.pdb
     RDKit          3D

 25 24  0  0  1  0  0  0  0  0999 V2000
   28.0185  -19.5447  -14.8580 O   0  0  0  0  0  0  0  0  0  0  0  0
   26.6937  -19.3239  -15.2595 C   0  0  0  0  0  0  0  0  0  0  0  0
   26.0662  -20.6900  -15.4426 C   0  0  2  0  0  0  0  0  0  0  0  0
   26.5558  -21.3587  -16.6086 N   0  0  0  0  0  0  0  0  0  0  0  0
   24.5883  -20.5158  -15.5790 C   0  0  0  0  0  0  0  0  0  0  0  0
   24.0404  -20.3564  -16.6984 O   0  0  0  0  0  0  0  0  0  0  0  0
   23.7127  -20.5177  -14.4749 N   0  0  0  0  0  0  0  0  0  0  0  0
   22.3190  -20.3820  -14.5803 C   0  0  1  0  0  0  0  0  0  0  0  0
   21.4770  -21.0592  -13.5585 C   0  0  0  0  0  0  0  0  0  0  0  0
   20.0040  -21.0125  -13.9258 C   0  0  0  0  0  0  0  0  0  0  0  0
   19.1595  -21.6223  -12.8789 C   0  0  0  0  0  0  0  0  0  0  0  0
   18.0084  -21.1849  -12.6732 O   0  0  0  0  0  0  0  0  0  0  0  0
   21.9693  -18.9430  -14.6298 C   0  0  0  0  0  0  0  0  0  0  0  0
   22.2197  -18.2229  -13.6370 O   0  0  0  0  0  0  0  0  0  0  0  0
   19.6227  -22.6737  -12.1187 O   0  0  0  0  0  0  0  0  0  0  0  0
   21.3645  -18.3453  -15.7494 N   0  0  0  0  0  0  0  0  0  0  0  0
   20.9908  -16.9430  -15.8198 C   0  0  1  0  0  0  0  0  0  0  0  0
   21.8223  -16.3578  -16.9388 C   0  0  0  0  0  0  0  0  0  0  0  0
   21.5781  -14.9080  -17.2002 C   0  0  0  0  0  0  0  0  0  0  0  0
   22.4252  -14.5197  -18.3948 C   0  0  0  0  0  0  0  0  0  0  0  0
   22.2988  -13.0506  -18.7333 C   0  0  0  0  0  0  0  0  0  0  0  0
   23.0308  -12.6750  -19.9096 N   0  0  0  0  0  0  0  0  0  0  0  0
   19.5486  -16.7520  -15.9692 C   0  0  0  0  0  0  0  0  0  0  0  0
   19.0167  -15.6949  -15.5525 O   0  0  0  0  0  0  0  0  0  0  0  0
   18.7128  -17.6911  -16.5579 O   0  0  0  0  0  0  0  0  0  0  0  0
  1  2  1  0
  3  5  1  0
  3  2  1  0
  3  4  1  6
  5  6  2  0
  7  8  1  0
  7  5  1  0
  8  9  1  1
  9 10  1  0
 11 10  1  0
 11 12  2  0
 13  8  1  0
 14 13  2  0
 15 11  1  0
 16 13  1  0
 17 16  1  0
 18 19  1  0
 17 18  1  6
 19 20  1  0
 20 21  1  0
 21 22  1  0
 23 17  1  0
 23 25  1  0
 24 23  2  0
M  END
$$$$
