SEK.pdb
     RDKit          3D

 25 24  0  0  1  0  0  0  0  0999 V2000
   21.1523  -12.0793  -20.7652 O   0  0  0  0  0  0  0  0  0  0  0  0
   20.4003  -11.0599  -20.1650 C   0  0  0  0  0  0  0  0  0  0  0  0
   20.5402  -11.2458  -18.6686 C   0  0  2  0  0  0  0  0  0  0  0  0
   19.8813  -12.4282  -18.2061 N   0  0  0  0  0  0  0  0  0  0  0  0
   19.9305  -10.0637  -17.9873 C   0  0  0  0  0  0  0  0  0  0  0  0
   18.6856   -9.9219  -17.8941 O   0  0  0  0  0  0  0  0  0  0  0  0
   20.6988   -9.0349  -17.4070 N   0  0  0  0  0  0  0  0  0  0  0  0
   20.1488   -7.9141  -16.7641 C   0  0  1  0  0  0  0  0  0  0  0  0
   20.3808   -7.7698  -15.3022 C   0  0  0  0  0  0  0  0  0  0  0  0
   19.5175   -8.7284  -14.5006 C   0  0  0  0  0  0  0  0  0  0  0  0
   19.7178   -8.5602  -13.0471 C   0  0  0  0  0  0  0  0  0  0  0  0
   20.8384   -8.7805  -12.5427 O   0  0  0  0  0  0  0  0  0  0  0  0
   20.5971   -6.6832  -17.4564 C   0  0  0  0  0  0  0  0  0  0  0  0
   21.8187   -6.5208  -17.6760 O   0  0  0  0  0  0  0  0  0  0  0  0
   18.6821   -8.1613  -12.2311 O   0  0  0  0  0  0  0  0  0  0  0  0
   19.7062   -5.6820  -17.8811 N   0  0  0  0  0  0  0  0  0  0  0  0
   20.1221   -4.4137  -18.4551 C   0  0  1  0  0  0  0  0  0  0  0  0
   18.8521   -3.7530  -18.9413 C   0  0  0  0  0  0  0  0  0  0  0  0
   19.0534   -2.4221  -19.5879 C   0  0  0  0  0  0  0  0  0  0  0  0
   17.6990   -1.9537  -20.0792 C   0  0  0  0  0  0  0  0  0  0  0  0
   17.7710   -0.6024  -20.7556 C   0  0  0  0  0  0  0  0  0  0  0  0
   16.5311   -0.2041  -21.3594 N   0  0  0  0  0  0  0  0  0  0  0  0
   20.9103   -3.6065  -17.5244 C   0  0  0  0  0  0  0  0  0  0  0  0
   20.6565   -3.6511  -16.2965 O   0  0  0  0  0  0  0  0  0  0  0  0
   21.9462   -2.7745  -17.9263 O   0  0  0  0  0  0  0  0  0  0  0  0
  1  2  1  0
  3  5  1  0
  3  2  1  0
  3  4  1  1
  5  6  2  0
  7  8  1  0
  7  5  1  0
  8  9  1  1
  9 10  1  0
 11 10  1  0
 11 12  2  0
 13  8  1  0
 14 13  2  0
 15 11  1  0
 16 13  1  0
 17 16  1  0
 18 19  1  0
 17 18  1  1
 19 20  1  0
 20 21  1  0
 21 22  1  0
 23 17  1  0
 23 25  1  0
 24 23  2  0
M  END
$$$$
