SEK.pdb
     RDKit          3D

 25 24  0  0  1  0  0  0  0  0999 V2000
   18.1277  -15.4206  -14.4102 O   0  0  0  0  0  0  0  0  0  0  0  0
   18.5245  -14.1820  -14.9330 C   0  0  0  0  0  0  0  0  0  0  0  0
   17.3736  -13.6849  -15.7827 C   0  0  2  0  0  0  0  0  0  0  0  0
   17.2010  -14.4644  -16.9696 N   0  0  0  0  0  0  0  0  0  0  0  0
   17.6552  -12.2716  -16.1780 C   0  0  0  0  0  0  0  0  0  0  0  0
   18.2642  -11.9895  -17.2402 O   0  0  0  0  0  0  0  0  0  0  0  0
   17.2627  -11.1662  -15.3972 N   0  0  0  0  0  0  0  0  0  0  0  0
   17.4837   -9.8292  -15.7654 C   0  0  1  0  0  0  0  0  0  0  0  0
   16.6805   -8.7800  -15.0829 C   0  0  0  0  0  0  0  0  0  0  0  0
   16.9970   -7.3947  -15.6191 C   0  0  0  0  0  0  0  0  0  0  0  0
   16.2294   -6.3473  -14.9156 C   0  0  0  0  0  0  0  0  0  0  0  0
   15.4457   -6.6605  -13.9955 O   0  0  0  0  0  0  0  0  0  0  0  0
   18.9246   -9.5141  -15.6245 C   0  0  0  0  0  0  0  0  0  0  0  0
   19.5483   -9.9549  -14.6327 O   0  0  0  0  0  0  0  0  0  0  0  0
   16.3635   -5.0199  -15.2590 O   0  0  0  0  0  0  0  0  0  0  0  0
   19.6283   -8.7367  -16.5609 N   0  0  0  0  0  0  0  0  0  0  0  0
   21.0336   -8.3891  -16.4370 C   0  0  1  0  0  0  0  0  0  0  0  0
   21.6224   -8.5841  -17.8158 C   0  0  0  0  0  0  0  0  0  0  0  0
   23.0691   -8.2312  -17.9281 C   0  0  0  0  0  0  0  0  0  0  0  0
   23.5240   -8.6431  -19.3133 C   0  0  0  0  0  0  0  0  0  0  0  0
   24.9798   -8.3135  -19.5597 C   0  0  0  0  0  0  0  0  0  0  0  0
   25.8685   -8.9333  -18.6182 N   0  0  0  0  0  0  0  0  0  0  0  0
   21.2355   -7.0554  -15.8720 C   0  0  0  0  0  0  0  0  0  0  0  0
   22.0994   -6.8848  -14.9784 O   0  0  0  0  0  0  0  0  0  0  0  0
   20.5124   -5.9405  -16.2736 O   0  0  0  0  0  0  0  0  0  0  0  0
  1  2  1  0
  3  5  1  0
  3  2  1  0
  3  4  1  6
  5  6  2  0
  7  8  1  0
  7  5  1  0
  8  9  1  1
  9 10  1  0
 11 10  1  0
 11 12  2  0
 13  8  1  0
 14 13  2  0
 15 11  1  0
 16 13  1  0
 17 16  1  0
 18 19  1  0
 17 18  1  6
 19 20  1  0
 20 21  1  0
 21 22  1  0
 23 17  1  0
 23 25  1  0
 24 23  2  0
M  END
$$$$
