SEK.pdb
     RDKit          3D

 25 24  0  0  1  0  0  0  0  0999 V2000
   15.4865   -9.0137  -15.2872 O   0  0  0  0  0  0  0  0  0  0  0  0
   16.7415   -8.8693  -15.8949 C   0  0  0  0  0  0  0  0  0  0  0  0
   17.6453   -9.9106  -15.2685 C   0  0  2  0  0  0  0  0  0  0  0  0
   17.1046  -11.2306  -15.3740 N   0  0  0  0  0  0  0  0  0  0  0  0
   17.8139   -9.5795  -13.8210 C   0  0  0  0  0  0  0  0  0  0  0  0
   17.2056  -10.2116  -12.9215 O   0  0  0  0  0  0  0  0  0  0  0  0
   18.6574   -8.5467  -13.3658 N   0  0  0  0  0  0  0  0  0  0  0  0
   18.7999   -8.1898  -12.0151 C   0  0  1  0  0  0  0  0  0  0  0  0
   20.0495   -7.4924  -11.6101 C   0  0  0  0  0  0  0  0  0  0  0  0
   20.2210   -6.1762  -12.3484 C   0  0  0  0  0  0  0  0  0  0  0  0
   21.4648   -5.4851  -11.9528 C   0  0  0  0  0  0  0  0  0  0  0  0
   21.7490   -4.3775  -12.4541 O   0  0  0  0  0  0  0  0  0  0  0  0
   17.6295   -7.3843  -11.5951 C   0  0  0  0  0  0  0  0  0  0  0  0
   17.1107   -6.5938  -12.4154 O   0  0  0  0  0  0  0  0  0  0  0  0
   22.3242   -6.0449  -11.0332 O   0  0  0  0  0  0  0  0  0  0  0  0
   17.0710   -7.4679  -10.3077 N   0  0  0  0  0  0  0  0  0  0  0  0
   15.9237   -6.6930   -9.8671 C   0  0  1  0  0  0  0  0  0  0  0  0
   15.0276   -7.6717   -9.1426 C   0  0  0  0  0  0  0  0  0  0  0  0
   13.7652   -7.0790   -8.6087 C   0  0  0  0  0  0  0  0  0  0  0  0
   12.9934   -8.1979   -7.9395 C   0  0  0  0  0  0  0  0  0  0  0  0
   11.6928   -7.7153   -7.3360 C   0  0  0  0  0  0  0  0  0  0  0  0
   10.9158   -8.7690   -6.7472 N   0  0  0  0  0  0  0  0  0  0  0  0
   16.3053   -5.5202   -9.0810 C   0  0  0  0  0  0  0  0  0  0  0  0
   17.3959   -5.5175   -8.4610 O   0  0  0  0  0  0  0  0  0  0  0  0
   15.5157   -4.3833   -8.9768 O   0  0  0  0  0  0  0  0  0  0  0  0
  1  2  1  0
  3  5  1  0
  3  2  1  0
  3  4  1  1
  5  6  2  0
  7  8  1  0
  7  5  1  0
  8  9  1  6
  9 10  1  0
 11 10  1  0
 11 12  2  0
 13  8  1  0
 14 13  2  0
 15 11  1  0
 16 13  1  0
 17 16  1  0
 18 19  1  0
 17 18  1  1
 19 20  1  0
 20 21  1  0
 21 22  1  0
 23 17  1  0
 23 25  1  0
 24 23  2  0
M  END
$$$$
