SEK.pdb
     RDKit          3D

 25 24  0  0  1  0  0  0  0  0999 V2000
   25.2014  -23.4353  -14.9848 O   0  0  0  0  0  0  0  0  0  0  0  0
   24.2337  -22.6446  -15.6199 C   0  0  0  0  0  0  0  0  0  0  0  0
   24.5330  -21.2097  -15.2394 C   0  0  2  0  0  0  0  0  0  0  0  0
   25.9117  -21.0125  -14.9130 N   0  0  0  0  0  0  0  0  0  0  0  0
   23.7060  -20.8557  -14.0461 C   0  0  0  0  0  0  0  0  0  0  0  0
   24.1135  -20.0493  -13.1731 O   0  0  0  0  0  0  0  0  0  0  0  0
   22.4243  -21.3947  -13.8167 N   0  0  0  0  0  0  0  0  0  0  0  0
   21.3427  -20.6552  -13.3115 C   0  0  1  0  0  0  0  0  0  0  0  0
   20.9598  -19.4091  -14.0274 C   0  0  0  0  0  0  0  0  0  0  0  0
   19.7907  -18.7123  -13.3533 C   0  0  0  0  0  0  0  0  0  0  0  0
   19.2683  -17.6017  -14.1748 C   0  0  0  0  0  0  0  0  0  0  0  0
   19.8238  -17.3098  -15.2541 O   0  0  0  0  0  0  0  0  0  0  0  0
   20.1584  -21.5377  -13.1936 C   0  0  0  0  0  0  0  0  0  0  0  0
   19.7366  -22.1272  -14.2141 O   0  0  0  0  0  0  0  0  0  0  0  0
   18.1701  -16.8760  -13.7684 O   0  0  0  0  0  0  0  0  0  0  0  0
   19.4819  -21.7446  -11.9788 N   0  0  0  0  0  0  0  0  0  0  0  0
   18.3238  -22.6093  -11.8300 C   0  0  1  0  0  0  0  0  0  0  0  0
   18.0999  -22.7340  -10.3400 C   0  0  0  0  0  0  0  0  0  0  0  0
   18.2891  -24.1124   -9.7974 C   0  0  0  0  0  0  0  0  0  0  0  0
   18.0954  -24.0332   -8.2969 C   0  0  0  0  0  0  0  0  0  0  0  0
   18.2156  -25.3866   -7.6317 C   0  0  0  0  0  0  0  0  0  0  0  0
   18.1040  -25.3272   -6.2018 N   0  0  0  0  0  0  0  0  0  0  0  0
   17.1642  -22.1309  -12.5819 C   0  0  0  0  0  0  0  0  0  0  0  0
   16.9413  -20.8987  -12.6601 O   0  0  0  0  0  0  0  0  0  0  0  0
   16.2743  -22.9769  -13.2293 O   0  0  0  0  0  0  0  0  0  0  0  0
  1  2  1  0
  3  5  1  0
  3  2  1  0
  3  4  1  1
  5  6  2  0
  7  8  1  0
  7  5  1  0
  8  9  1  6
  9 10  1  0
 11 10  1  0
 11 12  2  0
 13  8  1  0
 14 13  2  0
 15 11  1  0
 16 13  1  0
 17 16  1  0
 18 19  1  0
 17 18  1  1
 19 20  1  0
 20 21  1  0
 21 22  1  0
 23 17  1  0
 23 25  1  0
 24 23  2  0
M  END
$$$$
