SEK.pdb
     RDKit          3D

 25 24  0  0  1  0  0  0  0  0999 V2000
   24.1648  -12.3113  -19.6349 O   0  0  0  0  0  0  0  0  0  0  0  0
   23.2069  -11.8241  -18.7349 C   0  0  0  0  0  0  0  0  0  0  0  0
   23.9515  -11.4663  -17.4656 C   0  0  2  0  0  0  0  0  0  0  0  0
   24.4878  -12.6188  -16.8096 N   0  0  0  0  0  0  0  0  0  0  0  0
   22.9988  -10.7888  -16.5348 C   0  0  0  0  0  0  0  0  0  0  0  0
   22.2990  -11.4361  -15.7162 O   0  0  0  0  0  0  0  0  0  0  0  0
   22.8185   -9.3916  -16.5082 N   0  0  0  0  0  0  0  0  0  0  0  0
   21.9936   -8.7256  -15.5873 C   0  0  1  0  0  0  0  0  0  0  0  0
   22.4051   -7.3671  -15.1436 C   0  0  0  0  0  0  0  0  0  0  0  0
   21.5237   -6.8545  -14.0178 C   0  0  0  0  0  0  0  0  0  0  0  0
   21.8833   -5.4769  -13.6256 C   0  0  0  0  0  0  0  0  0  0  0  0
   23.0616   -5.2044  -13.3156 O   0  0  0  0  0  0  0  0  0  0  0  0
   20.6112   -8.6714  -16.1178 C   0  0  0  0  0  0  0  0  0  0  0  0
   20.4296   -8.3138  -17.3035 O   0  0  0  0  0  0  0  0  0  0  0  0
   20.9343   -4.4787  -13.5952 O   0  0  0  0  0  0  0  0  0  0  0  0
   19.4860   -9.0058  -15.3442 N   0  0  0  0  0  0  0  0  0  0  0  0
   18.1237   -9.0087  -15.8494 C   0  0  1  0  0  0  0  0  0  0  0  0
   17.5634  -10.3678  -15.4960 C   0  0  0  0  0  0  0  0  0  0  0  0
   16.1467  -10.5831  -15.9164 C   0  0  0  0  0  0  0  0  0  0  0  0
   15.7558  -11.9785  -15.4742 C   0  0  0  0  0  0  0  0  0  0  0  0
   14.3279  -12.3169  -15.8420 C   0  0  0  0  0  0  0  0  0  0  0  0
   13.8697  -13.5474  -15.2618 N   0  0  0  0  0  0  0  0  0  0  0  0
   17.3378   -7.8790  -15.3545 C   0  0  0  0  0  0  0  0  0  0  0  0
   17.5571   -7.4275  -14.2047 O   0  0  0  0  0  0  0  0  0  0  0  0
   16.3406   -7.2615  -16.0969 O   0  0  0  0  0  0  0  0  0  0  0  0
  1  2  1  0
  3  5  1  0
  3  2  1  0
  3  4  1  1
  5  6  2  0
  7  8  1  0
  7  5  1  0
  8  9  1  6
  9 10  1  0
 11 10  1  0
 11 12  2  0
 13  8  1  0
 14 13  2  0
 15 11  1  0
 16 13  1  0
 17 16  1  0
 18 19  1  0
 17 18  1  1
 19 20  1  0
 20 21  1  0
 21 22  1  0
 23 17  1  0
 23 25  1  0
 24 23  2  0
M  END
$$$$
