RYI.pdb
     RDKit          3D

 32 32  0  0  1  0  0  0  0  0999 V2000
    8.2358  -12.2512   19.0666 N   0  0  0  0  0  0  0  0  0  0  0  0
    9.0682  -13.3320   18.6674 C   0  0  0  0  0  0  0  0  0  0  0  0
   10.3418  -13.1474   18.6944 N   0  0  0  0  0  0  0  0  0  0  0  0
    8.5762  -14.5802   18.2477 N   0  0  0  0  0  0  0  0  0  0  0  0
    8.1218  -15.6007   19.2064 C   0  0  0  0  0  0  0  0  0  0  0  0
    6.8938  -15.0588   19.8487 C   0  0  0  0  0  0  0  0  0  0  0  0
    6.0713  -16.0319   20.6180 C   0  0  0  0  0  0  0  0  0  0  0  0
    6.7757  -17.2418   21.1252 C   0  0  2  0  0  0  0  0  0  0  0  0
    6.0705  -18.4695   20.9553 N   0  0  0  0  0  0  0  0  0  0  0  0
    7.0230  -17.0324   22.6060 C   0  0  0  0  0  0  0  0  0  0  0  0
    6.0628  -16.6629   23.3044 O   0  0  0  0  0  0  0  0  0  0  0  0
   11.0525  -13.7765   18.3110 O   0  0  0  0  0  0  0  0  0  0  0  0
   11.0396  -17.6834   30.4220 C   0  0  0  0  0  0  0  0  0  0  0  0
   10.7376  -17.7645   29.0692 C   0  0  0  0  0  0  0  0  0  0  0  0
    9.7870  -18.6522   28.6162 C   0  0  0  0  0  0  0  0  0  0  0  0
    9.5004  -18.7165   27.2537 C   0  0  0  0  0  0  0  0  0  0  0  0
   10.1416  -17.9155   26.3417 C   0  0  0  0  0  0  0  0  0  0  0  0
    9.8353  -17.9853   24.9036 C   0  0  2  0  0  0  0  0  0  0  0  0
    8.7468  -17.0546   24.4802 N   0  0  0  0  0  0  0  0  0  0  0  0
    8.2871  -17.2488   23.1594 C   0  0  0  0  0  0  0  0  0  0  0  0
    9.0446  -15.6881   24.9307 O   0  0  0  0  0  0  0  0  0  0  0  0
    9.8298  -14.9511   24.3104 C   0  0  0  0  0  0  0  0  0  0  0  0
   11.0838  -17.0410   26.8222 C   0  0  0  0  0  0  0  0  0  0  0  0
   11.3871  -16.9589   28.1793 C   0  0  0  0  0  0  0  0  0  0  0  0
    5.1201  -12.2494   26.3086 C   0  0  0  0  0  0  0  0  0  0  0  0
    6.4263  -12.8261   25.8671 C   0  0  2  0  0  0  0  0  0  0  0  0
    7.4485  -13.1093   26.8914 C   0  0  0  0  0  0  0  0  0  0  0  0
    7.8219  -11.8083   27.6507 C   0  0  2  0  0  0  0  0  0  0  0  0
    8.7341  -13.7433   26.5241 N   0  0  0  0  0  0  0  0  0  0  0  0
    8.4491  -15.1535   26.0869 C   0  0  0  0  0  0  0  0  0  0  0  0
    9.8132  -13.8181   27.4768 O   0  0  0  0  0  0  0  0  0  0  0  0
   10.8187  -12.8983   27.6877 O   0  0  0  0  0  0  0  0  0  0  0  0
  2  4  1  0
  2  1  1  0
  3  2  2  0
  5  6  1  0
  5  4  1  0
  7  8  1  0
  7  6  1  0
  8 10  1  0
  8  9  1  1
 10 11  2  0
 12 13  1  0
 13 23  2  0
 13 14  1  0
 14 15  2  0
 15 16  1  0
 16 17  1  0
 18 17  1  1
 18 20  1  0
 19 18  1  0
 19 10  1  0
 20 29  1  0
 21 20  2  0
 22 16  2  0
 23 22  1  0
 24 25  1  0
 26 25  1  0
 26 28  1  0
 26 27  1  1
 28 30  1  0
 28 29  1  6
 30 32  2  0
 30 31  1  0
M  END
$$$$
