RYI.pdb
     RDKit          3D

 32 32  0  0  1  0  0  0  0  0999 V2000
    9.9324  -20.4069   17.1911 N   0  0  0  0  0  0  0  0  0  0  0  0
   10.9439  -20.0892   16.2443 C   0  0  0  0  0  0  0  0  0  0  0  0
   11.4084  -21.0474   15.5213 N   0  0  0  0  0  0  0  0  0  0  0  0
   11.4587  -18.7941   16.0596 N   0  0  0  0  0  0  0  0  0  0  0  0
   10.8991  -17.6263   16.7596 C   0  0  0  0  0  0  0  0  0  0  0  0
   11.6694  -17.4839   18.0248 C   0  0  0  0  0  0  0  0  0  0  0  0
   10.9405  -16.8787   19.1726 C   0  0  0  0  0  0  0  0  0  0  0  0
   10.8435  -17.7048   20.4076 C   0  0  2  0  0  0  0  0  0  0  0  0
    9.7640  -18.6364   20.4306 N   0  0  0  0  0  0  0  0  0  0  0  0
   10.6795  -16.7527   21.5757 C   0  0  0  0  0  0  0  0  0  0  0  0
   11.6044  -15.9531   21.8021 O   0  0  0  0  0  0  0  0  0  0  0  0
   12.0794  -20.9556   14.7536 O   0  0  0  0  0  0  0  0  0  0  0  0
    6.9561  -12.5796   18.4591 C   0  0  0  0  0  0  0  0  0  0  0  0
    7.1631  -13.2532   19.6554 C   0  0  0  0  0  0  0  0  0  0  0  0
    7.8028  -12.6338   20.7060 C   0  0  0  0  0  0  0  0  0  0  0  0
    7.9998  -13.3296   21.8975 C   0  0  0  0  0  0  0  0  0  0  0  0
    7.5722  -14.6243   22.0575 C   0  0  0  0  0  0  0  0  0  0  0  0
    7.7810  -15.3556   23.3178 C   0  0  2  0  0  0  0  0  0  0  0  0
    9.1453  -15.9500   23.4430 N   0  0  0  0  0  0  0  0  0  0  0  0
    9.5275  -16.7783   22.3652 C   0  0  0  0  0  0  0  0  0  0  0  0
    9.3656  -16.4290   24.8145 O   0  0  0  0  0  0  0  0  0  0  0  0
    9.5557  -17.6313   25.0652 C   0  0  0  0  0  0  0  0  0  0  0  0
    6.9382  -15.2156   20.9936 C   0  0  0  0  0  0  0  0  0  0  0  0
    6.7300  -14.5402   19.7933 C   0  0  0  0  0  0  0  0  0  0  0  0
    9.9519  -12.2446   28.5204 C   0  0  0  0  0  0  0  0  0  0  0  0
   10.1514  -13.4008   27.5947 C   0  0  2  0  0  0  0  0  0  0  0  0
    9.9386  -14.7624   28.1192 C   0  0  0  0  0  0  0  0  0  0  0  0
   10.9481  -15.0620   29.2593 C   0  0  1  0  0  0  0  0  0  0  0  0
    9.9873  -15.9370   27.2206 N   0  0  0  0  0  0  0  0  0  0  0  0
    9.3730  -15.5426   25.9060 C   0  0  0  0  0  0  0  0  0  0  0  0
    9.3703  -17.1812   27.6062 O   0  0  0  0  0  0  0  0  0  0  0  0
    9.9456  -18.2339   28.2862 O   0  0  0  0  0  0  0  0  0  0  0  0
  2  4  1  0
  2  1  1  0
  3  2  2  0
  5  6  1  0
  5  4  1  0
  7  8  1  0
  7  6  1  0
  8 10  1  0
  8  9  1  6
 10 11  2  0
 12 13  1  0
 13 23  2  0
 13 14  1  0
 14 15  2  0
 15 16  1  0
 16 17  1  0
 18 17  1  6
 18 20  1  0
 19 18  1  0
 19 10  1  0
 20 29  1  0
 21 20  2  0
 22 16  2  0
 23 22  1  0
 24 25  1  0
 26 25  1  0
 26 28  1  0
 26 27  1  1
 28 30  1  0
 28 29  1  6
 30 32  2  0
 30 31  1  0
M  END
$$$$
