RYI.pdb
     RDKit          3D

 32 32  0  0  1  0  0  0  0  0999 V2000
    7.3827  -14.1299   18.6670 N   0  0  0  0  0  0  0  0  0  0  0  0
    7.2058  -14.5682   17.3264 C   0  0  0  0  0  0  0  0  0  0  0  0
    7.0352  -13.6694   16.4211 N   0  0  0  0  0  0  0  0  0  0  0  0
    7.2069  -15.9207   16.9427 N   0  0  0  0  0  0  0  0  0  0  0  0
    7.5769  -16.9954   17.8780 C   0  0  0  0  0  0  0  0  0  0  0  0
    8.9935  -16.7508   18.2624 C   0  0  0  0  0  0  0  0  0  0  0  0
    9.3387  -16.9986   19.6888 C   0  0  0  0  0  0  0  0  0  0  0  0
   10.6578  -16.4854   20.1515 C   0  0  2  0  0  0  0  0  0  0  0  0
   11.7160  -17.4413   20.1458 N   0  0  0  0  0  0  0  0  0  0  0  0
   10.4741  -15.9828   21.5698 C   0  0  0  0  0  0  0  0  0  0  0  0
   11.2675  -16.3936   22.4345 O   0  0  0  0  0  0  0  0  0  0  0  0
    6.7902  -13.8365   15.4413 O   0  0  0  0  0  0  0  0  0  0  0  0
    6.2976  -11.5529   28.0639 C   0  0  0  0  0  0  0  0  0  0  0  0
    6.6423  -12.1278   26.8480 C   0  0  0  0  0  0  0  0  0  0  0  0
    7.3539  -11.4112   25.9116 C   0  0  0  0  0  0  0  0  0  0  0  0
    7.6888  -12.0088   24.6977 C   0  0  0  0  0  0  0  0  0  0  0  0
    7.3283  -13.3005   24.4043 C   0  0  0  0  0  0  0  0  0  0  0  0
    7.6848  -13.9287   23.1217 C   0  0  2  0  0  0  0  0  0  0  0  0
    9.0108  -14.6154   23.1427 N   0  0  0  0  0  0  0  0  0  0  0  0
    9.4478  -15.0897   21.8866 C   0  0  0  0  0  0  0  0  0  0  0  0
    9.1003  -15.5094   24.3053 O   0  0  0  0  0  0  0  0  0  0  0  0
    8.8030  -16.7137   24.2292 C   0  0  0  0  0  0  0  0  0  0  0  0
    6.6198  -13.9898   25.3564 C   0  0  0  0  0  0  0  0  0  0  0  0
    6.2739  -13.4136   26.5765 C   0  0  0  0  0  0  0  0  0  0  0  0
   10.7107  -15.0604   30.3628 C   0  0  0  0  0  0  0  0  0  0  0  0
   10.6670  -15.8671   29.1054 C   0  0  2  0  0  0  0  0  0  0  0  0
   10.2254  -15.2052   27.8640 C   0  0  0  0  0  0  0  0  0  0  0  0
    8.9338  -14.3847   28.1237 C   0  0  2  0  0  0  0  0  0  0  0  0
    9.9623  -15.9912   26.6382 N   0  0  0  0  0  0  0  0  0  0  0  0
    9.5303  -15.0382   25.5584 C   0  0  0  0  0  0  0  0  0  0  0  0
    9.0009  -17.0650   26.6481 O   0  0  0  0  0  0  0  0  0  0  0  0
    9.2055  -18.3783   27.0154 O   0  0  0  0  0  0  0  0  0  0  0  0
  2  4  1  0
  2  1  1  0
  3  2  2  0
  5  6  1  0
  5  4  1  0
  7  8  1  0
  7  6  1  0
  8 10  1  0
  8  9  1  1
 10 11  2  0
 12 13  1  0
 13 23  2  0
 13 14  1  0
 14 15  2  0
 15 16  1  0
 16 17  1  0
 18 17  1  6
 18 20  1  0
 19 18  1  0
 19 10  1  0
 20 29  1  0
 21 20  2  0
 22 16  2  0
 23 22  1  0
 24 25  1  0
 26 25  1  0
 26 28  1  0
 26 27  1  6
 28 30  1  0
 28 29  1  1
 30 32  2  0
 30 31  1  0
M  END
$$$$
