RYI.pdb
     RDKit          3D

 32 32  0  0  1  0  0  0  0  0999 V2000
    7.2423  -12.1468   17.6119 N   0  0  0  0  0  0  0  0  0  0  0  0
    7.6472  -13.4382   18.0467 C   0  0  0  0  0  0  0  0  0  0  0  0
    8.5052  -14.0703   17.3249 N   0  0  0  0  0  0  0  0  0  0  0  0
    7.1624  -14.0547   19.2134 N   0  0  0  0  0  0  0  0  0  0  0  0
    7.6639  -15.3611   19.6701 C   0  0  0  0  0  0  0  0  0  0  0  0
    6.8882  -15.7070   20.8919 C   0  0  0  0  0  0  0  0  0  0  0  0
    5.8983  -16.8094   20.7509 C   0  0  0  0  0  0  0  0  0  0  0  0
    6.2271  -18.0890   21.4380 C   0  0  2  0  0  0  0  0  0  0  0  0
    5.2151  -19.0912   21.3694 N   0  0  0  0  0  0  0  0  0  0  0  0
    6.4826  -17.7652   22.8966 C   0  0  0  0  0  0  0  0  0  0  0  0
    5.5060  -17.4427   23.5954 O   0  0  0  0  0  0  0  0  0  0  0  0
    8.9216  -13.7384   16.4506 O   0  0  0  0  0  0  0  0  0  0  0  0
   10.5592  -16.7838   30.6106 C   0  0  0  0  0  0  0  0  0  0  0  0
   10.2526  -17.1387   29.3037 C   0  0  0  0  0  0  0  0  0  0  0  0
    9.3280  -18.1262   29.0451 C   0  0  0  0  0  0  0  0  0  0  0  0
    9.0361  -18.4661   27.7253 C   0  0  0  0  0  0  0  0  0  0  0  0
    9.6469  -17.8416   26.6662 C   0  0  0  0  0  0  0  0  0  0  0  0
    9.3352  -18.2023   25.2736 C   0  0  2  0  0  0  0  0  0  0  0  0
    8.2713  -17.3516   24.6614 N   0  0  0  0  0  0  0  0  0  0  0  0
    7.7720  -17.8290   23.4300 C   0  0  0  0  0  0  0  0  0  0  0  0
    8.6300  -15.9313   24.7751 O   0  0  0  0  0  0  0  0  0  0  0  0
    9.5258  -15.4248   24.0783 C   0  0  0  0  0  0  0  0  0  0  0  0
   10.5637  -16.8619   26.9545 C   0  0  0  0  0  0  0  0  0  0  0  0
   10.8715  -16.5051   28.2654 C   0  0  0  0  0  0  0  0  0  0  0  0
    5.7994  -10.6453   26.0244 C   0  0  0  0  0  0  0  0  0  0  0  0
    7.0994  -11.3739   25.9112 C   0  0  2  0  0  0  0  0  0  0  0  0
    7.0755  -12.8480   25.8810 C   0  0  0  0  0  0  0  0  0  0  0  0
    6.3407  -13.3984   27.1324 C   0  0  2  0  0  0  0  0  0  0  0  0
    8.3309  -13.6244   25.7784 N   0  0  0  0  0  0  0  0  0  0  0  0
    7.9702  -15.0809   25.6799 C   0  0  0  0  0  0  0  0  0  0  0  0
    9.3434  -13.5194   26.7988 O   0  0  0  0  0  0  0  0  0  0  0  0
    9.6459  -14.4341   27.7854 O   0  0  0  0  0  0  0  0  0  0  0  0
  2  4  1  0
  2  1  1  0
  3  2  2  0
  5  6  1  0
  5  4  1  0
  7  8  1  0
  7  6  1  0
  8 10  1  0
  8  9  1  1
 10 11  2  0
 12 13  1  0
 13 23  2  0
 13 14  1  0
 14 15  2  0
 15 16  1  0
 16 17  1  0
 18 17  1  1
 18 20  1  0
 19 18  1  0
 19 10  1  0
 20 29  1  0
 21 20  2  0
 22 16  2  0
 23 22  1  0
 24 25  1  0
 26 25  1  0
 26 28  1  0
 26 27  1  6
 28 30  1  0
 28 29  1  1
 30 32  2  0
 30 31  1  0
M  END
$$$$
