RYI.pdb
     RDKit          3D

 32 32  0  0  1  0  0  0  0  0999 V2000
   14.2074  -20.1470   20.6234 N   0  0  0  0  0  0  0  0  0  0  0  0
   13.4143  -21.3252   20.6813 C   0  0  0  0  0  0  0  0  0  0  0  0
   14.0164  -22.4408   20.9041 N   0  0  0  0  0  0  0  0  0  0  0  0
   12.0192  -21.3343   20.5084 N   0  0  0  0  0  0  0  0  0  0  0  0
   11.1595  -20.2729   21.0572 C   0  0  0  0  0  0  0  0  0  0  0  0
   11.0169  -19.2498   19.9862 C   0  0  0  0  0  0  0  0  0  0  0  0
   10.0523  -18.1486   20.2545 C   0  0  0  0  0  0  0  0  0  0  0  0
   10.6002  -16.7643   20.2262 C   0  0  2  0  0  0  0  0  0  0  0  0
   11.9819  -16.6661   19.8876 N   0  0  0  0  0  0  0  0  0  0  0  0
   10.4023  -16.1723   21.6075 C   0  0  0  0  0  0  0  0  0  0  0  0
   11.4151  -15.9784   22.3024 O   0  0  0  0  0  0  0  0  0  0  0  0
   13.5718  -23.3556   21.0204 O   0  0  0  0  0  0  0  0  0  0  0  0
    6.1991  -11.7115   27.9729 C   0  0  0  0  0  0  0  0  0  0  0  0
    6.4927  -12.4238   26.8177 C   0  0  0  0  0  0  0  0  0  0  0  0
    7.2273  -11.8455   25.8065 C   0  0  0  0  0  0  0  0  0  0  0  0
    7.5099  -12.5795   24.6558 C   0  0  0  0  0  0  0  0  0  0  0  0
    7.0750  -13.8720   24.4981 C   0  0  0  0  0  0  0  0  0  0  0  0
    7.3764  -14.6445   23.2819 C   0  0  2  0  0  0  0  0  0  0  0  0
    8.7207  -15.2945   23.3066 N   0  0  0  0  0  0  0  0  0  0  0  0
    9.1247  -15.8581   22.0766 C   0  0  0  0  0  0  0  0  0  0  0  0
    8.8772  -16.0889   24.5327 O   0  0  0  0  0  0  0  0  0  0  0  0
    8.8235  -17.3305   24.5194 C   0  0  0  0  0  0  0  0  0  0  0  0
    6.3452  -14.4217   25.5221 C   0  0  0  0  0  0  0  0  0  0  0  0
    6.0505  -13.7078   26.6813 C   0  0  0  0  0  0  0  0  0  0  0  0
   10.4931  -12.9854   29.0336 C   0  0  0  0  0  0  0  0  0  0  0  0
   10.5476  -13.9220   27.8702 C   0  0  2  0  0  0  0  0  0  0  0  0
    9.9576  -15.2645   28.0240 C   0  0  0  0  0  0  0  0  0  0  0  0
   10.7090  -16.0577   29.1263 C   0  0  2  0  0  0  0  0  0  0  0  0
    9.8528  -16.1832   26.8688 N   0  0  0  0  0  0  0  0  0  0  0  0
    9.0975  -15.4749   25.7784 C   0  0  0  0  0  0  0  0  0  0  0  0
    9.2419  -17.4803   27.0166 O   0  0  0  0  0  0  0  0  0  0  0  0
    9.8470  -18.6605   27.3943 O   0  0  0  0  0  0  0  0  0  0  0  0
  2  4  1  0
  2  1  1  0
  3  2  2  0
  5  6  1  0
  5  4  1  0
  7  8  1  0
  7  6  1  0
  8 10  1  0
  8  9  1  1
 10 11  2  0
 12 13  1  0
 13 23  2  0
 13 14  1  0
 14 15  2  0
 15 16  1  0
 16 17  1  0
 18 17  1  6
 18 20  1  0
 19 18  1  0
 19 10  1  0
 20 29  1  0
 21 20  2  0
 22 16  2  0
 23 22  1  0
 24 25  1  0
 26 25  1  0
 26 28  1  0
 26 27  1  1
 28 30  1  0
 28 29  1  6
 30 32  2  0
 30 31  1  0
M  END
$$$$
