RYI.pdb
     RDKit          3D

 32 32  0  0  1  0  0  0  0  0999 V2000
    9.3475  -12.3268   19.2905 N   0  0  0  0  0  0  0  0  0  0  0  0
    8.7073  -13.3597   18.5530 C   0  0  0  0  0  0  0  0  0  0  0  0
    9.2203  -13.6914   17.4200 N   0  0  0  0  0  0  0  0  0  0  0  0
    7.5530  -14.0304   18.9933 N   0  0  0  0  0  0  0  0  0  0  0  0
    7.2582  -15.4167   18.5957 C   0  0  0  0  0  0  0  0  0  0  0  0
    5.9281  -15.7477   19.1748 C   0  0  0  0  0  0  0  0  0  0  0  0
    5.8891  -15.9677   20.6462 C   0  0  0  0  0  0  0  0  0  0  0  0
    5.9021  -17.3838   21.1066 C   0  0  2  0  0  0  0  0  0  0  0  0
    4.7399  -18.1400   20.7738 N   0  0  0  0  0  0  0  0  0  0  0  0
    6.0466  -17.3664   22.6154 C   0  0  0  0  0  0  0  0  0  0  0  0
    5.1312  -16.8456   23.2764 O   0  0  0  0  0  0  0  0  0  0  0  0
    8.8914  -14.4390   16.8028 O   0  0  0  0  0  0  0  0  0  0  0  0
    9.3501  -19.0302   30.6230 C   0  0  0  0  0  0  0  0  0  0  0  0
    9.0930  -19.0469   29.2586 C   0  0  0  0  0  0  0  0  0  0  0  0
   10.1182  -18.8973   28.3512 C   0  0  0  0  0  0  0  0  0  0  0  0
    9.8365  -18.9171   26.9863 C   0  0  0  0  0  0  0  0  0  0  0  0
    8.5580  -19.0827   26.5146 C   0  0  0  0  0  0  0  0  0  0  0  0
    8.2645  -19.1044   25.0723 C   0  0  2  0  0  0  0  0  0  0  0  0
    7.5810  -17.8694   24.5846 N   0  0  0  0  0  0  0  0  0  0  0  0
    7.1708  -17.9180   23.2344 C   0  0  0  0  0  0  0  0  0  0  0  0
    8.2889  -16.6749   25.0651 O   0  0  0  0  0  0  0  0  0  0  0  0
    9.2960  -16.2337   24.4857 C   0  0  0  0  0  0  0  0  0  0  0  0
    7.5571  -19.2293   27.4420 C   0  0  0  0  0  0  0  0  0  0  0  0
    7.8144  -19.2128   28.8109 C   0  0  0  0  0  0  0  0  0  0  0  0
    5.4423  -12.4065   27.0057 C   0  0  0  0  0  0  0  0  0  0  0  0
    6.5088  -13.2366   26.3675 C   0  0  2  0  0  0  0  0  0  0  0  0
    7.5589  -13.8102   27.2292 C   0  0  0  0  0  0  0  0  0  0  0  0
    8.3634  -12.6775   27.9209 C   0  0  2  0  0  0  0  0  0  0  0  0
    8.5684  -14.7403   26.6766 N   0  0  0  0  0  0  0  0  0  0  0  0
    7.8533  -15.9761   26.2049 C   0  0  0  0  0  0  0  0  0  0  0  0
    9.6735  -15.1883   27.4863 O   0  0  0  0  0  0  0  0  0  0  0  0
   10.9216  -14.6139   27.6039 O   0  0  0  0  0  0  0  0  0  0  0  0
  2  4  1  0
  2  1  1  0
  3  2  2  0
  5  6  1  0
  5  4  1  0
  7  8  1  0
  7  6  1  0
  8 10  1  0
  8  9  1  1
 10 11  2  0
 12 13  1  0
 13 23  2  0
 13 14  1  0
 14 15  2  0
 15 16  1  0
 16 17  1  0
 18 17  1  1
 18 20  1  0
 19 18  1  0
 19 10  1  0
 20 29  1  0
 21 20  2  0
 22 16  2  0
 23 22  1  0
 24 25  1  0
 26 25  1  0
 26 28  1  0
 26 27  1  1
 28 30  1  0
 28 29  1  6
 30 32  2  0
 30 31  1  0
M  END
$$$$
