RYI.pdb
     RDKit          3D

 32 32  0  0  1  0  0  0  0  0999 V2000
   10.2771  -19.3947   16.4115 N   0  0  0  0  0  0  0  0  0  0  0  0
   11.5795  -19.4866   15.8496 C   0  0  0  0  0  0  0  0  0  0  0  0
   11.7938  -20.4167   14.9860 N   0  0  0  0  0  0  0  0  0  0  0  0
   12.6358  -18.6222   16.1863 N   0  0  0  0  0  0  0  0  0  0  0  0
   13.0336  -18.3859   17.5837 C   0  0  0  0  0  0  0  0  0  0  0  0
   11.8573  -17.7742   18.2593 C   0  0  0  0  0  0  0  0  0  0  0  0
   12.0397  -17.4071   19.6901 C   0  0  0  0  0  0  0  0  0  0  0  0
   11.1590  -18.0998   20.6708 C   0  0  2  0  0  0  0  0  0  0  0  0
    9.9280  -18.5873   20.1414 N   0  0  0  0  0  0  0  0  0  0  0  0
   10.8468  -17.1095   21.7752 C   0  0  0  0  0  0  0  0  0  0  0  0
   11.7994  -16.4917   22.2820 O   0  0  0  0  0  0  0  0  0  0  0  0
   12.6615  -20.5701   14.4649 O   0  0  0  0  0  0  0  0  0  0  0  0
    5.8853  -11.7214   26.7006 C   0  0  0  0  0  0  0  0  0  0  0  0
    6.3033  -12.7165   25.8271 C   0  0  0  0  0  0  0  0  0  0  0  0
    6.9767  -12.3945   24.6697 C   0  0  0  0  0  0  0  0  0  0  0  0
    7.3865  -13.4101   23.8075 C   0  0  0  0  0  0  0  0  0  0  0  0
    7.1377  -14.7326   24.0788 C   0  0  0  0  0  0  0  0  0  0  0  0
    7.5731  -15.8026   23.1665 C   0  0  2  0  0  0  0  0  0  0  0  0
    9.0340  -16.1009   23.2521 N   0  0  0  0  0  0  0  0  0  0  0  0
    9.5332  -16.9033   22.2030 C   0  0  0  0  0  0  0  0  0  0  0  0
    9.4028  -16.4359   24.6344 O   0  0  0  0  0  0  0  0  0  0  0  0
    9.4809  -17.6136   25.0237 C   0  0  0  0  0  0  0  0  0  0  0  0
    6.4648  -15.0232   25.2391 C   0  0  0  0  0  0  0  0  0  0  0  0
    6.0455  -14.0253   26.1160 C   0  0  0  0  0  0  0  0  0  0  0  0
   10.2279  -13.6307   30.1411 C   0  0  0  0  0  0  0  0  0  0  0  0
   10.7865  -14.5799   29.1309 C   0  0  2  0  0  0  0  0  0  0  0  0
   10.2113  -14.5758   27.7732 C   0  0  0  0  0  0  0  0  0  0  0  0
    8.7039  -14.2108   27.8303 C   0  0  2  0  0  0  0  0  0  0  0  0
   10.3024  -15.7726   26.9078 N   0  0  0  0  0  0  0  0  0  0  0  0
    9.6863  -15.4334   25.5787 C   0  0  0  0  0  0  0  0  0  0  0  0
    9.7206  -17.0240   27.3236 O   0  0  0  0  0  0  0  0  0  0  0  0
   10.3245  -18.0425   28.0303 O   0  0  0  0  0  0  0  0  0  0  0  0
  2  4  1  0
  2  1  1  0
  3  2  2  0
  5  6  1  0
  5  4  1  0
  7  8  1  0
  7  6  1  0
  8 10  1  0
  8  9  1  6
 10 11  2  0
 12 13  1  0
 13 23  2  0
 13 14  1  0
 14 15  2  0
 15 16  1  0
 16 17  1  0
 18 17  1  6
 18 20  1  0
 19 18  1  0
 19 10  1  0
 20 29  1  0
 21 20  2  0
 22 16  2  0
 23 22  1  0
 24 25  1  0
 26 25  1  0
 26 28  1  0
 26 27  1  6
 28 30  1  0
 28 29  1  1
 30 32  2  0
 30 31  1  0
M  END
$$$$
