FMT.pdb
     RDKit          3D

 27 27  0  0  1  0  0  0  0  0999 V2000
    7.0443  -17.4215   26.1332 N   0  0  0  0  0  0  0  0  0  0  0  0
    7.1451  -16.1900   25.3955 C   0  0  1  0  0  0  0  0  0  0  0  0
    8.2291  -15.3005   25.9507 C   0  0  0  0  0  0  0  0  0  0  0  0
    7.6160  -14.0271   26.3865 C   0  0  0  0  0  0  0  0  0  0  0  0
    6.4424  -13.5944   25.8144 C   0  0  0  0  0  0  0  0  0  0  0  0
    5.8337  -12.3984   26.1989 C   0  0  0  0  0  0  0  0  0  0  0  0
    6.4397  -11.6433   27.1805 C   0  0  0  0  0  0  0  0  0  0  0  0
    7.6113  -12.0496   27.7694 C   0  0  0  0  0  0  0  0  0  0  0  0
    8.1754  -13.2363   27.3582 C   0  0  0  0  0  0  0  0  0  0  0  0
    7.3503  -16.4441   23.9318 C   0  0  0  0  0  0  0  0  0  0  0  0
    7.2720  -17.6055   23.4425 O   0  0  0  0  0  0  0  0  0  0  0  0
    8.4231  -11.4851   20.0886 C   0  0  0  0  0  0  0  0  0  0  0  0
    7.7204  -12.5981   18.8432 S   0  0  0  0  0  0  0  0  0  0  0  0
    7.9345  -14.3531   19.3840 C   0  0  0  0  0  0  0  0  0  0  0  0
    7.7413  -14.3484   20.8427 C   0  0  0  0  0  0  0  0  0  0  0  0
    7.8812  -15.6399   21.5843 C   0  0  2  0  0  0  0  0  0  0  0  0
    7.6426  -15.3843   23.0324 N   0  0  0  0  0  0  0  0  0  0  0  0
    9.1432  -16.3569   21.4105 C   0  0  0  0  0  0  0  0  0  0  0  0
    9.2836  -17.1402   20.4096 O   0  0  0  0  0  0  0  0  0  0  0  0
   11.7227  -15.7235   19.7555 C   0  0  0  0  0  0  0  0  0  0  0  0
   12.3369  -15.9002   21.1110 C   0  0  1  0  0  0  0  0  0  0  0  0
   12.4076  -14.6366   21.6991 O   0  0  0  0  0  0  0  0  0  0  0  0
   11.5412  -16.8632   21.9926 C   0  0  2  0  0  0  0  0  0  0  0  0
   10.2559  -16.2572   22.2705 N   0  0  0  0  0  0  0  0  0  0  0  0
   12.2833  -17.0232   23.2498 C   0  0  0  0  0  0  0  0  0  0  0  0
   11.7937  -16.6274   24.3230 O   0  0  0  0  0  0  0  0  0  0  0  0
   13.5280  -17.6137   23.2498 O   0  0  0  0  0  0  0  0  0  0  0  0
  2  1  1  1
  2 10  1  0
  2  3  1  0
  3  4  1  0
  4  5  2  0
  5  6  1  0
  7  6  2  0
  8  7  1  0
  9  8  2  0
  9  4  1  0
 10 17  1  0
 11 10  2  0
 13 12  1  0
 14 13  1  0
 16 15  1  6
 15 14  1  0
 17 16  1  0
 18 19  2  0
 18 16  1  0
 21 20  1  6
 21 23  1  0
 22 21  1  0
 23 24  1  1
 23 25  1  0
 24 18  1  0
 25 27  1  0
 26 25  2  0
M  END
$$$$
