FMT.pdb
     RDKit          3D

 27 27  0  0  1  0  0  0  0  0999 V2000
    9.4480  -16.9762   21.0167 N   0  0  0  0  0  0  0  0  0  0  0  0
    8.8499  -15.8519   21.6867 C   0  0  1  0  0  0  0  0  0  0  0  0
    7.4669  -15.5653   21.1578 C   0  0  0  0  0  0  0  0  0  0  0  0
    7.5186  -14.3268   20.3510 C   0  0  0  0  0  0  0  0  0  0  0  0
    7.0002  -14.3107   19.0770 C   0  0  0  0  0  0  0  0  0  0  0  0
    7.0306  -13.1615   18.2850 C   0  0  0  0  0  0  0  0  0  0  0  0
    7.5997  -12.0209   18.8106 C   0  0  0  0  0  0  0  0  0  0  0  0
    8.1251  -12.0072   20.0787 C   0  0  0  0  0  0  0  0  0  0  0  0
    8.0729  -13.1640   20.8234 C   0  0  0  0  0  0  0  0  0  0  0  0
    8.8310  -16.0474   23.1735 C   0  0  0  0  0  0  0  0  0  0  0  0
    9.6549  -16.8086   23.7532 O   0  0  0  0  0  0  0  0  0  0  0  0
    6.7908  -11.5974   27.8413 C   0  0  0  0  0  0  0  0  0  0  0  0
    6.0748  -11.7863   26.1875 S   0  0  0  0  0  0  0  0  0  0  0  0
    7.1084  -12.9503   25.1900 C   0  0  0  0  0  0  0  0  0  0  0  0
    7.2088  -14.1814   25.9897 C   0  0  0  0  0  0  0  0  0  0  0  0
    8.0543  -15.3011   25.4710 C   0  0  2  0  0  0  0  0  0  0  0  0
    7.8814  -15.3818   23.9936 N   0  0  0  0  0  0  0  0  0  0  0  0
    7.8294  -16.6167   26.0673 C   0  0  0  0  0  0  0  0  0  0  0  0
    6.6315  -17.0403   26.2117 O   0  0  0  0  0  0  0  0  0  0  0  0
    8.1084  -19.9313   25.0137 C   0  0  0  0  0  0  0  0  0  0  0  0
    8.9767  -19.8797   26.2342 C   0  0  1  0  0  0  0  0  0  0  0  0
   10.2931  -19.7267   25.7970 O   0  0  0  0  0  0  0  0  0  0  0  0
    8.5863  -18.7451   27.1820 C   0  0  2  0  0  0  0  0  0  0  0  0
    8.8446  -17.4901   26.5079 N   0  0  0  0  0  0  0  0  0  0  0  0
    9.4489  -18.8454   28.3663 C   0  0  0  0  0  0  0  0  0  0  0  0
   10.2710  -17.9472   28.6226 O   0  0  0  0  0  0  0  0  0  0  0  0
    9.3538  -19.9358   29.2030 O   0  0  0  0  0  0  0  0  0  0  0  0
  2  1  1  6
  2 10  1  0
  2  3  1  0
  3  4  1  0
  4  5  2  0
  5  6  1  0
  7  6  2  0
  8  7  1  0
  9  8  2  0
  9  4  1  0
 10 17  1  0
 11 10  2  0
 13 12  1  0
 14 13  1  0
 16 15  1  1
 15 14  1  0
 17 16  1  0
 18 19  2  0
 18 16  1  0
 21 20  1  6
 21 23  1  0
 22 21  1  0
 23 24  1  6
 23 25  1  0
 24 18  1  0
 25 27  1  0
 26 25  2  0
M  END
$$$$
