FMT.pdb
     RDKit          3D

 27 27  0  0  1  0  0  0  0  0999 V2000
    7.1066  -19.1575   27.9805 N   0  0  0  0  0  0  0  0  0  0  0  0
    7.6757  -17.9163   27.5262 C   0  0  1  0  0  0  0  0  0  0  0  0
    9.1356  -17.8121   27.8899 C   0  0  0  0  0  0  0  0  0  0  0  0
    9.4097  -16.4324   28.3468 C   0  0  0  0  0  0  0  0  0  0  0  0
    8.9361  -15.3599   27.6274 C   0  0  0  0  0  0  0  0  0  0  0  0
    9.1742  -14.0436   28.0265 C   0  0  0  0  0  0  0  0  0  0  0  0
    9.9060  -13.8318   29.1756 C   0  0  0  0  0  0  0  0  0  0  0  0
   10.3915  -14.8823   29.9140 C   0  0  0  0  0  0  0  0  0  0  0  0
   10.1319  -16.1635   29.4820 C   0  0  0  0  0  0  0  0  0  0  0  0
    7.4703  -17.7269   26.0527 C   0  0  0  0  0  0  0  0  0  0  0  0
    6.3323  -17.8517   25.5200 O   0  0  0  0  0  0  0  0  0  0  0  0
    6.5205  -11.2450   23.6814 C   0  0  0  0  0  0  0  0  0  0  0  0
    6.6955  -12.7498   24.6757 S   0  0  0  0  0  0  0  0  0  0  0  0
    7.5376  -14.0603   23.6800 C   0  0  0  0  0  0  0  0  0  0  0  0
    7.7652  -15.1813   24.6057 C   0  0  0  0  0  0  0  0  0  0  0  0
    8.3841  -16.4334   24.0701 C   0  0  2  0  0  0  0  0  0  0  0  0
    8.5518  -17.3981   25.1928 N   0  0  0  0  0  0  0  0  0  0  0  0
    9.6510  -16.2799   23.3572 C   0  0  0  0  0  0  0  0  0  0  0  0
   10.6578  -15.7868   23.9724 O   0  0  0  0  0  0  0  0  0  0  0  0
   10.3554  -16.9014   19.2032 C   0  0  0  0  0  0  0  0  0  0  0  0
   10.6445  -18.0005   20.1801 C   0  0  1  0  0  0  0  0  0  0  0  0
   11.7120  -18.7380   19.6663 O   0  0  0  0  0  0  0  0  0  0  0  0
   10.9754  -17.4706   21.5756 C   0  0  2  0  0  0  0  0  0  0  0  0
    9.8721  -16.6409   22.0125 N   0  0  0  0  0  0  0  0  0  0  0  0
   12.1847  -16.6457   21.4572 C   0  0  0  0  0  0  0  0  0  0  0  0
   12.1279  -15.4170   21.6457 O   0  0  0  0  0  0  0  0  0  0  0  0
   13.3918  -17.2270   21.1368 O   0  0  0  0  0  0  0  0  0  0  0  0
  2  1  1  6
  2 10  1  0
  2  3  1  0
  3  4  1  0
  4  5  2  0
  5  6  1  0
  7  6  2  0
  8  7  1  0
  9  8  2  0
  9  4  1  0
 10 17  1  0
 11 10  2  0
 13 12  1  0
 14 13  1  0
 16 15  1  1
 15 14  1  0
 17 16  1  0
 18 19  2  0
 18 16  1  0
 21 20  1  6
 21 23  1  0
 22 21  1  0
 23 24  1  6
 23 25  1  0
 24 18  1  0
 25 27  1  0
 26 25  2  0
M  END
$$$$
