FMT.pdb
     RDKit          3D

 27 27  0  0  1  0  0  0  0  0999 V2000
    7.9259  -16.0471   21.6684 N   0  0  0  0  0  0  0  0  0  0  0  0
    9.3555  -16.0046   21.8271 C   0  0  1  0  0  0  0  0  0  0  0  0
    9.9775  -14.9465   20.9507 C   0  0  0  0  0  0  0  0  0  0  0  0
    8.9014  -14.0805   20.4222 C   0  0  0  0  0  0  0  0  0  0  0  0
    8.6817  -12.8389   20.9719 C   0  0  0  0  0  0  0  0  0  0  0  0
    7.6760  -11.9932   20.5007 C   0  0  0  0  0  0  0  0  0  0  0  0
    6.8911  -12.4311   19.4552 C   0  0  0  0  0  0  0  0  0  0  0  0
    7.0869  -13.6652   18.8867 C   0  0  0  0  0  0  0  0  0  0  0  0
    8.0908  -14.4652   19.3842 C   0  0  0  0  0  0  0  0  0  0  0  0
    9.7412  -15.8126   23.2637 C   0  0  0  0  0  0  0  0  0  0  0  0
   10.5509  -14.9110   23.6186 O   0  0  0  0  0  0  0  0  0  0  0  0
    7.8376  -12.3480   27.0711 C   0  0  0  0  0  0  0  0  0  0  0  0
    6.7987  -12.7686   25.6472 S   0  0  0  0  0  0  0  0  0  0  0  0
    6.3575  -14.5631   25.7059 C   0  0  0  0  0  0  0  0  0  0  0  0
    7.3000  -15.2364   24.7984 C   0  0  0  0  0  0  0  0  0  0  0  0
    8.3867  -16.0746   25.3934 C   0  0  2  0  0  0  0  0  0  0  0  0
    9.2093  -16.6406   24.2878 N   0  0  0  0  0  0  0  0  0  0  0  0
    7.9635  -17.1464   26.2929 C   0  0  0  0  0  0  0  0  0  0  0  0
    6.7238  -17.2647   26.5834 O   0  0  0  0  0  0  0  0  0  0  0  0
    8.0164  -20.5436   25.3890 C   0  0  0  0  0  0  0  0  0  0  0  0
    8.7622  -20.4936   26.6879 C   0  0  1  0  0  0  0  0  0  0  0  0
   10.1226  -20.4465   26.3802 O   0  0  0  0  0  0  0  0  0  0  0  0
    8.3604  -19.2946   27.5474 C   0  0  2  0  0  0  0  0  0  0  0  0
    8.8239  -18.0936   26.8846 N   0  0  0  0  0  0  0  0  0  0  0  0
    9.0456  -19.4304   28.8392 C   0  0  0  0  0  0  0  0  0  0  0  0
    9.8976  -18.5938   29.1892 O   0  0  0  0  0  0  0  0  0  0  0  0
    8.7495  -20.4858   29.6735 O   0  0  0  0  0  0  0  0  0  0  0  0
  2  1  1  1
  2 10  1  0
  2  3  1  0
  3  4  1  0
  4  5  2  0
  5  6  1  0
  7  6  2  0
  8  7  1  0
  9  8  2  0
  9  4  1  0
 10 17  1  0
 11 10  2  0
 13 12  1  0
 14 13  1  0
 16 15  1  6
 15 14  1  0
 17 16  1  0
 18 19  2  0
 18 16  1  0
 21 20  1  6
 21 23  1  0
 22 21  1  0
 23 24  1  6
 23 25  1  0
 24 18  1  0
 25 27  1  0
 26 25  2  0
M  END
$$$$
