FMT.pdb
     RDKit          3D

 27 27  0  0  1  0  0  0  0  0999 V2000
    7.2195  -17.1769   21.1268 N   0  0  0  0  0  0  0  0  0  0  0  0
    8.6225  -16.8598   21.1682 C   0  0  1  0  0  0  0  0  0  0  0  0
    9.0322  -16.0116   19.9903 C   0  0  0  0  0  0  0  0  0  0  0  0
    8.4879  -14.6495   20.1789 C   0  0  0  0  0  0  0  0  0  0  0  0
    7.1415  -14.4161   20.0214 C   0  0  0  0  0  0  0  0  0  0  0  0
    6.5906  -13.1446   20.1908 C   0  0  0  0  0  0  0  0  0  0  0  0
    7.4342  -12.1065   20.5249 C   0  0  0  0  0  0  0  0  0  0  0  0
    8.7820  -12.3093   20.6886 C   0  0  0  0  0  0  0  0  0  0  0  0
    9.2808  -13.5803   20.5115 C   0  0  0  0  0  0  0  0  0  0  0  0
    8.9973  -16.2038   22.4638 C   0  0  0  0  0  0  0  0  0  0  0  0
   10.1981  -15.9385   22.7502 O   0  0  0  0  0  0  0  0  0  0  0  0
    6.8212  -11.1396   25.6551 C   0  0  0  0  0  0  0  0  0  0  0  0
    6.3423  -12.4845   26.7711 S   0  0  0  0  0  0  0  0  0  0  0  0
    7.5590  -13.8699   26.6357 C   0  0  0  0  0  0  0  0  0  0  0  0
    7.4572  -14.3575   25.2511 C   0  0  0  0  0  0  0  0  0  0  0  0
    8.3902  -15.4385   24.8057 C   0  0  2  0  0  0  0  0  0  0  0  0
    8.0128  -15.8529   23.4255 N   0  0  0  0  0  0  0  0  0  0  0  0
    8.4812  -16.6158   25.6675 C   0  0  0  0  0  0  0  0  0  0  0  0
    7.4152  -17.2578   25.9621 O   0  0  0  0  0  0  0  0  0  0  0  0
    9.4186  -19.8387   25.0413 C   0  0  0  0  0  0  0  0  0  0  0  0
   10.3242  -19.4453   26.1687 C   0  0  1  0  0  0  0  0  0  0  0  0
   11.5374  -19.0496   25.6037 O   0  0  0  0  0  0  0  0  0  0  0  0
    9.7366  -18.3248   27.0273 C   0  0  2  0  0  0  0  0  0  0  0  0
    9.6748  -17.1262   26.2174 N   0  0  0  0  0  0  0  0  0  0  0  0
   10.6562  -18.1036   28.1507 C   0  0  0  0  0  0  0  0  0  0  0  0
   11.3234  -17.0556   28.2194 O   0  0  0  0  0  0  0  0  0  0  0  0
   10.7864  -19.0558   29.1378 O   0  0  0  0  0  0  0  0  0  0  0  0
  2  1  1  1
  2 10  1  0
  2  3  1  0
  3  4  1  0
  4  5  2  0
  5  6  1  0
  7  6  2  0
  8  7  1  0
  9  8  2  0
  9  4  1  0
 10 17  1  0
 11 10  2  0
 13 12  1  0
 14 13  1  0
 16 15  1  1
 15 14  1  0
 17 16  1  0
 18 19  2  0
 18 16  1  0
 21 20  1  6
 21 23  1  0
 22 21  1  0
 23 24  1  6
 23 25  1  0
 24 18  1  0
 25 27  1  0
 26 25  2  0
M  END
$$$$
