FMT.pdb
     RDKit          3D

 27 27  0  0  1  0  0  0  0  0999 V2000
    5.6277  -18.1189   25.3149 N   0  0  0  0  0  0  0  0  0  0  0  0
    6.3547  -16.8917   25.1249 C   0  0  1  0  0  0  0  0  0  0  0  0
    7.1466  -16.5226   26.3542 C   0  0  0  0  0  0  0  0  0  0  0  0
    7.2687  -15.0498   26.4110 C   0  0  0  0  0  0  0  0  0  0  0  0
    8.5112  -14.4611   26.4514 C   0  0  0  0  0  0  0  0  0  0  0  0
    8.6670  -13.0749   26.5056 C   0  0  0  0  0  0  0  0  0  0  0  0
    7.5333  -12.2903   26.5184 C   0  0  0  0  0  0  0  0  0  0  0  0
    6.2802  -12.8496   26.4791 C   0  0  0  0  0  0  0  0  0  0  0  0
    6.1752  -14.2213   26.4261 C   0  0  0  0  0  0  0  0  0  0  0  0
    7.2363  -16.9597   23.9135 C   0  0  0  0  0  0  0  0  0  0  0  0
    7.6218  -18.0626   23.4346 O   0  0  0  0  0  0  0  0  0  0  0  0
    7.9824  -11.5595   20.2809 C   0  0  0  0  0  0  0  0  0  0  0  0
    6.9079  -12.8977   19.6996 S   0  0  0  0  0  0  0  0  0  0  0  0
    6.8504  -14.2450   20.9644 C   0  0  0  0  0  0  0  0  0  0  0  0
    8.2497  -14.6381   21.1937 C   0  0  0  0  0  0  0  0  0  0  0  0
    8.5221  -15.8487   22.0291 C   0  0  2  0  0  0  0  0  0  0  0  0
    7.6755  -15.7816   23.2529 N   0  0  0  0  0  0  0  0  0  0  0  0
    9.9158  -16.0803   22.4045 C   0  0  0  0  0  0  0  0  0  0  0  0
   10.8186  -16.0563   21.4991 O   0  0  0  0  0  0  0  0  0  0  0  0
   11.5770  -15.0298   26.0611 C   0  0  0  0  0  0  0  0  0  0  0  0
   11.9020  -16.4089   25.5726 C   0  0  1  0  0  0  0  0  0  0  0  0
   11.0404  -17.2910   26.2261 O   0  0  0  0  0  0  0  0  0  0  0  0
   11.7618  -16.5402   24.0557 C   0  0  2  0  0  0  0  0  0  0  0  0
   10.3701  -16.3315   23.7153 N   0  0  0  0  0  0  0  0  0  0  0  0
   12.1484  -17.9105   23.6956 C   0  0  0  0  0  0  0  0  0  0  0  0
   11.3181  -18.6837   23.1847 O   0  0  0  0  0  0  0  0  0  0  0  0
   13.4345  -18.3499   23.9208 O   0  0  0  0  0  0  0  0  0  0  0  0
  2  1  1  1
  2 10  1  0
  2  3  1  0
  3  4  1  0
  4  5  2  0
  5  6  1  0
  7  6  2  0
  8  7  1  0
  9  8  2  0
  9  4  1  0
 10 17  1  0
 11 10  2  0
 13 12  1  0
 14 13  1  0
 16 15  1  1
 15 14  1  0
 17 16  1  0
 18 19  2  0
 18 16  1  0
 21 20  1  1
 21 23  1  0
 22 21  1  0
 23 24  1  1
 23 25  1  0
 24 18  1  0
 25 27  1  0
 26 25  2  0
M  END
$$$$
