FMT.pdb
     RDKit          3D

 27 27  0  0  1  0  0  0  0  0999 V2000
   10.8540  -17.3275   21.3351 N   0  0  0  0  0  0  0  0  0  0  0  0
    9.8600  -16.3163   21.5804 C   0  0  1  0  0  0  0  0  0  0  0  0
    8.6573  -16.4960   20.6883 C   0  0  0  0  0  0  0  0  0  0  0  0
    8.1206  -15.1608   20.3468 C   0  0  0  0  0  0  0  0  0  0  0  0
    8.6652  -14.4430   19.3075 C   0  0  0  0  0  0  0  0  0  0  0  0
    8.1862  -13.1799   18.9553 C   0  0  0  0  0  0  0  0  0  0  0  0
    7.1382  -12.6534   19.6802 C   0  0  0  0  0  0  0  0  0  0  0  0
    6.5747  -13.3464   20.7226 C   0  0  0  0  0  0  0  0  0  0  0  0
    7.0799  -14.5888   21.0340 C   0  0  0  0  0  0  0  0  0  0  0  0
    9.4612  -16.2800   23.0257 C   0  0  0  0  0  0  0  0  0  0  0  0
   10.2085  -16.7430   23.9320 O   0  0  0  0  0  0  0  0  0  0  0  0
    7.1778  -11.1913   27.7068 C   0  0  0  0  0  0  0  0  0  0  0  0
    7.6115  -12.1161   26.2101 S   0  0  0  0  0  0  0  0  0  0  0  0
    6.4541  -13.5427   26.0016 C   0  0  0  0  0  0  0  0  0  0  0  0
    6.8610  -14.2085   24.7541 C   0  0  0  0  0  0  0  0  0  0  0  0
    8.0546  -15.1096   24.7836 C   0  0  2  0  0  0  0  0  0  0  0  0
    8.2214  -15.7213   23.4356 N   0  0  0  0  0  0  0  0  0  0  0  0
    8.0552  -16.1558   25.8045 C   0  0  0  0  0  0  0  0  0  0  0  0
    8.1102  -15.8243   27.0383 O   0  0  0  0  0  0  0  0  0  0  0  0
    6.1293  -19.8041   25.4480 C   0  0  0  0  0  0  0  0  0  0  0  0
    7.5378  -19.8694   25.9556 C   0  0  1  0  0  0  0  0  0  0  0  0
    8.3502  -20.2108   24.8734 O   0  0  0  0  0  0  0  0  0  0  0  0
    7.9959  -18.5515   26.5811 C   0  0  2  0  0  0  0  0  0  0  0  0
    7.9946  -17.5402   25.5449 N   0  0  0  0  0  0  0  0  0  0  0  0
    9.3686  -18.7481   27.0645 C   0  0  0  0  0  0  0  0  0  0  0  0
    9.6113  -19.6021   27.9363 O   0  0  0  0  0  0  0  0  0  0  0  0
   10.3985  -17.9878   26.5554 O   0  0  0  0  0  0  0  0  0  0  0  0
  2  1  1  1
  2 10  1  0
  2  3  1  0
  3  4  1  0
  4  5  2  0
  5  6  1  0
  7  6  2  0
  8  7  1  0
  9  8  2  0
  9  4  1  0
 10 17  1  0
 11 10  2  0
 13 12  1  0
 14 13  1  0
 16 15  1  6
 15 14  1  0
 17 16  1  0
 18 19  2  0
 18 16  1  0
 21 20  1  6
 21 23  1  0
 22 21  1  0
 23 24  1  6
 23 25  1  0
 24 18  1  0
 25 27  1  0
 26 25  2  0
M  END
$$$$
