FMT.pdb
     RDKit          3D

 27 27  0  0  1  0  0  0  0  0999 V2000
    8.4433  -16.6079   26.2050 N   0  0  0  0  0  0  0  0  0  0  0  0
    7.1808  -16.7546   25.5301 C   0  0  1  0  0  0  0  0  0  0  0  0
    6.1310  -15.8454   26.1182 C   0  0  0  0  0  0  0  0  0  0  0  0
    6.7428  -14.5233   26.3736 C   0  0  0  0  0  0  0  0  0  0  0  0
    7.8999  -14.4288   27.1113 C   0  0  0  0  0  0  0  0  0  0  0  0
    8.5068  -13.1993   27.3735 C   0  0  0  0  0  0  0  0  0  0  0  0
    7.9161  -12.0591   26.8715 C   0  0  0  0  0  0  0  0  0  0  0  0
    6.7611  -12.1224   26.1322 C   0  0  0  0  0  0  0  0  0  0  0  0
    6.1981  -13.3570   25.8988 C   0  0  0  0  0  0  0  0  0  0  0  0
    7.3209  -16.5351   24.0532 C   0  0  0  0  0  0  0  0  0  0  0  0
    6.3469  -16.6881   23.2643 O   0  0  0  0  0  0  0  0  0  0  0  0
    6.6027  -11.4387   20.1560 C   0  0  0  0  0  0  0  0  0  0  0  0
    8.0617  -12.4952   20.3527 S   0  0  0  0  0  0  0  0  0  0  0  0
    7.6622  -13.9064   21.4784 C   0  0  0  0  0  0  0  0  0  0  0  0
    8.8819  -14.7273   21.5387 C   0  0  0  0  0  0  0  0  0  0  0  0
    8.7650  -16.1443   22.0036 C   0  0  2  0  0  0  0  0  0  0  0  0
    8.5600  -16.1447   23.4792 N   0  0  0  0  0  0  0  0  0  0  0  0
    9.8706  -17.0360   21.6582 C   0  0  0  0  0  0  0  0  0  0  0  0
   10.7579  -17.3011   22.5401 O   0  0  0  0  0  0  0  0  0  0  0  0
   12.0466  -20.0373   18.2939 C   0  0  0  0  0  0  0  0  0  0  0  0
   10.9535  -19.0950   18.6979 C   0  0  1  0  0  0  0  0  0  0  0  0
    9.7638  -19.8244   18.7083 O   0  0  0  0  0  0  0  0  0  0  0  0
   11.2076  -18.4553   20.0632 C   0  0  2  0  0  0  0  0  0  0  0  0
   10.0514  -17.6528   20.4034 N   0  0  0  0  0  0  0  0  0  0  0  0
   12.3806  -17.5821   19.9281 C   0  0  0  0  0  0  0  0  0  0  0  0
   12.2619  -16.4404   19.4477 O   0  0  0  0  0  0  0  0  0  0  0  0
   13.6221  -18.0211   20.3330 O   0  0  0  0  0  0  0  0  0  0  0  0
  2  1  1  1
  2 10  1  0
  2  3  1  0
  3  4  1  0
  4  5  2  0
  5  6  1  0
  7  6  2  0
  8  7  1  0
  9  8  2  0
  9  4  1  0
 10 17  1  0
 11 10  2  0
 13 12  1  0
 14 13  1  0
 16 15  1  1
 15 14  1  0
 17 16  1  0
 18 19  2  0
 18 16  1  0
 21 20  1  1
 21 23  1  0
 22 21  1  0
 23 24  1  6
 23 25  1  0
 24 18  1  0
 25 27  1  0
 26 25  2  0
M  END
$$$$
