FMT.pdb
     RDKit          3D

 27 27  0  0  1  0  0  0  0  0999 V2000
    5.9213  -18.4566   25.2493 N   0  0  0  0  0  0  0  0  0  0  0  0
    6.3608  -17.0871   25.2957 C   0  0  1  0  0  0  0  0  0  0  0  0
    6.5480  -16.6147   26.7157 C   0  0  0  0  0  0  0  0  0  0  0  0
    6.6147  -15.1373   26.7155 C   0  0  0  0  0  0  0  0  0  0  0  0
    5.6629  -14.4033   26.0468 C   0  0  0  0  0  0  0  0  0  0  0  0
    5.6922  -13.0078   26.0236 C   0  0  0  0  0  0  0  0  0  0  0  0
    6.7105  -12.3647   26.6948 C   0  0  0  0  0  0  0  0  0  0  0  0
    7.6744  -13.0708   27.3707 C   0  0  0  0  0  0  0  0  0  0  0  0
    7.6051  -14.4458   27.3662 C   0  0  0  0  0  0  0  0  0  0  0  0
    7.6090  -16.8853   24.4892 C   0  0  0  0  0  0  0  0  0  0  0  0
    8.4730  -17.7975   24.3643 O   0  0  0  0  0  0  0  0  0  0  0  0
    8.7374  -11.6870   20.1326 C   0  0  0  0  0  0  0  0  0  0  0  0
    7.9691  -13.2825   19.7485 S   0  0  0  0  0  0  0  0  0  0  0  0
    7.5439  -14.1633   21.3174 C   0  0  0  0  0  0  0  0  0  0  0  0
    8.8067  -14.2839   22.0630 C   0  0  0  0  0  0  0  0  0  0  0  0
    9.0258  -15.5034   22.9012 C   0  0  2  0  0  0  0  0  0  0  0  0
    7.8714  -15.6546   23.8306 N   0  0  0  0  0  0  0  0  0  0  0  0
   10.2772  -15.5592   23.6547 C   0  0  0  0  0  0  0  0  0  0  0  0
   11.3883  -15.5390   23.0220 O   0  0  0  0  0  0  0  0  0  0  0  0
   10.7965  -14.1603   27.5770 C   0  0  0  0  0  0  0  0  0  0  0  0
   11.3392  -15.5216   27.2636 C   0  0  1  0  0  0  0  0  0  0  0  0
   10.3954  -16.4520   27.7007 O   0  0  0  0  0  0  0  0  0  0  0  0
   11.6309  -15.7063   25.7740 C   0  0  2  0  0  0  0  0  0  0  0  0
   10.3739  -15.6312   25.0593 N   0  0  0  0  0  0  0  0  0  0  0  0
   12.2070  -17.0461   25.6017 C   0  0  0  0  0  0  0  0  0  0  0  0
   11.5911  -17.9171   24.9611 O   0  0  0  0  0  0  0  0  0  0  0  0
   13.4349  -17.3484   26.1484 O   0  0  0  0  0  0  0  0  0  0  0  0
  2  1  1  1
  2 10  1  0
  2  3  1  0
  3  4  1  0
  4  5  2  0
  5  6  1  0
  7  6  2  0
  8  7  1  0
  9  8  2  0
  9  4  1  0
 10 17  1  0
 11 10  2  0
 13 12  1  0
 14 13  1  0
 16 15  1  1
 15 14  1  0
 17 16  1  0
 18 19  2  0
 18 16  1  0
 21 20  1  6
 21 23  1  0
 22 21  1  0
 23 24  1  6
 23 25  1  0
 24 18  1  0
 25 27  1  0
 26 25  2  0
M  END
$$$$
