AGW.pdb
     RDKit          3D

 24 25  0  0  1  0  0  0  0  0999 V2000
    7.2833  -12.8608   18.7763 C   0  0  0  0  0  0  0  0  0  0  0  0
    8.5987  -13.5615   19.0761 C   0  0  2  0  0  0  0  0  0  0  0  0
    8.9030  -14.3742   17.9129 N   0  0  0  0  0  0  0  0  0  0  0  0
    8.4184  -14.3596   20.2929 C   0  0  0  0  0  0  0  0  0  0  0  0
    8.1440  -13.7810   21.3757 O   0  0  0  0  0  0  0  0  0  0  0  0
    8.5354  -15.7800   20.3340 N   0  0  0  0  0  0  0  0  0  0  0  0
    8.2985  -16.4912   21.5619 C   0  0  0  0  0  0  0  0  0  0  0  0
    9.1945  -16.1574   22.6658 C   0  0  0  0  0  0  0  0  0  0  0  0
   10.3064  -15.6175   22.3215 O   0  0  0  0  0  0  0  0  0  0  0  0
    8.9831  -16.3553   24.0360 N   0  0  0  0  0  0  0  0  0  0  0  0
    9.9681  -16.0778   25.0550 C   0  0  1  0  0  0  0  0  0  0  0  0
    9.3139  -15.7689   26.3903 C   0  0  0  0  0  0  0  0  0  0  0  0
    7.9703  -15.1701   26.2288 C   0  0  0  0  0  0  0  0  0  0  0  0
    6.7809  -15.8286   25.8967 C   0  0  0  0  0  0  0  0  0  0  0  0
    5.7662  -14.9752   25.8361 N   0  0  0  0  0  0  0  0  0  0  0  0
    6.2723  -13.7647   26.1238 C   0  0  0  0  0  0  0  0  0  0  0  0
    5.6084  -12.5586   26.1863 C   0  0  0  0  0  0  0  0  0  0  0  0
    6.3345  -11.4480   26.5005 C   0  0  0  0  0  0  0  0  0  0  0  0
    7.6957  -11.4882   26.7555 C   0  0  0  0  0  0  0  0  0  0  0  0
    8.3613  -12.7016   26.6924 C   0  0  0  0  0  0  0  0  0  0  0  0
    7.6246  -13.8350   26.3726 C   0  0  0  0  0  0  0  0  0  0  0  0
   10.8848  -17.2181   25.2411 C   0  0  0  0  0  0  0  0  0  0  0  0
   10.6695  -18.4398   24.6404 O   0  0  0  0  0  0  0  0  0  0  0  0
   11.9045  -17.1039   25.9655 O   0  0  0  0  0  0  0  0  0  0  0  0
  2  1  1  6
  3  2  1  0
  4  6  1  0
  4  2  1  0
  5  4  2  0
  7  8  1  0
  7  6  1  0
  8 10  1  0
  9  8  2  0
 10 11  1  0
 11 12  1  1
 12 13  1  0
 13 14  2  0
 13 21  1  0
 14 15  1  0
 15 16  1  0
 16 17  2  0
 17 18  1  0
 19 18  2  0
 20 19  1  0
 21 20  2  0
 21 16  1  0
 22 23  1  0
 22 11  1  0
 24 22  2  0
M  END
$$$$
