AGW.pdb
     RDKit          3D

 24 25  0  0  1  0  0  0  0  0999 V2000
   11.6503  -18.6834   18.4516 C   0  0  0  0  0  0  0  0  0  0  0  0
   10.2258  -18.1938   18.2459 C   0  0  2  0  0  0  0  0  0  0  0  0
   10.3230  -16.9635   17.4822 N   0  0  0  0  0  0  0  0  0  0  0  0
    9.6216  -17.9939   19.5669 C   0  0  0  0  0  0  0  0  0  0  0  0
    9.4389  -18.9859   20.3186 O   0  0  0  0  0  0  0  0  0  0  0  0
    9.2175  -16.7224   20.0697 N   0  0  0  0  0  0  0  0  0  0  0  0
    8.5690  -16.6225   21.3499 C   0  0  0  0  0  0  0  0  0  0  0  0
    9.4432  -16.3038   22.4755 C   0  0  0  0  0  0  0  0  0  0  0  0
   10.6373  -15.9582   22.1577 O   0  0  0  0  0  0  0  0  0  0  0  0
    9.1332  -16.3313   23.8410 N   0  0  0  0  0  0  0  0  0  0  0  0
   10.0387  -15.9121   24.8849 C   0  0  1  0  0  0  0  0  0  0  0  0
    9.3333  -15.8154   26.2263 C   0  0  0  0  0  0  0  0  0  0  0  0
    8.0039  -15.1752   26.1135 C   0  0  0  0  0  0  0  0  0  0  0  0
    6.7725  -15.8055   25.9016 C   0  0  0  0  0  0  0  0  0  0  0  0
    5.7868  -14.9182   25.8517 N   0  0  0  0  0  0  0  0  0  0  0  0
    6.3533  -13.7131   26.0278 C   0  0  0  0  0  0  0  0  0  0  0  0
    5.7381  -12.4802   26.0552 C   0  0  0  0  0  0  0  0  0  0  0  0
    6.5223  -11.3818   26.2500 C   0  0  0  0  0  0  0  0  0  0  0  0
    7.8952  -11.4598   26.4190 C   0  0  0  0  0  0  0  0  0  0  0  0
    8.5119  -12.7001   26.3912 C   0  0  0  0  0  0  0  0  0  0  0  0
    7.7159  -13.8211   26.1930 C   0  0  0  0  0  0  0  0  0  0  0  0
   11.1700  -16.8482   25.0229 C   0  0  0  0  0  0  0  0  0  0  0  0
   12.3287  -16.5078   25.6873 O   0  0  0  0  0  0  0  0  0  0  0  0
   11.1063  -18.0014   24.5292 O   0  0  0  0  0  0  0  0  0  0  0  0
  2  1  1  1
  3  2  1  0
  4  6  1  0
  4  2  1  0
  5  4  2  0
  7  8  1  0
  7  6  1  0
  8 10  1  0
  9  8  2  0
 10 11  1  0
 11 12  1  1
 12 13  1  0
 13 14  2  0
 13 21  1  0
 14 15  1  0
 15 16  1  0
 16 17  2  0
 17 18  1  0
 19 18  2  0
 20 19  1  0
 21 20  2  0
 21 16  1  0
 22 23  1  0
 22 11  1  0
 24 22  2  0
M  END
$$$$
