AGW.pdb
     RDKit          3D

 24 25  0  0  1  0  0  0  0  0999 V2000
    6.9295  -13.5203   18.5318 C   0  0  0  0  0  0  0  0  0  0  0  0
    8.2302  -13.1680   19.2355 C   0  0  2  0  0  0  0  0  0  0  0  0
    9.1927  -12.8715   18.1905 N   0  0  0  0  0  0  0  0  0  0  0  0
    8.6238  -14.3159   20.0587 C   0  0  0  0  0  0  0  0  0  0  0  0
    7.8658  -14.6989   20.9868 O   0  0  0  0  0  0  0  0  0  0  0  0
    9.8353  -15.0449   19.8751 N   0  0  0  0  0  0  0  0  0  0  0  0
   10.1814  -16.1131   20.7745 C   0  0  0  0  0  0  0  0  0  0  0  0
   10.8065  -15.7024   22.0288 C   0  0  0  0  0  0  0  0  0  0  0  0
   11.5848  -14.6859   21.9430 O   0  0  0  0  0  0  0  0  0  0  0  0
   10.6565  -16.2811   23.2953 N   0  0  0  0  0  0  0  0  0  0  0  0
    9.8163  -15.7401   24.3377 C   0  0  1  0  0  0  0  0  0  0  0  0
    8.3951  -15.5226   23.8487 C   0  0  0  0  0  0  0  0  0  0  0  0
    7.5236  -14.9528   24.9003 C   0  0  0  0  0  0  0  0  0  0  0  0
    6.5826  -15.6307   25.6836 C   0  0  0  0  0  0  0  0  0  0  0  0
    5.9796  -14.8012   26.5262 N   0  0  0  0  0  0  0  0  0  0  0  0
    6.5113  -13.5872   26.3074 C   0  0  0  0  0  0  0  0  0  0  0  0
    6.2084  -12.4001   26.9385 C   0  0  0  0  0  0  0  0  0  0  0  0
    6.8827  -11.2813   26.5475 C   0  0  0  0  0  0  0  0  0  0  0  0
    7.8475  -11.2952   25.5532 C   0  0  0  0  0  0  0  0  0  0  0  0
    8.1508  -12.4896   24.9200 C   0  0  0  0  0  0  0  0  0  0  0  0
    7.4656  -13.6312   25.3159 C   0  0  0  0  0  0  0  0  0  0  0  0
    9.7712  -16.6341   25.5098 C   0  0  0  0  0  0  0  0  0  0  0  0
    9.9302  -17.9988   25.3998 O   0  0  0  0  0  0  0  0  0  0  0  0
    9.5829  -16.1668   26.6605 O   0  0  0  0  0  0  0  0  0  0  0  0
  2  1  1  6
  3  2  1  0
  4  6  1  0
  4  2  1  0
  5  4  2  0
  7  8  1  0
  7  6  1  0
  8 10  1  0
  9  8  2  0
 10 11  1  0
 11 12  1  6
 12 13  1  0
 13 14  2  0
 13 21  1  0
 14 15  1  0
 15 16  1  0
 16 17  2  0
 17 18  1  0
 19 18  2  0
 20 19  1  0
 21 20  2  0
 21 16  1  0
 22 23  1  0
 22 11  1  0
 24 22  2  0
M  END
$$$$
