AGW.pdb
     RDKit          3D

 24 25  0  0  1  0  0  0  0  0999 V2000
    7.9639  -19.6292   18.9607 C   0  0  0  0  0  0  0  0  0  0  0  0
    8.5622  -19.4412   20.3455 C   0  0  2  0  0  0  0  0  0  0  0  0
    7.5563  -19.8918   21.2897 N   0  0  0  0  0  0  0  0  0  0  0  0
    8.8935  -18.0218   20.5057 C   0  0  0  0  0  0  0  0  0  0  0  0
   10.0521  -17.6225   20.2216 O   0  0  0  0  0  0  0  0  0  0  0  0
    7.9708  -17.0400   20.9722 N   0  0  0  0  0  0  0  0  0  0  0  0
    8.3795  -15.6671   21.1053 C   0  0  0  0  0  0  0  0  0  0  0  0
    9.0436  -15.3267   22.3606 C   0  0  0  0  0  0  0  0  0  0  0  0
    9.4549  -14.1145   22.4487 O   0  0  0  0  0  0  0  0  0  0  0  0
    9.2795  -16.1581   23.4627 N   0  0  0  0  0  0  0  0  0  0  0  0
   10.0596  -15.7721   24.6151 C   0  0  1  0  0  0  0  0  0  0  0  0
    9.2807  -15.9681   25.9040 C   0  0  0  0  0  0  0  0  0  0  0  0
    7.9597  -15.3022   25.8651 C   0  0  0  0  0  0  0  0  0  0  0  0
    6.7149  -15.8972   25.6307 C   0  0  0  0  0  0  0  0  0  0  0  0
    5.7424  -14.9947   25.6664 N   0  0  0  0  0  0  0  0  0  0  0  0
    6.3310  -13.8144   25.9209 C   0  0  0  0  0  0  0  0  0  0  0  0
    5.7359  -12.5783   26.0522 C   0  0  0  0  0  0  0  0  0  0  0  0
    6.5407  -11.5089   26.3131 C   0  0  0  0  0  0  0  0  0  0  0  0
    7.9151  -11.6190   26.4491 C   0  0  0  0  0  0  0  0  0  0  0  0
    8.5115  -12.8625   26.3169 C   0  0  0  0  0  0  0  0  0  0  0  0
    7.6945  -13.9540   26.0511 C   0  0  0  0  0  0  0  0  0  0  0  0
   11.3078  -16.5525   24.7049 C   0  0  0  0  0  0  0  0  0  0  0  0
   12.3223  -16.2184   25.5762 O   0  0  0  0  0  0  0  0  0  0  0  0
   11.4826  -17.5606   23.9763 O   0  0  0  0  0  0  0  0  0  0  0  0
  2  1  1  6
  3  2  1  0
  4  6  1  0
  4  2  1  0
  5  4  2  0
  7  8  1  0
  7  6  1  0
  8 10  1  0
  9  8  2  0
 10 11  1  0
 11 12  1  1
 12 13  1  0
 13 14  2  0
 13 21  1  0
 14 15  1  0
 15 16  1  0
 16 17  2  0
 17 18  1  0
 19 18  2  0
 20 19  1  0
 21 20  2  0
 21 16  1  0
 22 23  1  0
 22 11  1  0
 24 22  2  0
M  END
$$$$
