AGW.pdb
     RDKit          3D

 24 25  0  0  1  0  0  0  0  0999 V2000
    7.3788  -20.0446   18.7638 C   0  0  0  0  0  0  0  0  0  0  0  0
    8.1919  -19.7162   20.0057 C   0  0  2  0  0  0  0  0  0  0  0  0
    7.3964  -20.1471   21.1405 N   0  0  0  0  0  0  0  0  0  0  0  0
    8.4479  -18.2724   20.0093 C   0  0  0  0  0  0  0  0  0  0  0  0
    9.2604  -17.7874   19.1803 O   0  0  0  0  0  0  0  0  0  0  0  0
    7.8245  -17.3589   20.9092 N   0  0  0  0  0  0  0  0  0  0  0  0
    8.2005  -15.9703   20.9080 C   0  0  0  0  0  0  0  0  0  0  0  0
    8.9024  -15.5070   22.1019 C   0  0  0  0  0  0  0  0  0  0  0  0
    9.2789  -14.2808   22.0718 O   0  0  0  0  0  0  0  0  0  0  0  0
    9.2069  -16.2357   23.2585 N   0  0  0  0  0  0  0  0  0  0  0  0
   10.0251  -15.7351   24.3381 C   0  0  1  0  0  0  0  0  0  0  0  0
    9.3460  -15.9239   25.6833 C   0  0  0  0  0  0  0  0  0  0  0  0
    7.9953  -15.3200   25.7167 C   0  0  0  0  0  0  0  0  0  0  0  0
    6.7707  -15.9654   25.5110 C   0  0  0  0  0  0  0  0  0  0  0  0
    5.7602  -15.1111   25.6133 N   0  0  0  0  0  0  0  0  0  0  0  0
    6.3038  -13.9128   25.8833 C   0  0  0  0  0  0  0  0  0  0  0  0
    5.6584  -12.7107   26.0775 C   0  0  0  0  0  0  0  0  0  0  0  0
    6.4231  -11.6132   26.3419 C   0  0  0  0  0  0  0  0  0  0  0  0
    7.8055  -11.6626   26.4215 C   0  0  0  0  0  0  0  0  0  0  0  0
    8.4525  -12.8721   26.2261 C   0  0  0  0  0  0  0  0  0  0  0  0
    7.6764  -13.9921   25.9565 C   0  0  0  0  0  0  0  0  0  0  0  0
   11.3335  -16.4146   24.3804 C   0  0  0  0  0  0  0  0  0  0  0  0
   12.3632  -15.9769   25.1854 O   0  0  0  0  0  0  0  0  0  0  0  0
   11.5479  -17.4285   23.6707 O   0  0  0  0  0  0  0  0  0  0  0  0
  2  1  1  6
  3  2  1  0
  4  6  1  0
  4  2  1  0
  5  4  2  0
  7  8  1  0
  7  6  1  0
  8 10  1  0
  9  8  2  0
 10 11  1  0
 11 12  1  1
 12 13  1  0
 13 14  2  0
 13 21  1  0
 14 15  1  0
 15 16  1  0
 16 17  2  0
 17 18  1  0
 19 18  2  0
 20 19  1  0
 21 20  2  0
 21 16  1  0
 22 23  1  0
 22 11  1  0
 24 22  2  0
M  END
$$$$
