AGW.pdb
     RDKit          3D

 24 25  0  0  1  0  0  0  0  0999 V2000
    7.4720  -20.0824   19.4120 C   0  0  0  0  0  0  0  0  0  0  0  0
    8.2502  -19.7304   20.6696 C   0  0  2  0  0  0  0  0  0  0  0  0
    7.3653  -20.0027   21.7872 N   0  0  0  0  0  0  0  0  0  0  0  0
    8.6345  -18.3180   20.5827 C   0  0  0  0  0  0  0  0  0  0  0  0
    9.6815  -18.0001   19.9621 O   0  0  0  0  0  0  0  0  0  0  0  0
    7.8850  -17.2551   21.1670 N   0  0  0  0  0  0  0  0  0  0  0  0
    8.3687  -15.9022   21.0941 C   0  0  0  0  0  0  0  0  0  0  0  0
    9.0800  -15.4233   22.2762 C   0  0  0  0  0  0  0  0  0  0  0  0
    9.5579  -14.2363   22.1814 O   0  0  0  0  0  0  0  0  0  0  0  0
    9.2971  -16.0998   23.4831 N   0  0  0  0  0  0  0  0  0  0  0  0
   10.1220  -15.5960   24.5560 C   0  0  1  0  0  0  0  0  0  0  0  0
    9.4251  -15.7237   25.8993 C   0  0  0  0  0  0  0  0  0  0  0  0
    8.0710  -15.1268   25.8850 C   0  0  0  0  0  0  0  0  0  0  0  0
    6.8519  -15.7901   25.7053 C   0  0  0  0  0  0  0  0  0  0  0  0
    5.8359  -14.9372   25.7485 N   0  0  0  0  0  0  0  0  0  0  0  0
    6.3705  -13.7222   25.9541 C   0  0  0  0  0  0  0  0  0  0  0  0
    5.7169  -12.5147   26.0725 C   0  0  0  0  0  0  0  0  0  0  0  0
    6.4732  -11.3993   26.2805 C   0  0  0  0  0  0  0  0  0  0  0  0
    7.8549  -11.4361   26.3759 C   0  0  0  0  0  0  0  0  0  0  0  0
    8.5102  -12.6509   26.2568 C   0  0  0  0  0  0  0  0  0  0  0  0
    7.7427  -13.7891   26.0448 C   0  0  0  0  0  0  0  0  0  0  0  0
   11.4065  -16.3169   24.6303 C   0  0  0  0  0  0  0  0  0  0  0  0
   12.4392  -15.8967   25.4407 O   0  0  0  0  0  0  0  0  0  0  0  0
   11.5968  -17.3516   23.9441 O   0  0  0  0  0  0  0  0  0  0  0  0
  2  1  1  6
  3  2  1  0
  4  6  1  0
  4  2  1  0
  5  4  2  0
  7  8  1  0
  7  6  1  0
  8 10  1  0
  9  8  2  0
 10 11  1  0
 11 12  1  1
 12 13  1  0
 13 14  2  0
 13 21  1  0
 14 15  1  0
 15 16  1  0
 16 17  2  0
 17 18  1  0
 19 18  2  0
 20 19  1  0
 21 20  2  0
 21 16  1  0
 22 23  1  0
 22 11  1  0
 24 22  2  0
M  END
$$$$
