AGW.pdb
     RDKit          3D

 24 25  0  0  1  0  0  0  0  0999 V2000
    6.6589  -18.9281   18.1612 C   0  0  0  0  0  0  0  0  0  0  0  0
    7.5271  -18.8012   19.4027 C   0  0  2  0  0  0  0  0  0  0  0  0
    6.7923  -19.4353   20.4816 N   0  0  0  0  0  0  0  0  0  0  0  0
    7.7666  -17.3746   19.6426 C   0  0  0  0  0  0  0  0  0  0  0  0
    8.5832  -16.7545   18.9137 O   0  0  0  0  0  0  0  0  0  0  0  0
    7.1223  -16.6243   20.6697 N   0  0  0  0  0  0  0  0  0  0  0  0
    7.4561  -15.2398   20.8734 C   0  0  0  0  0  0  0  0  0  0  0  0
    8.3440  -14.9654   21.9999 C   0  0  0  0  0  0  0  0  0  0  0  0
    8.6646  -13.7326   22.1537 O   0  0  0  0  0  0  0  0  0  0  0  0
    8.8776  -15.8787   22.9178 N   0  0  0  0  0  0  0  0  0  0  0  0
    9.8027  -15.5234   23.9681 C   0  0  1  0  0  0  0  0  0  0  0  0
    9.2351  -15.8434   25.3399 C   0  0  0  0  0  0  0  0  0  0  0  0
    7.9189  -15.2046   25.5628 C   0  0  0  0  0  0  0  0  0  0  0  0
    6.6563  -15.7959   25.4423 C   0  0  0  0  0  0  0  0  0  0  0  0
    5.6946  -14.9228   25.7154 N   0  0  0  0  0  0  0  0  0  0  0  0
    6.3080  -13.7656   26.0137 C   0  0  0  0  0  0  0  0  0  0  0  0
    5.7318  -12.5638   26.3646 C   0  0  0  0  0  0  0  0  0  0  0  0
    6.5606  -11.5131   26.6262 C   0  0  0  0  0  0  0  0  0  0  0  0
    7.9408  -11.6091   26.5532 C   0  0  0  0  0  0  0  0  0  0  0  0
    8.5182  -12.8181   26.2004 C   0  0  0  0  0  0  0  0  0  0  0  0
    7.6767  -13.8905   25.9332 C   0  0  0  0  0  0  0  0  0  0  0  0
   11.0847  -16.2371   23.8193 C   0  0  0  0  0  0  0  0  0  0  0  0
   11.2503  -17.2716   22.9237 O   0  0  0  0  0  0  0  0  0  0  0  0
   12.0778  -15.9152   24.5179 O   0  0  0  0  0  0  0  0  0  0  0  0
  2  1  1  6
  3  2  1  0
  4  6  1  0
  4  2  1  0
  5  4  2  0
  7  8  1  0
  7  6  1  0
  8 10  1  0
  9  8  2  0
 10 11  1  0
 11 12  1  1
 12 13  1  0
 13 14  2  0
 13 21  1  0
 14 15  1  0
 15 16  1  0
 16 17  2  0
 17 18  1  0
 19 18  2  0
 20 19  1  0
 21 20  2  0
 21 16  1  0
 22 23  1  0
 22 11  1  0
 24 22  2  0
M  END
$$$$
