PVV.pdb
     RDKit          3D

 22 22  0  0  1  0  0  0  0  0999 V2000
   23.4695  -20.4959  -16.2792 N   0  0  0  0  0  0  0  0  0  0  0  0
   22.2706  -20.5045  -15.4723 C   0  0  0  0  0  0  0  0  0  0  0  0
   22.2491  -19.2279  -14.6784 C   0  0  0  0  0  0  0  0  0  0  0  0
   23.4453  -18.4634  -15.2169 C   0  0  0  0  0  0  0  0  0  0  0  0
   24.3639  -19.5631  -15.6330 C   0  0  1  0  0  0  0  0  0  0  0  0
   24.9439  -20.2386  -14.4027 C   0  0  0  0  0  0  0  0  0  0  0  0
   24.3222  -21.2198  -13.9765 O   0  0  0  0  0  0  0  0  0  0  0  0
   28.5011  -21.4988  -14.2699 C   0  0  0  0  0  0  0  0  0  0  0  0
   28.3066  -20.6280  -13.0292 C   0  0  2  0  0  0  0  0  0  0  0  0
   29.0734  -21.2457  -11.9221 C   0  0  0  0  0  0  0  0  0  0  0  0
   26.8640  -20.3893  -12.7700 C   0  0  2  0  0  0  0  0  0  0  0  0
   26.1038  -19.7684  -13.8056 N   0  0  0  0  0  0  0  0  0  0  0  0
   26.4769  -19.9024  -11.4352 C   0  0  0  0  0  0  0  0  0  0  0  0
   26.3662  -18.6381  -11.2109 O   0  0  0  0  0  0  0  0  0  0  0  0
   25.7225  -22.2659   -7.8030 C   0  0  0  0  0  0  0  0  0  0  0  0
   24.9073  -21.0752   -8.2425 C   0  0  1  0  0  0  0  0  0  0  0  0
   24.2918  -20.3846   -7.0373 C   0  0  0  0  0  0  0  0  0  0  0  0
   25.7749  -20.1202   -9.0374 C   0  0  2  0  0  0  0  0  0  0  0  0
   26.1853  -20.6911  -10.2986 N   0  0  0  0  0  0  0  0  0  0  0  0
   26.9138  -19.7331   -8.1727 C   0  0  0  0  0  0  0  0  0  0  0  0
   28.0065  -20.3341   -8.2819 O   0  0  0  0  0  0  0  0  0  0  0  0
   26.7824  -18.7261   -7.2571 O   0  0  0  0  0  0  0  0  0  0  0  0
  1  5  1  0
  2  1  1  0
  3  2  1  0
  3  4  1  0
  4  5  1  0
  6  7  2  0
  5  6  1  1
  9  8  1  6
  9 11  1  0
 10  9  1  0
 11 12  1  6
 11 13  1  0
 12  6  1  0
 13 19  1  0
 14 13  2  0
 16 18  1  0
 16 15  1  1
 17 16  1  0
 18 20  1  0
 18 19  1  6
 20 21  2  0
 20 22  1  0
M  END
$$$$
