PVV.pdb
     RDKit          3D

 22 22  0  0  1  0  0  0  0  0999 V2000
   22.6939  -20.6371  -18.0352 N   0  0  0  0  0  0  0  0  0  0  0  0
   21.9961  -21.6839  -17.3241 C   0  0  0  0  0  0  0  0  0  0  0  0
   21.2605  -21.0427  -16.1804 C   0  0  0  0  0  0  0  0  0  0  0  0
   21.4928  -19.5592  -16.4057 C   0  0  0  0  0  0  0  0  0  0  0  0
   22.8156  -19.5461  -17.0959 C   0  0  1  0  0  0  0  0  0  0  0  0
   23.9131  -19.8946  -16.1056 C   0  0  0  0  0  0  0  0  0  0  0  0
   24.1112  -21.1009  -15.9150 O   0  0  0  0  0  0  0  0  0  0  0  0
   27.4553  -18.4369  -16.2936 C   0  0  0  0  0  0  0  0  0  0  0  0
   26.9616  -18.2389  -14.8609 C   0  0  2  0  0  0  0  0  0  0  0  0
   28.1145  -18.4516  -13.9550 C   0  0  0  0  0  0  0  0  0  0  0  0
   25.7603  -19.0704  -14.5944 C   0  0  2  0  0  0  0  0  0  0  0  0
   24.6400  -18.9042  -15.4623 N   0  0  0  0  0  0  0  0  0  0  0  0
   25.3486  -19.2538  -13.1926 C   0  0  0  0  0  0  0  0  0  0  0  0
   24.6547  -18.3472  -12.5945 O   0  0  0  0  0  0  0  0  0  0  0  0
   26.9386  -22.0967  -10.2536 C   0  0  0  0  0  0  0  0  0  0  0  0
   25.4663  -21.7941  -10.3806 C   0  0  1  0  0  0  0  0  0  0  0  0
   24.7849  -21.9164   -9.0282 C   0  0  0  0  0  0  0  0  0  0  0  0
   25.2722  -20.4110  -10.9688 C   0  0  2  0  0  0  0  0  0  0  0  0
   25.6264  -20.3683  -12.3680 N   0  0  0  0  0  0  0  0  0  0  0  0
   26.0525  -19.4638  -10.1390 C   0  0  0  0  0  0  0  0  0  0  0  0
   27.2415  -19.2120  -10.4390 O   0  0  0  0  0  0  0  0  0  0  0  0
   25.4861  -18.8625   -9.0494 O   0  0  0  0  0  0  0  0  0  0  0  0
  1  5  1  0
  2  1  1  0
  3  2  1  0
  3  4  1  0
  4  5  1  0
  6  7  2  0
  5  6  1  1
  9  8  1  6
  9 11  1  0
 10  9  1  0
 11 12  1  6
 11 13  1  0
 12  6  1  0
 13 19  1  0
 14 13  2  0
 16 18  1  0
 16 15  1  1
 17 16  1  0
 18 20  1  0
 18 19  1  6
 20 21  2  0
 20 22  1  0
M  END
$$$$
