PVV.pdb
     RDKit          3D

 22 22  0  0  1  0  0  0  0  0999 V2000
   27.4400  -19.5630  -15.9863 N   0  0  0  0  0  0  0  0  0  0  0  0
   28.4406  -18.6249  -15.5310 C   0  0  0  0  0  0  0  0  0  0  0  0
   29.3802  -19.3691  -14.6234 C   0  0  0  0  0  0  0  0  0  0  0  0
   28.9028  -20.8064  -14.7316 C   0  0  0  0  0  0  0  0  0  0  0  0
   27.4486  -20.6371  -15.0201 C   0  0  1  0  0  0  0  0  0  0  0  0
   26.7318  -20.1555  -13.7708 C   0  0  0  0  0  0  0  0  0  0  0  0
   26.7812  -18.9392  -13.5497 O   0  0  0  0  0  0  0  0  0  0  0  0
   23.2689  -20.3344  -13.4768 C   0  0  0  0  0  0  0  0  0  0  0  0
   23.7018  -20.9834  -12.1627 C   0  0  2  0  0  0  0  0  0  0  0  0
   22.7586  -20.5390  -11.1101 C   0  0  0  0  0  0  0  0  0  0  0  0
   25.1413  -20.7333  -11.8968 C   0  0  2  0  0  0  0  0  0  0  0  0
   26.0658  -21.0427  -12.9387 N   0  0  0  0  0  0  0  0  0  0  0  0
   25.6674  -21.0922  -10.5691 C   0  0  0  0  0  0  0  0  0  0  0  0
   25.8111  -22.3298  -10.2392 O   0  0  0  0  0  0  0  0  0  0  0  0
   27.1101  -20.0207   -5.9319 C   0  0  0  0  0  0  0  0  0  0  0  0
   26.9115  -19.5328   -7.3455 C   0  0  1  0  0  0  0  0  0  0  0  0
   28.2401  -19.1078   -7.9474 C   0  0  0  0  0  0  0  0  0  0  0  0
   26.2541  -20.6153   -8.1778 C   0  0  2  0  0  0  0  0  0  0  0  0
   26.0678  -20.1998   -9.5481 N   0  0  0  0  0  0  0  0  0  0  0  0
   24.9889  -20.9859   -7.5021 C   0  0  0  0  0  0  0  0  0  0  0  0
   23.9599  -20.2993   -7.6944 O   0  0  0  0  0  0  0  0  0  0  0  0
   24.9349  -22.0705   -6.6712 O   0  0  0  0  0  0  0  0  0  0  0  0
  1  5  1  0
  2  1  1  0
  3  2  1  0
  3  4  1  0
  4  5  1  0
  6  7  2  0
  5  6  1  1
  9  8  1  6
  9 11  1  0
 10  9  1  0
 11 12  1  6
 11 13  1  0
 12  6  1  0
 13 19  1  0
 14 13  2  0
 16 18  1  0
 16 15  1  1
 17 16  1  0
 18 20  1  0
 18 19  1  6
 20 21  2  0
 20 22  1  0
M  END
$$$$
