END.pdb
     RDKit          3D

 26 25  0  0  1  0  0  0  0  0999 V2000
   20.6855  -13.5246  -15.9259 N   0  0  0  0  0  0  0  0  0  0  0  0
   20.1856  -12.2372  -16.3682 C   0  0  1  0  0  0  0  0  0  0  0  0
   18.7372  -12.0532  -15.9605 C   0  0  0  0  0  0  0  0  0  0  0  0
   17.7927  -13.0386  -16.5475 C   0  0  0  0  0  0  0  0  0  0  0  0
   16.4188  -12.9448  -16.0846 C   0  0  0  0  0  0  0  0  0  0  0  0
   15.5328  -12.3170  -16.7095 O   0  0  0  0  0  0  0  0  0  0  0  0
   20.9227  -11.1914  -15.5752 C   0  0  0  0  0  0  0  0  0  0  0  0
   20.6018  -11.0398  -14.3978 O   0  0  0  0  0  0  0  0  0  0  0  0
   16.0416  -13.5658  -14.9062 O   0  0  0  0  0  0  0  0  0  0  0  0
   24.1662  -11.6392  -14.5410 N   0  0  0  0  0  0  0  0  0  0  0  0
   24.8727  -10.6330  -15.2259 C   0  0  0  0  0  0  0  0  0  0  0  0
   26.1497  -10.7756  -15.2848 O   0  0  0  0  0  0  0  0  0  0  0  0
   24.2430   -9.4646  -15.8567 C   0  0  0  0  0  0  0  0  0  0  0  0
   22.7458   -9.4056  -15.6537 C   0  0  2  0  0  0  0  0  0  0  0  0
   21.9312  -10.4204  -16.1470 N   0  0  0  0  0  0  0  0  0  0  0  0
   22.2794   -8.0196  -15.7668 C   0  0  0  0  0  0  0  0  0  0  0  0
   22.2551   -7.4177  -16.9001 O   0  0  0  0  0  0  0  0  0  0  0  0
   21.8314   -7.2610  -14.6639 N   0  0  0  0  0  0  0  0  0  0  0  0
   21.4317   -5.8675  -14.8284 C   0  0  1  0  0  0  0  0  0  0  0  0
   19.9346   -5.8274  -14.6662 C   0  0  0  0  0  0  0  0  0  0  0  0
   19.4611   -4.4455  -14.8366 C   0  0  0  0  0  0  0  0  0  0  0  0
   20.2647   -3.5753  -15.2519 O   0  0  0  0  0  0  0  0  0  0  0  0
   22.1639   -4.9883  -13.9083 C   0  0  0  0  0  0  0  0  0  0  0  0
   22.7237   -5.3936  -12.8699 O   0  0  0  0  0  0  0  0  0  0  0  0
   18.1460   -4.1313  -14.5376 O   0  0  0  0  0  0  0  0  0  0  0  0
   22.2322   -3.6267  -14.2216 O   0  0  0  0  0  0  0  0  0  0  0  0
  2  1  1  1
  2  7  1  0
  3  2  1  0
  4  3  1  0
  5  6  2  0
  5  4  1  0
  7  8  2  0
  9  5  1  0
 10 11  1  0
 11 13  1  0
 12 11  2  0
 14 13  1  6
 15  7  1  0
 15 14  1  0
 16 14  1  0
 16 17  2  0
 18 16  1  0
 19 18  1  0
 19 20  1  1
 21 20  1  0
 21 25  1  0
 22 21  2  0
 23 26  1  0
 23 19  1  0
 24 23  2  0
M  END
$$$$
