END.pdb
     RDKit          3D

 26 25  0  0  1  0  0  0  0  0999 V2000
   26.3904   -8.3607  -20.5107 N   0  0  0  0  0  0  0  0  0  0  0  0
   25.0709   -8.9531  -20.6148 C   0  0  1  0  0  0  0  0  0  0  0  0
   25.1347  -10.2863  -21.3335 C   0  0  0  0  0  0  0  0  0  0  0  0
   26.4418  -10.9861  -21.2376 C   0  0  0  0  0  0  0  0  0  0  0  0
   26.4402  -12.2177  -20.4671 C   0  0  0  0  0  0  0  0  0  0  0  0
   26.9170  -12.2966  -19.3113 O   0  0  0  0  0  0  0  0  0  0  0  0
   24.6471   -9.3135  -19.2161 C   0  0  0  0  0  0  0  0  0  0  0  0
   23.5655   -9.8823  -19.0786 O   0  0  0  0  0  0  0  0  0  0  0  0
   25.8950  -13.3705  -21.0060 O   0  0  0  0  0  0  0  0  0  0  0  0
   25.6816  -11.9672  -17.1214 N   0  0  0  0  0  0  0  0  0  0  0  0
   26.4380  -11.2701  -16.1609 C   0  0  0  0  0  0  0  0  0  0  0  0
   27.2872  -11.9672  -15.4918 O   0  0  0  0  0  0  0  0  0  0  0  0
   26.3093   -9.8309  -15.8934 C   0  0  0  0  0  0  0  0  0  0  0  0
   25.2571   -9.1534  -16.7420 C   0  0  2  0  0  0  0  0  0  0  0  0
   25.4447   -9.0167  -18.1142 N   0  0  0  0  0  0  0  0  0  0  0  0
   24.6638   -8.0332  -16.0040 C   0  0  0  0  0  0  0  0  0  0  0  0
   25.3690   -7.0185  -15.6575 O   0  0  0  0  0  0  0  0  0  0  0  0
   23.3037   -7.9869  -15.6290 N   0  0  0  0  0  0  0  0  0  0  0  0
   22.7549   -6.8171  -14.9514 C   0  0  1  0  0  0  0  0  0  0  0  0
   23.0320   -5.6345  -15.8423 C   0  0  0  0  0  0  0  0  0  0  0  0
   22.4746   -4.4194  -15.2295 C   0  0  0  0  0  0  0  0  0  0  0  0
   22.7835   -4.1400  -14.0455 O   0  0  0  0  0  0  0  0  0  0  0  0
   21.3369   -7.0064  -14.6204 C   0  0  0  0  0  0  0  0  0  0  0  0
   20.6546   -7.9619  -15.0414 O   0  0  0  0  0  0  0  0  0  0  0  0
   21.6243   -3.6107  -15.9648 O   0  0  0  0  0  0  0  0  0  0  0  0
   20.7287   -6.0606  -13.7883 O   0  0  0  0  0  0  0  0  0  0  0  0
  2  1  1  1
  2  7  1  0
  3  2  1  0
  4  3  1  0
  5  6  2  0
  5  4  1  0
  7  8  2  0
  9  5  1  0
 10 11  1  0
 11 13  1  0
 12 11  2  0
 14 13  1  1
 15  7  1  0
 15 14  1  0
 16 14  1  0
 16 17  2  0
 18 16  1  0
 19 18  1  0
 19 20  1  6
 21 20  1  0
 21 25  1  0
 22 21  2  0
 23 26  1  0
 23 19  1  0
 24 23  2  0
M  END
$$$$
