END.pdb
     RDKit          3D

 26 25  0  0  1  0  0  0  0  0999 V2000
   15.8965  -11.3241  -11.4945 N   0  0  0  0  0  0  0  0  0  0  0  0
   15.2092  -10.5246  -12.4901 C   0  0  1  0  0  0  0  0  0  0  0  0
   13.7064  -10.6293  -12.3208 C   0  0  0  0  0  0  0  0  0  0  0  0
   13.1127  -11.9091  -12.7866 C   0  0  0  0  0  0  0  0  0  0  0  0
   12.1598  -12.5264  -11.8803 C   0  0  0  0  0  0  0  0  0  0  0  0
   12.2871  -13.6982  -11.4555 O   0  0  0  0  0  0  0  0  0  0  0  0
   15.5118   -9.0847  -12.1726 C   0  0  0  0  0  0  0  0  0  0  0  0
   15.1383   -8.2341  -12.9784 O   0  0  0  0  0  0  0  0  0  0  0  0
   11.0536  -11.8145  -11.4491 O   0  0  0  0  0  0  0  0  0  0  0  0
   13.9348   -6.9275   -9.7404 N   0  0  0  0  0  0  0  0  0  0  0  0
   14.9592   -6.9141   -8.7756 C   0  0  0  0  0  0  0  0  0  0  0  0
   14.5920   -6.7064   -7.5604 O   0  0  0  0  0  0  0  0  0  0  0  0
   16.3825   -7.1191   -9.0786 C   0  0  0  0  0  0  0  0  0  0  0  0
   16.6416   -7.5016  -10.5184 C   0  0  2  0  0  0  0  0  0  0  0  0
   16.1893   -8.7218  -11.0117 N   0  0  0  0  0  0  0  0  0  0  0  0
   17.9684   -7.0312  -10.9303 C   0  0  0  0  0  0  0  0  0  0  0  0
   19.0246   -7.3782  -10.2890 O   0  0  0  0  0  0  0  0  0  0  0  0
   18.1794   -6.1822  -12.0381 N   0  0  0  0  0  0  0  0  0  0  0  0
   19.5284   -5.8987  -12.5161 C   0  0  1  0  0  0  0  0  0  0  0  0
   20.1413   -7.2242  -12.8855 C   0  0  0  0  0  0  0  0  0  0  0  0
   21.4590   -6.9998  -13.4988 C   0  0  0  0  0  0  0  0  0  0  0  0
   22.2625   -6.2135  -12.9405 O   0  0  0  0  0  0  0  0  0  0  0  0
   19.5147   -4.9138  -13.6050 C   0  0  0  0  0  0  0  0  0  0  0  0
   20.5371   -4.3288  -14.0152 O   0  0  0  0  0  0  0  0  0  0  0  0
   21.7874   -7.6555  -14.6734 O   0  0  0  0  0  0  0  0  0  0  0  0
   18.2862   -4.6238  -14.2079 O   0  0  0  0  0  0  0  0  0  0  0  0
  2  1  1  1
  2  7  1  0
  3  2  1  0
  4  3  1  0
  5  6  2  0
  5  4  1  0
  7  8  2  0
  9  5  1  0
 10 11  1  0
 11 13  1  0
 12 11  2  0
 14 13  1  1
 15  7  1  0
 15 14  1  0
 16 14  1  0
 16 17  2  0
 18 16  1  0
 19 18  1  0
 19 20  1  6
 21 20  1  0
 21 25  1  0
 22 21  2  0
 23 26  1  0
 23 19  1  0
 24 23  2  0
M  END
$$$$
