END.pdb
     RDKit          3D

 26 25  0  0  1  0  0  0  0  0999 V2000
   19.0787  -15.9740    9.3685 N   0  0  0  0  0  0  0  0  0  0  0  0
   17.9371  -15.1332    9.6726 C   0  0  1  0  0  0  0  0  0  0  0  0
   18.3789  -13.7158    9.9787 C   0  0  0  0  0  0  0  0  0  0  0  0
   19.1097  -13.5523   11.2620 C   0  0  0  0  0  0  0  0  0  0  0  0
   19.5211  -12.1963   11.5825 C   0  0  0  0  0  0  0  0  0  0  0  0
   20.0185  -11.8807   12.6882 O   0  0  0  0  0  0  0  0  0  0  0  0
   17.1459  -15.0008    8.3989 C   0  0  0  0  0  0  0  0  0  0  0  0
   16.7249  -13.8835    8.1047 O   0  0  0  0  0  0  0  0  0  0  0  0
   19.3702  -11.1877   10.6463 O   0  0  0  0  0  0  0  0  0  0  0  0
   15.8827  -14.6793    4.4525 N   0  0  0  0  0  0  0  0  0  0  0  0
   17.2806  -14.5835    4.5834 C   0  0  0  0  0  0  0  0  0  0  0  0
   17.8564  -13.6770    3.8752 O   0  0  0  0  0  0  0  0  0  0  0  0
   18.0891  -15.4409    5.4614 C   0  0  0  0  0  0  0  0  0  0  0  0
   17.2661  -16.4136    6.2756 C   0  0  2  0  0  0  0  0  0  0  0  0
   16.8959  -16.0983    7.5795 N   0  0  0  0  0  0  0  0  0  0  0  0
   17.6814  -17.7892    5.9816 C   0  0  0  0  0  0  0  0  0  0  0  0
   17.4578  -18.3195    4.8344 O   0  0  0  0  0  0  0  0  0  0  0  0
   18.3441  -18.6143    6.9158 N   0  0  0  0  0  0  0  0  0  0  0  0
   18.7708  -19.9614    6.5523 C   0  0  1  0  0  0  0  0  0  0  0  0
   19.7716  -20.3910    7.5930 C   0  0  0  0  0  0  0  0  0  0  0  0
   21.0819  -19.7981    7.2854 C   0  0  0  0  0  0  0  0  0  0  0  0
   21.2321  -19.1875    6.1991 O   0  0  0  0  0  0  0  0  0  0  0  0
   17.6231  -20.8656    6.4068 C   0  0  0  0  0  0  0  0  0  0  0  0
   16.5907  -20.7829    7.1019 O   0  0  0  0  0  0  0  0  0  0  0  0
   22.1196  -19.9236    8.1937 O   0  0  0  0  0  0  0  0  0  0  0  0
   17.7010  -21.8684    5.4346 O   0  0  0  0  0  0  0  0  0  0  0  0
  2  1  1  6
  2  7  1  0
  3  2  1  0
  4  3  1  0
  5  6  2  0
  5  4  1  0
  7  8  2  0
  9  5  1  0
 10 11  1  0
 11 13  1  0
 12 11  2  0
 14 13  1  1
 15  7  1  0
 15 14  1  0
 16 14  1  0
 16 17  2  0
 18 16  1  0
 19 18  1  0
 19 20  1  1
 21 20  1  0
 21 25  1  0
 22 21  2  0
 23 26  1  0
 23 19  1  0
 24 23  2  0
M  END
$$$$
