END.pdb
     RDKit          3D

 26 25  0  0  1  0  0  0  0  0999 V2000
   13.5329  -12.3545  -10.9653 N   0  0  0  0  0  0  0  0  0  0  0  0
   14.7828  -11.7385  -10.5637 C   0  0  1  0  0  0  0  0  0  0  0  0
   15.8553  -11.9648  -11.6108 C   0  0  0  0  0  0  0  0  0  0  0  0
   15.3450  -12.2782  -12.9706 C   0  0  0  0  0  0  0  0  0  0  0  0
   16.3516  -12.6532  -13.9486 C   0  0  0  0  0  0  0  0  0  0  0  0
   16.9986  -11.8120  -14.6144 O   0  0  0  0  0  0  0  0  0  0  0  0
   14.5588  -10.2502  -10.5877 C   0  0  0  0  0  0  0  0  0  0  0  0
   13.6600   -9.8222  -11.3096 O   0  0  0  0  0  0  0  0  0  0  0  0
   16.6309  -13.9898  -14.1766 O   0  0  0  0  0  0  0  0  0  0  0  0
   16.3212   -4.9903   -8.1201 N   0  0  0  0  0  0  0  0  0  0  0  0
   15.2714   -5.8936   -8.3700 C   0  0  0  0  0  0  0  0  0  0  0  0
   14.1277   -5.3730   -8.6450 O   0  0  0  0  0  0  0  0  0  0  0  0
   15.4132   -7.3559   -8.3331 C   0  0  0  0  0  0  0  0  0  0  0  0
   15.3729   -7.9985   -9.7012 C   0  0  2  0  0  0  0  0  0  0  0  0
   15.3366   -9.3843   -9.8237 N   0  0  0  0  0  0  0  0  0  0  0  0
   16.2074   -7.2371  -10.6367 C   0  0  0  0  0  0  0  0  0  0  0  0
   17.4868   -7.2358  -10.5355 O   0  0  0  0  0  0  0  0  0  0  0  0
   15.6789   -6.4671  -11.6953 N   0  0  0  0  0  0  0  0  0  0  0  0
   16.5500   -5.6459  -12.5292 C   0  0  1  0  0  0  0  0  0  0  0  0
   16.1694   -5.9296  -13.9588 C   0  0  0  0  0  0  0  0  0  0  0  0
   16.6711   -7.2573  -14.3441 C   0  0  0  0  0  0  0  0  0  0  0  0
   17.6893   -7.7122  -13.7682 O   0  0  0  0  0  0  0  0  0  0  0  0
   16.4721   -4.2290  -12.1520 C   0  0  0  0  0  0  0  0  0  0  0  0
   15.6821   -3.7891  -11.2928 O   0  0  0  0  0  0  0  0  0  0  0  0
   16.0155   -7.9769  -15.3290 O   0  0  0  0  0  0  0  0  0  0  0  0
   17.3334   -3.3337  -12.7949 O   0  0  0  0  0  0  0  0  0  0  0  0
  2  1  1  6
  2  7  1  0
  3  2  1  0
  4  3  1  0
  5  6  2  0
  5  4  1  0
  7  8  2  0
  9  5  1  0
 10 11  1  0
 11 13  1  0
 12 11  2  0
 14 13  1  1
 15  7  1  0
 15 14  1  0
 16 14  1  0
 16 17  2  0
 18 16  1  0
 19 18  1  0
 19 20  1  6
 21 20  1  0
 21 25  1  0
 22 21  2  0
 23 26  1  0
 23 19  1  0
 24 23  2  0
M  END
$$$$
