END.pdb
     RDKit          3D

 26 25  0  0  1  0  0  0  0  0999 V2000
   17.4816  -10.8545  -16.7167 N   0  0  0  0  0  0  0  0  0  0  0  0
   16.6110  -10.4115  -15.6449 C   0  0  1  0  0  0  0  0  0  0  0  0
   16.6013  -11.4158  -14.5094 C   0  0  0  0  0  0  0  0  0  0  0  0
   15.7922  -12.6362  -14.7613 C   0  0  0  0  0  0  0  0  0  0  0  0
   16.5152  -13.8945  -14.6935 C   0  0  0  0  0  0  0  0  0  0  0  0
   17.7018  -13.9759  -14.2999 O   0  0  0  0  0  0  0  0  0  0  0  0
   17.2519   -9.1891  -15.0443 C   0  0  0  0  0  0  0  0  0  0  0  0
   16.7112   -8.6895  -14.0593 O   0  0  0  0  0  0  0  0  0  0  0  0
   15.8929  -15.0715  -15.0728 O   0  0  0  0  0  0  0  0  0  0  0  0
   22.0479   -9.5466  -15.2130 N   0  0  0  0  0  0  0  0  0  0  0  0
   21.3174   -8.4766  -14.6634 C   0  0  0  0  0  0  0  0  0  0  0  0
   21.2677   -8.4234  -13.3791 O   0  0  0  0  0  0  0  0  0  0  0  0
   20.6305   -7.4499  -15.4594 C   0  0  0  0  0  0  0  0  0  0  0  0
   19.1266   -7.4755  -15.3048 C   0  0  2  0  0  0  0  0  0  0  0  0
   18.4137   -8.6388  -15.5790 N   0  0  0  0  0  0  0  0  0  0  0  0
   18.5577   -6.1922  -15.7297 C   0  0  0  0  0  0  0  0  0  0  0  0
   18.3225   -5.9473  -16.9674 O   0  0  0  0  0  0  0  0  0  0  0  0
   18.2322   -5.1539  -14.8304 N   0  0  0  0  0  0  0  0  0  0  0  0
   17.6496   -3.9052  -15.3101 C   0  0  1  0  0  0  0  0  0  0  0  0
   16.3788   -3.6954  -14.5290 C   0  0  0  0  0  0  0  0  0  0  0  0
   15.8045   -2.3857  -14.8721 C   0  0  0  0  0  0  0  0  0  0  0  0
   15.4007   -2.1881  -16.0440 O   0  0  0  0  0  0  0  0  0  0  0  0
   18.6078   -2.7965  -15.2162 C   0  0  0  0  0  0  0  0  0  0  0  0
   19.6290   -2.8296  -14.5008 O   0  0  0  0  0  0  0  0  0  0  0  0
   15.7203   -1.4005  -13.9026 O   0  0  0  0  0  0  0  0  0  0  0  0
   18.3535   -1.6478  -15.9728 O   0  0  0  0  0  0  0  0  0  0  0  0
  2  1  1  6
  2  7  1  0
  3  2  1  0
  4  3  1  0
  5  6  2  0
  5  4  1  0
  7  8  2  0
  9  5  1  0
 10 11  1  0
 11 13  1  0
 12 11  2  0
 14 13  1  6
 15  7  1  0
 15 14  1  0
 16 14  1  0
 16 17  2  0
 18 16  1  0
 19 18  1  0
 19 20  1  1
 21 20  1  0
 21 25  1  0
 22 21  2  0
 23 26  1  0
 23 19  1  0
 24 23  2  0
M  END
$$$$
