END.pdb
     RDKit          3D

 26 25  0  0  1  0  0  0  0  0999 V2000
   16.5107  -10.3613  -14.1813 N   0  0  0  0  0  0  0  0  0  0  0  0
   17.8059  -10.0916  -14.7749 C   0  0  1  0  0  0  0  0  0  0  0  0
   17.7080  -10.0556  -16.2872 C   0  0  0  0  0  0  0  0  0  0  0  0
   17.6042  -11.3868  -16.9387 C   0  0  0  0  0  0  0  0  0  0  0  0
   17.3886  -11.3683  -18.3753 C   0  0  0  0  0  0  0  0  0  0  0  0
   16.2691  -11.5783  -18.8970 O   0  0  0  0  0  0  0  0  0  0  0  0
   18.1680   -8.6795  -14.3999 C   0  0  0  0  0  0  0  0  0  0  0  0
   17.2575   -7.9358  -14.0391 O   0  0  0  0  0  0  0  0  0  0  0  0
   18.4461  -11.1100  -19.2305 O   0  0  0  0  0  0  0  0  0  0  0  0
   21.1228   -4.3260  -13.9300 N   0  0  0  0  0  0  0  0  0  0  0  0
   21.8383   -5.4390  -13.4507 C   0  0  0  0  0  0  0  0  0  0  0  0
   22.9328   -5.1838  -12.8249 O   0  0  0  0  0  0  0  0  0  0  0  0
   21.4101   -6.8340  -13.6247 C   0  0  0  0  0  0  0  0  0  0  0  0
   20.0615   -6.9699  -14.2948 C   0  0  2  0  0  0  0  0  0  0  0  0
   19.4828   -8.2251  -14.4570 N   0  0  0  0  0  0  0  0  0  0  0  0
   19.9474   -6.0022  -15.3910 C   0  0  0  0  0  0  0  0  0  0  0  0
   20.4920   -6.2239  -16.5318 O   0  0  0  0  0  0  0  0  0  0  0  0
   19.2454   -4.7828  -15.2775 N   0  0  0  0  0  0  0  0  0  0  0  0
   19.1364   -3.8747  -16.4142 C   0  0  1  0  0  0  0  0  0  0  0  0
   17.7017   -3.4185  -16.4643 C   0  0  0  0  0  0  0  0  0  0  0  0
   16.8434   -4.5462  -16.8572 C   0  0  0  0  0  0  0  0  0  0  0  0
   17.1377   -5.2039  -17.8850 O   0  0  0  0  0  0  0  0  0  0  0  0
   20.1154   -2.7841  -16.3241 C   0  0  0  0  0  0  0  0  0  0  0  0
   20.9449   -2.6802  -15.3983 O   0  0  0  0  0  0  0  0  0  0  0  0
   15.7331   -4.8601  -16.0914 O   0  0  0  0  0  0  0  0  0  0  0  0
   20.1102   -1.8166  -17.3343 O   0  0  0  0  0  0  0  0  0  0  0  0
  2  1  1  1
  2  7  1  0
  3  2  1  0
  4  3  1  0
  5  6  2  0
  5  4  1  0
  7  8  2  0
  9  5  1  0
 10 11  1  0
 11 13  1  0
 12 11  2  0
 14 13  1  6
 15  7  1  0
 15 14  1  0
 16 14  1  0
 16 17  2  0
 18 16  1  0
 19 18  1  0
 19 20  1  1
 21 20  1  0
 21 25  1  0
 22 21  2  0
 23 26  1  0
 23 19  1  0
 24 23  2  0
M  END
$$$$
