END.pdb
     RDKit          3D

 26 25  0  0  1  0  0  0  0  0999 V2000
   21.2410  -12.7929  -16.2934 N   0  0  0  0  0  0  0  0  0  0  0  0
   20.3890  -12.3147  -17.3649 C   0  0  1  0  0  0  0  0  0  0  0  0
   19.1728  -13.2054  -17.5238 C   0  0  0  0  0  0  0  0  0  0  0  0
   19.4037  -14.6398  -17.2128 C   0  0  0  0  0  0  0  0  0  0  0  0
   18.2641  -15.5179  -17.4146 C   0  0  0  0  0  0  0  0  0  0  0  0
   17.3306  -15.6210  -16.5853 O   0  0  0  0  0  0  0  0  0  0  0  0
   19.8190  -10.9981  -16.9094 C   0  0  0  0  0  0  0  0  0  0  0  0
   19.0817  -10.3975  -17.6892 O   0  0  0  0  0  0  0  0  0  0  0  0
   18.1770  -16.2862  -18.5630 O   0  0  0  0  0  0  0  0  0  0  0  0
   16.9007   -9.3800  -15.4748 N   0  0  0  0  0  0  0  0  0  0  0  0
   17.3901   -9.4302  -14.1563 C   0  0  0  0  0  0  0  0  0  0  0  0
   16.5076   -9.5398  -13.2269 O   0  0  0  0  0  0  0  0  0  0  0  0
   18.8145   -9.3654  -13.8006 C   0  0  0  0  0  0  0  0  0  0  0  0
   19.7318   -9.3042  -15.0010 C   0  0  2  0  0  0  0  0  0  0  0  0
   20.1114  -10.4734  -15.6534 N   0  0  0  0  0  0  0  0  0  0  0  0
   20.7379   -8.2543  -14.8092 C   0  0  0  0  0  0  0  0  0  0  0  0
   21.8778   -8.5156  -14.2804 O   0  0  0  0  0  0  0  0  0  0  0  0
   20.5340   -6.9087  -15.1841 N   0  0  0  0  0  0  0  0  0  0  0  0
   21.5988   -5.9223  -15.0360 C   0  0  1  0  0  0  0  0  0  0  0  0
   21.2281   -4.7545  -15.9123 C   0  0  0  0  0  0  0  0  0  0  0  0
   22.2827   -3.7322  -15.8367 C   0  0  0  0  0  0  0  0  0  0  0  0
   23.4177   -4.0610  -15.4136 O   0  0  0  0  0  0  0  0  0  0  0  0
   21.8154   -5.5758  -13.6257 C   0  0  0  0  0  0  0  0  0  0  0  0
   22.6800   -4.7623  -13.2429 O   0  0  0  0  0  0  0  0  0  0  0  0
   22.0063   -2.4338  -16.2308 O   0  0  0  0  0  0  0  0  0  0  0  0
   21.0043   -6.1953  -12.6690 O   0  0  0  0  0  0  0  0  0  0  0  0
  2  1  1  1
  2  7  1  0
  3  2  1  0
  4  3  1  0
  5  6  2  0
  5  4  1  0
  7  8  2  0
  9  5  1  0
 10 11  1  0
 11 13  1  0
 12 11  2  0
 14 13  1  1
 15  7  1  0
 15 14  1  0
 16 14  1  0
 16 17  2  0
 18 16  1  0
 19 18  1  0
 19 20  1  6
 21 20  1  0
 21 25  1  0
 22 21  2  0
 23 26  1  0
 23 19  1  0
 24 23  2  0
M  END
$$$$
