SSI.pdb
     RDKit          3D

 21 20  0  0  1  0  0  0  0  0999 V2000
    9.1523  -13.3375   19.1825 O   0  0  0  0  0  0  0  0  0  0  0  0
    8.2677  -13.9954   18.3332 C   0  0  0  0  0  0  0  0  0  0  0  0
    8.2013  -15.4400   18.7751 C   0  0  2  0  0  0  0  0  0  0  0  0
    7.3187  -16.1311   17.8317 N   0  0  0  0  0  0  0  0  0  0  0  0
    7.6222  -15.5972   20.1199 C   0  0  0  0  0  0  0  0  0  0  0  0
    6.4003  -15.3126   20.3709 O   0  0  0  0  0  0  0  0  0  0  0  0
    8.9437  -18.2110   23.0419 O   0  0  0  0  0  0  0  0  0  0  0  0
    7.6928  -17.6546   22.9014 C   0  0  0  0  0  0  0  0  0  0  0  0
    7.7930  -16.1703   22.5762 C   0  0  2  0  0  0  0  0  0  0  0  0
    8.3629  -16.0734   21.2417 N   0  0  0  0  0  0  0  0  0  0  0  0
    8.6182  -15.4604   23.5795 C   0  0  0  0  0  0  0  0  0  0  0  0
    9.8602  -15.2934   23.4461 O   0  0  0  0  0  0  0  0  0  0  0  0
    5.7255  -12.4036   27.2277 C   0  0  0  0  0  0  0  0  0  0  0  0
    6.5468  -13.5044   26.6414 C   0  0  0  0  0  0  0  0  0  0  0  0
    7.8725  -12.9955   26.0591 C   0  0  2  0  0  0  0  0  0  0  0  0
    7.5775  -12.1493   24.8536 C   0  0  0  0  0  0  0  0  0  0  0  0
    8.7026  -14.2053   25.7766 C   0  0  2  0  0  0  0  0  0  0  0  0
    7.9999  -14.9509   24.7254 N   0  0  0  0  0  0  0  0  0  0  0  0
    8.9238  -15.1004   26.9018 C   0  0  0  0  0  0  0  0  0  0  0  0
    9.7362  -14.7564   27.9631 O   0  0  0  0  0  0  0  0  0  0  0  0
    8.3683  -16.2206   26.9249 O   0  0  0  0  0  0  0  0  0  0  0  0
  2  1  1  0
  3  4  1  6
  3  2  1  0
  5  3  1  0
  5  6  2  0
  7  8  1  0
  9  8  1  1
  9 10  1  0
  9 11  1  0
 10  5  1  0
 11 18  1  0
 11 12  2  0
 13 14  1  0
 14 15  1  0
 15 16  1  6
 17 15  1  0
 17 18  1  6
 19 20  1  0
 19 17  1  0
 21 19  2  0
M  END
$$$$
