SSI.pdb
     RDKit          3D

 21 20  0  0  1  0  0  0  0  0999 V2000
   10.6348  -14.0642   17.9327 O   0  0  0  0  0  0  0  0  0  0  0  0
    9.9599  -13.7045   19.0953 C   0  0  0  0  0  0  0  0  0  0  0  0
    8.5294  -14.1739   18.9553 C   0  0  2  0  0  0  0  0  0  0  0  0
    7.8158  -13.1389   18.2028 N   0  0  0  0  0  0  0  0  0  0  0  0
    7.8508  -14.3247   20.2536 C   0  0  0  0  0  0  0  0  0  0  0  0
    7.4083  -13.3194   20.9097 O   0  0  0  0  0  0  0  0  0  0  0  0
    7.4970  -18.0415   22.3458 O   0  0  0  0  0  0  0  0  0  0  0  0
    6.4542  -17.1484   22.2518 C   0  0  0  0  0  0  0  0  0  0  0  0
    6.9710  -15.7183   22.1707 C   0  0  2  0  0  0  0  0  0  0  0  0
    7.6318  -15.5862   20.8819 N   0  0  0  0  0  0  0  0  0  0  0  0
    7.8894  -15.4199   23.2927 C   0  0  0  0  0  0  0  0  0  0  0  0
    9.1436  -15.4644   23.1777 O   0  0  0  0  0  0  0  0  0  0  0  0
    6.2143  -11.5427   26.1740 C   0  0  0  0  0  0  0  0  0  0  0  0
    7.0846  -12.5839   25.5506 C   0  0  0  0  0  0  0  0  0  0  0  0
    7.3679  -13.7531   26.5035 C   0  0  2  0  0  0  0  0  0  0  0  0
    8.0726  -13.2248   27.7203 C   0  0  0  0  0  0  0  0  0  0  0  0
    8.1529  -14.7555   25.7214 C   0  0  2  0  0  0  0  0  0  0  0  0
    7.3492  -15.0732   24.5349 N   0  0  0  0  0  0  0  0  0  0  0  0
    8.4610  -15.9987   26.4111 C   0  0  0  0  0  0  0  0  0  0  0  0
    9.6682  -16.2038   27.0478 O   0  0  0  0  0  0  0  0  0  0  0  0
    7.6172  -16.9213   26.4382 O   0  0  0  0  0  0  0  0  0  0  0  0
  2  1  1  0
  3  4  1  6
  3  2  1  0
  5  3  1  0
  5  6  2  0
  7  8  1  0
  9  8  1  1
  9 10  1  0
  9 11  1  0
 10  5  1  0
 11 18  1  0
 11 12  2  0
 13 14  1  0
 14 15  1  0
 15 16  1  1
 17 15  1  0
 17 18  1  6
 19 20  1  0
 19 17  1  0
 21 19  2  0
M  END
$$$$
