SSI.pdb
     RDKit          3D

 21 20  0  0  1  0  0  0  0  0999 V2000
    9.5342  -15.4129   18.5373 O   0  0  0  0  0  0  0  0  0  0  0  0
    8.7476  -14.9883   19.6039 C   0  0  0  0  0  0  0  0  0  0  0  0
    7.9226  -16.1705   20.0604 C   0  0  2  0  0  0  0  0  0  0  0  0
    6.7504  -16.2326   19.1836 N   0  0  0  0  0  0  0  0  0  0  0  0
    7.4348  -16.0238   21.4422 C   0  0  0  0  0  0  0  0  0  0  0  0
    6.4861  -15.2211   21.7461 O   0  0  0  0  0  0  0  0  0  0  0  0
    8.2295  -18.8123   24.4457 O   0  0  0  0  0  0  0  0  0  0  0  0
    7.1057  -18.0210   24.3744 C   0  0  0  0  0  0  0  0  0  0  0  0
    7.4598  -16.6183   23.8993 C   0  0  2  0  0  0  0  0  0  0  0  0
    7.9705  -16.7535   22.5443 N   0  0  0  0  0  0  0  0  0  0  0  0
    8.4501  -15.9856   24.7996 C   0  0  0  0  0  0  0  0  0  0  0  0
    9.6922  -16.0416   24.5941 O   0  0  0  0  0  0  0  0  0  0  0  0
    6.4276  -11.8614   27.2549 C   0  0  0  0  0  0  0  0  0  0  0  0
    7.4523  -12.7736   26.6651 C   0  0  0  0  0  0  0  0  0  0  0  0
    8.0491  -13.7301   27.7064 C   0  0  2  0  0  0  0  0  0  0  0  0
    8.8140  -12.9260   28.7187 C   0  0  0  0  0  0  0  0  0  0  0  0
    8.8761  -14.7175   26.9490 C   0  0  2  0  0  0  0  0  0  0  0  0
    7.9949  -15.2951   25.9270 N   0  0  0  0  0  0  0  0  0  0  0  0
    9.4420  -15.8050   27.7321 C   0  0  0  0  0  0  0  0  0  0  0  0
   10.7009  -15.7268   28.2923 O   0  0  0  0  0  0  0  0  0  0  0  0
    8.7811  -16.8510   27.9137 O   0  0  0  0  0  0  0  0  0  0  0  0
  2  1  1  0
  3  4  1  6
  3  2  1  0
  5  3  1  0
  5  6  2  0
  7  8  1  0
  9  8  1  1
  9 10  1  0
  9 11  1  0
 10  5  1  0
 11 18  1  0
 11 12  2  0
 13 14  1  0
 14 15  1  0
 15 16  1  1
 17 15  1  0
 17 18  1  6
 19 20  1  0
 19 17  1  0
 21 19  2  0
M  END
$$$$
