SSI.pdb
     RDKit          3D

 21 20  0  0  1  0  0  0  0  0999 V2000
   10.5836  -13.1000   20.2083 O   0  0  0  0  0  0  0  0  0  0  0  0
   10.3091  -14.0578   19.2367 C   0  0  0  0  0  0  0  0  0  0  0  0
    8.8162  -14.0484   18.9968 C   0  0  2  0  0  0  0  0  0  0  0  0
    8.4774  -12.7166   18.4886 N   0  0  0  0  0  0  0  0  0  0  0  0
    8.0407  -14.2621   20.2304 C   0  0  0  0  0  0  0  0  0  0  0  0
    7.5353  -13.2906   20.8920 O   0  0  0  0  0  0  0  0  0  0  0  0
    8.0110  -17.9736   22.2533 O   0  0  0  0  0  0  0  0  0  0  0  0
    6.8578  -17.2236   22.2136 C   0  0  0  0  0  0  0  0  0  0  0  0
    7.1798  -15.7402   22.0919 C   0  0  2  0  0  0  0  0  0  0  0  0
    7.7902  -15.5517   20.7854 N   0  0  0  0  0  0  0  0  0  0  0  0
    8.0743  -15.2984   23.1856 C   0  0  0  0  0  0  0  0  0  0  0  0
    9.3211  -15.1831   23.0424 O   0  0  0  0  0  0  0  0  0  0  0  0
    5.9103  -11.6807   26.1661 C   0  0  0  0  0  0  0  0  0  0  0  0
    6.9226  -12.5571   25.5049 C   0  0  0  0  0  0  0  0  0  0  0  0
    7.3848  -13.7029   26.4153 C   0  0  2  0  0  0  0  0  0  0  0  0
    8.0178  -13.1174   27.6453 C   0  0  0  0  0  0  0  0  0  0  0  0
    8.2994  -14.5528   25.5946 C   0  0  2  0  0  0  0  0  0  0  0  0
    7.5191  -14.9946   24.4324 N   0  0  0  0  0  0  0  0  0  0  0  0
    8.8379  -15.7301   26.2579 C   0  0  0  0  0  0  0  0  0  0  0  0
   10.0667  -15.7196   26.8862 O   0  0  0  0  0  0  0  0  0  0  0  0
    8.1803  -16.7937   26.2692 O   0  0  0  0  0  0  0  0  0  0  0  0
  2  1  1  0
  3  4  1  1
  3  2  1  0
  5  3  1  0
  5  6  2  0
  7  8  1  0
  9  8  1  1
  9 10  1  0
  9 11  1  0
 10  5  1  0
 11 18  1  0
 11 12  2  0
 13 14  1  0
 14 15  1  0
 15 16  1  1
 17 15  1  0
 17 18  1  6
 19 20  1  0
 19 17  1  0
 21 19  2  0
M  END
$$$$
