SSI.pdb
     RDKit          3D

 21 20  0  0  1  0  0  0  0  0999 V2000
   11.4955  -18.0402   20.9745 O   0  0  0  0  0  0  0  0  0  0  0  0
   11.3142  -17.1954   19.8837 C   0  0  0  0  0  0  0  0  0  0  0  0
    9.8288  -17.1126   19.6136 C   0  0  2  0  0  0  0  0  0  0  0  0
    9.6584  -16.2436   18.4463 N   0  0  0  0  0  0  0  0  0  0  0  0
    9.0809  -16.5077   20.7288 C   0  0  0  0  0  0  0  0  0  0  0  0
    8.9712  -15.2403   20.8649 O   0  0  0  0  0  0  0  0  0  0  0  0
    7.3237  -18.6299   24.0970 O   0  0  0  0  0  0  0  0  0  0  0  0
    6.6545  -17.7613   23.2653 C   0  0  0  0  0  0  0  0  0  0  0  0
    7.5861  -16.6672   22.7613 C   0  0  2  0  0  0  0  0  0  0  0  0
    8.4244  -17.2719   21.7382 N   0  0  0  0  0  0  0  0  0  0  0  0
    8.3905  -16.1018   23.8680 C   0  0  0  0  0  0  0  0  0  0  0  0
    9.5792  -16.4533   24.0958 O   0  0  0  0  0  0  0  0  0  0  0  0
    5.7620  -12.2451   27.0645 C   0  0  0  0  0  0  0  0  0  0  0  0
    6.4175  -13.4541   26.4823 C   0  0  0  0  0  0  0  0  0  0  0  0
    7.8568  -13.1748   26.0285 C   0  0  2  0  0  0  0  0  0  0  0  0
    7.8170  -12.3148   24.7976 C   0  0  0  0  0  0  0  0  0  0  0  0
    8.5041  -14.5069   25.8309 C   0  0  2  0  0  0  0  0  0  0  0  0
    7.8135  -15.1367   24.6990 N   0  0  0  0  0  0  0  0  0  0  0  0
    8.4454  -15.4158   26.9652 C   0  0  0  0  0  0  0  0  0  0  0  0
    7.6597  -16.5504   26.9554 O   0  0  0  0  0  0  0  0  0  0  0  0
    9.1217  -15.1772   27.9898 O   0  0  0  0  0  0  0  0  0  0  0  0
  2  1  1  0
  3  4  1  6
  3  2  1  0
  5  3  1  0
  5  6  2  0
  7  8  1  0
  9  8  1  1
  9 10  1  0
  9 11  1  0
 10  5  1  0
 11 18  1  0
 11 12  2  0
 13 14  1  0
 14 15  1  0
 15 16  1  6
 17 15  1  0
 17 18  1  6
 19 20  1  0
 19 17  1  0
 21 19  2  0
M  END
$$$$
