SSI.pdb
     RDKit          3D

 21 20  0  0  1  0  0  0  0  0999 V2000
   10.6190  -12.7460   19.7414 O   0  0  0  0  0  0  0  0  0  0  0  0
   10.3691  -13.9937   19.1782 C   0  0  0  0  0  0  0  0  0  0  0  0
    8.8689  -14.1690   19.1067 C   0  0  2  0  0  0  0  0  0  0  0  0
    8.3174  -12.9024   18.6186 N   0  0  0  0  0  0  0  0  0  0  0  0
    8.2644  -14.4373   20.4225 C   0  0  0  0  0  0  0  0  0  0  0  0
    7.6596  -13.5289   21.0902 O   0  0  0  0  0  0  0  0  0  0  0  0
    8.8538  -18.0285   22.6292 O   0  0  0  0  0  0  0  0  0  0  0  0
    7.5965  -17.4847   22.4964 C   0  0  0  0  0  0  0  0  0  0  0  0
    7.6738  -15.9716   22.3431 C   0  0  2  0  0  0  0  0  0  0  0  0
    8.3010  -15.7144   21.0563 N   0  0  0  0  0  0  0  0  0  0  0  0
    8.4345  -15.3620   23.4571 C   0  0  0  0  0  0  0  0  0  0  0  0
    9.6484  -15.0382   23.3574 O   0  0  0  0  0  0  0  0  0  0  0  0
    5.5775  -11.9818   26.1105 C   0  0  0  0  0  0  0  0  0  0  0  0
    6.7522  -12.7184   25.5558 C   0  0  0  0  0  0  0  0  0  0  0  0
    7.3094  -13.7537   26.5422 C   0  0  2  0  0  0  0  0  0  0  0  0
    7.7427  -13.0446   27.7935 C   0  0  0  0  0  0  0  0  0  0  0  0
    8.4076  -14.4713   25.8269 C   0  0  2  0  0  0  0  0  0  0  0  0
    7.7848  -15.1328   24.6739 N   0  0  0  0  0  0  0  0  0  0  0  0
    9.1190  -15.4765   26.6013 C   0  0  0  0  0  0  0  0  0  0  0  0
    8.8197  -16.8205   26.5085 O   0  0  0  0  0  0  0  0  0  0  0  0
   10.0336  -15.1297   27.3805 O   0  0  0  0  0  0  0  0  0  0  0  0
  2  1  1  0
  3  4  1  1
  3  2  1  0
  5  3  1  0
  5  6  2  0
  7  8  1  0
  9  8  1  1
  9 10  1  0
  9 11  1  0
 10  5  1  0
 11 18  1  0
 11 12  2  0
 13 14  1  0
 14 15  1  0
 15 16  1  1
 17 15  1  0
 17 18  1  6
 19 20  1  0
 19 17  1  0
 21 19  2  0
M  END
$$$$
