SSI.pdb
     RDKit          3D

 21 20  0  0  1  0  0  0  0  0999 V2000
   11.9538  -17.7636   22.1281 O   0  0  0  0  0  0  0  0  0  0  0  0
   11.7794  -18.5689   21.0066 C   0  0  0  0  0  0  0  0  0  0  0  0
   10.9148  -17.8062   20.0283 C   0  0  2  0  0  0  0  0  0  0  0  0
   11.8214  -17.0355   19.1734 N   0  0  0  0  0  0  0  0  0  0  0  0
   10.0124  -16.8502   20.6921 C   0  0  0  0  0  0  0  0  0  0  0  0
   10.2442  -15.5920   20.7023 O   0  0  0  0  0  0  0  0  0  0  0  0
    6.6735  -18.0205   23.0637 O   0  0  0  0  0  0  0  0  0  0  0  0
    6.5881  -16.9712   22.1774 C   0  0  0  0  0  0  0  0  0  0  0  0
    7.9375  -16.2831   22.0203 C   0  0  2  0  0  0  0  0  0  0  0  0
    8.8200  -17.2394   21.3708 N   0  0  0  0  0  0  0  0  0  0  0  0
    8.4685  -15.8474   23.3317 C   0  0  0  0  0  0  0  0  0  0  0  0
    9.4973  -16.3548   23.8536 O   0  0  0  0  0  0  0  0  0  0  0  0
    7.3529  -11.1285   27.1588 C   0  0  0  0  0  0  0  0  0  0  0  0
    7.9861  -12.4472   26.8585 C   0  0  0  0  0  0  0  0  0  0  0  0
    7.4130  -13.0933   25.5897 C   0  0  2  0  0  0  0  0  0  0  0  0
    5.9470  -13.3468   25.7966 C   0  0  0  0  0  0  0  0  0  0  0  0
    8.2234  -14.3232   25.3382 C   0  0  2  0  0  0  0  0  0  0  0  0
    7.8057  -14.8305   24.0256 N   0  0  0  0  0  0  0  0  0  0  0  0
    8.0715  -15.3936   26.3115 C   0  0  0  0  0  0  0  0  0  0  0  0
    8.9057  -15.5144   27.4042 O   0  0  0  0  0  0  0  0  0  0  0  0
    7.1617  -16.2398   26.1694 O   0  0  0  0  0  0  0  0  0  0  0  0
  2  1  1  0
  3  4  1  6
  3  2  1  0
  5  3  1  0
  5  6  2  0
  7  8  1  0
  9  8  1  1
  9 10  1  0
  9 11  1  0
 10  5  1  0
 11 18  1  0
 11 12  2  0
 13 14  1  0
 14 15  1  0
 15 16  1  1
 17 15  1  0
 17 18  1  6
 19 20  1  0
 19 17  1  0
 21 19  2  0
M  END
$$$$
