SSI.pdb
     RDKit          3D

 21 20  0  0  1  0  0  0  0  0999 V2000
   11.7696  -18.2644   21.7847 O   0  0  0  0  0  0  0  0  0  0  0  0
   12.3061  -17.5715   20.7036 C   0  0  0  0  0  0  0  0  0  0  0  0
   11.1564  -17.1519   19.8156 C   0  0  2  0  0  0  0  0  0  0  0  0
   11.7371  -16.4120   18.6923 N   0  0  0  0  0  0  0  0  0  0  0  0
   10.2106  -16.2520   20.4971 C   0  0  0  0  0  0  0  0  0  0  0  0
   10.4457  -15.0027   20.6416 O   0  0  0  0  0  0  0  0  0  0  0  0
    6.6669  -17.5803   22.4953 O   0  0  0  0  0  0  0  0  0  0  0  0
    6.6834  -16.4584   21.6984 C   0  0  0  0  0  0  0  0  0  0  0  0
    8.0520  -15.7914   21.7297 C   0  0  2  0  0  0  0  0  0  0  0  0
    8.9694  -16.6896   21.0465 N   0  0  0  0  0  0  0  0  0  0  0  0
    8.4806  -15.5213   23.1207 C   0  0  0  0  0  0  0  0  0  0  0  0
    9.4592  -16.1057   23.6584 O   0  0  0  0  0  0  0  0  0  0  0  0
    6.9810  -11.2982   27.3885 C   0  0  0  0  0  0  0  0  0  0  0  0
    7.7017  -12.5374   26.9699 C   0  0  0  0  0  0  0  0  0  0  0  0
    7.2259  -13.0554   25.6058 C   0  0  2  0  0  0  0  0  0  0  0  0
    5.7748  -13.4290   25.7102 C   0  0  0  0  0  0  0  0  0  0  0  0
    8.1310  -14.1880   25.2443 C   0  0  2  0  0  0  0  0  0  0  0  0
    7.7745  -14.5794   23.8751 N   0  0  0  0  0  0  0  0  0  0  0  0
    8.0446  -15.3658   26.0936 C   0  0  0  0  0  0  0  0  0  0  0  0
    7.2821  -16.4633   25.7492 O   0  0  0  0  0  0  0  0  0  0  0  0
    8.6744  -15.4023   27.1734 O   0  0  0  0  0  0  0  0  0  0  0  0
  2  1  1  0
  3  4  1  6
  3  2  1  0
  5  3  1  0
  5  6  2  0
  7  8  1  0
  9  8  1  1
  9 10  1  0
  9 11  1  0
 10  5  1  0
 11 18  1  0
 11 12  2  0
 13 14  1  0
 14 15  1  0
 15 16  1  1
 17 15  1  0
 17 18  1  6
 19 20  1  0
 19 17  1  0
 21 19  2  0
M  END
$$$$
