IKM.pdb
     RDKit          3D

 26 25  0  0  1  0  0  0  0  0999 V2000
    2.8115  -18.1816   20.4096 C   0  0  0  0  0  0  0  0  0  0  0  0
    4.1057  -18.1168   21.1360 C   0  0  0  0  0  0  0  0  0  0  0  0
    4.8175  -19.4512   21.2481 C   0  0  2  0  0  0  0  0  0  0  0  0
    3.9561  -20.5120   21.8357 C   0  0  0  0  0  0  0  0  0  0  0  0
    5.9692  -19.1718   22.2308 C   0  0  2  0  0  0  0  0  0  0  0  0
    5.3557  -18.5553   23.4242 N   0  0  0  0  0  0  0  0  0  0  0  0
    6.9305  -18.1836   21.7222 C   0  0  0  0  0  0  0  0  0  0  0  0
    8.0012  -18.5919   21.1577 O   0  0  0  0  0  0  0  0  0  0  0  0
    6.8040  -16.7713   21.7843 N   0  0  0  0  0  0  0  0  0  0  0  0
    7.8676  -15.8738   21.3791 C   0  0  1  0  0  0  0  0  0  0  0  0
    7.3457  -14.6625   20.6342 C   0  0  0  0  0  0  0  0  0  0  0  0
    7.4871  -14.8837   19.1648 C   0  0  0  0  0  0  0  0  0  0  0  0
    8.0765  -13.6749   18.5192 C   0  0  0  0  0  0  0  0  0  0  0  0
    8.2797  -13.8736   17.0539 C   0  0  0  0  0  0  0  0  0  0  0  0
    8.8632  -12.6482   16.4801 N   0  0  0  0  0  0  0  0  0  0  0  0
    8.5604  -15.3635   22.6102 C   0  0  0  0  0  0  0  0  0  0  0  0
    9.4745  -14.5223   22.4505 O   0  0  0  0  0  0  0  0  0  0  0  0
    6.6112  -11.0111   27.0842 C   0  0  0  0  0  0  0  0  0  0  0  0
    6.6927  -12.6983   27.7386 S   0  0  0  0  0  0  0  0  0  0  0  0
    8.0292  -13.6335   26.9931 C   0  0  0  0  0  0  0  0  0  0  0  0
    7.6740  -14.3863   25.7744 C   0  0  0  0  0  0  0  0  0  0  0  0
    8.7975  -15.0375   25.0703 C   0  0  2  0  0  0  0  0  0  0  0  0
    8.2285  -15.7845   23.8962 N   0  0  0  0  0  0  0  0  0  0  0  0
    9.5740  -15.9744   25.8676 C   0  0  0  0  0  0  0  0  0  0  0  0
    9.7619  -17.2885   25.4157 O   0  0  0  0  0  0  0  0  0  0  0  0
   10.0953  -15.6865   26.9470 O   0  0  0  0  0  0  0  0  0  0  0  0
  2  3  1  0
  2  1  1  0
  3  4  1  1
  5  3  1  0
  5  6  1  1
  7  9  1  0
  7  5  1  0
  8  7  2  0
 10 11  1  1
 10  9  1  0
 11 12  1  0
 12 13  1  0
 13 14  1  0
 14 15  1  0
 16 10  1  0
 16 17  2  0
 19 20  1  0
 19 18  1  0
 20 21  1  0
 22 21  1  1
 22 24  1  0
 22 23  1  0
 23 16  1  0
 24 25  1  0
 26 24  2  0
M  END
$$$$
