IKM.pdb
     RDKit          3D

 26 25  0  0  1  0  0  0  0  0999 V2000
    7.3877  -12.2812   17.8375 C   0  0  0  0  0  0  0  0  0  0  0  0
    8.4869  -13.0623   18.4606 C   0  0  0  0  0  0  0  0  0  0  0  0
    8.0521  -13.9000   19.6478 C   0  0  2  0  0  0  0  0  0  0  0  0
    7.4156  -13.0877   20.7191 C   0  0  0  0  0  0  0  0  0  0  0  0
    9.3722  -14.4684   20.1993 C   0  0  2  0  0  0  0  0  0  0  0  0
    9.9319  -15.3250   19.1346 N   0  0  0  0  0  0  0  0  0  0  0  0
    9.1774  -15.3505   21.3583 C   0  0  0  0  0  0  0  0  0  0  0  0
    8.4090  -14.9710   22.3056 O   0  0  0  0  0  0  0  0  0  0  0  0
    9.7640  -16.6276   21.5570 N   0  0  0  0  0  0  0  0  0  0  0  0
    9.5522  -17.4049   22.7619 C   0  0  1  0  0  0  0  0  0  0  0  0
   10.3496  -18.6928   22.7632 C   0  0  0  0  0  0  0  0  0  0  0  0
    9.9683  -19.5147   21.5770 C   0  0  0  0  0  0  0  0  0  0  0  0
   11.0606  -20.4755   21.2470 C   0  0  0  0  0  0  0  0  0  0  0  0
   10.7012  -21.3454   20.0884 C   0  0  0  0  0  0  0  0  0  0  0  0
    9.2666  -21.6736   20.1620 N   0  0  0  0  0  0  0  0  0  0  0  0
   10.0208  -16.6007   23.9407 C   0  0  0  0  0  0  0  0  0  0  0  0
   11.1166  -16.0040   23.8328 O   0  0  0  0  0  0  0  0  0  0  0  0
    6.1661  -12.7446   27.4508 C   0  0  0  0  0  0  0  0  0  0  0  0
    7.8748  -12.1459   27.5079 S   0  0  0  0  0  0  0  0  0  0  0  0
    9.0525  -13.4939   27.3953 C   0  0  0  0  0  0  0  0  0  0  0  0
    8.8204  -14.4488   26.2943 C   0  0  0  0  0  0  0  0  0  0  0  0
    9.7852  -15.5630   26.1951 C   0  0  2  0  0  0  0  0  0  0  0  0
    9.2940  -16.4979   25.1250 N   0  0  0  0  0  0  0  0  0  0  0  0
    9.9756  -16.3333   27.4144 C   0  0  0  0  0  0  0  0  0  0  0  0
   10.7313  -15.7989   28.4680 O   0  0  0  0  0  0  0  0  0  0  0  0
    9.5051  -17.4586   27.5937 O   0  0  0  0  0  0  0  0  0  0  0  0
  2  3  1  0
  2  1  1  0
  3  4  1  1
  5  3  1  0
  5  6  1  6
  7  9  1  0
  7  5  1  0
  8  7  2  0
 10 11  1  6
 10  9  1  0
 11 12  1  0
 12 13  1  0
 13 14  1  0
 14 15  1  0
 16 10  1  0
 16 17  2  0
 19 20  1  0
 19 18  1  0
 20 21  1  0
 22 21  1  1
 22 24  1  0
 22 23  1  0
 23 16  1  0
 24 25  1  0
 26 24  2  0
M  END
$$$$
