IKM.pdb
     RDKit          3D

 26 25  0  0  1  0  0  0  0  0999 V2000
    7.9338  -12.2130   27.0929 C   0  0  0  0  0  0  0  0  0  0  0  0
    7.3417  -13.4699   26.5673 C   0  0  0  0  0  0  0  0  0  0  0  0
    6.5684  -13.2940   25.2746 C   0  0  2  0  0  0  0  0  0  0  0  0
    5.3333  -12.4841   25.4520 C   0  0  0  0  0  0  0  0  0  0  0  0
    6.1503  -14.7272   24.8987 C   0  0  2  0  0  0  0  0  0  0  0  0
    5.6839  -15.3640   26.1468 N   0  0  0  0  0  0  0  0  0  0  0  0
    7.2746  -15.5486   24.4292 C   0  0  0  0  0  0  0  0  0  0  0  0
    7.7119  -16.4882   25.1760 O   0  0  0  0  0  0  0  0  0  0  0  0
    7.9588  -15.4178   23.1925 N   0  0  0  0  0  0  0  0  0  0  0  0
    9.0298  -16.3098   22.7949 C   0  0  1  0  0  0  0  0  0  0  0  0
    9.4215  -16.1272   21.3431 C   0  0  0  0  0  0  0  0  0  0  0  0
    8.3551  -16.6937   20.4656 C   0  0  0  0  0  0  0  0  0  0  0  0
    8.7382  -16.5434   19.0317 C   0  0  0  0  0  0  0  0  0  0  0  0
    7.6496  -16.9984   18.1174 C   0  0  0  0  0  0  0  0  0  0  0  0
    8.0404  -16.7110   16.7260 N   0  0  0  0  0  0  0  0  0  0  0  0
   10.2466  -15.9959   23.6176 C   0  0  0  0  0  0  0  0  0  0  0  0
   10.6698  -14.8173   23.5946 O   0  0  0  0  0  0  0  0  0  0  0  0
   11.2162  -13.3806   28.3440 C   0  0  0  0  0  0  0  0  0  0  0  0
   10.6509  -15.0625   28.7089 S   0  0  0  0  0  0  0  0  0  0  0  0
   11.0721  -16.2030   27.3903 C   0  0  0  0  0  0  0  0  0  0  0  0
   11.7135  -15.5965   26.2076 C   0  0  0  0  0  0  0  0  0  0  0  0
   12.1358  -16.5385   25.1510 C   0  0  2  0  0  0  0  0  0  0  0  0
   10.9068  -16.9500   24.3890 N   0  0  0  0  0  0  0  0  0  0  0  0
   12.8005  -17.7445   25.6201 C   0  0  0  0  0  0  0  0  0  0  0  0
   12.2418  -19.0015   25.3477 O   0  0  0  0  0  0  0  0  0  0  0  0
   13.8538  -17.7404   26.2607 O   0  0  0  0  0  0  0  0  0  0  0  0
  2  3  1  0
  2  1  1  0
  3  4  1  1
  5  3  1  0
  5  6  1  1
  7  9  1  0
  7  5  1  0
  8  7  2  0
 10 11  1  6
 10  9  1  0
 11 12  1  0
 12 13  1  0
 13 14  1  0
 14 15  1  0
 16 10  1  0
 16 17  2  0
 19 20  1  0
 19 18  1  0
 20 21  1  0
 22 21  1  1
 22 24  1  0
 22 23  1  0
 23 16  1  0
 24 25  1  0
 26 24  2  0
M  END
$$$$
