IKM.pdb
     RDKit          3D

 26 25  0  0  1  0  0  0  0  0999 V2000
    5.6962  -11.3042   26.4347 C   0  0  0  0  0  0  0  0  0  0  0  0
    5.4281  -12.6509   25.8678 C   0  0  0  0  0  0  0  0  0  0  0  0
    6.6786  -13.4207   25.4889 C   0  0  2  0  0  0  0  0  0  0  0  0
    7.5096  -12.7042   24.4845 C   0  0  0  0  0  0  0  0  0  0  0  0
    6.1357  -14.7033   24.8329 C   0  0  2  0  0  0  0  0  0  0  0  0
    5.3615  -15.4066   25.8753 N   0  0  0  0  0  0  0  0  0  0  0  0
    7.1977  -15.6352   24.4292 C   0  0  0  0  0  0  0  0  0  0  0  0
    7.7252  -16.3952   25.3101 O   0  0  0  0  0  0  0  0  0  0  0  0
    7.7268  -15.7995   23.1225 N   0  0  0  0  0  0  0  0  0  0  0  0
    8.7615  -16.7669   22.8152 C   0  0  1  0  0  0  0  0  0  0  0  0
    9.1262  -16.7718   21.3451 C   0  0  0  0  0  0  0  0  0  0  0  0
    8.2030  -17.6834   20.6070 C   0  0  0  0  0  0  0  0  0  0  0  0
    8.4688  -17.6045   19.1412 C   0  0  0  0  0  0  0  0  0  0  0  0
    7.5427  -18.4791   18.3631 C   0  0  0  0  0  0  0  0  0  0  0  0
    7.8856  -18.3881   16.9328 N   0  0  0  0  0  0  0  0  0  0  0  0
   10.0051  -16.3965   23.5718 C   0  0  0  0  0  0  0  0  0  0  0  0
   10.4700  -15.2478   23.3898 O   0  0  0  0  0  0  0  0  0  0  0  0
   10.2396  -13.4811   28.5955 C   0  0  0  0  0  0  0  0  0  0  0  0
   11.0720  -15.0162   29.0771 S   0  0  0  0  0  0  0  0  0  0  0  0
   11.8975  -15.7867   27.6837 C   0  0  0  0  0  0  0  0  0  0  0  0
   11.0180  -16.1916   26.5699 C   0  0  0  0  0  0  0  0  0  0  0  0
   11.7003  -16.7196   25.3708 C   0  0  2  0  0  0  0  0  0  0  0  0
   10.6456  -17.2679   24.4502 N   0  0  0  0  0  0  0  0  0  0  0  0
   12.6731  -17.7722   25.6198 C   0  0  0  0  0  0  0  0  0  0  0  0
   13.9297  -17.4507   26.1528 O   0  0  0  0  0  0  0  0  0  0  0  0
   12.4654  -18.9650   25.3881 O   0  0  0  0  0  0  0  0  0  0  0  0
  2  3  1  0
  2  1  1  0
  3  4  1  6
  5  3  1  0
  5  6  1  1
  7  9  1  0
  7  5  1  0
  8  7  2  0
 10 11  1  6
 10  9  1  0
 11 12  1  0
 12 13  1  0
 13 14  1  0
 14 15  1  0
 16 10  1  0
 16 17  2  0
 19 20  1  0
 19 18  1  0
 20 21  1  0
 22 21  1  1
 22 24  1  0
 22 23  1  0
 23 16  1  0
 24 25  1  0
 26 24  2  0
M  END
$$$$
