IKM.pdb
     RDKit          3D

 26 25  0  0  1  0  0  0  0  0999 V2000
    6.1256  -11.0483   26.4916 C   0  0  0  0  0  0  0  0  0  0  0  0
    5.8292  -12.4002   25.9519 C   0  0  0  0  0  0  0  0  0  0  0  0
    7.0559  -13.2722   25.7650 C   0  0  2  0  0  0  0  0  0  0  0  0
    8.0545  -12.6657   24.8443 C   0  0  0  0  0  0  0  0  0  0  0  0
    6.5033  -14.5456   25.0993 C   0  0  2  0  0  0  0  0  0  0  0  0
    5.5843  -15.1601   26.0784 N   0  0  0  0  0  0  0  0  0  0  0  0
    7.5403  -15.5539   24.8399 C   0  0  0  0  0  0  0  0  0  0  0  0
    8.0219  -16.2162   25.8204 O   0  0  0  0  0  0  0  0  0  0  0  0
    8.0911  -15.8948   23.5770 N   0  0  0  0  0  0  0  0  0  0  0  0
    9.1755  -16.8452   23.4293 C   0  0  1  0  0  0  0  0  0  0  0  0
    9.5719  -17.0452   21.9811 C   0  0  0  0  0  0  0  0  0  0  0  0
    8.7751  -18.1645   21.3977 C   0  0  0  0  0  0  0  0  0  0  0  0
    8.5877  -17.9509   19.9332 C   0  0  0  0  0  0  0  0  0  0  0  0
    7.7096  -18.9960   19.3294 C   0  0  0  0  0  0  0  0  0  0  0  0
    7.4738  -18.6646   17.9131 N   0  0  0  0  0  0  0  0  0  0  0  0
   10.3840  -16.3095   24.1422 C   0  0  0  0  0  0  0  0  0  0  0  0
   10.8426  -15.2106   23.7539 O   0  0  0  0  0  0  0  0  0  0  0  0
   10.4284  -15.5603   30.0605 C   0  0  0  0  0  0  0  0  0  0  0  0
   10.3170  -14.2609   28.8034 S   0  0  0  0  0  0  0  0  0  0  0  0
   10.7641  -14.8726   27.1778 C   0  0  0  0  0  0  0  0  0  0  0  0
   11.8563  -15.8647   27.1515 C   0  0  0  0  0  0  0  0  0  0  0  0
   12.2299  -16.3748   25.8165 C   0  0  2  0  0  0  0  0  0  0  0  0
   10.9996  -16.9785   25.1981 N   0  0  0  0  0  0  0  0  0  0  0  0
   13.2805  -17.3810   25.8052 C   0  0  0  0  0  0  0  0  0  0  0  0
   14.6102  -17.0058   26.0449 O   0  0  0  0  0  0  0  0  0  0  0  0
   13.0791  -18.5786   25.5929 O   0  0  0  0  0  0  0  0  0  0  0  0
  2  3  1  0
  2  1  1  0
  3  4  1  6
  5  3  1  0
  5  6  1  1
  7  9  1  0
  7  5  1  0
  8  7  2  0
 10 11  1  6
 10  9  1  0
 11 12  1  0
 12 13  1  0
 13 14  1  0
 14 15  1  0
 16 10  1  0
 16 17  2  0
 19 20  1  0
 19 18  1  0
 20 21  1  0
 22 21  1  1
 22 24  1  0
 22 23  1  0
 23 16  1  0
 24 25  1  0
 26 24  2  0
M  END
$$$$
