IKM.pdb
     RDKit          3D

 26 25  0  0  1  0  0  0  0  0999 V2000
    7.7537  -11.8363   19.2352 C   0  0  0  0  0  0  0  0  0  0  0  0
    7.6448  -13.3169   19.2868 C   0  0  0  0  0  0  0  0  0  0  0  0
    7.8223  -13.9005   20.6753 C   0  0  2  0  0  0  0  0  0  0  0  0
    9.1493  -13.5796   21.2657 C   0  0  0  0  0  0  0  0  0  0  0  0
    7.7563  -15.4213   20.4457 C   0  0  2  0  0  0  0  0  0  0  0  0
    6.3889  -15.7099   19.9687 N   0  0  0  0  0  0  0  0  0  0  0  0
    7.9175  -16.1962   21.6837 C   0  0  0  0  0  0  0  0  0  0  0  0
    7.0160  -16.1209   22.5856 O   0  0  0  0  0  0  0  0  0  0  0  0
    8.9994  -17.0556   22.0086 N   0  0  0  0  0  0  0  0  0  0  0  0
    9.1795  -17.6176   23.3324 C   0  0  1  0  0  0  0  0  0  0  0  0
   10.2336  -18.7052   23.3571 C   0  0  0  0  0  0  0  0  0  0  0  0
   10.3925  -19.2117   24.7522 C   0  0  0  0  0  0  0  0  0  0  0  0
   11.4700  -20.2421   24.8034 C   0  0  0  0  0  0  0  0  0  0  0  0
   11.5816  -20.8592   26.1579 C   0  0  0  0  0  0  0  0  0  0  0  0
   12.7155  -21.8003   26.1642 N   0  0  0  0  0  0  0  0  0  0  0  0
    9.6524  -16.5310   24.2552 C   0  0  0  0  0  0  0  0  0  0  0  0
   10.6738  -15.8904   23.9159 O   0  0  0  0  0  0  0  0  0  0  0  0
    5.9322  -12.2584   26.6285 C   0  0  0  0  0  0  0  0  0  0  0  0
    7.3262  -11.9055   27.7302 S   0  0  0  0  0  0  0  0  0  0  0  0
    8.6824  -13.0497   27.4688 C   0  0  0  0  0  0  0  0  0  0  0  0
    8.4169  -14.1401   26.5105 C   0  0  0  0  0  0  0  0  0  0  0  0
    9.5341  -15.0779   26.2774 C   0  0  2  0  0  0  0  0  0  0  0  0
    9.0080  -16.2177   25.4501 N   0  0  0  0  0  0  0  0  0  0  0  0
   10.1420  -15.6338   27.4764 C   0  0  0  0  0  0  0  0  0  0  0  0
    9.8166  -16.9348   27.8862 O   0  0  0  0  0  0  0  0  0  0  0  0
   10.9486  -15.0233   28.1810 O   0  0  0  0  0  0  0  0  0  0  0  0
  2  3  1  0
  2  1  1  0
  3  4  1  6
  5  3  1  0
  5  6  1  1
  7  9  1  0
  7  5  1  0
  8  7  2  0
 10 11  1  6
 10  9  1  0
 11 12  1  0
 12 13  1  0
 13 14  1  0
 14 15  1  0
 16 10  1  0
 16 17  2  0
 19 20  1  0
 19 18  1  0
 20 21  1  0
 22 21  1  1
 22 24  1  0
 22 23  1  0
 23 16  1  0
 24 25  1  0
 26 24  2  0
M  END
$$$$
