IKM.pdb
     RDKit          3D

 26 25  0  0  1  0  0  0  0  0999 V2000
    5.3471  -11.8784   26.0794 C   0  0  0  0  0  0  0  0  0  0  0  0
    5.2368  -13.2983   25.6571 C   0  0  0  0  0  0  0  0  0  0  0  0
    6.5525  -13.9178   25.2269 C   0  0  2  0  0  0  0  0  0  0  0  0
    7.2076  -13.1628   24.1253 C   0  0  0  0  0  0  0  0  0  0  0  0
    6.1475  -15.3003   24.6841 C   0  0  2  0  0  0  0  0  0  0  0  0
    5.5956  -16.0505   25.8301 N   0  0  0  0  0  0  0  0  0  0  0  0
    7.2928  -16.0879   24.2075 C   0  0  0  0  0  0  0  0  0  0  0  0
    7.7842  -16.9910   24.9656 O   0  0  0  0  0  0  0  0  0  0  0  0
    7.9430  -15.9605   22.9523 N   0  0  0  0  0  0  0  0  0  0  0  0
    8.9993  -16.8567   22.5258 C   0  0  1  0  0  0  0  0  0  0  0  0
    9.4727  -16.5592   21.1180 C   0  0  0  0  0  0  0  0  0  0  0  0
   10.5308  -17.5387   20.7321 C   0  0  0  0  0  0  0  0  0  0  0  0
   10.8796  -17.3747   19.2910 C   0  0  0  0  0  0  0  0  0  0  0  0
   12.0369  -18.2327   18.9005 C   0  0  0  0  0  0  0  0  0  0  0  0
   12.3565  -17.9907   17.4826 N   0  0  0  0  0  0  0  0  0  0  0  0
   10.1823  -16.6704   23.4323 C   0  0  0  0  0  0  0  0  0  0  0  0
   11.2753  -17.1564   23.0610 O   0  0  0  0  0  0  0  0  0  0  0  0
   10.1604  -13.4669   29.2630 C   0  0  0  0  0  0  0  0  0  0  0  0
   11.5535  -14.6157   29.4080 S   0  0  0  0  0  0  0  0  0  0  0  0
   12.0346  -15.2774   27.8119 C   0  0  0  0  0  0  0  0  0  0  0  0
   10.9533  -15.3713   26.8120 C   0  0  0  0  0  0  0  0  0  0  0  0
   11.3549  -15.8494   25.4732 C   0  0  2  0  0  0  0  0  0  0  0  0
   10.1074  -15.9904   24.6460 N   0  0  0  0  0  0  0  0  0  0  0  0
   12.0572  -17.1231   25.4509 C   0  0  0  0  0  0  0  0  0  0  0  0
   11.3344  -18.3215   25.5406 O   0  0  0  0  0  0  0  0  0  0  0  0
   13.2818  -17.2280   25.3559 O   0  0  0  0  0  0  0  0  0  0  0  0
  2  3  1  0
  2  1  1  0
  3  4  1  6
  5  3  1  0
  5  6  1  1
  7  9  1  0
  7  5  1  0
  8  7  2  0
 10 11  1  6
 10  9  1  0
 11 12  1  0
 12 13  1  0
 13 14  1  0
 14 15  1  0
 16 10  1  0
 16 17  2  0
 19 20  1  0
 19 18  1  0
 20 21  1  0
 22 21  1  1
 22 24  1  0
 22 23  1  0
 23 16  1  0
 24 25  1  0
 26 24  2  0
M  END
$$$$
