IKM.pdb
     RDKit          3D

 26 25  0  0  1  0  0  0  0  0999 V2000
    7.4927  -12.4320   18.0889 C   0  0  0  0  0  0  0  0  0  0  0  0
    8.5859  -13.1634   18.7794 C   0  0  0  0  0  0  0  0  0  0  0  0
    8.1157  -14.0334   19.9292 C   0  0  2  0  0  0  0  0  0  0  0  0
    7.3561  -13.2673   20.9533 C   0  0  0  0  0  0  0  0  0  0  0  0
    9.4232  -14.5277   20.5744 C   0  0  2  0  0  0  0  0  0  0  0  0
   10.0932  -15.3685   19.5620 N   0  0  0  0  0  0  0  0  0  0  0  0
    9.1965  -15.4036   21.7321 C   0  0  0  0  0  0  0  0  0  0  0  0
    8.4580  -14.9901   22.6889 O   0  0  0  0  0  0  0  0  0  0  0  0
    9.7203  -16.7094   21.9199 N   0  0  0  0  0  0  0  0  0  0  0  0
    9.5048  -17.4695   23.1351 C   0  0  1  0  0  0  0  0  0  0  0  0
   10.2131  -18.8082   23.1094 C   0  0  0  0  0  0  0  0  0  0  0  0
    9.6364  -19.6549   22.0238 C   0  0  0  0  0  0  0  0  0  0  0  0
   10.4056  -20.9274   21.9034 C   0  0  0  0  0  0  0  0  0  0  0  0
    9.8628  -21.8020   20.8225 C   0  0  0  0  0  0  0  0  0  0  0  0
   10.7106  -23.0015   20.7050 N   0  0  0  0  0  0  0  0  0  0  0  0
   10.0729  -16.6977   24.2915 C   0  0  0  0  0  0  0  0  0  0  0  0
   11.1263  -16.0505   24.0910 O   0  0  0  0  0  0  0  0  0  0  0  0
    6.4157  -12.6427   27.4646 C   0  0  0  0  0  0  0  0  0  0  0  0
    8.1400  -12.0885   27.4978 S   0  0  0  0  0  0  0  0  0  0  0  0
    9.2795  -13.4730   27.5371 C   0  0  0  0  0  0  0  0  0  0  0  0
    9.0373  -14.5229   26.5287 C   0  0  0  0  0  0  0  0  0  0  0  0
    9.9647  -15.6722   26.5612 C   0  0  2  0  0  0  0  0  0  0  0  0
    9.4812  -16.6771   25.5528 N   0  0  0  0  0  0  0  0  0  0  0  0
   10.0810  -16.3433   27.8467 C   0  0  0  0  0  0  0  0  0  0  0  0
   10.8431  -15.7637   28.8713 O   0  0  0  0  0  0  0  0  0  0  0  0
    9.5404  -17.4199   28.1082 O   0  0  0  0  0  0  0  0  0  0  0  0
  2  3  1  0
  2  1  1  0
  3  4  1  1
  5  3  1  0
  5  6  1  6
  7  9  1  0
  7  5  1  0
  8  7  2  0
 10 11  1  6
 10  9  1  0
 11 12  1  0
 12 13  1  0
 13 14  1  0
 14 15  1  0
 16 10  1  0
 16 17  2  0
 19 20  1  0
 19 18  1  0
 20 21  1  0
 22 21  1  1
 22 24  1  0
 22 23  1  0
 23 16  1  0
 24 25  1  0
 26 24  2  0
M  END
$$$$
