IKM.pdb
     RDKit          3D

 26 25  0  0  1  0  0  0  0  0999 V2000
    5.8568  -11.3320   26.8838 C   0  0  0  0  0  0  0  0  0  0  0  0
    5.5791  -12.6638   26.2874 C   0  0  0  0  0  0  0  0  0  0  0  0
    6.8181  -13.3961   25.8095 C   0  0  2  0  0  0  0  0  0  0  0  0
    7.6711  -12.5597   24.9231 C   0  0  0  0  0  0  0  0  0  0  0  0
    6.2570  -14.5604   24.9731 C   0  0  2  0  0  0  0  0  0  0  0  0
    5.5308  -15.4356   25.9152 N   0  0  0  0  0  0  0  0  0  0  0  0
    7.3074  -15.3993   24.3798 C   0  0  0  0  0  0  0  0  0  0  0  0
    7.8552  -16.3062   25.0934 O   0  0  0  0  0  0  0  0  0  0  0  0
    7.8040  -15.3199   23.0525 N   0  0  0  0  0  0  0  0  0  0  0  0
    8.8176  -16.2221   22.5430 C   0  0  1  0  0  0  0  0  0  0  0  0
    9.1313  -15.9694   21.0829 C   0  0  0  0  0  0  0  0  0  0  0  0
    8.0351  -16.5250   20.2356 C   0  0  0  0  0  0  0  0  0  0  0  0
    8.5487  -17.6574   19.4114 C   0  0  0  0  0  0  0  0  0  0  0  0
    7.4851  -18.2310   18.5352 C   0  0  0  0  0  0  0  0  0  0  0  0
    7.9923  -19.4655   17.9107 N   0  0  0  0  0  0  0  0  0  0  0  0
   10.0902  -15.9958   23.3080 C   0  0  0  0  0  0  0  0  0  0  0  0
   10.6071  -14.8568   23.2431 O   0  0  0  0  0  0  0  0  0  0  0  0
   11.1107  -13.2933   28.2519 C   0  0  0  0  0  0  0  0  0  0  0  0
   11.5015  -14.9878   28.7591 S   0  0  0  0  0  0  0  0  0  0  0  0
   12.1534  -15.9531   27.3954 C   0  0  0  0  0  0  0  0  0  0  0  0
   11.2091  -16.2086   26.2904 C   0  0  0  0  0  0  0  0  0  0  0  0
   11.8171  -16.5986   25.0019 C   0  0  2  0  0  0  0  0  0  0  0  0
   10.7026  -16.9879   24.0708 N   0  0  0  0  0  0  0  0  0  0  0  0
   12.7584  -17.7058   25.0665 C   0  0  0  0  0  0  0  0  0  0  0  0
   14.0329  -17.5086   25.6173 O   0  0  0  0  0  0  0  0  0  0  0  0
   12.5080  -18.8418   24.6584 O   0  0  0  0  0  0  0  0  0  0  0  0
  2  3  1  0
  2  1  1  0
  3  4  1  6
  5  3  1  0
  5  6  1  1
  7  9  1  0
  7  5  1  0
  8  7  2  0
 10 11  1  6
 10  9  1  0
 11 12  1  0
 12 13  1  0
 13 14  1  0
 14 15  1  0
 16 10  1  0
 16 17  2  0
 19 20  1  0
 19 18  1  0
 20 21  1  0
 22 21  1  1
 22 24  1  0
 22 23  1  0
 23 16  1  0
 24 25  1  0
 26 24  2  0
M  END
$$$$
