IKM.pdb
     RDKit          3D

 26 25  0  0  1  0  0  0  0  0999 V2000
    7.8286  -12.1813   18.1384 C   0  0  0  0  0  0  0  0  0  0  0  0
    8.0837  -13.6400   18.2564 C   0  0  0  0  0  0  0  0  0  0  0  0
    7.8596  -14.1945   19.6501 C   0  0  2  0  0  0  0  0  0  0  0  0
    8.7535  -13.5733   20.6639 C   0  0  0  0  0  0  0  0  0  0  0  0
    8.2433  -15.6798   19.5204 C   0  0  2  0  0  0  0  0  0  0  0  0
    7.2232  -16.2971   18.6492 N   0  0  0  0  0  0  0  0  0  0  0  0
    8.1686  -16.4053   20.7961 C   0  0  0  0  0  0  0  0  0  0  0  0
    7.0255  -16.6101   21.3283 O   0  0  0  0  0  0  0  0  0  0  0  0
    9.2606  -16.9291   21.5361 N   0  0  0  0  0  0  0  0  0  0  0  0
    9.0910  -17.5947   22.8124 C   0  0  1  0  0  0  0  0  0  0  0  0
   10.1406  -18.6609   23.0492 C   0  0  0  0  0  0  0  0  0  0  0  0
    9.9535  -19.2494   24.4081 C   0  0  0  0  0  0  0  0  0  0  0  0
   10.9647  -20.3200   24.6464 C   0  0  0  0  0  0  0  0  0  0  0  0
   10.7923  -20.9558   25.9857 C   0  0  0  0  0  0  0  0  0  0  0  0
    9.6065  -21.8300   25.9527 N   0  0  0  0  0  0  0  0  0  0  0  0
    9.2462  -16.5791   23.9080 C   0  0  0  0  0  0  0  0  0  0  0  0
   10.3124  -15.9227   23.9390 O   0  0  0  0  0  0  0  0  0  0  0  0
    6.7051  -10.9457   28.2999 C   0  0  0  0  0  0  0  0  0  0  0  0
    6.6066  -12.0793   26.8904 S   0  0  0  0  0  0  0  0  0  0  0  0
    7.1148  -13.7396   27.3396 C   0  0  0  0  0  0  0  0  0  0  0  0
    7.1370  -14.7172   26.2343 C   0  0  0  0  0  0  0  0  0  0  0  0
    8.4698  -15.2280   25.8539 C   0  0  2  0  0  0  0  0  0  0  0  0
    8.2660  -16.3469   24.8706 N   0  0  0  0  0  0  0  0  0  0  0  0
    9.2801  -15.7337   26.9511 C   0  0  0  0  0  0  0  0  0  0  0  0
    9.3728  -17.1153   27.1726 O   0  0  0  0  0  0  0  0  0  0  0  0
    9.9115  -15.0114   27.7253 O   0  0  0  0  0  0  0  0  0  0  0  0
  2  3  1  0
  2  1  1  0
  3  4  1  1
  5  3  1  0
  5  6  1  6
  7  9  1  0
  7  5  1  0
  8  7  2  0
 10 11  1  1
 10  9  1  0
 11 12  1  0
 12 13  1  0
 13 14  1  0
 14 15  1  0
 16 10  1  0
 16 17  2  0
 19 20  1  0
 19 18  1  0
 20 21  1  0
 22 21  1  1
 22 24  1  0
 22 23  1  0
 23 16  1  0
 24 25  1  0
 26 24  2  0
M  END
$$$$
