IKM.pdb
     RDKit          3D

 26 25  0  0  1  0  0  0  0  0999 V2000
   14.7585  -15.8604   18.8983 C   0  0  0  0  0  0  0  0  0  0  0  0
   13.3752  -16.2642   18.5372 C   0  0  0  0  0  0  0  0  0  0  0  0
   12.3063  -15.6782   19.4395 C   0  0  2  0  0  0  0  0  0  0  0  0
   12.5157  -16.0203   20.8719 C   0  0  0  0  0  0  0  0  0  0  0  0
   11.0113  -16.3646   18.9685 C   0  0  2  0  0  0  0  0  0  0  0  0
   10.6775  -15.7671   17.6599 N   0  0  0  0  0  0  0  0  0  0  0  0
    9.8623  -16.0819   19.8396 C   0  0  0  0  0  0  0  0  0  0  0  0
    9.4079  -14.8896   19.9012 O   0  0  0  0  0  0  0  0  0  0  0  0
    9.1674  -17.0153   20.6523 N   0  0  0  0  0  0  0  0  0  0  0  0
    7.9711  -16.6669   21.3929 C   0  0  1  0  0  0  0  0  0  0  0  0
    7.0452  -17.8510   21.5803 C   0  0  0  0  0  0  0  0  0  0  0  0
    6.6235  -18.3683   20.2451 C   0  0  0  0  0  0  0  0  0  0  0  0
    5.7937  -19.5968   20.4106 C   0  0  0  0  0  0  0  0  0  0  0  0
    5.4105  -20.1873   19.0943 C   0  0  0  0  0  0  0  0  0  0  0  0
    4.6692  -21.4392   19.3278 N   0  0  0  0  0  0  0  0  0  0  0  0
    8.3729  -16.2062   22.7648 C   0  0  0  0  0  0  0  0  0  0  0  0
    9.4645  -16.6225   23.2162 O   0  0  0  0  0  0  0  0  0  0  0  0
    6.4015  -10.7206   26.0517 C   0  0  0  0  0  0  0  0  0  0  0  0
    6.5010  -12.0100   27.3201 S   0  0  0  0  0  0  0  0  0  0  0  0
    7.4852  -13.4048   26.7702 C   0  0  0  0  0  0  0  0  0  0  0  0
    7.2160  -13.8685   25.3952 C   0  0  0  0  0  0  0  0  0  0  0  0
    8.0731  -14.9685   24.9080 C   0  0  2  0  0  0  0  0  0  0  0  0
    7.5900  -15.3500   23.5363 N   0  0  0  0  0  0  0  0  0  0  0  0
    8.0793  -16.1664   25.7333 C   0  0  0  0  0  0  0  0  0  0  0  0
    9.0703  -16.3366   26.7108 O   0  0  0  0  0  0  0  0  0  0  0  0
    7.2491  -17.0721   25.6316 O   0  0  0  0  0  0  0  0  0  0  0  0
  2  3  1  0
  2  1  1  0
  3  4  1  1
  5  3  1  0
  5  6  1  6
  7  9  1  0
  7  5  1  0
  8  7  2  0
 10 11  1  1
 10  9  1  0
 11 12  1  0
 12 13  1  0
 13 14  1  0
 14 15  1  0
 16 10  1  0
 16 17  2  0
 19 20  1  0
 19 18  1  0
 20 21  1  0
 22 21  1  1
 22 24  1  0
 22 23  1  0
 23 16  1  0
 24 25  1  0
 26 24  2  0
M  END
$$$$
