IKM.pdb
     RDKit          3D

 26 25  0  0  1  0  0  0  0  0999 V2000
    8.0120  -11.9112   26.9856 C   0  0  0  0  0  0  0  0  0  0  0  0
    7.4122  -13.2384   26.6933 C   0  0  0  0  0  0  0  0  0  0  0  0
    6.3474  -13.2098   25.6137 C   0  0  2  0  0  0  0  0  0  0  0  0
    5.1003  -12.5311   26.0576 C   0  0  0  0  0  0  0  0  0  0  0  0
    6.0244  -14.6962   25.3769 C   0  0  2  0  0  0  0  0  0  0  0  0
    6.0371  -15.3403   26.7057 N   0  0  0  0  0  0  0  0  0  0  0  0
    7.0536  -15.3888   24.5893 C   0  0  0  0  0  0  0  0  0  0  0  0
    7.7656  -16.2882   25.1515 O   0  0  0  0  0  0  0  0  0  0  0  0
    7.3615  -15.1695   23.2212 N   0  0  0  0  0  0  0  0  0  0  0  0
    8.3758  -15.9294   22.5178 C   0  0  1  0  0  0  0  0  0  0  0  0
    8.5074  -15.5094   21.0684 C   0  0  0  0  0  0  0  0  0  0  0  0
    9.5779  -16.3166   20.4124 C   0  0  0  0  0  0  0  0  0  0  0  0
    9.1851  -16.6462   19.0115 C   0  0  0  0  0  0  0  0  0  0  0  0
   10.1632  -17.5701   18.3653 C   0  0  0  0  0  0  0  0  0  0  0  0
    9.6726  -17.9246   17.0218 N   0  0  0  0  0  0  0  0  0  0  0  0
    9.7050  -15.6732   23.1685 C   0  0  0  0  0  0  0  0  0  0  0  0
   10.1566  -14.5060   23.1175 O   0  0  0  0  0  0  0  0  0  0  0  0
   10.2406  -14.0149   28.2481 C   0  0  0  0  0  0  0  0  0  0  0  0
   11.9254  -14.6740   28.3393 S   0  0  0  0  0  0  0  0  0  0  0  0
   12.3913  -15.5119   26.8234 C   0  0  0  0  0  0  0  0  0  0  0  0
   11.2912  -15.7589   25.8712 C   0  0  0  0  0  0  0  0  0  0  0  0
   11.6907  -16.2804   24.5481 C   0  0  2  0  0  0  0  0  0  0  0  0
   10.4376  -16.6677   23.8131 N   0  0  0  0  0  0  0  0  0  0  0  0
   12.5737  -17.4362   24.5742 C   0  0  0  0  0  0  0  0  0  0  0  0
   13.8995  -17.2932   25.0083 O   0  0  0  0  0  0  0  0  0  0  0  0
   12.2291  -18.5689   24.2309 O   0  0  0  0  0  0  0  0  0  0  0  0
  2  3  1  0
  2  1  1  0
  3  4  1  1
  5  3  1  0
  5  6  1  1
  7  9  1  0
  7  5  1  0
  8  7  2  0
 10 11  1  6
 10  9  1  0
 11 12  1  0
 12 13  1  0
 13 14  1  0
 14 15  1  0
 16 10  1  0
 16 17  2  0
 19 20  1  0
 19 18  1  0
 20 21  1  0
 22 21  1  1
 22 24  1  0
 22 23  1  0
 23 16  1  0
 24 25  1  0
 26 24  2  0
M  END
$$$$
