PLD.pdb
     RDKit          3D

 24 24  0  0  1  0  0  0  0  0999 V2000
    7.2231  -14.9472   20.4539 N   0  0  0  0  0  0  0  0  0  0  0  0
    6.3912  -13.9996   19.7930 C   0  0  0  0  0  0  0  0  0  0  0  0
    7.3908  -13.0111   19.1874 C   0  0  0  0  0  0  0  0  0  0  0  0
    8.3971  -12.9103   20.3223 C   0  0  0  0  0  0  0  0  0  0  0  0
    8.4084  -14.3346   20.8829 C   0  0  1  0  0  0  0  0  0  0  0  0
    8.7627  -14.3774   22.2875 C   0  0  0  0  0  0  0  0  0  0  0  0
    9.9926  -14.2651   22.5835 O   0  0  0  0  0  0  0  0  0  0  0  0
    8.0651  -11.9460   26.1709 C   0  0  0  0  0  0  0  0  0  0  0  0
    6.8888  -12.6208   25.4493 C   0  0  2  0  0  0  0  0  0  0  0  0
    5.6528  -12.1790   26.1929 C   0  0  0  0  0  0  0  0  0  0  0  0
    7.0109  -14.1004   25.4885 C   0  0  0  0  0  0  0  0  0  0  0  0
    8.1140  -14.7060   24.6993 C   0  0  2  0  0  0  0  0  0  0  0  0
    7.8032  -14.5359   23.2987 N   0  0  0  0  0  0  0  0  0  0  0  0
    8.5428  -16.0438   25.0709 C   0  0  0  0  0  0  0  0  0  0  0  0
    7.7851  -17.0588   25.1034 O   0  0  0  0  0  0  0  0  0  0  0  0
    9.9019  -16.3053   25.4338 N   0  0  0  0  0  0  0  0  0  0  0  0
   10.3846  -17.6727   25.6157 C   0  0  1  0  0  0  0  0  0  0  0  0
   11.8138  -17.7749   25.0985 C   0  0  0  0  0  0  0  0  0  0  0  0
   12.4401  -19.0727   25.3275 C   0  0  0  0  0  0  0  0  0  0  0  0
   13.0511  -19.3439   26.4210 O   0  0  0  0  0  0  0  0  0  0  0  0
   10.4207  -17.9156   27.0757 C   0  0  0  0  0  0  0  0  0  0  0  0
   10.5514  -19.1892   27.6206 O   0  0  0  0  0  0  0  0  0  0  0  0
   12.4208  -20.0799   24.3984 O   0  0  0  0  0  0  0  0  0  0  0  0
   10.3322  -16.9569   27.9209 O   0  0  0  0  0  0  0  0  0  0  0  0
  1  5  1  0
  1  2  1  0
  2  3  1  0
  3  4  1  0
  5  4  1  0
  5  6  1  1
  6 13  1  0
  7  6  2  0
  9  8  1  1
  9 11  1  0
 10  9  1  0
 12 11  1  1
 12 13  1  0
 12 14  1  0
 14 15  2  0
 14 16  1  0
 16 17  1  0
 17 18  1  1
 17 21  1  0
 19 23  1  0
 19 18  1  0
 20 19  2  0
 21 22  1  0
 24 21  2  0
M  END
$$$$
