PLD.pdb
     RDKit          3D

 24 24  0  0  1  0  0  0  0  0999 V2000
    7.2570  -14.9217   19.8957 N   0  0  0  0  0  0  0  0  0  0  0  0
    6.4252  -13.9873   19.2161 C   0  0  0  0  0  0  0  0  0  0  0  0
    7.4229  -12.9884   18.6247 C   0  0  0  0  0  0  0  0  0  0  0  0
    8.4071  -12.8704   19.7772 C   0  0  0  0  0  0  0  0  0  0  0  0
    8.4264  -14.2924   20.3435 C   0  0  1  0  0  0  0  0  0  0  0  0
    8.7558  -14.3254   21.7544 C   0  0  0  0  0  0  0  0  0  0  0  0
    9.9835  -14.4181   22.0658 O   0  0  0  0  0  0  0  0  0  0  0  0
    5.7909  -12.7741   26.9209 C   0  0  0  0  0  0  0  0  0  0  0  0
    7.1010  -13.3017   26.3168 C   0  0  2  0  0  0  0  0  0  0  0  0
    8.1423  -12.2588   26.6392 C   0  0  0  0  0  0  0  0  0  0  0  0
    6.9843  -13.4743   24.8464 C   0  0  0  0  0  0  0  0  0  0  0  0
    8.0546  -14.2537   24.1729 C   0  0  2  0  0  0  0  0  0  0  0  0
    7.7751  -14.2590   22.7555 N   0  0  0  0  0  0  0  0  0  0  0  0
    8.3869  -15.5524   24.7340 C   0  0  0  0  0  0  0  0  0  0  0  0
    7.5919  -16.5375   24.7871 O   0  0  0  0  0  0  0  0  0  0  0  0
    9.6851  -15.8067   25.2788 N   0  0  0  0  0  0  0  0  0  0  0  0
   10.1220  -17.1675   25.5842 C   0  0  1  0  0  0  0  0  0  0  0  0
   11.4502  -17.4377   24.8889 C   0  0  0  0  0  0  0  0  0  0  0  0
   12.0529  -18.7215   25.2314 C   0  0  0  0  0  0  0  0  0  0  0  0
   11.3461  -19.7159   25.6240 O   0  0  0  0  0  0  0  0  0  0  0  0
   10.3657  -17.2138   27.0438 C   0  0  0  0  0  0  0  0  0  0  0  0
   10.4810  -18.4089   27.7469 O   0  0  0  0  0  0  0  0  0  0  0  0
   13.4023  -18.9500   25.1602 O   0  0  0  0  0  0  0  0  0  0  0  0
   10.4839  -16.1459   27.7417 O   0  0  0  0  0  0  0  0  0  0  0  0
  1  5  1  0
  1  2  1  0
  2  3  1  0
  3  4  1  0
  5  4  1  0
  5  6  1  1
  6 13  1  0
  7  6  2  0
  9  8  1  6
  9 11  1  0
 10  9  1  0
 12 11  1  1
 12 13  1  0
 12 14  1  0
 14 15  2  0
 14 16  1  0
 16 17  1  0
 17 18  1  6
 17 21  1  0
 19 23  1  0
 19 18  1  0
 20 19  2  0
 21 22  1  0
 24 21  2  0
M  END
$$$$
