PLD.pdb
     RDKit          3D

 24 24  0  0  1  0  0  0  0  0999 V2000
    7.4197  -14.9541   20.7886 N   0  0  0  0  0  0  0  0  0  0  0  0
    6.5189  -14.1327   20.0532 C   0  0  0  0  0  0  0  0  0  0  0  0
    7.4439  -13.1527   19.3273 C   0  0  0  0  0  0  0  0  0  0  0  0
    8.4599  -12.8735   20.4231 C   0  0  0  0  0  0  0  0  0  0  0  0
    8.5704  -14.2288   21.1259 C   0  0  1  0  0  0  0  0  0  0  0  0
    8.9493  -14.1043   22.5192 C   0  0  0  0  0  0  0  0  0  0  0  0
   10.1123  -13.6605   22.7710 O   0  0  0  0  0  0  0  0  0  0  0  0
    7.8335  -11.6620   26.1520 C   0  0  0  0  0  0  0  0  0  0  0  0
    6.8223  -12.6669   25.5797 C   0  0  2  0  0  0  0  0  0  0  0  0
    5.5456  -12.4371   26.3499 C   0  0  0  0  0  0  0  0  0  0  0  0
    7.2895  -14.0645   25.7641 C   0  0  0  0  0  0  0  0  0  0  0  0
    8.4621  -14.4940   24.9598 C   0  0  2  0  0  0  0  0  0  0  0  0
    8.0833  -14.4538   23.5662 N   0  0  0  0  0  0  0  0  0  0  0  0
    9.1439  -15.7094   25.3719 C   0  0  0  0  0  0  0  0  0  0  0  0
    9.3888  -16.0239   26.5745 O   0  0  0  0  0  0  0  0  0  0  0  0
    9.5942  -16.6629   24.4049 N   0  0  0  0  0  0  0  0  0  0  0  0
   10.2692  -17.8924   24.8153 C   0  0  1  0  0  0  0  0  0  0  0  0
   10.1800  -18.9152   23.6899 C   0  0  0  0  0  0  0  0  0  0  0  0
   10.9110  -20.1514   23.9474 C   0  0  0  0  0  0  0  0  0  0  0  0
   10.4582  -21.0509   24.7402 O   0  0  0  0  0  0  0  0  0  0  0  0
   11.6983  -17.5490   24.9928 C   0  0  0  0  0  0  0  0  0  0  0  0
   12.5501  -18.2849   25.8107 O   0  0  0  0  0  0  0  0  0  0  0  0
   12.1205  -20.4325   23.3677 O   0  0  0  0  0  0  0  0  0  0  0  0
   12.2298  -16.5468   24.3972 O   0  0  0  0  0  0  0  0  0  0  0  0
  1  5  1  0
  1  2  1  0
  2  3  1  0
  3  4  1  0
  5  4  1  0
  5  6  1  1
  6 13  1  0
  7  6  2  0
  9  8  1  1
  9 11  1  0
 10  9  1  0
 12 11  1  1
 12 13  1  0
 12 14  1  0
 14 15  2  0
 14 16  1  0
 16 17  1  0
 17 18  1  6
 17 21  1  0
 19 23  1  0
 19 18  1  0
 20 19  2  0
 21 22  1  0
 24 21  2  0
M  END
$$$$
