PLD.pdb
     RDKit          3D

 24 24  0  0  1  0  0  0  0  0999 V2000
    7.4512  -15.2931   21.0714 N   0  0  0  0  0  0  0  0  0  0  0  0
    6.5665  -14.4813   20.3065 C   0  0  0  0  0  0  0  0  0  0  0  0
    7.5101  -13.5435   19.5494 C   0  0  0  0  0  0  0  0  0  0  0  0
    8.5296  -13.2454   20.6370 C   0  0  0  0  0  0  0  0  0  0  0  0
    8.6145  -14.5777   21.3860 C   0  0  1  0  0  0  0  0  0  0  0  0
    8.9937  -14.4124   22.7749 C   0  0  0  0  0  0  0  0  0  0  0  0
   10.1941  -14.0755   23.0168 O   0  0  0  0  0  0  0  0  0  0  0  0
    7.9202  -11.5080   25.8825 C   0  0  0  0  0  0  0  0  0  0  0  0
    6.8676  -12.5642   25.5132 C   0  0  2  0  0  0  0  0  0  0  0  0
    5.6105  -12.1510   26.2377 C   0  0  0  0  0  0  0  0  0  0  0  0
    7.2900  -13.9198   25.9489 C   0  0  0  0  0  0  0  0  0  0  0  0
    8.4358  -14.5319   25.2286 C   0  0  2  0  0  0  0  0  0  0  0  0
    8.0887  -14.6113   23.8284 N   0  0  0  0  0  0  0  0  0  0  0  0
    9.0007  -15.7487   25.7869 C   0  0  0  0  0  0  0  0  0  0  0  0
    9.2858  -15.9137   27.0104 O   0  0  0  0  0  0  0  0  0  0  0  0
    9.2768  -16.8795   24.9550 N   0  0  0  0  0  0  0  0  0  0  0  0
    9.8524  -18.1025   25.5106 C   0  0  1  0  0  0  0  0  0  0  0  0
    9.6335  -19.2508   24.5338 C   0  0  0  0  0  0  0  0  0  0  0  0
   10.2659  -20.5034   24.9336 C   0  0  0  0  0  0  0  0  0  0  0  0
   11.5143  -20.7207   24.7416 O   0  0  0  0  0  0  0  0  0  0  0  0
   11.3118  -17.8738   25.6094 C   0  0  0  0  0  0  0  0  0  0  0  0
   12.1167  -18.5514   26.5199 O   0  0  0  0  0  0  0  0  0  0  0  0
    9.5761  -21.5243   25.5335 O   0  0  0  0  0  0  0  0  0  0  0  0
   11.9148  -17.0321   24.8549 O   0  0  0  0  0  0  0  0  0  0  0  0
  1  5  1  0
  1  2  1  0
  2  3  1  0
  3  4  1  0
  5  4  1  0
  5  6  1  1
  6 13  1  0
  7  6  2  0
  9  8  1  1
  9 11  1  0
 10  9  1  0
 12 11  1  1
 12 13  1  0
 12 14  1  0
 14 15  2  0
 14 16  1  0
 16 17  1  0
 17 18  1  6
 17 21  1  0
 19 23  1  0
 19 18  1  0
 20 19  2  0
 21 22  1  0
 24 21  2  0
M  END
$$$$
