PLD.pdb
     RDKit          3D

 24 24  0  0  1  0  0  0  0  0999 V2000
    7.4064  -14.9880   20.8000 N   0  0  0  0  0  0  0  0  0  0  0  0
    6.5015  -14.1249   20.1195 C   0  0  0  0  0  0  0  0  0  0  0  0
    7.4235  -13.1158   19.4304 C   0  0  0  0  0  0  0  0  0  0  0  0
    8.4567  -12.8986   20.5242 C   0  0  0  0  0  0  0  0  0  0  0  0
    8.5670  -14.2882   21.1567 C   0  0  1  0  0  0  0  0  0  0  0  0
    8.9661  -14.2361   22.5489 C   0  0  0  0  0  0  0  0  0  0  0  0
   10.1253  -13.7867   22.8080 O   0  0  0  0  0  0  0  0  0  0  0  0
    7.7610  -11.7547   25.9724 C   0  0  0  0  0  0  0  0  0  0  0  0
    6.8048  -12.8424   25.4599 C   0  0  2  0  0  0  0  0  0  0  0  0
    5.5001  -12.6033   26.1784 C   0  0  0  0  0  0  0  0  0  0  0  0
    7.3202  -14.2006   25.7684 C   0  0  0  0  0  0  0  0  0  0  0  0
    8.4911  -14.6706   24.9844 C   0  0  2  0  0  0  0  0  0  0  0  0
    8.1232  -14.6598   23.5873 N   0  0  0  0  0  0  0  0  0  0  0  0
    9.1488  -15.8864   25.4326 C   0  0  0  0  0  0  0  0  0  0  0  0
    9.2972  -16.2180   26.6464 O   0  0  0  0  0  0  0  0  0  0  0  0
    9.6867  -16.8203   24.4916 N   0  0  0  0  0  0  0  0  0  0  0  0
   10.4126  -18.0077   24.9377 C   0  0  1  0  0  0  0  0  0  0  0  0
   10.5423  -18.9843   23.7759 C   0  0  0  0  0  0  0  0  0  0  0  0
    9.2669  -19.4212   23.2180 C   0  0  0  0  0  0  0  0  0  0  0  0
    9.0227  -19.3585   21.9614 O   0  0  0  0  0  0  0  0  0  0  0  0
   11.7767  -17.5574   25.2957 C   0  0  0  0  0  0  0  0  0  0  0  0
   12.2271  -16.2637   25.0518 O   0  0  0  0  0  0  0  0  0  0  0  0
    8.2516  -19.9212   23.9908 O   0  0  0  0  0  0  0  0  0  0  0  0
   12.6212  -18.3430   25.8535 O   0  0  0  0  0  0  0  0  0  0  0  0
  1  5  1  0
  1  2  1  0
  2  3  1  0
  3  4  1  0
  5  4  1  0
  5  6  1  1
  6 13  1  0
  7  6  2  0
  9  8  1  1
  9 11  1  0
 10  9  1  0
 12 11  1  1
 12 13  1  0
 12 14  1  0
 14 15  2  0
 14 16  1  0
 16 17  1  0
 17 18  1  6
 17 21  1  0
 19 23  1  0
 19 18  1  0
 20 19  2  0
 21 22  1  0
 24 21  2  0
M  END
$$$$
