PLD.pdb
     RDKit          3D

 24 24  0  0  1  0  0  0  0  0999 V2000
    7.1977  -15.2814   21.1646 N   0  0  0  0  0  0  0  0  0  0  0  0
    6.3645  -14.3498   20.4829 C   0  0  0  0  0  0  0  0  0  0  0  0
    7.3564  -13.5172   19.6668 C   0  0  0  0  0  0  0  0  0  0  0  0
    8.4849  -13.3715   20.6748 C   0  0  0  0  0  0  0  0  0  0  0  0
    8.4612  -14.7212   21.3965 C   0  0  1  0  0  0  0  0  0  0  0  0
    8.9628  -14.6359   22.7535 C   0  0  0  0  0  0  0  0  0  0  0  0
   10.2111  -14.4576   22.9049 O   0  0  0  0  0  0  0  0  0  0  0  0
    8.1268  -11.5633   25.9948 C   0  0  0  0  0  0  0  0  0  0  0  0
    7.0253  -12.5706   25.6312 C   0  0  2  0  0  0  0  0  0  0  0  0
    5.8149  -12.1489   26.4268 C   0  0  0  0  0  0  0  0  0  0  0  0
    7.4217  -13.9552   25.9933 C   0  0  0  0  0  0  0  0  0  0  0  0
    8.5532  -14.5511   25.2376 C   0  0  2  0  0  0  0  0  0  0  0  0
    8.1227  -14.7433   23.8720 N   0  0  0  0  0  0  0  0  0  0  0  0
    9.2233  -15.6949   25.8328 C   0  0  0  0  0  0  0  0  0  0  0  0
    9.5139  -15.7988   27.0616 O   0  0  0  0  0  0  0  0  0  0  0  0
    9.6073  -16.8185   25.0345 N   0  0  0  0  0  0  0  0  0  0  0  0
   10.2493  -17.9863   25.6345 C   0  0  1  0  0  0  0  0  0  0  0  0
    9.7648  -19.2457   24.9276 C   0  0  0  0  0  0  0  0  0  0  0  0
   10.3733  -20.4775   25.4188 C   0  0  0  0  0  0  0  0  0  0  0  0
   10.8860  -20.5565   26.5907 O   0  0  0  0  0  0  0  0  0  0  0  0
   11.6991  -17.8542   25.3657 C   0  0  0  0  0  0  0  0  0  0  0  0
   12.6542  -18.6405   26.0026 O   0  0  0  0  0  0  0  0  0  0  0  0
   10.4403  -21.6223   24.6685 O   0  0  0  0  0  0  0  0  0  0  0  0
   12.1539  -17.0010   24.5251 O   0  0  0  0  0  0  0  0  0  0  0  0
  1  5  1  0
  1  2  1  0
  2  3  1  0
  3  4  1  0
  5  4  1  0
  5  6  1  1
  6 13  1  0
  7  6  2  0
  9  8  1  1
  9 11  1  0
 10  9  1  0
 12 11  1  1
 12 13  1  0
 12 14  1  0
 14 15  2  0
 14 16  1  0
 16 17  1  0
 17 18  1  6
 17 21  1  0
 19 23  1  0
 19 18  1  0
 20 19  2  0
 21 22  1  0
 24 21  2  0
M  END
$$$$
