PLD.pdb
     RDKit          3D

 24 24  0  0  1  0  0  0  0  0999 V2000
    7.3291  -15.7924   21.3347 N   0  0  0  0  0  0  0  0  0  0  0  0
    6.4493  -15.0293   20.5158 C   0  0  0  0  0  0  0  0  0  0  0  0
    7.4001  -14.1825   19.6661 C   0  0  0  0  0  0  0  0  0  0  0  0
    8.4441  -13.8153   20.7083 C   0  0  0  0  0  0  0  0  0  0  0  0
    8.5128  -15.0795   21.5685 C   0  0  1  0  0  0  0  0  0  0  0  0
    8.9191  -14.8038   22.9321 C   0  0  0  0  0  0  0  0  0  0  0  0
   10.1233  -14.4481   23.1223 O   0  0  0  0  0  0  0  0  0  0  0  0
    7.6791  -11.6057   25.7264 C   0  0  0  0  0  0  0  0  0  0  0  0
    6.6841  -12.7512   25.4857 C   0  0  2  0  0  0  0  0  0  0  0  0
    5.4166  -12.3392   26.1926 C   0  0  0  0  0  0  0  0  0  0  0  0
    7.1914  -14.0306   26.0436 C   0  0  0  0  0  0  0  0  0  0  0  0
    8.3836  -14.6257   25.3871 C   0  0  2  0  0  0  0  0  0  0  0  0
    8.0355  -14.9183   24.0158 N   0  0  0  0  0  0  0  0  0  0  0  0
    9.0619  -15.7031   26.0876 C   0  0  0  0  0  0  0  0  0  0  0  0
    9.3568  -15.6862   27.3196 O   0  0  0  0  0  0  0  0  0  0  0  0
    9.4498  -16.8964   25.4002 N   0  0  0  0  0  0  0  0  0  0  0  0
   10.1377  -17.9801   26.0991 C   0  0  1  0  0  0  0  0  0  0  0  0
    9.8285  -19.3015   25.4071 C   0  0  0  0  0  0  0  0  0  0  0  0
   10.4292  -20.4661   26.0486 C   0  0  0  0  0  0  0  0  0  0  0  0
   11.0774  -20.3709   27.1500 O   0  0  0  0  0  0  0  0  0  0  0  0
   11.5881  -17.7258   25.9462 C   0  0  0  0  0  0  0  0  0  0  0  0
   12.4776  -17.7937   27.0140 O   0  0  0  0  0  0  0  0  0  0  0  0
   10.3450  -21.7287   25.5223 O   0  0  0  0  0  0  0  0  0  0  0  0
   12.1042  -17.4269   24.8123 O   0  0  0  0  0  0  0  0  0  0  0  0
  1  5  1  0
  1  2  1  0
  2  3  1  0
  3  4  1  0
  5  4  1  0
  5  6  1  1
  6 13  1  0
  7  6  2  0
  9  8  1  1
  9 11  1  0
 10  9  1  0
 12 11  1  1
 12 13  1  0
 12 14  1  0
 14 15  2  0
 14 16  1  0
 16 17  1  0
 17 18  1  6
 17 21  1  0
 19 23  1  0
 19 18  1  0
 20 19  2  0
 21 22  1  0
 24 21  2  0
M  END
$$$$
