PLD.pdb
     RDKit          3D

 24 24  0  0  1  0  0  0  0  0999 V2000
    7.1197  -14.8631   20.6591 N   0  0  0  0  0  0  0  0  0  0  0  0
    6.3780  -13.8258   20.0262 C   0  0  0  0  0  0  0  0  0  0  0  0
    7.4522  -13.0167   19.2948 C   0  0  0  0  0  0  0  0  0  0  0  0
    8.5591  -13.0276   20.3367 C   0  0  0  0  0  0  0  0  0  0  0  0
    8.4143  -14.4183   20.9597 C   0  0  1  0  0  0  0  0  0  0  0  0
    8.8818  -14.4657   22.3307 C   0  0  0  0  0  0  0  0  0  0  0  0
   10.1304  -14.3418   22.5268 O   0  0  0  0  0  0  0  0  0  0  0  0
    8.3446  -11.7567   25.7980 C   0  0  0  0  0  0  0  0  0  0  0  0
    7.1527  -12.6211   25.3600 C   0  0  2  0  0  0  0  0  0  0  0  0
    5.9801  -12.1330   26.1741 C   0  0  0  0  0  0  0  0  0  0  0  0
    7.4032  -14.0597   25.6306 C   0  0  0  0  0  0  0  0  0  0  0  0
    8.4295  -14.7333   24.7943 C   0  0  2  0  0  0  0  0  0  0  0  0
    8.0092  -14.6407   23.4152 N   0  0  0  0  0  0  0  0  0  0  0  0
    8.8665  -16.0550   25.2114 C   0  0  0  0  0  0  0  0  0  0  0  0
    8.1284  -17.0846   25.2273 O   0  0  0  0  0  0  0  0  0  0  0  0
   10.2115  -16.2816   25.6434 N   0  0  0  0  0  0  0  0  0  0  0  0
   10.6903  -17.6290   25.9450 C   0  0  1  0  0  0  0  0  0  0  0  0
   12.2044  -17.6730   25.7839 C   0  0  0  0  0  0  0  0  0  0  0  0
   12.6753  -17.2830   24.4591 C   0  0  0  0  0  0  0  0  0  0  0  0
   12.1693  -17.7771   23.3903 O   0  0  0  0  0  0  0  0  0  0  0  0
   10.3870  -17.8736   27.3733 C   0  0  0  0  0  0  0  0  0  0  0  0
   10.5879  -19.1090   27.9813 O   0  0  0  0  0  0  0  0  0  0  0  0
   13.6820  -16.3731   24.2678 O   0  0  0  0  0  0  0  0  0  0  0  0
    9.9191  -16.9521   28.1305 O   0  0  0  0  0  0  0  0  0  0  0  0
  1  5  1  0
  1  2  1  0
  2  3  1  0
  3  4  1  0
  5  4  1  0
  5  6  1  1
  6 13  1  0
  7  6  2  0
  9  8  1  1
  9 11  1  0
 10  9  1  0
 12 11  1  1
 12 13  1  0
 12 14  1  0
 14 15  2  0
 14 16  1  0
 16 17  1  0
 17 18  1  1
 17 21  1  0
 19 23  1  0
 19 18  1  0
 20 19  2  0
 21 22  1  0
 24 21  2  0
M  END
$$$$
