PLD.pdb
     RDKit          3D

 24 24  0  0  1  0  0  0  0  0999 V2000
    7.5380  -15.2903   20.4677 N   0  0  0  0  0  0  0  0  0  0  0  0
    6.5642  -14.7596   19.5750 C   0  0  0  0  0  0  0  0  0  0  0  0
    7.3688  -13.7867   18.7094 C   0  0  0  0  0  0  0  0  0  0  0  0
    8.2726  -13.1670   19.7630 C   0  0  0  0  0  0  0  0  0  0  0  0
    8.5478  -14.3465   20.6990 C   0  0  1  0  0  0  0  0  0  0  0  0
    8.8301  -13.9257   22.0568 C   0  0  0  0  0  0  0  0  0  0  0  0
    9.9601  -13.3904   22.2796 O   0  0  0  0  0  0  0  0  0  0  0  0
    5.5276  -12.5775   27.0490 C   0  0  0  0  0  0  0  0  0  0  0  0
    6.9379  -12.8106   26.4862 C   0  0  2  0  0  0  0  0  0  0  0  0
    7.6182  -11.4649   26.5332 C   0  0  0  0  0  0  0  0  0  0  0  0
    6.8836  -13.3106   25.0888 C   0  0  0  0  0  0  0  0  0  0  0  0
    8.1658  -13.7487   24.4802 C   0  0  2  0  0  0  0  0  0  0  0  0
    7.9080  -14.0924   23.1009 N   0  0  0  0  0  0  0  0  0  0  0  0
    8.9534  -14.7241   25.2150 C   0  0  0  0  0  0  0  0  0  0  0  0
    9.3115  -14.5958   26.4235 O   0  0  0  0  0  0  0  0  0  0  0  0
    9.3860  -15.9378   24.5930 N   0  0  0  0  0  0  0  0  0  0  0  0
   10.0893  -16.9674   25.3553 C   0  0  1  0  0  0  0  0  0  0  0  0
    9.4512  -18.3226   25.0785 C   0  0  0  0  0  0  0  0  0  0  0  0
   10.1270  -19.4435   25.7235 C   0  0  0  0  0  0  0  0  0  0  0  0
   10.2941  -19.4909   26.9932 O   0  0  0  0  0  0  0  0  0  0  0  0
   11.4723  -17.0102   24.8285 C   0  0  0  0  0  0  0  0  0  0  0  0
   11.8722  -16.2815   23.7126 O   0  0  0  0  0  0  0  0  0  0  0  0
   10.6267  -20.5105   25.0236 O   0  0  0  0  0  0  0  0  0  0  0  0
   12.3809  -17.7273   25.3776 O   0  0  0  0  0  0  0  0  0  0  0  0
  1  5  1  0
  1  2  1  0
  2  3  1  0
  3  4  1  0
  5  4  1  0
  5  6  1  1
  6 13  1  0
  7  6  2  0
  9  8  1  6
  9 11  1  0
 10  9  1  0
 12 11  1  1
 12 13  1  0
 12 14  1  0
 14 15  2  0
 14 16  1  0
 16 17  1  0
 17 18  1  6
 17 21  1  0
 19 23  1  0
 19 18  1  0
 20 19  2  0
 21 22  1  0
 24 21  2  0
M  END
$$$$
