DRG.pdb
     RDKit          3D

 24 23  0  0  1  0  0  0  0  0999 V2000
   11.4204  -18.9773   16.1574 N   0  0  0  0  0  0  0  0  0  0  0  0
   11.6001  -19.4890   17.5003 C   0  0  1  0  0  0  0  0  0  0  0  0
   12.9515  -20.1610   17.6159 C   0  0  0  0  0  0  0  0  0  0  0  0
   12.9224  -21.4704   16.9189 C   0  0  0  0  0  0  0  0  0  0  0  0
   11.9054  -21.8743   16.3219 O   0  0  0  0  0  0  0  0  0  0  0  0
   11.4578  -18.3648   18.4481 C   0  0  0  0  0  0  0  0  0  0  0  0
   12.3033  -17.4387   18.4419 O   0  0  0  0  0  0  0  0  0  0  0  0
   14.0482  -22.2890   16.9165 O   0  0  0  0  0  0  0  0  0  0  0  0
    7.6946  -12.6544   18.4399 N   0  0  0  0  0  0  0  0  0  0  0  0
    8.5249  -12.4801   19.5750 C   0  0  0  0  0  0  0  0  0  0  0  0
    8.9982  -11.3145   19.9296 N   0  0  0  0  0  0  0  0  0  0  0  0
    8.9071  -13.5761   20.4162 N   0  0  0  0  0  0  0  0  0  0  0  0
    8.0526  -14.6935   20.6201 C   0  0  0  0  0  0  0  0  0  0  0  0
    8.5715  -15.7541   21.5366 C   0  0  0  0  0  0  0  0  0  0  0  0
    8.8151  -16.9965   20.6678 C   0  0  0  0  0  0  0  0  0  0  0  0
   10.2863  -17.1406   20.3130 C   0  0  2  0  0  0  0  0  0  0  0  0
   10.4058  -18.2435   19.3969 N   0  0  0  0  0  0  0  0  0  0  0  0
   11.0086  -17.3393   21.5687 C   0  0  0  0  0  0  0  0  0  0  0  0
   10.5335  -18.1050   22.4398 O   0  0  0  0  0  0  0  0  0  0  0  0
    9.6055  -11.3132   20.7765 N   0  0  0  0  0  0  0  0  0  0  0  0
   12.2407  -16.6912   21.8389 C   0  0  0  0  0  0  0  0  0  0  0  0
   13.0112  -16.9090   23.0448 C   0  0  0  0  0  0  0  0  0  0  0  0
   14.2409  -16.0727   23.0544 O   0  0  0  0  0  0  0  0  0  0  0  0
   14.5490  -15.3766   22.0570 O   0  0  0  0  0  0  0  0  0  0  0  0
  2  1  1  6
  2  3  1  0
  3  4  1  0
  4  8  1  0
  4  5  2  0
  6  2  1  0
  6  7  2  0
  9 10  1  0
 10 11  2  0
 10 12  1  0
 12 13  1  0
 13 14  1  0
 14 15  1  0
 16 15  1  1
 16 17  1  0
 17  6  1  0
 18 16  1  0
 19 18  2  0
 20 18  1  0
 21 22  1  0
 21 20  1  0
 22 24  1  0
 23 22  2  0
M  END
$$$$
