DRG.pdb
     RDKit          3D

 24 23  0  0  1  0  0  0  0  0999 V2000
    7.1606  -18.6451   19.2589 N   0  0  0  0  0  0  0  0  0  0  0  0
    8.5898  -18.6757   19.0266 C   0  0  1  0  0  0  0  0  0  0  0  0
    8.8655  -18.7780   17.5418 C   0  0  0  0  0  0  0  0  0  0  0  0
    8.1526  -19.9508   16.9783 C   0  0  0  0  0  0  0  0  0  0  0  0
    8.4614  -20.4388   15.8737 O   0  0  0  0  0  0  0  0  0  0  0  0
    9.1820  -17.4580   19.6172 C   0  0  0  0  0  0  0  0  0  0  0  0
   10.3786  -17.1712   19.3752 O   0  0  0  0  0  0  0  0  0  0  0  0
    7.1067  -20.5407   17.6824 O   0  0  0  0  0  0  0  0  0  0  0  0
    7.9957  -12.8911   15.4355 N   0  0  0  0  0  0  0  0  0  0  0  0
    7.9409  -13.7515   16.5603 C   0  0  0  0  0  0  0  0  0  0  0  0
    8.4442  -14.9577   16.5501 N   0  0  0  0  0  0  0  0  0  0  0  0
    7.3243  -13.3573   17.7930 N   0  0  0  0  0  0  0  0  0  0  0  0
    7.4832  -14.1176   18.9832 C   0  0  0  0  0  0  0  0  0  0  0  0
    8.0067  -13.3733   20.1690 C   0  0  0  0  0  0  0  0  0  0  0  0
    8.0368  -14.3760   21.3316 C   0  0  0  0  0  0  0  0  0  0  0  0
    9.1060  -15.4352   21.1177 C   0  0  2  0  0  0  0  0  0  0  0  0
    8.4827  -16.5554   20.4644 N   0  0  0  0  0  0  0  0  0  0  0  0
    9.6564  -15.7550   22.4341 C   0  0  0  0  0  0  0  0  0  0  0  0
    8.8786  -16.0085   23.3836 O   0  0  0  0  0  0  0  0  0  0  0  0
    8.3131  -15.5083   17.4250 N   0  0  0  0  0  0  0  0  0  0  0  0
   11.0530  -15.7904   22.6776 C   0  0  0  0  0  0  0  0  0  0  0  0
   11.6330  -16.1314   23.9592 C   0  0  0  0  0  0  0  0  0  0  0  0
   13.1062  -15.9287   23.9527 O   0  0  0  0  0  0  0  0  0  0  0  0
   13.7083  -15.6445   22.8892 O   0  0  0  0  0  0  0  0  0  0  0  0
  2  1  1  6
  2  3  1  0
  3  4  1  0
  4  8  1  0
  4  5  2  0
  6  2  1  0
  6  7  2  0
  9 10  1  0
 10 11  2  0
 10 12  1  0
 12 13  1  0
 13 14  1  0
 14 15  1  0
 16 15  1  1
 16 17  1  0
 17  6  1  0
 18 16  1  0
 19 18  2  0
 20 18  1  0
 21 22  1  0
 21 20  1  0
 22 24  1  0
 23 22  2  0
M  END
$$$$
