DRG.pdb
     RDKit          3D

 24 23  0  0  1  0  0  0  0  0999 V2000
   12.2331  -17.8167   17.6693 N   0  0  0  0  0  0  0  0  0  0  0  0
   13.2679  -16.8247   17.8759 C   0  0  1  0  0  0  0  0  0  0  0  0
   13.4110  -15.9678   16.6363 C   0  0  0  0  0  0  0  0  0  0  0  0
   12.7577  -16.6375   15.4848 C   0  0  0  0  0  0  0  0  0  0  0  0
   12.2420  -17.7676   15.5882 O   0  0  0  0  0  0  0  0  0  0  0  0
   12.9118  -16.0235   19.0648 C   0  0  0  0  0  0  0  0  0  0  0  0
   13.6366  -15.0564   19.3997 O   0  0  0  0  0  0  0  0  0  0  0  0
   12.7059  -16.0082   14.2444 O   0  0  0  0  0  0  0  0  0  0  0  0
    7.3203  -12.6675   19.2694 N   0  0  0  0  0  0  0  0  0  0  0  0
    7.7639  -13.4175   18.1517 C   0  0  0  0  0  0  0  0  0  0  0  0
    7.9973  -12.8740   16.9861 N   0  0  0  0  0  0  0  0  0  0  0  0
    7.9863  -14.8319   18.2217 N   0  0  0  0  0  0  0  0  0  0  0  0
    8.5675  -15.4400   19.3674 C   0  0  0  0  0  0  0  0  0  0  0  0
    9.4321  -14.5569   20.2081 C   0  0  0  0  0  0  0  0  0  0  0  0
   10.0344  -15.4525   21.3003 C   0  0  0  0  0  0  0  0  0  0  0  0
   11.5391  -15.5891   21.1327 C   0  0  2  0  0  0  0  0  0  0  0  0
   11.7773  -16.2673   19.8864 N   0  0  0  0  0  0  0  0  0  0  0  0
   12.0323  -16.3171   22.3010 C   0  0  0  0  0  0  0  0  0  0  0  0
   11.3534  -17.2587   22.7737 O   0  0  0  0  0  0  0  0  0  0  0  0
    8.3221  -13.5265   16.2414 N   0  0  0  0  0  0  0  0  0  0  0  0
   13.2644  -15.9939   22.9243 C   0  0  0  0  0  0  0  0  0  0  0  0
   13.7744  -16.6809   24.0918 C   0  0  0  0  0  0  0  0  0  0  0  0
   15.1667  -16.2574   24.3983 O   0  0  0  0  0  0  0  0  0  0  0  0
   15.7671  -15.4454   23.6536 O   0  0  0  0  0  0  0  0  0  0  0  0
  2  1  1  6
  2  3  1  0
  3  4  1  0
  4  8  1  0
  4  5  2  0
  6  2  1  0
  6  7  2  0
  9 10  1  0
 10 11  2  0
 10 12  1  0
 12 13  1  0
 13 14  1  0
 14 15  1  0
 16 15  1  1
 16 17  1  0
 17  6  1  0
 18 16  1  0
 19 18  2  0
 20 18  1  0
 21 22  1  0
 21 20  1  0
 22 24  1  0
 23 22  2  0
M  END
$$$$
