DRG.pdb
     RDKit          3D

 24 23  0  0  1  0  0  0  0  0999 V2000
   12.2597  -16.0722   18.6796 N   0  0  0  0  0  0  0  0  0  0  0  0
   13.0641  -15.2373   19.5476 C   0  0  1  0  0  0  0  0  0  0  0  0
   13.7571  -14.1675   18.7312 C   0  0  0  0  0  0  0  0  0  0  0  0
   14.9023  -14.7593   17.9968 C   0  0  0  0  0  0  0  0  0  0  0  0
   15.1432  -15.9819   18.0307 O   0  0  0  0  0  0  0  0  0  0  0  0
   12.1828  -14.6598   20.5830 C   0  0  0  0  0  0  0  0  0  0  0  0
   12.6764  -13.9481   21.4899 O   0  0  0  0  0  0  0  0  0  0  0  0
   15.7458  -13.9492   17.2421 O   0  0  0  0  0  0  0  0  0  0  0  0
    8.1555  -15.5152   17.2661 N   0  0  0  0  0  0  0  0  0  0  0  0
    8.1927  -14.2363   16.6569 C   0  0  0  0  0  0  0  0  0  0  0  0
    7.9065  -14.0479   15.3955 N   0  0  0  0  0  0  0  0  0  0  0  0
    8.5509  -13.0545   17.3849 N   0  0  0  0  0  0  0  0  0  0  0  0
    8.5377  -13.0208   18.8058 C   0  0  0  0  0  0  0  0  0  0  0  0
    8.5834  -14.3482   19.4913 C   0  0  0  0  0  0  0  0  0  0  0  0
    8.5519  -14.0588   20.9990 C   0  0  0  0  0  0  0  0  0  0  0  0
    9.9268  -14.2364   21.6226 C   0  0  2  0  0  0  0  0  0  0  0  0
   10.7748  -14.8510   20.6361 N   0  0  0  0  0  0  0  0  0  0  0  0
    9.7457  -15.0453   22.8272 C   0  0  0  0  0  0  0  0  0  0  0  0
    8.7801  -14.8087   23.5905 O   0  0  0  0  0  0  0  0  0  0  0  0
    7.9474  -13.0600   15.0665 N   0  0  0  0  0  0  0  0  0  0  0  0
   10.6315  -16.0997   23.1659 C   0  0  0  0  0  0  0  0  0  0  0  0
   10.4828  -16.9200   24.3492 C   0  0  0  0  0  0  0  0  0  0  0  0
   11.5131  -17.9916   24.3924 O   0  0  0  0  0  0  0  0  0  0  0  0
   12.4732  -17.9890   23.5846 O   0  0  0  0  0  0  0  0  0  0  0  0
  2  1  1  6
  2  3  1  0
  3  4  1  0
  4  8  1  0
  4  5  2  0
  6  2  1  0
  6  7  2  0
  9 10  1  0
 10 11  2  0
 10 12  1  0
 12 13  1  0
 13 14  1  0
 14 15  1  0
 16 15  1  6
 16 17  1  0
 17  6  1  0
 18 16  1  0
 19 18  2  0
 20 18  1  0
 21 22  1  0
 21 20  1  0
 22 24  1  0
 23 22  2  0
M  END
$$$$
