DRG.pdb
     RDKit          3D

 24 23  0  0  1  0  0  0  0  0999 V2000
   14.5465  -14.6867   16.7844 N   0  0  0  0  0  0  0  0  0  0  0  0
   14.2739  -15.7707   17.7054 C   0  0  1  0  0  0  0  0  0  0  0  0
   15.5289  -16.5898   17.9184 C   0  0  0  0  0  0  0  0  0  0  0  0
   15.8683  -17.3214   16.6732 C   0  0  0  0  0  0  0  0  0  0  0  0
   15.0132  -17.9681   16.0374 O   0  0  0  0  0  0  0  0  0  0  0  0
   13.7697  -15.1915   18.9674 C   0  0  0  0  0  0  0  0  0  0  0  0
   14.3573  -14.2069   19.4753 O   0  0  0  0  0  0  0  0  0  0  0  0
   17.1699  -17.3012   16.1804 O   0  0  0  0  0  0  0  0  0  0  0  0
    7.4259  -12.1377   19.1768 N   0  0  0  0  0  0  0  0  0  0  0  0
    7.6371  -13.1354   18.1927 C   0  0  0  0  0  0  0  0  0  0  0  0
    7.7172  -12.8613   16.9172 N   0  0  0  0  0  0  0  0  0  0  0  0
    7.7762  -14.5218   18.5295 N   0  0  0  0  0  0  0  0  0  0  0  0
    8.5428  -14.9444   19.6492 C   0  0  0  0  0  0  0  0  0  0  0  0
   10.0042  -14.6357   19.5944 C   0  0  0  0  0  0  0  0  0  0  0  0
   10.6197  -15.2235   20.8725 C   0  0  0  0  0  0  0  0  0  0  0  0
   12.1317  -15.0669   20.8781 C   0  0  2  0  0  0  0  0  0  0  0  0
   12.6355  -15.6751   19.6754 N   0  0  0  0  0  0  0  0  0  0  0  0
   12.6196  -15.6976   22.1038 C   0  0  0  0  0  0  0  0  0  0  0  0
   11.8744  -16.4861   22.7314 O   0  0  0  0  0  0  0  0  0  0  0  0
    7.8769  -13.6779   16.2898 N   0  0  0  0  0  0  0  0  0  0  0  0
   13.9195  -15.4477   22.6128 C   0  0  0  0  0  0  0  0  0  0  0  0
   14.4303  -16.0439   23.8288 C   0  0  0  0  0  0  0  0  0  0  0  0
   15.8428  -15.6456   24.0696 O   0  0  0  0  0  0  0  0  0  0  0  0
   16.4699  -14.9672   23.2206 O   0  0  0  0  0  0  0  0  0  0  0  0
  2  1  1  6
  2  3  1  0
  3  4  1  0
  4  8  1  0
  4  5  2  0
  6  2  1  0
  6  7  2  0
  9 10  1  0
 10 11  2  0
 10 12  1  0
 12 13  1  0
 13 14  1  0
 14 15  1  0
 16 15  1  6
 16 17  1  0
 17  6  1  0
 18 16  1  0
 19 18  2  0
 20 18  1  0
 21 22  1  0
 21 20  1  0
 22 24  1  0
 23 22  2  0
M  END
$$$$
