DRG.pdb
     RDKit          3D

 24 23  0  0  1  0  0  0  0  0999 V2000
   10.1695  -19.8179   18.7655 N   0  0  0  0  0  0  0  0  0  0  0  0
    9.4003  -19.3586   19.9034 C   0  0  1  0  0  0  0  0  0  0  0  0
    9.2943  -20.4653   20.9306 C   0  0  0  0  0  0  0  0  0  0  0  0
    8.5484  -21.6126   20.3575 C   0  0  0  0  0  0  0  0  0  0  0  0
    8.1000  -21.5897   19.1947 O   0  0  0  0  0  0  0  0  0  0  0  0
   10.0573  -18.1547   20.4522 C   0  0  0  0  0  0  0  0  0  0  0  0
   11.1845  -17.8135   20.0212 O   0  0  0  0  0  0  0  0  0  0  0  0
    8.3297  -22.7576   21.1182 O   0  0  0  0  0  0  0  0  0  0  0  0
    7.8947  -14.7162   17.7815 N   0  0  0  0  0  0  0  0  0  0  0  0
    7.7197  -13.4376   18.3670 C   0  0  0  0  0  0  0  0  0  0  0  0
    8.0670  -12.3321   17.7624 N   0  0  0  0  0  0  0  0  0  0  0  0
    7.1487  -13.2672   19.6709 N   0  0  0  0  0  0  0  0  0  0  0  0
    7.4901  -14.1236   20.7526 C   0  0  0  0  0  0  0  0  0  0  0  0
    8.9173  -14.0809   21.1945 C   0  0  0  0  0  0  0  0  0  0  0  0
    9.0595  -15.1336   22.3034 C   0  0  0  0  0  0  0  0  0  0  0  0
   10.1448  -16.1437   21.9679 C   0  0  2  0  0  0  0  0  0  0  0  0
    9.4972  -17.3245   21.4614 N   0  0  0  0  0  0  0  0  0  0  0  0
   10.9064  -16.3723   23.1950 C   0  0  0  0  0  0  0  0  0  0  0  0
   10.3065  -16.7259   24.2372 O   0  0  0  0  0  0  0  0  0  0  0  0
    7.9633  -11.4598   18.3230 N   0  0  0  0  0  0  0  0  0  0  0  0
   12.3139  -16.2079   23.2490 C   0  0  0  0  0  0  0  0  0  0  0  0
   13.1076  -16.4917   24.4256 C   0  0  0  0  0  0  0  0  0  0  0  0
   14.5455  -16.1960   24.1873 O   0  0  0  0  0  0  0  0  0  0  0  0
   14.9462  -15.8416   23.0524 O   0  0  0  0  0  0  0  0  0  0  0  0
  2  1  1  6
  2  3  1  0
  3  4  1  0
  4  8  1  0
  4  5  2  0
  6  2  1  0
  6  7  2  0
  9 10  1  0
 10 11  2  0
 10 12  1  0
 12 13  1  0
 13 14  1  0
 14 15  1  0
 16 15  1  1
 16 17  1  0
 17  6  1  0
 18 16  1  0
 19 18  2  0
 20 18  1  0
 21 22  1  0
 21 20  1  0
 22 24  1  0
 23 22  2  0
M  END
$$$$
