DRG.pdb
     RDKit          3D

 24 23  0  0  1  0  0  0  0  0999 V2000
   14.3016  -13.9301   17.2125 N   0  0  0  0  0  0  0  0  0  0  0  0
   14.6458  -15.0898   18.0088 C   0  0  1  0  0  0  0  0  0  0  0  0
   16.1510  -15.2112   18.1133 C   0  0  0  0  0  0  0  0  0  0  0  0
   16.7119  -15.6410   16.8087 C   0  0  0  0  0  0  0  0  0  0  0  0
   15.9820  -15.8832   15.8277 O   0  0  0  0  0  0  0  0  0  0  0  0
   14.0083  -14.9486   19.3339 C   0  0  0  0  0  0  0  0  0  0  0  0
   14.3487  -14.0059   20.0876 O   0  0  0  0  0  0  0  0  0  0  0  0
   18.0871  -15.7855   16.6498 O   0  0  0  0  0  0  0  0  0  0  0  0
    7.2838  -12.7608   16.5502 N   0  0  0  0  0  0  0  0  0  0  0  0
    7.6272  -13.1365   17.8728 C   0  0  0  0  0  0  0  0  0  0  0  0
    6.7315  -13.3385   18.8031 N   0  0  0  0  0  0  0  0  0  0  0  0
    8.9879  -13.3197   18.2849 N   0  0  0  0  0  0  0  0  0  0  0  0
    9.3277  -14.1440   19.3918 C   0  0  0  0  0  0  0  0  0  0  0  0
   10.7880  -14.2839   19.6782 C   0  0  0  0  0  0  0  0  0  0  0  0
   10.9083  -15.2806   20.8401 C   0  0  0  0  0  0  0  0  0  0  0  0
   12.3609  -15.6369   21.1119 C   0  0  2  0  0  0  0  0  0  0  0  0
   13.0076  -15.8225   19.8401 N   0  0  0  0  0  0  0  0  0  0  0  0
   12.3548  -16.8364   21.9481 C   0  0  0  0  0  0  0  0  0  0  0  0
   11.6563  -17.8209   21.6106 O   0  0  0  0  0  0  0  0  0  0  0  0
    7.0999  -13.6738   19.7184 N   0  0  0  0  0  0  0  0  0  0  0  0
   13.1195  -16.9277   23.1389 C   0  0  0  0  0  0  0  0  0  0  0  0
   12.5779  -17.3738   24.4049 C   0  0  0  0  0  0  0  0  0  0  0  0
   13.5585  -17.1807   25.5062 O   0  0  0  0  0  0  0  0  0  0  0  0
   13.2825  -17.5345   26.6779 O   0  0  0  0  0  0  0  0  0  0  0  0
  2  1  1  6
  2  3  1  0
  3  4  1  0
  4  8  1  0
  4  5  2  0
  6  2  1  0
  6  7  2  0
  9 10  1  0
 10 11  2  0
 10 12  1  0
 12 13  1  0
 13 14  1  0
 14 15  1  0
 16 15  1  6
 16 17  1  0
 17  6  1  0
 18 16  1  0
 19 18  2  0
 20 18  1  0
 21 22  1  0
 21 20  1  0
 22 24  1  0
 23 22  2  0
M  END
$$$$
