DRG.pdb
     RDKit          3D

 24 23  0  0  1  0  0  0  0  0999 V2000
   18.2212  -23.2184   26.6788 N   0  0  0  0  0  0  0  0  0  0  0  0
   17.9104  -23.9791   27.8714 C   0  0  1  0  0  0  0  0  0  0  0  0
   19.1588  -24.6679   28.3796 C   0  0  0  0  0  0  0  0  0  0  0  0
   19.5557  -25.7452   27.4400 C   0  0  0  0  0  0  0  0  0  0  0  0
   18.9493  -25.9386   26.3683 O   0  0  0  0  0  0  0  0  0  0  0  0
   17.3394  -23.0569   28.8743 C   0  0  0  0  0  0  0  0  0  0  0  0
   17.8383  -21.9158   29.0213 O   0  0  0  0  0  0  0  0  0  0  0  0
   20.6311  -26.5765   27.7399 O   0  0  0  0  0  0  0  0  0  0  0  0
   12.7902  -19.0912   32.4285 N   0  0  0  0  0  0  0  0  0  0  0  0
   11.6625  -19.8470   32.8351 C   0  0  0  0  0  0  0  0  0  0  0  0
   11.0278  -19.6189   33.9547 N   0  0  0  0  0  0  0  0  0  0  0  0
   11.1383  -20.9212   32.0437 N   0  0  0  0  0  0  0  0  0  0  0  0
   11.9912  -21.8220   31.3500 C   0  0  0  0  0  0  0  0  0  0  0  0
   13.4583  -21.6151   31.5465 C   0  0  0  0  0  0  0  0  0  0  0  0
   14.1647  -22.6594   30.6699 C   0  0  0  0  0  0  0  0  0  0  0  0
   15.6690  -22.4414   30.6576 C   0  0  2  0  0  0  0  0  0  0  0  0
   16.2342  -23.3678   29.7129 N   0  0  0  0  0  0  0  0  0  0  0  0
   16.1384  -22.6406   32.0280 C   0  0  0  0  0  0  0  0  0  0  0  0
   15.7219  -23.6221   32.6868 O   0  0  0  0  0  0  0  0  0  0  0  0
   10.2335  -20.2611   34.1616 N   0  0  0  0  0  0  0  0  0  0  0  0
   17.0583  -21.7549   32.6448 C   0  0  0  0  0  0  0  0  0  0  0  0
   17.6306  -21.9812   33.9549 C   0  0  0  0  0  0  0  0  0  0  0  0
   18.6580  -20.9552   34.2763 O   0  0  0  0  0  0  0  0  0  0  0  0
   19.1526  -20.2397   33.3720 O   0  0  0  0  0  0  0  0  0  0  0  0
  2  1  1  6
  2  3  1  0
  3  4  1  0
  4  8  1  0
  4  5  2  0
  6  2  1  0
  6  7  2  0
  9 10  1  0
 10 11  2  0
 10 12  1  0
 12 13  1  0
 13 14  1  0
 14 15  1  0
 16 15  1  1
 16 17  1  0
 17  6  1  0
 18 16  1  0
 19 18  2  0
 20 18  1  0
 21 22  1  0
 21 20  1  0
 22 24  1  0
 23 22  2  0
M  END
$$$$
