DRG.pdb
     RDKit          3D

 24 23  0  0  1  0  0  0  0  0999 V2000
    9.9740  -16.7860   18.2769 N   0  0  0  0  0  0  0  0  0  0  0  0
    9.5171  -17.6233   19.3668 C   0  0  1  0  0  0  0  0  0  0  0  0
   10.2695  -18.9366   19.3542 C   0  0  0  0  0  0  0  0  0  0  0  0
    9.8647  -19.7360   18.1718 C   0  0  0  0  0  0  0  0  0  0  0  0
    8.7649  -19.5671   17.6099 O   0  0  0  0  0  0  0  0  0  0  0  0
    9.7118  -16.8855   20.6317 C   0  0  0  0  0  0  0  0  0  0  0  0
   10.8178  -16.3440   20.8689 O   0  0  0  0  0  0  0  0  0  0  0  0
   10.7180  -20.7073   17.6561 O   0  0  0  0  0  0  0  0  0  0  0  0
    6.5109  -10.8439   24.9285 N   0  0  0  0  0  0  0  0  0  0  0  0
    6.5383  -11.6748   26.0763 C   0  0  0  0  0  0  0  0  0  0  0  0
    6.2229  -11.2407   27.2682 N   0  0  0  0  0  0  0  0  0  0  0  0
    6.9178  -13.0555   26.0097 N   0  0  0  0  0  0  0  0  0  0  0  0
    7.2993  -13.6662   24.7843 C   0  0  0  0  0  0  0  0  0  0  0  0
    7.7513  -15.0880   24.8758 C   0  0  0  0  0  0  0  0  0  0  0  0
    7.6050  -15.6809   23.4669 C   0  0  0  0  0  0  0  0  0  0  0  0
    8.9535  -16.0960   22.9013 C   0  0  2  0  0  0  0  0  0  0  0  0
    8.7148  -16.7342   21.6341 N   0  0  0  0  0  0  0  0  0  0  0  0
    9.5781  -16.9722   23.8915 C   0  0  0  0  0  0  0  0  0  0  0  0
    8.8981  -17.8749   24.4335 O   0  0  0  0  0  0  0  0  0  0  0  0
    6.3221  -11.9328   28.0409 N   0  0  0  0  0  0  0  0  0  0  0  0
   10.9397  -16.8369   24.2638 C   0  0  0  0  0  0  0  0  0  0  0  0
   11.5920  -17.6902   25.2340 C   0  0  0  0  0  0  0  0  0  0  0  0
   12.9740  -17.2205   25.5189 O   0  0  0  0  0  0  0  0  0  0  0  0
   13.4520  -16.2325   24.9108 O   0  0  0  0  0  0  0  0  0  0  0  0
  2  1  1  6
  2  3  1  0
  3  4  1  0
  4  8  1  0
  4  5  2  0
  6  2  1  0
  6  7  2  0
  9 10  1  0
 10 11  2  0
 10 12  1  0
 12 13  1  0
 13 14  1  0
 14 15  1  0
 16 15  1  1
 16 17  1  0
 17  6  1  0
 18 16  1  0
 19 18  2  0
 20 18  1  0
 21 22  1  0
 21 20  1  0
 22 24  1  0
 23 22  2  0
M  END
$$$$
