DRG.pdb
     RDKit          3D

 24 23  0  0  1  0  0  0  0  0999 V2000
   11.5519  -20.3599   27.5350 N   0  0  0  0  0  0  0  0  0  0  0  0
   12.3982  -21.4941   27.8430 C   0  0  1  0  0  0  0  0  0  0  0  0
   13.8407  -21.1562   27.5327 C   0  0  0  0  0  0  0  0  0  0  0  0
   14.0132  -20.9875   26.0688 C   0  0  0  0  0  0  0  0  0  0  0  0
   13.3474  -21.6488   25.2484 O   0  0  0  0  0  0  0  0  0  0  0  0
   12.2051  -21.8444   29.2651 C   0  0  0  0  0  0  0  0  0  0  0  0
   12.1540  -20.9339   30.1259 O   0  0  0  0  0  0  0  0  0  0  0  0
   14.9371  -20.0726   25.5722 O   0  0  0  0  0  0  0  0  0  0  0  0
    6.8983  -25.6078   33.8213 N   0  0  0  0  0  0  0  0  0  0  0  0
    7.9454  -25.2070   34.6880 C   0  0  0  0  0  0  0  0  0  0  0  0
    8.2013  -25.8190   35.8142 N   0  0  0  0  0  0  0  0  0  0  0  0
    8.7997  -24.0952   34.3893 N   0  0  0  0  0  0  0  0  0  0  0  0
    9.3214  -23.8848   33.0840 C   0  0  0  0  0  0  0  0  0  0  0  0
   10.3223  -24.8889   32.6108 C   0  0  0  0  0  0  0  0  0  0  0  0
   10.6768  -24.5009   31.1680 C   0  0  0  0  0  0  0  0  0  0  0  0
   11.8112  -23.4897   31.1325 C   0  0  2  0  0  0  0  0  0  0  0  0
   12.0674  -23.1729   29.7526 N   0  0  0  0  0  0  0  0  0  0  0  0
   12.9493  -24.1038   31.8150 C   0  0  0  0  0  0  0  0  0  0  0  0
   13.3094  -25.2612   31.4960 O   0  0  0  0  0  0  0  0  0  0  0  0
    9.0259  -25.4638   36.3432 N   0  0  0  0  0  0  0  0  0  0  0  0
   13.6685  -23.4299   32.8347 C   0  0  0  0  0  0  0  0  0  0  0  0
   14.7712  -24.0229   33.5609 C   0  0  0  0  0  0  0  0  0  0  0  0
   15.3464  -23.0633   34.5408 O   0  0  0  0  0  0  0  0  0  0  0  0
   15.0008  -21.8572   34.5336 O   0  0  0  0  0  0  0  0  0  0  0  0
  2  1  1  1
  2  3  1  0
  3  4  1  0
  4  8  1  0
  4  5  2  0
  6  2  1  0
  6  7  2  0
  9 10  1  0
 10 11  2  0
 10 12  1  0
 12 13  1  0
 13 14  1  0
 14 15  1  0
 16 15  1  6
 16 17  1  0
 17  6  1  0
 18 16  1  0
 19 18  2  0
 20 18  1  0
 21 22  1  0
 21 20  1  0
 22 24  1  0
 23 22  2  0
M  END
$$$$
