ECS.pdb
     RDKit          3D

 22 21  0  0  1  0  0  0  0  0999 V2000
    8.2876  -13.2370   20.4677 N   0  0  0  0  0  0  0  0  0  0  0  0
    7.2749  -13.7350   21.3787 C   0  0  1  0  0  0  0  0  0  0  0  0
    6.7536  -15.0361   20.8756 C   0  0  0  0  0  0  0  0  0  0  0  0
    7.7726  -16.1228   20.6996 C   0  0  0  0  0  0  0  0  0  0  0  0
    7.1721  -17.4170   20.3722 C   0  0  0  0  0  0  0  0  0  0  0  0
    5.9299  -17.5270   20.2357 O   0  0  0  0  0  0  0  0  0  0  0  0
    7.8653  -13.8171   22.7273 C   0  0  0  0  0  0  0  0  0  0  0  0
    9.1018  -13.9776   22.8608 O   0  0  0  0  0  0  0  0  0  0  0  0
    7.9438  -18.5525   20.2037 O   0  0  0  0  0  0  0  0  0  0  0  0
    7.1031  -13.7234   23.9215 N   0  0  0  0  0  0  0  0  0  0  0  0
    7.7519  -13.8006   25.2469 C   0  0  1  0  0  0  0  0  0  0  0  0
    6.7047  -13.2896   26.2450 C   0  0  0  0  0  0  0  0  0  0  0  0
    6.7193  -11.4953   26.3686 S   0  0  0  0  0  0  0  0  0  0  0  0
    8.0071  -15.2298   25.5611 C   0  0  0  0  0  0  0  0  0  0  0  0
    7.2078  -16.1214   25.1097 O   0  0  0  0  0  0  0  0  0  0  0  0
   11.2873  -16.9974   25.1203 O   0  0  0  0  0  0  0  0  0  0  0  0
   10.0933  -17.6521   25.3220 C   0  0  0  0  0  0  0  0  0  0  0  0
    9.3431  -17.1354   26.5244 C   0  0  2  0  0  0  0  0  0  0  0  0
    9.0803  -15.7017   26.3308 N   0  0  0  0  0  0  0  0  0  0  0  0
   10.2025  -17.3332   27.7116 C   0  0  0  0  0  0  0  0  0  0  0  0
   10.6002  -16.3624   28.3897 O   0  0  0  0  0  0  0  0  0  0  0  0
   10.5721  -18.6070   28.0786 O   0  0  0  0  0  0  0  0  0  0  0  0
  2  1  1  6
  2  7  1  0
  3  4  1  0
  3  2  1  0
  5  4  1  0
  6  5  2  0
  7 10  1  0
  7  8  2  0
  9  5  1  0
 10 11  1  0
 11 14  1  0
 12 13  1  0
 11 12  1  1
 14 15  2  0
 14 19  1  0
 16 17  1  0
 18 20  1  0
 18 17  1  6
 19 18  1  0
 20 22  1  0
 21 20  2  0
M  END
$$$$
