ECS.pdb
     RDKit          3D

 22 21  0  0  1  0  0  0  0  0999 V2000
    7.2161  -18.8712   19.5182 N   0  0  0  0  0  0  0  0  0  0  0  0
    6.4514  -19.1390   20.7210 C   0  0  1  0  0  0  0  0  0  0  0  0
    6.0813  -20.5810   20.7613 C   0  0  0  0  0  0  0  0  0  0  0  0
    7.2024  -21.5490   20.5241 C   0  0  0  0  0  0  0  0  0  0  0  0
    6.7820  -22.9459   20.6451 C   0  0  0  0  0  0  0  0  0  0  0  0
    7.6145  -23.8755   20.5164 O   0  0  0  0  0  0  0  0  0  0  0  0
    7.2469  -18.7010   21.8827 C   0  0  0  0  0  0  0  0  0  0  0  0
    8.4959  -18.6315   21.7959 O   0  0  0  0  0  0  0  0  0  0  0  0
    5.4666  -23.2874   20.9028 O   0  0  0  0  0  0  0  0  0  0  0  0
    6.6746  -18.3414   23.1313 N   0  0  0  0  0  0  0  0  0  0  0  0
    7.5175  -17.8540   24.2430 C   0  0  1  0  0  0  0  0  0  0  0  0
    6.6909  -16.7619   24.9343 C   0  0  0  0  0  0  0  0  0  0  0  0
    7.4333  -16.2456   26.4890 S   0  0  0  0  0  0  0  0  0  0  0  0
    7.6955  -18.9617   25.2165 C   0  0  0  0  0  0  0  0  0  0  0  0
    6.6674  -19.6017   25.6301 O   0  0  0  0  0  0  0  0  0  0  0  0
   10.7919  -21.3754   25.3824 O   0  0  0  0  0  0  0  0  0  0  0  0
    9.6425  -21.6656   26.0821 C   0  0  0  0  0  0  0  0  0  0  0  0
    9.0402  -20.4495   26.7406 C   0  0  2  0  0  0  0  0  0  0  0  0
    8.9287  -19.3811   25.7364 N   0  0  0  0  0  0  0  0  0  0  0  0
    9.9514  -20.0262   27.8258 C   0  0  0  0  0  0  0  0  0  0  0  0
   10.4971  -18.9026   27.8092 O   0  0  0  0  0  0  0  0  0  0  0  0
   10.2046  -20.8820   28.8734 O   0  0  0  0  0  0  0  0  0  0  0  0
  2  1  1  6
  2  7  1  0
  3  4  1  0
  3  2  1  0
  5  4  1  0
  6  5  2  0
  7 10  1  0
  7  8  2  0
  9  5  1  0
 10 11  1  0
 11 14  1  0
 12 13  1  0
 11 12  1  1
 14 15  2  0
 14 19  1  0
 16 17  1  0
 18 20  1  0
 18 17  1  6
 19 18  1  0
 20 22  1  0
 21 20  2  0
M  END
$$$$
