ECS.pdb
     RDKit          3D

 22 21  0  0  1  0  0  0  0  0999 V2000
    8.1950  -14.0541   20.0122 N   0  0  0  0  0  0  0  0  0  0  0  0
    7.1995  -14.0842   21.0664 C   0  0  1  0  0  0  0  0  0  0  0  0
    6.3432  -15.2918   20.9040 C   0  0  0  0  0  0  0  0  0  0  0  0
    7.0525  -16.5410   20.4719 C   0  0  0  0  0  0  0  0  0  0  0  0
    6.6324  -17.7227   21.2268 C   0  0  0  0  0  0  0  0  0  0  0  0
    7.0529  -17.9169   22.3927 O   0  0  0  0  0  0  0  0  0  0  0  0
    7.8973  -14.0254   22.3641 C   0  0  0  0  0  0  0  0  0  0  0  0
    9.0977  -14.3788   22.4460 O   0  0  0  0  0  0  0  0  0  0  0  0
    5.7668  -18.6574   20.6880 O   0  0  0  0  0  0  0  0  0  0  0  0
    7.2813  -13.5813   23.5636 N   0  0  0  0  0  0  0  0  0  0  0  0
    8.0328  -13.5399   24.8354 C   0  0  1  0  0  0  0  0  0  0  0  0
    7.1574  -12.7308   25.8012 C   0  0  0  0  0  0  0  0  0  0  0  0
    7.8656  -12.6702   27.4535 S   0  0  0  0  0  0  0  0  0  0  0  0
    8.1257  -14.9226   25.3699 C   0  0  0  0  0  0  0  0  0  0  0  0
    7.0657  -15.6354   25.4473 O   0  0  0  0  0  0  0  0  0  0  0  0
   11.2695  -17.2836   25.0099 O   0  0  0  0  0  0  0  0  0  0  0  0
   10.0596  -17.7992   25.4163 C   0  0  0  0  0  0  0  0  0  0  0  0
    9.3336  -16.8903   26.3766 C   0  0  2  0  0  0  0  0  0  0  0  0
    9.3090  -15.5342   25.8088 N   0  0  0  0  0  0  0  0  0  0  0  0
   10.0842  -16.8883   27.6509 C   0  0  0  0  0  0  0  0  0  0  0  0
   10.5341  -15.8275   28.1335 O   0  0  0  0  0  0  0  0  0  0  0  0
   10.2924  -18.0732   28.3191 O   0  0  0  0  0  0  0  0  0  0  0  0
  2  1  1  6
  2  7  1  0
  3  4  1  0
  3  2  1  0
  5  4  1  0
  6  5  2  0
  7 10  1  0
  7  8  2  0
  9  5  1  0
 10 11  1  0
 11 14  1  0
 12 13  1  0
 11 12  1  1
 14 15  2  0
 14 19  1  0
 16 17  1  0
 18 20  1  0
 18 17  1  6
 19 18  1  0
 20 22  1  0
 21 20  2  0
M  END
$$$$
