ECS.pdb
     RDKit          3D

 22 21  0  0  1  0  0  0  0  0999 V2000
    8.4957  -12.9596   17.5940 N   0  0  0  0  0  0  0  0  0  0  0  0
    7.5998  -13.7338   18.4314 C   0  0  1  0  0  0  0  0  0  0  0  0
    7.3451  -15.0554   17.7938 C   0  0  0  0  0  0  0  0  0  0  0  0
    8.5313  -15.7069   17.1469 C   0  0  0  0  0  0  0  0  0  0  0  0
    8.2155  -17.0128   16.5659 C   0  0  0  0  0  0  0  0  0  0  0  0
    7.0387  -17.4474   16.5764 O   0  0  0  0  0  0  0  0  0  0  0  0
    8.1934  -13.8323   19.7776 C   0  0  0  0  0  0  0  0  0  0  0  0
    9.4400  -13.8439   19.9128 O   0  0  0  0  0  0  0  0  0  0  0  0
    9.1921  -17.8059   15.9908 O   0  0  0  0  0  0  0  0  0  0  0  0
    7.4233  -13.9173   20.9673 N   0  0  0  0  0  0  0  0  0  0  0  0
    8.0734  -14.0632   22.2863 C   0  0  1  0  0  0  0  0  0  0  0  0
    6.9418  -13.9427   23.3153 C   0  0  0  0  0  0  0  0  0  0  0  0
    7.5111  -14.3133   24.9807 S   0  0  0  0  0  0  0  0  0  0  0  0
    8.6237  -15.4391   22.3878 C   0  0  0  0  0  0  0  0  0  0  0  0
    8.2179  -16.3365   21.5706 O   0  0  0  0  0  0  0  0  0  0  0  0
   11.8983  -18.1502   21.6794 O   0  0  0  0  0  0  0  0  0  0  0  0
   11.1905  -16.9976   21.9353 C   0  0  0  0  0  0  0  0  0  0  0  0
   10.3442  -17.0995   23.1798 C   0  0  2  0  0  0  0  0  0  0  0  0
    9.5786  -15.8528   23.3279 N   0  0  0  0  0  0  0  0  0  0  0  0
   11.2553  -17.2699   24.3322 C   0  0  0  0  0  0  0  0  0  0  0  0
   11.3296  -16.4044   25.2300 O   0  0  0  0  0  0  0  0  0  0  0  0
   12.0357  -18.4000   24.4205 O   0  0  0  0  0  0  0  0  0  0  0  0
  2  1  1  6
  2  7  1  0
  3  4  1  0
  3  2  1  0
  5  4  1  0
  6  5  2  0
  7 10  1  0
  7  8  2  0
  9  5  1  0
 10 11  1  0
 11 14  1  0
 12 13  1  0
 11 12  1  1
 14 15  2  0
 14 19  1  0
 16 17  1  0
 18 20  1  0
 18 17  1  6
 19 18  1  0
 20 22  1  0
 21 20  2  0
M  END
$$$$
