ECS.pdb
     RDKit          3D

 22 21  0  0  1  0  0  0  0  0999 V2000
   10.8012  -27.2931   27.9702 N   0  0  0  0  0  0  0  0  0  0  0  0
   11.9696  -27.1077   28.8091 C   0  0  1  0  0  0  0  0  0  0  0  0
   13.1836  -27.0101   27.9521 C   0  0  0  0  0  0  0  0  0  0  0  0
   12.9333  -26.8853   26.4783 C   0  0  0  0  0  0  0  0  0  0  0  0
   14.1685  -26.8405   25.6941 C   0  0  0  0  0  0  0  0  0  0  0  0
   14.7970  -27.8946   25.4341 O   0  0  0  0  0  0  0  0  0  0  0  0
   11.7479  -25.9213   29.6562 C   0  0  0  0  0  0  0  0  0  0  0  0
   10.7896  -25.1496   29.4144 O   0  0  0  0  0  0  0  0  0  0  0  0
   14.6816  -25.6478   25.2170 O   0  0  0  0  0  0  0  0  0  0  0  0
   12.5729  -25.5847   30.7616 N   0  0  0  0  0  0  0  0  0  0  0  0
   12.2840  -24.3983   31.5938 C   0  0  1  0  0  0  0  0  0  0  0  0
   11.7410  -24.9504   32.9182 C   0  0  0  0  0  0  0  0  0  0  0  0
   12.9376  -26.0124   33.7400 S   0  0  0  0  0  0  0  0  0  0  0  0
   13.5667  -23.7103   31.8903 C   0  0  0  0  0  0  0  0  0  0  0  0
   14.6308  -24.4065   32.0341 O   0  0  0  0  0  0  0  0  0  0  0  0
   13.7017  -19.6900   32.1817 O   0  0  0  0  0  0  0  0  0  0  0  0
   14.9424  -20.2389   31.9490 C   0  0  0  0  0  0  0  0  0  0  0  0
   15.0140  -21.6964   32.3307 C   0  0  2  0  0  0  0  0  0  0  0  0
   13.7184  -22.3230   32.0287 N   0  0  0  0  0  0  0  0  0  0  0  0
   15.2815  -21.7698   33.7834 C   0  0  0  0  0  0  0  0  0  0  0  0
   16.3378  -21.3129   34.2693 O   0  0  0  0  0  0  0  0  0  0  0  0
   14.3531  -22.3503   34.6171 O   0  0  0  0  0  0  0  0  0  0  0  0
  2  1  1  6
  2  7  1  0
  3  4  1  0
  3  2  1  0
  5  4  1  0
  6  5  2  0
  7 10  1  0
  7  8  2  0
  9  5  1  0
 10 11  1  0
 11 14  1  0
 12 13  1  0
 11 12  1  1
 14 15  2  0
 14 19  1  0
 16 17  1  0
 18 20  1  0
 18 17  1  1
 19 18  1  0
 20 22  1  0
 21 20  2  0
M  END
$$$$
