ECS.pdb
     RDKit          3D

 22 21  0  0  1  0  0  0  0  0999 V2000
    8.1136  -12.7691   17.2519 N   0  0  0  0  0  0  0  0  0  0  0  0
    7.9664  -14.0550   17.9063 C   0  0  1  0  0  0  0  0  0  0  0  0
    8.6585  -15.1009   17.1033 C   0  0  0  0  0  0  0  0  0  0  0  0
    7.9747  -15.5050   15.8307 C   0  0  0  0  0  0  0  0  0  0  0  0
    8.5757  -16.6887   15.2140 C   0  0  0  0  0  0  0  0  0  0  0  0
    8.1715  -17.1020   14.1006 O   0  0  0  0  0  0  0  0  0  0  0  0
    8.4771  -13.9344   19.2844 C   0  0  0  0  0  0  0  0  0  0  0  0
    9.5324  -13.2949   19.5072 O   0  0  0  0  0  0  0  0  0  0  0  0
    9.5991  -17.3865   15.8297 O   0  0  0  0  0  0  0  0  0  0  0  0
    7.8330  -14.5121   20.4101 N   0  0  0  0  0  0  0  0  0  0  0  0
    8.3995  -14.3696   21.7675 C   0  0  1  0  0  0  0  0  0  0  0  0
    7.1920  -14.1996   22.6985 C   0  0  0  0  0  0  0  0  0  0  0  0
    7.6647  -14.3015   24.4310 S   0  0  0  0  0  0  0  0  0  0  0  0
    9.0678  -15.6450   22.1326 C   0  0  0  0  0  0  0  0  0  0  0  0
    8.4704  -16.7526   21.8999 O   0  0  0  0  0  0  0  0  0  0  0  0
   13.0432  -15.8826   23.1430 O   0  0  0  0  0  0  0  0  0  0  0  0
   12.3935  -17.0127   22.7007 C   0  0  0  0  0  0  0  0  0  0  0  0
   10.9365  -17.0357   23.0908 C   0  0  2  0  0  0  0  0  0  0  0  0
   10.3345  -15.7446   22.7261 N   0  0  0  0  0  0  0  0  0  0  0  0
   10.8646  -17.2280   24.5554 C   0  0  0  0  0  0  0  0  0  0  0  0
   11.3502  -18.2432   25.0978 O   0  0  0  0  0  0  0  0  0  0  0  0
   10.2532  -16.2745   25.3370 O   0  0  0  0  0  0  0  0  0  0  0  0
  2  1  1  6
  2  7  1  0
  3  4  1  0
  3  2  1  0
  5  4  1  0
  6  5  2  0
  7 10  1  0
  7  8  2  0
  9  5  1  0
 10 11  1  0
 11 14  1  0
 12 13  1  0
 11 12  1  1
 14 15  2  0
 14 19  1  0
 16 17  1  0
 18 20  1  0
 18 17  1  1
 19 18  1  0
 20 22  1  0
 21 20  2  0
M  END
$$$$
