ECS.pdb
     RDKit          3D

 22 21  0  0  1  0  0  0  0  0999 V2000
    8.1089  -13.7460   20.5134 N   0  0  0  0  0  0  0  0  0  0  0  0
    7.2056  -13.9041   21.6369 C   0  0  1  0  0  0  0  0  0  0  0  0
    6.3622  -15.1135   21.4273 C   0  0  0  0  0  0  0  0  0  0  0  0
    6.9460  -16.1693   20.5358 C   0  0  0  0  0  0  0  0  0  0  0  0
    6.6867  -17.5269   21.0178 C   0  0  0  0  0  0  0  0  0  0  0  0
    5.5104  -17.9421   21.1510 O   0  0  0  0  0  0  0  0  0  0  0  0
    8.0080  -13.9509   22.8732 C   0  0  0  0  0  0  0  0  0  0  0  0
    9.2187  -14.2733   22.8219 O   0  0  0  0  0  0  0  0  0  0  0  0
    7.7175  -18.3911   21.3403 O   0  0  0  0  0  0  0  0  0  0  0  0
    7.4844  -13.6454   24.1571 N   0  0  0  0  0  0  0  0  0  0  0  0
    8.3447  -13.6802   25.3581 C   0  0  1  0  0  0  0  0  0  0  0  0
    7.5932  -12.8705   26.4227 C   0  0  0  0  0  0  0  0  0  0  0  0
    5.8434  -13.2845   26.4651 S   0  0  0  0  0  0  0  0  0  0  0  0
    8.4225  -15.0837   25.8382 C   0  0  0  0  0  0  0  0  0  0  0  0
    7.3771  -15.8202   25.7887 O   0  0  0  0  0  0  0  0  0  0  0  0
   11.7888  -17.1829   25.8321 O   0  0  0  0  0  0  0  0  0  0  0  0
   10.5938  -17.8514   25.9731 C   0  0  0  0  0  0  0  0  0  0  0  0
    9.5967  -17.0892   26.8098 C   0  0  2  0  0  0  0  0  0  0  0  0
    9.5763  -15.6910   26.3547 N   0  0  0  0  0  0  0  0  0  0  0  0
   10.0462  -17.1532   28.2173 C   0  0  0  0  0  0  0  0  0  0  0  0
   10.3284  -16.1153   28.8528 O   0  0  0  0  0  0  0  0  0  0  0  0
   10.1565  -18.3751   28.8408 O   0  0  0  0  0  0  0  0  0  0  0  0
  2  1  1  6
  2  7  1  0
  3  4  1  0
  3  2  1  0
  5  4  1  0
  6  5  2  0
  7 10  1  0
  7  8  2  0
  9  5  1  0
 10 11  1  0
 11 14  1  0
 12 13  1  0
 11 12  1  1
 14 15  2  0
 14 19  1  0
 16 17  1  0
 18 20  1  0
 18 17  1  6
 19 18  1  0
 20 22  1  0
 21 20  2  0
M  END
$$$$
