ECS.pdb
     RDKit          3D

 22 21  0  0  1  0  0  0  0  0999 V2000
    7.6330  -12.8464   20.0866 N   0  0  0  0  0  0  0  0  0  0  0  0
    7.1018  -13.8691   20.9670 C   0  0  1  0  0  0  0  0  0  0  0  0
    7.0177  -15.1609   20.2307 C   0  0  0  0  0  0  0  0  0  0  0  0
    7.9028  -15.2836   19.0258 C   0  0  0  0  0  0  0  0  0  0  0  0
    7.7530  -16.5678   18.3394 C   0  0  0  0  0  0  0  0  0  0  0  0
    6.9861  -17.4491   18.7964 O   0  0  0  0  0  0  0  0  0  0  0  0
    7.9506  -13.9300   22.1712 C   0  0  0  0  0  0  0  0  0  0  0  0
    9.1700  -14.2025   22.0646 O   0  0  0  0  0  0  0  0  0  0  0  0
    8.4439  -16.8527   17.1754 O   0  0  0  0  0  0  0  0  0  0  0  0
    7.4638  -13.6932   23.4837 N   0  0  0  0  0  0  0  0  0  0  0  0
    8.3530  -13.8095   24.6582 C   0  0  1  0  0  0  0  0  0  0  0  0
    7.5955  -13.1404   25.8124 C   0  0  0  0  0  0  0  0  0  0  0  0
    5.8813  -13.6799   25.8880 S   0  0  0  0  0  0  0  0  0  0  0  0
    8.4981  -15.2489   24.9953 C   0  0  0  0  0  0  0  0  0  0  0  0
    7.5308  -16.0494   24.7478 O   0  0  0  0  0  0  0  0  0  0  0  0
   11.9075  -17.1599   24.9359 O   0  0  0  0  0  0  0  0  0  0  0  0
   10.7499  -17.8995   25.0253 C   0  0  0  0  0  0  0  0  0  0  0  0
    9.7151  -17.2542   25.9130 C   0  0  2  0  0  0  0  0  0  0  0  0
    9.6369  -15.8247   25.5770 N   0  0  0  0  0  0  0  0  0  0  0  0
   10.1576  -17.4177   27.3146 C   0  0  0  0  0  0  0  0  0  0  0  0
   10.3851  -16.4262   28.0397 O   0  0  0  0  0  0  0  0  0  0  0  0
   10.3226  -18.6821   27.8322 O   0  0  0  0  0  0  0  0  0  0  0  0
  2  1  1  6
  2  7  1  0
  3  4  1  0
  3  2  1  0
  5  4  1  0
  6  5  2  0
  7 10  1  0
  7  8  2  0
  9  5  1  0
 10 11  1  0
 11 14  1  0
 12 13  1  0
 11 12  1  1
 14 15  2  0
 14 19  1  0
 16 17  1  0
 18 20  1  0
 18 17  1  6
 19 18  1  0
 20 22  1  0
 21 20  2  0
M  END
$$$$
