RWT.pdb
     RDKit          3D

 33 34  0  0  1  0  0  0  0  0999 V2000
   27.4560  -22.7674  -20.1015 N   0  0  0  0  0  0  0  0  0  0  0  0
   27.4858  -21.4158  -20.5792 C   0  0  0  0  0  0  0  0  0  0  0  0
   27.0186  -21.1662  -21.7449 N   0  0  0  0  0  0  0  0  0  0  0  0
   28.0197  -20.3718  -19.7870 N   0  0  0  0  0  0  0  0  0  0  0  0
   28.3869  -20.5797  -18.4138 C   0  0  0  0  0  0  0  0  0  0  0  0
   27.4069  -21.5433  -17.7933 C   0  0  0  0  0  0  0  0  0  0  0  0
   26.9016  -21.0497  -16.4549 C   0  0  0  0  0  0  0  0  0  0  0  0
   27.6923  -21.5696  -15.3009 C   0  0  2  0  0  0  0  0  0  0  0  0
   28.2598  -22.8453  -15.6489 N   0  0  0  0  0  0  0  0  0  0  0  0
   26.7754  -21.6692  -14.1180 C   0  0  0  0  0  0  0  0  0  0  0  0
   26.1632  -22.7348  -13.8531 O   0  0  0  0  0  0  0  0  0  0  0  0
   27.0554  -20.1956  -22.1111 N   0  0  0  0  0  0  0  0  0  0  0  0
   26.5485  -20.5767  -13.2399 C   0  0  2  0  0  0  0  0  0  0  0  0
   25.6633  -20.6033  -12.0956 C   0  0  0  0  0  0  0  0  0  0  0  0
   26.1812  -19.8831  -10.9198 C   0  0  0  0  0  0  0  0  0  0  0  0
   27.3167  -20.4023  -10.2006 C   0  0  0  0  0  0  0  0  0  0  0  0
   28.3596  -21.1527  -10.7441 N   0  0  0  0  0  0  0  0  0  0  0  0
   29.2446  -21.4706   -9.8022 C   0  0  0  0  0  0  0  0  0  0  0  0
   28.8213  -20.9518   -8.6385 C   0  0  0  0  0  0  0  0  0  0  0  0
   29.4026  -21.0191   -7.3923 C   0  0  0  0  0  0  0  0  0  0  0  0
   28.7996  -20.4139   -6.3186 C   0  0  0  0  0  0  0  0  0  0  0  0
   27.6160  -19.7477   -6.5173 C   0  0  0  0  0  0  0  0  0  0  0  0
   27.0424  -19.6876   -7.7762 C   0  0  0  0  0  0  0  0  0  0  0  0
   27.6152  -20.2813   -8.8789 C   0  0  0  0  0  0  0  0  0  0  0  0
   24.2373  -20.4530  -12.4296 O   0  0  0  0  0  0  0  0  0  0  0  0
   23.7022  -19.2936  -12.4770 C   0  0  0  0  0  0  0  0  0  0  0  0
   21.6462  -23.8684  -13.2700 C   0  0  2  0  0  0  0  0  0  0  0  0
   21.5734  -22.5825  -14.0213 O   0  0  0  0  0  0  0  0  0  0  0  0
   20.3525  -22.4025  -14.6072 C   0  0  1  0  0  0  0  0  0  0  0  0
   22.0196  -21.4079  -13.1592 N   0  0  0  0  0  0  0  0  0  0  0  0
   23.3816  -21.5605  -12.7228 C   0  0  0  0  0  0  0  0  0  0  0  0
   21.0337  -21.2127  -12.0945 O   0  0  0  0  0  0  0  0  0  0  0  0
   19.7003  -20.9203  -12.3119 O   0  0  0  0  0  0  0  0  0  0  0  0
  1  2  1  0
  2  4  1  0
  2  3  2  0
  4  5  1  0
  6  5  1  0
  7  6  1  0
  8  7  1  0
  8  9  1  6
 10  8  1  0
 10 11  2  0
 12 10  1  0
 13 12  1  0
 13 14  1  6
 15 16  2  0
 15 14  1  0
 17 16  1  0
 18 23  2  0
 18 17  1  0
 19 18  1  0
 20 21  1  0
 20 19  2  0
 21 22  2  0
 22 23  1  0
 23 15  1  0
 24 13  1  0
 25 24  2  0
 27 26  1  6
 27 28  1  0
 29 30  1  6
 29 27  1  0
 30 24  1  0
 31 29  1  0
 32 31  1  0
 33 31  2  0
M  END
$$$$
