RWT.pdb
     RDKit          3D

 33 34  0  0  1  0  0  0  0  0999 V2000
   16.0943  -22.2775  -13.6649 N   0  0  0  0  0  0  0  0  0  0  0  0
   16.9889  -23.2832  -13.1704 C   0  0  0  0  0  0  0  0  0  0  0  0
   17.0139  -24.4229  -13.7534 N   0  0  0  0  0  0  0  0  0  0  0  0
   17.8300  -23.0319  -12.0606 N   0  0  0  0  0  0  0  0  0  0  0  0
   18.8605  -22.0321  -12.1066 C   0  0  0  0  0  0  0  0  0  0  0  0
   19.8376  -22.3966  -13.1958 C   0  0  0  0  0  0  0  0  0  0  0  0
   21.2703  -22.1582  -12.7708 C   0  0  0  0  0  0  0  0  0  0  0  0
   21.4779  -20.8281  -12.1266 C   0  0  2  0  0  0  0  0  0  0  0  0
   20.8111  -19.8150  -12.9008 N   0  0  0  0  0  0  0  0  0  0  0  0
   22.9548  -20.5820  -12.0367 C   0  0  0  0  0  0  0  0  0  0  0  0
   23.6031  -20.1306  -13.0147 O   0  0  0  0  0  0  0  0  0  0  0  0
   17.6102  -25.1795  -13.3668 N   0  0  0  0  0  0  0  0  0  0  0  0
   23.6968  -20.8429  -10.8546 C   0  0  2  0  0  0  0  0  0  0  0  0
   25.1223  -20.6413  -10.7096 C   0  0  0  0  0  0  0  0  0  0  0  0
   25.5972  -20.6959   -9.3164 C   0  0  0  0  0  0  0  0  0  0  0  0
   27.0103  -20.7459   -9.0394 C   0  0  0  0  0  0  0  0  0  0  0  0
   28.0067  -21.1561   -9.9255 N   0  0  0  0  0  0  0  0  0  0  0  0
   29.2035  -21.0797   -9.3484 C   0  0  0  0  0  0  0  0  0  0  0  0
   29.0353  -20.6281   -8.0952 C   0  0  0  0  0  0  0  0  0  0  0  0
   29.9790  -20.3892   -7.1217 C   0  0  0  0  0  0  0  0  0  0  0  0
   29.5935  -19.9235   -5.8898 C   0  0  0  0  0  0  0  0  0  0  0  0
   28.2586  -19.7048   -5.6567 C   0  0  0  0  0  0  0  0  0  0  0  0
   27.3200  -19.9492   -6.6450 C   0  0  0  0  0  0  0  0  0  0  0  0
   27.6655  -20.4165   -7.8935 C   0  0  0  0  0  0  0  0  0  0  0  0
   25.9352  -21.2980  -11.7467 O   0  0  0  0  0  0  0  0  0  0  0  0
   25.8615  -22.5613  -11.9236 C   0  0  0  0  0  0  0  0  0  0  0  0
   27.9888  -20.3914  -16.1739 C   0  0  2  0  0  0  0  0  0  0  0  0
   27.3403  -19.9346  -14.9114 O   0  0  0  0  0  0  0  0  0  0  0  0
   26.1600  -19.2889  -15.1487 C   0  0  1  0  0  0  0  0  0  0  0  0
   27.2264  -21.0701  -13.9015 N   0  0  0  0  0  0  0  0  0  0  0  0
   26.8300  -20.5869  -12.6061 C   0  0  0  0  0  0  0  0  0  0  0  0
   28.4678  -21.8457  -13.9332 O   0  0  0  0  0  0  0  0  0  0  0  0
   28.8631  -22.6398  -14.9934 O   0  0  0  0  0  0  0  0  0  0  0  0
  1  2  1  0
  2  4  1  0
  2  3  2  0
  4  5  1  0
  6  5  1  0
  7  6  1  0
  8  7  1  0
  8  9  1  6
 10  8  1  0
 10 11  2  0
 12 10  1  0
 13 12  1  0
 13 14  1  1
 15 16  2  0
 15 14  1  0
 17 16  1  0
 18 23  2  0
 18 17  1  0
 19 18  1  0
 20 21  1  0
 20 19  2  0
 21 22  2  0
 22 23  1  0
 23 15  1  0
 24 13  1  0
 25 24  2  0
 27 26  1  6
 27 28  1  0
 29 30  1  1
 29 27  1  0
 30 24  1  0
 31 29  1  0
 32 31  1  0
 33 31  2  0
M  END
$$$$
