RWT.pdb
     RDKit          3D

 33 34  0  0  1  0  0  0  0  0999 V2000
   33.1139  -23.5473  -12.5082 N   0  0  0  0  0  0  0  0  0  0  0  0
   33.5924  -24.0238  -13.7731 C   0  0  0  0  0  0  0  0  0  0  0  0
   34.8565  -24.1074  -13.9593 N   0  0  0  0  0  0  0  0  0  0  0  0
   32.6945  -24.3952  -14.8018 N   0  0  0  0  0  0  0  0  0  0  0  0
   31.3172  -23.9875  -14.7839 C   0  0  0  0  0  0  0  0  0  0  0  0
   31.2286  -22.5659  -15.2791 C   0  0  0  0  0  0  0  0  0  0  0  0
   30.0267  -21.8443  -14.7091 C   0  0  0  0  0  0  0  0  0  0  0  0
   28.8419  -22.7327  -14.5242 C   0  0  2  0  0  0  0  0  0  0  0  0
   28.1972  -22.9368  -15.7944 N   0  0  0  0  0  0  0  0  0  0  0  0
   27.9259  -22.0831  -13.5298 C   0  0  0  0  0  0  0  0  0  0  0  0
   26.7525  -21.7544  -13.8391 O   0  0  0  0  0  0  0  0  0  0  0  0
   35.2150  -24.4743  -14.8618 N   0  0  0  0  0  0  0  0  0  0  0  0
   28.3282  -21.8046  -12.1969 C   0  0  1  0  0  0  0  0  0  0  0  0
   27.4276  -21.4991  -11.1063 C   0  0  0  0  0  0  0  0  0  0  0  0
   28.0948  -21.3488   -9.8017 C   0  0  0  0  0  0  0  0  0  0  0  0
   27.3525  -20.8644   -8.6656 C   0  0  0  0  0  0  0  0  0  0  0  0
   25.9634  -20.7839   -8.5662 N   0  0  0  0  0  0  0  0  0  0  0  0
   25.6091  -20.2910   -7.3818 C   0  0  0  0  0  0  0  0  0  0  0  0
   26.7271  -20.0380   -6.6827 C   0  0  0  0  0  0  0  0  0  0  0  0
   26.8626  -19.5234   -5.4130 C   0  0  0  0  0  0  0  0  0  0  0  0
   28.1115  -19.3390   -4.8753 C   0  0  0  0  0  0  0  0  0  0  0  0
   29.2088  -19.6771   -5.6277 C   0  0  0  0  0  0  0  0  0  0  0  0
   29.0580  -20.1940   -6.9034 C   0  0  0  0  0  0  0  0  0  0  0  0
   27.8230  -20.3942   -7.4790 C   0  0  0  0  0  0  0  0  0  0  0  0
   26.3577  -20.5489  -11.4527 O   0  0  0  0  0  0  0  0  0  0  0  0
   26.5982  -19.2952  -11.5084 C   0  0  0  0  0  0  0  0  0  0  0  0
   24.7936  -19.4141  -14.3426 C   0  0  2  0  0  0  0  0  0  0  0  0
   23.6706  -20.0133  -13.5660 O   0  0  0  0  0  0  0  0  0  0  0  0
   23.3011  -21.2319  -14.0611 C   0  0  2  0  0  0  0  0  0  0  0  0
   23.9697  -20.0230  -12.0719 N   0  0  0  0  0  0  0  0  0  0  0  0
   25.0185  -20.9530  -11.7493 C   0  0  0  0  0  0  0  0  0  0  0  0
   22.7115  -20.2145  -11.3479 O   0  0  0  0  0  0  0  0  0  0  0  0
   21.6427  -19.3393  -11.3990 O   0  0  0  0  0  0  0  0  0  0  0  0
  1  2  1  0
  2  4  1  0
  2  3  2  0
  4  5  1  0
  6  5  1  0
  7  6  1  0
  8  7  1  0
  8  9  1  6
 10  8  1  0
 10 11  2  0
 12 10  1  0
 13 12  1  0
 13 14  1  1
 15 16  2  0
 15 14  1  0
 17 16  1  0
 18 23  2  0
 18 17  1  0
 19 18  1  0
 20 21  1  0
 20 19  2  0
 21 22  2  0
 22 23  1  0
 23 15  1  0
 24 13  1  0
 25 24  2  0
 27 26  1  6
 27 28  1  0
 29 30  1  1
 29 27  1  0
 30 24  1  0
 31 29  1  0
 32 31  1  0
 33 31  2  0
M  END
$$$$
