RWT.pdb
     RDKit          3D

 33 34  0  0  1  0  0  0  0  0999 V2000
   28.2126  -15.4208  -17.2434 N   0  0  0  0  0  0  0  0  0  0  0  0
   27.4862  -15.1904  -16.0288 C   0  0  0  0  0  0  0  0  0  0  0  0
   26.9156  -14.0566  -15.8605 N   0  0  0  0  0  0  0  0  0  0  0  0
   27.3969  -16.1885  -15.0296 N   0  0  0  0  0  0  0  0  0  0  0  0
   28.1330  -17.4184  -15.1246 C   0  0  0  0  0  0  0  0  0  0  0  0
   27.3271  -18.4012  -15.9360 C   0  0  0  0  0  0  0  0  0  0  0  0
   26.5805  -19.3803  -15.0561 C   0  0  0  0  0  0  0  0  0  0  0  0
   27.4550  -20.4534  -14.4984 C   0  0  2  0  0  0  0  0  0  0  0  0
   27.5755  -21.5169  -15.4601 N   0  0  0  0  0  0  0  0  0  0  0  0
   26.8444  -20.9278  -13.2131 C   0  0  0  0  0  0  0  0  0  0  0  0
   25.8109  -21.6436  -13.2053 O   0  0  0  0  0  0  0  0  0  0  0  0
   26.4274  -13.8602  -14.9657 N   0  0  0  0  0  0  0  0  0  0  0  0
   27.3927  -20.5981  -11.9456 C   0  0  2  0  0  0  0  0  0  0  0  0
   26.7435  -20.8363  -10.6746 C   0  0  0  0  0  0  0  0  0  0  0  0
   27.6254  -20.6599   -9.5081 C   0  0  0  0  0  0  0  0  0  0  0  0
   27.0672  -20.6449   -8.1798 C   0  0  0  0  0  0  0  0  0  0  0  0
   25.8336  -21.1751   -7.8016 N   0  0  0  0  0  0  0  0  0  0  0  0
   25.6270  -20.9912   -6.4998 C   0  0  0  0  0  0  0  0  0  0  0  0
   26.6924  -20.3497   -5.9939 C   0  0  0  0  0  0  0  0  0  0  0  0
   26.9316  -19.9448   -4.7000 C   0  0  0  0  0  0  0  0  0  0  0  0
   28.0987  -19.2943   -4.3876 C   0  0  0  0  0  0  0  0  0  0  0  0
   29.0104  -19.0609   -5.3870 C   0  0  0  0  0  0  0  0  0  0  0  0
   28.7570  -19.4739   -6.6842 C   0  0  0  0  0  0  0  0  0  0  0  0
   27.5988  -20.1292   -7.0387 C   0  0  0  0  0  0  0  0  0  0  0  0
   25.3684  -20.3169  -10.5904 O   0  0  0  0  0  0  0  0  0  0  0  0
   25.1573  -19.0688  -10.4166 C   0  0  0  0  0  0  0  0  0  0  0  0
   22.5121  -22.4032  -12.6720 C   0  0  2  0  0  0  0  0  0  0  0  0
   22.4425  -20.9416  -12.3853 O   0  0  0  0  0  0  0  0  0  0  0  0
   21.2214  -20.4171  -12.7020 C   0  0  1  0  0  0  0  0  0  0  0  0
   22.8936  -20.6311  -10.9632 N   0  0  0  0  0  0  0  0  0  0  0  0
   24.2101  -21.1480  -10.7021 C   0  0  0  0  0  0  0  0  0  0  0  0
   21.8476  -21.0712  -10.0380 O   0  0  0  0  0  0  0  0  0  0  0  0
   20.5505  -20.5933  -10.0447 O   0  0  0  0  0  0  0  0  0  0  0  0
  1  2  1  0
  2  4  1  0
  2  3  2  0
  4  5  1  0
  6  5  1  0
  7  6  1  0
  8  7  1  0
  8  9  1  6
 10  8  1  0
 10 11  2  0
 12 10  1  0
 13 12  1  0
 13 14  1  6
 15 16  2  0
 15 14  1  0
 17 16  1  0
 18 23  2  0
 18 17  1  0
 19 18  1  0
 20 21  1  0
 20 19  2  0
 21 22  2  0
 22 23  1  0
 23 15  1  0
 24 13  1  0
 25 24  2  0
 27 26  1  6
 27 28  1  0
 29 30  1  6
 29 27  1  0
 30 24  1  0
 31 29  1  0
 32 31  1  0
 33 31  2  0
M  END
$$$$
