RWT.pdb
     RDKit          3D

 33 34  0  0  1  0  0  0  0  0999 V2000
   27.5190  -26.4224  -16.9048 N   0  0  0  0  0  0  0  0  0  0  0  0
   26.2137  -26.9984  -17.0473 C   0  0  0  0  0  0  0  0  0  0  0  0
   26.1181  -28.2577  -17.2583 N   0  0  0  0  0  0  0  0  0  0  0  0
   25.0486  -26.2001  -16.9595 N   0  0  0  0  0  0  0  0  0  0  0  0
   25.1113  -24.8124  -16.5937 C   0  0  0  0  0  0  0  0  0  0  0  0
   25.1356  -24.7110  -15.0894 C   0  0  0  0  0  0  0  0  0  0  0  0
   24.7499  -23.3278  -14.6114 C   0  0  0  0  0  0  0  0  0  0  0  0
   25.0513  -22.2575  -15.6068 C   0  0  2  0  0  0  0  0  0  0  0  0
   26.4498  -21.9257  -15.5402 N   0  0  0  0  0  0  0  0  0  0  0  0
   24.1806  -21.0764  -15.2954 C   0  0  0  0  0  0  0  0  0  0  0  0
   23.9826  -20.7043  -14.1110 O   0  0  0  0  0  0  0  0  0  0  0  0
   25.1818  -28.6784  -17.4132 N   0  0  0  0  0  0  0  0  0  0  0  0
   23.5368  -20.3200  -16.3100 C   0  0  2  0  0  0  0  0  0  0  0  0
   22.7971  -19.0964  -16.0880 C   0  0  0  0  0  0  0  0  0  0  0  0
   23.1999  -17.9843  -16.9658 C   0  0  0  0  0  0  0  0  0  0  0  0
   24.5749  -17.5550  -16.9982 C   0  0  0  0  0  0  0  0  0  0  0  0
   25.6011  -18.1418  -17.7389 N   0  0  0  0  0  0  0  0  0  0  0  0
   26.7477  -17.4964  -17.5390 C   0  0  0  0  0  0  0  0  0  0  0  0
   26.5167  -16.4896  -16.6813 C   0  0  0  0  0  0  0  0  0  0  0  0
   27.3939  -15.5549  -16.1789 C   0  0  0  0  0  0  0  0  0  0  0  0
   26.9506  -14.5975  -15.3016 C   0  0  0  0  0  0  0  0  0  0  0  0
   25.6257  -14.5962  -14.9425 C   0  0  0  0  0  0  0  0  0  0  0  0
   24.7543  -15.5421  -15.4556 C   0  0  0  0  0  0  0  0  0  0  0  0
   25.1591  -16.5189  -16.3378 C   0  0  0  0  0  0  0  0  0  0  0  0
   21.3607  -19.2950  -15.8333 O   0  0  0  0  0  0  0  0  0  0  0  0
   20.6420  -19.9544  -16.6588 C   0  0  0  0  0  0  0  0  0  0  0  0
   19.4779  -20.9669  -13.0572 C   0  0  2  0  0  0  0  0  0  0  0  0
   18.9739  -19.5648  -13.1151 O   0  0  0  0  0  0  0  0  0  0  0  0
   19.3929  -18.8274  -12.0440 C   0  0  2  0  0  0  0  0  0  0  0  0
   19.2777  -18.9189  -14.4614 N   0  0  0  0  0  0  0  0  0  0  0  0
   20.6937  -18.7856  -14.6756 C   0  0  0  0  0  0  0  0  0  0  0  0
   18.5039  -17.6805  -14.5673 O   0  0  0  0  0  0  0  0  0  0  0  0
   17.1230  -17.6253  -14.5985 O   0  0  0  0  0  0  0  0  0  0  0  0
  1  2  1  0
  2  4  1  0
  2  3  2  0
  4  5  1  0
  6  5  1  0
  7  6  1  0
  8  7  1  0
  8  9  1  1
 10  8  1  0
 10 11  2  0
 12 10  1  0
 13 12  1  0
 13 14  1  1
 15 16  2  0
 15 14  1  0
 17 16  1  0
 18 23  2  0
 18 17  1  0
 19 18  1  0
 20 21  1  0
 20 19  2  0
 21 22  2  0
 22 23  1  0
 23 15  1  0
 24 13  1  0
 25 24  2  0
 27 26  1  1
 27 28  1  0
 29 30  1  6
 29 27  1  0
 30 24  1  0
 31 29  1  0
 32 31  1  0
 33 31  2  0
M  END
$$$$
