RWT.pdb
     RDKit          3D

 33 34  0  0  1  0  0  0  0  0999 V2000
   31.6364  -23.3827  -18.0482 N   0  0  0  0  0  0  0  0  0  0  0  0
   30.9510  -23.2709  -19.3027 C   0  0  0  0  0  0  0  0  0  0  0  0
   31.4391  -23.8689  -20.3243 N   0  0  0  0  0  0  0  0  0  0  0  0
   29.7596  -22.5164  -19.4204 N   0  0  0  0  0  0  0  0  0  0  0  0
   29.2058  -21.8026  -18.3035 C   0  0  0  0  0  0  0  0  0  0  0  0
   28.4616  -22.7793  -17.4282 C   0  0  0  0  0  0  0  0  0  0  0  0
   27.2359  -22.1524  -16.7998 C   0  0  0  0  0  0  0  0  0  0  0  0
   27.5632  -21.0593  -15.8379 C   0  0  2  0  0  0  0  0  0  0  0  0
   28.9710  -21.0918  -15.5416 N   0  0  0  0  0  0  0  0  0  0  0  0
   26.7278  -21.2583  -14.6081 C   0  0  0  0  0  0  0  0  0  0  0  0
   25.4935  -21.4839  -14.6857 O   0  0  0  0  0  0  0  0  0  0  0  0
   31.0290  -23.6926  -21.2615 N   0  0  0  0  0  0  0  0  0  0  0  0
   27.2778  -21.2030  -13.3003 C   0  0  1  0  0  0  0  0  0  0  0  0
   26.5148  -21.3089  -12.0754 C   0  0  0  0  0  0  0  0  0  0  0  0
   27.3384  -21.3139  -10.8542 C   0  0  0  0  0  0  0  0  0  0  0  0
   26.7677  -20.8934   -9.5998 C   0  0  0  0  0  0  0  0  0  0  0  0
   25.4069  -20.7915   -9.3100 N   0  0  0  0  0  0  0  0  0  0  0  0
   25.2272  -20.3737   -8.0592 C   0  0  0  0  0  0  0  0  0  0  0  0
   26.4348  -20.1921   -7.5014 C   0  0  0  0  0  0  0  0  0  0  0  0
   26.7523  -19.7685   -6.2305 C   0  0  0  0  0  0  0  0  0  0  0  0
   28.0662  -19.6468   -5.8543 C   0  0  0  0  0  0  0  0  0  0  0  0
   29.0439  -19.9550   -6.7673 C   0  0  0  0  0  0  0  0  0  0  0  0
   28.7104  -20.3801   -8.0422 C   0  0  0  0  0  0  0  0  0  0  0  0
   27.4048  -20.5152   -8.4588 C   0  0  0  0  0  0  0  0  0  0  0  0
   25.2681  -20.5258  -12.0691 O   0  0  0  0  0  0  0  0  0  0  0  0
   25.3046  -19.2511  -11.9890 C   0  0  0  0  0  0  0  0  0  0  0  0
   23.0061  -19.8045  -14.6831 C   0  0  2  0  0  0  0  0  0  0  0  0
   22.1483  -20.4636  -13.6569 O   0  0  0  0  0  0  0  0  0  0  0  0
   21.8180  -21.7408  -14.0119 C   0  0  2  0  0  0  0  0  0  0  0  0
   22.7594  -20.3520  -12.2654 N   0  0  0  0  0  0  0  0  0  0  0  0
   23.9705  -21.1202  -12.1574 C   0  0  0  0  0  0  0  0  0  0  0  0
   21.7243  -20.6630  -11.2776 O   0  0  0  0  0  0  0  0  0  0  0  0
   20.5584  -19.9380  -11.1167 O   0  0  0  0  0  0  0  0  0  0  0  0
  1  2  1  0
  2  4  1  0
  2  3  2  0
  4  5  1  0
  6  5  1  0
  7  6  1  0
  8  7  1  0
  8  9  1  1
 10  8  1  0
 10 11  2  0
 12 10  1  0
 13 12  1  0
 13 14  1  1
 15 16  2  0
 15 14  1  0
 17 16  1  0
 18 23  2  0
 18 17  1  0
 19 18  1  0
 20 21  1  0
 20 19  2  0
 21 22  2  0
 22 23  1  0
 23 15  1  0
 24 13  1  0
 25 24  2  0
 27 26  1  6
 27 28  1  0
 29 30  1  1
 29 27  1  0
 30 24  1  0
 31 29  1  0
 32 31  1  0
 33 31  2  0
M  END
$$$$
