RWT.pdb
     RDKit          3D

 33 34  0  0  1  0  0  0  0  0999 V2000
   30.9171  -21.6439  -19.4688 N   0  0  0  0  0  0  0  0  0  0  0  0
   30.4621  -20.3452  -19.0657 C   0  0  0  0  0  0  0  0  0  0  0  0
   30.5466  -19.3785  -19.9011 N   0  0  0  0  0  0  0  0  0  0  0  0
   29.9305  -20.1253  -17.7728 N   0  0  0  0  0  0  0  0  0  0  0  0
   29.1135  -21.1078  -17.1165 C   0  0  0  0  0  0  0  0  0  0  0  0
   27.6766  -20.6534  -17.1697 C   0  0  0  0  0  0  0  0  0  0  0  0
   27.0246  -20.6845  -15.8044 C   0  0  0  0  0  0  0  0  0  0  0  0
   27.4734  -21.8345  -14.9657 C   0  0  2  0  0  0  0  0  0  0  0  0
   27.2631  -23.0611  -15.6880 N   0  0  0  0  0  0  0  0  0  0  0  0
   26.6991  -21.8017  -13.6814 C   0  0  0  0  0  0  0  0  0  0  0  0
   25.4973  -22.1676  -13.6330 O   0  0  0  0  0  0  0  0  0  0  0  0
   30.1843  -18.4428  -19.6353 N   0  0  0  0  0  0  0  0  0  0  0  0
   27.2733  -21.3594  -12.4604 C   0  0  2  0  0  0  0  0  0  0  0  0
   26.5453  -21.1641  -11.2253 C   0  0  0  0  0  0  0  0  0  0  0  0
   27.4045  -20.9064  -10.0570 C   0  0  0  0  0  0  0  0  0  0  0  0
   26.8104  -20.6017   -8.7801 C   0  0  0  0  0  0  0  0  0  0  0  0
   25.4487  -20.6364   -8.4789 N   0  0  0  0  0  0  0  0  0  0  0  0
   25.2442  -20.2994   -7.2078 C   0  0  0  0  0  0  0  0  0  0  0  0
   26.4360  -20.0387   -6.6473 C   0  0  0  0  0  0  0  0  0  0  0  0
   26.7263  -19.6524   -5.3582 C   0  0  0  0  0  0  0  0  0  0  0  0
   28.0277  -19.4328   -4.9826 C   0  0  0  0  0  0  0  0  0  0  0  0
   29.0203  -19.6064   -5.9148 C   0  0  0  0  0  0  0  0  0  0  0  0
   28.7142  -19.9954   -7.2080 C   0  0  0  0  0  0  0  0  0  0  0  0
   27.4219  -20.2256   -7.6246 C   0  0  0  0  0  0  0  0  0  0  0  0
   25.3118  -20.3732  -11.3681 O   0  0  0  0  0  0  0  0  0  0  0  0
   25.3613  -19.0969  -11.4017 C   0  0  0  0  0  0  0  0  0  0  0  0
   23.1863  -19.6477  -14.0304 C   0  0  2  0  0  0  0  0  0  0  0  0
   22.2576  -20.2738  -13.0460 O   0  0  0  0  0  0  0  0  0  0  0  0
   21.8929  -21.5361  -13.4201 C   0  0  2  0  0  0  0  0  0  0  0  0
   22.8096  -20.1893  -11.6281 N   0  0  0  0  0  0  0  0  0  0  0  0
   24.0139  -20.9622  -11.4833 C   0  0  0  0  0  0  0  0  0  0  0  0
   21.7332  -20.5160  -10.6908 O   0  0  0  0  0  0  0  0  0  0  0  0
   20.5777  -19.7720  -10.5419 O   0  0  0  0  0  0  0  0  0  0  0  0
  1  2  1  0
  2  4  1  0
  2  3  2  0
  4  5  1  0
  6  5  1  0
  7  6  1  0
  8  7  1  0
  8  9  1  6
 10  8  1  0
 10 11  2  0
 12 10  1  0
 13 12  1  0
 13 14  1  1
 15 16  2  0
 15 14  1  0
 17 16  1  0
 18 23  2  0
 18 17  1  0
 19 18  1  0
 20 21  1  0
 20 19  2  0
 21 22  2  0
 22 23  1  0
 23 15  1  0
 24 13  1  0
 25 24  2  0
 27 26  1  6
 27 28  1  0
 29 30  1  1
 29 27  1  0
 30 24  1  0
 31 29  1  0
 32 31  1  0
 33 31  2  0
M  END
$$$$
