RWT.pdb
     RDKit          3D

 33 34  0  0  1  0  0  0  0  0999 V2000
   29.8822  -18.7318  -19.1504 N   0  0  0  0  0  0  0  0  0  0  0  0
   30.1903  -17.5820  -18.3511 C   0  0  0  0  0  0  0  0  0  0  0  0
   30.5641  -16.5078  -18.9393 N   0  0  0  0  0  0  0  0  0  0  0  0
   30.0880  -17.6234  -16.9404 N   0  0  0  0  0  0  0  0  0  0  0  0
   29.5929  -18.7842  -16.2541 C   0  0  0  0  0  0  0  0  0  0  0  0
   28.1163  -18.9147  -16.5309 C   0  0  0  0  0  0  0  0  0  0  0  0
   27.3680  -19.4800  -15.3432 C   0  0  0  0  0  0  0  0  0  0  0  0
   28.0089  -20.7010  -14.7725 C   0  0  2  0  0  0  0  0  0  0  0  0
   28.0359  -21.7358  -15.7720 N   0  0  0  0  0  0  0  0  0  0  0  0
   27.2254  -21.1130  -13.5616 C   0  0  0  0  0  0  0  0  0  0  0  0
   26.0660  -21.5882  -13.6636 O   0  0  0  0  0  0  0  0  0  0  0  0
   30.8574  -15.6911  -18.3696 N   0  0  0  0  0  0  0  0  0  0  0  0
   27.7430  -20.9901  -12.2451 C   0  0  2  0  0  0  0  0  0  0  0  0
   26.9461  -20.9975  -11.0374 C   0  0  0  0  0  0  0  0  0  0  0  0
   27.7272  -20.8141   -9.8022 C   0  0  0  0  0  0  0  0  0  0  0  0
   27.0509  -20.6685   -8.5382 C   0  0  0  0  0  0  0  0  0  0  0  0
   25.6993  -20.9155   -8.2970 N   0  0  0  0  0  0  0  0  0  0  0  0
   25.4037  -20.6816   -7.0206 C   0  0  0  0  0  0  0  0  0  0  0  0
   26.5245  -20.2830   -6.3981 C   0  0  0  0  0  0  0  0  0  0  0  0
   26.7104  -19.9301   -5.0804 C   0  0  0  0  0  0  0  0  0  0  0  0
   27.9519  -19.5462   -4.6398 C   0  0  0  0  0  0  0  0  0  0  0  0
   28.9910  -19.5236   -5.5366 C   0  0  0  0  0  0  0  0  0  0  0  0
   28.7900  -19.8813   -6.8591 C   0  0  0  0  0  0  0  0  0  0  0  0
   27.5605  -20.2721   -7.3408 C   0  0  0  0  0  0  0  0  0  0  0  0
   25.6595  -20.2917  -11.1567 O   0  0  0  0  0  0  0  0  0  0  0  0
   25.6161  -19.0151  -11.1268 C   0  0  0  0  0  0  0  0  0  0  0  0
   22.6349  -21.8834  -13.4107 C   0  0  2  0  0  0  0  0  0  0  0  0
   22.7410  -20.4446  -13.0337 O   0  0  0  0  0  0  0  0  0  0  0  0
   21.6097  -19.7487  -13.3534 C   0  0  1  0  0  0  0  0  0  0  0  0
   23.1732  -20.2799  -11.5817 N   0  0  0  0  0  0  0  0  0  0  0  0
   24.4090  -20.9666  -11.3174 C   0  0  0  0  0  0  0  0  0  0  0  0
   22.0494  -20.6480  -10.7184 O   0  0  0  0  0  0  0  0  0  0  0  0
   20.8321  -19.9932  -10.7031 O   0  0  0  0  0  0  0  0  0  0  0  0
  1  2  1  0
  2  4  1  0
  2  3  2  0
  4  5  1  0
  6  5  1  0
  7  6  1  0
  8  7  1  0
  8  9  1  6
 10  8  1  0
 10 11  2  0
 12 10  1  0
 13 12  1  0
 13 14  1  1
 15 16  2  0
 15 14  1  0
 17 16  1  0
 18 23  2  0
 18 17  1  0
 19 18  1  0
 20 21  1  0
 20 19  2  0
 21 22  2  0
 22 23  1  0
 23 15  1  0
 24 13  1  0
 25 24  2  0
 27 26  1  6
 27 28  1  0
 29 30  1  6
 29 27  1  0
 30 24  1  0
 31 29  1  0
 32 31  1  0
 33 31  2  0
M  END
$$$$
