KGW.pdb
     RDKit          3D

 28 29  0  0  1  0  0  0  0  0999 V2000
    7.6961  -16.1241   18.2487 N   0  0  0  0  0  0  0  0  0  0  0  0
    8.5228  -15.2095   18.9716 C   0  0  1  0  0  0  0  0  0  0  0  0
    7.9886  -13.8313   19.0283 C   0  0  0  0  0  0  0  0  0  0  0  0
    7.4050  -13.3682   17.7279 C   0  0  0  0  0  0  0  0  0  0  0  0
    8.3431  -13.2587   16.5805 C   0  0  0  0  0  0  0  0  0  0  0  0
    7.6719  -12.8607   15.2907 C   0  0  0  0  0  0  0  0  0  0  0  0
    8.6687  -12.9300   14.2349 N   0  0  0  0  0  0  0  0  0  0  0  0
    8.7907  -15.7029   20.3723 C   0  0  0  0  0  0  0  0  0  0  0  0
    9.6031  -15.1126   21.1222 O   0  0  0  0  0  0  0  0  0  0  0  0
    8.1308  -16.8573   20.8931 N   0  0  0  0  0  0  0  0  0  0  0  0
    8.6126  -17.5799   22.0434 C   0  0  0  0  0  0  0  0  0  0  0  0
    9.2804  -16.7606   23.0581 C   0  0  0  0  0  0  0  0  0  0  0  0
    9.9547  -15.7354   22.7141 O   0  0  0  0  0  0  0  0  0  0  0  0
    9.2295  -17.0416   24.4406 N   0  0  0  0  0  0  0  0  0  0  0  0
   10.0805  -16.2913   25.3906 C   0  0  1  0  0  0  0  0  0  0  0  0
    9.2154  -15.7499   26.4705 C   0  0  0  0  0  0  0  0  0  0  0  0
    7.9908  -15.0563   26.0576 C   0  0  0  0  0  0  0  0  0  0  0  0
    6.8401  -15.6516   25.5940 C   0  0  0  0  0  0  0  0  0  0  0  0
    5.9238  -14.7201   25.2787 N   0  0  0  0  0  0  0  0  0  0  0  0
    6.4602  -13.5191   25.5308 C   0  0  0  0  0  0  0  0  0  0  0  0
    5.9876  -12.2456   25.4135 C   0  0  0  0  0  0  0  0  0  0  0  0
    6.7056  -11.1281   25.7474 C   0  0  0  0  0  0  0  0  0  0  0  0
    7.9912  -11.3055   26.2343 C   0  0  0  0  0  0  0  0  0  0  0  0
    8.4879  -12.5763   26.3607 C   0  0  0  0  0  0  0  0  0  0  0  0
    7.7525  -13.6944   26.0192 C   0  0  0  0  0  0  0  0  0  0  0  0
   11.2324  -17.0927   25.7654 C   0  0  0  0  0  0  0  0  0  0  0  0
   11.2350  -18.3314   25.5531 O   0  0  0  0  0  0  0  0  0  0  0  0
   12.3478  -16.5323   26.3533 O   0  0  0  0  0  0  0  0  0  0  0  0
  2  8  1  0
  2  1  1  1
  3  2  1  0
  4  3  1  0
  4  5  1  0
  5  6  1  0
  7  6  1  0
  8  9  2  0
 10 11  1  0
 10  8  1  0
 12 14  1  0
 12 11  1  0
 13 12  2  0
 15 14  1  0
 15 26  1  0
 15 16  1  1
 17 16  1  0
 18 17  2  0
 19 18  1  0
 20 19  1  0
 20 25  2  0
 21 20  1  0
 22 21  2  0
 22 23  1  0
 23 24  2  0
 24 25  1  0
 25 17  1  0
 26 27  2  0
 26 28  1  0
M  END
$$$$
