KGW.pdb
     RDKit          3D

 28 29  0  0  1  0  0  0  0  0999 V2000
   10.0564  -18.1580   18.2162 N   0  0  0  0  0  0  0  0  0  0  0  0
    9.1504  -17.0590   18.3349 C   0  0  1  0  0  0  0  0  0  0  0  0
    7.9606  -17.1632   17.4624 C   0  0  0  0  0  0  0  0  0  0  0  0
    8.1345  -18.1381   16.3374 C   0  0  0  0  0  0  0  0  0  0  0  0
    7.0302  -18.2117   15.3457 C   0  0  0  0  0  0  0  0  0  0  0  0
    7.3688  -19.0336   14.1282 C   0  0  0  0  0  0  0  0  0  0  0  0
    6.2026  -19.0380   13.2604 N   0  0  0  0  0  0  0  0  0  0  0  0
    8.7097  -16.8645   19.7649 C   0  0  0  0  0  0  0  0  0  0  0  0
    7.9432  -15.9257   20.0841 O   0  0  0  0  0  0  0  0  0  0  0  0
    9.1489  -17.7401   20.8041 N   0  0  0  0  0  0  0  0  0  0  0  0
    8.5837  -17.7238   22.1300 C   0  0  0  0  0  0  0  0  0  0  0  0
    9.4471  -17.1540   23.1676 C   0  0  0  0  0  0  0  0  0  0  0  0
   10.6047  -16.7126   22.8690 O   0  0  0  0  0  0  0  0  0  0  0  0
    9.0724  -17.0608   24.5255 N   0  0  0  0  0  0  0  0  0  0  0  0
   10.0034  -16.4881   25.5230 C   0  0  1  0  0  0  0  0  0  0  0  0
    9.2039  -15.8377   26.5934 C   0  0  0  0  0  0  0  0  0  0  0  0
    7.9441  -15.2036   26.1910 C   0  0  0  0  0  0  0  0  0  0  0  0
    6.8246  -15.8522   25.7225 C   0  0  0  0  0  0  0  0  0  0  0  0
    5.8605  -14.9657   25.4200 N   0  0  0  0  0  0  0  0  0  0  0  0
    6.3346  -13.7416   25.6855 C   0  0  0  0  0  0  0  0  0  0  0  0
    5.7965  -12.4931   25.5843 C   0  0  0  0  0  0  0  0  0  0  0  0
    6.4565  -11.3439   25.9302 C   0  0  0  0  0  0  0  0  0  0  0  0
    7.7507  -11.4602   26.4127 C   0  0  0  0  0  0  0  0  0  0  0  0
    8.3128  -12.7050   26.5229 C   0  0  0  0  0  0  0  0  0  0  0  0
    7.6355  -13.8556   26.1694 C   0  0  0  0  0  0  0  0  0  0  0  0
   10.9923  -17.4804   25.9065 C   0  0  0  0  0  0  0  0  0  0  0  0
   10.8518  -18.6791   25.5562 O   0  0  0  0  0  0  0  0  0  0  0  0
   12.1049  -17.1478   26.6518 O   0  0  0  0  0  0  0  0  0  0  0  0
  2  8  1  0
  2  1  1  1
  3  2  1  0
  4  3  1  0
  4  5  1  0
  5  6  1  0
  7  6  1  0
  8  9  2  0
 10 11  1  0
 10  8  1  0
 12 14  1  0
 12 11  1  0
 13 12  2  0
 15 14  1  0
 15 26  1  0
 15 16  1  1
 17 16  1  0
 18 17  2  0
 19 18  1  0
 20 19  1  0
 20 25  2  0
 21 20  1  0
 22 21  2  0
 22 23  1  0
 23 24  2  0
 24 25  1  0
 25 17  1  0
 26 27  2  0
 26 28  1  0
M  END
$$$$
