KGW.pdb
     RDKit          3D

 28 29  0  0  1  0  0  0  0  0999 V2000
    9.1804  -15.2227   17.3363 N   0  0  0  0  0  0  0  0  0  0  0  0
    8.4553  -14.5253   18.3514 C   0  0  1  0  0  0  0  0  0  0  0  0
    7.2205  -13.8709   17.8669 C   0  0  0  0  0  0  0  0  0  0  0  0
    6.9513  -14.1162   16.4131 C   0  0  0  0  0  0  0  0  0  0  0  0
    7.7920  -13.3639   15.4458 C   0  0  0  0  0  0  0  0  0  0  0  0
    7.4140  -13.6040   14.0064 C   0  0  0  0  0  0  0  0  0  0  0  0
    8.3550  -12.8716   13.1750 N   0  0  0  0  0  0  0  0  0  0  0  0
    8.1217  -15.4343   19.5088 C   0  0  0  0  0  0  0  0  0  0  0  0
    7.1622  -16.2383   19.4447 O   0  0  0  0  0  0  0  0  0  0  0  0
    8.8841  -15.4117   20.7160 N   0  0  0  0  0  0  0  0  0  0  0  0
    8.6111  -16.2865   21.8287 C   0  0  0  0  0  0  0  0  0  0  0  0
    9.4911  -16.1128   22.9872 C   0  0  0  0  0  0  0  0  0  0  0  0
   10.5449  -15.4024   22.8927 O   0  0  0  0  0  0  0  0  0  0  0  0
    9.2448  -16.7033   24.2456 N   0  0  0  0  0  0  0  0  0  0  0  0
   10.1570  -16.4527   25.3835 C   0  0  1  0  0  0  0  0  0  0  0  0
    9.8898  -15.0887   25.9089 C   0  0  0  0  0  0  0  0  0  0  0  0
    8.4845  -14.6985   26.0634 C   0  0  0  0  0  0  0  0  0  0  0  0
    7.4078  -15.5536   26.1167 C   0  0  0  0  0  0  0  0  0  0  0  0
    6.2625  -14.8597   26.2343 N   0  0  0  0  0  0  0  0  0  0  0  0
    6.5756  -13.5578   26.2594 C   0  0  0  0  0  0  0  0  0  0  0  0
    5.8287  -12.4232   26.3759 C   0  0  0  0  0  0  0  0  0  0  0  0
    6.3545  -11.1586   26.3971 C   0  0  0  0  0  0  0  0  0  0  0  0
    7.7304  -11.0272   26.2937 C   0  0  0  0  0  0  0  0  0  0  0  0
    8.5017  -12.1535   26.1752 C   0  0  0  0  0  0  0  0  0  0  0  0
    7.9577  -13.4229   26.1545 C   0  0  0  0  0  0  0  0  0  0  0  0
   10.1135  -17.5702   26.3103 C   0  0  0  0  0  0  0  0  0  0  0  0
    9.2546  -18.4762   26.1662 O   0  0  0  0  0  0  0  0  0  0  0  0
   11.0012  -17.6781   27.3611 O   0  0  0  0  0  0  0  0  0  0  0  0
  2  8  1  0
  2  1  1  6
  3  2  1  0
  4  3  1  0
  4  5  1  0
  5  6  1  0
  7  6  1  0
  8  9  2  0
 10 11  1  0
 10  8  1  0
 12 14  1  0
 12 11  1  0
 13 12  2  0
 15 14  1  0
 15 26  1  0
 15 16  1  1
 17 16  1  0
 18 17  2  0
 19 18  1  0
 20 19  1  0
 20 25  2  0
 21 20  1  0
 22 21  2  0
 22 23  1  0
 23 24  2  0
 24 25  1  0
 25 17  1  0
 26 27  2  0
 26 28  1  0
M  END
$$$$
