KGW.pdb
     RDKit          3D

 28 29  0  0  1  0  0  0  0  0999 V2000
    7.2730  -17.3252   21.6415 N   0  0  0  0  0  0  0  0  0  0  0  0
    8.1875  -17.4358   20.5488 C   0  0  1  0  0  0  0  0  0  0  0  0
    7.8325  -16.6011   19.3804 C   0  0  0  0  0  0  0  0  0  0  0  0
    8.1019  -15.1419   19.5910 C   0  0  0  0  0  0  0  0  0  0  0  0
    7.7293  -14.2303   18.4782 C   0  0  0  0  0  0  0  0  0  0  0  0
    7.8713  -12.7698   18.8237 C   0  0  0  0  0  0  0  0  0  0  0  0
    7.4531  -11.9993   17.6642 N   0  0  0  0  0  0  0  0  0  0  0  0
    9.5984  -17.1210   20.9815 C   0  0  0  0  0  0  0  0  0  0  0  0
   10.5187  -16.9873   20.1410 O   0  0  0  0  0  0  0  0  0  0  0  0
    9.9362  -16.9650   22.3602 N   0  0  0  0  0  0  0  0  0  0  0  0
   11.2722  -16.6597   22.8073 C   0  0  0  0  0  0  0  0  0  0  0  0
   11.4191  -16.4844   24.2545 C   0  0  0  0  0  0  0  0  0  0  0  0
   12.5740  -16.3209   24.7678 O   0  0  0  0  0  0  0  0  0  0  0  0
   10.3297  -16.4882   25.1523 N   0  0  0  0  0  0  0  0  0  0  0  0
   10.5564  -16.3463   26.6077 C   0  0  1  0  0  0  0  0  0  0  0  0
    9.9124  -15.0872   27.0634 C   0  0  0  0  0  0  0  0  0  0  0  0
    8.5489  -14.8275   26.5896 C   0  0  0  0  0  0  0  0  0  0  0  0
    7.6571  -15.7706   26.1327 C   0  0  0  0  0  0  0  0  0  0  0  0
    6.5091  -15.1850   25.7507 N   0  0  0  0  0  0  0  0  0  0  0  0
    6.6371  -13.8671   25.9524 C   0  0  0  0  0  0  0  0  0  0  0  0
    5.7975  -12.8104   25.7600 C   0  0  0  0  0  0  0  0  0  0  0  0
    6.1209  -11.5118   26.0515 C   0  0  0  0  0  0  0  0  0  0  0  0
    7.3796  -11.2593   26.5741 C   0  0  0  0  0  0  0  0  0  0  0  0
    8.2411  -12.3056   26.7759 C   0  0  0  0  0  0  0  0  0  0  0  0
    7.9015  -13.6105   26.4765 C   0  0  0  0  0  0  0  0  0  0  0  0
   10.2115  -17.5830   27.2870 C   0  0  0  0  0  0  0  0  0  0  0  0
   10.3809  -17.6896   28.5277 O   0  0  0  0  0  0  0  0  0  0  0  0
    9.6899  -18.6647   26.6075 O   0  0  0  0  0  0  0  0  0  0  0  0
  2  8  1  0
  2  1  1  1
  3  2  1  0
  4  3  1  0
  4  5  1  0
  5  6  1  0
  7  6  1  0
  8  9  2  0
 10 11  1  0
 10  8  1  0
 12 14  1  0
 12 11  1  0
 13 12  2  0
 15 14  1  0
 15 26  1  0
 15 16  1  1
 17 16  1  0
 18 17  2  0
 19 18  1  0
 20 19  1  0
 20 25  2  0
 21 20  1  0
 22 21  2  0
 22 23  1  0
 23 24  2  0
 24 25  1  0
 25 17  1  0
 26 27  2  0
 26 28  1  0
M  END
$$$$
