KGW.pdb
     RDKit          3D

 28 29  0  0  1  0  0  0  0  0999 V2000
    9.7581  -15.2211   18.0681 N   0  0  0  0  0  0  0  0  0  0  0  0
    8.9250  -14.4557   18.9413 C   0  0  1  0  0  0  0  0  0  0  0  0
    7.6632  -13.9973   18.3204 C   0  0  0  0  0  0  0  0  0  0  0  0
    7.8702  -13.2632   17.0303 C   0  0  0  0  0  0  0  0  0  0  0  0
    7.6592  -14.0415   15.7821 C   0  0  0  0  0  0  0  0  0  0  0  0
    7.7359  -13.2041   14.5309 C   0  0  0  0  0  0  0  0  0  0  0  0
    7.4618  -14.0749   13.3996 N   0  0  0  0  0  0  0  0  0  0  0  0
    8.6152  -15.2153   20.2079 C   0  0  0  0  0  0  0  0  0  0  0  0
    7.9244  -14.7011   21.1185 O   0  0  0  0  0  0  0  0  0  0  0  0
    9.0967  -16.5436   20.4150 N   0  0  0  0  0  0  0  0  0  0  0  0
    8.9300  -17.2495   21.6608 C   0  0  0  0  0  0  0  0  0  0  0  0
    9.7058  -16.7194   22.7849 C   0  0  0  0  0  0  0  0  0  0  0  0
   10.5931  -15.8259   22.5886 O   0  0  0  0  0  0  0  0  0  0  0  0
    9.5341  -17.1489   24.1187 N   0  0  0  0  0  0  0  0  0  0  0  0
   10.1503  -16.3970   25.2343 C   0  0  1  0  0  0  0  0  0  0  0  0
    9.7037  -14.9823   25.1513 C   0  0  0  0  0  0  0  0  0  0  0  0
    8.3259  -14.6939   25.5631 C   0  0  0  0  0  0  0  0  0  0  0  0
    7.2793  -15.5872   25.5708 C   0  0  0  0  0  0  0  0  0  0  0  0
    6.1496  -14.9833   25.9780 N   0  0  0  0  0  0  0  0  0  0  0  0
    6.4431  -13.7028   26.2385 C   0  0  0  0  0  0  0  0  0  0  0  0
    5.7013  -12.6507   26.6874 C   0  0  0  0  0  0  0  0  0  0  0  0
    6.2056  -11.3968   26.9091 C   0  0  0  0  0  0  0  0  0  0  0  0
    7.5531  -11.1873   26.6612 C   0  0  0  0  0  0  0  0  0  0  0  0
    8.3189  -12.2297   26.2091 C   0  0  0  0  0  0  0  0  0  0  0  0
    7.7965  -13.4893   25.9892 C   0  0  0  0  0  0  0  0  0  0  0  0
    9.9525  -17.1110   26.4836 C   0  0  0  0  0  0  0  0  0  0  0  0
    9.1432  -18.0708   26.5403 O   0  0  0  0  0  0  0  0  0  0  0  0
   10.6376  -16.7707   27.6319 O   0  0  0  0  0  0  0  0  0  0  0  0
  2  8  1  0
  2  1  1  6
  3  2  1  0
  4  3  1  0
  4  5  1  0
  5  6  1  0
  7  6  1  0
  8  9  2  0
 10 11  1  0
 10  8  1  0
 12 14  1  0
 12 11  1  0
 13 12  2  0
 15 14  1  0
 15 26  1  0
 15 16  1  1
 17 16  1  0
 18 17  2  0
 19 18  1  0
 20 19  1  0
 20 25  2  0
 21 20  1  0
 22 21  2  0
 22 23  1  0
 23 24  2  0
 24 25  1  0
 25 17  1  0
 26 27  2  0
 26 28  1  0
M  END
$$$$
