KGW.pdb
     RDKit          3D

 28 29  0  0  1  0  0  0  0  0999 V2000
    8.6372  -19.7646   20.6672 N   0  0  0  0  0  0  0  0  0  0  0  0
    8.2377  -18.6841   19.8213 C   0  0  1  0  0  0  0  0  0  0  0  0
    7.1694  -19.0354   18.8606 C   0  0  0  0  0  0  0  0  0  0  0  0
    7.1750  -20.4827   18.4715 C   0  0  0  0  0  0  0  0  0  0  0  0
    6.1299  -20.9154   17.5077 C   0  0  0  0  0  0  0  0  0  0  0  0
    6.1916  -22.3839   17.1726 C   0  0  0  0  0  0  0  0  0  0  0  0
    4.8261  -22.8763   17.0939 N   0  0  0  0  0  0  0  0  0  0  0  0
    7.8114  -17.4838   20.6305 C   0  0  0  0  0  0  0  0  0  0  0  0
    7.1517  -17.6171   21.6879 O   0  0  0  0  0  0  0  0  0  0  0  0
    8.1424  -16.1560   20.2222 N   0  0  0  0  0  0  0  0  0  0  0  0
    7.7466  -14.9879   20.9684 C   0  0  0  0  0  0  0  0  0  0  0  0
    8.4966  -14.7562   22.2055 C   0  0  0  0  0  0  0  0  0  0  0  0
    8.8251  -13.5728   22.5455 O   0  0  0  0  0  0  0  0  0  0  0  0
    8.8983  -15.7922   23.0763 N   0  0  0  0  0  0  0  0  0  0  0  0
    9.6970  -15.4892   24.2846 C   0  0  1  0  0  0  0  0  0  0  0  0
    8.8664  -15.7788   25.4822 C   0  0  0  0  0  0  0  0  0  0  0  0
    7.5449  -15.1458   25.5445 C   0  0  0  0  0  0  0  0  0  0  0  0
    6.3497  -15.7302   25.1934 C   0  0  0  0  0  0  0  0  0  0  0  0
    5.3380  -14.8585   25.3462 N   0  0  0  0  0  0  0  0  0  0  0  0
    5.8559  -13.7076   25.7945 C   0  0  0  0  0  0  0  0  0  0  0  0
    5.3039  -12.5074   26.1312 C   0  0  0  0  0  0  0  0  0  0  0  0
    6.0216  -11.4370   26.5949 C   0  0  0  0  0  0  0  0  0  0  0  0
    7.3931  -11.5859   26.7292 C   0  0  0  0  0  0  0  0  0  0  0  0
    7.9706  -12.7831   26.3966 C   0  0  0  0  0  0  0  0  0  0  0  0
    7.2342  -13.8541   25.9294 C   0  0  0  0  0  0  0  0  0  0  0  0
   11.0050  -16.1128   24.1846 C   0  0  0  0  0  0  0  0  0  0  0  0
   11.8641  -15.9240   25.0823 O   0  0  0  0  0  0  0  0  0  0  0  0
   11.3441  -16.9246   23.1217 O   0  0  0  0  0  0  0  0  0  0  0  0
  2  8  1  0
  2  1  1  1
  3  2  1  0
  4  3  1  0
  4  5  1  0
  5  6  1  0
  7  6  1  0
  8  9  2  0
 10 11  1  0
 10  8  1  0
 12 14  1  0
 12 11  1  0
 13 12  2  0
 15 14  1  0
 15 26  1  0
 15 16  1  1
 17 16  1  0
 18 17  2  0
 19 18  1  0
 20 19  1  0
 20 25  2  0
 21 20  1  0
 22 21  2  0
 22 23  1  0
 23 24  2  0
 24 25  1  0
 25 17  1  0
 26 27  2  0
 26 28  1  0
M  END
$$$$
