KGW.pdb
     RDKit          3D

 28 29  0  0  1  0  0  0  0  0999 V2000
    8.1886  -19.6990   22.0979 N   0  0  0  0  0  0  0  0  0  0  0  0
    8.9025  -19.3193   20.9195 C   0  0  1  0  0  0  0  0  0  0  0  0
    8.0624  -19.2470   19.7042 C   0  0  0  0  0  0  0  0  0  0  0  0
    7.3339  -20.5234   19.4107 C   0  0  0  0  0  0  0  0  0  0  0  0
    6.5811  -20.5792   18.1306 C   0  0  0  0  0  0  0  0  0  0  0  0
    5.9563  -21.9238   17.8584 C   0  0  0  0  0  0  0  0  0  0  0  0
    5.1873  -21.8125   16.6299 N   0  0  0  0  0  0  0  0  0  0  0  0
    9.6205  -18.0063   21.1133 C   0  0  0  0  0  0  0  0  0  0  0  0
   10.1223  -17.3934   20.1419 O   0  0  0  0  0  0  0  0  0  0  0  0
    9.7548  -17.4159   22.4066 N   0  0  0  0  0  0  0  0  0  0  0  0
   10.4909  -16.1981   22.6367 C   0  0  0  0  0  0  0  0  0  0  0  0
   10.5758  -15.7776   24.0376 C   0  0  0  0  0  0  0  0  0  0  0  0
   11.2932  -14.7766   24.3655 O   0  0  0  0  0  0  0  0  0  0  0  0
    9.8958  -16.4314   25.0878 N   0  0  0  0  0  0  0  0  0  0  0  0
   10.4550  -16.4325   26.4578 C   0  0  1  0  0  0  0  0  0  0  0  0
    9.5022  -15.7295   27.3553 C   0  0  0  0  0  0  0  0  0  0  0  0
    8.2562  -15.2432   26.7535 C   0  0  0  0  0  0  0  0  0  0  0  0
    7.2990  -16.0162   26.1374 C   0  0  0  0  0  0  0  0  0  0  0  0
    6.3006  -15.2453   25.6728 N   0  0  0  0  0  0  0  0  0  0  0  0
    6.5915  -13.9741   25.9778 C   0  0  0  0  0  0  0  0  0  0  0  0
    5.9412  -12.7944   25.7677 C   0  0  0  0  0  0  0  0  0  0  0  0
    6.4107  -11.5763   26.1820 C   0  0  0  0  0  0  0  0  0  0  0  0
    7.6214  -11.5437   26.8560 C   0  0  0  0  0  0  0  0  0  0  0  0
    8.2936  -12.7168   27.0786 C   0  0  0  0  0  0  0  0  0  0  0  0
    7.8083  -13.9384   26.6543 C   0  0  0  0  0  0  0  0  0  0  0  0
   10.8823  -17.7730   26.8188 C   0  0  0  0  0  0  0  0  0  0  0  0
   11.4932  -17.9709   27.8991 O   0  0  0  0  0  0  0  0  0  0  0  0
   10.6329  -18.8593   26.0054 O   0  0  0  0  0  0  0  0  0  0  0  0
  2  8  1  0
  2  1  1  1
  3  2  1  0
  4  3  1  0
  4  5  1  0
  5  6  1  0
  7  6  1  0
  8  9  2  0
 10 11  1  0
 10  8  1  0
 12 14  1  0
 12 11  1  0
 13 12  2  0
 15 14  1  0
 15 26  1  0
 15 16  1  1
 17 16  1  0
 18 17  2  0
 19 18  1  0
 20 19  1  0
 20 25  2  0
 21 20  1  0
 22 21  2  0
 22 23  1  0
 23 24  2  0
 24 25  1  0
 25 17  1  0
 26 27  2  0
 26 28  1  0
M  END
$$$$
