KGW.pdb
     RDKit          3D

 28 29  0  0  1  0  0  0  0  0999 V2000
   10.3672  -13.7720   19.2983 N   0  0  0  0  0  0  0  0  0  0  0  0
    9.0281  -13.8912   19.7831 C   0  0  1  0  0  0  0  0  0  0  0  0
    8.0233  -13.1917   18.9532 C   0  0  0  0  0  0  0  0  0  0  0  0
    8.3767  -13.1586   17.4972 C   0  0  0  0  0  0  0  0  0  0  0  0
    7.6256  -14.0847   16.6103 C   0  0  0  0  0  0  0  0  0  0  0  0
    7.9028  -13.8705   15.1440 C   0  0  0  0  0  0  0  0  0  0  0  0
    7.0800  -14.8083   14.3978 N   0  0  0  0  0  0  0  0  0  0  0  0
    8.6299  -15.3381   19.9417 C   0  0  0  0  0  0  0  0  0  0  0  0
    8.7106  -16.1407   18.9824 O   0  0  0  0  0  0  0  0  0  0  0  0
    8.1473  -15.8445   21.1867 N   0  0  0  0  0  0  0  0  0  0  0  0
    8.7302  -16.9875   21.8437 C   0  0  0  0  0  0  0  0  0  0  0  0
    9.5066  -16.6838   23.0485 C   0  0  0  0  0  0  0  0  0  0  0  0
   10.7267  -16.3281   22.9539 O   0  0  0  0  0  0  0  0  0  0  0  0
    8.9776  -16.7650   24.3548 N   0  0  0  0  0  0  0  0  0  0  0  0
    9.8277  -16.4658   25.5285 C   0  0  1  0  0  0  0  0  0  0  0  0
    9.4324  -15.1397   26.0697 C   0  0  0  0  0  0  0  0  0  0  0  0
    8.0171  -14.7710   25.9602 C   0  0  0  0  0  0  0  0  0  0  0  0
    6.9633  -15.6419   25.8038 C   0  0  0  0  0  0  0  0  0  0  0  0
    5.8055  -14.9656   25.7091 N   0  0  0  0  0  0  0  0  0  0  0  0
    6.0875  -13.6597   25.8022 C   0  0  0  0  0  0  0  0  0  0  0  0
    5.3142  -12.5370   25.7847 C   0  0  0  0  0  0  0  0  0  0  0  0
    5.8064  -11.2654   25.9137 C   0  0  0  0  0  0  0  0  0  0  0  0
    7.1750  -11.1134   26.0718 C   0  0  0  0  0  0  0  0  0  0  0  0
    7.9726  -12.2274   26.0921 C   0  0  0  0  0  0  0  0  0  0  0  0
    7.4624  -13.5040   25.9601 C   0  0  0  0  0  0  0  0  0  0  0  0
    9.8448  -17.6029   26.4321 C   0  0  0  0  0  0  0  0  0  0  0  0
    9.0141  -18.5350   26.2888 O   0  0  0  0  0  0  0  0  0  0  0  0
   10.7607  -17.7015   27.4594 O   0  0  0  0  0  0  0  0  0  0  0  0
  2  8  1  0
  2  1  1  6
  3  2  1  0
  4  3  1  0
  4  5  1  0
  5  6  1  0
  7  6  1  0
  8  9  2  0
 10 11  1  0
 10  8  1  0
 12 14  1  0
 12 11  1  0
 13 12  2  0
 15 14  1  0
 15 26  1  0
 15 16  1  1
 17 16  1  0
 18 17  2  0
 19 18  1  0
 20 19  1  0
 20 25  2  0
 21 20  1  0
 22 21  2  0
 22 23  1  0
 23 24  2  0
 24 25  1  0
 25 17  1  0
 26 27  2  0
 26 28  1  0
M  END
$$$$
