KGW.pdb
     RDKit          3D

 28 29  0  0  1  0  0  0  0  0999 V2000
   10.9447  -14.2037   19.1393 N   0  0  0  0  0  0  0  0  0  0  0  0
    9.9328  -13.5146   19.8766 C   0  0  1  0  0  0  0  0  0  0  0  0
    8.7980  -13.0489   19.0500 C   0  0  0  0  0  0  0  0  0  0  0  0
    8.2049  -14.1282   18.1960 C   0  0  0  0  0  0  0  0  0  0  0  0
    7.0669  -13.7357   17.3247 C   0  0  0  0  0  0  0  0  0  0  0  0
    6.4768  -14.8870   16.5508 C   0  0  0  0  0  0  0  0  0  0  0  0
    7.4596  -15.3059   15.5651 N   0  0  0  0  0  0  0  0  0  0  0  0
    9.4130  -14.3590   21.0140 C   0  0  0  0  0  0  0  0  0  0  0  0
    8.6027  -13.8926   21.8488 O   0  0  0  0  0  0  0  0  0  0  0  0
    9.8242  -15.7164   21.1809 N   0  0  0  0  0  0  0  0  0  0  0  0
    9.3101  -16.5653   22.2263 C   0  0  0  0  0  0  0  0  0  0  0  0
    9.9282  -16.3771   23.5412 C   0  0  0  0  0  0  0  0  0  0  0  0
   11.1002  -15.8856   23.6357 O   0  0  0  0  0  0  0  0  0  0  0  0
    9.2929  -16.7189   24.7547 N   0  0  0  0  0  0  0  0  0  0  0  0
   10.0111  -16.5844   26.0414 C   0  0  1  0  0  0  0  0  0  0  0  0
    9.2820  -15.6036   26.8866 C   0  0  0  0  0  0  0  0  0  0  0  0
    8.0122  -15.0886   26.3638 C   0  0  0  0  0  0  0  0  0  0  0  0
    6.9921  -15.8412   25.8286 C   0  0  0  0  0  0  0  0  0  0  0  0
    5.9871  -15.0472   25.4206 N   0  0  0  0  0  0  0  0  0  0  0  0
    6.3360  -13.7810   25.6827 C   0  0  0  0  0  0  0  0  0  0  0  0
    5.7078  -12.5853   25.4975 C   0  0  0  0  0  0  0  0  0  0  0  0
    6.2407  -11.3760   25.8572 C   0  0  0  0  0  0  0  0  0  0  0  0
    7.4957  -11.3702   26.4454 C   0  0  0  0  0  0  0  0  0  0  0  0
    8.1467  -12.5599   26.6415 C   0  0  0  0  0  0  0  0  0  0  0  0
    7.5973  -13.7723   26.2730 C   0  0  0  0  0  0  0  0  0  0  0  0
   10.2907  -17.8983   26.5939 C   0  0  0  0  0  0  0  0  0  0  0  0
    9.7662  -18.9210   26.0855 O   0  0  0  0  0  0  0  0  0  0  0  0
   11.1314  -18.0687   27.6747 O   0  0  0  0  0  0  0  0  0  0  0  0
  2  8  1  0
  2  1  1  6
  3  2  1  0
  4  3  1  0
  4  5  1  0
  5  6  1  0
  7  6  1  0
  8  9  2  0
 10 11  1  0
 10  8  1  0
 12 14  1  0
 12 11  1  0
 13 12  2  0
 15 14  1  0
 15 26  1  0
 15 16  1  1
 17 16  1  0
 18 17  2  0
 19 18  1  0
 20 19  1  0
 20 25  2  0
 21 20  1  0
 22 21  2  0
 22 23  1  0
 23 24  2  0
 24 25  1  0
 25 17  1  0
 26 27  2  0
 26 28  1  0
M  END
$$$$
