KGW.pdb
     RDKit          3D

 28 29  0  0  1  0  0  0  0  0999 V2000
    9.5403  -20.2388   20.0599 N   0  0  0  0  0  0  0  0  0  0  0  0
   10.7510  -19.7215   19.5039 C   0  0  1  0  0  0  0  0  0  0  0  0
   11.0222  -20.1779   18.1233 C   0  0  0  0  0  0  0  0  0  0  0  0
   10.3503  -21.4741   17.7851 C   0  0  0  0  0  0  0  0  0  0  0  0
   10.6599  -22.0549   16.4527 C   0  0  0  0  0  0  0  0  0  0  0  0
   10.0705  -23.4264   16.2426 C   0  0  0  0  0  0  0  0  0  0  0  0
   10.3827  -23.8374   14.8837 N   0  0  0  0  0  0  0  0  0  0  0  0
   10.7734  -18.2133   19.5484 C   0  0  0  0  0  0  0  0  0  0  0  0
   11.8408  -17.5767   19.3858 O   0  0  0  0  0  0  0  0  0  0  0  0
    9.5831  -17.4582   19.7773 N   0  0  0  0  0  0  0  0  0  0  0  0
    9.5631  -16.0170   19.7917 C   0  0  0  0  0  0  0  0  0  0  0  0
    9.7424  -15.4054   21.1109 C   0  0  0  0  0  0  0  0  0  0  0  0
    9.9180  -14.1476   21.2174 O   0  0  0  0  0  0  0  0  0  0  0  0
    9.7378  -16.1411   22.3157 N   0  0  0  0  0  0  0  0  0  0  0  0
    9.3220  -15.5017   23.5837 C   0  0  1  0  0  0  0  0  0  0  0  0
    7.8372  -15.4859   23.6378 C   0  0  0  0  0  0  0  0  0  0  0  0
    7.2206  -14.8601   24.8122 C   0  0  0  0  0  0  0  0  0  0  0  0
    6.3908  -15.4799   25.7181 C   0  0  0  0  0  0  0  0  0  0  0  0
    5.9822  -14.6065   26.6546 N   0  0  0  0  0  0  0  0  0  0  0  0
    6.5353  -13.4195   26.3738 C   0  0  0  0  0  0  0  0  0  0  0  0
    6.4812  -12.2005   26.9818 C   0  0  0  0  0  0  0  0  0  0  0  0
    7.1482  -11.0909   26.5347 C   0  0  0  0  0  0  0  0  0  0  0  0
    7.9253  -11.2180   25.3940 C   0  0  0  0  0  0  0  0  0  0  0  0
    7.9948  -12.4335   24.7654 C   0  0  0  0  0  0  0  0  0  0  0  0
    7.3160  -13.5442   25.2273 C   0  0  0  0  0  0  0  0  0  0  0  0
   10.0471  -16.0887   24.6970 C   0  0  0  0  0  0  0  0  0  0  0  0
   11.3028  -16.0459   24.7247 O   0  0  0  0  0  0  0  0  0  0  0  0
    9.3948  -16.6993   25.7485 O   0  0  0  0  0  0  0  0  0  0  0  0
  2  8  1  0
  2  1  1  6
  3  2  1  0
  4  3  1  0
  4  5  1  0
  5  6  1  0
  7  6  1  0
  8  9  2  0
 10 11  1  0
 10  8  1  0
 12 14  1  0
 12 11  1  0
 13 12  2  0
 15 14  1  0
 15 26  1  0
 15 16  1  1
 17 16  1  0
 18 17  2  0
 19 18  1  0
 20 19  1  0
 20 25  2  0
 21 20  1  0
 22 21  2  0
 22 23  1  0
 23 24  2  0
 24 25  1  0
 25 17  1  0
 26 27  2  0
 26 28  1  0
M  END
$$$$
