KGW.pdb
     RDKit          3D

 28 29  0  0  1  0  0  0  0  0999 V2000
    5.5441  -19.4549   22.3605 N   0  0  0  0  0  0  0  0  0  0  0  0
    6.5701  -20.2246   22.9909 C   0  0  1  0  0  0  0  0  0  0  0  0
    6.4678  -21.6795   22.7449 C   0  0  0  0  0  0  0  0  0  0  0  0
    5.1040  -22.2335   23.0261 C   0  0  0  0  0  0  0  0  0  0  0  0
    4.8700  -23.6496   22.6411 C   0  0  0  0  0  0  0  0  0  0  0  0
    3.4659  -24.1238   22.9168 C   0  0  0  0  0  0  0  0  0  0  0  0
    3.3943  -25.5284   22.5492 N   0  0  0  0  0  0  0  0  0  0  0  0
    7.9421  -19.7418   22.5889 C   0  0  0  0  0  0  0  0  0  0  0  0
    8.9775  -20.2861   23.0391 O   0  0  0  0  0  0  0  0  0  0  0  0
    8.1108  -18.6502   21.6838 N   0  0  0  0  0  0  0  0  0  0  0  0
    9.4035  -18.1129   21.3404 C   0  0  0  0  0  0  0  0  0  0  0  0
    9.9927  -17.2208   22.3422 C   0  0  0  0  0  0  0  0  0  0  0  0
   11.1860  -16.7961   22.2017 O   0  0  0  0  0  0  0  0  0  0  0  0
    9.3054  -16.7869   23.4965 N   0  0  0  0  0  0  0  0  0  0  0  0
   10.0194  -16.0484   24.5616 C   0  0  1  0  0  0  0  0  0  0  0  0
    9.5869  -14.6274   24.5196 C   0  0  0  0  0  0  0  0  0  0  0  0
    8.2506  -14.3227   25.0414 C   0  0  0  0  0  0  0  0  0  0  0  0
    7.1863  -15.1930   25.1000 C   0  0  0  0  0  0  0  0  0  0  0  0
    6.1045  -14.5781   25.6084 N   0  0  0  0  0  0  0  0  0  0  0  0
    6.4470  -13.3132   25.8849 C   0  0  0  0  0  0  0  0  0  0  0  0
    5.7657  -12.2603   26.4195 C   0  0  0  0  0  0  0  0  0  0  0  0
    6.3148  -11.0252   26.6408 C   0  0  0  0  0  0  0  0  0  0  0  0
    7.6450  -10.8371   26.2997 C   0  0  0  0  0  0  0  0  0  0  0  0
    8.3502  -11.8809   25.7604 C   0  0  0  0  0  0  0  0  0  0  0  0
    7.7830  -13.1212   25.5420 C   0  0  0  0  0  0  0  0  0  0  0  0
    9.9128  -16.7654   25.8202 C   0  0  0  0  0  0  0  0  0  0  0  0
   10.6263  -16.4307   26.7992 O   0  0  0  0  0  0  0  0  0  0  0  0
    9.0362  -17.8181   25.9853 O   0  0  0  0  0  0  0  0  0  0  0  0
  2  8  1  0
  2  1  1  6
  3  2  1  0
  4  3  1  0
  4  5  1  0
  5  6  1  0
  7  6  1  0
  8  9  2  0
 10 11  1  0
 10  8  1  0
 12 14  1  0
 12 11  1  0
 13 12  2  0
 15 14  1  0
 15 26  1  0
 15 16  1  1
 17 16  1  0
 18 17  2  0
 19 18  1  0
 20 19  1  0
 20 25  2  0
 21 20  1  0
 22 21  2  0
 22 23  1  0
 23 24  2  0
 24 25  1  0
 25 17  1  0
 26 27  2  0
 26 28  1  0
M  END
$$$$
