SEH.pdb
     RDKit          3D

 26 26  0  0  1  0  0  0  0  0999 V2000
   14.0046   -7.6835  -15.1704 O   0  0  0  0  0  0  0  0  0  0  0  0
   15.2374   -7.6818  -14.5435 C   0  0  0  0  0  0  0  0  0  0  0  0
   16.2259   -8.6149  -15.2255 C   0  0  2  0  0  0  0  0  0  0  0  0
   15.9821   -9.9422  -14.6528 N   0  0  0  0  0  0  0  0  0  0  0  0
   17.5794   -8.2019  -14.7787 C   0  0  0  0  0  0  0  0  0  0  0  0
   17.8522   -8.3638  -13.5632 O   0  0  0  0  0  0  0  0  0  0  0  0
   18.5602   -7.6487  -15.6207 N   0  0  0  0  0  0  0  0  0  0  0  0
   19.8219   -7.2308  -15.0782 C   0  0  1  0  0  0  0  0  0  0  0  0
   20.9777   -8.0503  -15.6132 C   0  0  0  0  0  0  0  0  0  0  0  0
   22.2945   -7.6104  -14.9804 C   0  0  0  0  0  0  0  0  0  0  0  0
   23.4357   -8.3733  -15.5310 C   0  0  0  0  0  0  0  0  0  0  0  0
   23.5922   -9.5998  -15.3943 O   0  0  0  0  0  0  0  0  0  0  0  0
   20.0481   -5.7772  -15.2825 C   0  0  0  0  0  0  0  0  0  0  0  0
   20.0053   -5.3372  -16.4467 O   0  0  0  0  0  0  0  0  0  0  0  0
   24.3878   -7.6609  -16.2457 O   0  0  0  0  0  0  0  0  0  0  0  0
   20.3068   -4.8874  -14.2162 N   0  0  0  0  0  0  0  0  0  0  0  0
   20.6342   -3.4838  -14.3511 C   0  0  1  0  0  0  0  0  0  0  0  0
   19.8432   -2.6332  -13.4067 C   0  0  0  0  0  0  0  0  0  0  0  0
   18.4593   -2.4973  -13.9122 C   0  0  0  0  0  0  0  0  0  0  0  0
   17.6144   -3.5310  -14.2277 C   0  0  0  0  0  0  0  0  0  0  0  0
   16.4613   -2.9775  -14.6462 N   0  0  0  0  0  0  0  0  0  0  0  0
   16.5748   -1.6396  -14.5964 C   0  0  0  0  0  0  0  0  0  0  0  0
   17.7958   -1.3612  -14.1480 N   0  0  0  0  0  0  0  0  0  0  0  0
   22.0850   -3.2115  -14.3400 C   0  0  0  0  0  0  0  0  0  0  0  0
   22.9596   -4.2585  -14.1283 O   0  0  0  0  0  0  0  0  0  0  0  0
   22.5273   -2.0699  -14.5159 O   0  0  0  0  0  0  0  0  0  0  0  0
  2  1  1  0
  3  2  1  0
  3  4  1  1
  5  7  1  0
  5  3  1  0
  6  5  2  0
  8  7  1  0
  8  9  1  6
  9 10  1  0
 10 11  1  0
 11 15  1  0
 12 11  2  0
 13  8  1  0
 14 13  2  0
 16 13  1  0
 17 16  1  0
 17 18  1  1
 19 18  1  0
 20 19  2  0
 21 22  1  0
 21 20  1  0
 22 23  2  0
 23 19  1  0
 24 17  1  0
 25 24  1  0
 26 24  2  0
M  END
$$$$
