SEH.pdb
     RDKit          3D

 26 26  0  0  1  0  0  0  0  0999 V2000
   17.9230  -10.8465  -14.7579 O   0  0  0  0  0  0  0  0  0  0  0  0
   17.7137  -11.3075  -16.0449 C   0  0  0  0  0  0  0  0  0  0  0  0
   16.9578  -10.2994  -16.8966 C   0  0  2  0  0  0  0  0  0  0  0  0
   16.8174  -10.9188  -18.2178 N   0  0  0  0  0  0  0  0  0  0  0  0
   17.8550   -9.1300  -17.0692 C   0  0  0  0  0  0  0  0  0  0  0  0
   18.8950   -9.3056  -17.7514 O   0  0  0  0  0  0  0  0  0  0  0  0
   17.6151   -7.8565  -16.5236 N   0  0  0  0  0  0  0  0  0  0  0  0
   18.5761   -6.8049  -16.7010 C   0  0  1  0  0  0  0  0  0  0  0  0
   17.9241   -5.4823  -17.0464 C   0  0  0  0  0  0  0  0  0  0  0  0
   18.9764   -4.4026  -17.2805 C   0  0  0  0  0  0  0  0  0  0  0  0
   18.3485   -3.0982  -17.5835 C   0  0  0  0  0  0  0  0  0  0  0  0
   17.1216   -2.8928  -17.5859 O   0  0  0  0  0  0  0  0  0  0  0  0
   19.4680   -6.6772  -15.5203 C   0  0  0  0  0  0  0  0  0  0  0  0
   18.9486   -6.7141  -14.3891 O   0  0  0  0  0  0  0  0  0  0  0  0
   19.1963   -2.0417  -17.8835 O   0  0  0  0  0  0  0  0  0  0  0  0
   20.8670   -6.5173  -15.6338 N   0  0  0  0  0  0  0  0  0  0  0  0
   21.7933   -6.3963  -14.5281 C   0  0  1  0  0  0  0  0  0  0  0  0
   23.0859   -7.0994  -14.8036 C   0  0  0  0  0  0  0  0  0  0  0  0
   22.8237   -8.5396  -15.0184 C   0  0  0  0  0  0  0  0  0  0  0  0
   21.5890   -9.1372  -15.0364 C   0  0  0  0  0  0  0  0  0  0  0  0
   21.7942  -10.4483  -15.2601 N   0  0  0  0  0  0  0  0  0  0  0  0
   23.1139  -10.6705  -15.3790 C   0  0  0  0  0  0  0  0  0  0  0  0
   23.7286   -9.5003  -15.2298 N   0  0  0  0  0  0  0  0  0  0  0  0
   21.9500   -5.0130  -14.0368 C   0  0  0  0  0  0  0  0  0  0  0  0
   22.6296   -4.7968  -12.8548 O   0  0  0  0  0  0  0  0  0  0  0  0
   21.4862   -4.0514  -14.6614 O   0  0  0  0  0  0  0  0  0  0  0  0
  2  1  1  0
  3  2  1  0
  3  4  1  6
  5  7  1  0
  5  3  1  0
  6  5  2  0
  8  7  1  0
  8  9  1  1
  9 10  1  0
 10 11  1  0
 11 15  1  0
 12 11  2  0
 13  8  1  0
 14 13  2  0
 16 13  1  0
 17 16  1  0
 17 18  1  6
 19 18  1  0
 20 19  2  0
 21 22  1  0
 21 20  1  0
 22 23  2  0
 23 19  1  0
 24 17  1  0
 25 24  1  0
 26 24  2  0
M  END
$$$$
