SEH.pdb
     RDKit          3D

 26 26  0  0  1  0  0  0  0  0999 V2000
   27.4603  -32.7854   -4.9528 O   0  0  0  0  0  0  0  0  0  0  0  0
   27.0571  -33.1561   -3.6829 C   0  0  0  0  0  0  0  0  0  0  0  0
   27.2347  -34.6469   -3.4400 C   0  0  2  0  0  0  0  0  0  0  0  0
   26.0945  -35.2964   -4.0938 N   0  0  0  0  0  0  0  0  0  0  0  0
   27.0675  -34.8637   -1.9815 C   0  0  0  0  0  0  0  0  0  0  0  0
   25.8945  -35.0169   -1.5590 O   0  0  0  0  0  0  0  0  0  0  0  0
   28.1267  -34.9075   -1.0577 N   0  0  0  0  0  0  0  0  0  0  0  0
   27.8658  -35.2017    0.3229 C   0  0  1  0  0  0  0  0  0  0  0  0
   29.1101  -35.6506    1.0604 C   0  0  0  0  0  0  0  0  0  0  0  0
   29.5066  -37.0646    0.6466 C   0  0  0  0  0  0  0  0  0  0  0  0
   30.7023  -37.5245    1.3857 C   0  0  0  0  0  0  0  0  0  0  0  0
   31.8216  -36.9865    1.3155 O   0  0  0  0  0  0  0  0  0  0  0  0
   27.2119  -34.0585    1.0094 C   0  0  0  0  0  0  0  0  0  0  0  0
   27.7054  -32.9254    0.8564 O   0  0  0  0  0  0  0  0  0  0  0  0
   30.5511  -38.6312    2.2088 O   0  0  0  0  0  0  0  0  0  0  0  0
   26.0645  -34.2092    1.8196 N   0  0  0  0  0  0  0  0  0  0  0  0
   25.4233  -33.1547    2.5762 C   0  0  1  0  0  0  0  0  0  0  0  0
   24.1034  -32.7674    1.9854 C   0  0  0  0  0  0  0  0  0  0  0  0
   24.3305  -31.9930    0.7453 C   0  0  0  0  0  0  0  0  0  0  0  0
   25.3128  -31.0548    0.5528 C   0  0  0  0  0  0  0  0  0  0  0  0
   25.1693  -30.5930   -0.7031 N   0  0  0  0  0  0  0  0  0  0  0  0
   24.1315  -31.2186   -1.2834 C   0  0  0  0  0  0  0  0  0  0  0  0
   23.6303  -32.0679   -0.3907 N   0  0  0  0  0  0  0  0  0  0  0  0
   25.3839  -33.4101    4.0296 C   0  0  0  0  0  0  0  0  0  0  0  0
   25.8659  -34.6112    4.5101 O   0  0  0  0  0  0  0  0  0  0  0  0
   24.9298  -32.5727    4.8185 O   0  0  0  0  0  0  0  0  0  0  0  0
  2  1  1  0
  3  2  1  0
  3  4  1  6
  5  7  1  0
  5  3  1  0
  6  5  2  0
  8  7  1  0
  8  9  1  1
  9 10  1  0
 10 11  1  0
 11 15  1  0
 12 11  2  0
 13  8  1  0
 14 13  2  0
 16 13  1  0
 17 16  1  0
 17 18  1  6
 19 18  1  0
 20 19  2  0
 21 22  1  0
 21 20  1  0
 22 23  2  0
 23 19  1  0
 24 17  1  0
 25 24  1  0
 26 24  2  0
M  END
$$$$
