SEH.pdb
     RDKit          3D

 26 26  0  0  1  0  0  0  0  0999 V2000
   15.4239   -9.3096  -17.6706 O   0  0  0  0  0  0  0  0  0  0  0  0
   16.5658   -8.9844  -16.9614 C   0  0  0  0  0  0  0  0  0  0  0  0
   17.6049  -10.0936  -17.0127 C   0  0  2  0  0  0  0  0  0  0  0  0
   17.1102  -11.1456  -16.1196 N   0  0  0  0  0  0  0  0  0  0  0  0
   18.8374   -9.5519  -16.3884 C   0  0  0  0  0  0  0  0  0  0  0  0
   18.7969   -9.3211  -15.1543 O   0  0  0  0  0  0  0  0  0  0  0  0
   20.0299   -9.2853  -17.0842 N   0  0  0  0  0  0  0  0  0  0  0  0
   21.1508   -8.7093  -16.3967 C   0  0  1  0  0  0  0  0  0  0  0  0
   22.4674   -9.3175  -16.8330 C   0  0  0  0  0  0  0  0  0  0  0  0
   23.6364   -8.6649  -16.1012 C   0  0  0  0  0  0  0  0  0  0  0  0
   24.9176   -9.3183  -16.4466 C   0  0  0  0  0  0  0  0  0  0  0  0
   25.7684   -8.8343  -17.2141 O   0  0  0  0  0  0  0  0  0  0  0  0
   21.1680   -7.2299  -16.5267 C   0  0  0  0  0  0  0  0  0  0  0  0
   21.0929   -6.7430  -17.6704 O   0  0  0  0  0  0  0  0  0  0  0  0
   25.1746  -10.5532  -15.8688 O   0  0  0  0  0  0  0  0  0  0  0  0
   21.2652   -6.3666  -15.4127 N   0  0  0  0  0  0  0  0  0  0  0  0
   21.4010   -4.9267  -15.4725 C   0  0  1  0  0  0  0  0  0  0  0  0
   20.1398   -4.2300  -15.0661 C   0  0  0  0  0  0  0  0  0  0  0  0
   20.3075   -2.7708  -15.2437 C   0  0  0  0  0  0  0  0  0  0  0  0
   20.4634   -1.8519  -14.2370 C   0  0  0  0  0  0  0  0  0  0  0  0
   20.5821   -0.6470  -14.8247 N   0  0  0  0  0  0  0  0  0  0  0  0
   20.5038   -0.8004  -16.1571 C   0  0  0  0  0  0  0  0  0  0  0  0
   20.3367   -2.0979  -16.3982 N   0  0  0  0  0  0  0  0  0  0  0  0
   22.6149   -4.4191  -14.8032 C   0  0  0  0  0  0  0  0  0  0  0  0
   23.2565   -3.3160  -15.3301 O   0  0  0  0  0  0  0  0  0  0  0  0
   23.0638   -4.9609  -13.7860 O   0  0  0  0  0  0  0  0  0  0  0  0
  2  1  1  0
  3  2  1  0
  3  4  1  1
  5  7  1  0
  5  3  1  0
  6  5  2  0
  8  7  1  0
  8  9  1  6
  9 10  1  0
 10 11  1  0
 11 15  1  0
 12 11  2  0
 13  8  1  0
 14 13  2  0
 16 13  1  0
 17 16  1  0
 17 18  1  1
 19 18  1  0
 20 19  2  0
 21 22  1  0
 21 20  1  0
 22 23  2  0
 23 19  1  0
 24 17  1  0
 25 24  1  0
 26 24  2  0
M  END
$$$$
