SEH.pdb
     RDKit          3D

 26 26  0  0  1  0  0  0  0  0999 V2000
   17.3489  -13.2207  -14.3517 O   0  0  0  0  0  0  0  0  0  0  0  0
   17.9519  -11.9865  -14.1902 C   0  0  0  0  0  0  0  0  0  0  0  0
   17.2864  -10.9112  -15.0350 C   0  0  2  0  0  0  0  0  0  0  0  0
   16.3210  -11.6129  -15.8863 N   0  0  0  0  0  0  0  0  0  0  0  0
   18.3330  -10.3700  -15.9373 C   0  0  0  0  0  0  0  0  0  0  0  0
   18.0336  -10.2533  -17.1516 O   0  0  0  0  0  0  0  0  0  0  0  0
   19.6201   -9.9859  -15.5215 N   0  0  0  0  0  0  0  0  0  0  0  0
   20.5164   -9.3530  -16.4472 C   0  0  1  0  0  0  0  0  0  0  0  0
   20.1266   -7.9182  -16.7356 C   0  0  0  0  0  0  0  0  0  0  0  0
   19.9459   -7.1333  -15.4397 C   0  0  0  0  0  0  0  0  0  0  0  0
   19.5225   -5.7421  -15.7097 C   0  0  0  0  0  0  0  0  0  0  0  0
   18.3762   -5.4127  -16.0632 O   0  0  0  0  0  0  0  0  0  0  0  0
   21.9270   -9.4502  -15.9926 C   0  0  0  0  0  0  0  0  0  0  0  0
   22.2076   -9.0125  -14.8610 O   0  0  0  0  0  0  0  0  0  0  0  0
   20.4778   -4.7481  -15.5545 O   0  0  0  0  0  0  0  0  0  0  0  0
   22.9487  -10.0145  -16.7885 N   0  0  0  0  0  0  0  0  0  0  0  0
   24.3385  -10.1462  -16.4060 C   0  0  1  0  0  0  0  0  0  0  0  0
   25.0465  -11.1815  -17.2233 C   0  0  0  0  0  0  0  0  0  0  0  0
   26.4381  -11.3192  -16.7400 C   0  0  0  0  0  0  0  0  0  0  0  0
   26.8456  -12.0748  -15.6700 C   0  0  0  0  0  0  0  0  0  0  0  0
   28.1795  -11.9248  -15.5729 N   0  0  0  0  0  0  0  0  0  0  0  0
   28.5995  -11.1024  -16.5488 C   0  0  0  0  0  0  0  0  0  0  0  0
   27.5294  -10.7413  -17.2516 N   0  0  0  0  0  0  0  0  0  0  0  0
   25.0511   -8.8566  -16.3143 C   0  0  0  0  0  0  0  0  0  0  0  0
   25.9877   -8.6804  -15.3155 O   0  0  0  0  0  0  0  0  0  0  0  0
   24.8252   -7.9380  -17.1111 O   0  0  0  0  0  0  0  0  0  0  0  0
  2  1  1  0
  3  2  1  0
  3  4  1  6
  5  7  1  0
  5  3  1  0
  6  5  2  0
  8  7  1  0
  8  9  1  1
  9 10  1  0
 10 11  1  0
 11 15  1  0
 12 11  2  0
 13  8  1  0
 14 13  2  0
 16 13  1  0
 17 16  1  0
 17 18  1  6
 19 18  1  0
 20 19  2  0
 21 22  1  0
 21 20  1  0
 22 23  2  0
 23 19  1  0
 24 17  1  0
 25 24  1  0
 26 24  2  0
M  END
$$$$
