SEH.pdb
     RDKit          3D

 26 26  0  0  1  0  0  0  0  0999 V2000
   16.3824  -13.5421  -13.6917 O   0  0  0  0  0  0  0  0  0  0  0  0
   17.2428  -12.5866  -14.2010 C   0  0  0  0  0  0  0  0  0  0  0  0
   16.9246  -12.2455  -15.6486 C   0  0  2  0  0  0  0  0  0  0  0  0
   17.2961  -13.4299  -16.4286 N   0  0  0  0  0  0  0  0  0  0  0  0
   17.8599  -11.1644  -16.0469 C   0  0  0  0  0  0  0  0  0  0  0  0
   18.7675  -11.4674  -16.8608 O   0  0  0  0  0  0  0  0  0  0  0  0
   17.7928   -9.8414  -15.5755 N   0  0  0  0  0  0  0  0  0  0  0  0
   18.7120   -8.8546  -16.0676 C   0  0  1  0  0  0  0  0  0  0  0  0
   18.2638   -7.4429  -15.7517 C   0  0  0  0  0  0  0  0  0  0  0  0
   16.9540   -7.1167  -16.4630 C   0  0  0  0  0  0  0  0  0  0  0  0
   16.4978   -5.7461  -16.1453 C   0  0  0  0  0  0  0  0  0  0  0  0
   15.8062   -5.0426  -16.9030 O   0  0  0  0  0  0  0  0  0  0  0  0
   20.0928   -9.1061  -15.5816 C   0  0  0  0  0  0  0  0  0  0  0  0
   20.2569   -9.2992  -14.3624 O   0  0  0  0  0  0  0  0  0  0  0  0
   16.8736   -5.2226  -14.9166 O   0  0  0  0  0  0  0  0  0  0  0  0
   21.2122   -9.1337  -16.4428 N   0  0  0  0  0  0  0  0  0  0  0  0
   22.5883   -9.3113  -16.0300 C   0  0  1  0  0  0  0  0  0  0  0  0
   23.3646  -10.1303  -17.0137 C   0  0  0  0  0  0  0  0  0  0  0  0
   24.7407  -10.3285  -16.5076 C   0  0  0  0  0  0  0  0  0  0  0  0
   25.7898   -9.4600  -16.6722 C   0  0  0  0  0  0  0  0  0  0  0  0
   26.8541  -10.0153  -16.0638 N   0  0  0  0  0  0  0  0  0  0  0  0
   26.4888  -11.1943  -15.5331 C   0  0  0  0  0  0  0  0  0  0  0  0
   25.2001  -11.3725  -15.8107 N   0  0  0  0  0  0  0  0  0  0  0  0
   23.2527   -8.0547  -15.6313 C   0  0  0  0  0  0  0  0  0  0  0  0
   23.9632   -8.0211  -14.4481 O   0  0  0  0  0  0  0  0  0  0  0  0
   23.1843   -7.0391  -16.3339 O   0  0  0  0  0  0  0  0  0  0  0  0
  2  1  1  0
  3  2  1  0
  3  4  1  6
  5  7  1  0
  5  3  1  0
  6  5  2  0
  8  7  1  0
  8  9  1  1
  9 10  1  0
 10 11  1  0
 11 15  1  0
 12 11  2  0
 13  8  1  0
 14 13  2  0
 16 13  1  0
 17 16  1  0
 17 18  1  6
 19 18  1  0
 20 19  2  0
 21 22  1  0
 21 20  1  0
 22 23  2  0
 23 19  1  0
 24 17  1  0
 25 24  1  0
 26 24  2  0
M  END
$$$$
