SEH.pdb
     RDKit          3D

 26 26  0  0  1  0  0  0  0  0999 V2000
   20.8809  -15.1222  -18.7397 O   0  0  0  0  0  0  0  0  0  0  0  0
   20.4970  -13.7960  -18.8195 C   0  0  0  0  0  0  0  0  0  0  0  0
   19.0024  -13.6202  -18.5993 C   0  0  2  0  0  0  0  0  0  0  0  0
   18.3632  -14.0320  -19.8527 N   0  0  0  0  0  0  0  0  0  0  0  0
   18.7611  -12.1628  -18.4586 C   0  0  0  0  0  0  0  0  0  0  0  0
   18.7983  -11.4751  -19.5092 O   0  0  0  0  0  0  0  0  0  0  0  0
   18.4974  -11.5146  -17.2390 N   0  0  0  0  0  0  0  0  0  0  0  0
   18.1644  -10.1183  -17.2233 C   0  0  1  0  0  0  0  0  0  0  0  0
   16.8971   -9.8380  -16.4429 C   0  0  0  0  0  0  0  0  0  0  0  0
   17.0099  -10.3658  -15.0158 C   0  0  0  0  0  0  0  0  0  0  0  0
   15.7290  -10.2265  -14.2895 C   0  0  0  0  0  0  0  0  0  0  0  0
   14.9463  -11.1655  -14.0593 O   0  0  0  0  0  0  0  0  0  0  0  0
   19.2973   -9.2936  -16.7311 C   0  0  0  0  0  0  0  0  0  0  0  0
   20.0436   -9.7846  -15.8635 O   0  0  0  0  0  0  0  0  0  0  0  0
   15.3903   -8.9581  -13.8406 O   0  0  0  0  0  0  0  0  0  0  0  0
   19.5549   -7.9885  -17.2065 N   0  0  0  0  0  0  0  0  0  0  0  0
   20.5784   -7.0961  -16.7048 C   0  0  1  0  0  0  0  0  0  0  0  0
   21.4616   -6.5877  -17.8014 C   0  0  0  0  0  0  0  0  0  0  0  0
   22.5131   -5.7230  -17.2218 C   0  0  0  0  0  0  0  0  0  0  0  0
   23.7906   -6.1124  -16.9084 C   0  0  0  0  0  0  0  0  0  0  0  0
   24.4161   -5.0302  -16.4096 N   0  0  0  0  0  0  0  0  0  0  0  0
   23.5620   -3.9930  -16.4083 C   0  0  0  0  0  0  0  0  0  0  0  0
   22.4076   -4.4287  -16.9052 N   0  0  0  0  0  0  0  0  0  0  0  0
   20.0581   -6.0436  -15.8100 C   0  0  0  0  0  0  0  0  0  0  0  0
   19.0243   -5.2423  -16.2515 O   0  0  0  0  0  0  0  0  0  0  0  0
   20.5291   -5.8685  -14.6798 O   0  0  0  0  0  0  0  0  0  0  0  0
  2  1  1  0
  3  2  1  0
  3  4  1  6
  5  7  1  0
  5  3  1  0
  6  5  2  0
  8  7  1  0
  8  9  1  1
  9 10  1  0
 10 11  1  0
 11 15  1  0
 12 11  2  0
 13  8  1  0
 14 13  2  0
 16 13  1  0
 17 16  1  0
 17 18  1  6
 19 18  1  0
 20 19  2  0
 21 22  1  0
 21 20  1  0
 22 23  2  0
 23 19  1  0
 24 17  1  0
 25 24  1  0
 26 24  2  0
M  END
$$$$
