SEH.pdb
     RDKit          3D

 26 26  0  0  1  0  0  0  0  0999 V2000
   23.1529  -13.8576  -16.9120 O   0  0  0  0  0  0  0  0  0  0  0  0
   22.2578  -12.8073  -16.8216 C   0  0  0  0  0  0  0  0  0  0  0  0
   20.9342  -13.1253  -17.4998 C   0  0  2  0  0  0  0  0  0  0  0  0
   21.1798  -12.9881  -18.9385 N   0  0  0  0  0  0  0  0  0  0  0  0
   19.9922  -12.0417  -17.1248 C   0  0  0  0  0  0  0  0  0  0  0  0
   20.0651  -10.9718  -17.7789 O   0  0  0  0  0  0  0  0  0  0  0  0
   19.0374  -12.1386  -16.0971 N   0  0  0  0  0  0  0  0  0  0  0  0
   18.1563  -11.0378  -15.8273 C   0  0  1  0  0  0  0  0  0  0  0  0
   17.0232  -11.4224  -14.8990 C   0  0  0  0  0  0  0  0  0  0  0  0
   16.1224  -12.4701  -15.5461 C   0  0  0  0  0  0  0  0  0  0  0  0
   15.0509  -12.9009  -14.6220 C   0  0  0  0  0  0  0  0  0  0  0  0
   14.1400  -12.1613  -14.2091 O   0  0  0  0  0  0  0  0  0  0  0  0
   18.8993   -9.8581  -15.3154 C   0  0  0  0  0  0  0  0  0  0  0  0
   19.7807  -10.0503  -14.4569 O   0  0  0  0  0  0  0  0  0  0  0  0
   15.0757  -14.2209  -14.1952 O   0  0  0  0  0  0  0  0  0  0  0  0
   18.6448   -8.5424  -15.7625 N   0  0  0  0  0  0  0  0  0  0  0  0
   19.3167   -7.3489  -15.2940 C   0  0  1  0  0  0  0  0  0  0  0  0
   20.6324   -7.1444  -15.9782 C   0  0  0  0  0  0  0  0  0  0  0  0
   21.3027   -5.9563  -15.4052 C   0  0  0  0  0  0  0  0  0  0  0  0
   21.2835   -5.5816  -14.0857 C   0  0  0  0  0  0  0  0  0  0  0  0
   22.0109   -4.4533  -13.9907 N   0  0  0  0  0  0  0  0  0  0  0  0
   22.4735   -4.1271  -15.2092 C   0  0  0  0  0  0  0  0  0  0  0  0
   22.0350   -5.0503  -16.0606 N   0  0  0  0  0  0  0  0  0  0  0  0
   18.4521   -6.1525  -15.2754 C   0  0  0  0  0  0  0  0  0  0  0  0
   18.6603   -5.1930  -14.3049 O   0  0  0  0  0  0  0  0  0  0  0  0
   17.5512   -5.9961  -16.1082 O   0  0  0  0  0  0  0  0  0  0  0  0
  2  1  1  0
  3  2  1  0
  3  4  1  6
  5  7  1  0
  5  3  1  0
  6  5  2  0
  8  7  1  0
  8  9  1  1
  9 10  1  0
 10 11  1  0
 11 15  1  0
 12 11  2  0
 13  8  1  0
 14 13  2  0
 16 13  1  0
 17 16  1  0
 17 18  1  6
 19 18  1  0
 20 19  2  0
 21 22  1  0
 21 20  1  0
 22 23  2  0
 23 19  1  0
 24 17  1  0
 25 24  1  0
 26 24  2  0
M  END
$$$$
