EIY.pdb
     RDKit          3D

 30 30  0  0  1  0  0  0  0  0999 V2000
   10.6212  -17.5724   17.1900 N   0  0  0  0  0  0  0  0  0  0  0  0
    9.8088  -17.8770   18.3271 C   0  0  1  0  0  0  0  0  0  0  0  0
   10.1351  -19.1875   18.9672 C   0  0  0  0  0  0  0  0  0  0  0  0
    9.7571  -20.3687   18.1466 C   0  0  0  0  0  0  0  0  0  0  0  0
   10.0770  -21.6716   18.7389 C   0  0  0  0  0  0  0  0  0  0  0  0
    9.8886  -22.7630   18.1532 O   0  0  0  0  0  0  0  0  0  0  0  0
   10.0039  -16.8048   19.3465 C   0  0  0  0  0  0  0  0  0  0  0  0
   11.1623  -16.2866   19.5000 O   0  0  0  0  0  0  0  0  0  0  0  0
   10.6231  -21.7330   20.0257 O   0  0  0  0  0  0  0  0  0  0  0  0
    6.6997  -12.6868   19.7538 C   0  0  0  0  0  0  0  0  0  0  0  0
    7.9143  -13.5739   19.7861 C   0  0  0  0  0  0  0  0  0  0  0  0
    8.0016  -14.3368   21.0472 C   0  0  2  0  0  0  0  0  0  0  0  0
    8.0648  -13.3594   22.2269 C   0  0  0  0  0  0  0  0  0  0  0  0
    9.1749  -15.2979   21.1368 C   0  0  2  0  0  0  0  0  0  0  0  0
    8.9136  -16.3706   20.1320 N   0  0  0  0  0  0  0  0  0  0  0  0
    9.2952  -15.9677   22.4489 C   0  0  0  0  0  0  0  0  0  0  0  0
    8.2820  -16.5641   22.9488 O   0  0  0  0  0  0  0  0  0  0  0  0
   10.4664  -14.8966   30.9878 O   0  0  0  0  0  0  0  0  0  0  0  0
   10.4925  -14.8741   29.5904 C   0  0  0  0  0  0  0  0  0  0  0  0
    9.8630  -13.8821   28.8687 C   0  0  0  0  0  0  0  0  0  0  0  0
    9.8912  -13.8636   27.4863 C   0  0  0  0  0  0  0  0  0  0  0  0
   10.5483  -14.8333   26.7567 C   0  0  0  0  0  0  0  0  0  0  0  0
   10.5822  -14.8319   25.2722 C   0  0  0  0  0  0  0  0  0  0  0  0
   10.3803  -16.2096   24.6735 C   0  0  2  0  0  0  0  0  0  0  0  0
   10.4762  -16.0043   23.2139 N   0  0  0  0  0  0  0  0  0  0  0  0
    9.0430  -16.7460   25.0234 C   0  0  0  0  0  0  0  0  0  0  0  0
    7.8710  -16.0719   24.6689 O   0  0  0  0  0  0  0  0  0  0  0  0
   11.1791  -15.8274   27.4887 C   0  0  0  0  0  0  0  0  0  0  0  0
   11.1508  -15.8454   28.8665 C   0  0  0  0  0  0  0  0  0  0  0  0
    8.9084  -17.8220   25.6491 O   0  0  0  0  0  0  0  0  0  0  0  0
  2  1  1  6
  2  3  1  0
  3  4  1  0
  4  5  1  0
  5  9  1  0
  6  5  2  0
  7  2  1  0
  8  7  2  0
 11 10  1  0
 12 13  1  1
 12 11  1  0
 12 14  1  0
 14 15  1  6
 15  7  1  0
 16 14  1  0
 16 17  2  0
 19 18  1  0
 20 19  2  0
 21 20  1  0
 22 21  2  0
 22 28  1  0
 24 23  1  1
 23 22  1  0
 24 25  1  0
 25 16  1  0
 26 24  1  0
 27 26  1  0
 28 29  2  0
 29 19  1  0
 30 26  2  0
M  END
$$$$
