EIY.pdb
     RDKit          3D

 30 30  0  0  1  0  0  0  0  0999 V2000
   10.4947  -18.1700   18.0250 N   0  0  0  0  0  0  0  0  0  0  0  0
    9.5870  -18.2012   19.1299 C   0  0  1  0  0  0  0  0  0  0  0  0
    9.7045  -19.4307   19.9716 C   0  0  0  0  0  0  0  0  0  0  0  0
    9.7641  -20.6930   19.1878 C   0  0  0  0  0  0  0  0  0  0  0  0
   10.5875  -21.7560   19.7734 C   0  0  0  0  0  0  0  0  0  0  0  0
   11.2601  -21.6126   20.8207 O   0  0  0  0  0  0  0  0  0  0  0  0
    9.8617  -17.0196   19.9990 C   0  0  0  0  0  0  0  0  0  0  0  0
   11.0488  -16.5504   20.0653 O   0  0  0  0  0  0  0  0  0  0  0  0
   10.6464  -23.0088   19.1531 O   0  0  0  0  0  0  0  0  0  0  0  0
    7.0729  -12.7146   19.4388 C   0  0  0  0  0  0  0  0  0  0  0  0
    8.1663  -13.6995   19.7520 C   0  0  0  0  0  0  0  0  0  0  0  0
    8.0989  -14.1656   21.1513 C   0  0  2  0  0  0  0  0  0  0  0  0
    8.2282  -12.9621   22.0926 C   0  0  0  0  0  0  0  0  0  0  0  0
    9.1378  -15.2066   21.5326 C   0  0  2  0  0  0  0  0  0  0  0  0
    8.8141  -16.4293   20.7397 N   0  0  0  0  0  0  0  0  0  0  0  0
    9.0891  -15.6007   22.9564 C   0  0  0  0  0  0  0  0  0  0  0  0
    8.0869  -16.2604   23.3952 O   0  0  0  0  0  0  0  0  0  0  0  0
    6.1658  -10.4928   26.6481 O   0  0  0  0  0  0  0  0  0  0  0  0
    6.7094  -11.7490   26.3647 C   0  0  0  0  0  0  0  0  0  0  0  0
    8.0688  -11.9388   26.2342 C   0  0  0  0  0  0  0  0  0  0  0  0
    8.6024  -13.1834   25.9537 C   0  0  0  0  0  0  0  0  0  0  0  0
    7.8063  -14.2986   25.7896 C   0  0  0  0  0  0  0  0  0  0  0  0
    8.3628  -15.6403   25.4812 C   0  0  0  0  0  0  0  0  0  0  0  0
    9.8696  -15.6335   25.3174 C   0  0  2  0  0  0  0  0  0  0  0  0
   10.0930  -15.2997   23.8960 N   0  0  0  0  0  0  0  0  0  0  0  0
   10.4392  -16.9687   25.6204 C   0  0  0  0  0  0  0  0  0  0  0  0
   10.9550  -17.2721   26.8835 O   0  0  0  0  0  0  0  0  0  0  0  0
    6.4407  -14.1005   25.9223 C   0  0  0  0  0  0  0  0  0  0  0  0
    5.9093  -12.8599   26.2019 C   0  0  0  0  0  0  0  0  0  0  0  0
   10.4816  -17.8770   24.7599 O   0  0  0  0  0  0  0  0  0  0  0  0
  2  1  1  6
  2  3  1  0
  3  4  1  0
  4  5  1  0
  5  9  1  0
  6  5  2  0
  7  2  1  0
  8  7  2  0
 11 10  1  0
 12 13  1  1
 12 11  1  0
 12 14  1  0
 14 15  1  6
 15  7  1  0
 16 14  1  0
 16 17  2  0
 19 18  1  0
 20 19  2  0
 21 20  1  0
 22 21  2  0
 22 28  1  0
 24 23  1  6
 23 22  1  0
 24 25  1  0
 25 16  1  0
 26 24  1  0
 27 26  1  0
 28 29  2  0
 29 19  1  0
 30 26  2  0
M  END
$$$$
