EIY.pdb
     RDKit          3D

 30 30  0  0  1  0  0  0  0  0999 V2000
    9.1321  -17.7299   17.6170 N   0  0  0  0  0  0  0  0  0  0  0  0
   10.4607  -17.3902   18.0234 C   0  0  1  0  0  0  0  0  0  0  0  0
   11.3036  -16.8326   16.9223 C   0  0  0  0  0  0  0  0  0  0  0  0
   11.0628  -17.4680   15.5995 C   0  0  0  0  0  0  0  0  0  0  0  0
   11.8958  -16.9654   14.5020 C   0  0  0  0  0  0  0  0  0  0  0  0
   13.0132  -17.4477   14.2047 O   0  0  0  0  0  0  0  0  0  0  0  0
   10.3753  -16.3640   19.1034 C   0  0  0  0  0  0  0  0  0  0  0  0
   11.4504  -15.8980   19.6142 O   0  0  0  0  0  0  0  0  0  0  0  0
   11.4467  -15.8907   13.7267 O   0  0  0  0  0  0  0  0  0  0  0  0
    6.4991  -12.4818   19.2225 C   0  0  0  0  0  0  0  0  0  0  0  0
    7.8166  -13.1955   19.3590 C   0  0  0  0  0  0  0  0  0  0  0  0
    7.8210  -14.1212   20.5091 C   0  0  2  0  0  0  0  0  0  0  0  0
    7.5592  -13.3307   21.7965 C   0  0  0  0  0  0  0  0  0  0  0  0
    9.0947  -14.9323   20.6761 C   0  0  2  0  0  0  0  0  0  0  0  0
    9.1139  -15.9156   19.5531 N   0  0  0  0  0  0  0  0  0  0  0  0
    9.1388  -15.7183   21.9272 C   0  0  0  0  0  0  0  0  0  0  0  0
    8.3835  -16.7403   22.0579 O   0  0  0  0  0  0  0  0  0  0  0  0
   10.0227  -15.0392   30.5283 O   0  0  0  0  0  0  0  0  0  0  0  0
   10.3082  -15.2589   29.1777 C   0  0  0  0  0  0  0  0  0  0  0  0
   10.8939  -16.4281   28.7407 C   0  0  0  0  0  0  0  0  0  0  0  0
   11.1746  -16.6416   27.4035 C   0  0  0  0  0  0  0  0  0  0  0  0
   10.8852  -15.6993   26.4377 C   0  0  0  0  0  0  0  0  0  0  0  0
   11.1866  -15.9099   24.9990 C   0  0  0  0  0  0  0  0  0  0  0  0
    9.9704  -16.3195   24.1925 C   0  0  2  0  0  0  0  0  0  0  0  0
    9.9760  -15.4221   23.0193 N   0  0  0  0  0  0  0  0  0  0  0  0
    8.7270  -16.1224   24.9760 C   0  0  0  0  0  0  0  0  0  0  0  0
    8.1938  -17.1436   25.7674 O   0  0  0  0  0  0  0  0  0  0  0  0
   10.2964  -14.5263   26.8841 C   0  0  0  0  0  0  0  0  0  0  0  0
   10.0166  -14.3142   28.2169 C   0  0  0  0  0  0  0  0  0  0  0  0
    8.1049  -15.0360   24.9612 O   0  0  0  0  0  0  0  0  0  0  0  0
  2  1  1  6
  2  3  1  0
  3  4  1  0
  4  5  1  0
  5  9  1  0
  6  5  2  0
  7  2  1  0
  8  7  2  0
 11 10  1  0
 12 13  1  1
 12 11  1  0
 12 14  1  0
 14 15  1  6
 15  7  1  0
 16 14  1  0
 16 17  2  0
 19 18  1  0
 20 19  2  0
 21 20  1  0
 22 21  2  0
 22 28  1  0
 24 23  1  1
 23 22  1  0
 24 25  1  0
 25 16  1  0
 26 24  1  0
 27 26  1  0
 28 29  2  0
 29 19  1  0
 30 26  2  0
M  END
$$$$
