EIY.pdb
     RDKit          3D

 30 30  0  0  1  0  0  0  0  0999 V2000
   10.2154  -16.3307   14.9659 N   0  0  0  0  0  0  0  0  0  0  0  0
    9.4776  -16.8745   16.0640 C   0  0  1  0  0  0  0  0  0  0  0  0
    9.7405  -18.3256   16.3069 C   0  0  0  0  0  0  0  0  0  0  0  0
    9.1388  -19.2251   15.2869 C   0  0  0  0  0  0  0  0  0  0  0  0
    9.2924  -20.6600   15.5481 C   0  0  0  0  0  0  0  0  0  0  0  0
    8.4803  -21.3306   16.2267 O   0  0  0  0  0  0  0  0  0  0  0  0
    9.8506  -16.1253   17.2995 C   0  0  0  0  0  0  0  0  0  0  0  0
   11.0759  -15.8265   17.5077 O   0  0  0  0  0  0  0  0  0  0  0  0
   10.3945  -21.3459   15.0255 O   0  0  0  0  0  0  0  0  0  0  0  0
    6.7138  -12.2619   19.5107 C   0  0  0  0  0  0  0  0  0  0  0  0
    7.9455  -13.0206   19.0974 C   0  0  0  0  0  0  0  0  0  0  0  0
    8.1667  -14.2089   19.9453 C   0  0  2  0  0  0  0  0  0  0  0  0
    8.4219  -13.7604   21.3891 C   0  0  0  0  0  0  0  0  0  0  0  0
    9.3027  -15.1139   19.4995 C   0  0  2  0  0  0  0  0  0  0  0  0
    8.8532  -15.7524   18.2271 N   0  0  0  0  0  0  0  0  0  0  0  0
    9.5928  -16.2127   20.4446 C   0  0  0  0  0  0  0  0  0  0  0  0
    8.6983  -17.0931   20.6832 O   0  0  0  0  0  0  0  0  0  0  0  0
   13.7294  -21.8894   25.9110 O   0  0  0  0  0  0  0  0  0  0  0  0
   13.3888  -20.9272   24.9560 C   0  0  0  0  0  0  0  0  0  0  0  0
   12.5175  -21.2055   23.9243 C   0  0  0  0  0  0  0  0  0  0  0  0
   12.1831  -20.2505   22.9816 C   0  0  0  0  0  0  0  0  0  0  0  0
   12.7015  -18.9723   23.0221 C   0  0  0  0  0  0  0  0  0  0  0  0
   12.3583  -17.9375   22.0138 C   0  0  0  0  0  0  0  0  0  0  0  0
   10.9371  -17.4282   22.1476 C   0  0  2  0  0  0  0  0  0  0  0  0
   10.8165  -16.3725   21.1216 N   0  0  0  0  0  0  0  0  0  0  0  0
   10.7071  -16.8542   23.4954 C   0  0  0  0  0  0  0  0  0  0  0  0
   10.8554  -15.4861   23.7407 O   0  0  0  0  0  0  0  0  0  0  0  0
   13.5766  -18.6994   24.0620 C   0  0  0  0  0  0  0  0  0  0  0  0
   13.9095  -19.6515   25.0014 C   0  0  0  0  0  0  0  0  0  0  0  0
   10.3715  -17.5690   24.4669 O   0  0  0  0  0  0  0  0  0  0  0  0
  2  1  1  6
  2  3  1  0
  3  4  1  0
  4  5  1  0
  5  9  1  0
  6  5  2  0
  7  2  1  0
  8  7  2  0
 11 10  1  0
 12 13  1  1
 12 11  1  0
 12 14  1  0
 14 15  1  6
 15  7  1  0
 16 14  1  0
 16 17  2  0
 19 18  1  0
 20 19  2  0
 21 20  1  0
 22 21  2  0
 22 28  1  0
 24 23  1  1
 23 22  1  0
 24 25  1  0
 25 16  1  0
 26 24  1  0
 27 26  1  0
 28 29  2  0
 29 19  1  0
 30 26  2  0
M  END
$$$$
