EIY.pdb
     RDKit          3D

 30 30  0  0  1  0  0  0  0  0999 V2000
    9.1902  -18.3853   17.9134 N   0  0  0  0  0  0  0  0  0  0  0  0
    9.5107  -18.5814   19.2935 C   0  0  1  0  0  0  0  0  0  0  0  0
   10.6558  -19.5149   19.5195 C   0  0  0  0  0  0  0  0  0  0  0  0
   10.5488  -20.7920   18.7652 C   0  0  0  0  0  0  0  0  0  0  0  0
   11.6020  -21.7740   19.0431 C   0  0  0  0  0  0  0  0  0  0  0  0
   12.7312  -21.7496   18.5010 O   0  0  0  0  0  0  0  0  0  0  0  0
    9.8695  -17.2597   19.8864 C   0  0  0  0  0  0  0  0  0  0  0  0
   10.9692  -16.6993   19.5540 O   0  0  0  0  0  0  0  0  0  0  0  0
   11.3640  -22.8059   19.9577 O   0  0  0  0  0  0  0  0  0  0  0  0
    6.2046  -13.5639   19.4577 C   0  0  0  0  0  0  0  0  0  0  0  0
    7.5783  -14.1685   19.5622 C   0  0  0  0  0  0  0  0  0  0  0  0
    7.9334  -14.4819   20.9606 C   0  0  2  0  0  0  0  0  0  0  0  0
    7.9580  -13.1859   21.7795 C   0  0  0  0  0  0  0  0  0  0  0  0
    9.2564  -15.2068   21.1406 C   0  0  2  0  0  0  0  0  0  0  0  0
    8.9968  -16.6385   20.8067 N   0  0  0  0  0  0  0  0  0  0  0  0
    9.7637  -15.1815   22.5287 C   0  0  0  0  0  0  0  0  0  0  0  0
   10.0939  -14.0677   23.0602 O   0  0  0  0  0  0  0  0  0  0  0  0
   10.1692  -15.0760   31.0898 O   0  0  0  0  0  0  0  0  0  0  0  0
    9.9508  -15.1780   29.7130 C   0  0  0  0  0  0  0  0  0  0  0  0
    9.9605  -16.3950   29.0649 C   0  0  0  0  0  0  0  0  0  0  0  0
    9.7440  -16.4915   27.7025 C   0  0  0  0  0  0  0  0  0  0  0  0
    9.5075  -15.3793   26.9206 C   0  0  0  0  0  0  0  0  0  0  0  0
    9.2802  -15.4650   25.4556 C   0  0  0  0  0  0  0  0  0  0  0  0
   10.4068  -16.1638   24.7210 C   0  0  2  0  0  0  0  0  0  0  0  0
    9.9134  -16.3235   23.3380 N   0  0  0  0  0  0  0  0  0  0  0  0
   10.6814  -17.4930   25.3181 C   0  0  0  0  0  0  0  0  0  0  0  0
   11.6768  -17.6673   26.2838 O   0  0  0  0  0  0  0  0  0  0  0  0
    9.4990  -14.1592   27.5786 C   0  0  0  0  0  0  0  0  0  0  0  0
    9.7148  -14.0635   28.9365 C   0  0  0  0  0  0  0  0  0  0  0  0
   10.0349  -18.5114   24.9832 O   0  0  0  0  0  0  0  0  0  0  0  0
  2  1  1  6
  2  3  1  0
  3  4  1  0
  4  5  1  0
  5  9  1  0
  6  5  2  0
  7  2  1  0
  8  7  2  0
 11 10  1  0
 12 13  1  1
 12 11  1  0
 12 14  1  0
 14 15  1  1
 15  7  1  0
 16 14  1  0
 16 17  2  0
 19 18  1  0
 20 19  2  0
 21 20  1  0
 22 21  2  0
 22 28  1  0
 24 23  1  1
 23 22  1  0
 24 25  1  0
 25 16  1  0
 26 24  1  0
 27 26  1  0
 28 29  2  0
 29 19  1  0
 30 26  2  0
M  END
$$$$
