EIY.pdb
     RDKit          3D

 30 30  0  0  1  0  0  0  0  0999 V2000
   11.0596  -17.9984   17.2522 N   0  0  0  0  0  0  0  0  0  0  0  0
    9.9119  -18.0261   18.1054 C   0  0  1  0  0  0  0  0  0  0  0  0
    9.7114  -19.3323   18.8035 C   0  0  0  0  0  0  0  0  0  0  0  0
   10.9778  -20.0382   19.1345 C   0  0  0  0  0  0  0  0  0  0  0  0
   10.8163  -21.3526   19.7646 C   0  0  0  0  0  0  0  0  0  0  0  0
   11.7373  -22.1979   19.8478 O   0  0  0  0  0  0  0  0  0  0  0  0
   10.0720  -16.9676   19.1450 C   0  0  0  0  0  0  0  0  0  0  0  0
   11.2444  -16.5658   19.4578 O   0  0  0  0  0  0  0  0  0  0  0  0
    9.5795  -21.7122   20.3114 O   0  0  0  0  0  0  0  0  0  0  0  0
    7.3714  -12.5970   18.5321 C   0  0  0  0  0  0  0  0  0  0  0  0
    8.4360  -13.5832   18.9290 C   0  0  0  0  0  0  0  0  0  0  0  0
    8.1590  -14.1863   20.2479 C   0  0  2  0  0  0  0  0  0  0  0  0
    8.1142  -13.0819   21.3105 C   0  0  0  0  0  0  0  0  0  0  0  0
    9.1460  -15.2551   20.6856 C   0  0  2  0  0  0  0  0  0  0  0  0
    8.9333  -16.4183   19.7744 N   0  0  0  0  0  0  0  0  0  0  0  0
    8.9175  -15.7476   22.0604 C   0  0  0  0  0  0  0  0  0  0  0  0
    7.8092  -16.3117   22.3531 O   0  0  0  0  0  0  0  0  0  0  0  0
    6.4266  -11.4335   28.7995 O   0  0  0  0  0  0  0  0  0  0  0  0
    6.9187  -12.0783   27.6611 C   0  0  0  0  0  0  0  0  0  0  0  0
    8.1848  -12.6232   27.6260 C   0  0  0  0  0  0  0  0  0  0  0  0
    8.6678  -13.2602   26.4976 C   0  0  0  0  0  0  0  0  0  0  0  0
    7.9118  -13.3845   25.3498 C   0  0  0  0  0  0  0  0  0  0  0  0
    8.4180  -14.0592   24.1277 C   0  0  0  0  0  0  0  0  0  0  0  0
    9.4056  -15.1687   24.4292 C   0  0  2  0  0  0  0  0  0  0  0  0
    9.8554  -15.6436   23.1049 N   0  0  0  0  0  0  0  0  0  0  0  0
    8.7483  -16.2737   25.1679 C   0  0  0  0  0  0  0  0  0  0  0  0
    8.5842  -17.5380   24.5950 O   0  0  0  0  0  0  0  0  0  0  0  0
    6.6400  -12.8345   25.3922 C   0  0  0  0  0  0  0  0  0  0  0  0
    6.1590  -12.1998   26.5171 C   0  0  0  0  0  0  0  0  0  0  0  0
    8.3142  -16.1206   26.3322 O   0  0  0  0  0  0  0  0  0  0  0  0
  2  1  1  1
  2  3  1  0
  3  4  1  0
  4  5  1  0
  5  9  1  0
  6  5  2  0
  7  2  1  0
  8  7  2  0
 11 10  1  0
 12 13  1  1
 12 11  1  0
 12 14  1  0
 14 15  1  6
 15  7  1  0
 16 14  1  0
 16 17  2  0
 19 18  1  0
 20 19  2  0
 21 20  1  0
 22 21  2  0
 22 28  1  0
 24 23  1  6
 23 22  1  0
 24 25  1  0
 25 16  1  0
 26 24  1  0
 27 26  1  0
 28 29  2  0
 29 19  1  0
 30 26  2  0
M  END
$$$$
