EIY.pdb
     RDKit          3D

 30 30  0  0  1  0  0  0  0  0999 V2000
    9.7719  -17.9237   17.3324 N   0  0  0  0  0  0  0  0  0  0  0  0
    9.4077  -18.1938   18.6889 C   0  0  1  0  0  0  0  0  0  0  0  0
   10.0832  -19.3954   19.2664 C   0  0  0  0  0  0  0  0  0  0  0  0
   10.3885  -20.4528   18.2662 C   0  0  0  0  0  0  0  0  0  0  0  0
   11.7355  -21.0262   18.3520 C   0  0  0  0  0  0  0  0  0  0  0  0
   12.6188  -20.6040   19.1338 O   0  0  0  0  0  0  0  0  0  0  0  0
    9.7790  -17.0118   19.5208 C   0  0  0  0  0  0  0  0  0  0  0  0
   10.9270  -16.4709   19.3675 O   0  0  0  0  0  0  0  0  0  0  0  0
   12.0842  -22.1034   17.5297 O   0  0  0  0  0  0  0  0  0  0  0  0
    6.2864  -13.1054   20.0480 C   0  0  0  0  0  0  0  0  0  0  0  0
    7.5968  -13.8374   19.9454 C   0  0  0  0  0  0  0  0  0  0  0  0
    8.0230  -14.3822   21.2498 C   0  0  2  0  0  0  0  0  0  0  0  0
    8.2682  -13.2256   22.2260 C   0  0  0  0  0  0  0  0  0  0  0  0
    9.2600  -15.2632   21.2048 C   0  0  2  0  0  0  0  0  0  0  0  0
    8.8651  -16.5000   20.4680 N   0  0  0  0  0  0  0  0  0  0  0  0
    9.7293  -15.6966   22.5378 C   0  0  0  0  0  0  0  0  0  0  0  0
    8.9798  -16.4356   23.2618 O   0  0  0  0  0  0  0  0  0  0  0  0
   10.1283  -15.0533   30.8960 O   0  0  0  0  0  0  0  0  0  0  0  0
   10.0965  -14.9973   29.4997 C   0  0  0  0  0  0  0  0  0  0  0  0
    9.5807  -16.0286   28.7437 C   0  0  0  0  0  0  0  0  0  0  0  0
    9.5510  -15.9692   27.3625 C   0  0  0  0  0  0  0  0  0  0  0  0
   10.0345  -14.8788   26.6684 C   0  0  0  0  0  0  0  0  0  0  0  0
   10.0165  -14.8024   25.1855 C   0  0  0  0  0  0  0  0  0  0  0  0
   11.1909  -15.5116   24.5413 C   0  0  2  0  0  0  0  0  0  0  0  0
   10.9778  -15.3511   23.0886 N   0  0  0  0  0  0  0  0  0  0  0  0
   11.1975  -16.9512   24.8970 C   0  0  0  0  0  0  0  0  0  0  0  0
   10.9803  -17.9413   23.9347 O   0  0  0  0  0  0  0  0  0  0  0  0
   10.5514  -13.8457   27.4347 C   0  0  0  0  0  0  0  0  0  0  0  0
   10.5806  -13.9053   28.8114 C   0  0  0  0  0  0  0  0  0  0  0  0
   11.3973  -17.3384   26.0707 O   0  0  0  0  0  0  0  0  0  0  0  0
  2  1  1  6
  2  3  1  0
  3  4  1  0
  4  5  1  0
  5  9  1  0
  6  5  2  0
  7  2  1  0
  8  7  2  0
 11 10  1  0
 12 13  1  1
 12 11  1  0
 12 14  1  0
 14 15  1  6
 15  7  1  0
 16 14  1  0
 16 17  2  0
 19 18  1  0
 20 19  2  0
 21 20  1  0
 22 21  2  0
 22 28  1  0
 24 23  1  1
 23 22  1  0
 24 25  1  0
 25 16  1  0
 26 24  1  0
 27 26  1  0
 28 29  2  0
 29 19  1  0
 30 26  2  0
M  END
$$$$
