VYQ.pdb
     RDKit          3D

 29 29  0  0  1  0  0  0  0  0999 V2000
    7.5637  -20.4185   22.8584 C   0  0  0  0  0  0  0  0  0  0  0  0
    6.6456  -19.8034   21.8572 C   0  0  2  0  0  0  0  0  0  0  0  0
    5.8998  -20.8248   21.0240 C   0  0  0  0  0  0  0  0  0  0  0  0
    7.3130  -18.7768   20.9752 C   0  0  2  0  0  0  0  0  0  0  0  0
    8.3000  -19.4353   20.1617 N   0  0  0  0  0  0  0  0  0  0  0  0
    7.9557  -17.7185   21.8348 C   0  0  0  0  0  0  0  0  0  0  0  0
    9.1517  -17.8123   22.1919 O   0  0  0  0  0  0  0  0  0  0  0  0
    8.1838  -12.5396   17.6980 O   0  0  0  0  0  0  0  0  0  0  0  0
    7.9690  -12.9736   19.0109 C   0  0  0  0  0  0  0  0  0  0  0  0
    6.7691  -13.5295   19.4168 C   0  0  0  0  0  0  0  0  0  0  0  0
    6.6027  -13.9423   20.7176 C   0  0  0  0  0  0  0  0  0  0  0  0
    7.6179  -13.8203   21.6650 C   0  0  0  0  0  0  0  0  0  0  0  0
    7.3185  -14.2762   23.0357 C   0  0  0  0  0  0  0  0  0  0  0  0
    7.8195  -15.6709   23.2260 C   0  0  2  0  0  0  0  0  0  0  0  0
    7.2277  -16.5919   22.2615 N   0  0  0  0  0  0  0  0  0  0  0  0
    7.6428  -16.1847   24.6113 C   0  0  0  0  0  0  0  0  0  0  0  0
    6.5163  -16.3188   25.1400 O   0  0  0  0  0  0  0  0  0  0  0  0
    8.8142  -13.2663   21.2616 C   0  0  0  0  0  0  0  0  0  0  0  0
    8.9641  -12.8583   19.9556 C   0  0  0  0  0  0  0  0  0  0  0  0
    5.8539  -20.7308   26.5470 N   0  0  0  0  0  0  0  0  0  0  0  0
    7.1115  -20.8164   27.1969 C   0  0  0  0  0  0  0  0  0  0  0  0
    7.5962  -21.9210   27.4986 O   0  0  0  0  0  0  0  0  0  0  0  0
    7.8406  -19.5615   27.5111 C   0  0  0  0  0  0  0  0  0  0  0  0
    7.8859  -18.6545   26.2878 C   0  0  0  0  0  0  0  0  0  0  0  0
    8.5984  -17.3576   26.6051 C   0  0  2  0  0  0  0  0  0  0  0  0
    8.7586  -16.5535   25.4129 N   0  0  0  0  0  0  0  0  0  0  0  0
    9.9092  -17.5908   27.2456 C   0  0  0  0  0  0  0  0  0  0  0  0
   11.0998  -17.2515   26.6352 O   0  0  0  0  0  0  0  0  0  0  0  0
    9.9419  -18.1151   28.3830 O   0  0  0  0  0  0  0  0  0  0  0  0
  2  1  1  6
  3  2  1  0
  4  2  1  0
  4  5  1  1
  6  4  1  0
  6  7  2  0
  8  9  1  0
  9 19  2  0
  9 10  1  0
 10 11  2  0
 11 12  1  0
 12 13  1  0
 14 13  1  1
 14 15  1  0
 15  6  1  0
 16 14  1  0
 17 16  2  0
 18 12  2  0
 19 18  1  0
 20 21  1  0
 21 23  1  0
 22 21  2  0
 23 24  1  0
 25 24  1  6
 25 26  1  0
 25 27  1  0
 26 16  1  0
 27 28  1  0
 29 27  2  0
M  END
$$$$
