VYQ.pdb
     RDKit          3D

 29 29  0  0  1  0  0  0  0  0999 V2000
    6.9142  -14.5802   17.7854 C   0  0  0  0  0  0  0  0  0  0  0  0
    7.5174  -14.6902   19.1446 C   0  0  2  0  0  0  0  0  0  0  0  0
    6.9009  -15.7894   19.9845 C   0  0  0  0  0  0  0  0  0  0  0  0
    7.5413  -13.3858   19.9031 C   0  0  2  0  0  0  0  0  0  0  0  0
    8.2947  -12.4225   19.1455 N   0  0  0  0  0  0  0  0  0  0  0  0
    8.1688  -13.6034   21.2561 C   0  0  0  0  0  0  0  0  0  0  0  0
    9.3922  -13.8417   21.3720 O   0  0  0  0  0  0  0  0  0  0  0  0
    9.6739  -14.4956   29.8324 O   0  0  0  0  0  0  0  0  0  0  0  0
    9.0664  -14.2120   28.6041 C   0  0  0  0  0  0  0  0  0  0  0  0
    9.1320  -12.9594   28.0208 C   0  0  0  0  0  0  0  0  0  0  0  0
    8.5198  -12.7261   26.8121 C   0  0  0  0  0  0  0  0  0  0  0  0
    7.8199  -13.7239   26.1359 C   0  0  0  0  0  0  0  0  0  0  0  0
    7.1843  -13.3528   24.8573 C   0  0  0  0  0  0  0  0  0  0  0  0
    8.0094  -13.8548   23.7174 C   0  0  2  0  0  0  0  0  0  0  0  0
    7.3955  -13.5448   22.4306 N   0  0  0  0  0  0  0  0  0  0  0  0
    8.3284  -15.3056   23.8050 C   0  0  0  0  0  0  0  0  0  0  0  0
    7.4891  -16.1956   23.5401 O   0  0  0  0  0  0  0  0  0  0  0  0
    7.7538  -14.9727   26.7163 C   0  0  0  0  0  0  0  0  0  0  0  0
    8.3724  -15.1893   27.9267 C   0  0  0  0  0  0  0  0  0  0  0  0
   10.8336  -18.5973   20.3611 N   0  0  0  0  0  0  0  0  0  0  0  0
   11.6742  -17.5658   20.8519 C   0  0  0  0  0  0  0  0  0  0  0  0
   12.6077  -17.1243   20.1593 O   0  0  0  0  0  0  0  0  0  0  0  0
   11.4193  -17.0214   22.2097 C   0  0  0  0  0  0  0  0  0  0  0  0
   10.1968  -17.6886   22.8272 C   0  0  0  0  0  0  0  0  0  0  0  0
    9.9476  -17.1671   24.2259 C   0  0  2  0  0  0  0  0  0  0  0  0
    9.6182  -15.7584   24.1988 N   0  0  0  0  0  0  0  0  0  0  0  0
   11.1012  -17.4063   25.1174 C   0  0  0  0  0  0  0  0  0  0  0  0
   11.7517  -16.3811   25.7740 O   0  0  0  0  0  0  0  0  0  0  0  0
   11.5038  -18.5810   25.2836 O   0  0  0  0  0  0  0  0  0  0  0  0
  2  1  1  6
  3  2  1  0
  4  2  1  0
  4  5  1  6
  6  4  1  0
  6  7  2  0
  8  9  1  0
  9 19  2  0
  9 10  1  0
 10 11  2  0
 11 12  1  0
 12 13  1  0
 14 13  1  1
 14 15  1  0
 15  6  1  0
 16 14  1  0
 17 16  2  0
 18 12  2  0
 19 18  1  0
 20 21  1  0
 21 23  1  0
 22 21  2  0
 23 24  1  0
 25 24  1  6
 25 26  1  0
 25 27  1  0
 26 16  1  0
 27 28  1  0
 29 27  2  0
M  END
$$$$
