VYQ.pdb
     RDKit          3D

 29 29  0  0  1  0  0  0  0  0999 V2000
    6.6977  -13.3766   19.4794 C   0  0  0  0  0  0  0  0  0  0  0  0
    7.6116  -13.4053   20.6574 C   0  0  2  0  0  0  0  0  0  0  0  0
    8.6943  -12.3479   20.5993 C   0  0  0  0  0  0  0  0  0  0  0  0
    8.2053  -14.7659   20.9292 C   0  0  2  0  0  0  0  0  0  0  0  0
    7.1963  -15.7659   20.7025 N   0  0  0  0  0  0  0  0  0  0  0  0
    8.6976  -14.8233   22.3526 C   0  0  0  0  0  0  0  0  0  0  0  0
    9.6637  -14.1240   22.7325 O   0  0  0  0  0  0  0  0  0  0  0  0
    6.3697  -10.1066   26.5602 O   0  0  0  0  0  0  0  0  0  0  0  0
    6.6417  -11.4624   26.3454 C   0  0  0  0  0  0  0  0  0  0  0  0
    7.8214  -12.0528   26.7618 C   0  0  0  0  0  0  0  0  0  0  0  0
    8.0461  -13.3890   26.5293 C   0  0  0  0  0  0  0  0  0  0  0  0
    7.1114  -14.1906   25.8760 C   0  0  0  0  0  0  0  0  0  0  0  0
    7.4700  -15.6055   25.6617 C   0  0  0  0  0  0  0  0  0  0  0  0
    8.5819  -15.7010   24.6684 C   0  0  2  0  0  0  0  0  0  0  0  0
    8.0837  -15.6668   23.2974 N   0  0  0  0  0  0  0  0  0  0  0  0
    9.4638  -16.8823   24.8715 C   0  0  0  0  0  0  0  0  0  0  0  0
    9.0169  -18.0484   24.9554 O   0  0  0  0  0  0  0  0  0  0  0  0
    5.9354  -13.6033   25.4605 C   0  0  0  0  0  0  0  0  0  0  0  0
    5.7264  -12.2642   25.7013 C   0  0  0  0  0  0  0  0  0  0  0  0
   15.1825  -15.4422   23.3679 N   0  0  0  0  0  0  0  0  0  0  0  0
   14.4305  -16.5298   22.8548 C   0  0  0  0  0  0  0  0  0  0  0  0
   14.9058  -17.2724   21.9779 O   0  0  0  0  0  0  0  0  0  0  0  0
   13.0635  -16.7664   23.3840 C   0  0  0  0  0  0  0  0  0  0  0  0
   13.1235  -17.6219   24.6432 C   0  0  0  0  0  0  0  0  0  0  0  0
   11.7337  -17.8913   25.1781 C   0  0  2  0  0  0  0  0  0  0  0  0
   10.8753  -16.7431   24.9817 N   0  0  0  0  0  0  0  0  0  0  0  0
   11.7565  -18.2757   26.6044 C   0  0  0  0  0  0  0  0  0  0  0  0
   11.1112  -17.5398   27.5777 O   0  0  0  0  0  0  0  0  0  0  0  0
   12.3837  -19.3061   26.9432 O   0  0  0  0  0  0  0  0  0  0  0  0
  2  1  1  6
  3  2  1  0
  4  2  1  0
  4  5  1  1
  6  4  1  0
  6  7  2  0
  8  9  1  0
  9 19  2  0
  9 10  1  0
 10 11  2  0
 11 12  1  0
 12 13  1  0
 14 13  1  1
 14 15  1  0
 15  6  1  0
 16 14  1  0
 17 16  2  0
 18 12  2  0
 19 18  1  0
 20 21  1  0
 21 23  1  0
 22 21  2  0
 23 24  1  0
 25 24  1  1
 25 26  1  0
 25 27  1  0
 26 16  1  0
 27 28  1  0
 29 27  2  0
M  END
$$$$
