VYQ.pdb
     RDKit          3D

 29 29  0  0  1  0  0  0  0  0999 V2000
    8.2977  -18.0168   20.4734 C   0  0  0  0  0  0  0  0  0  0  0  0
    7.3940  -16.8359   20.3611 C   0  0  2  0  0  0  0  0  0  0  0  0
    6.4861  -16.8915   19.1503 C   0  0  0  0  0  0  0  0  0  0  0  0
    8.1167  -15.5128   20.4287 C   0  0  2  0  0  0  0  0  0  0  0  0
    9.0524  -15.4391   19.3386 N   0  0  0  0  0  0  0  0  0  0  0  0
    8.8329  -15.3991   21.7501 C   0  0  0  0  0  0  0  0  0  0  0  0
   10.0373  -15.7204   21.8637 O   0  0  0  0  0  0  0  0  0  0  0  0
   10.6747  -14.7771   30.2465 O   0  0  0  0  0  0  0  0  0  0  0  0
   10.0180  -14.6510   29.0172 C   0  0  0  0  0  0  0  0  0  0  0  0
    9.0710  -15.5643   28.5900 C   0  0  0  0  0  0  0  0  0  0  0  0
    8.4508  -15.4004   27.3740 C   0  0  0  0  0  0  0  0  0  0  0  0
    8.7449  -14.3263   26.5357 C   0  0  0  0  0  0  0  0  0  0  0  0
    8.0336  -14.2649   25.2447 C   0  0  0  0  0  0  0  0  0  0  0  0
    8.8571  -14.9164   24.1817 C   0  0  2  0  0  0  0  0  0  0  0  0
    8.1665  -14.9274   22.8965 N   0  0  0  0  0  0  0  0  0  0  0  0
    9.3148  -16.2869   24.5375 C   0  0  0  0  0  0  0  0  0  0  0  0
    8.5344  -17.2640   24.5894 O   0  0  0  0  0  0  0  0  0  0  0  0
    9.6886  -13.4154   26.9604 C   0  0  0  0  0  0  0  0  0  0  0  0
   10.3000  -13.5944   28.1806 C   0  0  0  0  0  0  0  0  0  0  0  0
   13.5275  -19.4442   22.0571 N   0  0  0  0  0  0  0  0  0  0  0  0
   13.4474  -20.2384   23.2294 C   0  0  0  0  0  0  0  0  0  0  0  0
   13.9215  -21.3877   23.2510 O   0  0  0  0  0  0  0  0  0  0  0  0
   12.7864  -19.6722   24.4325 C   0  0  0  0  0  0  0  0  0  0  0  0
   12.2652  -18.2707   24.1406 C   0  0  0  0  0  0  0  0  0  0  0  0
   11.1429  -17.9054   25.0878 C   0  0  2  0  0  0  0  0  0  0  0  0
   10.6783  -16.5577   24.8397 N   0  0  0  0  0  0  0  0  0  0  0  0
   11.5433  -18.0569   26.5018 C   0  0  0  0  0  0  0  0  0  0  0  0
   11.7739  -19.2910   27.0755 O   0  0  0  0  0  0  0  0  0  0  0  0
   11.6785  -17.0293   27.2057 O   0  0  0  0  0  0  0  0  0  0  0  0
  2  1  1  6
  3  2  1  0
  4  2  1  0
  4  5  1  6
  6  4  1  0
  6  7  2  0
  8  9  1  0
  9 19  2  0
  9 10  1  0
 10 11  2  0
 11 12  1  0
 12 13  1  0
 14 13  1  1
 14 15  1  0
 15  6  1  0
 16 14  1  0
 17 16  2  0
 18 12  2  0
 19 18  1  0
 20 21  1  0
 21 23  1  0
 22 21  2  0
 23 24  1  0
 25 24  1  6
 25 26  1  0
 25 27  1  0
 26 16  1  0
 27 28  1  0
 29 27  2  0
M  END
$$$$
