VYQ.pdb
     RDKit          3D

 29 29  0  0  1  0  0  0  0  0999 V2000
    8.6406  -18.5992   20.5331 C   0  0  0  0  0  0  0  0  0  0  0  0
    7.7474  -17.4312   20.2849 C   0  0  2  0  0  0  0  0  0  0  0  0
    6.9247  -17.5664   19.0206 C   0  0  0  0  0  0  0  0  0  0  0  0
    8.4643  -16.1037   20.3185 C   0  0  2  0  0  0  0  0  0  0  0  0
    9.4689  -16.0929   19.2889 N   0  0  0  0  0  0  0  0  0  0  0  0
    9.0931  -15.9071   21.6741 C   0  0  0  0  0  0  0  0  0  0  0  0
   10.2984  -16.1787   21.8746 O   0  0  0  0  0  0  0  0  0  0  0  0
   10.3231  -14.5578   30.2511 O   0  0  0  0  0  0  0  0  0  0  0  0
    9.7896  -14.5417   28.9575 C   0  0  0  0  0  0  0  0  0  0  0  0
   10.0165  -13.4972   28.0793 C   0  0  0  0  0  0  0  0  0  0  0  0
    9.4720  -13.5238   26.8172 C   0  0  0  0  0  0  0  0  0  0  0  0
    8.6827  -14.5851   26.3775 C   0  0  0  0  0  0  0  0  0  0  0  0
    8.1329  -14.4951   25.0114 C   0  0  0  0  0  0  0  0  0  0  0  0
    8.9435  -15.3396   24.0829 C   0  0  2  0  0  0  0  0  0  0  0  0
    8.3414  -15.4114   22.7559 N   0  0  0  0  0  0  0  0  0  0  0  0
    9.2166  -16.7064   24.6042 C   0  0  0  0  0  0  0  0  0  0  0  0
    8.3390  -17.5979   24.6456 O   0  0  0  0  0  0  0  0  0  0  0  0
    8.4558  -15.6266   27.2519 C   0  0  0  0  0  0  0  0  0  0  0  0
    9.0085  -15.5842   28.5118 C   0  0  0  0  0  0  0  0  0  0  0  0
   13.1257  -19.3907   21.5665 N   0  0  0  0  0  0  0  0  0  0  0  0
   12.8708  -19.9020   22.8645 C   0  0  0  0  0  0  0  0  0  0  0  0
   12.9592  -21.1207   23.0953 O   0  0  0  0  0  0  0  0  0  0  0  0
   12.4959  -18.9549   23.9449 C   0  0  0  0  0  0  0  0  0  0  0  0
   11.1649  -19.3594   24.5660 C   0  0  0  0  0  0  0  0  0  0  0  0
   10.7557  -18.3822   25.6468 C   0  0  2  0  0  0  0  0  0  0  0  0
   10.5038  -17.0719   25.0872 N   0  0  0  0  0  0  0  0  0  0  0  0
   11.7652  -18.2946   26.7219 C   0  0  0  0  0  0  0  0  0  0  0  0
   12.1382  -19.3894   27.4753 O   0  0  0  0  0  0  0  0  0  0  0  0
   12.3020  -17.1876   26.9588 O   0  0  0  0  0  0  0  0  0  0  0  0
  2  1  1  6
  3  2  1  0
  4  2  1  0
  4  5  1  6
  6  4  1  0
  6  7  2  0
  8  9  1  0
  9 19  2  0
  9 10  1  0
 10 11  2  0
 11 12  1  0
 12 13  1  0
 14 13  1  1
 14 15  1  0
 15  6  1  0
 16 14  1  0
 17 16  2  0
 18 12  2  0
 19 18  1  0
 20 21  1  0
 21 23  1  0
 22 21  2  0
 23 24  1  0
 25 24  1  6
 25 26  1  0
 25 27  1  0
 26 16  1  0
 27 28  1  0
 29 27  2  0
M  END
$$$$
