VYQ.pdb
     RDKit          3D

 29 29  0  0  1  0  0  0  0  0999 V2000
    7.2271  -12.4420   21.0315 C   0  0  0  0  0  0  0  0  0  0  0  0
    7.8516  -13.2945   19.9796 C   0  0  2  0  0  0  0  0  0  0  0  0
    7.1080  -13.2568   18.6607 C   0  0  0  0  0  0  0  0  0  0  0  0
    8.0919  -14.7182   20.4188 C   0  0  2  0  0  0  0  0  0  0  0  0
    6.8264  -15.3969   20.5047 N   0  0  0  0  0  0  0  0  0  0  0  0
    8.7861  -14.7203   21.7566 C   0  0  0  0  0  0  0  0  0  0  0  0
    9.9813  -14.3650   21.8668 O   0  0  0  0  0  0  0  0  0  0  0  0
   10.8657  -14.9254   30.2154 O   0  0  0  0  0  0  0  0  0  0  0  0
   10.1540  -14.8914   29.0110 C   0  0  0  0  0  0  0  0  0  0  0  0
    9.9740  -13.7224   28.2936 C   0  0  0  0  0  0  0  0  0  0  0  0
    9.2672  -13.7361   27.1144 C   0  0  0  0  0  0  0  0  0  0  0  0
    8.7124  -14.9074   26.6015 C   0  0  0  0  0  0  0  0  0  0  0  0
    7.9555  -14.7980   25.3399 C   0  0  0  0  0  0  0  0  0  0  0  0
    8.8276  -15.1877   24.1910 C   0  0  2  0  0  0  0  0  0  0  0  0
    8.1088  -15.1226   22.9230 N   0  0  0  0  0  0  0  0  0  0  0  0
    9.4718  -16.5190   24.3554 C   0  0  0  0  0  0  0  0  0  0  0  0
    8.8257  -17.5897   24.3020 O   0  0  0  0  0  0  0  0  0  0  0  0
    8.8911  -16.0730   27.3156 C   0  0  0  0  0  0  0  0  0  0  0  0
    9.6013  -16.0418   28.4943 C   0  0  0  0  0  0  0  0  0  0  0  0
   14.4958  -18.5817   21.9151 N   0  0  0  0  0  0  0  0  0  0  0  0
   13.1707  -18.4762   21.4209 C   0  0  0  0  0  0  0  0  0  0  0  0
   12.9373  -18.5765   20.2037 O   0  0  0  0  0  0  0  0  0  0  0  0
   12.0650  -18.2434   22.3843 C   0  0  0  0  0  0  0  0  0  0  0  0
   12.6083  -18.1637   23.8054 C   0  0  0  0  0  0  0  0  0  0  0  0
   11.4892  -17.9327   24.7977 C   0  0  2  0  0  0  0  0  0  0  0  0
   10.8704  -16.6423   24.5842 N   0  0  0  0  0  0  0  0  0  0  0  0
   11.9570  -18.0517   26.1940 C   0  0  0  0  0  0  0  0  0  0  0  0
   12.0354  -19.2662   26.8452 O   0  0  0  0  0  0  0  0  0  0  0  0
   12.2945  -17.0139   26.8094 O   0  0  0  0  0  0  0  0  0  0  0  0
  2  1  1  1
  3  2  1  0
  4  2  1  0
  4  5  1  1
  6  4  1  0
  6  7  2  0
  8  9  1  0
  9 19  2  0
  9 10  1  0
 10 11  2  0
 11 12  1  0
 12 13  1  0
 14 13  1  1
 14 15  1  0
 15  6  1  0
 16 14  1  0
 17 16  2  0
 18 12  2  0
 19 18  1  0
 20 21  1  0
 21 23  1  0
 22 21  2  0
 23 24  1  0
 25 24  1  6
 25 26  1  0
 25 27  1  0
 26 16  1  0
 27 28  1  0
 29 27  2  0
M  END
$$$$
