VYQ.pdb
     RDKit          3D

 29 29  0  0  1  0  0  0  0  0999 V2000
    6.9862  -14.3114   18.1286 C   0  0  0  0  0  0  0  0  0  0  0  0
    7.5124  -14.4986   19.5112 C   0  0  2  0  0  0  0  0  0  0  0  0
    6.6890  -15.4639   20.3381 C   0  0  0  0  0  0  0  0  0  0  0  0
    7.7290  -13.2043   20.2563 C   0  0  2  0  0  0  0  0  0  0  0  0
    8.6164  -12.3708   19.4900 N   0  0  0  0  0  0  0  0  0  0  0  0
    8.3175  -13.4983   21.6124 C   0  0  0  0  0  0  0  0  0  0  0  0
    9.4728  -13.9655   21.7296 O   0  0  0  0  0  0  0  0  0  0  0  0
    9.8310  -14.6041   30.0841 O   0  0  0  0  0  0  0  0  0  0  0  0
    9.2084  -14.2554   28.8803 C   0  0  0  0  0  0  0  0  0  0  0  0
    9.8931  -13.6414   27.8469 C   0  0  0  0  0  0  0  0  0  0  0  0
    9.2404  -13.3167   26.6813 C   0  0  0  0  0  0  0  0  0  0  0  0
    7.8859  -13.5876   26.4951 C   0  0  0  0  0  0  0  0  0  0  0  0
    7.2862  -13.1740   25.2123 C   0  0  0  0  0  0  0  0  0  0  0  0
    8.1288  -13.6618   24.0790 C   0  0  2  0  0  0  0  0  0  0  0  0
    7.5832  -13.2554   22.7883 N   0  0  0  0  0  0  0  0  0  0  0  0
    8.3687  -15.1303   24.1026 C   0  0  0  0  0  0  0  0  0  0  0  0
    7.5513  -15.9526   23.6313 O   0  0  0  0  0  0  0  0  0  0  0  0
    7.2025  -14.1994   27.5244 C   0  0  0  0  0  0  0  0  0  0  0  0
    7.8710  -14.5178   28.6847 C   0  0  0  0  0  0  0  0  0  0  0  0
    9.0491  -18.0074   20.4976 N   0  0  0  0  0  0  0  0  0  0  0  0
    9.9622  -18.9054   21.1069 C   0  0  0  0  0  0  0  0  0  0  0  0
   10.2384  -19.9919   20.5689 O   0  0  0  0  0  0  0  0  0  0  0  0
   10.5835  -18.5247   22.4006 C   0  0  0  0  0  0  0  0  0  0  0  0
   10.1627  -17.1148   22.7960 C   0  0  0  0  0  0  0  0  0  0  0  0
   10.0269  -16.9947   24.2985 C   0  0  2  0  0  0  0  0  0  0  0  0
    9.5529  -15.6787   24.6688 N   0  0  0  0  0  0  0  0  0  0  0  0
   11.2957  -17.2962   24.9928 C   0  0  0  0  0  0  0  0  0  0  0  0
   12.4071  -16.4847   24.8848 O   0  0  0  0  0  0  0  0  0  0  0  0
   11.3660  -18.3246   25.7048 O   0  0  0  0  0  0  0  0  0  0  0  0
  2  1  1  6
  3  2  1  0
  4  2  1  0
  4  5  1  6
  6  4  1  0
  6  7  2  0
  8  9  1  0
  9 19  2  0
  9 10  1  0
 10 11  2  0
 11 12  1  0
 12 13  1  0
 14 13  1  1
 14 15  1  0
 15  6  1  0
 16 14  1  0
 17 16  2  0
 18 12  2  0
 19 18  1  0
 20 21  1  0
 21 23  1  0
 22 21  2  0
 23 24  1  0
 25 24  1  6
 25 26  1  0
 25 27  1  0
 26 16  1  0
 27 28  1  0
 29 27  2  0
M  END
$$$$
