VYQ.pdb
     RDKit          3D

 29 29  0  0  1  0  0  0  0  0999 V2000
    6.9935  -13.1882   19.0290 C   0  0  0  0  0  0  0  0  0  0  0  0
    7.7326  -13.3753   20.3105 C   0  0  2  0  0  0  0  0  0  0  0  0
    8.8470  -12.3693   20.5097 C   0  0  0  0  0  0  0  0  0  0  0  0
    8.2374  -14.7823   20.5177 C   0  0  2  0  0  0  0  0  0  0  0  0
    7.1687  -15.7042   20.2392 N   0  0  0  0  0  0  0  0  0  0  0  0
    8.7159  -14.9396   21.9383 C   0  0  0  0  0  0  0  0  0  0  0  0
    9.7804  -14.4073   22.3259 O   0  0  0  0  0  0  0  0  0  0  0  0
    6.8559  -10.1543   26.7929 O   0  0  0  0  0  0  0  0  0  0  0  0
    6.9741  -11.4935   26.4044 C   0  0  0  0  0  0  0  0  0  0  0  0
    5.9332  -12.3948   26.5384 C   0  0  0  0  0  0  0  0  0  0  0  0
    6.0944  -13.7016   26.1431 C   0  0  0  0  0  0  0  0  0  0  0  0
    7.2917  -14.1650   25.6005 C   0  0  0  0  0  0  0  0  0  0  0  0
    7.3571  -15.5922   25.2329 C   0  0  0  0  0  0  0  0  0  0  0  0
    8.4564  -15.8106   24.2449 C   0  0  2  0  0  0  0  0  0  0  0  0
    7.9780  -15.6914   22.8717 N   0  0  0  0  0  0  0  0  0  0  0  0
    9.1811  -17.0967   24.4329 C   0  0  0  0  0  0  0  0  0  0  0  0
    8.6049  -18.2066   24.3818 O   0  0  0  0  0  0  0  0  0  0  0  0
    8.3299  -13.2677   25.4666 C   0  0  0  0  0  0  0  0  0  0  0  0
    8.1517  -11.9630   25.8673 C   0  0  0  0  0  0  0  0  0  0  0  0
   14.3857  -19.0657   21.7637 N   0  0  0  0  0  0  0  0  0  0  0  0
   13.6826  -17.8433   21.9142 C   0  0  0  0  0  0  0  0  0  0  0  0
   14.1345  -16.7881   21.4360 O   0  0  0  0  0  0  0  0  0  0  0  0
   12.3951  -17.8456   22.6540 C   0  0  0  0  0  0  0  0  0  0  0  0
   12.6026  -18.3485   24.0770 C   0  0  0  0  0  0  0  0  0  0  0  0
   11.2922  -18.3799   24.8336 C   0  0  2  0  0  0  0  0  0  0  0  0
   10.5811  -17.1288   24.6832 N   0  0  0  0  0  0  0  0  0  0  0  0
   11.4890  -18.6883   26.2649 C   0  0  0  0  0  0  0  0  0  0  0  0
   11.0208  -17.8646   27.2687 O   0  0  0  0  0  0  0  0  0  0  0  0
   12.1026  -19.7344   26.5795 O   0  0  0  0  0  0  0  0  0  0  0  0
  2  1  1  6
  3  2  1  0
  4  2  1  0
  4  5  1  1
  6  4  1  0
  6  7  2  0
  8  9  1  0
  9 19  2  0
  9 10  1  0
 10 11  2  0
 11 12  1  0
 12 13  1  0
 14 13  1  1
 14 15  1  0
 15  6  1  0
 16 14  1  0
 17 16  2  0
 18 12  2  0
 19 18  1  0
 20 21  1  0
 21 23  1  0
 22 21  2  0
 23 24  1  0
 25 24  1  6
 25 26  1  0
 25 27  1  0
 26 16  1  0
 27 28  1  0
 29 27  2  0
M  END
$$$$
