ESL.pdb
     RDKit          3D

 24 23  0  0  1  0  0  0  0  0999 V2000
   25.5926  -17.8220  -15.7692 N   0  0  0  0  0  0  0  0  0  0  0  0
   24.4982  -17.9165  -14.8777 C   0  0  1  0  0  0  0  0  0  0  0  0
   23.1686  -17.9161  -15.5627 C   0  0  0  0  0  0  0  0  0  0  0  0
   23.0980  -18.4346  -16.9400 C   0  0  0  0  0  0  0  0  0  0  0  0
   24.0359  -17.8814  -17.9237 C   0  0  0  0  0  0  0  0  0  0  0  0
   23.8215  -16.9013  -18.6558 O   0  0  0  0  0  0  0  0  0  0  0  0
   24.5477  -19.1551  -14.0240 C   0  0  0  0  0  0  0  0  0  0  0  0
   23.6087  -19.3308  -13.2067 O   0  0  0  0  0  0  0  0  0  0  0  0
   25.2970  -18.4954  -18.0724 O   0  0  0  0  0  0  0  0  0  0  0  0
   27.0109  -21.8081  -15.1346 O   0  0  0  0  0  0  0  0  0  0  0  0
   26.4286  -22.3579  -14.0170 C   0  0  0  0  0  0  0  0  0  0  0  0
   25.6208  -21.3245  -13.2822 C   0  0  2  0  0  0  0  0  0  0  0  0
   25.5853  -20.1157  -14.0952 N   0  0  0  0  0  0  0  0  0  0  0  0
   26.1720  -21.0319  -11.9362 C   0  0  0  0  0  0  0  0  0  0  0  0
   27.3460  -20.5347  -11.8218 O   0  0  0  0  0  0  0  0  0  0  0  0
   27.4789  -20.6839   -7.1620 C   0  0  0  0  0  0  0  0  0  0  0  0
   27.3791  -19.3816   -7.9738 C   0  0  2  0  0  0  0  0  0  0  0  0
   26.7293  -18.3314   -7.1220 C   0  0  0  0  0  0  0  0  0  0  0  0
   26.6870  -19.6890   -9.2644 C   0  0  0  0  0  0  0  0  0  0  0  0
   26.1466  -21.0724   -9.4283 C   0  0  2  0  0  0  0  0  0  0  0  0
   25.5020  -21.2562  -10.7104 N   0  0  0  0  0  0  0  0  0  0  0  0
   25.1486  -21.3737   -8.3272 C   0  0  0  0  0  0  0  0  0  0  0  0
   23.9210  -21.1410   -8.4579 O   0  0  0  0  0  0  0  0  0  0  0  0
   25.5691  -21.9234   -7.1251 O   0  0  0  0  0  0  0  0  0  0  0  0
  2  1  1  6
  2  7  1  0
  3  2  1  0
  3  4  1  0
  5  4  1  0
  5  9  1  0
  6  5  2  0
  7  8  2  0
 10 11  1  0
 12 11  1  6
 12 14  1  0
 13  7  1  0
 13 12  1  0
 14 15  2  0
 17 16  1  1
 17 18  1  0
 19 17  1  0
 20 19  1  1
 20 22  1  0
 21 14  1  0
 21 20  1  0
 22 23  2  0
 22 24  1  0
M  END
$$$$
