ESL.pdb
     RDKit          3D

 24 23  0  0  1  0  0  0  0  0999 V2000
   16.2683  -13.5702  -18.6975 N   0  0  0  0  0  0  0  0  0  0  0  0
   16.2462  -12.7854  -17.5206 C   0  0  1  0  0  0  0  0  0  0  0  0
   16.4465  -13.5802  -16.2695 C   0  0  0  0  0  0  0  0  0  0  0  0
   17.4216  -14.6842  -16.2980 C   0  0  0  0  0  0  0  0  0  0  0  0
   17.5339  -15.5235  -15.0995 C   0  0  0  0  0  0  0  0  0  0  0  0
   16.9004  -16.5706  -14.8878 O   0  0  0  0  0  0  0  0  0  0  0  0
   17.2932  -11.7042  -17.5218 C   0  0  0  0  0  0  0  0  0  0  0  0
   18.4132  -11.9856  -18.0186 O   0  0  0  0  0  0  0  0  0  0  0  0
   18.4306  -15.1317  -14.0836 O   0  0  0  0  0  0  0  0  0  0  0  0
   18.1095   -6.9511  -17.2935 O   0  0  0  0  0  0  0  0  0  0  0  0
   17.2564   -8.0224  -17.1715 C   0  0  0  0  0  0  0  0  0  0  0  0
   18.0301   -9.3113  -17.1489 C   0  0  2  0  0  0  0  0  0  0  0  0
   17.0808  -10.4064  -16.9973 N   0  0  0  0  0  0  0  0  0  0  0  0
   19.0402   -9.3424  -16.0627 C   0  0  0  0  0  0  0  0  0  0  0  0
   18.7309   -9.8228  -14.9172 O   0  0  0  0  0  0  0  0  0  0  0  0
   22.7829  -11.2946  -14.5301 C   0  0  0  0  0  0  0  0  0  0  0  0
   23.0966  -10.4029  -15.7431 C   0  0  2  0  0  0  0  0  0  0  0  0
   24.5381  -10.5864  -16.1160 C   0  0  0  0  0  0  0  0  0  0  0  0
   22.6864   -9.0028  -15.4105 C   0  0  0  0  0  0  0  0  0  0  0  0
   21.2577   -8.7902  -15.0282 C   0  0  2  0  0  0  0  0  0  0  0  0
   20.3712   -8.8742  -16.1685 N   0  0  0  0  0  0  0  0  0  0  0  0
   21.0918   -7.4324  -14.3740 C   0  0  0  0  0  0  0  0  0  0  0  0
   20.6905   -6.4285  -15.0137 O   0  0  0  0  0  0  0  0  0  0  0  0
   21.3832   -7.2571  -13.0292 O   0  0  0  0  0  0  0  0  0  0  0  0
  2  1  1  6
  2  7  1  0
  3  2  1  0
  3  4  1  0
  5  4  1  0
  5  9  1  0
  6  5  2  0
  7  8  2  0
 10 11  1  0
 12 11  1  1
 12 14  1  0
 13  7  1  0
 13 12  1  0
 14 15  2  0
 17 16  1  1
 17 18  1  0
 19 17  1  0
 20 19  1  6
 20 22  1  0
 21 14  1  0
 21 20  1  0
 22 23  2  0
 22 24  1  0
M  END
$$$$
