ESL.pdb
     RDKit          3D

 24 23  0  0  1  0  0  0  0  0999 V2000
   18.9094  -10.9213  -17.8621 N   0  0  0  0  0  0  0  0  0  0  0  0
   18.1244  -10.3979  -16.8079 C   0  0  1  0  0  0  0  0  0  0  0  0
   17.3505  -11.4406  -16.0657 C   0  0  0  0  0  0  0  0  0  0  0  0
   17.6639  -12.8558  -16.3296 C   0  0  0  0  0  0  0  0  0  0  0  0
   17.0577  -13.8620  -15.4501 C   0  0  0  0  0  0  0  0  0  0  0  0
   15.9857  -14.4533  -15.6589 O   0  0  0  0  0  0  0  0  0  0  0  0
   18.9422   -9.6537  -15.7868 C   0  0  0  0  0  0  0  0  0  0  0  0
   18.3286   -9.1478  -14.8131 O   0  0  0  0  0  0  0  0  0  0  0  0
   17.7280  -14.2071  -14.2580 O   0  0  0  0  0  0  0  0  0  0  0  0
   23.0671   -9.3441  -16.1263 O   0  0  0  0  0  0  0  0  0  0  0  0
   22.5208   -9.3952  -14.8656 C   0  0  0  0  0  0  0  0  0  0  0  0
   21.1402   -8.8000  -14.8659 C   0  0  2  0  0  0  0  0  0  0  0  0
   20.3469   -9.4973  -15.8698 N   0  0  0  0  0  0  0  0  0  0  0  0
   21.1564   -7.3410  -15.1349 C   0  0  0  0  0  0  0  0  0  0  0  0
   20.8713   -6.9046  -16.3041 O   0  0  0  0  0  0  0  0  0  0  0  0
   18.4780   -2.5147  -14.5653 C   0  0  0  0  0  0  0  0  0  0  0  0
   19.9078   -2.9417  -14.9371 C   0  0  2  0  0  0  0  0  0  0  0  0
   20.1722   -2.5516  -16.3614 C   0  0  0  0  0  0  0  0  0  0  0  0
   20.0548   -4.3980  -14.6261 C   0  0  0  0  0  0  0  0  0  0  0  0
   21.4474   -4.9280  -14.5150 C   0  0  2  0  0  0  0  0  0  0  0  0
   21.4686   -6.3371  -14.1881 N   0  0  0  0  0  0  0  0  0  0  0  0
   22.2102   -4.1635  -13.4506 C   0  0  0  0  0  0  0  0  0  0  0  0
   22.3847   -4.6240  -12.2949 O   0  0  0  0  0  0  0  0  0  0  0  0
   22.7457   -2.9142  -13.7268 O   0  0  0  0  0  0  0  0  0  0  0  0
  2  1  1  6
  2  7  1  0
  3  2  1  0
  3  4  1  0
  5  4  1  0
  5  9  1  0
  6  5  2  0
  7  8  2  0
 10 11  1  0
 12 11  1  6
 12 14  1  0
 13  7  1  0
 13 12  1  0
 14 15  2  0
 17 16  1  6
 17 18  1  0
 19 17  1  0
 20 19  1  1
 20 22  1  0
 21 14  1  0
 21 20  1  0
 22 23  2  0
 22 24  1  0
M  END
$$$$
