ESL.pdb
     RDKit          3D

 24 23  0  0  1  0  0  0  0  0999 V2000
   22.6071  -20.1506  -14.3180 N   0  0  0  0  0  0  0  0  0  0  0  0
   22.2031  -19.7856  -13.0123 C   0  0  1  0  0  0  0  0  0  0  0  0
   20.7796  -20.1308  -12.7096 C   0  0  0  0  0  0  0  0  0  0  0  0
   19.7882  -19.9949  -13.7909 C   0  0  0  0  0  0  0  0  0  0  0  0
   19.3192  -21.2235  -14.4419 C   0  0  0  0  0  0  0  0  0  0  0  0
   18.7133  -22.1523  -13.8827 O   0  0  0  0  0  0  0  0  0  0  0  0
   23.0439  -20.4275  -11.9416 C   0  0  0  0  0  0  0  0  0  0  0  0
   22.4542  -20.8229  -10.9041 O   0  0  0  0  0  0  0  0  0  0  0  0
   19.5637  -21.3914  -15.8209 O   0  0  0  0  0  0  0  0  0  0  0  0
   27.0925  -21.2534  -12.5239 O   0  0  0  0  0  0  0  0  0  0  0  0
   26.3051  -22.0890  -11.7675 C   0  0  0  0  0  0  0  0  0  0  0  0
   25.2442  -21.3036  -11.0478 C   0  0  2  0  0  0  0  0  0  0  0  0
   24.4449  -20.6033  -12.0448 N   0  0  0  0  0  0  0  0  0  0  0  0
   25.8184  -20.3447  -10.0722 C   0  0  0  0  0  0  0  0  0  0  0  0
   26.0656  -19.1409  -10.4305 O   0  0  0  0  0  0  0  0  0  0  0  0
   29.5560  -19.4580   -6.2217 C   0  0  0  0  0  0  0  0  0  0  0  0
   28.0878  -19.3567   -5.7751 C   0  0  2  0  0  0  0  0  0  0  0  0
   28.0209  -19.5599   -4.2902 C   0  0  0  0  0  0  0  0  0  0  0  0
   27.2837  -20.3143   -6.5972 C   0  0  0  0  0  0  0  0  0  0  0  0
   27.3278  -20.1341   -8.0798 C   0  0  2  0  0  0  0  0  0  0  0  0
   26.1348  -20.6380   -8.7246 N   0  0  0  0  0  0  0  0  0  0  0  0
   28.5367  -20.8470   -8.6537 C   0  0  0  0  0  0  0  0  0  0  0  0
   28.5928  -22.0988   -8.7425 O   0  0  0  0  0  0  0  0  0  0  0  0
   29.6328  -20.1260   -9.1040 O   0  0  0  0  0  0  0  0  0  0  0  0
  2  1  1  6
  2  7  1  0
  3  2  1  0
  3  4  1  0
  5  4  1  0
  5  9  1  0
  6  5  2  0
  7  8  2  0
 10 11  1  0
 12 11  1  6
 12 14  1  0
 13  7  1  0
 13 12  1  0
 14 15  2  0
 17 16  1  6
 17 18  1  0
 19 17  1  0
 20 19  1  1
 20 22  1  0
 21 14  1  0
 21 20  1  0
 22 23  2  0
 22 24  1  0
M  END
$$$$
