WTQ.pdb
     RDKit          3D

 31 32  0  0  1  0  0  0  0  0999 V2000
    6.0840  -17.3438   24.7236 N   0  0  0  0  0  0  0  0  0  0  0  0
    6.8760  -16.3349   24.0528 C   0  0  1  0  0  0  0  0  0  0  0  0
    7.7868  -15.7225   25.0930 C   0  0  0  0  0  0  0  0  0  0  0  0
    7.0535  -14.7231   25.9249 C   0  0  0  0  0  0  0  0  0  0  0  0
    6.1364  -15.0048   26.9457 C   0  0  0  0  0  0  0  0  0  0  0  0
    5.6800  -13.8525   27.4682 N   0  0  0  0  0  0  0  0  0  0  0  0
    6.2527  -12.8029   26.8405 C   0  0  0  0  0  0  0  0  0  0  0  0
    6.1131  -11.4409   27.0127 C   0  0  0  0  0  0  0  0  0  0  0  0
    6.8315  -10.5675   26.2219 C   0  0  0  0  0  0  0  0  0  0  0  0
    7.6747  -11.1091   25.2741 C   0  0  0  0  0  0  0  0  0  0  0  0
    7.8204  -12.4790   25.0949 C   0  0  0  0  0  0  0  0  0  0  0  0
    7.1040  -13.3442   25.8840 C   0  0  0  0  0  0  0  0  0  0  0  0
    7.5942  -16.8483   22.8845 C   0  0  0  0  0  0  0  0  0  0  0  0
    8.0711  -18.0328   22.8943 O   0  0  0  0  0  0  0  0  0  0  0  0
    7.2245  -15.3867   19.0207 C   0  0  0  0  0  0  0  0  0  0  0  0
    8.5996  -15.8649   19.3534 C   0  0  1  0  0  0  0  0  0  0  0  0
    9.4151  -14.7042   19.4225 O   0  0  0  0  0  0  0  0  0  0  0  0
    8.7394  -16.5423   20.6601 C   0  0  2  0  0  0  0  0  0  0  0  0
    7.8312  -16.1452   21.6877 N   0  0  0  0  0  0  0  0  0  0  0  0
   10.1607  -16.5789   21.1486 C   0  0  0  0  0  0  0  0  0  0  0  0
   10.5697  -15.7534   22.0004 O   0  0  0  0  0  0  0  0  0  0  0  0
   14.6051  -21.5735   23.5073 N   0  0  0  0  0  0  0  0  0  0  0  0
   13.6778  -20.5135   23.6280 C   0  0  0  0  0  0  0  0  0  0  0  0
   12.8423  -20.5418   24.5519 O   0  0  0  0  0  0  0  0  0  0  0  0
   13.6870  -19.3834   22.6783 C   0  0  0  0  0  0  0  0  0  0  0  0
   12.3348  -18.9652   22.1851 C   0  0  0  0  0  0  0  0  0  0  0  0
   12.3861  -17.7846   21.2882 C   0  0  2  0  0  0  0  0  0  0  0  0
   11.0753  -17.5469   20.6594 N   0  0  0  0  0  0  0  0  0  0  0  0
   13.4273  -17.9436   20.2665 C   0  0  0  0  0  0  0  0  0  0  0  0
   13.0463  -18.1759   19.0671 O   0  0  0  0  0  0  0  0  0  0  0  0
   14.7878  -17.8710   20.4369 O   0  0  0  0  0  0  0  0  0  0  0  0
  2  1  1  1
  3  2  1  0
  3  4  1  0
  4  5  2  0
  5  6  1  0
  7  6  1  0
  8  7  2  0
  9  8  1  0
 10 11  1  0
 10  9  2  0
 11 12  2  0
 12  4  1  0
 12  7  1  0
 13  2  1  0
 13 19  1  0
 14 13  2  0
 16 15  1  1
 16 18  1  0
 17 16  1  0
 18 19  1  1
 20 18  1  0
 21 20  2  0
 23 22  1  0
 24 23  2  0
 25 23  1  0
 27 26  1  6
 26 25  1  0
 27 28  1  0
 28 20  1  0
 29 31  1  0
 29 27  1  0
 30 29  2  0
M  END
$$$$
