WTQ.pdb
     RDKit          3D

 31 32  0  0  1  0  0  0  0  0999 V2000
    5.9418  -17.8570   24.7273 N   0  0  0  0  0  0  0  0  0  0  0  0
    6.8246  -16.8133   24.2514 C   0  0  1  0  0  0  0  0  0  0  0  0
    7.6094  -16.3181   25.4454 C   0  0  0  0  0  0  0  0  0  0  0  0
    6.9975  -15.0799   26.0121 C   0  0  0  0  0  0  0  0  0  0  0  0
    5.7920  -14.9984   26.7207 C   0  0  0  0  0  0  0  0  0  0  0  0
    5.5641  -13.7200   27.0713 N   0  0  0  0  0  0  0  0  0  0  0  0
    6.5687  -12.9341   26.6273 C   0  0  0  0  0  0  0  0  0  0  0  0
    6.7894  -11.5762   26.7340 C   0  0  0  0  0  0  0  0  0  0  0  0
    7.9214  -11.0148   26.1792 C   0  0  0  0  0  0  0  0  0  0  0  0
    8.7993  -11.8565   25.5285 C   0  0  0  0  0  0  0  0  0  0  0  0
    8.5838  -13.2243   25.4171 C   0  0  0  0  0  0  0  0  0  0  0  0
    7.4566  -13.7787   25.9708 C   0  0  0  0  0  0  0  0  0  0  0  0
    7.6735  -17.2398   23.1371 C   0  0  0  0  0  0  0  0  0  0  0  0
    8.0885  -18.4457   23.0719 O   0  0  0  0  0  0  0  0  0  0  0  0
    7.4420  -15.7650   19.3454 C   0  0  0  0  0  0  0  0  0  0  0  0
    8.8383  -16.1311   19.7282 C   0  0  1  0  0  0  0  0  0  0  0  0
    9.5431  -14.9061   19.8689 O   0  0  0  0  0  0  0  0  0  0  0  0
    8.9804  -16.8361   21.0200 C   0  0  2  0  0  0  0  0  0  0  0  0
    8.1073  -16.4264   22.0726 N   0  0  0  0  0  0  0  0  0  0  0  0
   10.4090  -16.9307   21.4785 C   0  0  0  0  0  0  0  0  0  0  0  0
   10.8464  -16.1761   22.3805 O   0  0  0  0  0  0  0  0  0  0  0  0
   13.4101  -21.0081   23.6103 N   0  0  0  0  0  0  0  0  0  0  0  0
   14.5782  -20.5356   22.9696 C   0  0  0  0  0  0  0  0  0  0  0  0
   15.6911  -20.8181   23.4537 O   0  0  0  0  0  0  0  0  0  0  0  0
   14.4951  -19.7165   21.7443 C   0  0  0  0  0  0  0  0  0  0  0  0
   13.1035  -19.4719   21.2443 C   0  0  0  0  0  0  0  0  0  0  0  0
   12.6774  -18.0582   21.3882 C   0  0  2  0  0  0  0  0  0  0  0  0
   11.2986  -17.8745   20.9034 N   0  0  0  0  0  0  0  0  0  0  0  0
   13.5964  -17.1565   20.6842 C   0  0  0  0  0  0  0  0  0  0  0  0
   13.3009  -16.8344   19.4815 O   0  0  0  0  0  0  0  0  0  0  0  0
   14.7569  -16.6004   21.1628 O   0  0  0  0  0  0  0  0  0  0  0  0
  2  1  1  1
  3  2  1  0
  3  4  1  0
  4  5  2  0
  5  6  1  0
  7  6  1  0
  8  7  2  0
  9  8  1  0
 10 11  1  0
 10  9  2  0
 11 12  2  0
 12  4  1  0
 12  7  1  0
 13  2  1  0
 13 19  1  0
 14 13  2  0
 16 15  1  1
 16 18  1  0
 17 16  1  0
 18 19  1  1
 20 18  1  0
 21 20  2  0
 23 22  1  0
 24 23  2  0
 25 23  1  0
 27 26  1  6
 26 25  1  0
 27 28  1  0
 28 20  1  0
 29 31  1  0
 29 27  1  0
 30 29  2  0
M  END
$$$$
