WTQ.pdb
     RDKit          3D

 31 32  0  0  1  0  0  0  0  0999 V2000
    5.9994  -17.2276   24.8353 N   0  0  0  0  0  0  0  0  0  0  0  0
    7.2728  -16.5997   24.5535 C   0  0  1  0  0  0  0  0  0  0  0  0
    7.7896  -16.0401   25.8598 C   0  0  0  0  0  0  0  0  0  0  0  0
    7.1446  -14.7309   26.1739 C   0  0  0  0  0  0  0  0  0  0  0  0
    6.1198  -14.5115   27.1034 C   0  0  0  0  0  0  0  0  0  0  0  0
    5.7940  -13.2065   27.1111 N   0  0  0  0  0  0  0  0  0  0  0  0
    6.5586  -12.5352   26.2231 C   0  0  0  0  0  0  0  0  0  0  0  0
    6.6028  -11.2017   25.8712 C   0  0  0  0  0  0  0  0  0  0  0  0
    7.4986  -10.7691   24.9147 C   0  0  0  0  0  0  0  0  0  0  0  0
    8.3267  -11.7116   24.3416 C   0  0  0  0  0  0  0  0  0  0  0  0
    8.2879  -13.0557   24.6907 C   0  0  0  0  0  0  0  0  0  0  0  0
    7.3955  -13.4816   25.6429 C   0  0  0  0  0  0  0  0  0  0  0  0
    8.2232  -17.4953   23.8910 C   0  0  0  0  0  0  0  0  0  0  0  0
    8.1595  -18.7556   24.0857 O   0  0  0  0  0  0  0  0  0  0  0  0
    9.6738  -17.9250   20.2138 C   0  0  0  0  0  0  0  0  0  0  0  0
   10.7800  -17.8353   21.2130 C   0  0  1  0  0  0  0  0  0  0  0  0
   11.3635  -16.5518   21.0416 O   0  0  0  0  0  0  0  0  0  0  0  0
   10.3658  -17.9111   22.6302 C   0  0  2  0  0  0  0  0  0  0  0  0
    9.2547  -17.1021   23.0168 N   0  0  0  0  0  0  0  0  0  0  0  0
   11.5203  -17.7739   23.5832 C   0  0  0  0  0  0  0  0  0  0  0  0
   11.9489  -16.6425   23.9160 O   0  0  0  0  0  0  0  0  0  0  0  0
   11.4464  -20.7773   28.8255 N   0  0  0  0  0  0  0  0  0  0  0  0
   12.7244  -20.1755   28.8742 C   0  0  0  0  0  0  0  0  0  0  0  0
   13.3851  -20.2409   29.9287 O   0  0  0  0  0  0  0  0  0  0  0  0
   13.2802  -19.4745   27.6999 C   0  0  0  0  0  0  0  0  0  0  0  0
   12.4178  -19.5183   26.4748 C   0  0  0  0  0  0  0  0  0  0  0  0
   13.0383  -18.8468   25.3065 C   0  0  2  0  0  0  0  0  0  0  0  0
   12.1546  -18.9190   24.1303 N   0  0  0  0  0  0  0  0  0  0  0  0
   14.3515  -19.4262   25.0017 C   0  0  0  0  0  0  0  0  0  0  0  0
   14.4590  -20.1105   23.9257 O   0  0  0  0  0  0  0  0  0  0  0  0
   15.5053  -19.3235   25.7388 O   0  0  0  0  0  0  0  0  0  0  0  0
  2  1  1  1
  3  2  1  0
  3  4  1  0
  4  5  2  0
  5  6  1  0
  7  6  1  0
  8  7  2  0
  9  8  1  0
 10 11  1  0
 10  9  2  0
 11 12  2  0
 12  4  1  0
 12  7  1  0
 13  2  1  0
 13 19  1  0
 14 13  2  0
 16 15  1  6
 16 18  1  0
 17 16  1  0
 18 19  1  1
 20 18  1  0
 21 20  2  0
 23 22  1  0
 24 23  2  0
 25 23  1  0
 27 26  1  1
 26 25  1  0
 27 28  1  0
 28 20  1  0
 29 31  1  0
 29 27  1  0
 30 29  2  0
M  END
$$$$
