WTQ.pdb
     RDKit          3D

 31 32  0  0  1  0  0  0  0  0999 V2000
    6.7730  -17.0384   23.0266 N   0  0  0  0  0  0  0  0  0  0  0  0
    8.0296  -16.4622   23.4559 C   0  0  1  0  0  0  0  0  0  0  0  0
    8.0704  -16.5617   24.9643 C   0  0  0  0  0  0  0  0  0  0  0  0
    7.1943  -15.5291   25.5928 C   0  0  0  0  0  0  0  0  0  0  0  0
    5.9358  -15.7461   26.1683 C   0  0  0  0  0  0  0  0  0  0  0  0
    5.4477  -14.5810   26.6303 N   0  0  0  0  0  0  0  0  0  0  0  0
    6.3272  -13.5849   26.3896 C   0  0  0  0  0  0  0  0  0  0  0  0
    6.2856  -12.2342   26.6691 C   0  0  0  0  0  0  0  0  0  0  0  0
    7.3408  -11.4214   26.3082 C   0  0  0  0  0  0  0  0  0  0  0  0
    8.4123  -12.0104   25.6700 C   0  0  0  0  0  0  0  0  0  0  0  0
    8.4614  -13.3693   25.3852 C   0  0  0  0  0  0  0  0  0  0  0  0
    7.4096  -14.1743   25.7463 C   0  0  0  0  0  0  0  0  0  0  0  0
    9.1934  -17.0665   22.8042 C   0  0  0  0  0  0  0  0  0  0  0  0
    9.1307  -18.2616   22.3591 O   0  0  0  0  0  0  0  0  0  0  0  0
   10.5187  -16.6178   19.6392 C   0  0  0  0  0  0  0  0  0  0  0  0
   11.7378  -16.5744   20.5007 C   0  0  1  0  0  0  0  0  0  0  0  0
   12.1262  -15.2099   20.5665 O   0  0  0  0  0  0  0  0  0  0  0  0
   11.5453  -17.0135   21.8992 C   0  0  2  0  0  0  0  0  0  0  0  0
   10.4408  -16.4448   22.6027 N   0  0  0  0  0  0  0  0  0  0  0  0
   12.8128  -16.9626   22.7060 C   0  0  0  0  0  0  0  0  0  0  0  0
   13.0336  -16.0147   23.4979 O   0  0  0  0  0  0  0  0  0  0  0  0
   12.9268  -22.1209   23.7034 N   0  0  0  0  0  0  0  0  0  0  0  0
   14.0279  -21.3552   23.2568 C   0  0  0  0  0  0  0  0  0  0  0  0
   14.4296  -21.4974   22.0859 O   0  0  0  0  0  0  0  0  0  0  0  0
   14.7029  -20.3979   24.1553 C   0  0  0  0  0  0  0  0  0  0  0  0
   15.5742  -19.3934   23.4639 C   0  0  0  0  0  0  0  0  0  0  0  0
   14.9876  -18.0308   23.4506 C   0  0  2  0  0  0  0  0  0  0  0  0
   13.7911  -17.9838   22.5926 N   0  0  0  0  0  0  0  0  0  0  0  0
   15.9745  -17.0362   23.0148 C   0  0  0  0  0  0  0  0  0  0  0  0
   15.9480  -16.6778   21.7866 O   0  0  0  0  0  0  0  0  0  0  0  0
   16.9422  -16.4262   23.7741 O   0  0  0  0  0  0  0  0  0  0  0  0
  2  1  1  6
  3  2  1  0
  3  4  1  0
  4  5  2  0
  5  6  1  0
  7  6  1  0
  8  7  2  0
  9  8  1  0
 10 11  1  0
 10  9  2  0
 11 12  2  0
 12  4  1  0
 12  7  1  0
 13  2  1  0
 13 19  1  0
 14 13  2  0
 16 15  1  6
 16 18  1  0
 17 16  1  0
 18 19  1  1
 20 18  1  0
 21 20  2  0
 23 22  1  0
 24 23  2  0
 25 23  1  0
 27 26  1  6
 26 25  1  0
 27 28  1  0
 28 20  1  0
 29 31  1  0
 29 27  1  0
 30 29  2  0
M  END
$$$$
