WTQ.pdb
     RDKit          3D

 31 32  0  0  1  0  0  0  0  0999 V2000
    6.3251  -17.5410   24.6875 N   0  0  0  0  0  0  0  0  0  0  0  0
    7.0317  -16.5624   23.8887 C   0  0  1  0  0  0  0  0  0  0  0  0
    7.9418  -15.7996   24.8251 C   0  0  0  0  0  0  0  0  0  0  0  0
    7.1600  -14.8674   25.6901 C   0  0  0  0  0  0  0  0  0  0  0  0
    6.1323  -15.2195   26.5745 C   0  0  0  0  0  0  0  0  0  0  0  0
    5.6632  -14.1134   27.1791 N   0  0  0  0  0  0  0  0  0  0  0  0
    6.3336  -13.0273   26.7380 C   0  0  0  0  0  0  0  0  0  0  0  0
    6.2232  -11.6883   27.0526 C   0  0  0  0  0  0  0  0  0  0  0  0
    7.0495  -10.7655   26.4442 C   0  0  0  0  0  0  0  0  0  0  0  0
    7.9681  -11.2354   25.5289 C   0  0  0  0  0  0  0  0  0  0  0  0
    8.0852  -12.5817   25.2072 C   0  0  0  0  0  0  0  0  0  0  0  0
    7.2613  -13.4963   25.8149 C   0  0  0  0  0  0  0  0  0  0  0  0
    7.7364  -17.1500   22.7475 C   0  0  0  0  0  0  0  0  0  0  0  0
    8.2660  -18.3076   22.8475 O   0  0  0  0  0  0  0  0  0  0  0  0
    7.3136  -16.4796   18.6530 C   0  0  0  0  0  0  0  0  0  0  0  0
    8.7191  -16.4128   19.1532 C   0  0  1  0  0  0  0  0  0  0  0  0
    9.0765  -15.0382   19.1437 O   0  0  0  0  0  0  0  0  0  0  0  0
    8.9241  -16.8799   20.5408 C   0  0  2  0  0  0  0  0  0  0  0  0
    7.9051  -16.5500   21.4847 N   0  0  0  0  0  0  0  0  0  0  0  0
   10.2984  -16.5673   21.0641 C   0  0  0  0  0  0  0  0  0  0  0  0
   10.4709  -15.6682   21.9221 O   0  0  0  0  0  0  0  0  0  0  0  0
   12.7384  -18.0932   25.3937 N   0  0  0  0  0  0  0  0  0  0  0  0
   12.7434  -19.1250   24.4276 C   0  0  0  0  0  0  0  0  0  0  0  0
   12.8062  -20.3102   24.8073 O   0  0  0  0  0  0  0  0  0  0  0  0
   12.6774  -18.8168   22.9854 C   0  0  0  0  0  0  0  0  0  0  0  0
   12.7471  -17.3577   22.6501 C   0  0  0  0  0  0  0  0  0  0  0  0
   12.7733  -17.1006   21.1893 C   0  0  2  0  0  0  0  0  0  0  0  0
   11.4345  -17.2801   20.6016 N   0  0  0  0  0  0  0  0  0  0  0  0
   13.7512  -17.9656   20.5194 C   0  0  0  0  0  0  0  0  0  0  0  0
   13.3004  -18.8527   19.7148 O   0  0  0  0  0  0  0  0  0  0  0  0
   15.1180  -17.9422   20.6469 O   0  0  0  0  0  0  0  0  0  0  0  0
  2  1  1  1
  3  2  1  0
  3  4  1  0
  4  5  2  0
  5  6  1  0
  7  6  1  0
  8  7  2  0
  9  8  1  0
 10 11  1  0
 10  9  2  0
 11 12  2  0
 12  4  1  0
 12  7  1  0
 13  2  1  0
 13 19  1  0
 14 13  2  0
 16 15  1  1
 16 18  1  0
 17 16  1  0
 18 19  1  1
 20 18  1  0
 21 20  2  0
 23 22  1  0
 24 23  2  0
 25 23  1  0
 27 26  1  1
 26 25  1  0
 27 28  1  0
 28 20  1  0
 29 31  1  0
 29 27  1  0
 30 29  2  0
M  END
$$$$
