WTQ.pdb
     RDKit          3D

 31 32  0  0  1  0  0  0  0  0999 V2000
    6.2664  -17.2717   23.5028 N   0  0  0  0  0  0  0  0  0  0  0  0
    7.0342  -16.0768   23.2236 C   0  0  1  0  0  0  0  0  0  0  0  0
    7.8675  -15.7884   24.4522 C   0  0  0  0  0  0  0  0  0  0  0  0
    7.0916  -14.9957   25.4513 C   0  0  0  0  0  0  0  0  0  0  0  0
    6.0636  -15.4741   26.2738 C   0  0  0  0  0  0  0  0  0  0  0  0
    5.6009  -14.4712   27.0415 N   0  0  0  0  0  0  0  0  0  0  0  0
    6.2760  -13.3336   26.7700 C   0  0  0  0  0  0  0  0  0  0  0  0
    6.1726  -12.0578   27.2857 C   0  0  0  0  0  0  0  0  0  0  0  0
    7.0024  -11.0567   26.8236 C   0  0  0  0  0  0  0  0  0  0  0  0
    7.9173  -11.3855   25.8451 C   0  0  0  0  0  0  0  0  0  0  0  0
    8.0272  -12.6674   25.3211 C   0  0  0  0  0  0  0  0  0  0  0  0
    7.1999  -13.6603   25.7839 C   0  0  0  0  0  0  0  0  0  0  0  0
    7.8268  -16.1744   21.9963 C   0  0  0  0  0  0  0  0  0  0  0  0
    8.1676  -17.3181   21.5421 O   0  0  0  0  0  0  0  0  0  0  0  0
    7.9720  -13.1727   19.1996 C   0  0  0  0  0  0  0  0  0  0  0  0
    9.1849  -14.0434   19.1694 C   0  0  1  0  0  0  0  0  0  0  0  0
   10.2721  -13.2195   19.5649 O   0  0  0  0  0  0  0  0  0  0  0  0
    9.1729  -15.1849   20.1090 C   0  0  2  0  0  0  0  0  0  0  0  0
    8.2802  -15.0911   21.2192 N   0  0  0  0  0  0  0  0  0  0  0  0
   10.5527  -15.6075   20.5305 C   0  0  0  0  0  0  0  0  0  0  0  0
   10.9966  -15.3134   21.6667 O   0  0  0  0  0  0  0  0  0  0  0  0
   14.7677  -14.0842   16.7976 N   0  0  0  0  0  0  0  0  0  0  0  0
   15.3028  -14.6267   17.9882 C   0  0  0  0  0  0  0  0  0  0  0  0
   16.3615  -15.2816   17.9332 O   0  0  0  0  0  0  0  0  0  0  0  0
   14.6261  -14.4291   19.2852 C   0  0  0  0  0  0  0  0  0  0  0  0
   13.1555  -14.7184   19.2780 C   0  0  0  0  0  0  0  0  0  0  0  0
   12.8436  -16.1363   19.5832 C   0  0  2  0  0  0  0  0  0  0  0  0
   11.3877  -16.3488   19.6552 N   0  0  0  0  0  0  0  0  0  0  0  0
   13.4894  -16.5614   20.8304 C   0  0  0  0  0  0  0  0  0  0  0  0
   14.7668  -16.6371   20.8371 O   0  0  0  0  0  0  0  0  0  0  0  0
   12.8846  -16.8932   22.0175 O   0  0  0  0  0  0  0  0  0  0  0  0
  2  1  1  1
  3  2  1  0
  3  4  1  0
  4  5  2  0
  5  6  1  0
  7  6  1  0
  8  7  2  0
  9  8  1  0
 10 11  1  0
 10  9  2  0
 11 12  2  0
 12  4  1  0
 12  7  1  0
 13  2  1  0
 13 19  1  0
 14 13  2  0
 16 15  1  1
 16 18  1  0
 17 16  1  0
 18 19  1  1
 20 18  1  0
 21 20  2  0
 23 22  1  0
 24 23  2  0
 25 23  1  0
 27 26  1  1
 26 25  1  0
 27 28  1  0
 28 20  1  0
 29 31  1  0
 29 27  1  0
 30 29  2  0
M  END
$$$$
