WTQ.pdb
     RDKit          3D

 31 32  0  0  1  0  0  0  0  0999 V2000
    6.0849  -16.8551   23.8230 N   0  0  0  0  0  0  0  0  0  0  0  0
    6.8874  -15.7436   23.3587 C   0  0  1  0  0  0  0  0  0  0  0  0
    7.8032  -15.3523   24.4967 C   0  0  0  0  0  0  0  0  0  0  0  0
    7.0553  -14.6109   25.5549 C   0  0  0  0  0  0  0  0  0  0  0  0
    6.1064  -15.1493   26.4335 C   0  0  0  0  0  0  0  0  0  0  0  0
    5.6457  -14.1799   27.2441 N   0  0  0  0  0  0  0  0  0  0  0  0
    6.2461  -13.0071   26.9477 C   0  0  0  0  0  0  0  0  0  0  0  0
    6.1143  -11.7443   27.4882 C   0  0  0  0  0  0  0  0  0  0  0  0
    6.8634  -10.6980   26.9898 C   0  0  0  0  0  0  0  0  0  0  0  0
    7.7286  -10.9694   25.9504 C   0  0  0  0  0  0  0  0  0  0  0  0
    7.8668  -12.2379   25.4011 C   0  0  0  0  0  0  0  0  0  0  0  0
    7.1198  -13.2759   25.9002 C   0  0  0  0  0  0  0  0  0  0  0  0
    7.6018  -16.0290   22.1127 C   0  0  0  0  0  0  0  0  0  0  0  0
    7.9735  -17.2209   21.8451 O   0  0  0  0  0  0  0  0  0  0  0  0
    7.4766  -13.4765   18.8756 C   0  0  0  0  0  0  0  0  0  0  0  0
    8.6863  -14.3521   18.8817 C   0  0  1  0  0  0  0  0  0  0  0  0
    9.7973  -13.4891   19.0770 O   0  0  0  0  0  0  0  0  0  0  0  0
    8.7453  -15.3490   19.9719 C   0  0  2  0  0  0  0  0  0  0  0  0
    7.9435  -15.0867   21.1237 N   0  0  0  0  0  0  0  0  0  0  0  0
   10.1529  -15.7274   20.3404 C   0  0  0  0  0  0  0  0  0  0  0  0
   10.6883  -15.2771   21.3820 O   0  0  0  0  0  0  0  0  0  0  0  0
   12.7403  -21.3602   19.7282 N   0  0  0  0  0  0  0  0  0  0  0  0
   13.8752  -20.5330   19.8892 C   0  0  0  0  0  0  0  0  0  0  0  0
   15.0024  -21.0588   19.9641 O   0  0  0  0  0  0  0  0  0  0  0  0
   13.7409  -19.0652   19.9707 C   0  0  0  0  0  0  0  0  0  0  0  0
   12.3437  -18.5508   19.7984 C   0  0  0  0  0  0  0  0  0  0  0  0
   12.2549  -17.0733   19.8985 C   0  0  2  0  0  0  0  0  0  0  0  0
   10.9114  -16.6022   19.5205 N   0  0  0  0  0  0  0  0  0  0  0  0
   13.2801  -16.4264   19.0717 C   0  0  0  0  0  0  0  0  0  0  0  0
   14.5023  -16.5846   19.4165 O   0  0  0  0  0  0  0  0  0  0  0  0
   13.0911  -15.6585   17.9493 O   0  0  0  0  0  0  0  0  0  0  0  0
  2  1  1  1
  3  2  1  0
  3  4  1  0
  4  5  2  0
  5  6  1  0
  7  6  1  0
  8  7  2  0
  9  8  1  0
 10 11  1  0
 10  9  2  0
 11 12  2  0
 12  4  1  0
 12  7  1  0
 13  2  1  0
 13 19  1  0
 14 13  2  0
 16 15  1  1
 16 18  1  0
 17 16  1  0
 18 19  1  1
 20 18  1  0
 21 20  2  0
 23 22  1  0
 24 23  2  0
 25 23  1  0
 27 26  1  6
 26 25  1  0
 27 28  1  0
 28 20  1  0
 29 31  1  0
 29 27  1  0
 30 29  2  0
M  END
$$$$
