WTQ.pdb
     RDKit          3D

 31 32  0  0  1  0  0  0  0  0999 V2000
    6.0314  -18.1768   24.4345 N   0  0  0  0  0  0  0  0  0  0  0  0
    6.7770  -16.9664   24.1620 C   0  0  1  0  0  0  0  0  0  0  0  0
    7.3924  -16.5211   25.4696 C   0  0  0  0  0  0  0  0  0  0  0  0
    6.7299  -15.2842   25.9793 C   0  0  0  0  0  0  0  0  0  0  0  0
    5.4837  -15.2109   26.6149 C   0  0  0  0  0  0  0  0  0  0  0  0
    5.2167  -13.9310   26.9307 N   0  0  0  0  0  0  0  0  0  0  0  0
    6.2337  -13.1363   26.5334 C   0  0  0  0  0  0  0  0  0  0  0  0
    6.4275  -11.7735   26.6306 C   0  0  0  0  0  0  0  0  0  0  0  0
    7.5816  -11.2028   26.1337 C   0  0  0  0  0  0  0  0  0  0  0  0
    8.5087  -12.0405   25.5493 C   0  0  0  0  0  0  0  0  0  0  0  0
    8.3205  -13.4131   25.4478 C   0  0  0  0  0  0  0  0  0  0  0  0
    7.1711  -13.9767   25.9437 C   0  0  0  0  0  0  0  0  0  0  0  0
    7.7564  -17.1227   23.0848 C   0  0  0  0  0  0  0  0  0  0  0  0
    8.4475  -18.1929   22.9965 O   0  0  0  0  0  0  0  0  0  0  0  0
    7.3608  -16.2854   19.2727 C   0  0  0  0  0  0  0  0  0  0  0  0
    8.7311  -15.8994   19.7238 C   0  0  1  0  0  0  0  0  0  0  0  0
    8.7741  -14.4803   19.6853 O   0  0  0  0  0  0  0  0  0  0  0  0
    9.0770  -16.2823   21.1092 C   0  0  2  0  0  0  0  0  0  0  0  0
    8.0374  -16.1751   22.0818 N   0  0  0  0  0  0  0  0  0  0  0  0
   10.3588  -15.6566   21.5843 C   0  0  0  0  0  0  0  0  0  0  0  0
   10.3546  -14.5466   22.1693 O   0  0  0  0  0  0  0  0  0  0  0  0
   11.7758  -19.2914   25.8109 N   0  0  0  0  0  0  0  0  0  0  0  0
   12.4569  -18.0577   25.9205 C   0  0  0  0  0  0  0  0  0  0  0  0
   12.5919  -17.5379   27.0449 O   0  0  0  0  0  0  0  0  0  0  0  0
   13.0043  -17.3826   24.7272 C   0  0  0  0  0  0  0  0  0  0  0  0
   12.0016  -17.0974   23.6503 C   0  0  0  0  0  0  0  0  0  0  0  0
   12.6020  -16.4505   22.4578 C   0  0  2  0  0  0  0  0  0  0  0  0
   11.6049  -16.3043   21.3833 N   0  0  0  0  0  0  0  0  0  0  0  0
   13.7680  -17.2030   21.9809 C   0  0  0  0  0  0  0  0  0  0  0  0
   13.5664  -18.1042   21.0951 O   0  0  0  0  0  0  0  0  0  0  0  0
   15.0765  -17.0583   22.3709 O   0  0  0  0  0  0  0  0  0  0  0  0
  2  1  1  1
  3  2  1  0
  3  4  1  0
  4  5  2  0
  5  6  1  0
  7  6  1  0
  8  7  2  0
  9  8  1  0
 10 11  1  0
 10  9  2  0
 11 12  2  0
 12  4  1  0
 12  7  1  0
 13  2  1  0
 13 19  1  0
 14 13  2  0
 16 15  1  1
 16 18  1  0
 17 16  1  0
 18 19  1  1
 20 18  1  0
 21 20  2  0
 23 22  1  0
 24 23  2  0
 25 23  1  0
 27 26  1  1
 26 25  1  0
 27 28  1  0
 28 20  1  0
 29 31  1  0
 29 27  1  0
 30 29  2  0
M  END
$$$$
