WTQ.pdb
     RDKit          3D

 31 32  0  0  1  0  0  0  0  0999 V2000
    6.2514  -17.8367   24.2331 N   0  0  0  0  0  0  0  0  0  0  0  0
    7.1011  -16.7973   23.6919 C   0  0  1  0  0  0  0  0  0  0  0  0
    7.9200  -16.2517   24.8402 C   0  0  0  0  0  0  0  0  0  0  0  0
    7.1471  -15.2349   25.6132 C   0  0  0  0  0  0  0  0  0  0  0  0
    6.0990  -15.4910   26.5065 C   0  0  0  0  0  0  0  0  0  0  0  0
    5.6465  -14.3291   27.0109 N   0  0  0  0  0  0  0  0  0  0  0  0
    6.3479  -13.2976   26.4934 C   0  0  0  0  0  0  0  0  0  0  0  0
    6.2634  -11.9352   26.6955 C   0  0  0  0  0  0  0  0  0  0  0  0
    7.1193  -11.0835   26.0273 C   0  0  0  0  0  0  0  0  0  0  0  0
    8.0402  -11.6466   25.1686 C   0  0  0  0  0  0  0  0  0  0  0  0
    8.1311  -13.0171   24.9600 C   0  0  0  0  0  0  0  0  0  0  0  0
    7.2779  -13.8607   25.6270 C   0  0  0  0  0  0  0  0  0  0  0  0
    7.9165  -17.2490   22.5626 C   0  0  0  0  0  0  0  0  0  0  0  0
    8.3167  -18.4601   22.5043 O   0  0  0  0  0  0  0  0  0  0  0  0
    8.0500  -16.5245   18.5964 C   0  0  0  0  0  0  0  0  0  0  0  0
    9.3783  -16.2983   19.2404 C   0  0  1  0  0  0  0  0  0  0  0  0
    9.5947  -14.8948   19.2164 O   0  0  0  0  0  0  0  0  0  0  0  0
    9.4757  -16.7037   20.6588 C   0  0  2  0  0  0  0  0  0  0  0  0
    8.3315  -16.4556   21.4758 N   0  0  0  0  0  0  0  0  0  0  0  0
   10.7461  -16.2363   21.3128 C   0  0  0  0  0  0  0  0  0  0  0  0
   10.7663  -15.1893   22.0041 O   0  0  0  0  0  0  0  0  0  0  0  0
   11.3534  -19.7277   25.4761 N   0  0  0  0  0  0  0  0  0  0  0  0
   12.4403  -18.8528   25.7022 C   0  0  0  0  0  0  0  0  0  0  0  0
   12.8624  -18.6987   26.8644 O   0  0  0  0  0  0  0  0  0  0  0  0
   13.0749  -18.1242   24.5861 C   0  0  0  0  0  0  0  0  0  0  0  0
   12.2179  -17.9722   23.3659 C   0  0  0  0  0  0  0  0  0  0  0  0
   12.8794  -17.1977   22.2874 C   0  0  2  0  0  0  0  0  0  0  0  0
   11.9538  -16.9661   21.1651 N   0  0  0  0  0  0  0  0  0  0  0  0
   14.0953  -17.8747   21.8221 C   0  0  0  0  0  0  0  0  0  0  0  0
   15.2199  -17.3761   22.1747 O   0  0  0  0  0  0  0  0  0  0  0  0
   14.1819  -19.0010   21.0416 O   0  0  0  0  0  0  0  0  0  0  0  0
  2  1  1  1
  3  2  1  0
  3  4  1  0
  4  5  2  0
  5  6  1  0
  7  6  1  0
  8  7  2  0
  9  8  1  0
 10 11  1  0
 10  9  2  0
 11 12  2  0
 12  4  1  0
 12  7  1  0
 13  2  1  0
 13 19  1  0
 14 13  2  0
 16 15  1  1
 16 18  1  0
 17 16  1  0
 18 19  1  1
 20 18  1  0
 21 20  2  0
 23 22  1  0
 24 23  2  0
 25 23  1  0
 27 26  1  1
 26 25  1  0
 27 28  1  0
 28 20  1  0
 29 31  1  0
 29 27  1  0
 30 29  2  0
M  END
$$$$
