WTQ.pdb
     RDKit          3D

 31 32  0  0  1  0  0  0  0  0999 V2000
    6.4834  -16.3523   25.8128 N   0  0  0  0  0  0  0  0  0  0  0  0
    7.2606  -15.5720   24.8734 C   0  0  1  0  0  0  0  0  0  0  0  0
    8.5194  -15.1396   25.5912 C   0  0  0  0  0  0  0  0  0  0  0  0
    8.2258  -14.0687   26.5889 C   0  0  0  0  0  0  0  0  0  0  0  0
    8.7760  -13.9554   27.8722 C   0  0  0  0  0  0  0  0  0  0  0  0
    8.2740  -12.8655   28.4800 N   0  0  0  0  0  0  0  0  0  0  0  0
    7.4060  -12.2377   27.6578 C   0  0  0  0  0  0  0  0  0  0  0  0
    6.6474  -11.0965   27.8200 C   0  0  0  0  0  0  0  0  0  0  0  0
    5.8256  -10.6626   26.7998 C   0  0  0  0  0  0  0  0  0  0  0  0
    5.8000  -11.4072   25.6390 C   0  0  0  0  0  0  0  0  0  0  0  0
    6.5608  -12.5569   25.4683 C   0  0  0  0  0  0  0  0  0  0  0  0
    7.3772  -12.9848   26.4857 C   0  0  0  0  0  0  0  0  0  0  0  0
    7.5235  -16.2768   23.6171 C   0  0  0  0  0  0  0  0  0  0  0  0
    7.4836  -17.5524   23.5767 O   0  0  0  0  0  0  0  0  0  0  0  0
    6.8965  -14.8464   19.8251 C   0  0  0  0  0  0  0  0  0  0  0  0
    8.1226  -15.6929   19.9263 C   0  0  1  0  0  0  0  0  0  0  0  0
    9.2244  -14.8148   19.7464 O   0  0  0  0  0  0  0  0  0  0  0  0
    8.3343  -16.3538   21.2317 C   0  0  2  0  0  0  0  0  0  0  0  0
    7.8324  -15.6740   22.3825 N   0  0  0  0  0  0  0  0  0  0  0  0
    9.7503  -16.8198   21.4265 C   0  0  0  0  0  0  0  0  0  0  0  0
   10.5449  -16.1766   22.1541 O   0  0  0  0  0  0  0  0  0  0  0  0
   12.2712  -21.5512   23.1992 N   0  0  0  0  0  0  0  0  0  0  0  0
   13.2464  -21.3853   22.1895 C   0  0  0  0  0  0  0  0  0  0  0  0
   14.3677  -21.9079   22.3385 O   0  0  0  0  0  0  0  0  0  0  0  0
   12.9543  -20.6047   20.9710 C   0  0  0  0  0  0  0  0  0  0  0  0
   11.5762  -20.0180   20.9150 C   0  0  0  0  0  0  0  0  0  0  0  0
   11.5715  -18.5397   21.0392 C   0  0  2  0  0  0  0  0  0  0  0  0
   10.2242  -17.9975   20.7930 N   0  0  0  0  0  0  0  0  0  0  0  0
   12.5472  -17.9312   20.1276 C   0  0  0  0  0  0  0  0  0  0  0  0
   12.1196  -17.5236   18.9925 O   0  0  0  0  0  0  0  0  0  0  0  0
   13.8892  -17.7369   20.3433 O   0  0  0  0  0  0  0  0  0  0  0  0
  2  1  1  1
  3  2  1  0
  3  4  1  0
  4  5  2  0
  5  6  1  0
  7  6  1  0
  8  7  2  0
  9  8  1  0
 10 11  1  0
 10  9  2  0
 11 12  2  0
 12  4  1  0
 12  7  1  0
 13  2  1  0
 13 19  1  0
 14 13  2  0
 16 15  1  1
 16 18  1  0
 17 16  1  0
 18 19  1  1
 20 18  1  0
 21 20  2  0
 23 22  1  0
 24 23  2  0
 25 23  1  0
 27 26  1  6
 26 25  1  0
 27 28  1  0
 28 20  1  0
 29 31  1  0
 29 27  1  0
 30 29  2  0
M  END
$$$$
