AVV.pdb
     RDKit          3D

 20 19  0  0  1  0  0  0  0  0999 V2000
    6.7780  -16.5485   21.8725 C   0  0  0  0  0  0  0  0  0  0  0  0
    6.9452  -15.0673   21.6156 C   0  0  2  0  0  0  0  0  0  0  0  0
    7.7049  -14.8162   20.4071 N   0  0  0  0  0  0  0  0  0  0  0  0
    7.6780  -14.4807   22.7472 C   0  0  0  0  0  0  0  0  0  0  0  0
    8.9489  -14.5401   22.7404 O   0  0  0  0  0  0  0  0  0  0  0  0
    5.8435  -12.8500   26.3535 C   0  0  0  0  0  0  0  0  0  0  0  0
    7.1354  -12.3343   25.7878 C   0  0  1  0  0  0  0  0  0  0  0  0
    8.0272  -11.8561   26.8908 C   0  0  0  0  0  0  0  0  0  0  0  0
    7.8655  -13.3662   24.9641 C   0  0  2  0  0  0  0  0  0  0  0  0
    7.0837  -13.8461   23.8603 N   0  0  0  0  0  0  0  0  0  0  0  0
    8.3282  -14.4967   25.8397 C   0  0  0  0  0  0  0  0  0  0  0  0
    7.5316  -15.4408   26.0756 O   0  0  0  0  0  0  0  0  0  0  0  0
   11.8038  -17.4119   27.4209 C   0  0  0  0  0  0  0  0  0  0  0  0
   11.4492  -16.1573   26.6659 C   0  0  1  0  0  0  0  0  0  0  0  0
   11.6000  -16.3705   25.1963 C   0  0  0  0  0  0  0  0  0  0  0  0
   10.0651  -15.7251   27.0776 C   0  0  2  0  0  0  0  0  0  0  0  0
    9.6166  -14.5457   26.4089 N   0  0  0  0  0  0  0  0  0  0  0  0
   10.1075  -15.5003   28.5593 C   0  0  0  0  0  0  0  0  0  0  0  0
   10.0140  -16.5249   29.4648 O   0  0  0  0  0  0  0  0  0  0  0  0
   10.2338  -14.3282   29.0003 O   0  0  0  0  0  0  0  0  0  0  0  0
  2  1  1  1
  2  4  1  0
  3  2  1  0
  4  5  2  0
  7  6  1  1
  7  9  1  0
  7  8  1  0
  9 11  1  0
 10  4  1  0
  9 10  1  6
 11 12  2  0
 14 13  1  1
 14 15  1  0
 14 16  1  0
 16 18  1  0
 16 17  1  6
 17 11  1  0
 18 20  2  0
 18 19  1  0
M  END
$$$$
