AVV.pdb
     RDKit          3D

 20 19  0  0  1  0  0  0  0  0999 V2000
   12.6527  -18.3460   21.7642 C   0  0  0  0  0  0  0  0  0  0  0  0
   11.8446  -17.3340   20.9829 C   0  0  2  0  0  0  0  0  0  0  0  0
   12.6851  -16.5328   20.1153 N   0  0  0  0  0  0  0  0  0  0  0  0
   11.1822  -16.4333   21.9377 C   0  0  0  0  0  0  0  0  0  0  0  0
   11.8538  -15.4683   22.4241 O   0  0  0  0  0  0  0  0  0  0  0  0
    7.1473  -14.6734   24.2438 C   0  0  0  0  0  0  0  0  0  0  0  0
    7.7751  -15.4908   23.1517 C   0  0  1  0  0  0  0  0  0  0  0  0
    7.4698  -14.8884   21.8158 C   0  0  0  0  0  0  0  0  0  0  0  0
    9.2692  -15.6282   23.3103 C   0  0  2  0  0  0  0  0  0  0  0  0
    9.8424  -16.5480   22.3694 N   0  0  0  0  0  0  0  0  0  0  0  0
    9.6083  -16.0088   24.7240 C   0  0  0  0  0  0  0  0  0  0  0  0
    9.9872  -17.1851   24.9568 O   0  0  0  0  0  0  0  0  0  0  0  0
   10.6994  -14.7439   29.3338 C   0  0  0  0  0  0  0  0  0  0  0  0
    9.9307  -14.3483   28.0999 C   0  0  1  0  0  0  0  0  0  0  0  0
   10.3719  -13.0070   27.6161 C   0  0  0  0  0  0  0  0  0  0  0  0
   10.0768  -15.4421   27.0730 C   0  0  2  0  0  0  0  0  0  0  0  0
    9.5203  -15.1049   25.8019 N   0  0  0  0  0  0  0  0  0  0  0  0
    9.3960  -16.6538   27.6353 C   0  0  0  0  0  0  0  0  0  0  0  0
   10.0572  -17.5908   28.3860 O   0  0  0  0  0  0  0  0  0  0  0  0
    8.1689  -16.8276   27.4156 O   0  0  0  0  0  0  0  0  0  0  0  0
  2  1  1  1
  2  4  1  0
  3  2  1  0
  4  5  2  0
  7  6  1  1
  7  9  1  0
  7  8  1  0
  9 11  1  0
 10  4  1  0
  9 10  1  6
 11 12  2  0
 14 13  1  1
 14 15  1  0
 14 16  1  0
 16 18  1  0
 16 17  1  6
 17 11  1  0
 18 20  2  0
 18 19  1  0
M  END
$$$$
