AVV.pdb
     RDKit          3D

 20 19  0  0  1  0  0  0  0  0999 V2000
    7.6363  -18.6867   17.5351 C   0  0  0  0  0  0  0  0  0  0  0  0
    8.2087  -17.4557   16.8684 C   0  0  2  0  0  0  0  0  0  0  0  0
    9.2734  -17.7935   15.9446 N   0  0  0  0  0  0  0  0  0  0  0  0
    8.7670  -16.5816   17.9105 C   0  0  0  0  0  0  0  0  0  0  0  0
    9.9567  -16.7971   18.3067 O   0  0  0  0  0  0  0  0  0  0  0  0
    6.5082  -13.6595   20.2349 C   0  0  0  0  0  0  0  0  0  0  0  0
    7.9441  -13.4506   19.8479 C   0  0  1  0  0  0  0  0  0  0  0  0
    8.6596  -12.6826   20.9152 C   0  0  0  0  0  0  0  0  0  0  0  0
    8.6731  -14.7455   19.5873 C   0  0  2  0  0  0  0  0  0  0  0  0
    8.0860  -15.5051   18.5204 N   0  0  0  0  0  0  0  0  0  0  0  0
    8.7619  -15.5545   20.8508 C   0  0  0  0  0  0  0  0  0  0  0  0
    7.7745  -16.2569   21.1869 O   0  0  0  0  0  0  0  0  0  0  0  0
   11.1179  -18.2607   21.5905 C   0  0  0  0  0  0  0  0  0  0  0  0
   11.2139  -17.3257   22.7680 C   0  0  1  0  0  0  0  0  0  0  0  0
   12.4942  -16.5597   22.7249 C   0  0  0  0  0  0  0  0  0  0  0  0
    9.9850  -16.4531   22.7885 C   0  0  2  0  0  0  0  0  0  0  0  0
    9.9041  -15.5608   21.6766 N   0  0  0  0  0  0  0  0  0  0  0  0
   10.0262  -15.6822   24.0738 C   0  0  0  0  0  0  0  0  0  0  0  0
    9.7105  -16.2450   25.2830 O   0  0  0  0  0  0  0  0  0  0  0  0
   10.3627  -14.4695   24.0533 O   0  0  0  0  0  0  0  0  0  0  0  0
  2  1  1  1
  2  4  1  0
  3  2  1  0
  4  5  2  0
  7  6  1  1
  7  9  1  0
  7  8  1  0
  9 11  1  0
 10  4  1  0
  9 10  1  6
 11 12  2  0
 14 13  1  6
 14 15  1  0
 14 16  1  0
 16 18  1  0
 16 17  1  6
 17 11  1  0
 18 20  2  0
 18 19  1  0
M  END
$$$$
