AVV.pdb
     RDKit          3D

 20 19  0  0  1  0  0  0  0  0999 V2000
    8.2541  -16.9343   21.5320 C   0  0  0  0  0  0  0  0  0  0  0  0
    7.7854  -15.4993   21.4377 C   0  0  2  0  0  0  0  0  0  0  0  0
    8.3390  -14.8308   20.2768 N   0  0  0  0  0  0  0  0  0  0  0  0
    8.2404  -14.7834   22.6386 C   0  0  0  0  0  0  0  0  0  0  0  0
    9.3914  -14.2415   22.6195 O   0  0  0  0  0  0  0  0  0  0  0  0
    6.4125  -12.1178   25.1139 C   0  0  0  0  0  0  0  0  0  0  0  0
    7.0076  -13.3006   25.8223 C   0  0  1  0  0  0  0  0  0  0  0  0
    5.9314  -14.2681   26.2048 C   0  0  0  0  0  0  0  0  0  0  0  0
    8.0511  -14.0117   24.9966 C   0  0  2  0  0  0  0  0  0  0  0  0
    7.4983  -14.6425   23.8319 N   0  0  0  0  0  0  0  0  0  0  0  0
    8.8038  -14.9959   25.8471 C   0  0  0  0  0  0  0  0  0  0  0  0
    8.7548  -16.2154   25.5437 O   0  0  0  0  0  0  0  0  0  0  0  0
   12.1203  -13.9268   28.1837 C   0  0  0  0  0  0  0  0  0  0  0  0
   11.2000  -14.9690   28.7640 C   0  0  1  0  0  0  0  0  0  0  0  0
   10.3750  -14.3855   29.8624 C   0  0  0  0  0  0  0  0  0  0  0  0
   10.3856  -15.5658   27.6447 C   0  0  2  0  0  0  0  0  0  0  0  0
    9.5632  -14.6125   26.9708 N   0  0  0  0  0  0  0  0  0  0  0  0
    9.5413  -16.6442   28.2547 C   0  0  0  0  0  0  0  0  0  0  0  0
   10.0605  -17.8429   28.6695 O   0  0  0  0  0  0  0  0  0  0  0  0
    8.3055  -16.4519   28.3962 O   0  0  0  0  0  0  0  0  0  0  0  0
  2  1  1  1
  2  4  1  0
  3  2  1  0
  4  5  2  0
  7  6  1  6
  7  9  1  0
  7  8  1  0
  9 11  1  0
 10  4  1  0
  9 10  1  6
 11 12  2  0
 14 13  1  6
 14 15  1  0
 14 16  1  0
 16 18  1  0
 16 17  1  1
 17 11  1  0
 18 20  2  0
 18 19  1  0
M  END
$$$$
