AVV.pdb
     RDKit          3D

 20 19  0  0  1  0  0  0  0  0999 V2000
   10.8617  -18.5881   21.3087 C   0  0  0  0  0  0  0  0  0  0  0  0
   10.1569  -17.3125   20.9039 C   0  0  2  0  0  0  0  0  0  0  0  0
   10.8638  -16.6246   19.8417 N   0  0  0  0  0  0  0  0  0  0  0  0
   10.1054  -16.4209   22.0718 C   0  0  0  0  0  0  0  0  0  0  0  0
   11.0882  -15.6400   22.2800 O   0  0  0  0  0  0  0  0  0  0  0  0
    7.1045  -14.0634   22.9771 C   0  0  0  0  0  0  0  0  0  0  0  0
    7.6047  -14.7757   24.2008 C   0  0  1  0  0  0  0  0  0  0  0  0
    6.6599  -15.8727   24.5815 C   0  0  0  0  0  0  0  0  0  0  0  0
    8.9893  -15.3468   24.0192 C   0  0  2  0  0  0  0  0  0  0  0  0
    9.0418  -16.3546   22.9986 N   0  0  0  0  0  0  0  0  0  0  0  0
    9.5124  -15.8662   25.3289 C   0  0  0  0  0  0  0  0  0  0  0  0
    9.9831  -17.0317   25.3699 O   0  0  0  0  0  0  0  0  0  0  0  0
   11.1016  -15.0677   29.8939 C   0  0  0  0  0  0  0  0  0  0  0  0
   10.1772  -14.5726   28.8121 C   0  0  1  0  0  0  0  0  0  0  0  0
   10.5355  -13.1793   28.4146 C   0  0  0  0  0  0  0  0  0  0  0  0
   10.2060  -15.5560   27.6700 C   0  0  2  0  0  0  0  0  0  0  0  0
    9.4988  -15.1043   26.5145 N   0  0  0  0  0  0  0  0  0  0  0  0
    9.6055  -16.8300   28.1840 C   0  0  0  0  0  0  0  0  0  0  0  0
   10.3538  -17.8112   28.7805 O   0  0  0  0  0  0  0  0  0  0  0  0
    8.3661  -17.0164   28.0683 O   0  0  0  0  0  0  0  0  0  0  0  0
  2  1  1  1
  2  4  1  0
  3  2  1  0
  4  5  2  0
  7  6  1  6
  7  9  1  0
  7  8  1  0
  9 11  1  0
 10  4  1  0
  9 10  1  6
 11 12  2  0
 14 13  1  1
 14 15  1  0
 14 16  1  0
 16 18  1  0
 16 17  1  6
 17 11  1  0
 18 20  2  0
 18 19  1  0
M  END
$$$$
