AVV.pdb
     RDKit          3D

 20 19  0  0  1  0  0  0  0  0999 V2000
   12.4849  -17.7774   22.5712 C   0  0  0  0  0  0  0  0  0  0  0  0
   11.6936  -17.3168   21.3672 C   0  0  2  0  0  0  0  0  0  0  0  0
   12.5587  -16.8132   20.3190 N   0  0  0  0  0  0  0  0  0  0  0  0
   10.8021  -16.2261   21.7884 C   0  0  0  0  0  0  0  0  0  0  0  0
   11.2954  -15.0614   21.9267 O   0  0  0  0  0  0  0  0  0  0  0  0
    7.2875  -15.2516   20.2266 C   0  0  0  0  0  0  0  0  0  0  0  0
    7.2326  -15.3127   21.7260 C   0  0  1  0  0  0  0  0  0  0  0  0
    6.5548  -16.5727   22.1664 C   0  0  0  0  0  0  0  0  0  0  0  0
    8.5969  -15.2275   22.3645 C   0  0  2  0  0  0  0  0  0  0  0  0
    9.4222  -16.3610   22.0575 N   0  0  0  0  0  0  0  0  0  0  0  0
    8.4642  -15.0329   23.8487 C   0  0  0  0  0  0  0  0  0  0  0  0
    9.0393  -15.8459   24.6167 O   0  0  0  0  0  0  0  0  0  0  0  0
    6.8347  -12.5880   27.7782 C   0  0  0  0  0  0  0  0  0  0  0  0
    6.7665  -12.6917   26.2767 C   0  0  1  0  0  0  0  0  0  0  0  0
    7.1516  -11.3956   25.6445 C   0  0  0  0  0  0  0  0  0  0  0  0
    7.6159  -13.8570   25.8377 C   0  0  2  0  0  0  0  0  0  0  0  0
    7.7228  -13.9785   24.4189 N   0  0  0  0  0  0  0  0  0  0  0  0
    6.9909  -15.0888   26.4209 C   0  0  0  0  0  0  0  0  0  0  0  0
    7.4964  -15.7205   27.5272 O   0  0  0  0  0  0  0  0  0  0  0  0
    5.9608  -15.5704   25.8812 O   0  0  0  0  0  0  0  0  0  0  0  0
  2  1  1  1
  2  4  1  0
  3  2  1  0
  4  5  2  0
  7  6  1  6
  7  9  1  0
  7  8  1  0
  9 11  1  0
 10  4  1  0
  9 10  1  1
 11 12  2  0
 14 13  1  1
 14 15  1  0
 14 16  1  0
 16 18  1  0
 16 17  1  6
 17 11  1  0
 18 20  2  0
 18 19  1  0
M  END
$$$$
