AVV.pdb
     RDKit          3D

 20 19  0  0  1  0  0  0  0  0999 V2000
    6.6386  -19.0210   25.7207 C   0  0  0  0  0  0  0  0  0  0  0  0
    6.6236  -19.1461   24.2135 C   0  0  2  0  0  0  0  0  0  0  0  0
    7.1164  -20.4381   23.7788 N   0  0  0  0  0  0  0  0  0  0  0  0
    7.5027  -18.1090   23.6538 C   0  0  0  0  0  0  0  0  0  0  0  0
    8.7596  -18.2354   23.8057 O   0  0  0  0  0  0  0  0  0  0  0  0
    6.1285  -14.4053   21.8382 C   0  0  0  0  0  0  0  0  0  0  0  0
    7.4021  -15.0817   21.4192 C   0  0  1  0  0  0  0  0  0  0  0  0
    8.4163  -14.0613   21.0055 C   0  0  0  0  0  0  0  0  0  0  0  0
    7.9833  -15.9556   22.5031 C   0  0  2  0  0  0  0  0  0  0  0  0
    7.0660  -16.9650   22.9501 N   0  0  0  0  0  0  0  0  0  0  0  0
    8.4673  -15.1103   23.6476 C   0  0  0  0  0  0  0  0  0  0  0  0
    9.4313  -14.3268   23.4523 O   0  0  0  0  0  0  0  0  0  0  0  0
    7.6352  -12.4273   27.4782 C   0  0  0  0  0  0  0  0  0  0  0  0
    7.1044  -13.5010   26.5643 C   0  0  1  0  0  0  0  0  0  0  0  0
    6.1466  -12.9216   25.5770 C   0  0  0  0  0  0  0  0  0  0  0  0
    8.2729  -14.2121   25.9310 C   0  0  2  0  0  0  0  0  0  0  0  0
    7.8881  -15.1569   24.9317 N   0  0  0  0  0  0  0  0  0  0  0  0
    9.0116  -14.8985   27.0405 C   0  0  0  0  0  0  0  0  0  0  0  0
    9.8505  -14.2298   27.8936 O   0  0  0  0  0  0  0  0  0  0  0  0
    8.8630  -16.1376   27.2044 O   0  0  0  0  0  0  0  0  0  0  0  0
  2  1  1  1
  2  4  1  0
  3  2  1  0
  4  5  2  0
  7  6  1  1
  7  9  1  0
  7  8  1  0
  9 11  1  0
 10  4  1  0
  9 10  1  1
 11 12  2  0
 14 13  1  6
 14 15  1  0
 14 16  1  0
 16 18  1  0
 16 17  1  6
 17 11  1  0
 18 20  2  0
 18 19  1  0
M  END
$$$$
