AVV.pdb
     RDKit          3D

 20 19  0  0  1  0  0  0  0  0999 V2000
    6.7575  -18.5704   18.0037 C   0  0  0  0  0  0  0  0  0  0  0  0
    7.2351  -17.2221   17.5120 C   0  0  2  0  0  0  0  0  0  0  0  0
    8.0207  -17.3422   16.2998 N   0  0  0  0  0  0  0  0  0  0  0  0
    8.0859  -16.6246   18.5516 C   0  0  0  0  0  0  0  0  0  0  0  0
    9.2988  -17.0010   18.6302 O   0  0  0  0  0  0  0  0  0  0  0  0
    7.8293  -12.7110   19.7791 C   0  0  0  0  0  0  0  0  0  0  0  0
    8.0917  -13.6885   20.8885 C   0  0  1  0  0  0  0  0  0  0  0  0
    6.8504  -13.8940   21.6994 C   0  0  0  0  0  0  0  0  0  0  0  0
    8.5896  -15.0214   20.3868 C   0  0  2  0  0  0  0  0  0  0  0  0
    7.6669  -15.6526   19.4866 N   0  0  0  0  0  0  0  0  0  0  0  0
    8.9258  -15.9190   21.5444 C   0  0  0  0  0  0  0  0  0  0  0  0
    8.0110  -16.6185   22.0498 O   0  0  0  0  0  0  0  0  0  0  0  0
   11.2811  -18.7446   21.6191 C   0  0  0  0  0  0  0  0  0  0  0  0
   11.6701  -17.8683   22.7813 C   0  0  1  0  0  0  0  0  0  0  0  0
   12.9346  -17.1338   22.4828 C   0  0  0  0  0  0  0  0  0  0  0  0
   10.5081  -16.9669   23.1118 C   0  0  2  0  0  0  0  0  0  0  0  0
   10.2223  -16.0118   22.0893 N   0  0  0  0  0  0  0  0  0  0  0  0
   10.8547  -16.2705   24.3935 C   0  0  0  0  0  0  0  0  0  0  0  0
   10.8757  -16.9160   25.6024 O   0  0  0  0  0  0  0  0  0  0  0  0
   11.1393  -15.0446   24.3702 O   0  0  0  0  0  0  0  0  0  0  0  0
  2  1  1  1
  2  4  1  0
  3  2  1  0
  4  5  2  0
  7  6  1  6
  7  9  1  0
  7  8  1  0
  9 11  1  0
 10  4  1  0
  9 10  1  1
 11 12  2  0
 14 13  1  6
 14 15  1  0
 14 16  1  0
 16 18  1  0
 16 17  1  6
 17 11  1  0
 18 20  2  0
 18 19  1  0
M  END
$$$$
