AVV.pdb
     RDKit          3D

 20 19  0  0  1  0  0  0  0  0999 V2000
    6.5579  -16.5710   21.7859 C   0  0  0  0  0  0  0  0  0  0  0  0
    7.0410  -15.1504   21.5950 C   0  0  2  0  0  0  0  0  0  0  0  0
    7.9617  -15.0435   20.4806 N   0  0  0  0  0  0  0  0  0  0  0  0
    7.7483  -14.7337   22.8148 C   0  0  0  0  0  0  0  0  0  0  0  0
    8.9949  -14.9728   22.9022 O   0  0  0  0  0  0  0  0  0  0  0  0
    5.8747  -13.0303   26.3458 C   0  0  0  0  0  0  0  0  0  0  0  0
    7.2219  -12.5834   25.8556 C   0  0  1  0  0  0  0  0  0  0  0  0
    8.0855  -12.1852   27.0116 C   0  0  0  0  0  0  0  0  0  0  0  0
    7.9279  -13.6405   25.0429 C   0  0  2  0  0  0  0  0  0  0  0  0
    7.1542  -14.0799   23.9167 N   0  0  0  0  0  0  0  0  0  0  0  0
    8.3202  -14.7949   25.9215 C   0  0  0  0  0  0  0  0  0  0  0  0
    7.4527  -15.6615   26.2005 O   0  0  0  0  0  0  0  0  0  0  0  0
   11.1465  -17.1618   25.2749 C   0  0  0  0  0  0  0  0  0  0  0  0
   11.2806  -16.7353   26.7136 C   0  0  1  0  0  0  0  0  0  0  0  0
   12.4485  -15.8213   26.8819 C   0  0  0  0  0  0  0  0  0  0  0  0
    9.9716  -16.1358   27.1598 C   0  0  2  0  0  0  0  0  0  0  0  0
    9.6187  -14.9496   26.4473 N   0  0  0  0  0  0  0  0  0  0  0  0
   10.1091  -15.8431   28.6238 C   0  0  0  0  0  0  0  0  0  0  0  0
   10.2669  -16.8294   29.5625 O   0  0  0  0  0  0  0  0  0  0  0  0
   10.0801  -14.6480   29.0177 O   0  0  0  0  0  0  0  0  0  0  0  0
  2  1  1  1
  2  4  1  0
  3  2  1  0
  4  5  2  0
  7  6  1  1
  7  9  1  0
  7  8  1  0
  9 11  1  0
 10  4  1  0
  9 10  1  6
 11 12  2  0
 14 13  1  6
 14 15  1  0
 14 16  1  0
 16 18  1  0
 16 17  1  6
 17 11  1  0
 18 20  2  0
 18 19  1  0
M  END
$$$$
