AVV.pdb
     RDKit          3D

 20 19  0  0  1  0  0  0  0  0999 V2000
    6.3836  -18.7892   24.3039 C   0  0  0  0  0  0  0  0  0  0  0  0
    6.1053  -17.5714   23.4511 C   0  0  2  0  0  0  0  0  0  0  0  0
    6.4008  -17.8179   22.0536 N   0  0  0  0  0  0  0  0  0  0  0  0
    6.9674  -16.4744   23.9147 C   0  0  0  0  0  0  0  0  0  0  0  0
    8.1729  -16.4401   23.5090 O   0  0  0  0  0  0  0  0  0  0  0  0
    5.8264  -13.5285   26.9064 C   0  0  0  0  0  0  0  0  0  0  0  0
    6.8317  -13.2366   25.8298 C   0  0  1  0  0  0  0  0  0  0  0  0
    7.8711  -12.2869   26.3381 C   0  0  0  0  0  0  0  0  0  0  0  0
    7.5034  -14.4814   25.3049 C   0  0  2  0  0  0  0  0  0  0  0  0
    6.5671  -15.4375   24.7861 N   0  0  0  0  0  0  0  0  0  0  0  0
    8.3739  -15.0893   26.3685 C   0  0  0  0  0  0  0  0  0  0  0  0
    7.8393  -15.8264   27.2359 O   0  0  0  0  0  0  0  0  0  0  0  0
   12.7667  -16.5626   27.9003 C   0  0  0  0  0  0  0  0  0  0  0  0
   12.0269  -15.6855   26.9240 C   0  0  1  0  0  0  0  0  0  0  0  0
   12.2529  -16.1533   25.5248 C   0  0  0  0  0  0  0  0  0  0  0  0
   10.5739  -15.6439   27.3229 C   0  0  2  0  0  0  0  0  0  0  0  0
    9.7644  -14.8696   26.4372 N   0  0  0  0  0  0  0  0  0  0  0  0
   10.5242  -15.0728   28.7082 C   0  0  0  0  0  0  0  0  0  0  0  0
   10.2214  -13.7590   28.9550 O   0  0  0  0  0  0  0  0  0  0  0  0
   10.7685  -15.8203   29.6910 O   0  0  0  0  0  0  0  0  0  0  0  0
  2  1  1  1
  2  4  1  0
  3  2  1  0
  4  5  2  0
  7  6  1  1
  7  9  1  0
  7  8  1  0
  9 11  1  0
 10  4  1  0
  9 10  1  1
 11 12  2  0
 14 13  1  1
 14 15  1  0
 14 16  1  0
 16 18  1  0
 16 17  1  6
 17 11  1  0
 18 20  2  0
 18 19  1  0
M  END
$$$$
