AVV.pdb
     RDKit          3D

 20 19  0  0  1  0  0  0  0  0999 V2000
    7.2766  -16.9056   21.9047 C   0  0  0  0  0  0  0  0  0  0  0  0
    7.4063  -15.4078   21.7391 C   0  0  2  0  0  0  0  0  0  0  0  0
    8.3145  -15.0651   20.6626 N   0  0  0  0  0  0  0  0  0  0  0  0
    7.9446  -14.8485   22.9877 C   0  0  0  0  0  0  0  0  0  0  0  0
    9.2075  -14.8097   23.1377 O   0  0  0  0  0  0  0  0  0  0  0  0
    7.3884  -12.4382   27.3137 C   0  0  0  0  0  0  0  0  0  0  0  0
    6.8058  -12.9218   26.0169 C   0  0  1  0  0  0  0  0  0  0  0  0
    6.3581  -11.7591   25.1871 C   0  0  0  0  0  0  0  0  0  0  0  0
    7.7717  -13.7640   25.2206 C   0  0  2  0  0  0  0  0  0  0  0  0
    7.1685  -14.3418   24.0534 N   0  0  0  0  0  0  0  0  0  0  0  0
    8.3867  -14.8180   26.0978 C   0  0  0  0  0  0  0  0  0  0  0  0
    7.7098  -15.8408   26.3754 O   0  0  0  0  0  0  0  0  0  0  0  0
   12.2187  -17.2250   27.7669 C   0  0  0  0  0  0  0  0  0  0  0  0
   11.7123  -16.0600   26.9568 C   0  0  1  0  0  0  0  0  0  0  0  0
   11.9198  -16.3064   25.4994 C   0  0  0  0  0  0  0  0  0  0  0  0
   10.2745  -15.8053   27.3306 C   0  0  2  0  0  0  0  0  0  0  0  0
    9.6899  -14.7108   26.6238 N   0  0  0  0  0  0  0  0  0  0  0  0
   10.2536  -15.5434   28.8067 C   0  0  0  0  0  0  0  0  0  0  0  0
   10.3167  -16.5488   29.7361 O   0  0  0  0  0  0  0  0  0  0  0  0
   10.1753  -14.3571   29.2201 O   0  0  0  0  0  0  0  0  0  0  0  0
  2  1  1  1
  2  4  1  0
  3  2  1  0
  4  5  2  0
  7  6  1  1
  7  9  1  0
  7  8  1  0
  9 11  1  0
 10  4  1  0
  9 10  1  6
 11 12  2  0
 14 13  1  1
 14 15  1  0
 14 16  1  0
 16 18  1  0
 16 17  1  6
 17 11  1  0
 18 20  2  0
 18 19  1  0
M  END
$$$$
