AVV.pdb
     RDKit          3D

 20 19  0  0  1  0  0  0  0  0999 V2000
   11.9461  -16.4440   21.0271 C   0  0  0  0  0  0  0  0  0  0  0  0
   10.6593  -17.2075   20.8058 C   0  0  2  0  0  0  0  0  0  0  0  0
   10.1760  -17.0592   19.4473 N   0  0  0  0  0  0  0  0  0  0  0  0
    9.6384  -16.6686   21.7163 C   0  0  0  0  0  0  0  0  0  0  0  0
    8.9962  -15.6303   21.3577 O   0  0  0  0  0  0  0  0  0  0  0  0
    8.2766  -18.6505   25.3355 C   0  0  0  0  0  0  0  0  0  0  0  0
    7.4224  -17.8138   24.4269 C   0  0  1  0  0  0  0  0  0  0  0  0
    6.2835  -17.2176   25.1939 C   0  0  0  0  0  0  0  0  0  0  0  0
    8.1981  -16.7141   23.7449 C   0  0  2  0  0  0  0  0  0  0  0  0
    9.3027  -17.2123   22.9757 N   0  0  0  0  0  0  0  0  0  0  0  0
    8.6487  -15.6946   24.7530 C   0  0  0  0  0  0  0  0  0  0  0  0
    9.8201  -15.7704   25.2042 O   0  0  0  0  0  0  0  0  0  0  0  0
    7.4682  -11.7019   25.2220 C   0  0  0  0  0  0  0  0  0  0  0  0
    7.3715  -12.5784   26.4435 C   0  0  1  0  0  0  0  0  0  0  0  0
    5.9483  -12.9307   26.7236 C   0  0  0  0  0  0  0  0  0  0  0  0
    8.2656  -13.7758   26.2463 C   0  0  2  0  0  0  0  0  0  0  0  0
    7.8157  -14.6561   25.2158 N   0  0  0  0  0  0  0  0  0  0  0  0
    8.3175  -14.4951   27.5607 C   0  0  0  0  0  0  0  0  0  0  0  0
    9.0023  -14.0071   28.6431 O   0  0  0  0  0  0  0  0  0  0  0  0
    7.7120  -15.5914   27.6864 O   0  0  0  0  0  0  0  0  0  0  0  0
  2  1  1  6
  2  4  1  0
  3  2  1  0
  4  5  2  0
  7  6  1  1
  7  9  1  0
  7  8  1  0
  9 11  1  0
 10  4  1  0
  9 10  1  1
 11 12  2  0
 14 13  1  6
 14 15  1  0
 14 16  1  0
 16 18  1  0
 16 17  1  6
 17 11  1  0
 18 20  2  0
 18 19  1  0
M  END
$$$$
