WWI.pdb
     RDKit          3D

 37 40  0  0  1  0  0  0  0  0999 V2000
   25.6904  -20.0822  -14.8893 N   0  0  0  0  0  0  0  0  0  0  0  0
   26.0836  -20.9478  -13.7596 C   0  0  1  0  0  0  0  0  0  0  0  0
   27.4481  -21.4912  -13.9636 C   0  0  0  0  0  0  0  0  0  0  0  0
   27.5841  -22.4852  -15.0399 C   0  0  0  0  0  0  0  0  0  0  0  0
   28.4566  -22.4754  -16.0964 C   0  0  0  0  0  0  0  0  0  0  0  0
   28.2579  -23.5953  -16.7973 N   0  0  0  0  0  0  0  0  0  0  0  0
   27.2735  -24.3342  -16.2194 C   0  0  0  0  0  0  0  0  0  0  0  0
   26.7094  -25.5594  -16.5512 C   0  0  0  0  0  0  0  0  0  0  0  0
   25.7169  -26.0470  -15.7403 C   0  0  0  0  0  0  0  0  0  0  0  0
   25.2687  -25.3709  -14.6248 C   0  0  0  0  0  0  0  0  0  0  0  0
   25.8359  -24.1470  -14.2971 C   0  0  0  0  0  0  0  0  0  0  0  0
   26.8295  -23.6642  -15.1131 C   0  0  0  0  0  0  0  0  0  0  0  0
   26.0813  -20.0603  -12.5373 C   0  0  0  0  0  0  0  0  0  0  0  0
   26.5581  -18.9160  -12.6662 O   0  0  0  0  0  0  0  0  0  0  0  0
   25.5582  -20.5305  -11.3177 N   0  0  0  0  0  0  0  0  0  0  0  0
   25.5251  -19.8057  -10.1130 C   0  0  1  0  0  0  0  0  0  0  0  0
   24.1896  -19.2262   -9.8033 C   0  0  0  0  0  0  0  0  0  0  0  0
   23.0383  -20.1320   -9.9744 C   0  0  0  0  0  0  0  0  0  0  0  0
   22.3001  -20.2687  -11.1355 C   0  0  0  0  0  0  0  0  0  0  0  0
   21.3394  -21.2218  -10.9747 N   0  0  0  0  0  0  0  0  0  0  0  0
   21.4314  -21.7076   -9.7430 C   0  0  0  0  0  0  0  0  0  0  0  0
   20.6912  -22.6644   -9.0897 C   0  0  0  0  0  0  0  0  0  0  0  0
   20.9794  -22.9838   -7.7748 C   0  0  0  0  0  0  0  0  0  0  0  0
   22.0036  -22.3470   -7.1190 C   0  0  0  0  0  0  0  0  0  0  0  0
   22.7390  -21.3796   -7.8073 C   0  0  0  0  0  0  0  0  0  0  0  0
   22.4713  -21.0499   -9.1088 C   0  0  0  0  0  0  0  0  0  0  0  0
   26.0344  -20.6608   -8.9830 C   0  0  0  0  0  0  0  0  0  0  0  0
   25.9979  -21.8977   -8.9455 O   0  0  0  0  0  0  0  0  0  0  0  0
   30.4890  -19.6638   -4.8486 C   0  0  0  0  0  0  0  0  0  0  0  0
   29.3392  -20.5218   -5.3573 C   0  0  0  0  0  0  0  0  0  0  0  0
   28.5209  -19.7943   -6.3925 C   0  0  2  0  0  0  0  0  0  0  0  0
   28.1961  -18.4226   -5.8723 C   0  0  0  0  0  0  0  0  0  0  0  0
   27.3613  -20.6193   -6.8144 C   0  0  2  0  0  0  0  0  0  0  0  0
   26.5973  -19.9852   -7.8859 N   0  0  0  0  0  0  0  0  0  0  0  0
   26.4271  -20.8231   -5.7113 C   0  0  0  0  0  0  0  0  0  0  0  0
   25.3006  -20.2766   -5.7262 O   0  0  0  0  0  0  0  0  0  0  0  0
   26.7338  -21.6089   -4.6304 O   0  0  0  0  0  0  0  0  0  0  0  0
  2  3  1  0
  2  1  1  6
  4  3  1  0
  4  5  2  0
  6  5  1  0
  7 12  2  0
  7  6  1  0
  8  7  1  0
  9 10  1  0
  9  8  2  0
 10 11  2  0
 11 12  1  0
 12  4  1  0
 13  2  1  0
 14 13  2  0
 15 13  1  0
 16 17  1  1
 16 15  1  0
 18 17  1  0
 19 18  2  0
 20 19  1  0
 21 20  1  0
 21 26  2  0
 22 23  2  0
 22 21  1  0
 23 24  1  0
 24 25  2  0
 26 25  1  0
 26 18  1  0
 27 16  1  0
 28 27  2  0
 30 29  1  0
 31 30  1  0
 31 32  1  1
 33 31  1  0
 33 34  1  6
 34 27  1  0
 35 37  1  0
 35 33  1  0
 36 35  2  0
M  END
$$$$
