WWI.pdb
     RDKit          3D

 37 40  0  0  1  0  0  0  0  0999 V2000
   28.5855  -20.7647  -16.2296 N   0  0  0  0  0  0  0  0  0  0  0  0
   27.6965  -20.0550  -15.2882 C   0  0  1  0  0  0  0  0  0  0  0  0
   26.6472  -19.3050  -16.0197 C   0  0  0  0  0  0  0  0  0  0  0  0
   27.1115  -18.1291  -16.7724 C   0  0  0  0  0  0  0  0  0  0  0  0
   27.3405  -18.0219  -18.1191 C   0  0  0  0  0  0  0  0  0  0  0  0
   27.7092  -16.7623  -18.3691 N   0  0  0  0  0  0  0  0  0  0  0  0
   27.7257  -16.0469  -17.2129 C   0  0  0  0  0  0  0  0  0  0  0  0
   28.0280  -14.7186  -16.9417 C   0  0  0  0  0  0  0  0  0  0  0  0
   27.9391  -14.2953  -15.6403 C   0  0  0  0  0  0  0  0  0  0  0  0
   27.5657  -15.1327  -14.6099 C   0  0  0  0  0  0  0  0  0  0  0  0
   27.2643  -16.4593  -14.8861 C   0  0  0  0  0  0  0  0  0  0  0  0
   27.3549  -16.8769  -16.1914 C   0  0  0  0  0  0  0  0  0  0  0  0
   27.0442  -21.1264  -14.4466 C   0  0  0  0  0  0  0  0  0  0  0  0
   26.6724  -22.1609  -15.0337 O   0  0  0  0  0  0  0  0  0  0  0  0
   26.8751  -20.9385  -13.0616 N   0  0  0  0  0  0  0  0  0  0  0  0
   26.0813  -21.7407  -12.2224 C   0  0  1  0  0  0  0  0  0  0  0  0
   26.7231  -22.0535  -10.9165 C   0  0  0  0  0  0  0  0  0  0  0  0
   26.5111  -21.0668   -9.8410 C   0  0  0  0  0  0  0  0  0  0  0  0
   25.3828  -20.2812   -9.6940 C   0  0  0  0  0  0  0  0  0  0  0  0
   25.4845  -19.5140   -8.5724 N   0  0  0  0  0  0  0  0  0  0  0  0
   26.6460  -19.7776   -7.9868 C   0  0  0  0  0  0  0  0  0  0  0  0
   27.2242  -19.2632   -6.8505 C   0  0  0  0  0  0  0  0  0  0  0  0
   28.4768  -19.6969   -6.4544 C   0  0  0  0  0  0  0  0  0  0  0  0
   29.1458  -20.6403   -7.1940 C   0  0  0  0  0  0  0  0  0  0  0  0
   28.5344  -21.1455   -8.3435 C   0  0  0  0  0  0  0  0  0  0  0  0
   27.2950  -20.7313   -8.7519 C   0  0  0  0  0  0  0  0  0  0  0  0
   24.7263  -21.1101  -12.0378 C   0  0  0  0  0  0  0  0  0  0  0  0
   24.5136  -19.9998  -11.5333 O   0  0  0  0  0  0  0  0  0  0  0  0
   22.6994  -20.6767  -16.4988 C   0  0  0  0  0  0  0  0  0  0  0  0
   22.8795  -20.4725  -15.0012 C   0  0  0  0  0  0  0  0  0  0  0  0
   21.9607  -21.3635  -14.2060 C   0  0  2  0  0  0  0  0  0  0  0  0
   20.5397  -21.0321  -14.5645 C   0  0  0  0  0  0  0  0  0  0  0  0
   22.2964  -21.3021  -12.7615 C   0  0  2  0  0  0  0  0  0  0  0  0
   23.6192  -21.8548  -12.4813 N   0  0  0  0  0  0  0  0  0  0  0  0
   21.3514  -22.0788  -11.9648 C   0  0  0  0  0  0  0  0  0  0  0  0
   20.4895  -21.5012  -11.2636 O   0  0  0  0  0  0  0  0  0  0  0  0
   21.3626  -23.4497  -11.9497 O   0  0  0  0  0  0  0  0  0  0  0  0
  2  3  1  0
  2  1  1  6
  4  3  1  0
  4  5  2  0
  6  5  1  0
  7 12  2  0
  7  6  1  0
  8  7  1  0
  9 10  1  0
  9  8  2  0
 10 11  2  0
 11 12  1  0
 12  4  1  0
 13  2  1  0
 14 13  2  0
 15 13  1  0
 16 17  1  1
 16 15  1  0
 18 17  1  0
 19 18  2  0
 20 19  1  0
 21 20  1  0
 21 26  2  0
 22 23  2  0
 22 21  1  0
 23 24  1  0
 24 25  2  0
 26 25  1  0
 26 18  1  0
 27 16  1  0
 28 27  2  0
 30 29  1  0
 31 30  1  0
 31 32  1  1
 33 31  1  0
 33 34  1  6
 34 27  1  0
 35 37  1  0
 35 33  1  0
 36 35  2  0
M  END
$$$$
