WWI.pdb
     RDKit          3D

 37 40  0  0  1  0  0  0  0  0999 V2000
   23.1891  -21.2644  -15.9397 N   0  0  0  0  0  0  0  0  0  0  0  0
   23.4644  -20.1632  -14.9954 C   0  0  1  0  0  0  0  0  0  0  0  0
   22.2013  -19.5400  -14.5317 C   0  0  0  0  0  0  0  0  0  0  0  0
   21.4135  -18.8504  -15.5655 C   0  0  0  0  0  0  0  0  0  0  0  0
   20.1378  -19.1261  -15.9825 C   0  0  0  0  0  0  0  0  0  0  0  0
   19.8084  -18.2201  -16.9076 N   0  0  0  0  0  0  0  0  0  0  0  0
   20.8436  -17.3602  -17.1021 C   0  0  0  0  0  0  0  0  0  0  0  0
   20.9984  -16.2594  -17.9350 C   0  0  0  0  0  0  0  0  0  0  0  0
   22.1907  -15.5836  -17.8867 C   0  0  0  0  0  0  0  0  0  0  0  0
   23.2233  -15.9561  -17.0516 C   0  0  0  0  0  0  0  0  0  0  0  0
   23.0636  -17.0567  -16.2209 C   0  0  0  0  0  0  0  0  0  0  0  0
   21.8672  -17.7291  -16.2738 C   0  0  0  0  0  0  0  0  0  0  0  0
   24.1676  -20.7940  -13.8168 C   0  0  0  0  0  0  0  0  0  0  0  0
   23.6981  -21.8637  -13.3823 O   0  0  0  0  0  0  0  0  0  0  0  0
   25.3012  -20.1791  -13.2521 N   0  0  0  0  0  0  0  0  0  0  0  0
   25.8808  -20.5188  -12.0166 C   0  0  1  0  0  0  0  0  0  0  0  0
   27.2372  -19.9398  -11.8161 C   0  0  0  0  0  0  0  0  0  0  0  0
   27.9765  -20.4234  -10.6350 C   0  0  0  0  0  0  0  0  0  0  0  0
   28.8713  -21.4775  -10.6339 C   0  0  0  0  0  0  0  0  0  0  0  0
   29.4159  -21.6332   -9.3945 N   0  0  0  0  0  0  0  0  0  0  0  0
   28.9007  -20.7116   -8.5902 C   0  0  0  0  0  0  0  0  0  0  0  0
   29.1077  -20.4575   -7.2550 C   0  0  0  0  0  0  0  0  0  0  0  0
   28.4200  -19.4319   -6.6312 C   0  0  0  0  0  0  0  0  0  0  0  0
   27.5297  -18.6661   -7.3421 C   0  0  0  0  0  0  0  0  0  0  0  0
   27.3395  -18.9465   -8.6970 C   0  0  0  0  0  0  0  0  0  0  0  0
   28.0110  -19.9555   -9.3337 C   0  0  0  0  0  0  0  0  0  0  0  0
   24.9491  -20.1518  -10.8921 C   0  0  0  0  0  0  0  0  0  0  0  0
   24.3623  -19.0687  -10.7700 O   0  0  0  0  0  0  0  0  0  0  0  0
   20.5045  -21.7858  -10.2108 C   0  0  0  0  0  0  0  0  0  0  0  0
   21.7785  -20.9987   -9.9381 C   0  0  0  0  0  0  0  0  0  0  0  0
   22.5949  -21.6292   -8.8398 C   0  0  2  0  0  0  0  0  0  0  0  0
   21.7616  -21.6820   -7.5905 C   0  0  0  0  0  0  0  0  0  0  0  0
   23.9102  -20.9529   -8.7139 C   0  0  2  0  0  0  0  0  0  0  0  0
   24.7354  -21.1312   -9.9060 N   0  0  0  0  0  0  0  0  0  0  0  0
   24.6800  -21.4954   -7.5985 C   0  0  0  0  0  0  0  0  0  0  0  0
   24.6113  -20.9671   -6.4653 O   0  0  0  0  0  0  0  0  0  0  0  0
   25.4960  -22.5883   -7.7376 O   0  0  0  0  0  0  0  0  0  0  0  0
  2  3  1  0
  2  1  1  6
  4  3  1  0
  4  5  2  0
  6  5  1  0
  7 12  2  0
  7  6  1  0
  8  7  1  0
  9 10  1  0
  9  8  2  0
 10 11  2  0
 11 12  1  0
 12  4  1  0
 13  2  1  0
 14 13  2  0
 15 13  1  0
 16 17  1  1
 16 15  1  0
 18 17  1  0
 19 18  2  0
 20 19  1  0
 21 20  1  0
 21 26  2  0
 22 23  2  0
 22 21  1  0
 23 24  1  0
 24 25  2  0
 26 25  1  0
 26 18  1  0
 27 16  1  0
 28 27  2  0
 30 29  1  0
 31 30  1  0
 31 32  1  1
 33 31  1  0
 33 34  1  6
 34 27  1  0
 35 37  1  0
 35 33  1  0
 36 35  2  0
M  END
$$$$
