WWI.pdb
     RDKit          3D

 37 40  0  0  1  0  0  0  0  0999 V2000
   22.8039  -19.5812  -16.5851 N   0  0  0  0  0  0  0  0  0  0  0  0
   23.0353  -20.8922  -15.9466 C   0  0  1  0  0  0  0  0  0  0  0  0
   23.8218  -20.7381  -14.6991 C   0  0  0  0  0  0  0  0  0  0  0  0
   25.1931  -20.2324  -14.8684 C   0  0  0  0  0  0  0  0  0  0  0  0
   25.6849  -18.9945  -14.5472 C   0  0  0  0  0  0  0  0  0  0  0  0
   26.9903  -18.9899  -14.8316 N   0  0  0  0  0  0  0  0  0  0  0  0
   27.3589  -20.1992  -15.3322 C   0  0  0  0  0  0  0  0  0  0  0  0
   28.5814  -20.6966  -15.7653 C   0  0  0  0  0  0  0  0  0  0  0  0
   28.6216  -21.9910  -16.2163 C   0  0  0  0  0  0  0  0  0  0  0  0
   27.5056  -22.8007  -16.2529 C   0  0  0  0  0  0  0  0  0  0  0  0
   26.2863  -22.2992  -15.8187 C   0  0  0  0  0  0  0  0  0  0  0  0
   26.2527  -21.0022  -15.3680 C   0  0  0  0  0  0  0  0  0  0  0  0
   21.6672  -21.4344  -15.6059 C   0  0  0  0  0  0  0  0  0  0  0  0
   20.8655  -20.6502  -15.0622 O   0  0  0  0  0  0  0  0  0  0  0  0
   21.3383  -22.7714  -15.8998 N   0  0  0  0  0  0  0  0  0  0  0  0
   20.0763  -23.3608  -15.7050 C   0  0  1  0  0  0  0  0  0  0  0  0
   19.4938  -23.9440  -16.9442 C   0  0  0  0  0  0  0  0  0  0  0  0
   19.1440  -22.9825  -18.0066 C   0  0  0  0  0  0  0  0  0  0  0  0
   20.0419  -22.4124  -18.8900 C   0  0  0  0  0  0  0  0  0  0  0  0
   19.3880  -21.6082  -19.7746 N   0  0  0  0  0  0  0  0  0  0  0  0
   18.0917  -21.6385  -19.4914 C   0  0  0  0  0  0  0  0  0  0  0  0
   17.0233  -20.9952  -20.0702 C   0  0  0  0  0  0  0  0  0  0  0  0
   15.7482  -21.1814  -19.5669 C   0  0  0  0  0  0  0  0  0  0  0  0
   15.5458  -22.0073  -18.4892 C   0  0  0  0  0  0  0  0  0  0  0  0
   16.6493  -22.6480  -17.9215 C   0  0  0  0  0  0  0  0  0  0  0  0
   17.9189  -22.4788  -18.4051 C   0  0  0  0  0  0  0  0  0  0  0  0
   20.1475  -24.3755  -14.5946 C   0  0  0  0  0  0  0  0  0  0  0  0
   21.0631  -25.1913  -14.4248 O   0  0  0  0  0  0  0  0  0  0  0  0
   16.4260  -23.2311  -10.4308 C   0  0  0  0  0  0  0  0  0  0  0  0
   17.0283  -24.0531  -11.5614 C   0  0  0  0  0  0  0  0  0  0  0  0
   18.4831  -24.3561  -11.3119 C   0  0  2  0  0  0  0  0  0  0  0  0
   19.1932  -23.0724  -10.9868 C   0  0  0  0  0  0  0  0  0  0  0  0
   19.0511  -25.1453  -12.4335 C   0  0  2  0  0  0  0  0  0  0  0  0
   19.0791  -24.3852  -13.6806 N   0  0  0  0  0  0  0  0  0  0  0  0
   18.2526  -26.3381  -12.6993 C   0  0  0  0  0  0  0  0  0  0  0  0
   17.5841  -26.4307  -13.7541 O   0  0  0  0  0  0  0  0  0  0  0  0
   18.2008  -27.3922  -11.8240 O   0  0  0  0  0  0  0  0  0  0  0  0
  2  3  1  0
  2  1  1  1
  4  3  1  0
  4  5  2  0
  6  5  1  0
  7 12  2  0
  7  6  1  0
  8  7  1  0
  9 10  1  0
  9  8  2  0
 10 11  2  0
 11 12  1  0
 12  4  1  0
 13  2  1  0
 14 13  2  0
 15 13  1  0
 16 17  1  6
 16 15  1  0
 18 17  1  0
 19 18  2  0
 20 19  1  0
 21 20  1  0
 21 26  2  0
 22 23  2  0
 22 21  1  0
 23 24  1  0
 24 25  2  0
 26 25  1  0
 26 18  1  0
 27 16  1  0
 28 27  2  0
 30 29  1  0
 31 30  1  0
 31 32  1  6
 33 31  1  0
 33 34  1  6
 34 27  1  0
 35 37  1  0
 35 33  1  0
 36 35  2  0
M  END
$$$$
