WWI.pdb
     RDKit          3D

 37 40  0  0  1  0  0  0  0  0999 V2000
   26.3645  -19.7487  -16.5714 N   0  0  0  0  0  0  0  0  0  0  0  0
   26.9574  -19.7344  -15.2192 C   0  0  1  0  0  0  0  0  0  0  0  0
   26.9244  -18.3677  -14.6449 C   0  0  0  0  0  0  0  0  0  0  0  0
   27.5274  -17.3128  -15.4747 C   0  0  0  0  0  0  0  0  0  0  0  0
   26.9964  -16.0968  -15.8164 C   0  0  0  0  0  0  0  0  0  0  0  0
   27.9082  -15.4457  -16.5441 N   0  0  0  0  0  0  0  0  0  0  0  0
   29.0221  -16.2128  -16.6841 C   0  0  0  0  0  0  0  0  0  0  0  0
   30.2309  -15.9933  -17.3321 C   0  0  0  0  0  0  0  0  0  0  0  0
   31.1749  -16.9865  -17.2783 C   0  0  0  0  0  0  0  0  0  0  0  0
   30.9655  -18.1762  -16.6126 C   0  0  0  0  0  0  0  0  0  0  0  0
   29.7559  -18.3907  -15.9663 C   0  0  0  0  0  0  0  0  0  0  0  0
   28.8148  -17.3921  -16.0236 C   0  0  0  0  0  0  0  0  0  0  0  0
   26.0945  -20.6459  -14.3788 C   0  0  0  0  0  0  0  0  0  0  0  0
   25.0001  -20.9954  -14.8621 O   0  0  0  0  0  0  0  0  0  0  0  0
   26.5309  -21.0665  -13.1081 N   0  0  0  0  0  0  0  0  0  0  0  0
   25.7466  -21.7538  -12.1645 C   0  0  1  0  0  0  0  0  0  0  0  0
   26.5341  -22.3235  -11.0374 C   0  0  0  0  0  0  0  0  0  0  0  0
   27.4198  -21.3810  -10.3285 C   0  0  0  0  0  0  0  0  0  0  0  0
   28.6328  -20.9187  -10.8046 C   0  0  0  0  0  0  0  0  0  0  0  0
   29.1738  -20.0248   -9.9298 N   0  0  0  0  0  0  0  0  0  0  0  0
   28.3481  -19.8933   -8.8990 C   0  0  0  0  0  0  0  0  0  0  0  0
   28.4403  -19.1341   -7.7565 C   0  0  0  0  0  0  0  0  0  0  0  0
   27.4365  -19.1895   -6.8061 C   0  0  0  0  0  0  0  0  0  0  0  0
   26.3470  -20.0019   -7.0001 C   0  0  0  0  0  0  0  0  0  0  0  0
   26.2796  -20.7618   -8.1700 C   0  0  0  0  0  0  0  0  0  0  0  0
   27.2611  -20.7203   -9.1236 C   0  0  0  0  0  0  0  0  0  0  0  0
   24.6361  -20.8642  -11.6717 C   0  0  0  0  0  0  0  0  0  0  0  0
   24.7867  -19.7670  -11.1186 O   0  0  0  0  0  0  0  0  0  0  0  0
   20.4520  -18.1084  -14.2815 C   0  0  0  0  0  0  0  0  0  0  0  0
   20.6659  -18.9145  -13.0082 C   0  0  0  0  0  0  0  0  0  0  0  0
   21.9122  -19.7576  -13.0889 C   0  0  2  0  0  0  0  0  0  0  0  0
   21.8461  -20.5961  -14.3340 C   0  0  0  0  0  0  0  0  0  0  0  0
   22.1244  -20.4970  -11.8195 C   0  0  2  0  0  0  0  0  0  0  0  0
   23.3235  -21.3302  -11.8635 N   0  0  0  0  0  0  0  0  0  0  0  0
   21.0104  -21.3977  -11.5387 C   0  0  0  0  0  0  0  0  0  0  0  0
   19.8942  -20.9392  -11.2040 O   0  0  0  0  0  0  0  0  0  0  0  0
   21.1324  -22.7603  -11.6289 O   0  0  0  0  0  0  0  0  0  0  0  0
  2  3  1  0
  2  1  1  6
  4  3  1  0
  4  5  2  0
  6  5  1  0
  7 12  2  0
  7  6  1  0
  8  7  1  0
  9 10  1  0
  9  8  2  0
 10 11  2  0
 11 12  1  0
 12  4  1  0
 13  2  1  0
 14 13  2  0
 15 13  1  0
 16 17  1  1
 16 15  1  0
 18 17  1  0
 19 18  2  0
 20 19  1  0
 21 20  1  0
 21 26  2  0
 22 23  2  0
 22 21  1  0
 23 24  1  0
 24 25  2  0
 26 25  1  0
 26 18  1  0
 27 16  1  0
 28 27  2  0
 30 29  1  0
 31 30  1  0
 31 32  1  6
 33 31  1  0
 33 34  1  6
 34 27  1  0
 35 37  1  0
 35 33  1  0
 36 35  2  0
M  END
$$$$
