WWI.pdb
     RDKit          3D

 37 40  0  0  1  0  0  0  0  0999 V2000
   28.4545  -19.0795  -16.5481 N   0  0  0  0  0  0  0  0  0  0  0  0
   27.3461  -20.0547  -16.5699 C   0  0  1  0  0  0  0  0  0  0  0  0
   27.7914  -21.3687  -16.0468 C   0  0  0  0  0  0  0  0  0  0  0  0
   28.7950  -22.0721  -16.8609 C   0  0  0  0  0  0  0  0  0  0  0  0
   29.6279  -23.0925  -16.4833 C   0  0  0  0  0  0  0  0  0  0  0  0
   30.3394  -23.4535  -17.5549 N   0  0  0  0  0  0  0  0  0  0  0  0
   29.9876  -22.6888  -18.6228 C   0  0  0  0  0  0  0  0  0  0  0  0
   30.4204  -22.6736  -19.9426 C   0  0  0  0  0  0  0  0  0  0  0  0
   29.8469  -21.7635  -20.7932 C   0  0  0  0  0  0  0  0  0  0  0  0
   28.8709  -20.8780  -20.3865 C   0  0  0  0  0  0  0  0  0  0  0  0
   28.4415  -20.8973  -19.0665 C   0  0  0  0  0  0  0  0  0  0  0  0
   29.0195  -21.8113  -18.2198 C   0  0  0  0  0  0  0  0  0  0  0  0
   26.2819  -19.4928  -15.6569 C   0  0  0  0  0  0  0  0  0  0  0  0
   26.6697  -18.8931  -14.6355 O   0  0  0  0  0  0  0  0  0  0  0  0
   24.9187  -19.6545  -15.9694 N   0  0  0  0  0  0  0  0  0  0  0  0
   23.8452  -19.3328  -15.1195 C   0  0  1  0  0  0  0  0  0  0  0  0
   22.6083  -18.9370  -15.8465 C   0  0  0  0  0  0  0  0  0  0  0  0
   21.4470  -18.5945  -15.0042 C   0  0  0  0  0  0  0  0  0  0  0  0
   21.3089  -17.4262  -14.2776 C   0  0  0  0  0  0  0  0  0  0  0  0
   20.1001  -17.4013  -13.6490 N   0  0  0  0  0  0  0  0  0  0  0  0
   19.4492  -18.5193  -13.9454 C   0  0  0  0  0  0  0  0  0  0  0  0
   18.2134  -18.9780  -13.5546 C   0  0  0  0  0  0  0  0  0  0  0  0
   17.7619  -20.2097  -13.9939 C   0  0  0  0  0  0  0  0  0  0  0  0
   18.5453  -20.9771  -14.8196 C   0  0  0  0  0  0  0  0  0  0  0  0
   19.7960  -20.4860  -15.2008 C   0  0  0  0  0  0  0  0  0  0  0  0
   20.2608  -19.2694  -14.7788 C   0  0  0  0  0  0  0  0  0  0  0  0
   23.5877  -20.4669  -14.1629 C   0  0  0  0  0  0  0  0  0  0  0  0
   23.3596  -21.6403  -14.4848 O   0  0  0  0  0  0  0  0  0  0  0  0
   25.3385  -19.6459   -8.7943 C   0  0  0  0  0  0  0  0  0  0  0  0
   24.3576  -19.6996   -9.9569 C   0  0  0  0  0  0  0  0  0  0  0  0
   24.3971  -21.0350  -10.6539 C   0  0  2  0  0  0  0  0  0  0  0  0
   25.8065  -21.3033  -11.1004 C   0  0  0  0  0  0  0  0  0  0  0  0
   23.3578  -21.1019  -11.7116 C   0  0  2  0  0  0  0  0  0  0  0  0
   23.6128  -20.1530  -12.7925 N   0  0  0  0  0  0  0  0  0  0  0  0
   22.0390  -20.7715  -11.1798 C   0  0  0  0  0  0  0  0  0  0  0  0
   21.4775  -19.6990  -11.5001 O   0  0  0  0  0  0  0  0  0  0  0  0
   21.3670  -21.6052  -10.3236 O   0  0  0  0  0  0  0  0  0  0  0  0
  2  3  1  0
  2  1  1  1
  4  3  1  0
  4  5  2  0
  6  5  1  0
  7 12  2  0
  7  6  1  0
  8  7  1  0
  9 10  1  0
  9  8  2  0
 10 11  2  0
 11 12  1  0
 12  4  1  0
 13  2  1  0
 14 13  2  0
 15 13  1  0
 16 17  1  6
 16 15  1  0
 18 17  1  0
 19 18  2  0
 20 19  1  0
 21 20  1  0
 21 26  2  0
 22 23  2  0
 22 21  1  0
 23 24  1  0
 24 25  2  0
 26 25  1  0
 26 18  1  0
 27 16  1  0
 28 27  2  0
 30 29  1  0
 31 30  1  0
 31 32  1  6
 33 31  1  0
 33 34  1  6
 34 27  1  0
 35 37  1  0
 35 33  1  0
 36 35  2  0
M  END
$$$$
