YPC.pdb
     RDKit          3D

 26 27  0  0  1  0  0  0  0  0999 V2000
   27.3876  -13.4885  -18.5421 O   0  0  0  0  0  0  0  0  0  0  0  0
   27.0123  -14.3411  -17.5225 C   0  0  0  0  0  0  0  0  0  0  0  0
   27.8151  -15.4015  -17.1965 C   0  0  0  0  0  0  0  0  0  0  0  0
   27.4904  -16.2756  -16.1960 C   0  0  0  0  0  0  0  0  0  0  0  0
   26.3193  -16.1327  -15.4512 C   0  0  0  0  0  0  0  0  0  0  0  0
   25.9796  -17.1011  -14.3946 C   0  0  0  0  0  0  0  0  0  0  0  0
   25.5567  -18.4690  -14.9226 C   0  0  2  0  0  0  0  0  0  0  0  0
   24.3486  -18.3194  -15.6619 N   0  0  0  0  0  0  0  0  0  0  0  0
   25.5619  -19.4189  -13.8223 C   0  0  0  0  0  0  0  0  0  0  0  0
   24.3737  -19.6654  -13.3536 O   0  0  0  0  0  0  0  0  0  0  0  0
   25.5121  -15.0534  -15.7902 C   0  0  0  0  0  0  0  0  0  0  0  0
   25.8507  -14.1808  -16.7998 C   0  0  0  0  0  0  0  0  0  0  0  0
   26.6256  -20.0917  -13.2081 N   0  0  0  0  0  0  0  0  0  0  0  0
   28.0178  -19.8710  -13.5006 C   0  0  0  0  0  0  0  0  0  0  0  0
   28.6959  -21.1374  -13.1277 C   0  0  0  0  0  0  0  0  0  0  0  0
   27.6297  -22.0855  -12.6343 C   0  0  0  0  0  0  0  0  0  0  0  0
   26.5272  -21.0890  -12.2039 C   0  0  1  0  0  0  0  0  0  0  0  0
   26.9041  -20.6678  -10.8544 C   0  0  0  0  0  0  0  0  0  0  0  0
   28.0699  -20.8135  -10.4441 O   0  0  0  0  0  0  0  0  0  0  0  0
   25.9557  -20.0874   -9.9881 N   0  0  0  0  0  0  0  0  0  0  0  0
   25.7763  -20.4782   -8.6036 C   0  0  1  0  0  0  0  0  0  0  0  0
   26.0695  -19.2785   -7.6902 C   0  0  0  0  0  0  0  0  0  0  0  0
   27.7503  -18.6845   -7.9208 S   0  0  0  0  0  0  0  0  0  0  0  0
   24.4134  -20.9840   -8.3423 C   0  0  0  0  0  0  0  0  0  0  0  0
   24.0294  -21.4704   -7.1023 O   0  0  0  0  0  0  0  0  0  0  0  0
   23.5833  -20.9729   -9.2655 O   0  0  0  0  0  0  0  0  0  0  0  0
  1  2  1  0
  2  3  2  0
  3  4  1  0
  5  4  2  0
  5  6  1  0
  7  6  1  0
  7  8  1  1
  9  7  1  0
  9 13  1  0
 10  9  2  0
 11  5  1  0
 12  2  1  0
 12 11  2  0
 13 14  1  0
 14 15  1  0
 16 15  1  0
 17 13  1  0
 17 16  1  0
 17 18  1  1
 19 18  2  0
 20 18  1  0
 21 24  1  0
 21 20  1  0
 22 23  1  0
 21 22  1  1
 24 25  1  0
 26 24  2  0
M  END
$$$$
