YPC.pdb
     RDKit          3D

 26 27  0  0  1  0  0  0  0  0999 V2000
   16.7603  -24.5077   -7.3059 O   0  0  0  0  0  0  0  0  0  0  0  0
   17.7122  -24.1116   -8.2248 C   0  0  0  0  0  0  0  0  0  0  0  0
   18.9803  -23.8155   -7.8013 C   0  0  0  0  0  0  0  0  0  0  0  0
   19.9601  -23.4186   -8.6692 C   0  0  0  0  0  0  0  0  0  0  0  0
   19.7185  -23.2938  -10.0377 C   0  0  0  0  0  0  0  0  0  0  0  0
   20.7834  -22.8413  -10.9490 C   0  0  0  0  0  0  0  0  0  0  0  0
   20.8078  -21.3315  -11.1699 C   0  0  2  0  0  0  0  0  0  0  0  0
   19.6312  -20.9548  -11.8785 N   0  0  0  0  0  0  0  0  0  0  0  0
   22.0903  -20.9621  -11.7459 C   0  0  0  0  0  0  0  0  0  0  0  0
   21.9966  -20.5321  -12.9701 O   0  0  0  0  0  0  0  0  0  0  0  0
   18.4285  -23.5967  -10.4566 C   0  0  0  0  0  0  0  0  0  0  0  0
   17.4513  -23.9952   -9.5723 C   0  0  0  0  0  0  0  0  0  0  0  0
   23.3774  -20.9975  -11.1951 N   0  0  0  0  0  0  0  0  0  0  0  0
   23.7077  -21.5558   -9.9099 C   0  0  0  0  0  0  0  0  0  0  0  0
   24.9487  -20.8568   -9.4929 C   0  0  0  0  0  0  0  0  0  0  0  0
   25.2919  -19.8697  -10.5824 C   0  0  0  0  0  0  0  0  0  0  0  0
   24.5658  -20.5039  -11.7925 C   0  0  1  0  0  0  0  0  0  0  0  0
   25.4895  -21.5198  -12.2978 C   0  0  0  0  0  0  0  0  0  0  0  0
   25.8252  -22.4849  -11.5875 O   0  0  0  0  0  0  0  0  0  0  0  0
   26.0202  -21.4289  -13.6004 N   0  0  0  0  0  0  0  0  0  0  0  0
   25.9476  -22.4936  -14.5816 C   0  0  1  0  0  0  0  0  0  0  0  0
   24.5870  -23.1984  -14.4734 C   0  0  0  0  0  0  0  0  0  0  0  0
   24.7855  -24.9840  -14.4135 S   0  0  0  0  0  0  0  0  0  0  0  0
   26.1436  -21.9941  -15.9576 C   0  0  0  0  0  0  0  0  0  0  0  0
   27.1671  -22.4522  -16.7726 O   0  0  0  0  0  0  0  0  0  0  0  0
   25.3646  -21.1341  -16.3992 O   0  0  0  0  0  0  0  0  0  0  0  0
  1  2  1  0
  2  3  2  0
  3  4  1  0
  5  4  2  0
  5  6  1  0
  7  6  1  0
  7  8  1  6
  9  7  1  0
  9 13  1  0
 10  9  2  0
 11  5  1  0
 12  2  1  0
 12 11  2  0
 13 14  1  0
 14 15  1  0
 16 15  1  0
 17 13  1  0
 17 16  1  0
 17 18  1  1
 19 18  2  0
 20 18  1  0
 21 24  1  0
 21 20  1  0
 22 23  1  0
 21 22  1  6
 24 25  1  0
 26 24  2  0
M  END
$$$$
