YPC.pdb
     RDKit          3D

 26 27  0  0  1  0  0  0  0  0999 V2000
   24.4803  -31.4240   -9.1408 O   0  0  0  0  0  0  0  0  0  0  0  0
   25.4674  -32.0984   -8.4493 C   0  0  0  0  0  0  0  0  0  0  0  0
   25.1320  -32.8638   -7.3644 C   0  0  0  0  0  0  0  0  0  0  0  0
   26.0699  -33.5516   -6.6448 C   0  0  0  0  0  0  0  0  0  0  0  0
   27.4239  -33.5099   -6.9794 C   0  0  0  0  0  0  0  0  0  0  0  0
   28.4180  -34.2400   -6.1743 C   0  0  0  0  0  0  0  0  0  0  0  0
   29.1392  -35.3470   -6.9379 C   0  0  2  0  0  0  0  0  0  0  0  0
   28.1661  -36.2090   -7.5197 N   0  0  0  0  0  0  0  0  0  0  0  0
   30.1366  -35.9456   -6.0662 C   0  0  0  0  0  0  0  0  0  0  0  0
   29.7974  -37.1250   -5.6347 O   0  0  0  0  0  0  0  0  0  0  0  0
   27.7531  -32.7304   -8.0818 C   0  0  0  0  0  0  0  0  0  0  0  0
   26.7989  -32.0429   -8.7975 C   0  0  0  0  0  0  0  0  0  0  0  0
   31.3755  -35.4566   -5.6334 N   0  0  0  0  0  0  0  0  0  0  0  0
   31.8777  -34.1343   -5.9012 C   0  0  0  0  0  0  0  0  0  0  0  0
   33.3546  -34.2593   -5.8233 C   0  0  0  0  0  0  0  0  0  0  0  0
   33.6643  -35.7059   -5.5224 C   0  0  0  0  0  0  0  0  0  0  0  0
   32.3392  -36.1591   -4.8648 C   0  0  1  0  0  0  0  0  0  0  0  0
   32.4526  -35.7500   -3.4646 C   0  0  0  0  0  0  0  0  0  0  0  0
   32.1764  -34.5876   -3.1164 O   0  0  0  0  0  0  0  0  0  0  0  0
   32.8772  -36.6628   -2.4781 N   0  0  0  0  0  0  0  0  0  0  0  0
   32.9711  -36.3456   -1.0666 C   0  0  1  0  0  0  0  0  0  0  0  0
   32.8205  -37.6320   -0.2409 C   0  0  0  0  0  0  0  0  0  0  0  0
   33.0024  -37.2989    1.5161 S   0  0  0  0  0  0  0  0  0  0  0  0
   34.2477  -35.6829   -0.7310 C   0  0  0  0  0  0  0  0  0  0  0  0
   34.3295  -34.6659    0.2075 O   0  0  0  0  0  0  0  0  0  0  0  0
   35.2831  -36.0496   -1.3096 O   0  0  0  0  0  0  0  0  0  0  0  0
  1  2  1  0
  2  3  2  0
  3  4  1  0
  5  4  2  0
  5  6  1  0
  7  6  1  0
  7  8  1  1
  9  7  1  0
  9 13  1  0
 10  9  2  0
 11  5  1  0
 12  2  1  0
 12 11  2  0
 13 14  1  0
 14 15  1  0
 16 15  1  0
 17 13  1  0
 17 16  1  0
 17 18  1  1
 19 18  2  0
 20 18  1  0
 21 24  1  0
 21 20  1  0
 22 23  1  0
 21 22  1  1
 24 25  1  0
 26 24  2  0
M  END
$$$$
