YPC.pdb
     RDKit          3D

 26 27  0  0  1  0  0  0  0  0999 V2000
   23.9849  -21.2811   -7.5239 O   0  0  0  0  0  0  0  0  0  0  0  0
   24.2690  -21.0202   -8.8501 C   0  0  0  0  0  0  0  0  0  0  0  0
   25.5698  -21.0267   -9.2779 C   0  0  0  0  0  0  0  0  0  0  0  0
   25.9059  -20.7748  -10.5795 C   0  0  0  0  0  0  0  0  0  0  0  0
   24.9372  -20.4967  -11.5445 C   0  0  0  0  0  0  0  0  0  0  0  0
   25.3260  -20.2048  -12.9348 C   0  0  0  0  0  0  0  0  0  0  0  0
   24.5657  -21.0235  -13.9742 C   0  0  2  0  0  0  0  0  0  0  0  0
   24.9056  -22.3970  -13.8111 N   0  0  0  0  0  0  0  0  0  0  0  0
   24.7723  -20.4277  -15.2838 C   0  0  0  0  0  0  0  0  0  0  0  0
   25.5906  -21.1078  -16.0322 O   0  0  0  0  0  0  0  0  0  0  0  0
   23.6207  -20.4926  -11.0996 C   0  0  0  0  0  0  0  0  0  0  0  0
   23.2960  -20.7479   -9.7862 C   0  0  0  0  0  0  0  0  0  0  0  0
   24.2360  -19.2627  -15.8466 N   0  0  0  0  0  0  0  0  0  0  0  0
   23.3310  -18.3660  -15.1763 C   0  0  0  0  0  0  0  0  0  0  0  0
   22.5819  -17.6892  -16.2642 C   0  0  0  0  0  0  0  0  0  0  0  0
   23.0852  -18.2544  -17.5705 C   0  0  0  0  0  0  0  0  0  0  0  0
   24.4850  -18.7624  -17.1506 C   0  0  1  0  0  0  0  0  0  0  0  0
   25.3515  -17.5857  -17.2224 C   0  0  0  0  0  0  0  0  0  0  0  0
   25.2167  -16.6455  -16.4182 O   0  0  0  0  0  0  0  0  0  0  0  0
   26.3588  -17.4898  -18.2037 N   0  0  0  0  0  0  0  0  0  0  0  0
   27.7675  -17.7122  -17.9440 C   0  0  1  0  0  0  0  0  0  0  0  0
   27.9303  -18.4807  -16.6239 C   0  0  0  0  0  0  0  0  0  0  0  0
   27.9395  -17.3597  -15.2188 S   0  0  0  0  0  0  0  0  0  0  0  0
   28.4228  -18.4556  -19.0391 C   0  0  0  0  0  0  0  0  0  0  0  0
   29.3952  -17.8832  -19.8443 O   0  0  0  0  0  0  0  0  0  0  0  0
   28.0908  -19.6341  -19.2454 O   0  0  0  0  0  0  0  0  0  0  0  0
  1  2  1  0
  2  3  2  0
  3  4  1  0
  5  4  2  0
  5  6  1  0
  7  6  1  0
  7  8  1  6
  9  7  1  0
  9 13  1  0
 10  9  2  0
 11  5  1  0
 12  2  1  0
 12 11  2  0
 13 14  1  0
 14 15  1  0
 16 15  1  0
 17 13  1  0
 17 16  1  0
 17 18  1  1
 19 18  2  0
 20 18  1  0
 21 24  1  0
 21 20  1  0
 22 23  1  0
 21 22  1  1
 24 25  1  0
 26 24  2  0
M  END
$$$$
