YPC.pdb
     RDKit          3D

 26 27  0  0  1  0  0  0  0  0999 V2000
   20.7203  -15.9830  -18.3090 O   0  0  0  0  0  0  0  0  0  0  0  0
   21.3010  -16.7750  -17.3380 C   0  0  0  0  0  0  0  0  0  0  0  0
   20.5484  -17.7238  -16.6988 C   0  0  0  0  0  0  0  0  0  0  0  0
   21.0738  -18.5340  -15.7302 C   0  0  0  0  0  0  0  0  0  0  0  0
   22.4099  -18.4363  -15.3403 C   0  0  0  0  0  0  0  0  0  0  0  0
   22.9463  -19.3038  -14.2776 C   0  0  0  0  0  0  0  0  0  0  0  0
   23.7869  -20.4675  -14.7951 C   0  0  2  0  0  0  0  0  0  0  0  0
   22.9305  -21.3860  -15.4670 N   0  0  0  0  0  0  0  0  0  0  0  0
   24.6027  -20.9781  -13.7057 C   0  0  0  0  0  0  0  0  0  0  0  0
   24.0843  -22.0190  -13.1225 O   0  0  0  0  0  0  0  0  0  0  0  0
   23.1644  -17.4704  -15.9952 C   0  0  0  0  0  0  0  0  0  0  0  0
   22.6231  -16.6611  -16.9687 C   0  0  0  0  0  0  0  0  0  0  0  0
   25.8311  -20.5303  -13.2036 N   0  0  0  0  0  0  0  0  0  0  0  0
   26.5844  -19.4252  -13.7362 C   0  0  0  0  0  0  0  0  0  0  0  0
   27.9914  -19.6946  -13.3483 C   0  0  0  0  0  0  0  0  0  0  0  0
   28.0035  -21.0033  -12.5957 C   0  0  0  0  0  0  0  0  0  0  0  0
   26.5396  -21.0700  -12.0993 C   0  0  1  0  0  0  0  0  0  0  0  0
   26.5174  -20.2646  -10.8781 C   0  0  0  0  0  0  0  0  0  0  0  0
   26.5893  -19.0234  -10.9325 O   0  0  0  0  0  0  0  0  0  0  0  0
   26.4141  -20.8757   -9.6122 N   0  0  0  0  0  0  0  0  0  0  0  0
   26.1875  -20.1501   -8.3777 C   0  0  1  0  0  0  0  0  0  0  0  0
   25.2427  -20.9573   -7.4747 C   0  0  0  0  0  0  0  0  0  0  0  0
   23.6590  -21.2354   -8.2785 S   0  0  0  0  0  0  0  0  0  0  0  0
   27.4474  -19.8704   -7.6596 C   0  0  0  0  0  0  0  0  0  0  0  0
   27.5066  -19.0056   -6.5779 O   0  0  0  0  0  0  0  0  0  0  0  0
   28.4893  -20.4295   -8.0382 O   0  0  0  0  0  0  0  0  0  0  0  0
  1  2  1  0
  2  3  2  0
  3  4  1  0
  5  4  2  0
  5  6  1  0
  7  6  1  0
  7  8  1  1
  9  7  1  0
  9 13  1  0
 10  9  2  0
 11  5  1  0
 12  2  1  0
 12 11  2  0
 13 14  1  0
 14 15  1  0
 16 15  1  0
 17 13  1  0
 17 16  1  0
 17 18  1  1
 19 18  2  0
 20 18  1  0
 21 24  1  0
 21 20  1  0
 22 23  1  0
 21 22  1  1
 24 25  1  0
 26 24  2  0
M  END
$$$$
