YPC.pdb
     RDKit          3D

 26 27  0  0  1  0  0  0  0  0999 V2000
   19.5944  -27.2699  -10.2893 O   0  0  0  0  0  0  0  0  0  0  0  0
   20.3050  -28.3915   -9.9092 C   0  0  0  0  0  0  0  0  0  0  0  0
   19.6502  -29.4414   -9.3225 C   0  0  0  0  0  0  0  0  0  0  0  0
   20.3058  -30.5748   -8.9274 C   0  0  0  0  0  0  0  0  0  0  0  0
   21.6823  -30.7221   -9.1019 C   0  0  0  0  0  0  0  0  0  0  0  0
   22.3695  -31.9425   -8.6460 C   0  0  0  0  0  0  0  0  0  0  0  0
   22.6855  -32.9292   -9.7664 C   0  0  2  0  0  0  0  0  0  0  0  0
   21.4702  -33.2826  -10.4196 N   0  0  0  0  0  0  0  0  0  0  0  0
   23.5004  -34.0057   -9.2279 C   0  0  0  0  0  0  0  0  0  0  0  0
   22.8546  -35.1294   -9.1158 O   0  0  0  0  0  0  0  0  0  0  0  0
   22.3368  -29.6510   -9.6981 C   0  0  0  0  0  0  0  0  0  0  0  0
   21.6647  -28.5155  -10.0913 C   0  0  0  0  0  0  0  0  0  0  0  0
   24.8412  -34.0148   -8.8234 N   0  0  0  0  0  0  0  0  0  0  0  0
   25.6917  -32.8548   -8.7664 C   0  0  0  0  0  0  0  0  0  0  0  0
   27.0727  -33.3817   -8.9000 C   0  0  0  0  0  0  0  0  0  0  0  0
   26.9651  -34.8796   -9.0554 C   0  0  0  0  0  0  0  0  0  0  0  0
   25.5884  -35.1445   -8.4010 C   0  0  1  0  0  0  0  0  0  0  0  0
   25.8608  -35.2226   -6.9656 C   0  0  0  0  0  0  0  0  0  0  0  0
   25.6139  -34.2594   -6.2172 O   0  0  0  0  0  0  0  0  0  0  0  0
   26.4089  -36.3903   -6.3975 N   0  0  0  0  0  0  0  0  0  0  0  0
   25.7118  -37.2334   -5.4463 C   0  0  1  0  0  0  0  0  0  0  0  0
   24.3472  -37.6382   -6.0240 C   0  0  0  0  0  0  0  0  0  0  0  0
   23.0483  -37.4757   -4.7920 S   0  0  0  0  0  0  0  0  0  0  0  0
   26.4880  -38.4423   -5.1038 C   0  0  0  0  0  0  0  0  0  0  0  0
   26.9178  -38.7048   -3.8122 O   0  0  0  0  0  0  0  0  0  0  0  0
   26.7649  -39.2513   -6.0040 O   0  0  0  0  0  0  0  0  0  0  0  0
  1  2  1  0
  2  3  2  0
  3  4  1  0
  5  4  2  0
  5  6  1  0
  7  6  1  0
  7  8  1  1
  9  7  1  0
  9 13  1  0
 10  9  2  0
 11  5  1  0
 12  2  1  0
 12 11  2  0
 13 14  1  0
 14 15  1  0
 16 15  1  0
 17 13  1  0
 17 16  1  0
 17 18  1  1
 19 18  2  0
 20 18  1  0
 21 24  1  0
 21 20  1  0
 22 23  1  0
 21 22  1  6
 24 25  1  0
 26 24  2  0
M  END
$$$$
