YPC.pdb
     RDKit          3D

 26 27  0  0  1  0  0  0  0  0999 V2000
   31.5200  -16.4150  -17.8642 O   0  0  0  0  0  0  0  0  0  0  0  0
   30.2784  -16.8700  -17.4660 C   0  0  0  0  0  0  0  0  0  0  0  0
   29.1757  -16.0796  -17.6525 C   0  0  0  0  0  0  0  0  0  0  0  0
   27.9238  -16.4818  -17.2765 C   0  0  0  0  0  0  0  0  0  0  0  0
   27.7026  -17.7238  -16.6805 C   0  0  0  0  0  0  0  0  0  0  0  0
   26.3483  -18.1243  -16.2623 C   0  0  0  0  0  0  0  0  0  0  0  0
   25.6759  -19.1135  -17.2100 C   0  0  2  0  0  0  0  0  0  0  0  0
   25.3117  -18.4267  -18.4034 N   0  0  0  0  0  0  0  0  0  0  0  0
   24.6276  -19.8161  -16.4886 C   0  0  0  0  0  0  0  0  0  0  0  0
   23.4300  -19.4641  -16.8550 O   0  0  0  0  0  0  0  0  0  0  0  0
   28.8282  -18.5178  -16.4961 C   0  0  0  0  0  0  0  0  0  0  0  0
   30.0831  -18.1008  -16.8792 C   0  0  0  0  0  0  0  0  0  0  0  0
   24.7110  -20.7901  -15.4857 N   0  0  0  0  0  0  0  0  0  0  0  0
   25.9312  -21.2171  -14.8525 C   0  0  0  0  0  0  0  0  0  0  0  0
   25.6537  -22.5921  -14.3676 C   0  0  0  0  0  0  0  0  0  0  0  0
   24.2384  -22.9297  -14.7705 C   0  0  0  0  0  0  0  0  0  0  0  0
   23.6304  -21.5148  -14.9201 C   0  0  1  0  0  0  0  0  0  0  0  0
   23.2465  -21.1229  -13.5638 C   0  0  0  0  0  0  0  0  0  0  0  0
   24.1089  -20.9407  -12.6853 O   0  0  0  0  0  0  0  0  0  0  0  0
   21.8912  -20.9427  -13.2208 N   0  0  0  0  0  0  0  0  0  0  0  0
   21.4331  -20.5609  -11.8995 C   0  0  1  0  0  0  0  0  0  0  0  0
   21.0129  -19.0835  -11.9097 C   0  0  0  0  0  0  0  0  0  0  0  0
   20.4154  -18.5689  -10.2943 S   0  0  0  0  0  0  0  0  0  0  0  0
   20.3063  -21.3978  -11.4399 C   0  0  0  0  0  0  0  0  0  0  0  0
   20.0084  -21.5654  -10.0965 O   0  0  0  0  0  0  0  0  0  0  0  0
   19.6017  -21.9709  -12.2864 O   0  0  0  0  0  0  0  0  0  0  0  0
  1  2  1  0
  2  3  2  0
  3  4  1  0
  5  4  2  0
  5  6  1  0
  7  6  1  0
  7  8  1  6
  9  7  1  0
  9 13  1  0
 10  9  2  0
 11  5  1  0
 12  2  1  0
 12 11  2  0
 13 14  1  0
 14 15  1  0
 16 15  1  0
 17 13  1  0
 17 16  1  0
 17 18  1  1
 19 18  2  0
 20 18  1  0
 21 24  1  0
 21 20  1  0
 22 23  1  0
 21 22  1  6
 24 25  1  0
 26 24  2  0
M  END
$$$$
