YPC.pdb
     RDKit          3D

 26 27  0  0  1  0  0  0  0  0999 V2000
   29.8717  -19.9484   -3.7532 O   0  0  0  0  0  0  0  0  0  0  0  0
   29.0237  -20.0886   -4.8342 C   0  0  0  0  0  0  0  0  0  0  0  0
   28.0199  -19.1779   -5.0300 C   0  0  0  0  0  0  0  0  0  0  0  0
   27.1530  -19.2703   -6.0838 C   0  0  0  0  0  0  0  0  0  0  0  0
   27.2456  -20.3015   -7.0190 C   0  0  0  0  0  0  0  0  0  0  0  0
   26.2850  -20.3932   -8.1318 C   0  0  0  0  0  0  0  0  0  0  0  0
   26.7392  -19.6779   -9.4010 C   0  0  2  0  0  0  0  0  0  0  0  0
   27.1151  -18.3460   -9.0647 N   0  0  0  0  0  0  0  0  0  0  0  0
   25.7254  -19.8546  -10.4277 C   0  0  0  0  0  0  0  0  0  0  0  0
   24.8435  -18.8984  -10.4459 O   0  0  0  0  0  0  0  0  0  0  0  0
   28.2676  -21.2200   -6.8108 C   0  0  0  0  0  0  0  0  0  0  0  0
   29.1336  -21.1154   -5.7457 C   0  0  0  0  0  0  0  0  0  0  0  0
   25.5605  -20.8721  -11.3758 N   0  0  0  0  0  0  0  0  0  0  0  0
   26.0553  -22.2166  -11.2348 C   0  0  0  0  0  0  0  0  0  0  0  0
   26.2078  -22.7192  -12.6229 C   0  0  0  0  0  0  0  0  0  0  0  0
   25.7999  -21.5995  -13.5498 C   0  0  0  0  0  0  0  0  0  0  0  0
   24.8863  -20.7665  -12.6196 C   0  0  1  0  0  0  0  0  0  0  0  0
   23.5794  -21.4206  -12.6887 C   0  0  0  0  0  0  0  0  0  0  0  0
   23.3722  -22.4941  -12.0943 O   0  0  0  0  0  0  0  0  0  0  0  0
   22.5249  -20.8500  -13.4300 N   0  0  0  0  0  0  0  0  0  0  0  0
   21.1491  -20.7999  -12.9760 C   0  0  1  0  0  0  0  0  0  0  0  0
   20.5769  -19.3968  -13.2277 C   0  0  0  0  0  0  0  0  0  0  0  0
   19.7878  -18.7444  -11.7502 S   0  0  0  0  0  0  0  0  0  0  0  0
   20.3067  -21.8109  -13.6466 C   0  0  0  0  0  0  0  0  0  0  0  0
   19.1806  -22.3523  -13.0462 O   0  0  0  0  0  0  0  0  0  0  0  0
   20.6182  -22.1885  -14.7876 O   0  0  0  0  0  0  0  0  0  0  0  0
  1  2  1  0
  2  3  2  0
  3  4  1  0
  5  4  2  0
  5  6  1  0
  7  6  1  0
  7  8  1  1
  9  7  1  0
  9 13  1  0
 10  9  2  0
 11  5  1  0
 12  2  1  0
 12 11  2  0
 13 14  1  0
 14 15  1  0
 16 15  1  0
 17 13  1  0
 17 16  1  0
 17 18  1  1
 19 18  2  0
 20 18  1  0
 21 24  1  0
 21 20  1  0
 22 23  1  0
 21 22  1  6
 24 25  1  0
 26 24  2  0
M  END
$$$$
