PVK.pdb
     RDKit          3D

 24 24  0  0  1  0  0  0  0  0999 V2000
    7.9995  -14.4977   20.3813 N   0  0  0  0  0  0  0  0  0  0  0  0
    8.3111  -15.8705   20.1329 C   0  0  0  0  0  0  0  0  0  0  0  0
    7.3507  -16.6982   20.9686 C   0  0  0  0  0  0  0  0  0  0  0  0
    6.2785  -15.6952   21.3238 C   0  0  0  0  0  0  0  0  0  0  0  0
    7.0787  -14.4184   21.4702 C   0  0  1  0  0  0  0  0  0  0  0  0
    7.7563  -14.3254   22.7907 C   0  0  0  0  0  0  0  0  0  0  0  0
    8.9794  -14.5885   22.9139 O   0  0  0  0  0  0  0  0  0  0  0  0
    6.4055  -11.5356   25.5972 C   0  0  0  0  0  0  0  0  0  0  0  0
    6.7514  -12.8779   26.1237 C   0  0  2  0  0  0  0  0  0  0  0  0
    7.2844  -12.7399   27.5278 C   0  0  0  0  0  0  0  0  0  0  0  0
    7.6931  -13.7005   25.2537 C   0  0  2  0  0  0  0  0  0  0  0  0
    7.0635  -13.9403   23.9591 N   0  0  0  0  0  0  0  0  0  0  0  0
    8.1445  -14.9493   25.8785 C   0  0  0  0  0  0  0  0  0  0  0  0
    7.2887  -15.8866   26.0803 O   0  0  0  0  0  0  0  0  0  0  0  0
    9.4514  -15.2730   26.3035 N   0  0  0  0  0  0  0  0  0  0  0  0
    9.8028  -16.5948   26.8336 C   0  0  1  0  0  0  0  0  0  0  0  0
   10.9905  -17.1643   26.1437 C   0  0  0  0  0  0  0  0  0  0  0  0
   11.4435  -18.5018   26.6300 C   0  0  0  0  0  0  0  0  0  0  0  0
   12.6883  -18.9911   25.9217 C   0  0  0  0  0  0  0  0  0  0  0  0
   13.0867  -20.3715   26.4100 C   0  0  0  0  0  0  0  0  0  0  0  0
   14.2507  -20.8665   25.7125 N   0  0  0  0  0  0  0  0  0  0  0  0
   10.0662  -16.4510   28.2734 C   0  0  0  0  0  0  0  0  0  0  0  0
   10.2523  -15.1982   28.8163 O   0  0  0  0  0  0  0  0  0  0  0  0
   10.1249  -17.4490   29.0123 O   0  0  0  0  0  0  0  0  0  0  0  0
  1  2  1  0
  3  2  1  0
  4  3  1  0
  5  4  1  0
  5  1  1  0
  6 12  1  0
  5  6  1  1
  7  6  2  0
  9  8  1  6
  9 11  1  0
 10  9  1  0
 11 12  1  6
 13 14  2  0
 13 11  1  0
 15 13  1  0
 16 15  1  0
 16 17  1  6
 18 17  1  0
 19 18  1  0
 20 19  1  0
 20 21  1  0
 22 16  1  0
 23 22  1  0
 24 22  2  0
M  END
$$$$
