PVK.pdb
     RDKit          3D

 24 24  0  0  1  0  0  0  0  0999 V2000
    7.7958  -14.3468   20.2977 N   0  0  0  0  0  0  0  0  0  0  0  0
    8.2404  -15.6622   19.9582 C   0  0  0  0  0  0  0  0  0  0  0  0
    7.4290  -16.6320   20.7991 C   0  0  0  0  0  0  0  0  0  0  0  0
    6.2768  -15.7743   21.2666 C   0  0  0  0  0  0  0  0  0  0  0  0
    6.9396  -14.4240   21.4382 C   0  0  1  0  0  0  0  0  0  0  0  0
    7.6816  -14.3188   22.7226 C   0  0  0  0  0  0  0  0  0  0  0  0
    8.9205  -14.5252   22.7766 O   0  0  0  0  0  0  0  0  0  0  0  0
    6.5264  -11.5753   25.6395 C   0  0  0  0  0  0  0  0  0  0  0  0
    6.8293  -12.9446   26.1206 C   0  0  2  0  0  0  0  0  0  0  0  0
    7.3990  -12.8680   27.5149 C   0  0  0  0  0  0  0  0  0  0  0  0
    7.7170  -13.7791   25.2063 C   0  0  2  0  0  0  0  0  0  0  0  0
    7.0351  -13.9845   23.9324 N   0  0  0  0  0  0  0  0  0  0  0  0
    8.1577  -15.0477   25.7979 C   0  0  0  0  0  0  0  0  0  0  0  0
    7.3080  -16.0046   25.9177 O   0  0  0  0  0  0  0  0  0  0  0  0
    9.4477  -15.3719   26.2714 N   0  0  0  0  0  0  0  0  0  0  0  0
    9.8034  -16.7191   26.7296 C   0  0  1  0  0  0  0  0  0  0  0  0
   10.9298  -17.2866   25.9420 C   0  0  0  0  0  0  0  0  0  0  0  0
   11.3817  -18.6513   26.3473 C   0  0  0  0  0  0  0  0  0  0  0  0
   12.5383  -19.1567   25.5123 C   0  0  0  0  0  0  0  0  0  0  0  0
   12.9222  -20.5696   25.9106 C   0  0  0  0  0  0  0  0  0  0  0  0
   14.0151  -21.0694   25.1091 N   0  0  0  0  0  0  0  0  0  0  0  0
   10.1643  -16.6340   28.1527 C   0  0  0  0  0  0  0  0  0  0  0  0
   10.2535  -17.7824   28.9091 O   0  0  0  0  0  0  0  0  0  0  0  0
   10.3904  -15.5346   28.6871 O   0  0  0  0  0  0  0  0  0  0  0  0
  1  2  1  0
  3  2  1  0
  4  3  1  0
  5  4  1  0
  5  1  1  0
  6 12  1  0
  5  6  1  1
  7  6  2  0
  9  8  1  6
  9 11  1  0
 10  9  1  0
 11 12  1  6
 13 14  2  0
 13 11  1  0
 15 13  1  0
 16 15  1  0
 16 17  1  6
 18 17  1  0
 19 18  1  0
 20 19  1  0
 20 21  1  0
 22 16  1  0
 23 22  1  0
 24 22  2  0
M  END
$$$$
