PVK.pdb
     RDKit          3D

 24 24  0  0  1  0  0  0  0  0999 V2000
    6.7745  -15.7161   21.5170 N   0  0  0  0  0  0  0  0  0  0  0  0
    6.3083  -14.5713   20.7991 C   0  0  0  0  0  0  0  0  0  0  0  0
    7.5383  -13.8317   20.3030 C   0  0  0  0  0  0  0  0  0  0  0  0
    8.6246  -14.8717   20.4455 C   0  0  0  0  0  0  0  0  0  0  0  0
    8.1883  -15.6131   21.6912 C   0  0  1  0  0  0  0  0  0  0  0  0
    8.5633  -14.8928   22.9370 C   0  0  0  0  0  0  0  0  0  0  0  0
    9.7584  -14.5831   23.1743 O   0  0  0  0  0  0  0  0  0  0  0  0
    6.2168  -12.0760   24.7577 C   0  0  0  0  0  0  0  0  0  0  0  0
    6.7079  -13.1272   25.6808 C   0  0  2  0  0  0  0  0  0  0  0  0
    6.9633  -12.5192   27.0372 C   0  0  0  0  0  0  0  0  0  0  0  0
    7.9164  -13.9158   25.1927 C   0  0  2  0  0  0  0  0  0  0  0  0
    7.6027  -14.5254   23.9043 N   0  0  0  0  0  0  0  0  0  0  0  0
    8.4120  -14.9054   26.1563 C   0  0  0  0  0  0  0  0  0  0  0  0
    7.6920  -15.9395   26.4093 O   0  0  0  0  0  0  0  0  0  0  0  0
    9.6288  -14.8723   26.8717 N   0  0  0  0  0  0  0  0  0  0  0  0
   10.0492  -15.9598   27.7618 C   0  0  1  0  0  0  0  0  0  0  0  0
   11.2126  -16.7024   27.2085 C   0  0  0  0  0  0  0  0  0  0  0  0
   11.7621  -17.7866   28.0765 C   0  0  0  0  0  0  0  0  0  0  0  0
   12.8898  -18.5499   27.4160 C   0  0  0  0  0  0  0  0  0  0  0  0
   13.3777  -19.6792   28.3043 C   0  0  0  0  0  0  0  0  0  0  0  0
   14.2932  -20.5492   27.6033 N   0  0  0  0  0  0  0  0  0  0  0  0
   10.3892  -15.3726   29.0666 C   0  0  0  0  0  0  0  0  0  0  0  0
   10.3018  -14.0097   29.2507 O   0  0  0  0  0  0  0  0  0  0  0  0
   10.7576  -16.0916   30.0114 O   0  0  0  0  0  0  0  0  0  0  0  0
  1  2  1  0
  3  2  1  0
  4  3  1  0
  5  4  1  0
  5  1  1  0
  6 12  1  0
  5  6  1  1
  7  6  2  0
  9  8  1  6
  9 11  1  0
 10  9  1  0
 11 12  1  6
 13 14  2  0
 13 11  1  0
 15 13  1  0
 16 15  1  0
 16 17  1  6
 18 17  1  0
 19 18  1  0
 20 19  1  0
 20 21  1  0
 22 16  1  0
 23 22  1  0
 24 22  2  0
M  END
$$$$
