PVK.pdb
     RDKit          3D

 24 24  0  0  1  0  0  0  0  0999 V2000
    7.6675  -14.3685   20.3886 N   0  0  0  0  0  0  0  0  0  0  0  0
    7.9658  -15.7320   20.0801 C   0  0  0  0  0  0  0  0  0  0  0  0
    7.1335  -16.5881   21.0184 C   0  0  0  0  0  0  0  0  0  0  0  0
    6.1004  -15.6089   21.5243 C   0  0  0  0  0  0  0  0  0  0  0  0
    6.8931  -14.3206   21.5877 C   0  0  1  0  0  0  0  0  0  0  0  0
    7.7330  -14.2346   22.8118 C   0  0  0  0  0  0  0  0  0  0  0  0
    8.9499  -14.5492   22.7888 O   0  0  0  0  0  0  0  0  0  0  0  0
    5.9005  -13.0894   26.6158 C   0  0  0  0  0  0  0  0  0  0  0  0
    7.2766  -12.7060   26.2187 C   0  0  2  0  0  0  0  0  0  0  0  0
    7.2601  -11.3088   25.6512 C   0  0  0  0  0  0  0  0  0  0  0  0
    7.9817  -13.6756   25.2790 C   0  0  2  0  0  0  0  0  0  0  0  0
    7.2078  -13.7988   24.0478 N   0  0  0  0  0  0  0  0  0  0  0  0
    8.2654  -14.9857   25.8763 C   0  0  0  0  0  0  0  0  0  0  0  0
    7.3717  -15.9066   25.8049 O   0  0  0  0  0  0  0  0  0  0  0  0
    9.4416  -15.3873   26.5461 N   0  0  0  0  0  0  0  0  0  0  0  0
    9.7182  -16.7882   26.8814 C   0  0  1  0  0  0  0  0  0  0  0  0
   10.8046  -17.3503   26.0359 C   0  0  0  0  0  0  0  0  0  0  0  0
   11.1032  -18.7991   26.2424 C   0  0  0  0  0  0  0  0  0  0  0  0
   12.3003  -19.2692   25.4446 C   0  0  0  0  0  0  0  0  0  0  0  0
   12.5871  -20.7363   25.7047 C   0  0  0  0  0  0  0  0  0  0  0  0
   13.7678  -21.1800   25.0008 N   0  0  0  0  0  0  0  0  0  0  0  0
   10.0907  -16.8496   28.3028 C   0  0  0  0  0  0  0  0  0  0  0  0
   10.1739  -18.0688   28.9395 O   0  0  0  0  0  0  0  0  0  0  0  0
   10.3321  -15.8115   28.9427 O   0  0  0  0  0  0  0  0  0  0  0  0
  1  2  1  0
  3  2  1  0
  4  3  1  0
  5  4  1  0
  5  1  1  0
  6 12  1  0
  5  6  1  1
  7  6  2  0
  9  8  1  6
  9 11  1  0
 10  9  1  0
 11 12  1  6
 13 14  2  0
 13 11  1  0
 15 13  1  0
 16 15  1  0
 16 17  1  6
 18 17  1  0
 19 18  1  0
 20 19  1  0
 20 21  1  0
 22 16  1  0
 23 22  1  0
 24 22  2  0
M  END
$$$$
