PVK.pdb
     RDKit          3D

 24 24  0  0  1  0  0  0  0  0999 V2000
    7.4177  -14.5621   20.3897 N   0  0  0  0  0  0  0  0  0  0  0  0
    7.8991  -15.8605   20.0352 C   0  0  0  0  0  0  0  0  0  0  0  0
    7.2390  -16.8483   20.9809 C   0  0  0  0  0  0  0  0  0  0  0  0
    6.0952  -16.0418   21.5496 C   0  0  0  0  0  0  0  0  0  0  0  0
    6.6933  -14.6527   21.6172 C   0  0  1  0  0  0  0  0  0  0  0  0
    7.5601  -14.4690   22.8115 C   0  0  0  0  0  0  0  0  0  0  0  0
    8.8091  -14.5884   22.7330 O   0  0  0  0  0  0  0  0  0  0  0  0
    6.8392  -11.4780   25.3476 C   0  0  0  0  0  0  0  0  0  0  0  0
    7.1014  -12.7498   26.0632 C   0  0  2  0  0  0  0  0  0  0  0  0
    7.8265  -12.4555   27.3524 C   0  0  0  0  0  0  0  0  0  0  0  0
    7.8241  -13.8197   25.2548 C   0  0  2  0  0  0  0  0  0  0  0  0
    7.0257  -14.1543   24.0799 N   0  0  0  0  0  0  0  0  0  0  0  0
    8.1791  -15.0146   26.0293 C   0  0  0  0  0  0  0  0  0  0  0  0
    7.2375  -15.7687   26.4728 O   0  0  0  0  0  0  0  0  0  0  0  0
    9.4738  -15.4671   26.3644 N   0  0  0  0  0  0  0  0  0  0  0  0
    9.7137  -16.7642   27.0059 C   0  0  1  0  0  0  0  0  0  0  0  0
   10.8620  -17.4780   26.3871 C   0  0  0  0  0  0  0  0  0  0  0  0
   10.7444  -17.7485   24.9229 C   0  0  0  0  0  0  0  0  0  0  0  0
   11.9442  -18.4837   24.3656 C   0  0  0  0  0  0  0  0  0  0  0  0
   11.8668  -18.5867   22.8537 C   0  0  0  0  0  0  0  0  0  0  0  0
   13.0556  -19.1930   22.3008 N   0  0  0  0  0  0  0  0  0  0  0  0
    9.9688  -16.5239   28.4342 C   0  0  0  0  0  0  0  0  0  0  0  0
   10.1499  -15.2372   28.8931 O   0  0  0  0  0  0  0  0  0  0  0  0
   10.0250  -17.4701   29.2386 O   0  0  0  0  0  0  0  0  0  0  0  0
  1  2  1  0
  3  2  1  0
  4  3  1  0
  5  4  1  0
  5  1  1  0
  6 12  1  0
  5  6  1  1
  7  6  2  0
  9  8  1  6
  9 11  1  0
 10  9  1  0
 11 12  1  6
 13 14  2  0
 13 11  1  0
 15 13  1  0
 16 15  1  0
 16 17  1  6
 18 17  1  0
 19 18  1  0
 20 19  1  0
 20 21  1  0
 22 16  1  0
 23 22  1  0
 24 22  2  0
M  END
$$$$
