PVK.pdb
     RDKit          3D

 24 24  0  0  1  0  0  0  0  0999 V2000
    8.1309  -15.2239   20.5984 N   0  0  0  0  0  0  0  0  0  0  0  0
    8.7470  -16.5105   20.5079 C   0  0  0  0  0  0  0  0  0  0  0  0
    8.0369  -17.4099   21.5042 C   0  0  0  0  0  0  0  0  0  0  0  0
    6.7722  -16.6378   21.7979 C   0  0  0  0  0  0  0  0  0  0  0  0
    7.2552  -15.2047   21.7265 C   0  0  1  0  0  0  0  0  0  0  0  0
    7.9370  -14.7762   22.9767 C   0  0  0  0  0  0  0  0  0  0  0  0
    9.1902  -14.7968   23.0737 O   0  0  0  0  0  0  0  0  0  0  0  0
    6.4207  -11.6717   25.1411 C   0  0  0  0  0  0  0  0  0  0  0  0
    6.8463  -12.8209   25.9757 C   0  0  2  0  0  0  0  0  0  0  0  0
    7.3857  -12.3104   27.2883 C   0  0  0  0  0  0  0  0  0  0  0  0
    7.8230  -13.7850   25.3146 C   0  0  2  0  0  0  0  0  0  0  0  0
    7.2149  -14.3293   24.1047 N   0  0  0  0  0  0  0  0  0  0  0  0
    8.3081  -14.8464   26.2043 C   0  0  0  0  0  0  0  0  0  0  0  0
    7.4813  -15.7439   26.6075 O   0  0  0  0  0  0  0  0  0  0  0  0
    9.6201  -15.0219   26.6957 N   0  0  0  0  0  0  0  0  0  0  0  0
   10.0177  -16.1969   27.4785 C   0  0  1  0  0  0  0  0  0  0  0  0
   11.3391  -16.7232   27.0448 C   0  0  0  0  0  0  0  0  0  0  0  0
   11.3899  -17.2894   25.6636 C   0  0  0  0  0  0  0  0  0  0  0  0
   12.7584  -17.8241   25.3005 C   0  0  0  0  0  0  0  0  0  0  0  0
   12.7863  -18.3239   23.8681 C   0  0  0  0  0  0  0  0  0  0  0  0
   14.1390  -18.4964   23.3916 N   0  0  0  0  0  0  0  0  0  0  0  0
   10.0618  -15.8046   28.8952 C   0  0  0  0  0  0  0  0  0  0  0  0
   10.2440  -16.7631   29.8684 O   0  0  0  0  0  0  0  0  0  0  0  0
    9.9353  -14.6142   29.2301 O   0  0  0  0  0  0  0  0  0  0  0  0
  1  2  1  0
  3  2  1  0
  4  3  1  0
  5  4  1  0
  5  1  1  0
  6 12  1  0
  5  6  1  1
  7  6  2  0
  9  8  1  6
  9 11  1  0
 10  9  1  0
 11 12  1  6
 13 14  2  0
 13 11  1  0
 15 13  1  0
 16 15  1  0
 16 17  1  6
 18 17  1  0
 19 18  1  0
 20 19  1  0
 20 21  1  0
 22 16  1  0
 23 22  1  0
 24 22  2  0
M  END
$$$$
