PVK.pdb
     RDKit          3D

 24 24  0  0  1  0  0  0  0  0999 V2000
    7.4418  -15.5837   20.6081 N   0  0  0  0  0  0  0  0  0  0  0  0
    7.7075  -16.9844   20.5049 C   0  0  0  0  0  0  0  0  0  0  0  0
    6.7725  -17.6829   21.4763 C   0  0  0  0  0  0  0  0  0  0  0  0
    5.7441  -16.6147   21.7652 C   0  0  0  0  0  0  0  0  0  0  0  0
    6.5808  -15.3537   21.7241 C   0  0  1  0  0  0  0  0  0  0  0  0
    7.3279  -15.1307   22.9905 C   0  0  0  0  0  0  0  0  0  0  0  0
    8.4973  -15.5668   23.1410 O   0  0  0  0  0  0  0  0  0  0  0  0
    6.7909  -11.6925   25.1932 C   0  0  0  0  0  0  0  0  0  0  0  0
    6.8069  -12.9375   25.9983 C   0  0  2  0  0  0  0  0  0  0  0  0
    7.4338  -12.6545   27.3405 C   0  0  0  0  0  0  0  0  0  0  0  0
    7.4551  -14.1426   25.3290 C   0  0  2  0  0  0  0  0  0  0  0  0
    6.7637  -14.4241   24.0749 N   0  0  0  0  0  0  0  0  0  0  0  0
    7.5324  -15.3312   26.1860 C   0  0  0  0  0  0  0  0  0  0  0  0
    6.4558  -15.9876   26.4350 O   0  0  0  0  0  0  0  0  0  0  0  0
    8.6827  -15.8749   26.7982 N   0  0  0  0  0  0  0  0  0  0  0  0
    8.6994  -17.2153   27.3936 C   0  0  1  0  0  0  0  0  0  0  0  0
    8.8844  -18.2709   26.3628 C   0  0  0  0  0  0  0  0  0  0  0  0
    8.9923  -19.6686   26.8781 C   0  0  0  0  0  0  0  0  0  0  0  0
    9.1539  -20.6891   25.7722 C   0  0  0  0  0  0  0  0  0  0  0  0
    9.3086  -22.0880   26.3392 C   0  0  0  0  0  0  0  0  0  0  0  0
    9.6256  -23.0477   25.3072 N   0  0  0  0  0  0  0  0  0  0  0  0
    9.7922  -17.2616   28.3768 C   0  0  0  0  0  0  0  0  0  0  0  0
   10.6627  -16.1991   28.4874 O   0  0  0  0  0  0  0  0  0  0  0  0
    9.9439  -18.2514   29.1133 O   0  0  0  0  0  0  0  0  0  0  0  0
  1  2  1  0
  3  2  1  0
  4  3  1  0
  5  4  1  0
  5  1  1  0
  6 12  1  0
  5  6  1  1
  7  6  2  0
  9  8  1  6
  9 11  1  0
 10  9  1  0
 11 12  1  6
 13 14  2  0
 13 11  1  0
 15 13  1  0
 16 15  1  0
 16 17  1  6
 18 17  1  0
 19 18  1  0
 20 19  1  0
 20 21  1  0
 22 16  1  0
 23 22  1  0
 24 22  2  0
M  END
$$$$
