PVK.pdb
     RDKit          3D

 24 24  0  0  1  0  0  0  0  0999 V2000
    6.6248  -15.5774   21.6109 N   0  0  0  0  0  0  0  0  0  0  0  0
    6.4542  -14.5235   20.6604 C   0  0  0  0  0  0  0  0  0  0  0  0
    7.8366  -14.1725   20.1392 C   0  0  0  0  0  0  0  0  0  0  0  0
    8.6573  -15.3698   20.5573 C   0  0  0  0  0  0  0  0  0  0  0  0
    8.0180  -15.7432   21.8779 C   0  0  1  0  0  0  0  0  0  0  0  0
    8.4949  -14.8883   22.9974 C   0  0  0  0  0  0  0  0  0  0  0  0
    9.7157  -14.6235   23.1389 O   0  0  0  0  0  0  0  0  0  0  0  0
    6.4675  -11.7838   24.8545 C   0  0  0  0  0  0  0  0  0  0  0  0
    6.8934  -12.8802   25.7572 C   0  0  2  0  0  0  0  0  0  0  0  0
    7.2437  -12.3061   27.1072 C   0  0  0  0  0  0  0  0  0  0  0  0
    8.0120  -13.7681   25.2274 C   0  0  2  0  0  0  0  0  0  0  0  0
    7.6063  -14.3378   23.9465 N   0  0  0  0  0  0  0  0  0  0  0  0
    8.4479  -14.8050   26.1700 C   0  0  0  0  0  0  0  0  0  0  0  0
    7.6704  -15.8027   26.3979 O   0  0  0  0  0  0  0  0  0  0  0  0
    9.6618  -14.8558   26.8893 N   0  0  0  0  0  0  0  0  0  0  0  0
   10.0097  -15.9763   27.7696 C   0  0  1  0  0  0  0  0  0  0  0  0
   11.0481  -16.8496   27.1612 C   0  0  0  0  0  0  0  0  0  0  0  0
   11.4945  -18.0047   27.9963 C   0  0  0  0  0  0  0  0  0  0  0  0
   12.5372  -18.8573   27.3060 C   0  0  0  0  0  0  0  0  0  0  0  0
   12.9534  -20.0250   28.1811 C   0  0  0  0  0  0  0  0  0  0  0  0
   13.8157  -20.9406   27.4708 N   0  0  0  0  0  0  0  0  0  0  0  0
   10.4895  -15.4204   29.0438 C   0  0  0  0  0  0  0  0  0  0  0  0
   10.6859  -16.2511   30.1256 O   0  0  0  0  0  0  0  0  0  0  0  0
   10.7209  -14.2046   29.1607 O   0  0  0  0  0  0  0  0  0  0  0  0
  1  2  1  0
  3  2  1  0
  4  3  1  0
  5  4  1  0
  5  1  1  0
  6 12  1  0
  5  6  1  1
  7  6  2  0
  9  8  1  6
  9 11  1  0
 10  9  1  0
 11 12  1  6
 13 14  2  0
 13 11  1  0
 15 13  1  0
 16 15  1  0
 16 17  1  6
 18 17  1  0
 19 18  1  0
 20 19  1  0
 20 21  1  0
 22 16  1  0
 23 22  1  0
 24 22  2  0
M  END
$$$$
