HWD.pdb
     RDKit          3D

 33 35  0  0  1  0  0  0  0  0999 V2000
    8.3537  -17.1700   18.8434 N   0  0  0  0  0  0  0  0  0  0  0  0
    9.4424  -16.2221   18.9868 C   0  0  1  0  0  0  0  0  0  0  0  0
    9.3593  -15.0959   18.0117 C   0  0  0  0  0  0  0  0  0  0  0  0
    9.2344  -15.5723   16.6115 C   0  0  0  0  0  0  0  0  0  0  0  0
    9.1532  -16.9108   16.2548 C   0  0  0  0  0  0  0  0  0  0  0  0
    9.0492  -17.0102   14.9187 N   0  0  0  0  0  0  0  0  0  0  0  0
    9.0640  -15.7576   14.4343 C   0  0  0  0  0  0  0  0  0  0  0  0
    9.1757  -14.9005   15.4621 N   0  0  0  0  0  0  0  0  0  0  0  0
    9.4762  -15.6516   20.3735 C   0  0  0  0  0  0  0  0  0  0  0  0
   10.4017  -14.8839   20.7348 O   0  0  0  0  0  0  0  0  0  0  0  0
    8.4305  -16.0095   21.2537 N   0  0  0  0  0  0  0  0  0  0  0  0
    8.4293  -15.6927   22.6692 C   0  0  1  0  0  0  0  0  0  0  0  0
    7.0536  -15.3736   23.1745 C   0  0  0  0  0  0  0  0  0  0  0  0
    6.9579  -15.0236   24.5870 C   0  0  0  0  0  0  0  0  0  0  0  0
    6.5880  -15.9212   25.5920 C   0  0  0  0  0  0  0  0  0  0  0  0
    6.5890  -15.2045   26.7245 N   0  0  0  0  0  0  0  0  0  0  0  0
    6.9319  -13.9328   26.4969 C   0  0  0  0  0  0  0  0  0  0  0  0
    7.0798  -12.8457   27.3533 C   0  0  0  0  0  0  0  0  0  0  0  0
    7.4705  -11.6134   26.8541 C   0  0  0  0  0  0  0  0  0  0  0  0
    7.7180  -11.4500   25.4982 C   0  0  0  0  0  0  0  0  0  0  0  0
    7.5676  -12.5279   24.6692 C   0  0  0  0  0  0  0  0  0  0  0  0
    7.1793  -13.7627   25.1427 C   0  0  0  0  0  0  0  0  0  0  0  0
    9.1755  -16.6086   23.5089 C   0  0  0  0  0  0  0  0  0  0  0  0
    8.9143  -17.8428   23.4270 O   0  0  0  0  0  0  0  0  0  0  0  0
   10.1838  -16.2533   24.4260 N   0  0  0  0  0  0  0  0  0  0  0  0
   11.0388  -17.2294   25.1229 C   0  0  1  0  0  0  0  0  0  0  0  0
   12.4268  -16.7094   25.2742 C   0  0  0  0  0  0  0  0  0  0  0  0
   13.1111  -16.6723   23.9705 C   0  0  0  0  0  0  0  0  0  0  0  0
   12.5420  -17.0826   22.9332 O   0  0  0  0  0  0  0  0  0  0  0  0
   10.4099  -17.4601   26.4345 C   0  0  0  0  0  0  0  0  0  0  0  0
    9.2877  -16.7766   26.8455 O   0  0  0  0  0  0  0  0  0  0  0  0
   14.3979  -16.1829   23.8643 O   0  0  0  0  0  0  0  0  0  0  0  0
   10.9090  -18.3080   27.2098 O   0  0  0  0  0  0  0  0  0  0  0  0
  2  1  1  1
  2  3  1  0
  3  4  1  0
  4  8  1  0
  5  4  2  0
  5  6  1  0
  6  7  1  0
  8  7  2  0
  9  2  1  0
  9 10  2  0
 11  9  1  0
 12 13  1  1
 12 11  1  0
 14 13  1  0
 14 15  2  0
 16 15  1  0
 17 16  1  0
 18 17  2  0
 19 18  1  0
 20 19  2  0
 20 21  1  0
 21 22  2  0
 22 17  1  0
 22 14  1  0
 23 12  1  0
 24 23  2  0
 25 23  1  0
 26 30  1  0
 26 25  1  0
 26 27  1  1
 28 27  1  0
 28 29  2  0
 30 31  1  0
 32 28  1  0
 33 30  2  0
M  END
$$$$
