HWD.pdb
     RDKit          3D

 33 35  0  0  1  0  0  0  0  0999 V2000
   11.5076  -15.9637   18.7988 N   0  0  0  0  0  0  0  0  0  0  0  0
   10.6040  -16.7483   19.6187 C   0  0  1  0  0  0  0  0  0  0  0  0
   11.0318  -18.1717   19.7491 C   0  0  0  0  0  0  0  0  0  0  0  0
    9.8891  -19.1137   19.6509 C   0  0  0  0  0  0  0  0  0  0  0  0
    9.0411  -19.4130   20.7076 C   0  0  0  0  0  0  0  0  0  0  0  0
    8.1137  -20.2953   20.2984 N   0  0  0  0  0  0  0  0  0  0  0  0
    8.3672  -20.5525   19.0048 C   0  0  0  0  0  0  0  0  0  0  0  0
    9.4377  -19.8358   18.6257 N   0  0  0  0  0  0  0  0  0  0  0  0
   10.4796  -16.1592   20.9925 C   0  0  0  0  0  0  0  0  0  0  0  0
   11.4923  -15.7652   21.6214 O   0  0  0  0  0  0  0  0  0  0  0  0
    9.1843  -16.0648   21.5488 N   0  0  0  0  0  0  0  0  0  0  0  0
    8.9238  -15.6201   22.9046 C   0  0  1  0  0  0  0  0  0  0  0  0
    7.5030  -15.1763   23.0893 C   0  0  0  0  0  0  0  0  0  0  0  0
    7.1440  -14.7269   24.4295 C   0  0  0  0  0  0  0  0  0  0  0  0
    6.6270  -15.5629   25.4226 C   0  0  0  0  0  0  0  0  0  0  0  0
    6.4022  -14.7646   26.4755 N   0  0  0  0  0  0  0  0  0  0  0  0
    6.7413  -13.4993   26.2097 C   0  0  0  0  0  0  0  0  0  0  0  0
    6.6993  -12.3459   26.9877 C   0  0  0  0  0  0  0  0  0  0  0  0
    7.1355  -11.1380   26.4672 C   0  0  0  0  0  0  0  0  0  0  0  0
    7.6179  -11.0650   25.1678 C   0  0  0  0  0  0  0  0  0  0  0  0
    7.6521  -12.2072   24.4155 C   0  0  0  0  0  0  0  0  0  0  0  0
    7.2230  -13.4194   24.9114 C   0  0  0  0  0  0  0  0  0  0  0  0
    9.4152  -16.4971   23.9487 C   0  0  0  0  0  0  0  0  0  0  0  0
    9.0445  -17.7057   23.9381 O   0  0  0  0  0  0  0  0  0  0  0  0
   10.2828  -16.1296   24.9957 N   0  0  0  0  0  0  0  0  0  0  0  0
   10.7858  -17.0700   26.0115 C   0  0  1  0  0  0  0  0  0  0  0  0
   12.2684  -16.9825   26.1307 C   0  0  0  0  0  0  0  0  0  0  0  0
   12.9152  -17.4182   24.8813 C   0  0  0  0  0  0  0  0  0  0  0  0
   12.5008  -18.4225   24.2586 O   0  0  0  0  0  0  0  0  0  0  0  0
   10.1265  -16.6978   27.2748 C   0  0  0  0  0  0  0  0  0  0  0  0
    9.2461  -15.6432   27.3651 O   0  0  0  0  0  0  0  0  0  0  0  0
   13.9950  -16.7266   24.3689 O   0  0  0  0  0  0  0  0  0  0  0  0
   10.3709  -17.3608   28.3090 O   0  0  0  0  0  0  0  0  0  0  0  0
  2  1  1  6
  2  3  1  0
  3  4  1  0
  4  8  1  0
  5  4  2  0
  5  6  1  0
  6  7  1  0
  8  7  2  0
  9  2  1  0
  9 10  2  0
 11  9  1  0
 12 13  1  6
 12 11  1  0
 14 13  1  0
 14 15  2  0
 16 15  1  0
 17 16  1  0
 18 17  2  0
 19 18  1  0
 20 19  2  0
 20 21  1  0
 21 22  2  0
 22 17  1  0
 22 14  1  0
 23 12  1  0
 24 23  2  0
 25 23  1  0
 26 30  1  0
 26 25  1  0
 26 27  1  1
 28 27  1  0
 28 29  2  0
 30 31  1  0
 32 28  1  0
 33 30  2  0
M  END
$$$$
