HWD.pdb
     RDKit          3D

 33 35  0  0  1  0  0  0  0  0999 V2000
    9.2961  -15.2893   17.8121 N   0  0  0  0  0  0  0  0  0  0  0  0
    9.4298  -16.3424   18.8007 C   0  0  1  0  0  0  0  0  0  0  0  0
   10.6150  -17.2154   18.5572 C   0  0  0  0  0  0  0  0  0  0  0  0
   10.6016  -17.8165   17.2002 C   0  0  0  0  0  0  0  0  0  0  0  0
   10.1236  -19.0893   16.9233 C   0  0  0  0  0  0  0  0  0  0  0  0
   10.2501  -19.3363   15.6084 N   0  0  0  0  0  0  0  0  0  0  0  0
   10.7987  -18.2404   15.0589 C   0  0  0  0  0  0  0  0  0  0  0  0
   11.0057  -17.3322   16.0262 N   0  0  0  0  0  0  0  0  0  0  0  0
    9.5348  -15.7690   20.1827 C   0  0  0  0  0  0  0  0  0  0  0  0
   10.4111  -14.9149   20.4638 O   0  0  0  0  0  0  0  0  0  0  0  0
    8.6132  -16.2249   21.1517 N   0  0  0  0  0  0  0  0  0  0  0  0
    8.5492  -15.7065   22.5048 C   0  0  1  0  0  0  0  0  0  0  0  0
    7.1868  -15.1778   22.8424 C   0  0  0  0  0  0  0  0  0  0  0  0
    6.9796  -14.7893   24.2327 C   0  0  0  0  0  0  0  0  0  0  0  0
    6.5741  -15.6699   25.2390 C   0  0  0  0  0  0  0  0  0  0  0  0
    6.4691  -14.9198   26.3446 N   0  0  0  0  0  0  0  0  0  0  0  0
    6.7794  -13.6430   26.0993 C   0  0  0  0  0  0  0  0  0  0  0  0
    6.8264  -12.5254   26.9276 C   0  0  0  0  0  0  0  0  0  0  0  0
    7.2048  -11.2944   26.4161 C   0  0  0  0  0  0  0  0  0  0  0  0
    7.5403  -11.1624   25.0757 C   0  0  0  0  0  0  0  0  0  0  0  0
    7.4885  -12.2701   24.2744 C   0  0  0  0  0  0  0  0  0  0  0  0
    7.1144  -13.5043   24.7605 C   0  0  0  0  0  0  0  0  0  0  0  0
    9.1264  -16.5614   23.5230 C   0  0  0  0  0  0  0  0  0  0  0  0
    8.7564  -17.7694   23.5695 O   0  0  0  0  0  0  0  0  0  0  0  0
   10.0782  -16.1727   24.4857 N   0  0  0  0  0  0  0  0  0  0  0  0
   10.7205  -17.1062   25.4267 C   0  0  1  0  0  0  0  0  0  0  0  0
   12.1756  -16.8137   25.5573 C   0  0  0  0  0  0  0  0  0  0  0  0
   12.8753  -17.0905   24.2913 C   0  0  0  0  0  0  0  0  0  0  0  0
   12.8104  -18.2196   23.7537 O   0  0  0  0  0  0  0  0  0  0  0  0
   10.0243  -16.9331   26.7129 C   0  0  0  0  0  0  0  0  0  0  0  0
   10.3287  -17.6866   27.8243 O   0  0  0  0  0  0  0  0  0  0  0  0
   13.6198  -16.1082   23.6687 O   0  0  0  0  0  0  0  0  0  0  0  0
    9.1209  -16.0705   26.8065 O   0  0  0  0  0  0  0  0  0  0  0  0
  2  1  1  6
  2  3  1  0
  3  4  1  0
  4  8  1  0
  5  4  2  0
  5  6  1  0
  6  7  1  0
  8  7  2  0
  9  2  1  0
  9 10  2  0
 11  9  1  0
 12 13  1  1
 12 11  1  0
 14 13  1  0
 14 15  2  0
 16 15  1  0
 17 16  1  0
 18 17  2  0
 19 18  1  0
 20 19  2  0
 20 21  1  0
 21 22  2  0
 22 17  1  0
 22 14  1  0
 23 12  1  0
 24 23  2  0
 25 23  1  0
 26 30  1  0
 26 25  1  0
 26 27  1  1
 28 27  1  0
 28 29  2  0
 30 31  1  0
 32 28  1  0
 33 30  2  0
M  END
$$$$
