HWD.pdb
     RDKit          3D

 33 35  0  0  1  0  0  0  0  0999 V2000
    8.1838  -16.1590   21.2522 N   0  0  0  0  0  0  0  0  0  0  0  0
    9.4156  -15.3965   21.3261 C   0  0  1  0  0  0  0  0  0  0  0  0
    9.2623  -14.0017   20.8191 C   0  0  0  0  0  0  0  0  0  0  0  0
    8.8797  -13.9631   19.3856 C   0  0  0  0  0  0  0  0  0  0  0  0
    7.9779  -13.0545   18.8505 C   0  0  0  0  0  0  0  0  0  0  0  0
    7.8468  -13.2806   17.5323 N   0  0  0  0  0  0  0  0  0  0  0  0
    8.6508  -14.3144   17.2344 C   0  0  0  0  0  0  0  0  0  0  0  0
    9.2675  -14.7169   18.3573 N   0  0  0  0  0  0  0  0  0  0  0  0
    9.9258  -15.3390   22.7354 C   0  0  0  0  0  0  0  0  0  0  0  0
   10.9342  -14.6517   23.0308 O   0  0  0  0  0  0  0  0  0  0  0  0
    9.2304  -16.0845   23.7136 N   0  0  0  0  0  0  0  0  0  0  0  0
    9.6684  -16.2066   25.0910 C   0  0  1  0  0  0  0  0  0  0  0  0
    8.5142  -16.2550   26.0476 C   0  0  0  0  0  0  0  0  0  0  0  0
    7.4651  -15.2651   25.8324 C   0  0  0  0  0  0  0  0  0  0  0  0
    6.2499  -15.5382   25.1991 C   0  0  0  0  0  0  0  0  0  0  0  0
    5.5941  -14.3697   25.1728 N   0  0  0  0  0  0  0  0  0  0  0  0
    6.3103  -13.3952   25.7421 C   0  0  0  0  0  0  0  0  0  0  0  0
    6.0366  -12.0471   25.9543 C   0  0  0  0  0  0  0  0  0  0  0  0
    6.9617  -11.2411   26.5982 C   0  0  0  0  0  0  0  0  0  0  0  0
    8.1684  -11.7677   27.0376 C   0  0  0  0  0  0  0  0  0  0  0  0
    8.4230  -13.0943   26.8211 C   0  0  0  0  0  0  0  0  0  0  0  0
    7.5186  -13.9150   26.1823 C   0  0  0  0  0  0  0  0  0  0  0  0
   10.6842  -17.2123   25.3305 C   0  0  0  0  0  0  0  0  0  0  0  0
   11.8953  -16.8906   25.1635 O   0  0  0  0  0  0  0  0  0  0  0  0
   10.4519  -18.5400   25.7394 N   0  0  0  0  0  0  0  0  0  0  0  0
   11.4603  -19.3802   26.4075 C   0  0  1  0  0  0  0  0  0  0  0  0
   12.8375  -18.9904   25.9934 C   0  0  0  0  0  0  0  0  0  0  0  0
   13.1251  -19.4726   24.6319 C   0  0  0  0  0  0  0  0  0  0  0  0
   13.0059  -20.6845   24.3399 O   0  0  0  0  0  0  0  0  0  0  0  0
   11.2626  -19.1837   27.8536 C   0  0  0  0  0  0  0  0  0  0  0  0
   12.0064  -19.8546   28.7982 O   0  0  0  0  0  0  0  0  0  0  0  0
   13.5334  -18.5963   23.6459 O   0  0  0  0  0  0  0  0  0  0  0  0
   10.3873  -18.3780   28.2458 O   0  0  0  0  0  0  0  0  0  0  0  0
  2  1  1  1
  2  3  1  0
  3  4  1  0
  4  8  1  0
  5  4  2  0
  5  6  1  0
  6  7  1  0
  8  7  2  0
  9  2  1  0
  9 10  2  0
 11  9  1  0
 12 13  1  1
 12 11  1  0
 14 13  1  0
 14 15  2  0
 16 15  1  0
 17 16  1  0
 18 17  2  0
 19 18  1  0
 20 19  2  0
 20 21  1  0
 21 22  2  0
 22 17  1  0
 22 14  1  0
 23 12  1  0
 24 23  2  0
 25 23  1  0
 26 30  1  0
 26 25  1  0
 26 27  1  6
 28 27  1  0
 28 29  2  0
 30 31  1  0
 32 28  1  0
 33 30  2  0
M  END
$$$$
