HWD.pdb
     RDKit          3D

 33 35  0  0  1  0  0  0  0  0999 V2000
    8.7412  -16.6237   20.6344 N   0  0  0  0  0  0  0  0  0  0  0  0
   10.0244  -16.0601   21.0087 C   0  0  1  0  0  0  0  0  0  0  0  0
   10.2082  -14.6645   20.5143 C   0  0  0  0  0  0  0  0  0  0  0  0
    9.1821  -14.2832   19.5120 C   0  0  0  0  0  0  0  0  0  0  0  0
    7.8401  -14.0978   19.8118 C   0  0  0  0  0  0  0  0  0  0  0  0
    7.1762  -13.7605   18.6931 N   0  0  0  0  0  0  0  0  0  0  0  0
    8.0797  -13.7319   17.6997 C   0  0  0  0  0  0  0  0  0  0  0  0
    9.2834  -14.0480   18.2041 N   0  0  0  0  0  0  0  0  0  0  0  0
   10.1972  -16.0656   22.4987 C   0  0  0  0  0  0  0  0  0  0  0  0
   11.2036  -15.5404   23.0351 O   0  0  0  0  0  0  0  0  0  0  0  0
    9.1877  -16.6815   23.2719 N   0  0  0  0  0  0  0  0  0  0  0  0
    9.2075  -16.7352   24.7212 C   0  0  1  0  0  0  0  0  0  0  0  0
    7.8351  -16.5937   25.3096 C   0  0  0  0  0  0  0  0  0  0  0  0
    7.2126  -15.2824   25.1687 C   0  0  0  0  0  0  0  0  0  0  0  0
    6.1713  -15.0021   24.2800 C   0  0  0  0  0  0  0  0  0  0  0  0
    5.9163  -13.6955   24.4344 N   0  0  0  0  0  0  0  0  0  0  0  0
    6.7194  -13.1465   25.3511 C   0  0  0  0  0  0  0  0  0  0  0  0
    6.8094  -11.8488   25.8460 C   0  0  0  0  0  0  0  0  0  0  0  0
    7.7370  -11.5403   26.8282 C   0  0  0  0  0  0  0  0  0  0  0  0
    8.5844  -12.5194   27.3281 C   0  0  0  0  0  0  0  0  0  0  0  0
    8.4841  -13.7900   26.8309 C   0  0  0  0  0  0  0  0  0  0  0  0
    7.5701  -14.1201   25.8537 C   0  0  0  0  0  0  0  0  0  0  0  0
    9.9920  -17.8131   25.2899 C   0  0  0  0  0  0  0  0  0  0  0  0
    9.6943  -19.0004   24.9740 O   0  0  0  0  0  0  0  0  0  0  0  0
   11.0755  -17.6667   26.1779 N   0  0  0  0  0  0  0  0  0  0  0  0
   11.7315  -18.7934   26.8632 C   0  0  1  0  0  0  0  0  0  0  0  0
   13.1916  -18.5429   27.0222 C   0  0  0  0  0  0  0  0  0  0  0  0
   13.8546  -18.4920   25.7081 C   0  0  0  0  0  0  0  0  0  0  0  0
   14.2599  -17.4063   25.2335 O   0  0  0  0  0  0  0  0  0  0  0  0
   11.0665  -18.9189   28.1713 C   0  0  0  0  0  0  0  0  0  0  0  0
   10.0795  -18.0522   28.5838 O   0  0  0  0  0  0  0  0  0  0  0  0
   14.0439  -19.6434   24.9697 O   0  0  0  0  0  0  0  0  0  0  0  0
   11.4063  -19.8461   28.9420 O   0  0  0  0  0  0  0  0  0  0  0  0
  2  1  1  1
  2  3  1  0
  3  4  1  0
  4  8  1  0
  5  4  2  0
  5  6  1  0
  6  7  1  0
  8  7  2  0
  9  2  1  0
  9 10  2  0
 11  9  1  0
 12 13  1  6
 12 11  1  0
 14 13  1  0
 14 15  2  0
 16 15  1  0
 17 16  1  0
 18 17  2  0
 19 18  1  0
 20 19  2  0
 20 21  1  0
 21 22  2  0
 22 17  1  0
 22 14  1  0
 23 12  1  0
 24 23  2  0
 25 23  1  0
 26 30  1  0
 26 25  1  0
 26 27  1  1
 28 27  1  0
 28 29  2  0
 30 31  1  0
 32 28  1  0
 33 30  2  0
M  END
$$$$
