HWD.pdb
     RDKit          3D

 33 35  0  0  1  0  0  0  0  0999 V2000
    7.8690  -16.3699   20.6299 N   0  0  0  0  0  0  0  0  0  0  0  0
    8.8396  -15.2961   20.7266 C   0  0  1  0  0  0  0  0  0  0  0  0
    8.2882  -13.9791   20.2937 C   0  0  0  0  0  0  0  0  0  0  0  0
    8.0729  -13.9143   18.8265 C   0  0  0  0  0  0  0  0  0  0  0  0
    8.3721  -14.9516   17.9549 C   0  0  0  0  0  0  0  0  0  0  0  0
    8.0641  -14.5818   16.7001 N   0  0  0  0  0  0  0  0  0  0  0  0
    7.5779  -13.3319   16.7724 C   0  0  0  0  0  0  0  0  0  0  0  0
    7.5877  -12.9404   18.0569 N   0  0  0  0  0  0  0  0  0  0  0  0
    9.3509  -15.1616   22.1302 C   0  0  0  0  0  0  0  0  0  0  0  0
   10.0940  -14.2045   22.4591 O   0  0  0  0  0  0  0  0  0  0  0  0
    8.9653  -16.1492   23.0642 N   0  0  0  0  0  0  0  0  0  0  0  0
    9.5055  -16.2379   24.4074 C   0  0  1  0  0  0  0  0  0  0  0  0
    8.4257  -16.3054   25.4462 C   0  0  0  0  0  0  0  0  0  0  0  0
    7.4106  -15.2604   25.3802 C   0  0  0  0  0  0  0  0  0  0  0  0
    6.1197  -15.4541   24.8814 C   0  0  0  0  0  0  0  0  0  0  0  0
    5.5251  -14.2558   24.9635 N   0  0  0  0  0  0  0  0  0  0  0  0
    6.3491  -13.3362   25.4756 C   0  0  0  0  0  0  0  0  0  0  0  0
    6.1694  -11.9848   25.7562 C   0  0  0  0  0  0  0  0  0  0  0  0
    7.2006  -11.2458   26.3137 C   0  0  0  0  0  0  0  0  0  0  0  0
    8.4207  -11.8434   26.5979 C   0  0  0  0  0  0  0  0  0  0  0  0
    8.5819  -13.1723   26.3157 C   0  0  0  0  0  0  0  0  0  0  0  0
    7.5712  -13.9271   25.7605 C   0  0  0  0  0  0  0  0  0  0  0  0
   10.5657  -17.2100   24.5851 C   0  0  0  0  0  0  0  0  0  0  0  0
   10.3372  -18.4102   24.2601 O   0  0  0  0  0  0  0  0  0  0  0  0
   11.8521  -16.9456   25.0943 N   0  0  0  0  0  0  0  0  0  0  0  0
   12.8792  -17.9802   25.3041 C   0  0  1  0  0  0  0  0  0  0  0  0
   14.2425  -17.3798   25.3302 C   0  0  0  0  0  0  0  0  0  0  0  0
   14.5714  -16.7841   24.0241 C   0  0  0  0  0  0  0  0  0  0  0  0
   14.3418  -17.4016   22.9591 O   0  0  0  0  0  0  0  0  0  0  0  0
   12.5549  -18.6231   26.5888 C   0  0  0  0  0  0  0  0  0  0  0  0
   11.6580  -18.0794   27.4807 O   0  0  0  0  0  0  0  0  0  0  0  0
   15.1414  -15.5288   23.9460 O   0  0  0  0  0  0  0  0  0  0  0  0
   13.1119  -19.7045   26.8877 O   0  0  0  0  0  0  0  0  0  0  0  0
  2  1  1  1
  2  3  1  0
  3  4  1  0
  4  8  1  0
  5  4  2  0
  5  6  1  0
  6  7  1  0
  8  7  2  0
  9  2  1  0
  9 10  2  0
 11  9  1  0
 12 13  1  1
 12 11  1  0
 14 13  1  0
 14 15  2  0
 16 15  1  0
 17 16  1  0
 18 17  2  0
 19 18  1  0
 20 19  2  0
 20 21  1  0
 21 22  2  0
 22 17  1  0
 22 14  1  0
 23 12  1  0
 24 23  2  0
 25 23  1  0
 26 30  1  0
 26 25  1  0
 26 27  1  1
 28 27  1  0
 28 29  2  0
 30 31  1  0
 32 28  1  0
 33 30  2  0
M  END
$$$$
