HWD.pdb
     RDKit          3D

 33 35  0  0  1  0  0  0  0  0999 V2000
    8.2743  -16.5430   21.7019 N   0  0  0  0  0  0  0  0  0  0  0  0
    9.3262  -15.5543   21.8447 C   0  0  1  0  0  0  0  0  0  0  0  0
    8.8910  -14.1859   21.4397 C   0  0  0  0  0  0  0  0  0  0  0  0
    8.4492  -14.1322   20.0237 C   0  0  0  0  0  0  0  0  0  0  0  0
    8.4712  -15.2221   19.1654 C   0  0  0  0  0  0  0  0  0  0  0  0
    8.0112  -14.8485   17.9592 N   0  0  0  0  0  0  0  0  0  0  0  0
    7.7023  -13.5445   18.0489 C   0  0  0  0  0  0  0  0  0  0  0  0
    7.9699  -13.1240   19.2958 N   0  0  0  0  0  0  0  0  0  0  0  0
    9.8203  -15.4991   23.2598 C   0  0  0  0  0  0  0  0  0  0  0  0
   10.8130  -14.7963   23.5714 O   0  0  0  0  0  0  0  0  0  0  0  0
    9.1283  -16.2649   24.2246 N   0  0  0  0  0  0  0  0  0  0  0  0
    9.5792  -16.4283   25.5935 C   0  0  1  0  0  0  0  0  0  0  0  0
    8.4552  -16.2931   26.5774 C   0  0  0  0  0  0  0  0  0  0  0  0
    7.4327  -15.3073   26.2465 C   0  0  0  0  0  0  0  0  0  0  0  0
    6.2161  -15.6178   25.6332 C   0  0  0  0  0  0  0  0  0  0  0  0
    5.5896  -14.4435   25.4753 N   0  0  0  0  0  0  0  0  0  0  0  0
    6.3252  -13.4310   25.9447 C   0  0  0  0  0  0  0  0  0  0  0  0
    6.0832  -12.0618   26.0086 C   0  0  0  0  0  0  0  0  0  0  0  0
    7.0229  -11.2136   26.5724 C   0  0  0  0  0  0  0  0  0  0  0  0
    8.2127  -11.7186   27.0783 C   0  0  0  0  0  0  0  0  0  0  0  0
    8.4361  -13.0665   27.0075 C   0  0  0  0  0  0  0  0  0  0  0  0
    7.5167  -13.9292   26.4507 C   0  0  0  0  0  0  0  0  0  0  0  0
   10.4437  -17.5677   25.8284 C   0  0  0  0  0  0  0  0  0  0  0  0
   10.7234  -17.8696   27.0237 O   0  0  0  0  0  0  0  0  0  0  0  0
   11.0151  -18.3893   24.8372 N   0  0  0  0  0  0  0  0  0  0  0  0
   11.8377  -19.5754   25.1299 C   0  0  1  0  0  0  0  0  0  0  0  0
   11.2664  -20.7919   24.4867 C   0  0  0  0  0  0  0  0  0  0  0  0
   12.1162  -21.9653   24.7511 C   0  0  0  0  0  0  0  0  0  0  0  0
   13.1188  -21.8788   25.4964 O   0  0  0  0  0  0  0  0  0  0  0  0
   13.1827  -19.2784   24.6085 C   0  0  0  0  0  0  0  0  0  0  0  0
   14.3203  -19.8507   25.1320 O   0  0  0  0  0  0  0  0  0  0  0  0
   11.8246  -23.1889   24.1813 O   0  0  0  0  0  0  0  0  0  0  0  0
   13.3037  -18.4766   23.6538 O   0  0  0  0  0  0  0  0  0  0  0  0
  2  1  1  1
  2  3  1  0
  3  4  1  0
  4  8  1  0
  5  4  2  0
  5  6  1  0
  6  7  1  0
  8  7  2  0
  9  2  1  0
  9 10  2  0
 11  9  1  0
 12 13  1  1
 12 11  1  0
 14 13  1  0
 14 15  2  0
 16 15  1  0
 17 16  1  0
 18 17  2  0
 19 18  1  0
 20 19  2  0
 20 21  1  0
 21 22  2  0
 22 17  1  0
 22 14  1  0
 23 12  1  0
 24 23  2  0
 25 23  1  0
 26 30  1  0
 26 25  1  0
 26 27  1  6
 28 27  1  0
 28 29  2  0
 30 31  1  0
 32 28  1  0
 33 30  2  0
M  END
$$$$
