QWM.pdb
     RDKit          3D

 32 33  0  0  1  0  0  0  0  0999 V2000
   14.4244  -21.2156   20.7327 N   0  0  0  0  0  0  0  0  0  0  0  0
   13.3594  -21.9596   20.1081 C   0  0  0  0  0  0  0  0  0  0  0  0
   13.6052  -22.9769   19.4269 O   0  0  0  0  0  0  0  0  0  0  0  0
   11.9972  -21.4664   20.3168 C   0  0  0  0  0  0  0  0  0  0  0  0
   11.9174  -20.2564   21.1726 C   0  0  0  0  0  0  0  0  0  0  0  0
   10.5616  -19.7081   21.4508 C   0  0  2  0  0  0  0  0  0  0  0  0
    9.5649  -19.8790   20.4606 N   0  0  0  0  0  0  0  0  0  0  0  0
   10.5930  -18.2983   21.9118 C   0  0  0  0  0  0  0  0  0  0  0  0
   11.5982  -17.5581   21.6960 O   0  0  0  0  0  0  0  0  0  0  0  0
    9.5239  -17.7381   22.5990 N   0  0  0  0  0  0  0  0  0  0  0  0
    9.5317  -16.3181   23.0455 C   0  0  1  0  0  0  0  0  0  0  0  0
    8.1045  -15.9268   23.0689 C   0  0  0  0  0  0  0  0  0  0  0  0
    7.8010  -14.5558   23.5035 C   0  0  0  0  0  0  0  0  0  0  0  0
    8.1536  -13.3961   22.8575 C   0  0  0  0  0  0  0  0  0  0  0  0
    7.7282  -12.3239   23.5488 N   0  0  0  0  0  0  0  0  0  0  0  0
    7.0946  -12.7606   24.6508 C   0  0  0  0  0  0  0  0  0  0  0  0
    6.4892  -12.0507   25.6629 C   0  0  0  0  0  0  0  0  0  0  0  0
    5.9010  -12.7417   26.6963 C   0  0  0  0  0  0  0  0  0  0  0  0
    5.9254  -14.1186   26.7040 C   0  0  0  0  0  0  0  0  0  0  0  0
    6.5390  -14.8003   25.6764 C   0  0  0  0  0  0  0  0  0  0  0  0
    7.1330  -14.1437   24.6347 C   0  0  0  0  0  0  0  0  0  0  0  0
   10.1060  -16.3325   24.4011 C   0  0  0  0  0  0  0  0  0  0  0  0
   10.4887  -15.2045   24.8773 O   0  0  0  0  0  0  0  0  0  0  0  0
   10.4309  -12.4098   28.0702 C   0  0  0  0  0  0  0  0  0  0  0  0
   11.0986  -13.9810   28.7225 S   0  0  0  0  0  0  0  0  0  0  0  0
   11.3663  -15.0576   27.2650 C   0  0  0  0  0  0  0  0  0  0  0  0
   10.3434  -16.1413   27.1992 C   0  0  0  0  0  0  0  0  0  0  0  0
   10.9015  -17.3461   26.4885 C   0  0  2  0  0  0  0  0  0  0  0  0
   10.2512  -17.4998   25.1934 N   0  0  0  0  0  0  0  0  0  0  0  0
   10.6546  -18.5606   27.2712 C   0  0  0  0  0  0  0  0  0  0  0  0
   11.1765  -18.6778   28.4221 O   0  0  0  0  0  0  0  0  0  0  0  0
    9.8500  -19.5880   26.7733 O   0  0  0  0  0  0  0  0  0  0  0  0
  2  1  1  0
  3  2  2  0
  4  2  1  0
  5  4  1  0
  6  8  1  0
  6  5  1  0
  6  7  1  6
  8  9  2  0
 10  8  1  0
 11 12  1  1
 11 10  1  0
 13 12  1  0
 13 14  2  0
 15 14  1  0
 16 15  1  0
 17 16  2  0
 18 17  1  0
 19 18  2  0
 19 20  1  0
 20 21  2  0
 21 16  1  0
 21 13  1  0
 22 11  1  0
 23 22  2  0
 25 26  1  0
 25 24  1  0
 26 27  1  0
 28 27  1  1
 28 30  1  0
 28 29  1  0
 29 22  1  0
 30 32  1  0
 31 30  2  0
M  END
$$$$
