QWM.pdb
     RDKit          3D

 32 33  0  0  1  0  0  0  0  0999 V2000
    7.5184  -12.9264   15.9206 N   0  0  0  0  0  0  0  0  0  0  0  0
    7.6259  -14.0339   16.8370 C   0  0  0  0  0  0  0  0  0  0  0  0
    7.4799  -15.2086   16.4390 O   0  0  0  0  0  0  0  0  0  0  0  0
    7.9145  -13.7102   18.2349 C   0  0  0  0  0  0  0  0  0  0  0  0
    9.3459  -13.8459   18.6031 C   0  0  0  0  0  0  0  0  0  0  0  0
    9.7605  -15.1119   19.2677 C   0  0  2  0  0  0  0  0  0  0  0  0
    9.0905  -16.3020   18.8962 N   0  0  0  0  0  0  0  0  0  0  0  0
    9.8208  -14.9947   20.7454 C   0  0  0  0  0  0  0  0  0  0  0  0
   10.4220  -14.0299   21.3046 O   0  0  0  0  0  0  0  0  0  0  0  0
    9.2235  -15.9386   21.5707 N   0  0  0  0  0  0  0  0  0  0  0  0
    9.1068  -15.7382   23.0411 C   0  0  1  0  0  0  0  0  0  0  0  0
    7.6737  -15.9617   23.3353 C   0  0  0  0  0  0  0  0  0  0  0  0
    7.1147  -15.2428   24.4891 C   0  0  0  0  0  0  0  0  0  0  0  0
    6.4553  -15.7987   25.5581 C   0  0  0  0  0  0  0  0  0  0  0  0
    6.0639  -14.8426   26.4190 N   0  0  0  0  0  0  0  0  0  0  0  0
    6.4578  -13.6535   25.9316 C   0  0  0  0  0  0  0  0  0  0  0  0
    6.2929  -12.3878   26.4470 C   0  0  0  0  0  0  0  0  0  0  0  0
    6.7956  -11.3167   25.7460 C   0  0  0  0  0  0  0  0  0  0  0  0
    7.4497  -11.5230   24.5518 C   0  0  0  0  0  0  0  0  0  0  0  0
    7.5987  -12.8019   24.0625 C   0  0  0  0  0  0  0  0  0  0  0  0
    7.1108  -13.8879   24.7344 C   0  0  0  0  0  0  0  0  0  0  0  0
    9.9484  -16.7810   23.6508 C   0  0  0  0  0  0  0  0  0  0  0  0
    9.4348  -17.9524   23.7489 O   0  0  0  0  0  0  0  0  0  0  0  0
   10.1846  -13.5431   28.8628 C   0  0  0  0  0  0  0  0  0  0  0  0
    9.5195  -15.2442   28.8007 S   0  0  0  0  0  0  0  0  0  0  0  0
   10.7121  -16.2148   27.8054 C   0  0  0  0  0  0  0  0  0  0  0  0
   10.4502  -16.0584   26.3453 C   0  0  0  0  0  0  0  0  0  0  0  0
   11.5085  -16.7697   25.5440 C   0  0  2  0  0  0  0  0  0  0  0  0
   11.2692  -16.5663   24.1208 N   0  0  0  0  0  0  0  0  0  0  0  0
   11.4708  -18.2101   25.8128 C   0  0  0  0  0  0  0  0  0  0  0  0
   12.0783  -18.6715   26.8270 O   0  0  0  0  0  0  0  0  0  0  0  0
   10.7726  -19.0820   24.9740 O   0  0  0  0  0  0  0  0  0  0  0  0
  2  1  1  0
  3  2  2  0
  4  2  1  0
  5  4  1  0
  6  8  1  0
  6  5  1  0
  6  7  1  1
  8  9  2  0
 10  8  1  0
 11 12  1  1
 11 10  1  0
 13 12  1  0
 13 14  2  0
 15 14  1  0
 16 15  1  0
 17 16  2  0
 18 17  1  0
 19 18  2  0
 19 20  1  0
 20 21  2  0
 21 16  1  0
 21 13  1  0
 22 11  1  0
 23 22  2  0
 25 26  1  0
 25 24  1  0
 26 27  1  0
 28 27  1  1
 28 30  1  0
 28 29  1  0
 29 22  1  0
 30 32  1  0
 31 30  2  0
M  END
$$$$
