QWM.pdb
     RDKit          3D

 32 33  0  0  1  0  0  0  0  0999 V2000
    7.2726  -13.7909   16.9644 N   0  0  0  0  0  0  0  0  0  0  0  0
    8.6443  -14.1767   16.7462 C   0  0  0  0  0  0  0  0  0  0  0  0
    9.3896  -13.4968   16.0103 O   0  0  0  0  0  0  0  0  0  0  0  0
    9.1073  -15.3870   17.4269 C   0  0  0  0  0  0  0  0  0  0  0  0
   10.0980  -15.1334   18.5026 C   0  0  0  0  0  0  0  0  0  0  0  0
   10.3322  -16.2282   19.4837 C   0  0  2  0  0  0  0  0  0  0  0  0
    9.6267  -17.4413   19.2994 N   0  0  0  0  0  0  0  0  0  0  0  0
   10.2180  -15.7751   20.8918 C   0  0  0  0  0  0  0  0  0  0  0  0
   10.8661  -14.7719   21.3144 O   0  0  0  0  0  0  0  0  0  0  0  0
    9.3994  -16.4344   21.7997 N   0  0  0  0  0  0  0  0  0  0  0  0
    9.0898  -15.8644   23.1394 C   0  0  1  0  0  0  0  0  0  0  0  0
    7.6398  -16.1006   23.3190 C   0  0  0  0  0  0  0  0  0  0  0  0
    7.0110  -15.4908   24.4994 C   0  0  0  0  0  0  0  0  0  0  0  0
    6.3420  -16.1497   25.5019 C   0  0  0  0  0  0  0  0  0  0  0  0
    5.8795  -15.2755   26.4131 N   0  0  0  0  0  0  0  0  0  0  0  0
    6.2356  -14.0388   26.0254 C   0  0  0  0  0  0  0  0  0  0  0  0
    5.9969  -12.8216   26.6222 C   0  0  0  0  0  0  0  0  0  0  0  0
    6.4741  -11.6825   26.0172 C   0  0  0  0  0  0  0  0  0  0  0  0
    7.1762  -11.7744   24.8361 C   0  0  0  0  0  0  0  0  0  0  0  0
    7.3987  -13.0073   24.2636 C   0  0  0  0  0  0  0  0  0  0  0  0
    6.9380  -14.1586   24.8393 C   0  0  0  0  0  0  0  0  0  0  0  0
    9.8838  -16.6513   24.0975 C   0  0  0  0  0  0  0  0  0  0  0  0
   10.4043  -17.7388   23.6594 O   0  0  0  0  0  0  0  0  0  0  0  0
   10.5291  -12.7866   27.9093 C   0  0  0  0  0  0  0  0  0  0  0  0
   11.5899  -14.0511   28.6939 S   0  0  0  0  0  0  0  0  0  0  0  0
   11.9665  -15.2750   27.3842 C   0  0  0  0  0  0  0  0  0  0  0  0
   11.2041  -16.5401   27.5920 C   0  0  0  0  0  0  0  0  0  0  0  0
   10.8924  -17.1876   26.2685 C   0  0  2  0  0  0  0  0  0  0  0  0
   10.1038  -16.2773   25.4479 N   0  0  0  0  0  0  0  0  0  0  0  0
   10.1136  -18.4128   26.4701 C   0  0  0  0  0  0  0  0  0  0  0  0
    8.8822  -18.4267   26.1634 O   0  0  0  0  0  0  0  0  0  0  0  0
   10.7060  -19.5665   26.9889 O   0  0  0  0  0  0  0  0  0  0  0  0
  2  1  1  0
  3  2  2  0
  4  2  1  0
  5  4  1  0
  6  8  1  0
  6  5  1  0
  6  7  1  6
  8  9  2  0
 10  8  1  0
 11 12  1  1
 11 10  1  0
 13 12  1  0
 13 14  2  0
 15 14  1  0
 16 15  1  0
 17 16  2  0
 18 17  1  0
 19 18  2  0
 19 20  1  0
 20 21  2  0
 21 16  1  0
 21 13  1  0
 22 11  1  0
 23 22  2  0
 25 26  1  0
 25 24  1  0
 26 27  1  0
 28 27  1  1
 28 30  1  0
 28 29  1  0
 29 22  1  0
 30 32  1  0
 31 30  2  0
M  END
$$$$
