QWM.pdb
     RDKit          3D

 32 33  0  0  1  0  0  0  0  0999 V2000
    9.4726  -17.8962   16.1334 N   0  0  0  0  0  0  0  0  0  0  0  0
    8.9977  -16.7529   16.8717 C   0  0  0  0  0  0  0  0  0  0  0  0
    9.2245  -15.5930   16.4684 O   0  0  0  0  0  0  0  0  0  0  0  0
    8.2447  -17.0232   18.0974 C   0  0  0  0  0  0  0  0  0  0  0  0
    8.8305  -16.4078   19.3143 C   0  0  0  0  0  0  0  0  0  0  0  0
    9.1610  -17.3178   20.4452 C   0  0  2  0  0  0  0  0  0  0  0  0
    8.2272  -18.3299   20.7721 N   0  0  0  0  0  0  0  0  0  0  0  0
    9.5802  -16.5896   21.6679 C   0  0  0  0  0  0  0  0  0  0  0  0
   10.2738  -15.5318   21.5981 O   0  0  0  0  0  0  0  0  0  0  0  0
    9.2309  -17.0410   22.9341 N   0  0  0  0  0  0  0  0  0  0  0  0
    9.6825  -16.3461   24.1705 C   0  0  1  0  0  0  0  0  0  0  0  0
    8.5981  -16.5839   25.1492 C   0  0  0  0  0  0  0  0  0  0  0  0
    7.4157  -15.7162   25.0511 C   0  0  0  0  0  0  0  0  0  0  0  0
    6.1155  -16.1222   24.8746 C   0  0  0  0  0  0  0  0  0  0  0  0
    5.2948  -15.0589   24.8097 N   0  0  0  0  0  0  0  0  0  0  0  0
    6.0385  -13.9472   24.9418 C   0  0  0  0  0  0  0  0  0  0  0  0
    5.6591  -12.6240   24.9415 C   0  0  0  0  0  0  0  0  0  0  0  0
    6.6257  -11.6579   25.0962 C   0  0  0  0  0  0  0  0  0  0  0  0
    7.9446  -12.0237   25.2476 C   0  0  0  0  0  0  0  0  0  0  0  0
    8.2925  -13.3565   25.2438 C   0  0  0  0  0  0  0  0  0  0  0  0
    7.3563  -14.3412   25.0921 C   0  0  0  0  0  0  0  0  0  0  0  0
   10.9263  -17.0231   24.5734 C   0  0  0  0  0  0  0  0  0  0  0  0
   10.9908  -18.2863   24.3594 O   0  0  0  0  0  0  0  0  0  0  0  0
    9.0030  -14.6628   28.9892 C   0  0  0  0  0  0  0  0  0  0  0  0
   10.5105  -15.1107   29.9202 S   0  0  0  0  0  0  0  0  0  0  0  0
   11.4242  -16.2924   28.8600 C   0  0  0  0  0  0  0  0  0  0  0  0
   11.1961  -16.0079   27.4136 C   0  0  0  0  0  0  0  0  0  0  0  0
   12.2834  -16.6318   26.5791 C   0  0  2  0  0  0  0  0  0  0  0  0
   12.0347  -16.3675   25.1676 N   0  0  0  0  0  0  0  0  0  0  0  0
   12.3079  -18.0841   26.7750 C   0  0  0  0  0  0  0  0  0  0  0  0
   12.7122  -18.5577   27.8809 O   0  0  0  0  0  0  0  0  0  0  0  0
   11.8884  -18.9548   25.7665 O   0  0  0  0  0  0  0  0  0  0  0  0
  2  1  1  0
  3  2  2  0
  4  2  1  0
  5  4  1  0
  6  8  1  0
  6  5  1  0
  6  7  1  1
  8  9  2  0
 10  8  1  0
 11 12  1  1
 11 10  1  0
 13 12  1  0
 13 14  2  0
 15 14  1  0
 16 15  1  0
 17 16  2  0
 18 17  1  0
 19 18  2  0
 19 20  1  0
 20 21  2  0
 21 16  1  0
 21 13  1  0
 22 11  1  0
 23 22  2  0
 25 26  1  0
 25 24  1  0
 26 27  1  0
 28 27  1  1
 28 30  1  0
 28 29  1  0
 29 22  1  0
 30 32  1  0
 31 30  2  0
M  END
$$$$
