QWM.pdb
     RDKit          3D

 32 33  0  0  1  0  0  0  0  0999 V2000
    7.8647  -13.2493   16.3146 N   0  0  0  0  0  0  0  0  0  0  0  0
    8.9331  -14.1498   15.9603 C   0  0  0  0  0  0  0  0  0  0  0  0
    9.6258  -13.9490   14.9408 O   0  0  0  0  0  0  0  0  0  0  0  0
    9.1589  -15.2906   16.8491 C   0  0  0  0  0  0  0  0  0  0  0  0
    9.6630  -14.9176   18.1943 C   0  0  0  0  0  0  0  0  0  0  0  0
    9.8731  -16.0204   19.1720 C   0  0  2  0  0  0  0  0  0  0  0  0
    9.1104  -17.2014   19.0082 N   0  0  0  0  0  0  0  0  0  0  0  0
    9.8144  -15.5609   20.5814 C   0  0  0  0  0  0  0  0  0  0  0  0
   10.5007  -14.5735   20.9802 O   0  0  0  0  0  0  0  0  0  0  0  0
    9.0078  -16.1966   21.5164 N   0  0  0  0  0  0  0  0  0  0  0  0
    8.8318  -15.6654   22.8957 C   0  0  1  0  0  0  0  0  0  0  0  0
    7.4121  -15.9304   23.2190 C   0  0  0  0  0  0  0  0  0  0  0  0
    6.9066  -15.3772   24.4835 C   0  0  0  0  0  0  0  0  0  0  0  0
    6.1693  -16.0440   25.4313 C   0  0  0  0  0  0  0  0  0  0  0  0
    5.8617  -15.2238   26.4516 N   0  0  0  0  0  0  0  0  0  0  0  0
    6.3887  -14.0151   26.1908 C   0  0  0  0  0  0  0  0  0  0  0  0
    6.3463  -12.8537   26.9285 C   0  0  0  0  0  0  0  0  0  0  0  0
    6.9738  -11.7333   26.4362 C   0  0  0  0  0  0  0  0  0  0  0  0
    7.6285  -11.7883   25.2260 C   0  0  0  0  0  0  0  0  0  0  0  0
    7.6531  -12.9656   24.5114 C   0  0  0  0  0  0  0  0  0  0  0  0
    7.0394  -14.0969   24.9724 C   0  0  0  0  0  0  0  0  0  0  0  0
    9.7328  -16.4622   23.7448 C   0  0  0  0  0  0  0  0  0  0  0  0
   10.4415  -17.3544   23.1556 O   0  0  0  0  0  0  0  0  0  0  0  0
    9.8959  -14.5565   29.5349 C   0  0  0  0  0  0  0  0  0  0  0  0
   10.0629  -14.0526   27.7862 S   0  0  0  0  0  0  0  0  0  0  0  0
   11.4439  -15.0454   27.1061 C   0  0  0  0  0  0  0  0  0  0  0  0
   11.1511  -16.5056   27.1891 C   0  0  0  0  0  0  0  0  0  0  0  0
   10.9008  -17.0688   25.8150 C   0  0  2  0  0  0  0  0  0  0  0  0
    9.8604  -16.2966   25.1476 N   0  0  0  0  0  0  0  0  0  0  0  0
   10.4492  -18.4602   25.9077 C   0  0  0  0  0  0  0  0  0  0  0  0
    9.2584  -18.7527   25.5803 O   0  0  0  0  0  0  0  0  0  0  0  0
   11.3097  -19.4698   26.3451 O   0  0  0  0  0  0  0  0  0  0  0  0
  2  1  1  0
  3  2  2  0
  4  2  1  0
  5  4  1  0
  6  8  1  0
  6  5  1  0
  6  7  1  1
  8  9  2  0
 10  8  1  0
 11 12  1  1
 11 10  1  0
 13 12  1  0
 13 14  2  0
 15 14  1  0
 16 15  1  0
 17 16  2  0
 18 17  1  0
 19 18  2  0
 19 20  1  0
 20 21  2  0
 21 16  1  0
 21 13  1  0
 22 11  1  0
 23 22  2  0
 25 26  1  0
 25 24  1  0
 26 27  1  0
 28 27  1  1
 28 30  1  0
 28 29  1  0
 29 22  1  0
 30 32  1  0
 31 30  2  0
M  END
$$$$
