PVF.pdb
     RDKit          3D

 26 27  0  0  1  0  0  0  0  0999 V2000
    7.0559  -18.6641   20.5859 N   0  0  0  0  0  0  0  0  0  0  0  0
    6.0392  -19.4415   19.9389 C   0  0  0  0  0  0  0  0  0  0  0  0
    6.2937  -19.3731   18.4493 C   0  0  0  0  0  0  0  0  0  0  0  0
    7.1057  -18.0742   18.3594 C   0  0  0  0  0  0  0  0  0  0  0  0
    7.9818  -18.2095   19.5850 C   0  0  1  0  0  0  0  0  0  0  0  0
    8.6029  -16.8971   19.9672 C   0  0  0  0  0  0  0  0  0  0  0  0
    9.6552  -16.6198   19.3676 O   0  0  0  0  0  0  0  0  0  0  0  0
    8.0262  -12.3291   21.6712 C   0  0  0  0  0  0  0  0  0  0  0  0
    7.5393  -13.6679   21.1196 C   0  0  1  0  0  0  0  0  0  0  0  0
    7.6225  -13.4358   19.5870 C   0  0  0  0  0  0  0  0  0  0  0  0
    8.5095  -14.7731   21.4044 C   0  0  2  0  0  0  0  0  0  0  0  0
    8.0475  -16.0563   20.9160 N   0  0  0  0  0  0  0  0  0  0  0  0
    9.0162  -14.9250   22.7476 C   0  0  0  0  0  0  0  0  0  0  0  0
    9.9889  -14.1447   23.1223 O   0  0  0  0  0  0  0  0  0  0  0  0
    8.5539  -15.8431   23.7178 N   0  0  0  0  0  0  0  0  0  0  0  0
    9.0000  -15.7920   25.1056 C   0  0  1  0  0  0  0  0  0  0  0  0
    7.7300  -15.6577   25.9262 C   0  0  0  0  0  0  0  0  0  0  0  0
    7.2870  -14.2789   26.1312 C   0  0  0  0  0  0  0  0  0  0  0  0
    5.9929  -13.8616   25.9127 C   0  0  0  0  0  0  0  0  0  0  0  0
    5.6044  -12.5394   26.1222 C   0  0  0  0  0  0  0  0  0  0  0  0
    6.5162  -11.5983   26.5600 C   0  0  0  0  0  0  0  0  0  0  0  0
    7.8119  -12.0117   26.7797 C   0  0  0  0  0  0  0  0  0  0  0  0
    8.1978  -13.3282   26.5709 C   0  0  0  0  0  0  0  0  0  0  0  0
    9.7355  -17.0365   25.3986 C   0  0  0  0  0  0  0  0  0  0  0  0
   10.4744  -17.2334   26.5323 O   0  0  0  0  0  0  0  0  0  0  0  0
    9.6610  -17.9610   24.5309 O   0  0  0  0  0  0  0  0  0  0  0  0
  1  2  1  0
  3  2  1  0
  4  5  1  0
  4  3  1  0
  5  6  1  1
  5  1  1  0
  6  7  2  0
  9  8  1  1
  9 10  1  0
  9 11  1  0
 11 12  1  1
 12  6  1  0
 13 11  1  0
 14 13  2  0
 15 13  1  0
 16 15  1  0
 16 24  1  0
 16 17  1  1
 18 17  1  0
 19 18  2  0
 20 19  1  0
 21 22  1  0
 21 20  2  0
 22 23  2  0
 23 18  1  0
 24 25  1  0
 26 24  2  0
M  END
$$$$
