PVF.pdb
     RDKit          3D

 26 27  0  0  1  0  0  0  0  0999 V2000
    9.2364  -14.0290   19.3962 N   0  0  0  0  0  0  0  0  0  0  0  0
    8.9640  -13.3107   18.1852 C   0  0  0  0  0  0  0  0  0  0  0  0
    7.7001  -12.5095   18.4065 C   0  0  0  0  0  0  0  0  0  0  0  0
    7.0532  -13.3087   19.5454 C   0  0  0  0  0  0  0  0  0  0  0  0
    8.2702  -13.6321   20.3834 C   0  0  1  0  0  0  0  0  0  0  0  0
    7.9918  -14.7412   21.3563 C   0  0  0  0  0  0  0  0  0  0  0  0
    6.9796  -14.5815   22.0590 O   0  0  0  0  0  0  0  0  0  0  0  0
    9.0880  -19.4597   22.6500 C   0  0  0  0  0  0  0  0  0  0  0  0
    9.3277  -18.2326   21.7722 C   0  0  1  0  0  0  0  0  0  0  0  0
    8.4984  -18.5741   20.5053 C   0  0  0  0  0  0  0  0  0  0  0  0
    8.6869  -17.0054   22.3442 C   0  0  2  0  0  0  0  0  0  0  0  0
    8.7999  -15.8596   21.4649 N   0  0  0  0  0  0  0  0  0  0  0  0
    9.0201  -16.6106   23.6922 C   0  0  0  0  0  0  0  0  0  0  0  0
   10.1493  -15.9910   23.8826 O   0  0  0  0  0  0  0  0  0  0  0  0
    8.2317  -16.8234   24.8458 N   0  0  0  0  0  0  0  0  0  0  0  0
    8.6526  -16.3664   26.1655 C   0  0  1  0  0  0  0  0  0  0  0  0
    7.4117  -15.7518   26.7874 C   0  0  0  0  0  0  0  0  0  0  0  0
    7.2332  -14.3292   26.4982 C   0  0  0  0  0  0  0  0  0  0  0  0
    6.0594  -13.7998   26.0098 C   0  0  0  0  0  0  0  0  0  0  0  0
    5.9231  -12.4374   25.7489 C   0  0  0  0  0  0  0  0  0  0  0  0
    6.9730  -11.5684   25.9750 C   0  0  0  0  0  0  0  0  0  0  0  0
    8.1491  -12.0940   26.4634 C   0  0  0  0  0  0  0  0  0  0  0  0
    8.2840  -13.4505   26.7229 C   0  0  0  0  0  0  0  0  0  0  0  0
    9.1467  -17.5333   26.9205 C   0  0  0  0  0  0  0  0  0  0  0  0
   10.0167  -17.4450   27.9720 O   0  0  0  0  0  0  0  0  0  0  0  0
    8.7241  -18.6725   26.5510 O   0  0  0  0  0  0  0  0  0  0  0  0
  1  2  1  0
  3  2  1  0
  4  5  1  0
  4  3  1  0
  5  6  1  1
  5  1  1  0
  6  7  2  0
  9  8  1  1
  9 10  1  0
  9 11  1  0
 11 12  1  6
 12  6  1  0
 13 11  1  0
 14 13  2  0
 15 13  1  0
 16 15  1  0
 16 24  1  0
 16 17  1  1
 18 17  1  0
 19 18  2  0
 20 19  1  0
 21 22  1  0
 21 20  2  0
 22 23  2  0
 23 18  1  0
 24 25  1  0
 26 24  2  0
M  END
$$$$
