PVF.pdb
     RDKit          3D

 26 27  0  0  1  0  0  0  0  0999 V2000
    8.6264  -14.5627   19.0179 N   0  0  0  0  0  0  0  0  0  0  0  0
    8.1389  -13.6037   18.0695 C   0  0  0  0  0  0  0  0  0  0  0  0
    7.5542  -12.4481   18.8511 C   0  0  0  0  0  0  0  0  0  0  0  0
    7.2458  -13.1364   20.1874 C   0  0  0  0  0  0  0  0  0  0  0  0
    8.4695  -14.0131   20.3366 C   0  0  1  0  0  0  0  0  0  0  0  0
    8.2547  -15.0914   21.3590 C   0  0  0  0  0  0  0  0  0  0  0  0
    7.0853  -15.2068   21.7627 O   0  0  0  0  0  0  0  0  0  0  0  0
    9.7693  -19.3932   23.2172 C   0  0  0  0  0  0  0  0  0  0  0  0
   10.0138  -18.1830   22.3176 C   0  0  1  0  0  0  0  0  0  0  0  0
    9.3268  -18.6185   20.9956 C   0  0  0  0  0  0  0  0  0  0  0  0
    9.2498  -16.9811   22.7819 C   0  0  2  0  0  0  0  0  0  0  0  0
    9.2803  -15.8987   21.8196 N   0  0  0  0  0  0  0  0  0  0  0  0
    9.5114  -16.4575   24.1016 C   0  0  0  0  0  0  0  0  0  0  0  0
   10.5579  -15.6987   24.2580 O   0  0  0  0  0  0  0  0  0  0  0  0
    8.7329  -16.6803   25.2600 N   0  0  0  0  0  0  0  0  0  0  0  0
    9.1232  -16.1610   26.5659 C   0  0  1  0  0  0  0  0  0  0  0  0
    7.8525  -15.5780   27.1575 C   0  0  0  0  0  0  0  0  0  0  0  0
    7.5094  -14.2471   26.6573 C   0  0  0  0  0  0  0  0  0  0  0  0
    8.3218  -13.1471   26.8202 C   0  0  0  0  0  0  0  0  0  0  0  0
    7.9648  -11.8933   26.3267 C   0  0  0  0  0  0  0  0  0  0  0  0
    6.7723  -11.7153   25.6523 C   0  0  0  0  0  0  0  0  0  0  0  0
    5.9566  -12.8131   25.4874 C   0  0  0  0  0  0  0  0  0  0  0  0
    6.3128  -14.0610   25.9789 C   0  0  0  0  0  0  0  0  0  0  0  0
    9.6592  -17.2794   27.3644 C   0  0  0  0  0  0  0  0  0  0  0  0
   10.4895  -17.1166   28.4388 O   0  0  0  0  0  0  0  0  0  0  0  0
    9.3139  -18.4495   27.0111 O   0  0  0  0  0  0  0  0  0  0  0  0
  1  2  1  0
  3  2  1  0
  4  5  1  0
  4  3  1  0
  5  6  1  1
  5  1  1  0
  6  7  2  0
  9  8  1  1
  9 10  1  0
  9 11  1  0
 11 12  1  6
 12  6  1  0
 13 11  1  0
 14 13  2  0
 15 13  1  0
 16 15  1  0
 16 24  1  0
 16 17  1  1
 18 17  1  0
 19 18  2  0
 20 19  1  0
 21 22  1  0
 21 20  2  0
 22 23  2  0
 23 18  1  0
 24 25  1  0
 26 24  2  0
M  END
$$$$
