PVF.pdb
     RDKit          3D

 26 27  0  0  1  0  0  0  0  0999 V2000
    8.2459  -15.3320   18.4123 N   0  0  0  0  0  0  0  0  0  0  0  0
    7.9860  -14.7208   17.1412 C   0  0  0  0  0  0  0  0  0  0  0  0
    8.0504  -13.2220   17.3358 C   0  0  0  0  0  0  0  0  0  0  0  0
    7.7699  -13.1189   18.8408 C   0  0  0  0  0  0  0  0  0  0  0  0
    8.5707  -14.2954   19.3534 C   0  0  1  0  0  0  0  0  0  0  0  0
    8.1648  -14.6735   20.7486 C   0  0  0  0  0  0  0  0  0  0  0  0
    8.5245  -13.8791   21.6336 O   0  0  0  0  0  0  0  0  0  0  0  0
    4.8170  -16.9556   20.8789 C   0  0  0  0  0  0  0  0  0  0  0  0
    5.7632  -17.2995   22.0279 C   0  0  1  0  0  0  0  0  0  0  0  0
    6.5607  -18.4959   21.4431 C   0  0  0  0  0  0  0  0  0  0  0  0
    6.7785  -16.2216   22.2543 C   0  0  2  0  0  0  0  0  0  0  0  0
    7.4437  -15.8205   21.0315 N   0  0  0  0  0  0  0  0  0  0  0  0
    7.7595  -16.3983   23.2986 C   0  0  0  0  0  0  0  0  0  0  0  0
    8.9201  -16.8860   22.9661 O   0  0  0  0  0  0  0  0  0  0  0  0
    7.5916  -16.0849   24.6665 N   0  0  0  0  0  0  0  0  0  0  0  0
    8.6408  -16.3278   25.6502 C   0  0  1  0  0  0  0  0  0  0  0  0
    9.1775  -14.9531   26.0061 C   0  0  0  0  0  0  0  0  0  0  0  0
    8.1445  -13.9546   26.2806 C   0  0  0  0  0  0  0  0  0  0  0  0
    7.5248  -13.2192   25.2948 C   0  0  0  0  0  0  0  0  0  0  0  0
    6.5408  -12.2778   25.5924 C   0  0  0  0  0  0  0  0  0  0  0  0
    6.1541  -12.0524   26.8994 C   0  0  0  0  0  0  0  0  0  0  0  0
    6.7716  -12.7859   27.8885 C   0  0  0  0  0  0  0  0  0  0  0  0
    7.7512  -13.7229   27.5914 C   0  0  0  0  0  0  0  0  0  0  0  0
    8.0372  -17.0175   26.8060 C   0  0  0  0  0  0  0  0  0  0  0  0
    8.7493  -17.4450   27.8924 O   0  0  0  0  0  0  0  0  0  0  0  0
    6.7830  -17.2126   26.7626 O   0  0  0  0  0  0  0  0  0  0  0  0
  1  2  1  0
  3  2  1  0
  4  5  1  0
  4  3  1  0
  5  6  1  1
  5  1  1  0
  6  7  2  0
  9  8  1  6
  9 10  1  0
  9 11  1  0
 11 12  1  6
 12  6  1  0
 13 11  1  0
 14 13  2  0
 15 13  1  0
 16 15  1  0
 16 24  1  0
 16 17  1  1
 18 17  1  0
 19 18  2  0
 20 19  1  0
 21 22  1  0
 21 20  2  0
 22 23  2  0
 23 18  1  0
 24 25  1  0
 26 24  2  0
M  END
$$$$
