PVF.pdb
     RDKit          3D

 26 27  0  0  1  0  0  0  0  0999 V2000
    8.4539  -15.1268   18.4383 N   0  0  0  0  0  0  0  0  0  0  0  0
    8.1267  -14.5742   17.1560 C   0  0  0  0  0  0  0  0  0  0  0  0
    7.8114  -13.1088   17.3596 C   0  0  0  0  0  0  0  0  0  0  0  0
    7.4272  -13.1049   18.8452 C   0  0  0  0  0  0  0  0  0  0  0  0
    8.4602  -14.0598   19.4012 C   0  0  1  0  0  0  0  0  0  0  0  0
    8.0788  -14.5511   20.7678 C   0  0  0  0  0  0  0  0  0  0  0  0
    8.1098  -13.6900   21.6629 O   0  0  0  0  0  0  0  0  0  0  0  0
    5.9672  -18.3661   23.2790 C   0  0  0  0  0  0  0  0  0  0  0  0
    6.5529  -17.7850   21.9933 C   0  0  1  0  0  0  0  0  0  0  0  0
    5.2749  -17.4130   21.1947 C   0  0  0  0  0  0  0  0  0  0  0  0
    7.2562  -16.4856   22.2398 C   0  0  2  0  0  0  0  0  0  0  0  0
    7.7189  -15.8644   21.0156 N   0  0  0  0  0  0  0  0  0  0  0  0
    8.3075  -16.4401   23.2281 C   0  0  0  0  0  0  0  0  0  0  0  0
    9.4727  -16.9187   22.8985 O   0  0  0  0  0  0  0  0  0  0  0  0
    8.2046  -15.9146   24.5361 N   0  0  0  0  0  0  0  0  0  0  0  0
    9.3312  -15.9191   25.4624 C   0  0  1  0  0  0  0  0  0  0  0  0
    9.6753  -14.4561   25.6764 C   0  0  0  0  0  0  0  0  0  0  0  0
    8.5601  -13.6370   26.1503 C   0  0  0  0  0  0  0  0  0  0  0  0
    8.3758  -13.3065   27.4744 C   0  0  0  0  0  0  0  0  0  0  0  0
    7.3029  -12.5199   27.8906 C   0  0  0  0  0  0  0  0  0  0  0  0
    6.3826  -12.0436   26.9769 C   0  0  0  0  0  0  0  0  0  0  0  0
    6.5633  -12.3721   25.6512 C   0  0  0  0  0  0  0  0  0  0  0  0
    7.6317  -13.1552   25.2378 C   0  0  0  0  0  0  0  0  0  0  0  0
    8.9026  -16.5883   26.7051 C   0  0  0  0  0  0  0  0  0  0  0  0
    9.7469  -16.8818   27.7401 O   0  0  0  0  0  0  0  0  0  0  0  0
    7.6741  -16.8988   26.7913 O   0  0  0  0  0  0  0  0  0  0  0  0
  1  2  1  0
  3  2  1  0
  4  5  1  0
  4  3  1  0
  5  6  1  1
  5  1  1  0
  6  7  2  0
  9  8  1  1
  9 10  1  0
  9 11  1  0
 11 12  1  6
 12  6  1  0
 13 11  1  0
 14 13  2  0
 15 13  1  0
 16 15  1  0
 16 24  1  0
 16 17  1  1
 18 17  1  0
 19 18  2  0
 20 19  1  0
 21 22  1  0
 21 20  2  0
 22 23  2  0
 23 18  1  0
 24 25  1  0
 26 24  2  0
M  END
$$$$
