PVF.pdb
     RDKit          3D

 26 27  0  0  1  0  0  0  0  0999 V2000
    8.3593  -15.2414   18.3534 N   0  0  0  0  0  0  0  0  0  0  0  0
    8.1062  -14.6215   17.0852 C   0  0  0  0  0  0  0  0  0  0  0  0
    8.1225  -13.1242   17.2998 C   0  0  0  0  0  0  0  0  0  0  0  0
    7.8099  -13.0490   18.8001 C   0  0  0  0  0  0  0  0  0  0  0  0
    8.6349  -14.2081   19.3137 C   0  0  1  0  0  0  0  0  0  0  0  0
    8.2133  -14.6162   20.6958 C   0  0  0  0  0  0  0  0  0  0  0  0
    8.5102  -13.8113   21.5945 O   0  0  0  0  0  0  0  0  0  0  0  0
    5.0443  -17.1859   20.7943 C   0  0  0  0  0  0  0  0  0  0  0  0
    6.0164  -17.4391   21.9453 C   0  0  1  0  0  0  0  0  0  0  0  0
    6.9260  -18.5531   21.3614 C   0  0  0  0  0  0  0  0  0  0  0  0
    6.9234  -16.2694   22.1752 C   0  0  2  0  0  0  0  0  0  0  0  0
    7.5438  -15.7999   20.9532 N   0  0  0  0  0  0  0  0  0  0  0  0
    7.9195  -16.3557   23.2166 C   0  0  0  0  0  0  0  0  0  0  0  0
    9.1149  -16.7496   22.8831 O   0  0  0  0  0  0  0  0  0  0  0  0
    7.7316  -16.0450   24.5826 N   0  0  0  0  0  0  0  0  0  0  0  0
    8.7906  -16.2242   25.5694 C   0  0  1  0  0  0  0  0  0  0  0  0
    9.2314  -14.8192   25.9384 C   0  0  0  0  0  0  0  0  0  0  0  0
    8.1442  -13.9375   26.3626 C   0  0  0  0  0  0  0  0  0  0  0  0
    7.8366  -13.7006   27.6838 C   0  0  0  0  0  0  0  0  0  0  0  0
    6.7951  -12.8506   28.0524 C   0  0  0  0  0  0  0  0  0  0  0  0
    6.0325  -12.2138   27.0924 C   0  0  0  0  0  0  0  0  0  0  0  0
    6.3368  -12.4483   25.7694 C   0  0  0  0  0  0  0  0  0  0  0  0
    7.3738  -13.2947   25.4034 C   0  0  0  0  0  0  0  0  0  0  0  0
    8.2302  -16.9624   26.7169 C   0  0  0  0  0  0  0  0  0  0  0  0
    8.9593  -17.3276   27.8147 O   0  0  0  0  0  0  0  0  0  0  0  0
    6.9979  -17.2633   26.6548 O   0  0  0  0  0  0  0  0  0  0  0  0
  1  2  1  0
  3  2  1  0
  4  5  1  0
  4  3  1  0
  5  6  1  1
  5  1  1  0
  6  7  2  0
  9  8  1  6
  9 10  1  0
  9 11  1  0
 11 12  1  6
 12  6  1  0
 13 11  1  0
 14 13  2  0
 15 13  1  0
 16 15  1  0
 16 24  1  0
 16 17  1  1
 18 17  1  0
 19 18  2  0
 20 19  1  0
 21 22  1  0
 21 20  2  0
 22 23  2  0
 23 18  1  0
 24 25  1  0
 26 24  2  0
M  END
$$$$
