PVF.pdb
     RDKit          3D

 26 27  0  0  1  0  0  0  0  0999 V2000
    8.6781  -15.0234   18.1880 N   0  0  0  0  0  0  0  0  0  0  0  0
    8.2813  -14.4016   16.9582 C   0  0  0  0  0  0  0  0  0  0  0  0
    8.0053  -12.9440   17.2543 C   0  0  0  0  0  0  0  0  0  0  0  0
    7.7149  -13.0101   18.7595 C   0  0  0  0  0  0  0  0  0  0  0  0
    8.7635  -14.0071   19.2007 C   0  0  1  0  0  0  0  0  0  0  0  0
    8.4597  -14.5617   20.5624 C   0  0  0  0  0  0  0  0  0  0  0  0
    8.4743  -13.7285   21.4840 O   0  0  0  0  0  0  0  0  0  0  0  0
    6.2898  -18.0107   20.5258 C   0  0  0  0  0  0  0  0  0  0  0  0
    7.2511  -17.9654   21.7122 C   0  0  1  0  0  0  0  0  0  0  0  0
    8.4835  -18.7302   21.1593 C   0  0  0  0  0  0  0  0  0  0  0  0
    7.7380  -16.5746   21.9812 C   0  0  2  0  0  0  0  0  0  0  0  0
    8.1832  -15.9005   20.7787 N   0  0  0  0  0  0  0  0  0  0  0  0
    8.7044  -16.3672   23.0334 C   0  0  0  0  0  0  0  0  0  0  0  0
    9.9660  -16.4758   22.7301 O   0  0  0  0  0  0  0  0  0  0  0  0
    8.4197  -16.0458   24.3800 N   0  0  0  0  0  0  0  0  0  0  0  0
    9.4725  -15.8912   25.3776 C   0  0  1  0  0  0  0  0  0  0  0  0
    9.6451  -14.3922   25.5438 C   0  0  0  0  0  0  0  0  0  0  0  0
    8.4456  -13.6943   26.0060 C   0  0  0  0  0  0  0  0  0  0  0  0
    7.4098  -13.3397   25.1707 C   0  0  0  0  0  0  0  0  0  0  0  0
    6.2788  -12.6781   25.6464 C   0  0  0  0  0  0  0  0  0  0  0  0
    6.1626  -12.3551   26.9846 C   0  0  0  0  0  0  0  0  0  0  0  0
    7.1967  -12.7080   27.8236 C   0  0  0  0  0  0  0  0  0  0  0  0
    8.3223  -13.3666   27.3492 C   0  0  0  0  0  0  0  0  0  0  0  0
    9.0300  -16.5522   26.6198 C   0  0  0  0  0  0  0  0  0  0  0  0
    9.8098  -16.6702   27.7370 O   0  0  0  0  0  0  0  0  0  0  0  0
    7.8535  -17.0305   26.6236 O   0  0  0  0  0  0  0  0  0  0  0  0
  1  2  1  0
  3  2  1  0
  4  5  1  0
  4  3  1  0
  5  6  1  1
  5  1  1  0
  6  7  2  0
  9  8  1  6
  9 10  1  0
  9 11  1  0
 11 12  1  6
 12  6  1  0
 13 11  1  0
 14 13  2  0
 15 13  1  0
 16 15  1  0
 16 24  1  0
 16 17  1  1
 18 17  1  0
 19 18  2  0
 20 19  1  0
 21 22  1  0
 21 20  2  0
 22 23  2  0
 23 18  1  0
 24 25  1  0
 26 24  2  0
M  END
$$$$
