HWE.pdb
     RDKit          3D

 34 36  0  0  1  0  0  0  0  0999 V2000
    8.0259  -16.6152   18.7737 N   0  0  0  0  0  0  0  0  0  0  0  0
    8.9992  -15.5385   18.9813 C   0  0  1  0  0  0  0  0  0  0  0  0
    8.4971  -14.3887   18.0975 C   0  0  0  0  0  0  0  0  0  0  0  0
    8.4363  -14.9496   16.7155 C   0  0  0  0  0  0  0  0  0  0  0  0
    9.4384  -15.6145   16.0695 C   0  0  0  0  0  0  0  0  0  0  0  0
    8.9620  -15.9430   14.8500 N   0  0  0  0  0  0  0  0  0  0  0  0
    7.7140  -15.5148   14.7074 C   0  0  0  0  0  0  0  0  0  0  0  0
    7.3968  -14.9003   15.8686 N   0  0  0  0  0  0  0  0  0  0  0  0
    9.0369  -15.1391   20.3880 C   0  0  0  0  0  0  0  0  0  0  0  0
    9.7644  -14.2008   20.7643 O   0  0  0  0  0  0  0  0  0  0  0  0
    8.2534  -15.8086   21.3300 N   0  0  0  0  0  0  0  0  0  0  0  0
    8.2844  -15.5550   22.7577 C   0  0  1  0  0  0  0  0  0  0  0  0
    6.9343  -15.5225   23.3753 C   0  0  0  0  0  0  0  0  0  0  0  0
    7.0572  -15.1602   24.8044 C   0  0  0  0  0  0  0  0  0  0  0  0
    7.0732  -16.0042   25.8947 C   0  0  0  0  0  0  0  0  0  0  0  0
    7.1904  -15.2849   27.0253 N   0  0  0  0  0  0  0  0  0  0  0  0
    7.2519  -13.9696   26.6889 C   0  0  0  0  0  0  0  0  0  0  0  0
    7.3724  -12.8380   27.4681 C   0  0  0  0  0  0  0  0  0  0  0  0
    7.4104  -11.6036   26.8467 C   0  0  0  0  0  0  0  0  0  0  0  0
    7.3297  -11.5000   25.4721 C   0  0  0  0  0  0  0  0  0  0  0  0
    7.2100  -12.6328   24.7071 C   0  0  0  0  0  0  0  0  0  0  0  0
    7.1702  -13.8790   25.3120 C   0  0  0  0  0  0  0  0  0  0  0  0
    9.1171  -16.5721   23.4100 C   0  0  0  0  0  0  0  0  0  0  0  0
    8.8868  -17.7856   23.2217 O   0  0  0  0  0  0  0  0  0  0  0  0
   10.1900  -16.1806   24.2592 N   0  0  0  0  0  0  0  0  0  0  0  0
   11.1547  -17.1684   24.7822 C   0  0  1  0  0  0  0  0  0  0  0  0
   12.5444  -16.7979   24.3559 C   0  0  0  0  0  0  0  0  0  0  0  0
   13.5962  -17.6892   24.9001 C   0  0  0  0  0  0  0  0  0  0  0  0
   14.9715  -17.3688   24.4657 C   0  0  0  0  0  0  0  0  0  0  0  0
   15.1628  -16.3615   23.7326 O   0  0  0  0  0  0  0  0  0  0  0  0
   11.0315  -17.2414   26.2626 C   0  0  0  0  0  0  0  0  0  0  0  0
   10.5028  -16.3616   26.9764 O   0  0  0  0  0  0  0  0  0  0  0  0
   16.0482  -18.1310   24.8322 O   0  0  0  0  0  0  0  0  0  0  0  0
   11.5361  -18.3646   26.9205 O   0  0  0  0  0  0  0  0  0  0  0  0
  2  1  1  1
  2  3  1  0
  3  4  1  0
  4  5  2  0
  4  8  1  0
  5  6  1  0
  6  7  1  0
  8  7  2  0
  9 10  2  0
  9  2  1  0
 11  9  1  0
 12 13  1  1
 12 11  1  0
 13 14  1  0
 14 22  1  0
 14 15  2  0
 15 16  1  0
 17 16  1  0
 17 18  2  0
 19 18  1  0
 20 19  2  0
 21 22  2  0
 21 20  1  0
 22 17  1  0
 23 12  1  0
 24 23  2  0
 25 23  1  0
 26 25  1  0
 27 28  1  0
 26 27  1  1
 28 29  1  0
 29 33  1  0
 29 30  2  0
 31 34  1  0
 31 26  1  0
 32 31  2  0
M  END
$$$$
