HWE.pdb
     RDKit          3D

 34 36  0  0  1  0  0  0  0  0999 V2000
    8.4069  -15.9829   19.7585 N   0  0  0  0  0  0  0  0  0  0  0  0
    8.7820  -17.0565   20.6840 C   0  0  1  0  0  0  0  0  0  0  0  0
    9.7040  -17.9687   19.8637 C   0  0  0  0  0  0  0  0  0  0  0  0
    8.8094  -18.6657   18.8931 C   0  0  0  0  0  0  0  0  0  0  0  0
    7.5048  -19.0096   19.1014 C   0  0  0  0  0  0  0  0  0  0  0  0
    7.0798  -19.6179   17.9739 N   0  0  0  0  0  0  0  0  0  0  0  0
    8.0561  -19.6685   17.0764 C   0  0  0  0  0  0  0  0  0  0  0  0
    9.1241  -19.0759   17.6551 N   0  0  0  0  0  0  0  0  0  0  0  0
    9.4828  -16.5147   21.8482 C   0  0  0  0  0  0  0  0  0  0  0  0
   10.4510  -15.7442   21.7068 O   0  0  0  0  0  0  0  0  0  0  0  0
    9.0720  -16.8571   23.1379 N   0  0  0  0  0  0  0  0  0  0  0  0
    9.6993  -16.3814   24.3561 C   0  0  1  0  0  0  0  0  0  0  0  0
    8.7808  -16.3760   25.5231 C   0  0  0  0  0  0  0  0  0  0  0  0
    7.6965  -15.3971   25.2893 C   0  0  0  0  0  0  0  0  0  0  0  0
    6.5306  -15.5774   24.5753 C   0  0  0  0  0  0  0  0  0  0  0  0
    5.8087  -14.4426   24.5887 N   0  0  0  0  0  0  0  0  0  0  0  0
    6.4904  -13.5124   25.3076 C   0  0  0  0  0  0  0  0  0  0  0  0
    6.1872  -12.2030   25.6171 C   0  0  0  0  0  0  0  0  0  0  0  0
    7.0818  -11.4756   26.3798 C   0  0  0  0  0  0  0  0  0  0  0  0
    8.2583  -12.0444   26.8259 C   0  0  0  0  0  0  0  0  0  0  0  0
    8.5494  -13.3480   26.5118 C   0  0  0  0  0  0  0  0  0  0  0  0
    7.6649  -14.0931   25.7483 C   0  0  0  0  0  0  0  0  0  0  0  0
   10.8804  -17.2036   24.6430 C   0  0  0  0  0  0  0  0  0  0  0  0
   10.7968  -18.4500   24.6210 O   0  0  0  0  0  0  0  0  0  0  0  0
   12.1254  -16.5848   24.9471 N   0  0  0  0  0  0  0  0  0  0  0  0
   13.3383  -17.3862   25.2050 C   0  0  1  0  0  0  0  0  0  0  0  0
   14.5609  -16.5487   24.9729 C   0  0  0  0  0  0  0  0  0  0  0  0
   15.8303  -17.2329   25.3154 C   0  0  0  0  0  0  0  0  0  0  0  0
   17.0500  -16.4253   25.1080 C   0  0  0  0  0  0  0  0  0  0  0  0
   17.3434  -16.0482   23.9416 O   0  0  0  0  0  0  0  0  0  0  0  0
   13.2897  -17.9213   26.5919 C   0  0  0  0  0  0  0  0  0  0  0  0
   12.6321  -17.4148   27.5268 O   0  0  0  0  0  0  0  0  0  0  0  0
   17.8753  -16.0722   26.1417 O   0  0  0  0  0  0  0  0  0  0  0  0
   14.0241  -19.0703   26.8909 O   0  0  0  0  0  0  0  0  0  0  0  0
  2  1  1  6
  2  3  1  0
  3  4  1  0
  4  5  2  0
  4  8  1  0
  5  6  1  0
  6  7  1  0
  8  7  2  0
  9 10  2  0
  9  2  1  0
 11  9  1  0
 12 13  1  1
 12 11  1  0
 13 14  1  0
 14 22  1  0
 14 15  2  0
 15 16  1  0
 17 16  1  0
 17 18  2  0
 19 18  1  0
 20 19  2  0
 21 22  2  0
 21 20  1  0
 22 17  1  0
 23 12  1  0
 24 23  2  0
 25 23  1  0
 26 25  1  0
 27 28  1  0
 26 27  1  1
 28 29  1  0
 29 33  1  0
 29 30  2  0
 31 34  1  0
 31 26  1  0
 32 31  2  0
M  END
$$$$
