HWE.pdb
     RDKit          3D

 34 36  0  0  1  0  0  0  0  0999 V2000
    7.6019  -14.8651   21.6727 N   0  0  0  0  0  0  0  0  0  0  0  0
    8.8628  -15.6134   21.6668 C   0  0  1  0  0  0  0  0  0  0  0  0
    9.7313  -14.8979   20.6233 C   0  0  0  0  0  0  0  0  0  0  0  0
    8.7803  -14.4241   19.5749 C   0  0  0  0  0  0  0  0  0  0  0  0
    9.0802  -14.1740   18.2668 C   0  0  0  0  0  0  0  0  0  0  0  0
    7.9359  -13.7668   17.6780 N   0  0  0  0  0  0  0  0  0  0  0  0
    6.9408  -13.7518   18.5561 C   0  0  0  0  0  0  0  0  0  0  0  0
    7.4737  -14.1607   19.7288 N   0  0  0  0  0  0  0  0  0  0  0  0
    9.4929  -15.5759   22.9865 C   0  0  0  0  0  0  0  0  0  0  0  0
   10.4994  -14.8716   23.1917 O   0  0  0  0  0  0  0  0  0  0  0  0
    8.9702  -16.3331   24.0367 N   0  0  0  0  0  0  0  0  0  0  0  0
    9.6098  -16.5044   25.3272 C   0  0  1  0  0  0  0  0  0  0  0  0
    8.7600  -16.0666   26.4636 C   0  0  0  0  0  0  0  0  0  0  0  0
    7.6605  -15.2173   25.9551 C   0  0  0  0  0  0  0  0  0  0  0  0
    6.5735  -15.6007   25.1982 C   0  0  0  0  0  0  0  0  0  0  0  0
    5.8053  -14.5297   24.9300 N   0  0  0  0  0  0  0  0  0  0  0  0
    6.3779  -13.4398   25.5054 C   0  0  0  0  0  0  0  0  0  0  0  0
    5.9917  -12.1159   25.5264 C   0  0  0  0  0  0  0  0  0  0  0  0
    6.7809  -11.2035   26.2016 C   0  0  0  0  0  0  0  0  0  0  0  0
    7.9351  -11.6048   26.8447 C   0  0  0  0  0  0  0  0  0  0  0  0
    8.3094  -12.9246   26.8170 C   0  0  0  0  0  0  0  0  0  0  0  0
    7.5312  -13.8539   26.1453 C   0  0  0  0  0  0  0  0  0  0  0  0
    9.9934  -17.9112   25.4921 C   0  0  0  0  0  0  0  0  0  0  0  0
    9.1253  -18.8081   25.4382 O   0  0  0  0  0  0  0  0  0  0  0  0
   11.3554  -18.2595   25.7139 N   0  0  0  0  0  0  0  0  0  0  0  0
   11.7265  -19.5354   26.3576 C   0  0  1  0  0  0  0  0  0  0  0  0
   13.1899  -19.7988   26.1598 C   0  0  0  0  0  0  0  0  0  0  0  0
   13.6868  -19.4391   24.8105 C   0  0  0  0  0  0  0  0  0  0  0  0
   15.1159  -19.7303   24.5740 C   0  0  0  0  0  0  0  0  0  0  0  0
   15.4707  -20.1839   23.4527 O   0  0  0  0  0  0  0  0  0  0  0  0
   11.3638  -19.4839   27.7991 C   0  0  0  0  0  0  0  0  0  0  0  0
   11.3041  -20.4793   28.5533 O   0  0  0  0  0  0  0  0  0  0  0  0
   16.0705  -19.5247   25.5336 O   0  0  0  0  0  0  0  0  0  0  0  0
   11.0655  -18.2450   28.3692 O   0  0  0  0  0  0  0  0  0  0  0  0
  2  1  1  1
  2  3  1  0
  3  4  1  0
  4  5  2  0
  4  8  1  0
  5  6  1  0
  6  7  1  0
  8  7  2  0
  9 10  2  0
  9  2  1  0
 11  9  1  0
 12 13  1  1
 12 11  1  0
 13 14  1  0
 14 22  1  0
 14 15  2  0
 15 16  1  0
 17 16  1  0
 17 18  2  0
 19 18  1  0
 20 19  2  0
 21 22  2  0
 21 20  1  0
 22 17  1  0
 23 12  1  0
 24 23  2  0
 25 23  1  0
 26 25  1  0
 27 28  1  0
 26 27  1  1
 28 29  1  0
 29 33  1  0
 29 30  2  0
 31 34  1  0
 31 26  1  0
 32 31  2  0
M  END
$$$$
