HWE.pdb
     RDKit          3D

 34 36  0  0  1  0  0  0  0  0999 V2000
   10.2142  -15.9974   18.5199 N   0  0  0  0  0  0  0  0  0  0  0  0
    9.9556  -16.9972   19.5607 C   0  0  1  0  0  0  0  0  0  0  0  0
   11.1672  -17.9373   19.5023 C   0  0  0  0  0  0  0  0  0  0  0  0
   11.0979  -18.5891   18.1613 C   0  0  0  0  0  0  0  0  0  0  0  0
   10.4895  -19.7764   17.8716 C   0  0  0  0  0  0  0  0  0  0  0  0
   10.6656  -19.9897   16.5504 N   0  0  0  0  0  0  0  0  0  0  0  0
   11.3532  -18.9935   16.0061 C   0  0  0  0  0  0  0  0  0  0  0  0
   11.6166  -18.1304   17.0122 N   0  0  0  0  0  0  0  0  0  0  0  0
    9.8494  -16.3615   20.8740 C   0  0  0  0  0  0  0  0  0  0  0  0
   10.8385  -15.8171   21.3997 O   0  0  0  0  0  0  0  0  0  0  0  0
    8.6314  -16.3576   21.5565 N   0  0  0  0  0  0  0  0  0  0  0  0
    8.4395  -15.8378   22.8969 C   0  0  1  0  0  0  0  0  0  0  0  0
    7.0090  -15.6866   23.2661 C   0  0  0  0  0  0  0  0  0  0  0  0
    6.9114  -15.1618   24.6458 C   0  0  0  0  0  0  0  0  0  0  0  0
    6.6048  -15.8557   25.7973 C   0  0  0  0  0  0  0  0  0  0  0  0
    6.6074  -15.0167   26.8486 N   0  0  0  0  0  0  0  0  0  0  0  0
    6.9140  -13.7714   26.3990 C   0  0  0  0  0  0  0  0  0  0  0  0
    7.0432  -12.5714   27.0666 C   0  0  0  0  0  0  0  0  0  0  0  0
    7.3691  -11.4395   26.3430 C   0  0  0  0  0  0  0  0  0  0  0  0
    7.5626  -11.5035   24.9772 C   0  0  0  0  0  0  0  0  0  0  0  0
    7.4313  -12.7028   24.3237 C   0  0  0  0  0  0  0  0  0  0  0  0
    7.1052  -13.8484   25.0322 C   0  0  0  0  0  0  0  0  0  0  0  0
    9.1219  -16.7139   23.8561 C   0  0  0  0  0  0  0  0  0  0  0  0
    8.8979  -17.9431   23.8515 O   0  0  0  0  0  0  0  0  0  0  0  0
   10.0414  -16.1674   24.7948 N   0  0  0  0  0  0  0  0  0  0  0  0
   10.8145  -17.0343   25.7061 C   0  0  1  0  0  0  0  0  0  0  0  0
   12.2832  -16.8307   25.4788 C   0  0  0  0  0  0  0  0  0  0  0  0
   12.7296  -17.1663   24.1059 C   0  0  0  0  0  0  0  0  0  0  0  0
   14.1692  -16.9552   23.8490 C   0  0  0  0  0  0  0  0  0  0  0  0
   14.9008  -16.5257   24.7812 O   0  0  0  0  0  0  0  0  0  0  0  0
   10.4268  -16.7417   27.1118 C   0  0  0  0  0  0  0  0  0  0  0  0
    9.5900  -15.8778   27.4535 O   0  0  0  0  0  0  0  0  0  0  0  0
   14.7373  -17.2100   22.6297 O   0  0  0  0  0  0  0  0  0  0  0  0
   11.0289  -17.4731   28.1372 O   0  0  0  0  0  0  0  0  0  0  0  0
  2  1  1  6
  2  3  1  0
  3  4  1  0
  4  5  2  0
  4  8  1  0
  5  6  1  0
  6  7  1  0
  8  7  2  0
  9 10  2  0
  9  2  1  0
 11  9  1  0
 12 13  1  1
 12 11  1  0
 13 14  1  0
 14 22  1  0
 14 15  2  0
 15 16  1  0
 17 16  1  0
 17 18  2  0
 19 18  1  0
 20 19  2  0
 21 22  2  0
 21 20  1  0
 22 17  1  0
 23 12  1  0
 24 23  2  0
 25 23  1  0
 26 25  1  0
 27 28  1  0
 26 27  1  1
 28 29  1  0
 29 33  1  0
 29 30  2  0
 31 34  1  0
 31 26  1  0
 32 31  2  0
M  END
$$$$
