HWE.pdb
     RDKit          3D

 34 36  0  0  1  0  0  0  0  0999 V2000
    8.0394  -13.1242   18.3151 N   0  0  0  0  0  0  0  0  0  0  0  0
    8.1693  -14.5099   18.7763 C   0  0  1  0  0  0  0  0  0  0  0  0
    9.3367  -15.0806   17.9598 C   0  0  0  0  0  0  0  0  0  0  0  0
    8.8552  -15.1080   16.5471 C   0  0  0  0  0  0  0  0  0  0  0  0
    7.7767  -15.7992   16.0753 C   0  0  0  0  0  0  0  0  0  0  0  0
    7.7030  -15.5457   14.7516 N   0  0  0  0  0  0  0  0  0  0  0  0
    8.6824  -14.7314   14.3787 C   0  0  0  0  0  0  0  0  0  0  0  0
    9.3913  -14.4656   15.4983 N   0  0  0  0  0  0  0  0  0  0  0  0
    8.4623  -14.5532   20.2089 C   0  0  0  0  0  0  0  0  0  0  0  0
    9.6039  -14.2930   20.6334 O   0  0  0  0  0  0  0  0  0  0  0  0
    7.4602  -14.8884   21.1214 N   0  0  0  0  0  0  0  0  0  0  0  0
    7.6499  -14.9818   22.5564 C   0  0  1  0  0  0  0  0  0  0  0  0
    6.3739  -14.9785   23.3162 C   0  0  0  0  0  0  0  0  0  0  0  0
    6.6666  -14.9496   24.7661 C   0  0  0  0  0  0  0  0  0  0  0  0
    6.8253  -16.0202   25.6206 C   0  0  0  0  0  0  0  0  0  0  0  0
    7.0717  -15.5757   26.8660 N   0  0  0  0  0  0  0  0  0  0  0  0
    7.0770  -14.2170   26.8402 C   0  0  0  0  0  0  0  0  0  0  0  0
    7.2791  -13.2907   27.8419 C   0  0  0  0  0  0  0  0  0  0  0  0
    7.2270  -11.9461   27.5247 C   0  0  0  0  0  0  0  0  0  0  0  0
    6.9777  -11.5328   26.2310 C   0  0  0  0  0  0  0  0  0  0  0  0
    6.7781  -12.4634   25.2426 C   0  0  0  0  0  0  0  0  0  0  0  0
    6.8265  -13.8158   25.5412 C   0  0  0  0  0  0  0  0  0  0  0  0
    8.4207  -16.1922   22.8630 C   0  0  0  0  0  0  0  0  0  0  0  0
    8.0833  -17.2910   22.3732 O   0  0  0  0  0  0  0  0  0  0  0  0
    9.5553  -16.1195   23.7190 N   0  0  0  0  0  0  0  0  0  0  0  0
   10.3147  -17.3297   24.0916 C   0  0  1  0  0  0  0  0  0  0  0  0
   11.5122  -17.4741   23.1998 C   0  0  0  0  0  0  0  0  0  0  0  0
   12.4591  -16.3365   23.2786 C   0  0  0  0  0  0  0  0  0  0  0  0
   13.6456  -16.4509   22.4057 C   0  0  0  0  0  0  0  0  0  0  0  0
   14.0690  -15.4236   21.8107 O   0  0  0  0  0  0  0  0  0  0  0  0
   10.6999  -17.2476   25.5257 C   0  0  0  0  0  0  0  0  0  0  0  0
   10.4985  -16.2563   26.2606 O   0  0  0  0  0  0  0  0  0  0  0  0
   14.3022  -17.6377   22.2196 O   0  0  0  0  0  0  0  0  0  0  0  0
   11.3327  -18.3455   26.1116 O   0  0  0  0  0  0  0  0  0  0  0  0
  2  1  1  6
  2  3  1  0
  3  4  1  0
  4  5  2  0
  4  8  1  0
  5  6  1  0
  6  7  1  0
  8  7  2  0
  9 10  2  0
  9  2  1  0
 11  9  1  0
 12 13  1  1
 12 11  1  0
 13 14  1  0
 14 22  1  0
 14 15  2  0
 15 16  1  0
 17 16  1  0
 17 18  2  0
 19 18  1  0
 20 19  2  0
 21 22  2  0
 21 20  1  0
 22 17  1  0
 23 12  1  0
 24 23  2  0
 25 23  1  0
 26 25  1  0
 27 28  1  0
 26 27  1  6
 28 29  1  0
 29 33  1  0
 29 30  2  0
 31 34  1  0
 31 26  1  0
 32 31  2  0
M  END
$$$$
