HWE.pdb
     RDKit          3D

 34 36  0  0  1  0  0  0  0  0999 V2000
    9.1674  -17.2478   18.3116 N   0  0  0  0  0  0  0  0  0  0  0  0
    8.4672  -17.3162   19.5980 C   0  0  1  0  0  0  0  0  0  0  0  0
    8.3027  -18.8179   19.8685 C   0  0  0  0  0  0  0  0  0  0  0  0
    7.3839  -19.3137   18.8017 C   0  0  0  0  0  0  0  0  0  0  0  0
    6.1080  -18.8858   18.5725 C   0  0  0  0  0  0  0  0  0  0  0  0
    5.6445  -19.5947   17.5215 N   0  0  0  0  0  0  0  0  0  0  0  0
    6.5697  -20.4413   17.0873 C   0  0  0  0  0  0  0  0  0  0  0  0
    7.6442  -20.2599   17.8868 N   0  0  0  0  0  0  0  0  0  0  0  0
    9.2566  -16.6782   20.6515 C   0  0  0  0  0  0  0  0  0  0  0  0
   10.5009  -16.7301   20.6346 O   0  0  0  0  0  0  0  0  0  0  0  0
    8.6208  -16.0001   21.6932 N   0  0  0  0  0  0  0  0  0  0  0  0
    9.3071  -15.2611   22.7356 C   0  0  1  0  0  0  0  0  0  0  0  0
    8.6701  -13.9552   23.0427 C   0  0  0  0  0  0  0  0  0  0  0  0
    7.7206  -14.1245   24.1646 C   0  0  0  0  0  0  0  0  0  0  0  0
    6.9661  -15.2357   24.4765 C   0  0  0  0  0  0  0  0  0  0  0  0
    6.2195  -14.9872   25.5675 N   0  0  0  0  0  0  0  0  0  0  0  0
    6.4759  -13.7177   25.9790 C   0  0  0  0  0  0  0  0  0  0  0  0
    5.9754  -12.9877   27.0368 C   0  0  0  0  0  0  0  0  0  0  0  0
    6.4221  -11.6925   27.2214 C   0  0  0  0  0  0  0  0  0  0  0  0
    7.3518  -11.1353   26.3658 C   0  0  0  0  0  0  0  0  0  0  0  0
    7.8427  -11.8711   25.3169 C   0  0  0  0  0  0  0  0  0  0  0  0
    7.4069  -13.1711   25.1157 C   0  0  0  0  0  0  0  0  0  0  0  0
    9.3792  -16.0883   23.9455 C   0  0  0  0  0  0  0  0  0  0  0  0
    8.3657  -16.6969   24.3499 O   0  0  0  0  0  0  0  0  0  0  0  0
   10.6032  -16.2007   24.6628 N   0  0  0  0  0  0  0  0  0  0  0  0
   10.8757  -17.3569   25.5396 C   0  0  1  0  0  0  0  0  0  0  0  0
   12.2121  -17.9485   25.2016 C   0  0  0  0  0  0  0  0  0  0  0  0
   13.3544  -17.0445   25.4750 C   0  0  0  0  0  0  0  0  0  0  0  0
   14.6586  -17.5155   24.9648 C   0  0  0  0  0  0  0  0  0  0  0  0
   14.7240  -18.6384   24.3961 O   0  0  0  0  0  0  0  0  0  0  0  0
   10.8060  -16.9247   26.9610 C   0  0  0  0  0  0  0  0  0  0  0  0
   10.6601  -15.7416   27.3382 O   0  0  0  0  0  0  0  0  0  0  0  0
   15.8018  -16.7725   25.0896 O   0  0  0  0  0  0  0  0  0  0  0  0
   10.9086  -17.8944   27.9601 O   0  0  0  0  0  0  0  0  0  0  0  0
  2  1  1  6
  2  3  1  0
  3  4  1  0
  4  5  2  0
  4  8  1  0
  5  6  1  0
  6  7  1  0
  8  7  2  0
  9 10  2  0
  9  2  1  0
 11  9  1  0
 12 13  1  1
 12 11  1  0
 13 14  1  0
 14 22  1  0
 14 15  2  0
 15 16  1  0
 17 16  1  0
 17 18  2  0
 19 18  1  0
 20 19  2  0
 21 22  2  0
 21 20  1  0
 22 17  1  0
 23 12  1  0
 24 23  2  0
 25 23  1  0
 26 25  1  0
 27 28  1  0
 26 27  1  6
 28 29  1  0
 29 33  1  0
 29 30  2  0
 31 34  1  0
 31 26  1  0
 32 31  2  0
M  END
$$$$
