HWE.pdb
     RDKit          3D

 34 36  0  0  1  0  0  0  0  0999 V2000
   10.1964  -16.4055   18.1705 N   0  0  0  0  0  0  0  0  0  0  0  0
    9.3106  -17.0987   19.1110 C   0  0  1  0  0  0  0  0  0  0  0  0
    9.8372  -18.5398   19.1465 C   0  0  0  0  0  0  0  0  0  0  0  0
    9.4822  -19.1235   17.8194 C   0  0  0  0  0  0  0  0  0  0  0  0
    8.4347  -19.9594   17.5595 C   0  0  0  0  0  0  0  0  0  0  0  0
    8.4840  -20.2440   16.2409 N   0  0  0  0  0  0  0  0  0  0  0  0
    9.5103  -19.6260   15.6698 C   0  0  0  0  0  0  0  0  0  0  0  0
   10.1231  -18.9340   16.6559 N   0  0  0  0  0  0  0  0  0  0  0  0
    9.3799  -16.4835   20.4364 C   0  0  0  0  0  0  0  0  0  0  0  0
   10.4748  -16.1482   20.9263 O   0  0  0  0  0  0  0  0  0  0  0  0
    8.2132  -16.2640   21.1713 N   0  0  0  0  0  0  0  0  0  0  0  0
    8.1769  -15.7370   22.5221 C   0  0  1  0  0  0  0  0  0  0  0  0
    6.7987  -15.4843   23.0142 C   0  0  0  0  0  0  0  0  0  0  0  0
    6.8508  -15.0975   24.4412 C   0  0  0  0  0  0  0  0  0  0  0  0
    6.6343  -15.8957   25.5446 C   0  0  0  0  0  0  0  0  0  0  0  0
    6.7644  -15.1658   26.6669 N   0  0  0  0  0  0  0  0  0  0  0  0
    7.0658  -13.8890   26.3122 C   0  0  0  0  0  0  0  0  0  0  0  0
    7.2965  -12.7646   27.0769 C   0  0  0  0  0  0  0  0  0  0  0  0
    7.5870  -11.5737   26.4378 C   0  0  0  0  0  0  0  0  0  0  0  0
    7.6464  -11.5056   25.0599 C   0  0  0  0  0  0  0  0  0  0  0  0
    7.4150  -12.6307   24.3093 C   0  0  0  0  0  0  0  0  0  0  0  0
    7.1223  -13.8337   24.9321 C   0  0  0  0  0  0  0  0  0  0  0  0
    8.8751  -16.6640   23.4202 C   0  0  0  0  0  0  0  0  0  0  0  0
    8.6504  -17.8912   23.3522 O   0  0  0  0  0  0  0  0  0  0  0  0
    9.8107  -16.1693   24.3716 N   0  0  0  0  0  0  0  0  0  0  0  0
   10.7852  -17.0641   25.0270 C   0  0  1  0  0  0  0  0  0  0  0  0
   12.1711  -16.7435   24.5511 C   0  0  0  0  0  0  0  0  0  0  0  0
   13.2296  -17.5558   25.1966 C   0  0  0  0  0  0  0  0  0  0  0  0
   14.5998  -17.2963   24.7086 C   0  0  0  0  0  0  0  0  0  0  0  0
   14.7588  -16.5860   23.6795 O   0  0  0  0  0  0  0  0  0  0  0  0
   10.6625  -16.9297   26.5031 C   0  0  0  0  0  0  0  0  0  0  0  0
   11.2850  -17.6254   27.3347 O   0  0  0  0  0  0  0  0  0  0  0  0
   15.7058  -17.8029   25.3368 O   0  0  0  0  0  0  0  0  0  0  0  0
    9.7954  -15.9634   27.0163 O   0  0  0  0  0  0  0  0  0  0  0  0
  2  1  1  6
  2  3  1  0
  3  4  1  0
  4  5  2  0
  4  8  1  0
  5  6  1  0
  6  7  1  0
  8  7  2  0
  9 10  2  0
  9  2  1  0
 11  9  1  0
 12 13  1  1
 12 11  1  0
 13 14  1  0
 14 22  1  0
 14 15  2  0
 15 16  1  0
 17 16  1  0
 17 18  2  0
 19 18  1  0
 20 19  2  0
 21 22  2  0
 21 20  1  0
 22 17  1  0
 23 12  1  0
 24 23  2  0
 25 23  1  0
 26 25  1  0
 27 28  1  0
 26 27  1  6
 28 29  1  0
 29 33  1  0
 29 30  2  0
 31 34  1  0
 31 26  1  0
 32 31  2  0
M  END
$$$$
