HWE.pdb
     RDKit          3D

 34 36  0  0  1  0  0  0  0  0999 V2000
    9.2138  -17.6989   19.0327 N   0  0  0  0  0  0  0  0  0  0  0  0
    8.5154  -17.6149   20.3192 C   0  0  1  0  0  0  0  0  0  0  0  0
    8.0552  -19.0512   20.6030 C   0  0  0  0  0  0  0  0  0  0  0  0
    7.0620  -19.3668   19.5344 C   0  0  0  0  0  0  0  0  0  0  0  0
    5.8997  -18.6943   19.2886 C   0  0  0  0  0  0  0  0  0  0  0  0
    5.3096  -19.3100   18.2424 N   0  0  0  0  0  0  0  0  0  0  0  0
    6.0483  -20.3313   17.8267 C   0  0  0  0  0  0  0  0  0  0  0  0
    7.1323  -20.3586   18.6335 N   0  0  0  0  0  0  0  0  0  0  0  0
    9.4173  -17.1376   21.3674 C   0  0  0  0  0  0  0  0  0  0  0  0
   10.6381  -17.3783   21.3152 O   0  0  0  0  0  0  0  0  0  0  0  0
    8.9170  -16.4028   22.4441 N   0  0  0  0  0  0  0  0  0  0  0  0
    9.7298  -15.8332   23.5017 C   0  0  1  0  0  0  0  0  0  0  0  0
    9.3632  -14.4322   23.8307 C   0  0  0  0  0  0  0  0  0  0  0  0
    8.1397  -14.4277   24.6624 C   0  0  0  0  0  0  0  0  0  0  0  0
    7.2248  -15.4457   24.8302 C   0  0  0  0  0  0  0  0  0  0  0  0
    6.2450  -15.0447   25.6599 N   0  0  0  0  0  0  0  0  0  0  0  0
    6.5066  -13.7670   26.0420 C   0  0  0  0  0  0  0  0  0  0  0  0
    5.8187  -12.9096   26.8750 C   0  0  0  0  0  0  0  0  0  0  0  0
    6.3252  -11.6412   27.0889 C   0  0  0  0  0  0  0  0  0  0  0  0
    7.4974  -11.2352   26.4824 C   0  0  0  0  0  0  0  0  0  0  0  0
    8.1733  -12.0968   25.6556 C   0  0  0  0  0  0  0  0  0  0  0  0
    7.6811  -13.3724   25.4290 C   0  0  0  0  0  0  0  0  0  0  0  0
    9.6280  -16.6789   24.6966 C   0  0  0  0  0  0  0  0  0  0  0  0
    8.5403  -17.2178   24.9922 O   0  0  0  0  0  0  0  0  0  0  0  0
   10.7675  -16.8889   25.5230 N   0  0  0  0  0  0  0  0  0  0  0  0
   10.8712  -18.0709   26.4017 C   0  0  1  0  0  0  0  0  0  0  0  0
   12.1889  -18.7537   26.1832 C   0  0  0  0  0  0  0  0  0  0  0  0
   12.3703  -19.9806   26.9948 C   0  0  0  0  0  0  0  0  0  0  0  0
   13.6479  -20.6898   26.7764 C   0  0  0  0  0  0  0  0  0  0  0  0
   13.7139  -21.5683   25.8750 O   0  0  0  0  0  0  0  0  0  0  0  0
   10.6946  -17.6497   27.8171 C   0  0  0  0  0  0  0  0  0  0  0  0
   10.4219  -18.4235   28.7605 O   0  0  0  0  0  0  0  0  0  0  0  0
   14.7653  -20.4255   27.5221 O   0  0  0  0  0  0  0  0  0  0  0  0
   10.8398  -16.2981   28.1352 O   0  0  0  0  0  0  0  0  0  0  0  0
  2  1  1  6
  2  3  1  0
  3  4  1  0
  4  5  2  0
  4  8  1  0
  5  6  1  0
  6  7  1  0
  8  7  2  0
  9 10  2  0
  9  2  1  0
 11  9  1  0
 12 13  1  1
 12 11  1  0
 13 14  1  0
 14 22  1  0
 14 15  2  0
 15 16  1  0
 17 16  1  0
 17 18  2  0
 19 18  1  0
 20 19  2  0
 21 22  2  0
 21 20  1  0
 22 17  1  0
 23 12  1  0
 24 23  2  0
 25 23  1  0
 26 25  1  0
 27 28  1  0
 26 27  1  1
 28 29  1  0
 29 33  1  0
 29 30  2  0
 31 34  1  0
 31 26  1  0
 32 31  2  0
M  END
$$$$
