PPS.pdb
     RDKit          3D

 21 22  0  0  1  0  0  0  0  0999 V2000
    8.7171  -14.2514   21.3075 N   0  0  0  0  0  0  0  0  0  0  0  0
    8.1758  -15.3421   20.5395 C   0  0  0  0  0  0  0  0  0  0  0  0
    6.6990  -15.1988   20.7018 C   0  0  0  0  0  0  0  0  0  0  0  0
    6.6027  -14.7921   22.1750 C   0  0  0  0  0  0  0  0  0  0  0  0
    7.8370  -13.9352   22.3824 C   0  0  1  0  0  0  0  0  0  0  0  0
    8.3786  -14.1445   23.7305 C   0  0  0  0  0  0  0  0  0  0  0  0
    9.4515  -14.8299   23.8634 O   0  0  0  0  0  0  0  0  0  0  0  0
    7.8024  -13.6414   24.9265 N   0  0  0  0  0  0  0  0  0  0  0  0
    6.5769  -12.8788   24.9519 C   0  0  0  0  0  0  0  0  0  0  0  0
    6.2457  -12.5875   26.3982 C   0  0  0  0  0  0  0  0  0  0  0  0
    7.5616  -12.8612   27.1377 C   0  0  0  0  0  0  0  0  0  0  0  0
    8.3229  -13.8035   26.2750 C   0  0  1  0  0  0  0  0  0  0  0  0
    8.2815  -15.2108   26.7136 C   0  0  0  0  0  0  0  0  0  0  0  0
    7.2038  -15.8399   26.5550 O   0  0  0  0  0  0  0  0  0  0  0  0
   11.3256  -17.5762   26.4865 O   0  0  0  0  0  0  0  0  0  0  0  0
   10.0904  -18.1660   26.7288 C   0  0  0  0  0  0  0  0  0  0  0  0
    9.3498  -17.2619   27.7047 C   0  0  2  0  0  0  0  0  0  0  0  0
    9.3662  -15.8932   27.2962 N   0  0  0  0  0  0  0  0  0  0  0  0
   10.0364  -17.3792   29.0122 C   0  0  0  0  0  0  0  0  0  0  0  0
   10.4739  -16.3296   29.5467 O   0  0  0  0  0  0  0  0  0  0  0  0
   10.2042  -18.6088   29.6514 O   0  0  0  0  0  0  0  0  0  0  0  0
  1  2  1  0
  3  2  1  0
  4  5  1  0
  4  3  1  0
  5  1  1  0
  6  8  1  0
  5  6  1  1
  7  6  2  0
  8 12  1  0
  9 10  1  0
  9  8  1  0
 10 11  1  0
 11 12  1  0
 12 13  1  1
 13 14  2  0
 13 18  1  0
 15 16  1  0
 17 19  1  0
 17 16  1  6
 18 17  1  0
 19 21  1  0
 20 19  2  0
M  END
$$$$
