PPS.pdb
     RDKit          3D

 21 22  0  0  1  0  0  0  0  0999 V2000
    8.6911  -14.3565   21.3501 N   0  0  0  0  0  0  0  0  0  0  0  0
    8.3033  -15.5672   20.6745 C   0  0  0  0  0  0  0  0  0  0  0  0
    6.8196  -15.6083   20.8321 C   0  0  0  0  0  0  0  0  0  0  0  0
    6.6619  -15.1013   22.2685 C   0  0  0  0  0  0  0  0  0  0  0  0
    7.7707  -14.0747   22.4006 C   0  0  1  0  0  0  0  0  0  0  0  0
    8.3275  -14.1018   23.7584 C   0  0  0  0  0  0  0  0  0  0  0  0
    9.4515  -14.6831   23.9515 O   0  0  0  0  0  0  0  0  0  0  0  0
    7.7132  -13.5265   24.9018 N   0  0  0  0  0  0  0  0  0  0  0  0
    6.3947  -12.9392   24.8777 C   0  0  0  0  0  0  0  0  0  0  0  0
    6.0579  -12.5057   26.2865 C   0  0  0  0  0  0  0  0  0  0  0  0
    7.4148  -12.4991   27.0021 C   0  0  0  0  0  0  0  0  0  0  0  0
    8.2805  -13.4366   26.2381 C   0  0  1  0  0  0  0  0  0  0  0  0
    8.4441  -14.7658   26.8553 C   0  0  0  0  0  0  0  0  0  0  0  0
    7.4594  -15.5480   26.8258 O   0  0  0  0  0  0  0  0  0  0  0  0
   11.8982  -16.5792   27.0391 O   0  0  0  0  0  0  0  0  0  0  0  0
   10.7872  -17.3683   27.3135 C   0  0  0  0  0  0  0  0  0  0  0  0
    9.8006  -16.4965   28.0781 C   0  0  2  0  0  0  0  0  0  0  0  0
    9.6269  -15.2142   27.4731 N   0  0  0  0  0  0  0  0  0  0  0  0
   10.3499  -16.3117   29.4416 C   0  0  0  0  0  0  0  0  0  0  0  0
   10.5452  -15.1384   29.8465 O   0  0  0  0  0  0  0  0  0  0  0  0
   10.6494  -17.3940   30.2708 O   0  0  0  0  0  0  0  0  0  0  0  0
  1  2  1  0
  3  2  1  0
  4  5  1  0
  4  3  1  0
  5  1  1  0
  6  8  1  0
  5  6  1  1
  7  6  2  0
  8 12  1  0
  9 10  1  0
  9  8  1  0
 10 11  1  0
 11 12  1  0
 12 13  1  1
 13 14  2  0
 13 18  1  0
 15 16  1  0
 17 19  1  0
 17 16  1  6
 18 17  1  0
 19 21  1  0
 20 19  2  0
M  END
$$$$
