PPS.pdb
     RDKit          3D

 21 22  0  0  1  0  0  0  0  0999 V2000
    8.5672  -14.1193   21.2327 N   0  0  0  0  0  0  0  0  0  0  0  0
    8.0675  -15.2282   20.4626 C   0  0  0  0  0  0  0  0  0  0  0  0
    6.5913  -15.1801   20.6776 C   0  0  0  0  0  0  0  0  0  0  0  0
    6.5218  -14.8055   22.1609 C   0  0  0  0  0  0  0  0  0  0  0  0
    7.7075  -13.8771   22.3428 C   0  0  1  0  0  0  0  0  0  0  0  0
    8.3079  -14.0753   23.6674 C   0  0  0  0  0  0  0  0  0  0  0  0
    9.4188  -14.7056   23.7518 O   0  0  0  0  0  0  0  0  0  0  0  0
    7.7504  -13.6185   24.8906 N   0  0  0  0  0  0  0  0  0  0  0  0
    6.4888  -12.9213   24.9711 C   0  0  0  0  0  0  0  0  0  0  0  0
    6.1960  -12.6665   26.4324 C   0  0  0  0  0  0  0  0  0  0  0  0
    7.5503  -12.8806   27.1203 C   0  0  0  0  0  0  0  0  0  0  0  0
    8.3274  -13.7707   26.2171 C   0  0  1  0  0  0  0  0  0  0  0  0
    8.3748  -15.1838   26.6360 C   0  0  0  0  0  0  0  0  0  0  0  0
    7.3267  -15.8669   26.5043 O   0  0  0  0  0  0  0  0  0  0  0  0
   11.7056  -17.2932   26.5327 O   0  0  0  0  0  0  0  0  0  0  0  0
   10.5032  -17.9866   26.6081 C   0  0  0  0  0  0  0  0  0  0  0  0
    9.5908  -17.1948   27.5348 C   0  0  2  0  0  0  0  0  0  0  0  0
    9.5131  -15.8154   27.1717 N   0  0  0  0  0  0  0  0  0  0  0  0
   10.1602  -17.2992   28.8985 C   0  0  0  0  0  0  0  0  0  0  0  0
   10.3931  -16.2353   29.5252 O   0  0  0  0  0  0  0  0  0  0  0  0
   10.4380  -18.5321   29.4911 O   0  0  0  0  0  0  0  0  0  0  0  0
  1  2  1  0
  3  2  1  0
  4  5  1  0
  4  3  1  0
  5  1  1  0
  6  8  1  0
  5  6  1  1
  7  6  2  0
  8 12  1  0
  9 10  1  0
  9  8  1  0
 10 11  1  0
 11 12  1  0
 12 13  1  1
 13 14  2  0
 13 18  1  0
 15 16  1  0
 17 19  1  0
 17 16  1  6
 18 17  1  0
 19 21  1  0
 20 19  2  0
M  END
$$$$
