PPS.pdb
     RDKit          3D

 21 22  0  0  1  0  0  0  0  0999 V2000
    8.4022  -16.6814   18.6595 N   0  0  0  0  0  0  0  0  0  0  0  0
    7.7976  -17.9588   18.3853 C   0  0  0  0  0  0  0  0  0  0  0  0
    6.4445  -17.8579   19.0072 C   0  0  0  0  0  0  0  0  0  0  0  0
    6.7685  -17.0954   20.2952 C   0  0  0  0  0  0  0  0  0  0  0  0
    7.8762  -16.1495   19.8721 C   0  0  1  0  0  0  0  0  0  0  0  0
    8.8423  -15.9798   20.9640 C   0  0  0  0  0  0  0  0  0  0  0  0
   10.0126  -16.4818   20.8343 O   0  0  0  0  0  0  0  0  0  0  0  0
    8.5851  -15.2918   22.1790 N   0  0  0  0  0  0  0  0  0  0  0  0
    7.3102  -14.6904   22.4906 C   0  0  0  0  0  0  0  0  0  0  0  0
    7.3983  -14.1229   23.8893 C   0  0  0  0  0  0  0  0  0  0  0  0
    8.9058  -14.0692   24.1685 C   0  0  0  0  0  0  0  0  0  0  0  0
    9.5202  -15.0860   23.2739 C   0  0  1  0  0  0  0  0  0  0  0  0
    9.8772  -16.3542   23.9363 C   0  0  0  0  0  0  0  0  0  0  0  0
    8.9551  -17.1849   24.1416 O   0  0  0  0  0  0  0  0  0  0  0  0
   13.7936  -17.4721   24.2561 O   0  0  0  0  0  0  0  0  0  0  0  0
   12.8441  -18.4805   24.1380 C   0  0  0  0  0  0  0  0  0  0  0  0
   11.5787  -17.9821   24.8224 C   0  0  2  0  0  0  0  0  0  0  0  0
   11.1785  -16.6940   24.3521 N   0  0  0  0  0  0  0  0  0  0  0  0
   11.8751  -17.8915   26.2712 C   0  0  0  0  0  0  0  0  0  0  0  0
   11.7421  -16.7756   26.8334 O   0  0  0  0  0  0  0  0  0  0  0  0
   12.2913  -18.9994   27.0112 O   0  0  0  0  0  0  0  0  0  0  0  0
  1  2  1  0
  3  2  1  0
  4  5  1  0
  4  3  1  0
  5  1  1  0
  6  8  1  0
  5  6  1  1
  7  6  2  0
  8 12  1  0
  9 10  1  0
  9  8  1  0
 10 11  1  0
 11 12  1  0
 12 13  1  1
 13 14  2  0
 13 18  1  0
 15 16  1  0
 17 19  1  0
 17 16  1  6
 18 17  1  0
 19 21  1  0
 20 19  2  0
M  END
$$$$
