PPS.pdb
     RDKit          3D

 21 22  0  0  1  0  0  0  0  0999 V2000
    8.5028  -14.2763   21.2781 N   0  0  0  0  0  0  0  0  0  0  0  0
    7.9872  -15.4297   20.5879 C   0  0  0  0  0  0  0  0  0  0  0  0
    6.5246  -15.4029   20.8844 C   0  0  0  0  0  0  0  0  0  0  0  0
    6.5294  -14.9623   22.3510 C   0  0  0  0  0  0  0  0  0  0  0  0
    7.7011  -14.0017   22.4235 C   0  0  1  0  0  0  0  0  0  0  0  0
    8.3792  -14.1262   23.7192 C   0  0  0  0  0  0  0  0  0  0  0  0
    9.5254  -14.6946   23.7622 O   0  0  0  0  0  0  0  0  0  0  0  0
    7.8622  -13.6607   24.9568 N   0  0  0  0  0  0  0  0  0  0  0  0
    6.5455  -13.0853   25.0954 C   0  0  0  0  0  0  0  0  0  0  0  0
    6.3273  -12.7821   26.5605 C   0  0  0  0  0  0  0  0  0  0  0  0
    7.7394  -12.8274   27.1583 C   0  0  0  0  0  0  0  0  0  0  0  0
    8.5393  -13.6853   26.2439 C   0  0  1  0  0  0  0  0  0  0  0  0
    8.7558  -15.0628   26.7236 C   0  0  0  0  0  0  0  0  0  0  0  0
    7.8011  -15.8748   26.6165 O   0  0  0  0  0  0  0  0  0  0  0  0
   11.7311  -18.6824   27.4430 O   0  0  0  0  0  0  0  0  0  0  0  0
   11.5407  -17.3765   27.0063 C   0  0  0  0  0  0  0  0  0  0  0  0
   10.2371  -16.8873   27.6223 C   0  0  2  0  0  0  0  0  0  0  0  0
    9.9577  -15.5260   27.2918 N   0  0  0  0  0  0  0  0  0  0  0  0
   10.3809  -17.0028   29.0923 C   0  0  0  0  0  0  0  0  0  0  0  0
   10.3446  -15.9485   29.7747 O   0  0  0  0  0  0  0  0  0  0  0  0
   10.5524  -18.2360   29.7235 O   0  0  0  0  0  0  0  0  0  0  0  0
  1  2  1  0
  3  2  1  0
  4  5  1  0
  4  3  1  0
  5  1  1  0
  6  8  1  0
  5  6  1  1
  7  6  2  0
  8 12  1  0
  9 10  1  0
  9  8  1  0
 10 11  1  0
 11 12  1  0
 12 13  1  1
 13 14  2  0
 13 18  1  0
 15 16  1  0
 17 19  1  0
 17 16  1  6
 18 17  1  0
 19 21  1  0
 20 19  2  0
M  END
$$$$
