PPS.pdb
     RDKit          3D

 21 22  0  0  1  0  0  0  0  0999 V2000
    9.4909  -15.3700   15.2290 N   0  0  0  0  0  0  0  0  0  0  0  0
    9.1613  -16.6842   14.7421 C   0  0  0  0  0  0  0  0  0  0  0  0
    7.7010  -16.8159   15.0212 C   0  0  0  0  0  0  0  0  0  0  0  0
    7.6008  -16.1395   16.3915 C   0  0  0  0  0  0  0  0  0  0  0  0
    8.6250  -15.0238   16.3062 C   0  0  1  0  0  0  0  0  0  0  0  0
    9.2749  -14.8318   17.6081 C   0  0  0  0  0  0  0  0  0  0  0  0
   10.4632  -15.2775   17.7748 O   0  0  0  0  0  0  0  0  0  0  0  0
    8.6862  -14.1802   18.7237 N   0  0  0  0  0  0  0  0  0  0  0  0
    7.3242  -13.7016   18.7296 C   0  0  0  0  0  0  0  0  0  0  0  0
    7.0397  -13.1394   20.1041 C   0  0  0  0  0  0  0  0  0  0  0  0
    8.4327  -12.9490   20.7177 C   0  0  0  0  0  0  0  0  0  0  0  0
    9.3250  -13.8976   19.9995 C   0  0  1  0  0  0  0  0  0  0  0  0
    9.6368  -15.1327   20.7425 C   0  0  0  0  0  0  0  0  0  0  0  0
    8.8210  -16.0865   20.6574 O   0  0  0  0  0  0  0  0  0  0  0  0
   13.2661  -16.2882   21.1614 O   0  0  0  0  0  0  0  0  0  0  0  0
   12.6694  -16.6443   22.3654 C   0  0  0  0  0  0  0  0  0  0  0  0
   11.1640  -16.5393   22.1636 C   0  0  2  0  0  0  0  0  0  0  0  0
   10.7843  -15.3126   21.5378 N   0  0  0  0  0  0  0  0  0  0  0  0
   10.5400  -16.6048   23.5058 C   0  0  0  0  0  0  0  0  0  0  0  0
    9.9081  -15.5984   23.9139 O   0  0  0  0  0  0  0  0  0  0  0  0
   10.6375  -17.7404   24.3116 O   0  0  0  0  0  0  0  0  0  0  0  0
  1  2  1  0
  3  2  1  0
  4  5  1  0
  4  3  1  0
  5  1  1  0
  6  8  1  0
  5  6  1  1
  7  6  2  0
  8 12  1  0
  9 10  1  0
  9  8  1  0
 10 11  1  0
 11 12  1  0
 12 13  1  1
 13 14  2  0
 13 18  1  0
 15 16  1  0
 17 19  1  0
 17 16  1  1
 18 17  1  0
 19 21  1  0
 20 19  2  0
M  END
$$$$
