PPS.pdb
     RDKit          3D

 21 22  0  0  1  0  0  0  0  0999 V2000
    8.6158  -14.2389   21.3318 N   0  0  0  0  0  0  0  0  0  0  0  0
    8.0617  -15.3483   20.6006 C   0  0  0  0  0  0  0  0  0  0  0  0
    6.5913  -15.2320   20.8293 C   0  0  0  0  0  0  0  0  0  0  0  0
    6.5545  -14.8110   22.3012 C   0  0  0  0  0  0  0  0  0  0  0  0
    7.7798  -13.9280   22.4429 C   0  0  1  0  0  0  0  0  0  0  0  0
    8.3867  -14.1118   23.7666 C   0  0  0  0  0  0  0  0  0  0  0  0
    9.4912  -14.7529   23.8539 O   0  0  0  0  0  0  0  0  0  0  0  0
    7.8423  -13.6295   24.9859 N   0  0  0  0  0  0  0  0  0  0  0  0
    6.5636  -12.9647   25.0707 C   0  0  0  0  0  0  0  0  0  0  0  0
    6.2943  -12.6689   26.5289 C   0  0  0  0  0  0  0  0  0  0  0  0
    7.6682  -12.8226   27.1937 C   0  0  0  0  0  0  0  0  0  0  0  0
    8.4510  -13.7210   26.3037 C   0  0  1  0  0  0  0  0  0  0  0  0
    8.5467  -15.1174   26.7681 C   0  0  0  0  0  0  0  0  0  0  0  0
    7.5167  -15.8339   26.6788 O   0  0  0  0  0  0  0  0  0  0  0  0
   11.9720  -17.0223   26.8110 O   0  0  0  0  0  0  0  0  0  0  0  0
   10.8550  -17.8383   26.9478 C   0  0  0  0  0  0  0  0  0  0  0  0
    9.8248  -17.0514   27.7462 C   0  0  2  0  0  0  0  0  0  0  0  0
    9.7123  -15.6981   27.3028 N   0  0  0  0  0  0  0  0  0  0  0  0
   10.2731  -17.0563   29.1583 C   0  0  0  0  0  0  0  0  0  0  0  0
   10.4347  -15.9498   29.7314 O   0  0  0  0  0  0  0  0  0  0  0  0
   10.5153  -18.2427   29.8528 O   0  0  0  0  0  0  0  0  0  0  0  0
  1  2  1  0
  3  2  1  0
  4  5  1  0
  4  3  1  0
  5  1  1  0
  6  8  1  0
  5  6  1  1
  7  6  2  0
  8 12  1  0
  9 10  1  0
  9  8  1  0
 10 11  1  0
 11 12  1  0
 12 13  1  1
 13 14  2  0
 13 18  1  0
 15 16  1  0
 17 19  1  0
 17 16  1  6
 18 17  1  0
 19 21  1  0
 20 19  2  0
M  END
$$$$
