WWF.pdb
     RDKit          3D

 40 44  0  0  1  0  0  0  0  0999 V2000
    8.6984  -16.3736   19.9119 N   0  0  0  0  0  0  0  0  0  0  0  0
    9.4490  -15.2038   20.3191 C   0  0  1  0  0  0  0  0  0  0  0  0
    8.8418  -13.9118   19.8394 C   0  0  0  0  0  0  0  0  0  0  0  0
    8.5891  -14.0227   18.3752 C   0  0  0  0  0  0  0  0  0  0  0  0
    7.3998  -13.7471   17.7142 C   0  0  0  0  0  0  0  0  0  0  0  0
    7.5684  -13.9642   16.4012 N   0  0  0  0  0  0  0  0  0  0  0  0
    8.8413  -14.3811   16.1436 C   0  0  0  0  0  0  0  0  0  0  0  0
    9.4960  -14.7258   14.9839 C   0  0  0  0  0  0  0  0  0  0  0  0
   10.8106  -15.1157   15.0393 C   0  0  0  0  0  0  0  0  0  0  0  0
   11.4274  -15.1445   16.2827 C   0  0  0  0  0  0  0  0  0  0  0  0
   10.7902  -14.8046   17.4471 C   0  0  0  0  0  0  0  0  0  0  0  0
    9.4628  -14.4121   17.3818 C   0  0  0  0  0  0  0  0  0  0  0  0
    9.4911  -15.2064   21.8250 C   0  0  0  0  0  0  0  0  0  0  0  0
    9.9514  -14.2093   22.4692 O   0  0  0  0  0  0  0  0  0  0  0  0
    9.0170  -16.3225   22.5632 N   0  0  0  0  0  0  0  0  0  0  0  0
    9.0107  -16.3624   24.0309 C   0  0  1  0  0  0  0  0  0  0  0  0
    7.6846  -16.8753   24.4515 C   0  0  0  0  0  0  0  0  0  0  0  0
    6.7482  -15.9307   25.0347 C   0  0  0  0  0  0  0  0  0  0  0  0
    5.4429  -16.1403   25.3807 C   0  0  0  0  0  0  0  0  0  0  0  0
    4.9305  -14.9997   25.8680 N   0  0  0  0  0  0  0  0  0  0  0  0
    5.8741  -14.0341   25.8518 C   0  0  0  0  0  0  0  0  0  0  0  0
    5.9142  -12.7113   26.2209 C   0  0  0  0  0  0  0  0  0  0  0  0
    7.0375  -11.9329   26.0966 C   0  0  0  0  0  0  0  0  0  0  0  0
    8.1849  -12.4969   25.5781 C   0  0  0  0  0  0  0  0  0  0  0  0
    8.1627  -13.8215   25.2024 C   0  0  0  0  0  0  0  0  0  0  0  0
    7.0210  -14.6076   25.3301 C   0  0  0  0  0  0  0  0  0  0  0  0
   10.1934  -17.0488   24.5430 C   0  0  0  0  0  0  0  0  0  0  0  0
   10.8142  -17.8640   23.7708 O   0  0  0  0  0  0  0  0  0  0  0  0
   10.7604  -16.9202   25.8285 N   0  0  0  0  0  0  0  0  0  0  0  0
   11.8789  -17.7366   26.2966 C   0  0  1  0  0  0  0  0  0  0  0  0
   12.5336  -17.1252   27.4935 C   0  0  0  0  0  0  0  0  0  0  0  0
   11.9326  -15.8364   27.8827 C   0  0  0  0  0  0  0  0  0  0  0  0
   11.1233  -15.6487   28.9822 C   0  0  0  0  0  0  0  0  0  0  0  0
   10.5789  -14.4219   29.3181 C   0  0  0  0  0  0  0  0  0  0  0  0
   10.8388  -13.3172   28.5371 C   0  0  0  0  0  0  0  0  0  0  0  0
   11.6519  -13.4797   27.4229 C   0  0  0  0  0  0  0  0  0  0  0  0
   12.1804  -14.7151   27.1135 C   0  0  0  0  0  0  0  0  0  0  0  0
   11.4871  -19.1240   26.5423 C   0  0  0  0  0  0  0  0  0  0  0  0
   12.3354  -20.1336   26.9063 O   0  0  0  0  0  0  0  0  0  0  0  0
   10.2496  -19.4128   26.4016 O   0  0  0  0  0  0  0  0  0  0  0  0
  2  3  1  0
  2  1  1  1
  4  3  1  0
  4  5  2  0
  6  5  1  0
  7  6  1  0
  8  7  2  0
  9  8  1  0
 10  9  2  0
 10 11  1  0
 11 12  2  0
 12  7  1  0
 12  4  1  0
 13  2  1  0
 14 13  2  0
 15 13  1  0
 16 27  1  0
 16 15  1  0
 16 17  1  6
 18 17  1  0
 18 26  1  0
 19 20  1  0
 19 18  2  0
 20 21  1  0
 21 26  2  0
 21 22  1  0
 22 23  2  0
 23 24  1  0
 25 24  2  0
 26 25  1  0
 27 28  2  0
 29 27  1  0
 30 29  1  0
 30 31  1  1
 32 31  1  0
 33 32  2  0
 34 33  1  0
 35 34  2  0
 35 36  1  0
 36 37  2  0
 37 32  1  0
 38 30  1  0
 39 38  1  0
 40 38  2  0
M  END
$$$$
