WWF.pdb
     RDKit          3D

 40 44  0  0  1  0  0  0  0  0999 V2000
    8.9314  -16.4804   19.3324 N   0  0  0  0  0  0  0  0  0  0  0  0
    9.8771  -15.4637   19.7438 C   0  0  1  0  0  0  0  0  0  0  0  0
    9.5989  -14.1134   19.1375 C   0  0  0  0  0  0  0  0  0  0  0  0
   10.3184  -14.0221   17.8360 C   0  0  0  0  0  0  0  0  0  0  0  0
    9.7519  -13.8079   16.5867 C   0  0  0  0  0  0  0  0  0  0  0  0
   10.7243  -13.7874   15.6629 N   0  0  0  0  0  0  0  0  0  0  0  0
   11.9427  -13.9815   16.2446 C   0  0  0  0  0  0  0  0  0  0  0  0
   13.2208  -14.0444   15.7399 C   0  0  0  0  0  0  0  0  0  0  0  0
   14.2752  -14.2565   16.5922 C   0  0  0  0  0  0  0  0  0  0  0  0
   13.9979  -14.3998   17.9450 C   0  0  0  0  0  0  0  0  0  0  0  0
   12.7312  -14.3401   18.4641 C   0  0  0  0  0  0  0  0  0  0  0  0
   11.6725  -14.1256   17.5962 C   0  0  0  0  0  0  0  0  0  0  0  0
    9.7946  -15.3631   21.2447 C   0  0  0  0  0  0  0  0  0  0  0  0
   10.3484  -14.4010   21.8683 O   0  0  0  0  0  0  0  0  0  0  0  0
    9.0954  -16.3401   22.0011 N   0  0  0  0  0  0  0  0  0  0  0  0
    8.8364  -16.1988   23.4394 C   0  0  1  0  0  0  0  0  0  0  0  0
    7.3815  -16.3967   23.6460 C   0  0  0  0  0  0  0  0  0  0  0  0
    6.7749  -15.7836   24.8144 C   0  0  0  0  0  0  0  0  0  0  0  0
    6.0724  -16.3901   25.8175 C   0  0  0  0  0  0  0  0  0  0  0  0
    5.6683  -15.4583   26.6946 N   0  0  0  0  0  0  0  0  0  0  0  0
    6.0906  -14.2409   26.2913 C   0  0  0  0  0  0  0  0  0  0  0  0
    5.9749  -12.9629   26.7819 C   0  0  0  0  0  0  0  0  0  0  0  0
    6.5176  -11.8686   26.1565 C   0  0  0  0  0  0  0  0  0  0  0  0
    7.2140  -12.0512   24.9795 C   0  0  0  0  0  0  0  0  0  0  0  0
    7.3396  -13.3255   24.4728 C   0  0  0  0  0  0  0  0  0  0  0  0
    6.7874  -14.4329   25.1105 C   0  0  0  0  0  0  0  0  0  0  0  0
    9.7483  -17.0287   24.2216 C   0  0  0  0  0  0  0  0  0  0  0  0
   10.0256  -18.2071   23.7965 O   0  0  0  0  0  0  0  0  0  0  0  0
   10.3878  -16.6815   25.4303 N   0  0  0  0  0  0  0  0  0  0  0  0
   11.4367  -17.4936   26.0442 C   0  0  1  0  0  0  0  0  0  0  0  0
   12.1971  -16.7140   27.0684 C   0  0  0  0  0  0  0  0  0  0  0  0
   11.3452  -15.7866   27.8351 C   0  0  0  0  0  0  0  0  0  0  0  0
   10.8163  -14.6151   27.3383 C   0  0  0  0  0  0  0  0  0  0  0  0
   10.0174  -13.7700   28.0879 C   0  0  0  0  0  0  0  0  0  0  0  0
    9.7186  -14.0861   29.3951 C   0  0  0  0  0  0  0  0  0  0  0  0
   10.2397  -15.2617   29.9199 C   0  0  0  0  0  0  0  0  0  0  0  0
   11.0329  -16.0843   29.1482 C   0  0  0  0  0  0  0  0  0  0  0  0
   10.9181  -18.7467   26.5914 C   0  0  0  0  0  0  0  0  0  0  0  0
    9.5950  -19.0801   26.6898 O   0  0  0  0  0  0  0  0  0  0  0  0
   11.7754  -19.5961   27.0136 O   0  0  0  0  0  0  0  0  0  0  0  0
  2  3  1  0
  2  1  1  6
  4  3  1  0
  4  5  2  0
  6  5  1  0
  7  6  1  0
  8  7  2  0
  9  8  1  0
 10  9  2  0
 10 11  1  0
 11 12  2  0
 12  7  1  0
 12  4  1  0
 13  2  1  0
 14 13  2  0
 15 13  1  0
 16 27  1  0
 16 15  1  0
 16 17  1  6
 18 17  1  0
 18 26  1  0
 19 20  1  0
 19 18  2  0
 20 21  1  0
 21 26  2  0
 21 22  1  0
 22 23  2  0
 23 24  1  0
 25 24  2  0
 26 25  1  0
 27 28  2  0
 29 27  1  0
 30 29  1  0
 30 31  1  1
 32 31  1  0
 33 32  2  0
 34 33  1  0
 35 34  2  0
 35 36  1  0
 36 37  2  0
 37 32  1  0
 38 30  1  0
 39 38  1  0
 40 38  2  0
M  END
$$$$
