WWF.pdb
     RDKit          3D

 40 44  0  0  1  0  0  0  0  0999 V2000
    8.5847  -19.2953   21.7715 N   0  0  0  0  0  0  0  0  0  0  0  0
    9.2401  -18.8499   22.9837 C   0  0  1  0  0  0  0  0  0  0  0  0
    9.9872  -19.9485   23.6931 C   0  0  0  0  0  0  0  0  0  0  0  0
    9.0068  -20.7711   24.4559 C   0  0  0  0  0  0  0  0  0  0  0  0
    8.3928  -21.9406   24.0284 C   0  0  0  0  0  0  0  0  0  0  0  0
    7.5782  -22.3864   24.9964 N   0  0  0  0  0  0  0  0  0  0  0  0
    7.6168  -21.5544   26.0766 C   0  0  0  0  0  0  0  0  0  0  0  0
    6.9780  -21.5730   27.2948 C   0  0  0  0  0  0  0  0  0  0  0  0
    7.2239  -20.5741   28.2030 C   0  0  0  0  0  0  0  0  0  0  0  0
    8.1198  -19.5761   27.8439 C   0  0  0  0  0  0  0  0  0  0  0  0
    8.7642  -19.5425   26.6352 C   0  0  0  0  0  0  0  0  0  0  0  0
    8.5099  -20.5552   25.7242 C   0  0  0  0  0  0  0  0  0  0  0  0
   10.2061  -17.7625   22.5913 C   0  0  0  0  0  0  0  0  0  0  0  0
   11.4521  -18.0007   22.4834 O   0  0  0  0  0  0  0  0  0  0  0  0
    9.7491  -16.4438   22.3312 N   0  0  0  0  0  0  0  0  0  0  0  0
    9.3935  -15.4991   23.3974 C   0  0  1  0  0  0  0  0  0  0  0  0
    7.9227  -15.3171   23.3516 C   0  0  0  0  0  0  0  0  0  0  0  0
    7.3113  -15.0756   22.0565 C   0  0  0  0  0  0  0  0  0  0  0  0
    6.2718  -15.7459   21.4755 C   0  0  0  0  0  0  0  0  0  0  0  0
    6.0310  -15.2169   20.2659 N   0  0  0  0  0  0  0  0  0  0  0  0
    6.8939  -14.2049   20.0325 C   0  0  0  0  0  0  0  0  0  0  0  0
    7.1050  -13.3307   18.9938 C   0  0  0  0  0  0  0  0  0  0  0  0
    8.0801  -12.3654   19.0139 C   0  0  0  0  0  0  0  0  0  0  0  0
    8.8910  -12.2605   20.1252 C   0  0  0  0  0  0  0  0  0  0  0  0
    8.6940  -13.1289   21.1756 C   0  0  0  0  0  0  0  0  0  0  0  0
    7.7036  -14.1068   21.1512 C   0  0  0  0  0  0  0  0  0  0  0  0
    9.9850  -15.8979   24.6716 C   0  0  0  0  0  0  0  0  0  0  0  0
   11.1482  -16.4392   24.6672 O   0  0  0  0  0  0  0  0  0  0  0  0
    9.4156  -15.7543   25.9544 N   0  0  0  0  0  0  0  0  0  0  0  0
   10.1928  -15.4030   27.1415 C   0  0  1  0  0  0  0  0  0  0  0  0
    9.4231  -14.4935   28.0445 C   0  0  0  0  0  0  0  0  0  0  0  0
    8.6678  -13.4601   27.3129 C   0  0  0  0  0  0  0  0  0  0  0  0
    9.1801  -12.2407   26.9260 C   0  0  0  0  0  0  0  0  0  0  0  0
    8.4408  -11.2957   26.2371 C   0  0  0  0  0  0  0  0  0  0  0  0
    7.1286  -11.5555   25.9079 C   0  0  0  0  0  0  0  0  0  0  0  0
    6.5882  -12.7776   26.2866 C   0  0  0  0  0  0  0  0  0  0  0  0
    7.3499  -13.6999   26.9724 C   0  0  0  0  0  0  0  0  0  0  0  0
   10.6840  -16.5835   27.8513 C   0  0  0  0  0  0  0  0  0  0  0  0
   10.4556  -17.8809   27.4826 O   0  0  0  0  0  0  0  0  0  0  0  0
   11.3815  -16.3813   28.9036 O   0  0  0  0  0  0  0  0  0  0  0  0
  2  3  1  0
  2  1  1  6
  4  3  1  0
  4  5  2  0
  6  5  1  0
  7  6  1  0
  8  7  2  0
  9  8  1  0
 10  9  2  0
 10 11  1  0
 11 12  2  0
 12  7  1  0
 12  4  1  0
 13  2  1  0
 14 13  2  0
 15 13  1  0
 16 27  1  0
 16 15  1  0
 16 17  1  1
 18 17  1  0
 18 26  1  0
 19 20  1  0
 19 18  2  0
 20 21  1  0
 21 26  2  0
 21 22  1  0
 22 23  2  0
 23 24  1  0
 25 24  2  0
 26 25  1  0
 27 28  2  0
 29 27  1  0
 30 29  1  0
 30 31  1  1
 32 31  1  0
 33 32  2  0
 34 33  1  0
 35 34  2  0
 35 36  1  0
 36 37  2  0
 37 32  1  0
 38 30  1  0
 39 38  1  0
 40 38  2  0
M  END
$$$$
