WWF.pdb
     RDKit          3D

 40 44  0  0  1  0  0  0  0  0999 V2000
    9.0745  -16.2680   19.9542 N   0  0  0  0  0  0  0  0  0  0  0  0
    9.8902  -15.1524   20.3872 C   0  0  1  0  0  0  0  0  0  0  0  0
    9.4253  -13.8288   19.8393 C   0  0  0  0  0  0  0  0  0  0  0  0
    9.4684  -13.8915   18.3513 C   0  0  0  0  0  0  0  0  0  0  0  0
    8.3975  -13.7340   17.4818 C   0  0  0  0  0  0  0  0  0  0  0  0
    8.8365  -13.8563   16.2201 N   0  0  0  0  0  0  0  0  0  0  0  0
   10.1797  -14.0934   16.2006 C   0  0  0  0  0  0  0  0  0  0  0  0
   11.0802  -14.2886   15.1792 C   0  0  0  0  0  0  0  0  0  0  0  0
   12.4016  -14.5105   15.4754 C   0  0  0  0  0  0  0  0  0  0  0  0
   12.7731  -14.5279   16.8129 C   0  0  0  0  0  0  0  0  0  0  0  0
   11.8893  -14.3355   17.8422 C   0  0  0  0  0  0  0  0  0  0  0  0
   10.5569  -14.1121   17.5338 C   0  0  0  0  0  0  0  0  0  0  0  0
    9.8307  -15.1178   21.8922 C   0  0  0  0  0  0  0  0  0  0  0  0
   10.3355  -14.1487   22.5457 O   0  0  0  0  0  0  0  0  0  0  0  0
    9.2087  -16.1667   22.6191 N   0  0  0  0  0  0  0  0  0  0  0  0
    9.1520  -16.1948   24.0859 C   0  0  1  0  0  0  0  0  0  0  0  0
    7.8115  -16.7029   24.4648 C   0  0  0  0  0  0  0  0  0  0  0  0
    6.8489  -15.7483   24.9855 C   0  0  0  0  0  0  0  0  0  0  0  0
    5.5320  -15.9557   25.2859 C   0  0  0  0  0  0  0  0  0  0  0  0
    4.9959  -14.8054   25.7222 N   0  0  0  0  0  0  0  0  0  0  0  0
    5.9352  -13.8354   25.7170 C   0  0  0  0  0  0  0  0  0  0  0  0
    5.9550  -12.5031   26.0519 C   0  0  0  0  0  0  0  0  0  0  0  0
    7.0789  -11.7222   25.9507 C   0  0  0  0  0  0  0  0  0  0  0  0
    8.2481  -12.2935   25.4925 C   0  0  0  0  0  0  0  0  0  0  0  0
    8.2465  -13.6278   25.1518 C   0  0  0  0  0  0  0  0  0  0  0  0
    7.1041  -14.4164   25.2559 C   0  0  0  0  0  0  0  0  0  0  0  0
   10.3155  -16.8783   24.6439 C   0  0  0  0  0  0  0  0  0  0  0  0
   10.9953  -17.6563   23.8832 O   0  0  0  0  0  0  0  0  0  0  0  0
   10.8040  -16.7838   25.9640 N   0  0  0  0  0  0  0  0  0  0  0  0
   11.9348  -17.5674   26.4582 C   0  0  1  0  0  0  0  0  0  0  0  0
   12.5898  -16.8992   27.6241 C   0  0  0  0  0  0  0  0  0  0  0  0
   11.8229  -15.7474   28.1330 C   0  0  0  0  0  0  0  0  0  0  0  0
   11.6942  -14.5407   27.4799 C   0  0  0  0  0  0  0  0  0  0  0  0
   10.9628  -13.4819   27.9877 C   0  0  0  0  0  0  0  0  0  0  0  0
   10.3217  -13.6079   29.2006 C   0  0  0  0  0  0  0  0  0  0  0  0
   10.4358  -14.8143   29.8792 C   0  0  0  0  0  0  0  0  0  0  0  0
   11.1718  -15.8521   29.3476 C   0  0  0  0  0  0  0  0  0  0  0  0
   11.5606  -18.9476   26.7640 C   0  0  0  0  0  0  0  0  0  0  0  0
   12.4240  -19.9335   27.1567 O   0  0  0  0  0  0  0  0  0  0  0  0
   10.3244  -19.2539   26.6513 O   0  0  0  0  0  0  0  0  0  0  0  0
  2  3  1  0
  2  1  1  6
  4  3  1  0
  4  5  2  0
  6  5  1  0
  7  6  1  0
  8  7  2  0
  9  8  1  0
 10  9  2  0
 10 11  1  0
 11 12  2  0
 12  7  1  0
 12  4  1  0
 13  2  1  0
 14 13  2  0
 15 13  1  0
 16 27  1  0
 16 15  1  0
 16 17  1  6
 18 17  1  0
 18 26  1  0
 19 20  1  0
 19 18  2  0
 20 21  1  0
 21 26  2  0
 21 22  1  0
 22 23  2  0
 23 24  1  0
 25 24  2  0
 26 25  1  0
 27 28  2  0
 29 27  1  0
 30 29  1  0
 30 31  1  1
 32 31  1  0
 33 32  2  0
 34 33  1  0
 35 34  2  0
 35 36  1  0
 36 37  2  0
 37 32  1  0
 38 30  1  0
 39 38  1  0
 40 38  2  0
M  END
$$$$
