WWF.pdb
     RDKit          3D

 40 44  0  0  1  0  0  0  0  0999 V2000
    9.2265  -19.3957   18.8905 N   0  0  0  0  0  0  0  0  0  0  0  0
    9.3475  -19.7942   20.2776 C   0  0  1  0  0  0  0  0  0  0  0  0
   10.4629  -20.7773   20.5180 C   0  0  0  0  0  0  0  0  0  0  0  0
   10.1395  -22.0438   19.8030 C   0  0  0  0  0  0  0  0  0  0  0  0
    9.0678  -22.8896   20.0548 C   0  0  0  0  0  0  0  0  0  0  0  0
    9.1163  -23.9235   19.2014 N   0  0  0  0  0  0  0  0  0  0  0  0
   10.1924  -23.8097   18.3709 C   0  0  0  0  0  0  0  0  0  0  0  0
   10.6705  -24.5939   17.3468 C   0  0  0  0  0  0  0  0  0  0  0  0
   11.8053  -24.2127   16.6759 C   0  0  0  0  0  0  0  0  0  0  0  0
   12.4271  -23.0353   17.0686 C   0  0  0  0  0  0  0  0  0  0  0  0
   11.9645  -22.2429   18.0863 C   0  0  0  0  0  0  0  0  0  0  0  0
   10.8179  -22.6354   18.7582 C   0  0  0  0  0  0  0  0  0  0  0  0
    9.6040  -18.5434   21.0772 C   0  0  0  0  0  0  0  0  0  0  0  0
   10.5739  -17.7700   20.7907 O   0  0  0  0  0  0  0  0  0  0  0  0
    8.7682  -18.1963   22.1711 N   0  0  0  0  0  0  0  0  0  0  0  0
    8.9856  -16.9977   22.9907 C   0  0  1  0  0  0  0  0  0  0  0  0
    7.6699  -16.3350   23.1587 C   0  0  0  0  0  0  0  0  0  0  0  0
    7.6613  -14.9503   23.5967 C   0  0  0  0  0  0  0  0  0  0  0  0
    8.2171  -13.8657   22.9784 C   0  0  0  0  0  0  0  0  0  0  0  0
    7.9980  -12.7743   23.7279 N   0  0  0  0  0  0  0  0  0  0  0  0
    7.3051  -13.1152   24.8355 C   0  0  0  0  0  0  0  0  0  0  0  0
    6.8162  -12.4312   25.9222 C   0  0  0  0  0  0  0  0  0  0  0  0
    6.1228  -13.0382   26.9390 C   0  0  0  0  0  0  0  0  0  0  0  0
    5.9013  -14.3984   26.8752 C   0  0  0  0  0  0  0  0  0  0  0  0
    6.3847  -15.1002   25.7934 C   0  0  0  0  0  0  0  0  0  0  0  0
    7.0877  -14.4805   24.7640 C   0  0  0  0  0  0  0  0  0  0  0  0
    9.7397  -17.3174   24.1996 C   0  0  0  0  0  0  0  0  0  0  0  0
    9.4162  -18.3639   24.8677 O   0  0  0  0  0  0  0  0  0  0  0  0
   10.8214  -16.5925   24.7427 N   0  0  0  0  0  0  0  0  0  0  0  0
   11.5607  -17.0237   25.9277 C   0  0  1  0  0  0  0  0  0  0  0  0
   12.1452  -15.8569   26.6570 C   0  0  0  0  0  0  0  0  0  0  0  0
   11.1483  -15.1173   27.4525 C   0  0  0  0  0  0  0  0  0  0  0  0
   10.8673  -15.3601   28.7796 C   0  0  0  0  0  0  0  0  0  0  0  0
    9.9257  -14.6423   29.4954 C   0  0  0  0  0  0  0  0  0  0  0  0
    9.2189  -13.6317   28.8813 C   0  0  0  0  0  0  0  0  0  0  0  0
    9.4833  -13.3670   27.5438 C   0  0  0  0  0  0  0  0  0  0  0  0
   10.4280  -14.0993   26.8564 C   0  0  0  0  0  0  0  0  0  0  0  0
   10.7520  -17.8646   26.8095 C   0  0  0  0  0  0  0  0  0  0  0  0
    9.3943  -18.0142   26.7347 O   0  0  0  0  0  0  0  0  0  0  0  0
   11.3688  -18.5089   27.7256 O   0  0  0  0  0  0  0  0  0  0  0  0
  2  3  1  0
  2  1  1  6
  4  3  1  0
  4  5  2  0
  6  5  1  0
  7  6  1  0
  8  7  2  0
  9  8  1  0
 10  9  2  0
 10 11  1  0
 11 12  2  0
 12  7  1  0
 12  4  1  0
 13  2  1  0
 14 13  2  0
 15 13  1  0
 16 27  1  0
 16 15  1  0
 16 17  1  1
 18 17  1  0
 18 26  1  0
 19 20  1  0
 19 18  2  0
 20 21  1  0
 21 26  2  0
 21 22  1  0
 22 23  2  0
 23 24  1  0
 25 24  2  0
 26 25  1  0
 27 28  2  0
 29 27  1  0
 30 29  1  0
 30 31  1  1
 32 31  1  0
 33 32  2  0
 34 33  1  0
 35 34  2  0
 35 36  1  0
 36 37  2  0
 37 32  1  0
 38 30  1  0
 39 38  1  0
 40 38  2  0
M  END
$$$$
