WWF.pdb
     RDKit          3D

 40 44  0  0  1  0  0  0  0  0999 V2000
    9.9697  -18.2447   19.4000 N   0  0  0  0  0  0  0  0  0  0  0  0
   10.1760  -18.9203   20.6643 C   0  0  1  0  0  0  0  0  0  0  0  0
   11.5191  -19.5941   20.7656 C   0  0  0  0  0  0  0  0  0  0  0  0
   11.4903  -20.8330   19.9385 C   0  0  0  0  0  0  0  0  0  0  0  0
   11.8928  -20.9584   18.6157 C   0  0  0  0  0  0  0  0  0  0  0  0
   11.7164  -22.2290   18.2231 N   0  0  0  0  0  0  0  0  0  0  0  0
   11.2039  -22.9787   19.2409 C   0  0  0  0  0  0  0  0  0  0  0  0
   10.8529  -24.3050   19.3407 C   0  0  0  0  0  0  0  0  0  0  0  0
   10.3508  -24.7848   20.5244 C   0  0  0  0  0  0  0  0  0  0  0  0
   10.2187  -23.8950   21.5818 C   0  0  0  0  0  0  0  0  0  0  0  0
   10.5632  -22.5714   21.4993 C   0  0  0  0  0  0  0  0  0  0  0  0
   11.0694  -22.0955   20.3003 C   0  0  0  0  0  0  0  0  0  0  0  0
   10.0570  -17.8798   21.7474 C   0  0  0  0  0  0  0  0  0  0  0  0
   10.7408  -16.8068   21.7029 O   0  0  0  0  0  0  0  0  0  0  0  0
    9.1774  -18.0711   22.8452 N   0  0  0  0  0  0  0  0  0  0  0  0
    9.1205  -17.1532   23.9897 C   0  0  1  0  0  0  0  0  0  0  0  0
    7.7468  -16.5973   24.0401 C   0  0  0  0  0  0  0  0  0  0  0  0
    7.5905  -15.1640   23.8652 C   0  0  0  0  0  0  0  0  0  0  0  0
    7.8142  -14.4214   22.7401 C   0  0  0  0  0  0  0  0  0  0  0  0
    7.5689  -13.1303   23.0116 N   0  0  0  0  0  0  0  0  0  0  0  0
    7.1853  -13.0016   24.2998 C   0  0  0  0  0  0  0  0  0  0  0  0
    6.8185  -11.9480   25.1016 C   0  0  0  0  0  0  0  0  0  0  0  0
    6.4615  -12.0978   26.4181 C   0  0  0  0  0  0  0  0  0  0  0  0
    6.4682  -13.3620   26.9706 C   0  0  0  0  0  0  0  0  0  0  0  0
    6.8337  -14.4298   26.1816 C   0  0  0  0  0  0  0  0  0  0  0  0
    7.1951  -14.2735   24.8464 C   0  0  0  0  0  0  0  0  0  0  0  0
    9.6364  -17.7885   25.1990 C   0  0  0  0  0  0  0  0  0  0  0  0
    9.3032  -19.0027   25.4460 O   0  0  0  0  0  0  0  0  0  0  0  0
   10.4891  -17.2121   26.1639 N   0  0  0  0  0  0  0  0  0  0  0  0
   10.9346  -17.9180   27.3638 C   0  0  1  0  0  0  0  0  0  0  0  0
   10.5398  -17.1826   28.6042 C   0  0  0  0  0  0  0  0  0  0  0  0
   10.3271  -15.7417   28.3759 C   0  0  0  0  0  0  0  0  0  0  0  0
   11.3317  -14.8284   28.1397 C   0  0  0  0  0  0  0  0  0  0  0  0
   11.0933  -13.4823   27.9266 C   0  0  0  0  0  0  0  0  0  0  0  0
    9.8026  -13.0012   27.9455 C   0  0  0  0  0  0  0  0  0  0  0  0
    8.7716  -13.9014   28.1817 C   0  0  0  0  0  0  0  0  0  0  0  0
    9.0402  -15.2376   28.3905 C   0  0  0  0  0  0  0  0  0  0  0  0
   10.4803  -19.3078   27.3896 C   0  0  0  0  0  0  0  0  0  0  0  0
    9.1843  -19.7142   27.5536 O   0  0  0  0  0  0  0  0  0  0  0  0
   11.3713  -20.2139   27.2493 O   0  0  0  0  0  0  0  0  0  0  0  0
  2  3  1  0
  2  1  1  6
  4  3  1  0
  4  5  2  0
  6  5  1  0
  7  6  1  0
  8  7  2  0
  9  8  1  0
 10  9  2  0
 10 11  1  0
 11 12  2  0
 12  7  1  0
 12  4  1  0
 13  2  1  0
 14 13  2  0
 15 13  1  0
 16 27  1  0
 16 15  1  0
 16 17  1  1
 18 17  1  0
 18 26  1  0
 19 20  1  0
 19 18  2  0
 20 21  1  0
 21 26  2  0
 21 22  1  0
 22 23  2  0
 23 24  1  0
 25 24  2  0
 26 25  1  0
 27 28  2  0
 29 27  1  0
 30 29  1  0
 30 31  1  1
 32 31  1  0
 33 32  2  0
 34 33  1  0
 35 34  2  0
 35 36  1  0
 36 37  2  0
 37 32  1  0
 38 30  1  0
 39 38  1  0
 40 38  2  0
M  END
$$$$
