WWF.pdb
     RDKit          3D

 40 44  0  0  1  0  0  0  0  0999 V2000
    8.8269  -17.0731   20.0664 N   0  0  0  0  0  0  0  0  0  0  0  0
    8.4927  -15.6684   20.1783 C   0  0  1  0  0  0  0  0  0  0  0  0
    7.0868  -15.3554   19.7381 C   0  0  0  0  0  0  0  0  0  0  0  0
    6.9699  -15.6516   18.2826 C   0  0  0  0  0  0  0  0  0  0  0  0
    6.4441  -16.8010   17.7082 C   0  0  0  0  0  0  0  0  0  0  0  0
    6.5110  -16.6929   16.3728 N   0  0  0  0  0  0  0  0  0  0  0  0
    7.0684  -15.5003   16.0155 C   0  0  0  0  0  0  0  0  0  0  0  0
    7.3498  -14.9271   14.7971 C   0  0  0  0  0  0  0  0  0  0  0  0
    7.9271  -13.6829   14.7518 C   0  0  0  0  0  0  0  0  0  0  0  0
    8.2044  -13.0516   15.9568 C   0  0  0  0  0  0  0  0  0  0  0  0
    7.9309  -13.6083   17.1786 C   0  0  0  0  0  0  0  0  0  0  0  0
    7.3479  -14.8649   17.2148 C   0  0  0  0  0  0  0  0  0  0  0  0
    8.6584  -15.2874   21.6264 C   0  0  0  0  0  0  0  0  0  0  0  0
    8.5269  -14.0790   22.0051 O   0  0  0  0  0  0  0  0  0  0  0  0
    8.9652  -16.2687   22.6054 N   0  0  0  0  0  0  0  0  0  0  0  0
    9.2601  -15.9336   24.0041 C   0  0  1  0  0  0  0  0  0  0  0  0
    8.1904  -16.5356   24.8358 C   0  0  0  0  0  0  0  0  0  0  0  0
    7.0484  -15.7046   25.1739 C   0  0  0  0  0  0  0  0  0  0  0  0
    5.7678  -16.0983   25.4430 C   0  0  0  0  0  0  0  0  0  0  0  0
    5.0181  -15.0126   25.6885 N   0  0  0  0  0  0  0  0  0  0  0  0
    5.7795  -13.9022   25.5871 C   0  0  0  0  0  0  0  0  0  0  0  0
    5.5530  -12.5548   25.7308 C   0  0  0  0  0  0  0  0  0  0  0  0
    6.5342  -11.6090   25.5693 C   0  0  0  0  0  0  0  0  0  0  0  0
    7.8108  -12.0217   25.2478 C   0  0  0  0  0  0  0  0  0  0  0  0
    8.0560  -13.3686   25.0994 C   0  0  0  0  0  0  0  0  0  0  0  0
    7.0578  -14.3247   25.2641 C   0  0  0  0  0  0  0  0  0  0  0  0
   10.6426  -16.2602   24.3424 C   0  0  0  0  0  0  0  0  0  0  0  0
   11.3532  -16.8937   23.4823 O   0  0  0  0  0  0  0  0  0  0  0  0
   11.3193  -15.9520   25.5414 N   0  0  0  0  0  0  0  0  0  0  0  0
   12.5503  -16.6191   25.9612 C   0  0  1  0  0  0  0  0  0  0  0  0
   13.0933  -16.0161   27.2168 C   0  0  0  0  0  0  0  0  0  0  0  0
   12.0393  -15.5090   28.1144 C   0  0  0  0  0  0  0  0  0  0  0  0
   11.3675  -14.3183   27.9409 C   0  0  0  0  0  0  0  0  0  0  0  0
   10.3806  -13.8759   28.8038 C   0  0  0  0  0  0  0  0  0  0  0  0
   10.0305  -14.6379   29.8967 C   0  0  0  0  0  0  0  0  0  0  0  0
   10.6929  -15.8426   30.0943 C   0  0  0  0  0  0  0  0  0  0  0  0
   11.6723  -16.2575   29.2169 C   0  0  0  0  0  0  0  0  0  0  0  0
   12.3817  -18.0666   26.0836 C   0  0  0  0  0  0  0  0  0  0  0  0
   11.1989  -18.7403   25.9472 O   0  0  0  0  0  0  0  0  0  0  0  0
   13.4281  -18.7545   26.3419 O   0  0  0  0  0  0  0  0  0  0  0  0
  2  3  1  0
  2  1  1  1
  4  3  1  0
  4  5  2  0
  6  5  1  0
  7  6  1  0
  8  7  2  0
  9  8  1  0
 10  9  2  0
 10 11  1  0
 11 12  2  0
 12  7  1  0
 12  4  1  0
 13  2  1  0
 14 13  2  0
 15 13  1  0
 16 27  1  0
 16 15  1  0
 16 17  1  1
 18 17  1  0
 18 26  1  0
 19 20  1  0
 19 18  2  0
 20 21  1  0
 21 26  2  0
 21 22  1  0
 22 23  2  0
 23 24  1  0
 25 24  2  0
 26 25  1  0
 27 28  2  0
 29 27  1  0
 30 29  1  0
 30 31  1  1
 32 31  1  0
 33 32  2  0
 34 33  1  0
 35 34  2  0
 35 36  1  0
 36 37  2  0
 37 32  1  0
 38 30  1  0
 39 38  1  0
 40 38  2  0
M  END
$$$$
