WWF.pdb
     RDKit          3D

 40 44  0  0  1  0  0  0  0  0999 V2000
    7.9288  -16.1856   19.8498 N   0  0  0  0  0  0  0  0  0  0  0  0
    8.9744  -15.2043   20.0526 C   0  0  1  0  0  0  0  0  0  0  0  0
    8.5903  -13.8231   19.5910 C   0  0  0  0  0  0  0  0  0  0  0  0
    8.2510  -13.8860   18.1416 C   0  0  0  0  0  0  0  0  0  0  0  0
    7.0233  -13.5952   17.5624 C   0  0  0  0  0  0  0  0  0  0  0  0
    7.1139  -13.7668   16.2350 N   0  0  0  0  0  0  0  0  0  0  0  0
    8.3708  -14.1674   15.8880 C   0  0  0  0  0  0  0  0  0  0  0  0
    8.9563  -14.4688   14.6803 C   0  0  0  0  0  0  0  0  0  0  0  0
   10.2733  -14.8527   14.6439 C   0  0  0  0  0  0  0  0  0  0  0  0
   10.9635  -14.9198   15.8466 C   0  0  0  0  0  0  0  0  0  0  0  0
   10.3956  -14.6232   17.0579 C   0  0  0  0  0  0  0  0  0  0  0  0
    9.0653  -14.2365   17.0852 C   0  0  0  0  0  0  0  0  0  0  0  0
    9.2715  -15.1721   21.5292 C   0  0  0  0  0  0  0  0  0  0  0  0
   10.0140  -14.2663   22.0284 O   0  0  0  0  0  0  0  0  0  0  0  0
    8.7292  -16.1525   22.4010 N   0  0  0  0  0  0  0  0  0  0  0  0
    8.9797  -16.1582   23.8477 C   0  0  1  0  0  0  0  0  0  0  0  0
    7.7557  -16.6773   24.5042 C   0  0  0  0  0  0  0  0  0  0  0  0
    6.8425  -15.7126   25.0913 C   0  0  0  0  0  0  0  0  0  0  0  0
    5.5952  -15.9342   25.6038 C   0  0  0  0  0  0  0  0  0  0  0  0
    5.0825  -14.7687   26.0278 N   0  0  0  0  0  0  0  0  0  0  0  0
    5.9689  -13.7747   25.8057 C   0  0  0  0  0  0  0  0  0  0  0  0
    5.9826  -12.4195   26.0311 C   0  0  0  0  0  0  0  0  0  0  0  0
    7.0449  -11.6161   25.7007 C   0  0  0  0  0  0  0  0  0  0  0  0
    8.1554  -12.1875   25.1145 C   0  0  0  0  0  0  0  0  0  0  0  0
    8.1589  -13.5446   24.8806 C   0  0  0  0  0  0  0  0  0  0  0  0
    7.0791  -14.3560   25.2174 C   0  0  0  0  0  0  0  0  0  0  0  0
   10.2444  -16.8182   24.1593 C   0  0  0  0  0  0  0  0  0  0  0  0
   10.6494  -17.7649   23.3939 O   0  0  0  0  0  0  0  0  0  0  0  0
   11.1094  -16.5316   25.2365 N   0  0  0  0  0  0  0  0  0  0  0  0
   12.2504  -17.3725   25.5938 C   0  0  1  0  0  0  0  0  0  0  0  0
   13.1372  -16.6910   26.5859 C   0  0  0  0  0  0  0  0  0  0  0  0
   12.3878  -15.9056   27.5835 C   0  0  0  0  0  0  0  0  0  0  0  0
   12.0867  -16.3381   28.8569 C   0  0  0  0  0  0  0  0  0  0  0  0
   11.3830  -15.5707   29.7680 C   0  0  0  0  0  0  0  0  0  0  0  0
   10.9488  -14.3115   29.4163 C   0  0  0  0  0  0  0  0  0  0  0  0
   11.2394  -13.8520   28.1382 C   0  0  0  0  0  0  0  0  0  0  0  0
   11.9430  -14.6397   27.2519 C   0  0  0  0  0  0  0  0  0  0  0  0
   11.8388  -18.6979   26.0549 C   0  0  0  0  0  0  0  0  0  0  0  0
   12.6819  -19.7444   26.3103 O   0  0  0  0  0  0  0  0  0  0  0  0
   10.5869  -18.8901   26.2298 O   0  0  0  0  0  0  0  0  0  0  0  0
  2  3  1  0
  2  1  1  1
  4  3  1  0
  4  5  2  0
  6  5  1  0
  7  6  1  0
  8  7  2  0
  9  8  1  0
 10  9  2  0
 10 11  1  0
 11 12  2  0
 12  7  1  0
 12  4  1  0
 13  2  1  0
 14 13  2  0
 15 13  1  0
 16 27  1  0
 16 15  1  0
 16 17  1  1
 18 17  1  0
 18 26  1  0
 19 20  1  0
 19 18  2  0
 20 21  1  0
 21 26  2  0
 21 22  1  0
 22 23  2  0
 23 24  1  0
 25 24  2  0
 26 25  1  0
 27 28  2  0
 29 27  1  0
 30 29  1  0
 30 31  1  1
 32 31  1  0
 33 32  2  0
 34 33  1  0
 35 34  2  0
 35 36  1  0
 36 37  2  0
 37 32  1  0
 38 30  1  0
 39 38  1  0
 40 38  2  0
M  END
$$$$
