WWF.pdb
     RDKit          3D

 40 44  0  0  1  0  0  0  0  0999 V2000
    7.4430  -17.1641   19.4184 N   0  0  0  0  0  0  0  0  0  0  0  0
    8.7375  -17.1909   20.0672 C   0  0  1  0  0  0  0  0  0  0  0  0
    9.7582  -16.3121   19.3932 C   0  0  0  0  0  0  0  0  0  0  0  0
    9.1884  -15.8284   18.1043 C   0  0  0  0  0  0  0  0  0  0  0  0
    8.9131  -16.5930   16.9787 C   0  0  0  0  0  0  0  0  0  0  0  0
    8.4069  -15.7990   16.0232 N   0  0  0  0  0  0  0  0  0  0  0  0
    8.3274  -14.5103   16.4630 C   0  0  0  0  0  0  0  0  0  0  0  0
    7.8887  -13.3467   15.8750 C   0  0  0  0  0  0  0  0  0  0  0  0
    7.9311  -12.1724   16.5839 C   0  0  0  0  0  0  0  0  0  0  0  0
    8.4227  -12.2149   17.8816 C   0  0  0  0  0  0  0  0  0  0  0  0
    8.8637  -13.3648   18.4822 C   0  0  0  0  0  0  0  0  0  0  0  0
    8.8172  -14.5459   17.7589 C   0  0  0  0  0  0  0  0  0  0  0  0
    8.5330  -16.7216   21.4840 C   0  0  0  0  0  0  0  0  0  0  0  0
    8.0253  -15.5800   21.7292 O   0  0  0  0  0  0  0  0  0  0  0  0
    8.9015  -17.5429   22.5818 N   0  0  0  0  0  0  0  0  0  0  0  0
    8.9441  -17.0520   23.9649 C   0  0  1  0  0  0  0  0  0  0  0  0
    7.6888  -17.4851   24.6245 C   0  0  0  0  0  0  0  0  0  0  0  0
    6.8747  -16.4665   25.2641 C   0  0  0  0  0  0  0  0  0  0  0  0
    5.6566  -16.6139   25.8656 C   0  0  0  0  0  0  0  0  0  0  0  0
    5.2411  -15.4185   26.3121 N   0  0  0  0  0  0  0  0  0  0  0  0
    6.1635  -14.4775   26.0172 C   0  0  0  0  0  0  0  0  0  0  0  0
    6.2687  -13.1237   26.2265 C   0  0  0  0  0  0  0  0  0  0  0  0
    7.3479  -12.3838   25.8132 C   0  0  0  0  0  0  0  0  0  0  0  0
    8.3804  -13.0209   25.1564 C   0  0  0  0  0  0  0  0  0  0  0  0
    8.2917  -14.3776   24.9376 C   0  0  0  0  0  0  0  0  0  0  0  0
    7.1950  -15.1245   25.3584 C   0  0  0  0  0  0  0  0  0  0  0  0
   10.2041  -17.4093   24.6108 C   0  0  0  0  0  0  0  0  0  0  0  0
   10.7741  -18.5102   24.2803 O   0  0  0  0  0  0  0  0  0  0  0  0
   10.8989  -16.6654   25.5876 N   0  0  0  0  0  0  0  0  0  0  0  0
   12.1366  -17.1252   26.2149 C   0  0  1  0  0  0  0  0  0  0  0  0
   12.7416  -16.0573   27.0685 C   0  0  0  0  0  0  0  0  0  0  0  0
   11.7362  -15.2761   27.8119 C   0  0  0  0  0  0  0  0  0  0  0  0
   11.4126  -15.4735   29.1368 C   0  0  0  0  0  0  0  0  0  0  0  0
   10.4643  -14.7176   29.8028 C   0  0  0  0  0  0  0  0  0  0  0  0
    9.7946  -13.7136   29.1384 C   0  0  0  0  0  0  0  0  0  0  0  0
   10.1024  -13.4944   27.8019 C   0  0  0  0  0  0  0  0  0  0  0  0
   11.0527  -14.2640   27.1648 C   0  0  0  0  0  0  0  0  0  0  0  0
   11.9518  -18.3722   26.9562 C   0  0  0  0  0  0  0  0  0  0  0  0
   12.9563  -19.1336   27.4877 O   0  0  0  0  0  0  0  0  0  0  0  0
   10.7511  -18.7816   27.1158 O   0  0  0  0  0  0  0  0  0  0  0  0
  2  3  1  0
  2  1  1  6
  4  3  1  0
  4  5  2  0
  6  5  1  0
  7  6  1  0
  8  7  2  0
  9  8  1  0
 10  9  2  0
 10 11  1  0
 11 12  2  0
 12  7  1  0
 12  4  1  0
 13  2  1  0
 14 13  2  0
 15 13  1  0
 16 27  1  0
 16 15  1  0
 16 17  1  1
 18 17  1  0
 18 26  1  0
 19 20  1  0
 19 18  2  0
 20 21  1  0
 21 26  2  0
 21 22  1  0
 22 23  2  0
 23 24  1  0
 25 24  2  0
 26 25  1  0
 27 28  2  0
 29 27  1  0
 30 29  1  0
 30 31  1  1
 32 31  1  0
 33 32  2  0
 34 33  1  0
 35 34  2  0
 35 36  1  0
 36 37  2  0
 37 32  1  0
 38 30  1  0
 39 38  1  0
 40 38  2  0
M  END
$$$$
