WWF.pdb
     RDKit          3D

 40 44  0  0  1  0  0  0  0  0999 V2000
    7.7718  -20.5831   26.7742 N   0  0  0  0  0  0  0  0  0  0  0  0
    7.8005  -19.1819   26.4090 C   0  0  1  0  0  0  0  0  0  0  0  0
    9.1387  -18.5333   26.6474 C   0  0  0  0  0  0  0  0  0  0  0  0
    9.1052  -17.8530   27.9725 C   0  0  0  0  0  0  0  0  0  0  0  0
    9.0849  -18.4632   29.2194 C   0  0  0  0  0  0  0  0  0  0  0  0
    9.0588  -17.5166   30.1696 N   0  0  0  0  0  0  0  0  0  0  0  0
    9.0608  -16.2734   29.6082 C   0  0  0  0  0  0  0  0  0  0  0  0
    9.0404  -15.0060   30.1424 C   0  0  0  0  0  0  0  0  0  0  0  0
    9.0491  -13.9187   29.3051 C   0  0  0  0  0  0  0  0  0  0  0  0
    9.0784  -14.1528   27.9371 C   0  0  0  0  0  0  0  0  0  0  0  0
    9.0988  -15.4083   27.3886 C   0  0  0  0  0  0  0  0  0  0  0  0
    9.0899  -16.5005   28.2415 C   0  0  0  0  0  0  0  0  0  0  0  0
    7.4599  -19.0988   24.9438 C   0  0  0  0  0  0  0  0  0  0  0  0
    7.6937  -20.0748   24.1604 O   0  0  0  0  0  0  0  0  0  0  0  0
    6.8682  -17.9281   24.4008 N   0  0  0  0  0  0  0  0  0  0  0  0
    7.2045  -17.4101   23.0687 C   0  0  1  0  0  0  0  0  0  0  0  0
    6.0917  -16.5256   22.6468 C   0  0  0  0  0  0  0  0  0  0  0  0
    6.1539  -15.9490   21.3153 C   0  0  0  0  0  0  0  0  0  0  0  0
    5.6943  -16.4798   20.1430 C   0  0  0  0  0  0  0  0  0  0  0  0
    5.9696  -15.6314   19.1403 N   0  0  0  0  0  0  0  0  0  0  0  0
    6.6055  -14.5441   19.6267 C   0  0  0  0  0  0  0  0  0  0  0  0
    7.1091  -13.3894   19.0785 C   0  0  0  0  0  0  0  0  0  0  0  0
    7.7264  -12.4148   19.8216 C   0  0  0  0  0  0  0  0  0  0  0  0
    7.8510  -12.5944   21.1839 C   0  0  0  0  0  0  0  0  0  0  0  0
    7.3523  -13.7462   21.7504 C   0  0  0  0  0  0  0  0  0  0  0  0
    6.7268  -14.7324   20.9928 C   0  0  0  0  0  0  0  0  0  0  0  0
    8.5544  -16.8539   23.0466 C   0  0  0  0  0  0  0  0  0  0  0  0
    9.1579  -16.7483   21.9193 O   0  0  0  0  0  0  0  0  0  0  0  0
    9.3042  -16.3993   24.1519 N   0  0  0  0  0  0  0  0  0  0  0  0
   10.4873  -15.5506   24.0233 C   0  0  1  0  0  0  0  0  0  0  0  0
   10.5925  -14.5897   25.1639 C   0  0  0  0  0  0  0  0  0  0  0  0
    9.2862  -14.2650   25.7652 C   0  0  0  0  0  0  0  0  0  0  0  0
    8.6427  -15.0380   26.7074 C   0  0  0  0  0  0  0  0  0  0  0  0
    7.4168  -14.6992   27.2521 C   0  0  0  0  0  0  0  0  0  0  0  0
    6.7840  -13.5418   26.8549 C   0  0  0  0  0  0  0  0  0  0  0  0
    7.4117  -12.7449   25.9061 C   0  0  0  0  0  0  0  0  0  0  0  0
    8.6338  -13.1086   25.3812 C   0  0  0  0  0  0  0  0  0  0  0  0
   11.7130  -16.3306   23.8566 C   0  0  0  0  0  0  0  0  0  0  0  0
   11.7980  -17.6946   23.9185 O   0  0  0  0  0  0  0  0  0  0  0  0
   12.7916  -15.6798   23.6378 O   0  0  0  0  0  0  0  0  0  0  0  0
  2  3  1  0
  2  1  1  6
  4  3  1  0
  4  5  2  0
  6  5  1  0
  7  6  1  0
  8  7  2  0
  9  8  1  0
 10  9  2  0
 10 11  1  0
 11 12  2  0
 12  7  1  0
 12  4  1  0
 13  2  1  0
 14 13  2  0
 15 13  1  0
 16 27  1  0
 16 15  1  0
 16 17  1  1
 18 17  1  0
 18 26  1  0
 19 20  1  0
 19 18  2  0
 20 21  1  0
 21 26  2  0
 21 22  1  0
 22 23  2  0
 23 24  1  0
 25 24  2  0
 26 25  1  0
 27 28  2  0
 29 27  1  0
 30 29  1  0
 30 31  1  1
 32 31  1  0
 33 32  2  0
 34 33  1  0
 35 34  2  0
 35 36  1  0
 36 37  2  0
 37 32  1  0
 38 30  1  0
 39 38  1  0
 40 38  2  0
M  END
$$$$
