WWF.pdb
     RDKit          3D

 40 44  0  0  1  0  0  0  0  0999 V2000
    7.6601  -17.7216   21.5514 N   0  0  0  0  0  0  0  0  0  0  0  0
    8.6002  -16.8452   22.2189 C   0  0  1  0  0  0  0  0  0  0  0  0
    7.9482  -15.6391   22.8423 C   0  0  0  0  0  0  0  0  0  0  0  0
    7.3444  -14.8145   21.7582 C   0  0  0  0  0  0  0  0  0  0  0  0
    6.0071  -14.7806   21.3870 C   0  0  0  0  0  0  0  0  0  0  0  0
    5.8560  -13.9155   20.3730 N   0  0  0  0  0  0  0  0  0  0  0  0
    7.0537  -13.3549   20.0385 C   0  0  0  0  0  0  0  0  0  0  0  0
    7.4210  -12.4315   19.0874 C   0  0  0  0  0  0  0  0  0  0  0  0
    8.7357  -12.0513   18.9857 C   0  0  0  0  0  0  0  0  0  0  0  0
    9.6473  -12.6256   19.8612 C   0  0  0  0  0  0  0  0  0  0  0  0
    9.2984  -13.5465   20.8139 C   0  0  0  0  0  0  0  0  0  0  0  0
    7.9687  -13.9246   20.9095 C   0  0  0  0  0  0  0  0  0  0  0  0
    9.2774  -17.6569   23.2923 C   0  0  0  0  0  0  0  0  0  0  0  0
    8.6407  -18.5510   23.9373 O   0  0  0  0  0  0  0  0  0  0  0  0
   10.6445  -17.4441   23.6104 N   0  0  0  0  0  0  0  0  0  0  0  0
   11.3365  -18.1740   24.6800 C   0  0  1  0  0  0  0  0  0  0  0  0
   12.6315  -18.6400   24.1282 C   0  0  0  0  0  0  0  0  0  0  0  0
   12.6033  -19.7185   23.1559 C   0  0  0  0  0  0  0  0  0  0  0  0
   12.9135  -19.6648   21.8262 C   0  0  0  0  0  0  0  0  0  0  0  0
   12.7357  -20.8801   21.2855 N   0  0  0  0  0  0  0  0  0  0  0  0
   12.3118  -21.7421   22.2343 C   0  0  0  0  0  0  0  0  0  0  0  0
   11.9809  -23.0754   22.2550 C   0  0  0  0  0  0  0  0  0  0  0  0
   11.5687  -23.7271   23.3901 C   0  0  0  0  0  0  0  0  0  0  0  0
   11.4799  -23.0182   24.5704 C   0  0  0  0  0  0  0  0  0  0  0  0
   11.8073  -21.6806   24.5681 C   0  0  0  0  0  0  0  0  0  0  0  0
   12.2250  -21.0233   23.4143 C   0  0  0  0  0  0  0  0  0  0  0  0
   11.3703  -17.3923   25.9129 C   0  0  0  0  0  0  0  0  0  0  0  0
   12.0637  -16.3131   25.9383 O   0  0  0  0  0  0  0  0  0  0  0  0
   10.7085  -17.6866   27.1237 N   0  0  0  0  0  0  0  0  0  0  0  0
   10.9585  -16.9644   28.3697 C   0  0  1  0  0  0  0  0  0  0  0  0
    9.7121  -16.3159   28.8805 C   0  0  0  0  0  0  0  0  0  0  0  0
    9.2310  -15.2277   28.0098 C   0  0  0  0  0  0  0  0  0  0  0  0
    8.2928  -15.3786   27.0118 C   0  0  0  0  0  0  0  0  0  0  0  0
    7.8630  -14.3320   26.2154 C   0  0  0  0  0  0  0  0  0  0  0  0
    8.3779  -13.0682   26.4037 C   0  0  0  0  0  0  0  0  0  0  0  0
    9.3254  -12.8895   27.4034 C   0  0  0  0  0  0  0  0  0  0  0  0
    9.7341  -13.9519   28.1815 C   0  0  0  0  0  0  0  0  0  0  0  0
   11.5844  -17.8111   29.3846 C   0  0  0  0  0  0  0  0  0  0  0  0
   11.7822  -19.1605   29.2777 O   0  0  0  0  0  0  0  0  0  0  0  0
   11.9747  -17.2391   30.4594 O   0  0  0  0  0  0  0  0  0  0  0  0
  2  3  1  0
  2  1  1  1
  4  3  1  0
  4  5  2  0
  6  5  1  0
  7  6  1  0
  8  7  2  0
  9  8  1  0
 10  9  2  0
 10 11  1  0
 11 12  2  0
 12  7  1  0
 12  4  1  0
 13  2  1  0
 14 13  2  0
 15 13  1  0
 16 27  1  0
 16 15  1  0
 16 17  1  6
 18 17  1  0
 18 26  1  0
 19 20  1  0
 19 18  2  0
 20 21  1  0
 21 26  2  0
 21 22  1  0
 22 23  2  0
 23 24  1  0
 25 24  2  0
 26 25  1  0
 27 28  2  0
 29 27  1  0
 30 29  1  0
 30 31  1  1
 32 31  1  0
 33 32  2  0
 34 33  1  0
 35 34  2  0
 35 36  1  0
 36 37  2  0
 37 32  1  0
 38 30  1  0
 39 38  1  0
 40 38  2  0
M  END
$$$$
