ATL.pdb
     RDKit          3D

 21 20  0  0  1  0  0  0  0  0999 V2000
    8.6089  -12.2092   18.8698 C   0  0  0  0  0  0  0  0  0  0  0  0
    8.7017  -13.6651   18.4720 C   0  0  2  0  0  0  0  0  0  0  0  0
    8.0621  -13.9409   17.2169 N   0  0  0  0  0  0  0  0  0  0  0  0
    8.0859  -14.5110   19.5113 C   0  0  0  0  0  0  0  0  0  0  0  0
    6.8371  -14.7690   19.5044 O   0  0  0  0  0  0  0  0  0  0  0  0
    8.3941  -17.8240   20.2720 C   0  0  0  0  0  0  0  0  0  0  0  0
    8.8364  -17.2100   21.5906 C   0  0  1  0  0  0  0  0  0  0  0  0
   10.2213  -17.2524   21.6735 O   0  0  0  0  0  0  0  0  0  0  0  0
    8.3103  -15.7879   21.6000 C   0  0  2  0  0  0  0  0  0  0  0  0
    8.9041  -15.0405   20.5290 N   0  0  0  0  0  0  0  0  0  0  0  0
    8.5738  -15.1209   22.9037 C   0  0  0  0  0  0  0  0  0  0  0  0
    9.6017  -14.4105   23.0163 O   0  0  0  0  0  0  0  0  0  0  0  0
    5.7119  -12.0393   27.2441 C   0  0  0  0  0  0  0  0  0  0  0  0
    6.9062  -12.7924   26.7943 C   0  0  2  0  0  0  0  0  0  0  0  0
    8.0472  -11.7867   26.5461 C   0  0  0  0  0  0  0  0  0  0  0  0
    6.7936  -13.6044   25.5638 C   0  0  0  0  0  0  0  0  0  0  0  0
    7.8651  -14.5796   25.2560 C   0  0  2  0  0  0  0  0  0  0  0  0
    7.6953  -15.2657   24.0233 N   0  0  0  0  0  0  0  0  0  0  0  0
    8.0259  -15.4864   26.4213 C   0  0  0  0  0  0  0  0  0  0  0  0
    7.7057  -16.8218   26.2205 O   0  0  0  0  0  0  0  0  0  0  0  0
    8.4211  -15.1302   27.5405 O   0  0  0  0  0  0  0  0  0  0  0  0
  2  1  1  1
  3  2  1  0
  4  2  1  0
  4  5  2  0
  7  6  1  6
  7  9  1  0
  8  7  1  0
  9 10  1  6
 10  4  1  0
 11  9  1  0
 12 11  2  0
 14 13  1  6
 14 15  1  0
 16 14  1  0
 17 18  1  0
 17 16  1  1
 18 11  1  0
 19 17  1  0
 20 19  1  0
 21 19  2  0
M  END
$$$$
