ATL.pdb
     RDKit          3D

 21 20  0  0  1  0  0  0  0  0999 V2000
   10.1509  -20.3361   20.9718 C   0  0  0  0  0  0  0  0  0  0  0  0
    9.1245  -19.4885   21.6891 C   0  0  2  0  0  0  0  0  0  0  0  0
    7.8055  -19.6285   21.1405 N   0  0  0  0  0  0  0  0  0  0  0  0
    9.5130  -18.0671   21.6266 C   0  0  0  0  0  0  0  0  0  0  0  0
   10.6134  -17.7017   21.0959 O   0  0  0  0  0  0  0  0  0  0  0  0
    7.9804  -15.2496   19.9410 C   0  0  0  0  0  0  0  0  0  0  0  0
    7.8879  -14.9288   21.4242 C   0  0  1  0  0  0  0  0  0  0  0  0
    6.6328  -15.2909   21.8933 O   0  0  0  0  0  0  0  0  0  0  0  0
    8.9954  -15.7115   22.1026 C   0  0  2  0  0  0  0  0  0  0  0  0
    8.6423  -17.1005   22.1679 N   0  0  0  0  0  0  0  0  0  0  0  0
    9.2748  -15.1848   23.4658 C   0  0  0  0  0  0  0  0  0  0  0  0
   10.1910  -14.3392   23.6052 O   0  0  0  0  0  0  0  0  0  0  0  0
    7.9583  -11.9104   26.1837 C   0  0  0  0  0  0  0  0  0  0  0  0
    7.1148  -13.0926   25.8896 C   0  0  2  0  0  0  0  0  0  0  0  0
    5.6910  -12.8122   26.4081 C   0  0  0  0  0  0  0  0  0  0  0  0
    7.5170  -14.3941   26.4644 C   0  0  0  0  0  0  0  0  0  0  0  0
    8.7133  -15.0736   25.9155 C   0  0  2  0  0  0  0  0  0  0  0  0
    8.5343  -15.6119   24.6128 N   0  0  0  0  0  0  0  0  0  0  0  0
    9.1858  -16.0716   26.9090 C   0  0  0  0  0  0  0  0  0  0  0  0
    9.5825  -15.5806   28.1450 O   0  0  0  0  0  0  0  0  0  0  0  0
    9.2462  -17.2925   26.7056 O   0  0  0  0  0  0  0  0  0  0  0  0
  2  1  1  6
  3  2  1  0
  4  2  1  0
  4  5  2  0
  7  6  1  6
  7  9  1  0
  8  7  1  0
  9 10  1  1
 10  4  1  0
 11  9  1  0
 12 11  2  0
 14 13  1  1
 14 15  1  0
 16 14  1  0
 17 18  1  0
 17 16  1  1
 18 11  1  0
 19 17  1  0
 20 19  1  0
 21 19  2  0
M  END
$$$$
