ATL.pdb
     RDKit          3D

 21 20  0  0  1  0  0  0  0  0999 V2000
   10.1672  -19.9193   22.1184 C   0  0  0  0  0  0  0  0  0  0  0  0
    9.2348  -19.1894   21.1780 C   0  0  2  0  0  0  0  0  0  0  0  0
    9.3986  -19.5903   19.8095 N   0  0  0  0  0  0  0  0  0  0  0  0
    9.4605  -17.7351   21.2738 C   0  0  0  0  0  0  0  0  0  0  0  0
   10.5831  -17.2150   20.9653 O   0  0  0  0  0  0  0  0  0  0  0  0
    7.2750  -14.8245   19.9636 C   0  0  0  0  0  0  0  0  0  0  0  0
    7.3721  -14.7410   21.4785 C   0  0  1  0  0  0  0  0  0  0  0  0
    6.2297  -15.2930   22.0415 O   0  0  0  0  0  0  0  0  0  0  0  0
    8.6234  -15.5022   21.8712 C   0  0  2  0  0  0  0  0  0  0  0  0
    8.4061  -16.9118   21.7167 N   0  0  0  0  0  0  0  0  0  0  0  0
    9.0305  -15.1921   23.2683 C   0  0  0  0  0  0  0  0  0  0  0  0
   10.1607  -14.6839   23.4643 O   0  0  0  0  0  0  0  0  0  0  0  0
    8.0502  -11.8514   26.2837 C   0  0  0  0  0  0  0  0  0  0  0  0
    7.0954  -12.9246   25.9202 C   0  0  2  0  0  0  0  0  0  0  0  0
    5.7134  -12.5579   26.4950 C   0  0  0  0  0  0  0  0  0  0  0  0
    7.3855  -14.2991   26.3815 C   0  0  0  0  0  0  0  0  0  0  0  0
    8.4711  -15.0569   25.7173 C   0  0  2  0  0  0  0  0  0  0  0  0
    8.1766  -15.4551   24.3855 N   0  0  0  0  0  0  0  0  0  0  0  0
    8.8661  -16.1850   26.5992 C   0  0  0  0  0  0  0  0  0  0  0  0
    9.3575  -15.8524   27.8537 O   0  0  0  0  0  0  0  0  0  0  0  0
    8.7852  -17.3820   26.2890 O   0  0  0  0  0  0  0  0  0  0  0  0
  2  1  1  1
  3  2  1  0
  4  2  1  0
  4  5  2  0
  7  6  1  6
  7  9  1  0
  8  7  1  0
  9 10  1  1
 10  4  1  0
 11  9  1  0
 12 11  2  0
 14 13  1  1
 14 15  1  0
 16 14  1  0
 17 18  1  0
 17 16  1  1
 18 11  1  0
 19 17  1  0
 20 19  1  0
 21 19  2  0
M  END
$$$$
