ATL.pdb
     RDKit          3D

 21 20  0  0  1  0  0  0  0  0999 V2000
    8.5320  -12.3333   18.7037 C   0  0  0  0  0  0  0  0  0  0  0  0
    8.7422  -13.8072   18.4396 C   0  0  2  0  0  0  0  0  0  0  0  0
    8.1382  -14.2445   17.2131 N   0  0  0  0  0  0  0  0  0  0  0  0
    8.1845  -14.6020   19.5497 C   0  0  0  0  0  0  0  0  0  0  0  0
    6.9653  -14.9754   19.5527 O   0  0  0  0  0  0  0  0  0  0  0  0
    8.8177  -17.7239   20.3678 C   0  0  0  0  0  0  0  0  0  0  0  0
    9.1316  -17.1024   21.7193 C   0  0  1  0  0  0  0  0  0  0  0  0
   10.5081  -17.0445   21.8878 O   0  0  0  0  0  0  0  0  0  0  0  0
    8.5015  -15.7232   21.7144 C   0  0  2  0  0  0  0  0  0  0  0  0
    9.0257  -14.9507   20.6250 N   0  0  0  0  0  0  0  0  0  0  0  0
    8.7300  -15.0182   23.0047 C   0  0  0  0  0  0  0  0  0  0  0  0
    9.6805  -14.2031   23.0819 O   0  0  0  0  0  0  0  0  0  0  0  0
    5.4654  -12.4226   27.4190 C   0  0  0  0  0  0  0  0  0  0  0  0
    6.7501  -13.0408   27.0152 C   0  0  2  0  0  0  0  0  0  0  0  0
    7.8375  -11.9489   27.0275 C   0  0  0  0  0  0  0  0  0  0  0  0
    6.8243  -13.6856   25.6867 C   0  0  0  0  0  0  0  0  0  0  0  0
    8.0134  -14.5067   25.3612 C   0  0  2  0  0  0  0  0  0  0  0  0
    7.9031  -15.2419   24.1503 N   0  0  0  0  0  0  0  0  0  0  0  0
    8.3399  -15.3508   26.5390 C   0  0  0  0  0  0  0  0  0  0  0  0
    8.5204  -16.7064   26.3031 O   0  0  0  0  0  0  0  0  0  0  0  0
    8.4587  -14.9265   27.6972 O   0  0  0  0  0  0  0  0  0  0  0  0
  2  1  1  1
  3  2  1  0
  4  2  1  0
  4  5  2  0
  7  6  1  6
  7  9  1  0
  8  7  1  0
  9 10  1  6
 10  4  1  0
 11  9  1  0
 12 11  2  0
 14 13  1  6
 14 15  1  0
 16 14  1  0
 17 18  1  0
 17 16  1  1
 18 11  1  0
 19 17  1  0
 20 19  1  0
 21 19  2  0
M  END
$$$$
