ATL.pdb
     RDKit          3D

 21 20  0  0  1  0  0  0  0  0999 V2000
    8.7012  -12.4454   18.7639 C   0  0  0  0  0  0  0  0  0  0  0  0
    8.6534  -13.8808   18.2908 C   0  0  2  0  0  0  0  0  0  0  0  0
    7.8778  -14.0470   17.0944 N   0  0  0  0  0  0  0  0  0  0  0  0
    8.0833  -14.7396   19.3456 C   0  0  0  0  0  0  0  0  0  0  0  0
    7.1284  -15.5483   19.1003 O   0  0  0  0  0  0  0  0  0  0  0  0
    8.2570  -17.2845   19.9006 C   0  0  0  0  0  0  0  0  0  0  0  0
    8.7156  -16.9765   21.3170 C   0  0  1  0  0  0  0  0  0  0  0  0
   10.1015  -17.0304   21.3713 O   0  0  0  0  0  0  0  0  0  0  0  0
    8.1877  -15.5942   21.6483 C   0  0  2  0  0  0  0  0  0  0  0  0
    8.6126  -14.6567   20.6489 N   0  0  0  0  0  0  0  0  0  0  0  0
    8.6360  -15.1512   22.9961 C   0  0  0  0  0  0  0  0  0  0  0  0
    9.7602  -14.6050   23.1040 O   0  0  0  0  0  0  0  0  0  0  0  0
    5.6346  -12.1579   27.3004 C   0  0  0  0  0  0  0  0  0  0  0  0
    6.8728  -12.8565   26.8825 C   0  0  2  0  0  0  0  0  0  0  0  0
    7.9679  -11.7990   26.6436 C   0  0  0  0  0  0  0  0  0  0  0  0
    6.8240  -13.6869   25.6602 C   0  0  0  0  0  0  0  0  0  0  0  0
    7.9761  -14.5654   25.3520 C   0  0  2  0  0  0  0  0  0  0  0  0
    7.8278  -15.3292   24.1630 N   0  0  0  0  0  0  0  0  0  0  0  0
    8.2750  -15.3889   26.5515 C   0  0  0  0  0  0  0  0  0  0  0  0
    9.1744  -14.8563   27.4644 O   0  0  0  0  0  0  0  0  0  0  0  0
    7.7797  -16.5011   26.7825 O   0  0  0  0  0  0  0  0  0  0  0  0
  2  1  1  1
  3  2  1  0
  4  2  1  0
  4  5  2  0
  7  6  1  6
  7  9  1  0
  8  7  1  0
  9 10  1  6
 10  4  1  0
 11  9  1  0
 12 11  2  0
 14 13  1  6
 14 15  1  0
 16 14  1  0
 17 18  1  0
 17 16  1  1
 18 11  1  0
 19 17  1  0
 20 19  1  0
 21 19  2  0
M  END
$$$$
