ATL.pdb
     RDKit          3D

 21 20  0  0  1  0  0  0  0  0999 V2000
   12.6329  -18.2757   21.5670 C   0  0  0  0  0  0  0  0  0  0  0  0
   11.6807  -18.0288   20.4186 C   0  0  2  0  0  0  0  0  0  0  0  0
   12.3562  -17.8404   19.1662 N   0  0  0  0  0  0  0  0  0  0  0  0
   10.8575  -16.8367   20.6947 C   0  0  0  0  0  0  0  0  0  0  0  0
   11.2600  -15.6659   20.3891 O   0  0  0  0  0  0  0  0  0  0  0  0
    7.5525  -16.0835   19.4948 C   0  0  0  0  0  0  0  0  0  0  0  0
    7.3952  -16.0679   21.0069 C   0  0  1  0  0  0  0  0  0  0  0  0
    6.8363  -17.2689   21.4213 O   0  0  0  0  0  0  0  0  0  0  0  0
    8.7831  -15.8594   21.5809 C   0  0  2  0  0  0  0  0  0  0  0  0
    9.6011  -17.0064   21.3096 N   0  0  0  0  0  0  0  0  0  0  0  0
    8.7307  -15.5965   23.0444 C   0  0  0  0  0  0  0  0  0  0  0  0
    9.2936  -16.4070   23.8192 O   0  0  0  0  0  0  0  0  0  0  0  0
    5.8148  -13.1523   27.3635 C   0  0  0  0  0  0  0  0  0  0  0  0
    7.0281  -12.5872   26.7276 C   0  0  2  0  0  0  0  0  0  0  0  0
    6.9487  -11.0507   26.8140 C   0  0  0  0  0  0  0  0  0  0  0  0
    7.2838  -12.9105   25.3077 C   0  0  0  0  0  0  0  0  0  0  0  0
    7.9576  -14.1883   24.9804 C   0  0  2  0  0  0  0  0  0  0  0  0
    8.0620  -14.4550   23.5886 N   0  0  0  0  0  0  0  0  0  0  0  0
    7.2981  -15.2780   25.7445 C   0  0  0  0  0  0  0  0  0  0  0  0
    6.2584  -15.9429   25.1098 O   0  0  0  0  0  0  0  0  0  0  0  0
    7.6137  -15.6230   26.8921 O   0  0  0  0  0  0  0  0  0  0  0  0
  2  1  1  1
  3  2  1  0
  4  2  1  0
  4  5  2  0
  7  6  1  6
  7  9  1  0
  8  7  1  0
  9 10  1  1
 10  4  1  0
 11  9  1  0
 12 11  2  0
 14 13  1  6
 14 15  1  0
 16 14  1  0
 17 18  1  0
 17 16  1  6
 18 11  1  0
 19 17  1  0
 20 19  1  0
 21 19  2  0
M  END
$$$$
