ATL.pdb
     RDKit          3D

 21 20  0  0  1  0  0  0  0  0999 V2000
    8.7817  -12.4192   19.2237 C   0  0  0  0  0  0  0  0  0  0  0  0
    8.7378  -13.8835   18.8489 C   0  0  2  0  0  0  0  0  0  0  0  0
    8.0700  -14.1185   17.6002 N   0  0  0  0  0  0  0  0  0  0  0  0
    8.0508  -14.6525   19.9033 C   0  0  0  0  0  0  0  0  0  0  0  0
    7.0801  -15.4332   19.6310 O   0  0  0  0  0  0  0  0  0  0  0  0
    7.9831  -17.1359   20.4367 C   0  0  0  0  0  0  0  0  0  0  0  0
    8.5705  -16.8596   21.8114 C   0  0  1  0  0  0  0  0  0  0  0  0
    9.9552  -16.9213   21.7383 O   0  0  0  0  0  0  0  0  0  0  0  0
    8.0841  -15.4819   22.2172 C   0  0  2  0  0  0  0  0  0  0  0  0
    8.4846  -14.5142   21.2368 N   0  0  0  0  0  0  0  0  0  0  0  0
    8.5974  -15.0996   23.5604 C   0  0  0  0  0  0  0  0  0  0  0  0
    9.8240  -14.8700   23.6899 O   0  0  0  0  0  0  0  0  0  0  0  0
    5.5956  -11.9102   26.9515 C   0  0  0  0  0  0  0  0  0  0  0  0
    6.9606  -12.4793   26.8591 C   0  0  2  0  0  0  0  0  0  0  0  0
    7.6236  -11.9407   25.5765 C   0  0  0  0  0  0  0  0  0  0  0  0
    7.0989  -13.9506   26.8114 C   0  0  0  0  0  0  0  0  0  0  0  0
    8.1719  -14.5364   25.9750 C   0  0  2  0  0  0  0  0  0  0  0  0
    7.7389  -14.9874   24.6991 N   0  0  0  0  0  0  0  0  0  0  0  0
    8.8695  -15.5813   26.7673 C   0  0  0  0  0  0  0  0  0  0  0  0
    8.8959  -16.8592   26.2266 O   0  0  0  0  0  0  0  0  0  0  0  0
    9.4189  -15.3855   27.8606 O   0  0  0  0  0  0  0  0  0  0  0  0
  2  1  1  1
  3  2  1  0
  4  2  1  0
  4  5  2  0
  7  6  1  6
  7  9  1  0
  8  7  1  0
  9 10  1  6
 10  4  1  0
 11  9  1  0
 12 11  2  0
 14 13  1  6
 14 15  1  0
 16 14  1  0
 17 18  1  0
 17 16  1  1
 18 11  1  0
 19 17  1  0
 20 19  1  0
 21 19  2  0
M  END
$$$$
