HSL.pdb
     RDKit          3D

 25 25  0  0  1  0  0  0  0  0999 V2000
    8.1098  -18.7271   18.8266 N   0  0  0  0  0  0  0  0  0  0  0  0
    8.9430  -18.2263   19.8981 C   0  0  1  0  0  0  0  0  0  0  0  0
    9.9193  -17.2130   19.3320 C   0  0  0  0  0  0  0  0  0  0  0  0
   11.1183  -17.9085   18.8186 C   0  0  0  0  0  0  0  0  0  0  0  0
   11.3837  -19.2684   18.9141 C   0  0  0  0  0  0  0  0  0  0  0  0
   12.5911  -19.5130   18.3317 N   0  0  0  0  0  0  0  0  0  0  0  0
   13.0540  -18.3451   17.8926 C   0  0  0  0  0  0  0  0  0  0  0  0
   12.1706  -17.3714   18.1826 N   0  0  0  0  0  0  0  0  0  0  0  0
    8.2053  -17.6488   21.0224 C   0  0  0  0  0  0  0  0  0  0  0  0
    7.2179  -16.8925   20.6988 O   0  0  0  0  0  0  0  0  0  0  0  0
    7.9042  -19.1541   24.6900 O   0  0  0  0  0  0  0  0  0  0  0  0
    6.9018  -18.3718   24.1175 C   0  0  0  0  0  0  0  0  0  0  0  0
    7.5773  -17.2326   23.3743 C   0  0  2  0  0  0  0  0  0  0  0  0
    8.4494  -17.8247   22.3887 N   0  0  0  0  0  0  0  0  0  0  0  0
    8.2973  -16.3283   24.2780 C   0  0  0  0  0  0  0  0  0  0  0  0
    9.5793  -16.2611   24.2775 O   0  0  0  0  0  0  0  0  0  0  0  0
    5.7740  -11.7512   26.3509 C   0  0  0  0  0  0  0  0  0  0  0  0
    6.7173  -12.7696   25.7452 C   0  0  1  0  0  0  0  0  0  0  0  0
    7.7996  -12.0006   24.9940 C   0  0  0  0  0  0  0  0  0  0  0  0
    7.4062  -13.6264   26.7481 C   0  0  0  0  0  0  0  0  0  0  0  0
    8.3129  -14.6734   26.1695 C   0  0  2  0  0  0  0  0  0  0  0  0
    7.6026  -15.4932   25.1887 N   0  0  0  0  0  0  0  0  0  0  0  0
    8.9541  -15.5415   27.1980 C   0  0  0  0  0  0  0  0  0  0  0  0
   10.0076  -15.1425   27.9931 O   0  0  0  0  0  0  0  0  0  0  0  0
    8.5232  -16.7323   27.3759 O   0  0  0  0  0  0  0  0  0  0  0  0
  2  1  1  6
  3  2  1  0
  4  3  1  0
  5  4  2  0
  6  5  1  0
  7  6  1  0
  7  8  2  0
  8  4  1  0
  9  2  1  0
  9 10  2  0
 12 11  1  0
 13 12  1  1
 13 14  1  0
 14  9  1  0
 15 13  1  0
 16 15  2  0
 18 19  1  1
 18 17  1  0
 20 18  1  0
 21 22  1  0
 21 20  1  1
 22 15  1  0
 23 21  1  0
 24 23  1  0
 25 23  2  0
M  END
$$$$
