HSL.pdb
     RDKit          3D

 25 25  0  0  1  0  0  0  0  0999 V2000
    6.2287  -16.1215   20.1652 N   0  0  0  0  0  0  0  0  0  0  0  0
    7.4518  -15.7645   20.8504 C   0  0  1  0  0  0  0  0  0  0  0  0
    7.6621  -14.2667   20.7374 C   0  0  0  0  0  0  0  0  0  0  0  0
    7.9718  -13.9108   19.3365 C   0  0  0  0  0  0  0  0  0  0  0  0
    7.1875  -13.1348   18.4931 C   0  0  0  0  0  0  0  0  0  0  0  0
    7.8110  -13.0484   17.2845 N   0  0  0  0  0  0  0  0  0  0  0  0
    8.9399  -13.7468   17.3793 C   0  0  0  0  0  0  0  0  0  0  0  0
    9.0443  -14.2705   18.6152 N   0  0  0  0  0  0  0  0  0  0  0  0
    7.5071  -16.1816   22.2521 C   0  0  0  0  0  0  0  0  0  0  0  0
    6.4943  -15.8400   22.9654 O   0  0  0  0  0  0  0  0  0  0  0  0
    9.9819  -18.9205   23.8261 O   0  0  0  0  0  0  0  0  0  0  0  0
    8.7474  -18.7024   24.4369 C   0  0  0  0  0  0  0  0  0  0  0  0
    8.4200  -17.2262   24.2953 C   0  0  2  0  0  0  0  0  0  0  0  0
    8.5223  -16.8997   22.8933 N   0  0  0  0  0  0  0  0  0  0  0  0
    9.2873  -16.3819   25.1246 C   0  0  0  0  0  0  0  0  0  0  0  0
   10.4447  -16.0053   24.7165 O   0  0  0  0  0  0  0  0  0  0  0  0
    7.6836  -13.3049   26.4252 C   0  0  0  0  0  0  0  0  0  0  0  0
    8.6936  -13.0815   27.5314 C   0  0  1  0  0  0  0  0  0  0  0  0
    8.0330  -12.1942   28.5816 C   0  0  0  0  0  0  0  0  0  0  0  0
    9.1212  -14.3295   28.2201 C   0  0  0  0  0  0  0  0  0  0  0  0
    9.8192  -15.3284   27.3436 C   0  0  2  0  0  0  0  0  0  0  0  0
    8.8792  -15.9500   26.4115 N   0  0  0  0  0  0  0  0  0  0  0  0
   10.5580  -16.3760   28.1045 C   0  0  0  0  0  0  0  0  0  0  0  0
   11.7902  -16.1763   28.6902 O   0  0  0  0  0  0  0  0  0  0  0  0
   10.0436  -17.5392   28.2385 O   0  0  0  0  0  0  0  0  0  0  0  0
  2  1  1  1
  3  2  1  0
  4  3  1  0
  5  4  2  0
  6  5  1  0
  7  6  1  0
  7  8  2  0
  8  4  1  0
  9  2  1  0
  9 10  2  0
 12 11  1  0
 13 12  1  6
 13 14  1  0
 14  9  1  0
 15 13  1  0
 16 15  2  0
 18 19  1  1
 18 17  1  0
 20 18  1  0
 21 22  1  0
 21 20  1  1
 22 15  1  0
 23 21  1  0
 24 23  1  0
 25 23  2  0
M  END
$$$$
