HSL.pdb
     RDKit          3D

 25 25  0  0  1  0  0  0  0  0999 V2000
   10.1684  -18.8586   18.6064 N   0  0  0  0  0  0  0  0  0  0  0  0
   10.9208  -18.1953   19.6490 C   0  0  1  0  0  0  0  0  0  0  0  0
   11.4628  -16.8854   19.1098 C   0  0  0  0  0  0  0  0  0  0  0  0
   12.5532  -17.1547   18.1486 C   0  0  0  0  0  0  0  0  0  0  0  0
   13.8976  -17.3186   18.4558 C   0  0  0  0  0  0  0  0  0  0  0  0
   14.5800  -17.5378   17.2968 N   0  0  0  0  0  0  0  0  0  0  0  0
   13.6878  -17.5099   16.3098 C   0  0  0  0  0  0  0  0  0  0  0  0
   12.4617  -17.2792   16.8159 N   0  0  0  0  0  0  0  0  0  0  0  0
   10.1729  -17.9657   20.8858 C   0  0  0  0  0  0  0  0  0  0  0  0
    9.0078  -17.4457   20.7327 O   0  0  0  0  0  0  0  0  0  0  0  0
   10.2207  -20.2086   24.0001 O   0  0  0  0  0  0  0  0  0  0  0  0
    9.1324  -19.3862   23.7104 C   0  0  0  0  0  0  0  0  0  0  0  0
    9.6786  -18.0285   23.3047 C   0  0  2  0  0  0  0  0  0  0  0  0
   10.5767  -18.2446   22.1960 N   0  0  0  0  0  0  0  0  0  0  0  0
   10.3334  -17.3362   24.4203 C   0  0  0  0  0  0  0  0  0  0  0  0
   11.6100  -17.3409   24.5553 O   0  0  0  0  0  0  0  0  0  0  0  0
   11.2746  -13.4907   28.0989 C   0  0  0  0  0  0  0  0  0  0  0  0
    9.9749  -14.2395   28.3092 C   0  0  1  0  0  0  0  0  0  0  0  0
    8.9367  -13.2287   28.7859 C   0  0  0  0  0  0  0  0  0  0  0  0
    9.4352  -14.8713   27.0747 C   0  0  0  0  0  0  0  0  0  0  0  0
   10.2096  -16.0586   26.5812 C   0  0  2  0  0  0  0  0  0  0  0  0
    9.5791  -16.6351   25.3943 N   0  0  0  0  0  0  0  0  0  0  0  0
   10.4136  -17.1105   27.6177 C   0  0  0  0  0  0  0  0  0  0  0  0
   11.5622  -17.2367   28.3701 O   0  0  0  0  0  0  0  0  0  0  0  0
    9.4858  -17.9608   27.8446 O   0  0  0  0  0  0  0  0  0  0  0  0
  2  1  1  6
  3  2  1  0
  4  3  1  0
  5  4  2  0
  6  5  1  0
  7  6  1  0
  7  8  2  0
  8  4  1  0
  9  2  1  0
  9 10  2  0
 12 11  1  0
 13 12  1  1
 13 14  1  0
 14  9  1  0
 15 13  1  0
 16 15  2  0
 18 19  1  6
 18 17  1  0
 20 18  1  0
 21 22  1  0
 21 20  1  1
 22 15  1  0
 23 21  1  0
 24 23  1  0
 25 23  2  0
M  END
$$$$
