HSL.pdb
     RDKit          3D

 25 25  0  0  1  0  0  0  0  0999 V2000
   12.0191  -17.0634   18.6535 N   0  0  0  0  0  0  0  0  0  0  0  0
   11.9602  -16.1096   19.7397 C   0  0  1  0  0  0  0  0  0  0  0  0
   12.1098  -14.7094   19.1761 C   0  0  0  0  0  0  0  0  0  0  0  0
   13.5435  -14.3659   19.0676 C   0  0  0  0  0  0  0  0  0  0  0  0
   14.5837  -14.9450   19.7826 C   0  0  0  0  0  0  0  0  0  0  0  0
   15.7492  -14.3476   19.4063 N   0  0  0  0  0  0  0  0  0  0  0  0
   15.4386  -13.4323   18.4916 C   0  0  0  0  0  0  0  0  0  0  0  0
   14.1087  -13.4372   18.2815 N   0  0  0  0  0  0  0  0  0  0  0  0
   10.7539  -16.2002   20.5633 C   0  0  0  0  0  0  0  0  0  0  0  0
    9.7098  -15.6372   20.0690 O   0  0  0  0  0  0  0  0  0  0  0  0
   10.0527  -18.6571   23.7099 O   0  0  0  0  0  0  0  0  0  0  0  0
    8.9971  -18.1537   22.9502 C   0  0  0  0  0  0  0  0  0  0  0  0
    9.3653  -16.7408   22.5327 C   0  0  2  0  0  0  0  0  0  0  0  0
   10.6110  -16.8214   21.8087 N   0  0  0  0  0  0  0  0  0  0  0  0
    9.4488  -15.8264   23.6772 C   0  0  0  0  0  0  0  0  0  0  0  0
   10.5520  -15.6394   24.3065 O   0  0  0  0  0  0  0  0  0  0  0  0
    8.1652  -11.6737   26.9351 C   0  0  0  0  0  0  0  0  0  0  0  0
    7.0470  -12.6788   26.7529 C   0  0  1  0  0  0  0  0  0  0  0  0
    5.7358  -11.9008   26.7063 C   0  0  0  0  0  0  0  0  0  0  0  0
    7.1368  -13.4600   25.4895 C   0  0  0  0  0  0  0  0  0  0  0  0
    8.3302  -14.3649   25.3887 C   0  0  2  0  0  0  0  0  0  0  0  0
    8.3112  -15.1140   24.1329 N   0  0  0  0  0  0  0  0  0  0  0  0
    8.4700  -15.2983   26.5426 C   0  0  0  0  0  0  0  0  0  0  0  0
    7.8484  -16.5268   26.6181 O   0  0  0  0  0  0  0  0  0  0  0  0
    9.2033  -14.9672   27.5367 O   0  0  0  0  0  0  0  0  0  0  0  0
  2  1  1  6
  3  2  1  0
  4  3  1  0
  5  4  2  0
  6  5  1  0
  7  6  1  0
  7  8  2  0
  8  4  1  0
  9  2  1  0
  9 10  2  0
 12 11  1  0
 13 12  1  1
 13 14  1  0
 14  9  1  0
 15 13  1  0
 16 15  2  0
 18 19  1  6
 18 17  1  0
 20 18  1  0
 21 22  1  0
 21 20  1  1
 22 15  1  0
 23 21  1  0
 24 23  1  0
 25 23  2  0
M  END
$$$$
