HSL.pdb
     RDKit          3D

 25 25  0  0  1  0  0  0  0  0999 V2000
    9.2195  -15.9274   19.4447 N   0  0  0  0  0  0  0  0  0  0  0  0
    8.5228  -14.9846   20.2925 C   0  0  1  0  0  0  0  0  0  0  0  0
    7.1888  -14.6418   19.6577 C   0  0  0  0  0  0  0  0  0  0  0  0
    7.3887  -14.2896   18.2360 C   0  0  0  0  0  0  0  0  0  0  0  0
    8.0485  -13.1674   17.7523 C   0  0  0  0  0  0  0  0  0  0  0  0
    8.0086  -13.1985   16.3906 N   0  0  0  0  0  0  0  0  0  0  0  0
    7.3473  -14.3010   16.0467 C   0  0  0  0  0  0  0  0  0  0  0  0
    6.9698  -14.9652   17.1553 N   0  0  0  0  0  0  0  0  0  0  0  0
    8.3292  -15.4350   21.6714 C   0  0  0  0  0  0  0  0  0  0  0  0
    7.4224  -14.8067   22.3305 O   0  0  0  0  0  0  0  0  0  0  0  0
   10.4878  -18.2740   23.5661 O   0  0  0  0  0  0  0  0  0  0  0  0
    9.1363  -18.2495   23.9092 C   0  0  0  0  0  0  0  0  0  0  0  0
    8.6313  -16.8352   23.6832 C   0  0  2  0  0  0  0  0  0  0  0  0
    9.0091  -16.4571   22.3427 N   0  0  0  0  0  0  0  0  0  0  0  0
    9.1414  -15.8952   24.6877 C   0  0  0  0  0  0  0  0  0  0  0  0
   10.2912  -15.3382   24.5615 O   0  0  0  0  0  0  0  0  0  0  0  0
    6.0329  -12.1387   27.0840 C   0  0  0  0  0  0  0  0  0  0  0  0
    7.1907  -12.9230   26.5022 C   0  0  1  0  0  0  0  0  0  0  0  0
    8.2421  -11.9163   26.0465 C   0  0  0  0  0  0  0  0  0  0  0  0
    7.8516  -13.8352   27.4747 C   0  0  0  0  0  0  0  0  0  0  0  0
    8.9238  -14.7101   26.8933 C   0  0  2  0  0  0  0  0  0  0  0  0
    8.3824  -15.5665   25.8388 N   0  0  0  0  0  0  0  0  0  0  0  0
    9.6373  -15.5344   27.9100 C   0  0  0  0  0  0  0  0  0  0  0  0
   10.5038  -15.0169   28.8496 O   0  0  0  0  0  0  0  0  0  0  0  0
    9.4552  -16.8000   27.9368 O   0  0  0  0  0  0  0  0  0  0  0  0
  2  1  1  6
  3  2  1  0
  4  3  1  0
  5  4  2  0
  6  5  1  0
  7  6  1  0
  7  8  2  0
  8  4  1  0
  9  2  1  0
  9 10  2  0
 12 11  1  0
 13 12  1  1
 13 14  1  0
 14  9  1  0
 15 13  1  0
 16 15  2  0
 18 19  1  1
 18 17  1  0
 20 18  1  0
 21 22  1  0
 21 20  1  1
 22 15  1  0
 23 21  1  0
 24 23  1  0
 25 23  2  0
M  END
$$$$
