FAM.pdb
     RDKit          3D

 25 25  0  0  1  0  0  0  0  0999 V2000
    6.6134  -15.8252   25.4628 N   0  0  0  0  0  0  0  0  0  0  0  0
    7.1875  -15.4041   24.2014 C   0  0  1  0  0  0  0  0  0  0  0  0
    7.7540  -14.0173   24.2976 C   0  0  0  0  0  0  0  0  0  0  0  0
    7.0037  -13.2588   25.3313 C   0  0  0  0  0  0  0  0  0  0  0  0
    5.6297  -13.3829   25.3599 C   0  0  0  0  0  0  0  0  0  0  0  0
    4.9248  -12.6688   26.3324 C   0  0  0  0  0  0  0  0  0  0  0  0
    5.5981  -11.8678   27.2297 C   0  0  0  0  0  0  0  0  0  0  0  0
    6.9745  -11.7575   27.1838 C   0  0  0  0  0  0  0  0  0  0  0  0
    7.6818  -12.4578   26.2281 C   0  0  0  0  0  0  0  0  0  0  0  0
    8.1543  -16.3900   23.6732 C   0  0  0  0  0  0  0  0  0  0  0  0
    8.2538  -17.5097   24.2458 O   0  0  0  0  0  0  0  0  0  0  0  0
   10.6140  -16.4772   20.8481 C   0  0  0  0  0  0  0  0  0  0  0  0
   10.0212  -17.0607   22.1198 C   0  0  2  0  0  0  0  0  0  0  0  0
    8.9817  -16.1402   22.5476 N   0  0  0  0  0  0  0  0  0  0  0  0
   11.1087  -17.1765   23.0998 C   0  0  0  0  0  0  0  0  0  0  0  0
   12.1055  -17.9552   22.9098 O   0  0  0  0  0  0  0  0  0  0  0  0
   11.3184  -14.0731   29.5310 C   0  0  0  0  0  0  0  0  0  0  0  0
   10.5588  -13.6301   27.9865 S   0  0  0  0  0  0  0  0  0  0  0  0
   10.6076  -14.8949   26.7369 C   0  0  0  0  0  0  0  0  0  0  0  0
   11.9421  -15.3526   26.2939 C   0  0  0  0  0  0  0  0  0  0  0  0
   12.0052  -16.4953   25.3540 C   0  0  2  0  0  0  0  0  0  0  0  0
   11.0387  -16.3965   24.2873 N   0  0  0  0  0  0  0  0  0  0  0  0
   12.0220  -17.8203   26.0048 C   0  0  0  0  0  0  0  0  0  0  0  0
   12.9527  -18.2445   26.7361 O   0  0  0  0  0  0  0  0  0  0  0  0
   10.9499  -18.6798   25.8148 O   0  0  0  0  0  0  0  0  0  0  0  0
  2  1  1  1
  2 10  1  0
  3  2  1  0
  3  4  1  0
  4  9  2  0
  4  5  1  0
  5  6  2  0
  6  7  1  0
  8  7  2  0
  9  8  1  0
 10 14  1  0
 10 11  2  0
 13 12  1  6
 13 15  1  0
 14 13  1  0
 15 16  2  0
 18 17  1  0
 19 18  1  0
 20 19  1  0
 21 20  1  1
 21 23  1  0
 22 21  1  0
 22 15  1  0
 23 25  1  0
 24 23  2  0
M  END
$$$$
