FAM.pdb
     RDKit          3D

 25 25  0  0  1  0  0  0  0  0999 V2000
    6.5887  -18.1242   26.2661 N   0  0  0  0  0  0  0  0  0  0  0  0
    6.8026  -16.8634   25.5859 C   0  0  1  0  0  0  0  0  0  0  0  0
    7.9354  -16.0969   26.2046 C   0  0  0  0  0  0  0  0  0  0  0  0
    7.6773  -14.6422   26.0491 C   0  0  0  0  0  0  0  0  0  0  0  0
    6.4215  -14.1669   26.3673 C   0  0  0  0  0  0  0  0  0  0  0  0
    6.1796  -12.7984   26.2204 C   0  0  0  0  0  0  0  0  0  0  0  0
    7.1777  -11.9615   25.7694 C   0  0  0  0  0  0  0  0  0  0  0  0
    8.4283  -12.4580   25.4563 C   0  0  0  0  0  0  0  0  0  0  0  0
    8.6796  -13.8075   25.5972 C   0  0  0  0  0  0  0  0  0  0  0  0
    6.9496  -17.0370   24.1252 C   0  0  0  0  0  0  0  0  0  0  0  0
    7.6539  -17.9912   23.6949 O   0  0  0  0  0  0  0  0  0  0  0  0
    5.5200  -15.3686   21.0914 C   0  0  0  0  0  0  0  0  0  0  0  0
    6.3934  -16.4265   21.7447 C   0  0  2  0  0  0  0  0  0  0  0  0
    6.3351  -16.1800   23.1754 N   0  0  0  0  0  0  0  0  0  0  0  0
    7.7495  -16.2746   21.2021 C   0  0  0  0  0  0  0  0  0  0  0  0
    8.0007  -16.4493   19.9603 O   0  0  0  0  0  0  0  0  0  0  0  0
   12.9072  -12.8345   18.1754 C   0  0  0  0  0  0  0  0  0  0  0  0
   11.3823  -13.3572   18.9239 S   0  0  0  0  0  0  0  0  0  0  0  0
   11.4609  -13.6200   20.6813 C   0  0  0  0  0  0  0  0  0  0  0  0
   10.2294  -14.0970   21.3464 C   0  0  0  0  0  0  0  0  0  0  0  0
   10.1198  -15.5433   21.6452 C   0  0  2  0  0  0  0  0  0  0  0  0
    8.8019  -15.9239   22.0926 N   0  0  0  0  0  0  0  0  0  0  0  0
   11.2011  -16.0737   22.4989 C   0  0  0  0  0  0  0  0  0  0  0  0
   11.0734  -16.3610   23.7163 O   0  0  0  0  0  0  0  0  0  0  0  0
   12.4572  -16.2803   21.9477 O   0  0  0  0  0  0  0  0  0  0  0  0
  2  1  1  1
  2 10  1  0
  3  2  1  0
  3  4  1  0
  4  9  2  0
  4  5  1  0
  5  6  2  0
  6  7  1  0
  8  7  2  0
  9  8  1  0
 10 14  1  0
 10 11  2  0
 13 12  1  6
 13 15  1  0
 14 13  1  0
 15 16  2  0
 18 17  1  0
 19 18  1  0
 20 19  1  0
 21 20  1  1
 21 23  1  0
 22 21  1  0
 22 15  1  0
 23 25  1  0
 24 23  2  0
M  END
$$$$
