FAM.pdb
     RDKit          3D

 25 25  0  0  1  0  0  0  0  0999 V2000
    6.1208  -17.0075   25.6433 N   0  0  0  0  0  0  0  0  0  0  0  0
    6.5770  -16.6445   24.3173 C   0  0  1  0  0  0  0  0  0  0  0  0
    6.2017  -15.2305   23.9811 C   0  0  0  0  0  0  0  0  0  0  0  0
    6.6498  -14.3367   25.0799 C   0  0  0  0  0  0  0  0  0  0  0  0
    5.9600  -14.3781   26.2743 C   0  0  0  0  0  0  0  0  0  0  0  0
    6.3822  -13.5367   27.3071 C   0  0  0  0  0  0  0  0  0  0  0  0
    7.4584  -12.6957   27.1214 C   0  0  0  0  0  0  0  0  0  0  0  0
    8.1354  -12.6698   25.9173 C   0  0  0  0  0  0  0  0  0  0  0  0
    7.7281  -13.4960   24.8897 C   0  0  0  0  0  0  0  0  0  0  0  0
    8.0166  -16.9228   24.1284 C   0  0  0  0  0  0  0  0  0  0  0  0
    8.6309  -17.5740   25.0173 O   0  0  0  0  0  0  0  0  0  0  0  0
   10.4657  -16.4272   21.3442 C   0  0  0  0  0  0  0  0  0  0  0  0
   10.1289  -16.8786   22.7556 C   0  0  2  0  0  0  0  0  0  0  0  0
    8.7481  -16.4924   22.9911 N   0  0  0  0  0  0  0  0  0  0  0  0
   11.0644  -16.2080   23.6675 C   0  0  0  0  0  0  0  0  0  0  0  0
   11.2047  -14.9367   23.6721 O   0  0  0  0  0  0  0  0  0  0  0  0
    9.5417  -12.9931   27.3915 C   0  0  0  0  0  0  0  0  0  0  0  0
   10.4903  -13.9386   28.5598 S   0  0  0  0  0  0  0  0  0  0  0  0
   11.6353  -15.0922   27.8374 C   0  0  0  0  0  0  0  0  0  0  0  0
   11.3021  -15.6219   26.4977 C   0  0  0  0  0  0  0  0  0  0  0  0
   12.2723  -16.5372   25.8542 C   0  0  2  0  0  0  0  0  0  0  0  0
   11.8285  -17.0057   24.5637 N   0  0  0  0  0  0  0  0  0  0  0  0
   12.7637  -17.6193   26.7300 C   0  0  0  0  0  0  0  0  0  0  0  0
   13.3538  -17.4384   27.8254 O   0  0  0  0  0  0  0  0  0  0  0  0
   12.5759  -18.9384   26.3441 O   0  0  0  0  0  0  0  0  0  0  0  0
  2  1  1  1
  2 10  1  0
  3  2  1  0
  3  4  1  0
  4  9  2  0
  4  5  1  0
  5  6  2  0
  6  7  1  0
  8  7  2  0
  9  8  1  0
 10 14  1  0
 10 11  2  0
 13 12  1  6
 13 15  1  0
 14 13  1  0
 15 16  2  0
 18 17  1  0
 19 18  1  0
 20 19  1  0
 21 20  1  1
 21 23  1  0
 22 21  1  0
 22 15  1  0
 23 25  1  0
 24 23  2  0
M  END
$$$$
