FAM.pdb
     RDKit          3D

 25 25  0  0  1  0  0  0  0  0999 V2000
    5.7658  -17.6391   24.4028 N   0  0  0  0  0  0  0  0  0  0  0  0
    6.7049  -16.5409   24.5025 C   0  0  1  0  0  0  0  0  0  0  0  0
    6.7342  -15.9746   25.8924 C   0  0  0  0  0  0  0  0  0  0  0  0
    6.6576  -14.4932   25.8131 C   0  0  0  0  0  0  0  0  0  0  0  0
    5.5897  -13.8637   26.4193 C   0  0  0  0  0  0  0  0  0  0  0  0
    5.5183  -12.4702   26.3438 C   0  0  0  0  0  0  0  0  0  0  0  0
    6.4950  -11.7600   25.6791 C   0  0  0  0  0  0  0  0  0  0  0  0
    7.5561  -12.4099   25.0788 C   0  0  0  0  0  0  0  0  0  0  0  0
    7.6377  -13.7858   25.1464 C   0  0  0  0  0  0  0  0  0  0  0  0
    8.0452  -16.9071   23.9973 C   0  0  0  0  0  0  0  0  0  0  0  0
    8.5716  -17.9820   24.3961 O   0  0  0  0  0  0  0  0  0  0  0  0
   10.4231  -15.5306   21.4624 C   0  0  0  0  0  0  0  0  0  0  0  0
   10.1111  -16.4546   22.6277 C   0  0  2  0  0  0  0  0  0  0  0  0
    8.7751  -16.1066   23.0806 N   0  0  0  0  0  0  0  0  0  0  0  0
   11.1323  -16.2248   23.6577 C   0  0  0  0  0  0  0  0  0  0  0  0
   11.8277  -15.1519   23.6880 O   0  0  0  0  0  0  0  0  0  0  0  0
   10.1219  -13.1098   27.8392 C   0  0  0  0  0  0  0  0  0  0  0  0
   11.5518  -13.8445   28.5971 S   0  0  0  0  0  0  0  0  0  0  0  0
   12.0775  -15.3820   27.8735 C   0  0  0  0  0  0  0  0  0  0  0  0
   11.5598  -15.7038   26.5263 C   0  0  0  0  0  0  0  0  0  0  0  0
   11.9935  -16.9755   25.9036 C   0  0  2  0  0  0  0  0  0  0  0  0
   11.3431  -17.2307   24.6412 N   0  0  0  0  0  0  0  0  0  0  0  0
   11.9764  -18.1376   26.8138 C   0  0  0  0  0  0  0  0  0  0  0  0
   12.6703  -18.2369   27.8575 O   0  0  0  0  0  0  0  0  0  0  0  0
   11.1465  -19.2106   26.5237 O   0  0  0  0  0  0  0  0  0  0  0  0
  2  1  1  1
  2 10  1  0
  3  2  1  0
  3  4  1  0
  4  9  2  0
  4  5  1  0
  5  6  2  0
  6  7  1  0
  8  7  2  0
  9  8  1  0
 10 14  1  0
 10 11  2  0
 13 12  1  6
 13 15  1  0
 14 13  1  0
 15 16  2  0
 18 17  1  0
 19 18  1  0
 20 19  1  0
 21 20  1  1
 21 23  1  0
 22 21  1  0
 22 15  1  0
 23 25  1  0
 24 23  2  0
M  END
$$$$
