FAM.pdb
     RDKit          3D

 25 25  0  0  1  0  0  0  0  0999 V2000
    6.5794  -18.3732   21.7033 N   0  0  0  0  0  0  0  0  0  0  0  0
    7.2234  -17.0985   21.9449 C   0  0  1  0  0  0  0  0  0  0  0  0
    6.2814  -16.1280   22.5964 C   0  0  0  0  0  0  0  0  0  0  0  0
    6.8532  -14.7603   22.5006 C   0  0  0  0  0  0  0  0  0  0  0  0
    7.2546  -14.3084   21.2601 C   0  0  0  0  0  0  0  0  0  0  0  0
    7.7926  -13.0218   21.1712 C   0  0  0  0  0  0  0  0  0  0  0  0
    7.9120  -12.2397   22.3000 C   0  0  0  0  0  0  0  0  0  0  0  0
    7.5040  -12.7114   23.5328 C   0  0  0  0  0  0  0  0  0  0  0  0
    6.9710  -13.9803   23.6335 C   0  0  0  0  0  0  0  0  0  0  0  0
    8.4987  -17.2491   22.6774 C   0  0  0  0  0  0  0  0  0  0  0  0
    8.5427  -18.0326   23.6652 O   0  0  0  0  0  0  0  0  0  0  0  0
   12.0136  -16.2439   21.9451 C   0  0  0  0  0  0  0  0  0  0  0  0
   10.9907  -16.9175   22.8447 C   0  0  2  0  0  0  0  0  0  0  0  0
    9.6840  -16.5533   22.3242 N   0  0  0  0  0  0  0  0  0  0  0  0
   11.2110  -16.4227   24.2096 C   0  0  0  0  0  0  0  0  0  0  0  0
   12.3841  -16.3316   24.7111 O   0  0  0  0  0  0  0  0  0  0  0  0
    7.1793  -11.2703   25.7151 C   0  0  0  0  0  0  0  0  0  0  0  0
    7.3506  -13.0351   25.8370 S   0  0  0  0  0  0  0  0  0  0  0  0
    8.8817  -13.5925   26.5503 C   0  0  0  0  0  0  0  0  0  0  0  0
    8.9776  -15.0251   26.9037 C   0  0  0  0  0  0  0  0  0  0  0  0
   10.1455  -15.7852   26.4022 C   0  0  2  0  0  0  0  0  0  0  0  0
   10.0808  -16.0383   24.9832 N   0  0  0  0  0  0  0  0  0  0  0  0
   10.4778  -16.9859   27.1941 C   0  0  0  0  0  0  0  0  0  0  0  0
   10.4933  -18.1584   26.7402 O   0  0  0  0  0  0  0  0  0  0  0  0
   10.7997  -16.8425   28.5357 O   0  0  0  0  0  0  0  0  0  0  0  0
  2  1  1  1
  2 10  1  0
  3  2  1  0
  3  4  1  0
  4  9  2  0
  4  5  1  0
  5  6  2  0
  6  7  1  0
  8  7  2  0
  9  8  1  0
 10 14  1  0
 10 11  2  0
 13 12  1  6
 13 15  1  0
 14 13  1  0
 15 16  2  0
 18 17  1  0
 19 18  1  0
 20 19  1  0
 21 20  1  1
 21 23  1  0
 22 21  1  0
 22 15  1  0
 23 25  1  0
 24 23  2  0
M  END
$$$$
