FAM.pdb
     RDKit          3D

 25 25  0  0  1  0  0  0  0  0999 V2000
    5.4229  -17.9509   24.4050 N   0  0  0  0  0  0  0  0  0  0  0  0
    6.2584  -16.7679   24.3854 C   0  0  1  0  0  0  0  0  0  0  0  0
    6.6562  -16.3598   25.7741 C   0  0  0  0  0  0  0  0  0  0  0  0
    6.8934  -14.8935   25.7983 C   0  0  0  0  0  0  0  0  0  0  0  0
    5.8673  -14.0756   26.2252 C   0  0  0  0  0  0  0  0  0  0  0  0
    6.0914  -12.6964   26.2473 C   0  0  0  0  0  0  0  0  0  0  0  0
    7.3082  -12.1843   25.8507 C   0  0  0  0  0  0  0  0  0  0  0  0
    8.3225  -13.0210   25.4265 C   0  0  0  0  0  0  0  0  0  0  0  0
    8.1134  -14.3848   25.4003 C   0  0  0  0  0  0  0  0  0  0  0  0
    7.4114  -16.9160   23.4720 C   0  0  0  0  0  0  0  0  0  0  0  0
    8.1396  -17.9411   23.5745 O   0  0  0  0  0  0  0  0  0  0  0  0
    8.9899  -14.7832   20.8259 C   0  0  0  0  0  0  0  0  0  0  0  0
    8.9953  -15.9955   21.7421 C   0  0  2  0  0  0  0  0  0  0  0  0
    7.7436  -15.9582   22.4789 N   0  0  0  0  0  0  0  0  0  0  0  0
   10.1680  -15.8799   22.6184 C   0  0  0  0  0  0  0  0  0  0  0  0
   11.3572  -15.8419   22.1494 O   0  0  0  0  0  0  0  0  0  0  0  0
    9.6018  -13.2630   28.9146 C   0  0  0  0  0  0  0  0  0  0  0  0
   10.9220  -14.4519   28.9638 S   0  0  0  0  0  0  0  0  0  0  0  0
   11.5349  -14.9583   27.3727 C   0  0  0  0  0  0  0  0  0  0  0  0
   10.5346  -15.1897   26.3085 C   0  0  0  0  0  0  0  0  0  0  0  0
   11.0280  -15.5801   24.9679 C   0  0  2  0  0  0  0  0  0  0  0  0
    9.9610  -15.8096   24.0241 N   0  0  0  0  0  0  0  0  0  0  0  0
   12.0381  -16.6566   24.9791 C   0  0  0  0  0  0  0  0  0  0  0  0
   13.2669  -16.4802   25.1783 O   0  0  0  0  0  0  0  0  0  0  0  0
   11.6335  -17.9648   24.7575 O   0  0  0  0  0  0  0  0  0  0  0  0
  2  1  1  1
  2 10  1  0
  3  2  1  0
  3  4  1  0
  4  9  2  0
  4  5  1  0
  5  6  2  0
  6  7  1  0
  8  7  2  0
  9  8  1  0
 10 14  1  0
 10 11  2  0
 13 12  1  6
 13 15  1  0
 14 13  1  0
 15 16  2  0
 18 17  1  0
 19 18  1  0
 20 19  1  0
 21 20  1  1
 21 23  1  0
 22 21  1  0
 22 15  1  0
 23 25  1  0
 24 23  2  0
M  END
$$$$
