FAM.pdb
     RDKit          3D

 25 25  0  0  1  0  0  0  0  0999 V2000
    9.7214  -15.4817   22.4521 N   0  0  0  0  0  0  0  0  0  0  0  0
    9.2155  -14.8288   23.6420 C   0  0  1  0  0  0  0  0  0  0  0  0
    7.7513  -15.1006   23.8307 C   0  0  0  0  0  0  0  0  0  0  0  0
    7.1792  -14.0662   24.7306 C   0  0  0  0  0  0  0  0  0  0  0  0
    7.4349  -12.7410   24.4436 C   0  0  0  0  0  0  0  0  0  0  0  0
    6.8966  -11.7688   25.2909 C   0  0  0  0  0  0  0  0  0  0  0  0
    6.1345  -12.1402   26.3778 C   0  0  0  0  0  0  0  0  0  0  0  0
    5.8905  -13.4731   26.6473 C   0  0  0  0  0  0  0  0  0  0  0  0
    6.4165  -14.4424   25.8180 C   0  0  0  0  0  0  0  0  0  0  0  0
   10.0234  -15.1482   24.8382 C   0  0  0  0  0  0  0  0  0  0  0  0
   11.0157  -15.9172   24.7132 O   0  0  0  0  0  0  0  0  0  0  0  0
   10.3983  -13.5953   28.1679 C   0  0  0  0  0  0  0  0  0  0  0  0
   10.6485  -14.7811   27.2512 C   0  0  2  0  0  0  0  0  0  0  0  0
    9.7385  -14.6307   26.1285 N   0  0  0  0  0  0  0  0  0  0  0  0
   10.3884  -16.0003   28.0274 C   0  0  0  0  0  0  0  0  0  0  0  0
   10.7210  -16.0979   29.2585 O   0  0  0  0  0  0  0  0  0  0  0  0
   11.6378  -19.8809   23.1498 C   0  0  0  0  0  0  0  0  0  0  0  0
    9.9144  -19.7152   23.5514 S   0  0  0  0  0  0  0  0  0  0  0  0
    9.5782  -18.8608   25.0748 C   0  0  0  0  0  0  0  0  0  0  0  0
   10.5293  -19.0692   26.1877 C   0  0  0  0  0  0  0  0  0  0  0  0
   10.2074  -18.4570   27.4972 C   0  0  2  0  0  0  0  0  0  0  0  0
    9.7492  -17.0939   27.3801 N   0  0  0  0  0  0  0  0  0  0  0  0
   11.2502  -18.6352   28.5268 C   0  0  0  0  0  0  0  0  0  0  0  0
   11.0520  -19.1312   29.6650 O   0  0  0  0  0  0  0  0  0  0  0  0
   12.5494  -18.2369   28.2483 O   0  0  0  0  0  0  0  0  0  0  0  0
  2  1  1  6
  2 10  1  0
  3  2  1  0
  3  4  1  0
  4  9  2  0
  4  5  1  0
  5  6  2  0
  6  7  1  0
  8  7  2  0
  9  8  1  0
 10 14  1  0
 10 11  2  0
 13 12  1  1
 13 15  1  0
 14 13  1  0
 15 16  2  0
 18 17  1  0
 19 18  1  0
 20 19  1  0
 21 20  1  6
 21 23  1  0
 22 21  1  0
 22 15  1  0
 23 25  1  0
 24 23  2  0
M  END
$$$$
