FAM.pdb
     RDKit          3D

 25 25  0  0  1  0  0  0  0  0999 V2000
    7.6847  -17.2584   19.0902 N   0  0  0  0  0  0  0  0  0  0  0  0
    8.8661  -16.9571   19.8723 C   0  0  1  0  0  0  0  0  0  0  0  0
    9.4532  -15.6318   19.4822 C   0  0  0  0  0  0  0  0  0  0  0  0
    8.5086  -14.5519   19.8674 C   0  0  0  0  0  0  0  0  0  0  0  0
    7.3883  -14.3581   19.0854 C   0  0  0  0  0  0  0  0  0  0  0  0
    6.5006  -13.3418   19.4484 C   0  0  0  0  0  0  0  0  0  0  0  0
    6.7518  -12.5644   20.5587 C   0  0  0  0  0  0  0  0  0  0  0  0
    7.8797  -12.7751   21.3282 C   0  0  0  0  0  0  0  0  0  0  0  0
    8.7639  -13.7756   20.9800 C   0  0  0  0  0  0  0  0  0  0  0  0
    8.6173  -17.0760   21.3247 C   0  0  0  0  0  0  0  0  0  0  0  0
    7.4494  -16.8780   21.7590 O   0  0  0  0  0  0  0  0  0  0  0  0
    9.9435  -18.9909   24.0085 C   0  0  0  0  0  0  0  0  0  0  0  0
    9.3523  -17.6327   23.6696 C   0  0  2  0  0  0  0  0  0  0  0  0
    9.6311  -17.4038   22.2621 N   0  0  0  0  0  0  0  0  0  0  0  0
    9.9981  -16.6417   24.5398 C   0  0  0  0  0  0  0  0  0  0  0  0
   11.1489  -16.1549   24.2668 O   0  0  0  0  0  0  0  0  0  0  0  0
    6.1820  -11.5645   25.2232 C   0  0  0  0  0  0  0  0  0  0  0  0
    7.0702  -12.3483   26.5482 S   0  0  0  0  0  0  0  0  0  0  0  0
    8.2340  -13.5928   26.0378 C   0  0  0  0  0  0  0  0  0  0  0  0
    9.0405  -14.2354   27.0976 C   0  0  0  0  0  0  0  0  0  0  0  0
    9.9127  -15.3686   26.7127 C   0  0  2  0  0  0  0  0  0  0  0  0
    9.3143  -16.2211   25.7142 N   0  0  0  0  0  0  0  0  0  0  0  0
   10.4814  -16.1154   27.8521 C   0  0  0  0  0  0  0  0  0  0  0  0
   11.2480  -15.6217   28.7177 O   0  0  0  0  0  0  0  0  0  0  0  0
   10.1660  -17.4576   28.0049 O   0  0  0  0  0  0  0  0  0  0  0  0
  2  1  1  6
  2 10  1  0
  3  2  1  0
  3  4  1  0
  4  9  2  0
  4  5  1  0
  5  6  2  0
  6  7  1  0
  8  7  2  0
  9  8  1  0
 10 14  1  0
 10 11  2  0
 13 12  1  1
 13 15  1  0
 14 13  1  0
 15 16  2  0
 18 17  1  0
 19 18  1  0
 20 19  1  0
 21 20  1  1
 21 23  1  0
 22 21  1  0
 22 15  1  0
 23 25  1  0
 24 23  2  0
M  END
$$$$
