DYE.pdb
     RDKit          3D

 30 30  0  0  1  0  0  0  0  0999 V2000
    9.5334  -18.7050   18.9419 N   0  0  0  0  0  0  0  0  0  0  0  0
   10.8909  -18.1210   18.7115 C   0  0  1  0  0  0  0  0  0  0  0  0
   10.8417  -17.5380   17.3319 C   0  0  0  0  0  0  0  0  0  0  0  0
   10.8150  -18.5810   16.3119 C   0  0  0  0  0  0  0  0  0  0  0  0
   11.7996  -19.2985   16.0771 O   0  0  0  0  0  0  0  0  0  0  0  0
   11.1052  -17.1360   19.7913 C   0  0  0  0  0  0  0  0  0  0  0  0
   12.1422  -16.4476   19.8518 O   0  0  0  0  0  0  0  0  0  0  0  0
    9.6639  -18.8059   15.5589 O   0  0  0  0  0  0  0  0  0  0  0  0
    6.1322  -12.2798   18.6087 O   0  0  0  0  0  0  0  0  0  0  0  0
    6.7880  -13.0986   19.5256 C   0  0  0  0  0  0  0  0  0  0  0  0
    7.9310  -12.6639   20.1496 C   0  0  0  0  0  0  0  0  0  0  0  0
    8.5883  -13.4640   21.0579 C   0  0  0  0  0  0  0  0  0  0  0  0
    8.1333  -14.7462   21.3899 C   0  0  0  0  0  0  0  0  0  0  0  0
    8.8987  -15.5576   22.3370 C   0  0  0  0  0  0  0  0  0  0  0  0
   10.2592  -16.0031   21.9029 C   0  0  2  0  0  0  0  0  0  0  0  0
   10.1043  -16.9716   20.7824 N   0  0  0  0  0  0  0  0  0  0  0  0
   11.0600  -16.6526   22.9325 C   0  0  0  0  0  0  0  0  0  0  0  0
   10.5786  -17.6989   23.5079 O   0  0  0  0  0  0  0  0  0  0  0  0
    6.9862  -15.1410   20.7421 C   0  0  0  0  0  0  0  0  0  0  0  0
    6.3115  -14.3579   19.8297 C   0  0  0  0  0  0  0  0  0  0  0  0
   12.3387  -16.2873   23.4015 N   0  0  0  0  0  0  0  0  0  0  0  0
   13.1014  -17.0956   24.3385 C   0  0  1  0  0  0  0  0  0  0  0  0
   14.5705  -16.7172   24.1444 C   0  0  0  0  0  0  0  0  0  0  0  0
   15.5163  -17.5319   24.9450 C   0  0  0  0  0  0  0  0  0  0  0  0
   16.9184  -17.1128   24.9256 C   0  0  0  0  0  0  0  0  0  0  0  0
   17.5286  -16.6618   23.9209 O   0  0  0  0  0  0  0  0  0  0  0  0
   12.7104  -16.9459   25.7410 C   0  0  0  0  0  0  0  0  0  0  0  0
   12.2311  -15.8596   26.1355 O   0  0  0  0  0  0  0  0  0  0  0  0
   17.6732  -17.2047   26.0934 O   0  0  0  0  0  0  0  0  0  0  0  0
   12.8612  -17.9787   26.6295 O   0  0  0  0  0  0  0  0  0  0  0  0
  2  1  1  1
  2  3  1  0
  4  5  2  0
  4  3  1  0
  6  7  2  0
  6  2  1  0
  8  4  1  0
  9 10  1  0
 10 11  2  0
 11 12  1  0
 13 12  2  0
 13 14  1  0
 15 14  1  1
 15 16  1  0
 16  6  1  0
 17 15  1  0
 17 18  2  0
 19 13  1  0
 20 10  1  0
 20 19  2  0
 21 17  1  0
 22 21  1  0
 22 23  1  1
 24 23  1  0
 25 24  1  0
 26 25  2  0
 27 22  1  0
 28 27  2  0
 29 25  1  0
 30 27  1  0
M  END
$$$$
