DYE.pdb
     RDKit          3D

 30 30  0  0  1  0  0  0  0  0999 V2000
   10.2991  -18.6587   18.2417 N   0  0  0  0  0  0  0  0  0  0  0  0
    9.8710  -18.6265   19.6744 C   0  0  1  0  0  0  0  0  0  0  0  0
   10.3395  -19.9254   20.2566 C   0  0  0  0  0  0  0  0  0  0  0  0
    9.7435  -21.0653   19.5676 C   0  0  0  0  0  0  0  0  0  0  0  0
    8.5454  -21.0880   19.2460 O   0  0  0  0  0  0  0  0  0  0  0  0
   10.4945  -17.4243   20.2645 C   0  0  0  0  0  0  0  0  0  0  0  0
   11.5284  -16.9213   19.7837 O   0  0  0  0  0  0  0  0  0  0  0  0
   10.5150  -22.1803   19.2450 O   0  0  0  0  0  0  0  0  0  0  0  0
    7.0084  -12.4179   17.7296 O   0  0  0  0  0  0  0  0  0  0  0  0
    7.5769  -12.9645   18.8782 C   0  0  0  0  0  0  0  0  0  0  0  0
    8.9398  -12.9663   19.0436 C   0  0  0  0  0  0  0  0  0  0  0  0
    9.5138  -13.5037   20.1744 C   0  0  0  0  0  0  0  0  0  0  0  0
    8.7498  -14.0695   21.2028 C   0  0  0  0  0  0  0  0  0  0  0  0
    9.4252  -14.6544   22.3616 C   0  0  0  0  0  0  0  0  0  0  0  0
   10.5061  -15.6507   22.0844 C   0  0  2  0  0  0  0  0  0  0  0  0
    9.8997  -16.8297   21.4063 N   0  0  0  0  0  0  0  0  0  0  0  0
   11.2171  -16.1412   23.2580 C   0  0  0  0  0  0  0  0  0  0  0  0
   11.9525  -15.3127   23.9141 O   0  0  0  0  0  0  0  0  0  0  0  0
    7.3903  -14.0465   20.9960 C   0  0  0  0  0  0  0  0  0  0  0  0
    6.7935  -13.5144   19.8727 C   0  0  0  0  0  0  0  0  0  0  0  0
   11.2086  -17.4424   23.8012 N   0  0  0  0  0  0  0  0  0  0  0  0
   11.9952  -17.8229   24.9629 C   0  0  1  0  0  0  0  0  0  0  0  0
   11.3806  -19.1163   25.5001 C   0  0  0  0  0  0  0  0  0  0  0  0
   11.2976  -19.1781   26.9795 C   0  0  0  0  0  0  0  0  0  0  0  0
   10.7797  -20.4208   27.5535 C   0  0  0  0  0  0  0  0  0  0  0  0
   10.7279  -20.6876   28.7828 O   0  0  0  0  0  0  0  0  0  0  0  0
   13.4257  -17.9979   24.7073 C   0  0  0  0  0  0  0  0  0  0  0  0
   14.2490  -17.7622   25.6196 O   0  0  0  0  0  0  0  0  0  0  0  0
   10.2956  -21.4139   26.7040 O   0  0  0  0  0  0  0  0  0  0  0  0
   13.8775  -18.4169   23.4829 O   0  0  0  0  0  0  0  0  0  0  0  0
  2  1  1  6
  2  3  1  0
  4  5  2  0
  4  3  1  0
  6  7  2  0
  6  2  1  0
  8  4  1  0
  9 10  1  0
 10 11  2  0
 11 12  1  0
 13 12  2  0
 13 14  1  0
 15 14  1  1
 15 16  1  0
 16  6  1  0
 17 15  1  0
 17 18  2  0
 19 13  1  0
 20 10  1  0
 20 19  2  0
 21 17  1  0
 22 21  1  0
 22 23  1  6
 24 23  1  0
 25 24  1  0
 26 25  2  0
 27 22  1  0
 28 27  2  0
 29 25  1  0
 30 27  1  0
M  END
$$$$
