DYE.pdb
     RDKit          3D

 30 30  0  0  1  0  0  0  0  0999 V2000
    7.3420  -14.3250   19.5583 N   0  0  0  0  0  0  0  0  0  0  0  0
    7.4264  -15.5837   20.3618 C   0  0  1  0  0  0  0  0  0  0  0  0
    7.8685  -16.6407   19.3960 C   0  0  0  0  0  0  0  0  0  0  0  0
    6.8475  -16.9031   18.3871 C   0  0  0  0  0  0  0  0  0  0  0  0
    5.6392  -16.9400   18.6665 O   0  0  0  0  0  0  0  0  0  0  0  0
    8.3786  -15.3107   21.4577 C   0  0  0  0  0  0  0  0  0  0  0  0
    9.5533  -14.9614   21.2311 O   0  0  0  0  0  0  0  0  0  0  0  0
    7.2051  -17.1236   17.0582 O   0  0  0  0  0  0  0  0  0  0  0  0
   10.5830  -14.3467   30.1374 O   0  0  0  0  0  0  0  0  0  0  0  0
    9.9367  -14.4104   28.9046 C   0  0  0  0  0  0  0  0  0  0  0  0
    9.4156  -15.5986   28.4559 C   0  0  0  0  0  0  0  0  0  0  0  0
    8.7746  -15.6745   27.2391 C   0  0  0  0  0  0  0  0  0  0  0  0
    8.6215  -14.5599   26.4051 C   0  0  0  0  0  0  0  0  0  0  0  0
    7.9605  -14.7173   25.1092 C   0  0  0  0  0  0  0  0  0  0  0  0
    8.8231  -15.1095   23.9516 C   0  0  2  0  0  0  0  0  0  0  0  0
    7.9427  -15.4499   22.7999 N   0  0  0  0  0  0  0  0  0  0  0  0
    9.6968  -16.2521   24.1848 C   0  0  0  0  0  0  0  0  0  0  0  0
    9.1711  -17.4274   24.1967 O   0  0  0  0  0  0  0  0  0  0  0  0
    9.1580  -13.3915   26.8933 C   0  0  0  0  0  0  0  0  0  0  0  0
    9.8036  -13.2915   28.1074 C   0  0  0  0  0  0  0  0  0  0  0  0
   11.0902  -16.2538   24.4012 N   0  0  0  0  0  0  0  0  0  0  0  0
   11.8507  -17.4635   24.6680 C   0  0  1  0  0  0  0  0  0  0  0  0
   13.2480  -17.2357   24.0892 C   0  0  0  0  0  0  0  0  0  0  0  0
   13.2696  -17.0374   22.6198 C   0  0  0  0  0  0  0  0  0  0  0  0
   14.5788  -16.7948   22.0123 C   0  0  0  0  0  0  0  0  0  0  0  0
   14.7914  -16.6388   20.7812 O   0  0  0  0  0  0  0  0  0  0  0  0
   11.9316  -17.8411   26.0798 C   0  0  0  0  0  0  0  0  0  0  0  0
   11.4352  -17.0903   26.9489 O   0  0  0  0  0  0  0  0  0  0  0  0
   15.7061  -16.7238   22.8286 O   0  0  0  0  0  0  0  0  0  0  0  0
   12.5432  -19.0059   26.4646 O   0  0  0  0  0  0  0  0  0  0  0  0
  2  1  1  6
  2  3  1  0
  4  5  2  0
  4  3  1  0
  6  7  2  0
  6  2  1  0
  8  4  1  0
  9 10  1  0
 10 11  2  0
 11 12  1  0
 13 12  2  0
 13 14  1  0
 15 14  1  1
 15 16  1  0
 16  6  1  0
 17 15  1  0
 17 18  2  0
 19 13  1  0
 20 10  1  0
 20 19  2  0
 21 17  1  0
 22 21  1  0
 22 23  1  1
 24 23  1  0
 25 24  1  0
 26 25  2  0
 27 22  1  0
 28 27  2  0
 29 25  1  0
 30 27  1  0
M  END
$$$$
