DYE.pdb
     RDKit          3D

 30 30  0  0  1  0  0  0  0  0999 V2000
    7.6154  -17.7881   22.2022 N   0  0  0  0  0  0  0  0  0  0  0  0
    8.4436  -16.7215   21.5593 C   0  0  1  0  0  0  0  0  0  0  0  0
    7.4904  -15.9411   20.7060 C   0  0  0  0  0  0  0  0  0  0  0  0
    8.1975  -15.0356   19.8065 C   0  0  0  0  0  0  0  0  0  0  0  0
    9.3575  -15.2572   19.4263 O   0  0  0  0  0  0  0  0  0  0  0  0
    9.0562  -15.9535   22.6625 C   0  0  0  0  0  0  0  0  0  0  0  0
    9.7663  -14.9524   22.4466 O   0  0  0  0  0  0  0  0  0  0  0  0
    7.5807  -13.8760   19.3401 O   0  0  0  0  0  0  0  0  0  0  0  0
    5.5919  -10.6206   26.0070 O   0  0  0  0  0  0  0  0  0  0  0  0
    6.2761  -11.8326   26.0711 C   0  0  0  0  0  0  0  0  0  0  0  0
    7.6457  -11.8514   26.1630 C   0  0  0  0  0  0  0  0  0  0  0  0
    8.3335  -13.0430   26.2269 C   0  0  0  0  0  0  0  0  0  0  0  0
    7.6828  -14.2829   26.2022 C   0  0  0  0  0  0  0  0  0  0  0  0
    8.4763  -15.5118   26.2385 C   0  0  0  0  0  0  0  0  0  0  0  0
    9.4893  -15.6968   25.1533 C   0  0  2  0  0  0  0  0  0  0  0  0
    8.8289  -16.3678   23.9996 N   0  0  0  0  0  0  0  0  0  0  0  0
   10.6515  -16.4974   25.5160 C   0  0  0  0  0  0  0  0  0  0  0  0
   11.3342  -16.1455   26.5493 O   0  0  0  0  0  0  0  0  0  0  0  0
    6.3122  -14.2175   26.1096 C   0  0  0  0  0  0  0  0  0  0  0  0
    5.6026  -13.0372   26.0443 C   0  0  0  0  0  0  0  0  0  0  0  0
   11.1498  -17.6503   24.8750 N   0  0  0  0  0  0  0  0  0  0  0  0
   12.3260  -18.3693   25.3362 C   0  0  1  0  0  0  0  0  0  0  0  0
   11.9255  -19.8423   25.4328 C   0  0  0  0  0  0  0  0  0  0  0  0
   10.7805  -20.1000   26.3393 C   0  0  0  0  0  0  0  0  0  0  0  0
   10.3523  -21.4933   26.4712 C   0  0  0  0  0  0  0  0  0  0  0  0
   11.1220  -22.4820   26.5939 O   0  0  0  0  0  0  0  0  0  0  0  0
   13.5135  -18.2110   24.4954 C   0  0  0  0  0  0  0  0  0  0  0  0
   13.4509  -17.5022   23.4661 O   0  0  0  0  0  0  0  0  0  0  0  0
    8.9909  -21.7911   26.4652 O   0  0  0  0  0  0  0  0  0  0  0  0
   14.6942  -18.8275   24.8188 O   0  0  0  0  0  0  0  0  0  0  0  0
  2  1  1  1
  2  3  1  0
  4  5  2  0
  4  3  1  0
  6  7  2  0
  6  2  1  0
  8  4  1  0
  9 10  1  0
 10 11  2  0
 11 12  1  0
 13 12  2  0
 13 14  1  0
 15 14  1  1
 15 16  1  0
 16  6  1  0
 17 15  1  0
 17 18  2  0
 19 13  1  0
 20 10  1  0
 20 19  2  0
 21 17  1  0
 22 21  1  0
 22 23  1  6
 24 23  1  0
 25 24  1  0
 26 25  2  0
 27 22  1  0
 28 27  2  0
 29 25  1  0
 30 27  1  0
M  END
$$$$
