DYE.pdb
     RDKit          3D

 30 30  0  0  1  0  0  0  0  0999 V2000
    9.5376  -18.5828   20.9260 N   0  0  0  0  0  0  0  0  0  0  0  0
   10.8259  -17.8245   20.8782 C   0  0  1  0  0  0  0  0  0  0  0  0
   11.0029  -17.4356   19.4419 C   0  0  0  0  0  0  0  0  0  0  0  0
   11.6222  -18.5083   18.6706 C   0  0  0  0  0  0  0  0  0  0  0  0
   11.6753  -19.6751   19.0893 O   0  0  0  0  0  0  0  0  0  0  0  0
   10.6716  -16.6896   21.8111 C   0  0  0  0  0  0  0  0  0  0  0  0
   11.5639  -15.8305   21.9487 O   0  0  0  0  0  0  0  0  0  0  0  0
   12.1816  -18.2499   17.4204 O   0  0  0  0  0  0  0  0  0  0  0  0
    7.2038  -12.6284   18.1925 O   0  0  0  0  0  0  0  0  0  0  0  0
    7.3679  -13.1905   19.4568 C   0  0  0  0  0  0  0  0  0  0  0  0
    8.1726  -12.5808   20.3872 C   0  0  0  0  0  0  0  0  0  0  0  0
    8.3429  -13.1264   21.6403 C   0  0  0  0  0  0  0  0  0  0  0  0
    7.7137  -14.3159   22.0285 C   0  0  0  0  0  0  0  0  0  0  0  0
    7.9654  -14.8595   23.3636 C   0  0  0  0  0  0  0  0  0  0  0  0
    9.2927  -15.5111   23.5909 C   0  0  2  0  0  0  0  0  0  0  0  0
    9.4774  -16.5771   22.5676 N   0  0  0  0  0  0  0  0  0  0  0  0
    9.4678  -16.1281   24.8993 C   0  0  0  0  0  0  0  0  0  0  0  0
    8.7402  -15.7052   25.8736 O   0  0  0  0  0  0  0  0  0  0  0  0
    6.9178  -14.8924   21.0665 C   0  0  0  0  0  0  0  0  0  0  0  0
    6.7323  -14.3648   19.8063 C   0  0  0  0  0  0  0  0  0  0  0  0
   10.3504  -17.1663   25.2619 N   0  0  0  0  0  0  0  0  0  0  0  0
   10.5085  -17.6324   26.6297 C   0  0  1  0  0  0  0  0  0  0  0  0
    9.7490  -18.9562   26.7290 C   0  0  0  0  0  0  0  0  0  0  0  0
   10.4734  -20.1144   26.1520 C   0  0  0  0  0  0  0  0  0  0  0  0
   10.2582  -21.4088   26.8003 C   0  0  0  0  0  0  0  0  0  0  0  0
   10.6173  -22.5228   26.3367 O   0  0  0  0  0  0  0  0  0  0  0  0
   11.8953  -17.7984   27.0672 C   0  0  0  0  0  0  0  0  0  0  0  0
   12.8154  -17.7873   26.2194 O   0  0  0  0  0  0  0  0  0  0  0  0
    9.6067  -21.4541   28.0315 O   0  0  0  0  0  0  0  0  0  0  0  0
   12.2017  -17.9656   28.3927 O   0  0  0  0  0  0  0  0  0  0  0  0
  2  1  1  6
  2  3  1  0
  4  5  2  0
  4  3  1  0
  6  7  2  0
  6  2  1  0
  8  4  1  0
  9 10  1  0
 10 11  2  0
 11 12  1  0
 13 12  2  0
 13 14  1  0
 15 14  1  1
 15 16  1  0
 16  6  1  0
 17 15  1  0
 17 18  2  0
 19 13  1  0
 20 10  1  0
 20 19  2  0
 21 17  1  0
 22 21  1  0
 22 23  1  6
 24 23  1  0
 25 24  1  0
 26 25  2  0
 27 22  1  0
 28 27  2  0
 29 25  1  0
 30 27  1  0
M  END
$$$$
