DYE.pdb
     RDKit          3D

 30 30  0  0  1  0  0  0  0  0999 V2000
    7.3164  -17.3463   19.0706 N   0  0  0  0  0  0  0  0  0  0  0  0
    8.6524  -16.7267   18.8095 C   0  0  1  0  0  0  0  0  0  0  0  0
    8.4990  -15.9862   17.5158 C   0  0  0  0  0  0  0  0  0  0  0  0
    8.6354  -16.8791   16.3699 C   0  0  0  0  0  0  0  0  0  0  0  0
    8.1189  -18.0070   16.3482 O   0  0  0  0  0  0  0  0  0  0  0  0
    8.9472  -15.8734   19.9788 C   0  0  0  0  0  0  0  0  0  0  0  0
   10.0180  -15.2431   20.0747 O   0  0  0  0  0  0  0  0  0  0  0  0
    9.3617  -16.4851   15.2474 O   0  0  0  0  0  0  0  0  0  0  0  0
    7.0833  -12.2339   28.0388 O   0  0  0  0  0  0  0  0  0  0  0  0
    7.0555  -12.8340   26.7817 C   0  0  0  0  0  0  0  0  0  0  0  0
    7.3818  -12.1111   25.6611 C   0  0  0  0  0  0  0  0  0  0  0  0
    7.3581  -12.6930   24.4129 C   0  0  0  0  0  0  0  0  0  0  0  0
    7.0049  -14.0346   24.2212 C   0  0  0  0  0  0  0  0  0  0  0  0
    6.9665  -14.5808   22.8643 C   0  0  0  0  0  0  0  0  0  0  0  0
    8.2671  -15.0302   22.2775 C   0  0  2  0  0  0  0  0  0  0  0  0
    7.9861  -15.7706   21.0164 N   0  0  0  0  0  0  0  0  0  0  0  0
    9.0650  -15.9044   23.1274 C   0  0  0  0  0  0  0  0  0  0  0  0
    8.7643  -17.1557   23.1655 O   0  0  0  0  0  0  0  0  0  0  0  0
    6.6858  -14.7207   25.3696 C   0  0  0  0  0  0  0  0  0  0  0  0
    6.7024  -14.1596   26.6289 C   0  0  0  0  0  0  0  0  0  0  0  0
   10.1654  -15.5623   23.9401 N   0  0  0  0  0  0  0  0  0  0  0  0
   11.0468  -16.5504   24.5400 C   0  0  1  0  0  0  0  0  0  0  0  0
   12.4742  -16.1368   24.1784 C   0  0  0  0  0  0  0  0  0  0  0  0
   13.5212  -17.0331   24.7260 C   0  0  0  0  0  0  0  0  0  0  0  0
   14.9100  -16.6462   24.4737 C   0  0  0  0  0  0  0  0  0  0  0  0
   15.3051  -15.9459   23.5050 O   0  0  0  0  0  0  0  0  0  0  0  0
   10.9047  -16.7037   25.9886 C   0  0  0  0  0  0  0  0  0  0  0  0
   10.3794  -15.7861   26.6577 O   0  0  0  0  0  0  0  0  0  0  0  0
   15.9051  -17.0670   25.3540 O   0  0  0  0  0  0  0  0  0  0  0  0
   11.3382  -17.8382   26.6239 O   0  0  0  0  0  0  0  0  0  0  0  0
  2  1  1  1
  2  3  1  0
  4  5  2  0
  4  3  1  0
  6  7  2  0
  6  2  1  0
  8  4  1  0
  9 10  1  0
 10 11  2  0
 11 12  1  0
 13 12  2  0
 13 14  1  0
 15 14  1  1
 15 16  1  0
 16  6  1  0
 17 15  1  0
 17 18  2  0
 19 13  1  0
 20 10  1  0
 20 19  2  0
 21 17  1  0
 22 21  1  0
 22 23  1  1
 24 23  1  0
 25 24  1  0
 26 25  2  0
 27 22  1  0
 28 27  2  0
 29 25  1  0
 30 27  1  0
M  END
$$$$
