DYE.pdb
     RDKit          3D

 30 30  0  0  1  0  0  0  0  0999 V2000
    8.8377  -17.4210   19.5973 N   0  0  0  0  0  0  0  0  0  0  0  0
   10.2390  -17.3556   20.1160 C   0  0  1  0  0  0  0  0  0  0  0  0
   11.0746  -16.9331   18.9459 C   0  0  0  0  0  0  0  0  0  0  0  0
   10.7276  -17.6830   17.7433 C   0  0  0  0  0  0  0  0  0  0  0  0
   10.8407  -18.9169   17.6806 O   0  0  0  0  0  0  0  0  0  0  0  0
   10.2190  -16.3966   21.2394 C   0  0  0  0  0  0  0  0  0  0  0  0
   11.2708  -15.9806   21.7626 O   0  0  0  0  0  0  0  0  0  0  0  0
   10.2510  -17.0246   16.6110 O   0  0  0  0  0  0  0  0  0  0  0  0
    6.1127  -11.6043   27.7189 O   0  0  0  0  0  0  0  0  0  0  0  0
    6.4622  -12.3249   26.5788 C   0  0  0  0  0  0  0  0  0  0  0  0
    7.1759  -11.7249   25.5711 C   0  0  0  0  0  0  0  0  0  0  0  0
    7.5273  -12.4266   24.4392 C   0  0  0  0  0  0  0  0  0  0  0  0
    7.1808  -13.7712   24.2567 C   0  0  0  0  0  0  0  0  0  0  0  0
    7.5558  -14.4478   23.0147 C   0  0  0  0  0  0  0  0  0  0  0  0
    8.8600  -15.1806   23.0092 C   0  0  2  0  0  0  0  0  0  0  0  0
    8.9705  -15.9394   21.7326 N   0  0  0  0  0  0  0  0  0  0  0  0
    9.0452  -16.1309   24.0982 C   0  0  0  0  0  0  0  0  0  0  0  0
    8.5730  -17.3201   23.9549 O   0  0  0  0  0  0  0  0  0  0  0  0
    6.4669  -14.3321   25.2897 C   0  0  0  0  0  0  0  0  0  0  0  0
    6.1041  -13.6498   26.4316 C   0  0  0  0  0  0  0  0  0  0  0  0
    9.6984  -15.9268   25.3311 N   0  0  0  0  0  0  0  0  0  0  0  0
   10.1606  -17.0166   26.1747 C   0  0  1  0  0  0  0  0  0  0  0  0
   11.4675  -17.5192   25.5594 C   0  0  0  0  0  0  0  0  0  0  0  0
   12.1331  -18.5886   26.3420 C   0  0  0  0  0  0  0  0  0  0  0  0
   13.4007  -19.0934   25.8124 C   0  0  0  0  0  0  0  0  0  0  0  0
   14.4988  -19.0899   26.4281 O   0  0  0  0  0  0  0  0  0  0  0  0
   10.3536  -16.6663   27.5826 C   0  0  0  0  0  0  0  0  0  0  0  0
   10.6388  -17.5623   28.4080 O   0  0  0  0  0  0  0  0  0  0  0  0
   13.4366  -19.6293   24.5265 O   0  0  0  0  0  0  0  0  0  0  0  0
   10.2271  -15.3703   28.0108 O   0  0  0  0  0  0  0  0  0  0  0  0
  2  1  1  6
  2  3  1  0
  4  5  2  0
  4  3  1  0
  6  7  2  0
  6  2  1  0
  8  4  1  0
  9 10  1  0
 10 11  2  0
 11 12  1  0
 13 12  2  0
 13 14  1  0
 15 14  1  1
 15 16  1  0
 16  6  1  0
 17 15  1  0
 17 18  2  0
 19 13  1  0
 20 10  1  0
 20 19  2  0
 21 17  1  0
 22 21  1  0
 22 23  1  6
 24 23  1  0
 25 24  1  0
 26 25  2  0
 27 22  1  0
 28 27  2  0
 29 25  1  0
 30 27  1  0
M  END
$$$$
