VTS.pdb
     RDKit          3D

 21 20  0  0  1  0  0  0  0  0999 V2000
   15.2275  -12.8854  -16.1280 C   0  0  0  0  0  0  0  0  0  0  0  0
   15.4662  -11.4288  -15.8743 C   0  0  2  0  0  0  0  0  0  0  0  0
   14.9759  -10.5684  -17.0390 C   0  0  0  0  0  0  0  0  0  0  0  0
   16.9215  -11.0846  -15.6783 C   0  0  2  0  0  0  0  0  0  0  0  0
   17.4076  -11.8415  -14.5544 N   0  0  0  0  0  0  0  0  0  0  0  0
   17.1297   -9.6446  -15.3921 C   0  0  0  0  0  0  0  0  0  0  0  0
   16.9796   -8.7715  -16.2845 O   0  0  0  0  0  0  0  0  0  0  0  0
   15.5190   -7.5072  -12.8348 C   0  0  0  0  0  0  0  0  0  0  0  0
   16.9899   -7.4622  -12.5412 C   0  0  1  0  0  0  0  0  0  0  0  0
   17.2407   -8.4071  -11.5280 O   0  0  0  0  0  0  0  0  0  0  0  0
   17.8102   -7.8169  -13.7893 C   0  0  2  0  0  0  0  0  0  0  0  0
   17.5101   -9.1982  -14.0842 N   0  0  0  0  0  0  0  0  0  0  0  0
   19.2523   -7.6188  -13.5463 C   0  0  0  0  0  0  0  0  0  0  0  0
   19.9437   -8.6264  -13.2533 O   0  0  0  0  0  0  0  0  0  0  0  0
   23.2074   -6.8747  -14.9310 O   0  0  0  0  0  0  0  0  0  0  0  0
   21.8391   -7.0556  -14.8035 C   0  0  0  0  0  0  0  0  0  0  0  0
   21.3062   -6.2513  -13.6396 C   0  0  2  0  0  0  0  0  0  0  0  0
   19.8604   -6.3383  -13.6352 N   0  0  0  0  0  0  0  0  0  0  0  0
   21.6884   -4.8200  -13.7445 C   0  0  0  0  0  0  0  0  0  0  0  0
   22.8419   -4.3237  -13.1743 O   0  0  0  0  0  0  0  0  0  0  0  0
   20.9228   -4.0397  -14.3802 O   0  0  0  0  0  0  0  0  0  0  0  0
  2  1  1  6
  2  3  1  0
  4  6  1  0
  4  2  1  0
  4  5  1  1
  6 12  1  0
  7  6  2  0
  9  8  1  6
  9 11  1  0
 10  9  1  0
 11 13  1  0
 11 12  1  1
 13 14  2  0
 13 18  1  0
 16 15  1  0
 17 19  1  0
 17 16  1  6
 18 17  1  0
 19 20  1  0
 21 19  2  0
M  END
$$$$
