VTS.pdb
     RDKit          3D

 21 20  0  0  1  0  0  0  0  0999 V2000
   17.4863  -11.5487  -17.8886 C   0  0  0  0  0  0  0  0  0  0  0  0
   17.9067  -12.2456  -16.6314 C   0  0  2  0  0  0  0  0  0  0  0  0
   16.7908  -13.1347  -16.0824 C   0  0  0  0  0  0  0  0  0  0  0  0
   18.2798  -11.2998  -15.5173 C   0  0  2  0  0  0  0  0  0  0  0  0
   17.0806  -10.6317  -15.0839 N   0  0  0  0  0  0  0  0  0  0  0  0
   19.2534  -10.2690  -15.9515 C   0  0  0  0  0  0  0  0  0  0  0  0
   20.4336  -10.5727  -16.2617 O   0  0  0  0  0  0  0  0  0  0  0  0
   19.5462   -8.0529  -18.8461 C   0  0  0  0  0  0  0  0  0  0  0  0
   19.2860   -7.1875  -17.6482 C   0  0  1  0  0  0  0  0  0  0  0  0
   17.8909   -7.0264  -17.5469 O   0  0  0  0  0  0  0  0  0  0  0  0
   19.8217   -7.8451  -16.3687 C   0  0  2  0  0  0  0  0  0  0  0  0
   18.8806   -8.8873  -16.0322 N   0  0  0  0  0  0  0  0  0  0  0  0
   19.9436   -6.8569  -15.2793 C   0  0  0  0  0  0  0  0  0  0  0  0
   18.9358   -6.6485  -14.5582 O   0  0  0  0  0  0  0  0  0  0  0  0
   22.7258   -3.9583  -12.6068 O   0  0  0  0  0  0  0  0  0  0  0  0
   22.6422   -4.9171  -13.6042 C   0  0  0  0  0  0  0  0  0  0  0  0
   21.1968   -5.1984  -13.9468 C   0  0  2  0  0  0  0  0  0  0  0  0
   21.1524   -6.1522  -15.0359 N   0  0  0  0  0  0  0  0  0  0  0  0
   20.4874   -3.9659  -14.3751 C   0  0  0  0  0  0  0  0  0  0  0  0
   19.7885   -3.1744  -13.4880 O   0  0  0  0  0  0  0  0  0  0  0  0
   20.5328   -3.6415  -15.5965 O   0  0  0  0  0  0  0  0  0  0  0  0
  2  1  1  6
  2  3  1  0
  4  6  1  0
  4  2  1  0
  4  5  1  6
  6 12  1  0
  7  6  2  0
  9  8  1  6
  9 11  1  0
 10  9  1  0
 11 13  1  0
 11 12  1  1
 13 14  2  0
 13 18  1  0
 16 15  1  0
 17 19  1  0
 17 16  1  6
 18 17  1  0
 19 20  1  0
 21 19  2  0
M  END
$$$$
