VTS.pdb
     RDKit          3D

 21 20  0  0  1  0  0  0  0  0999 V2000
   18.9685  -11.9733  -18.4670 C   0  0  0  0  0  0  0  0  0  0  0  0
   20.3610  -12.1247  -18.9970 C   0  0  2  0  0  0  0  0  0  0  0  0
   20.8064  -13.5871  -18.9954 C   0  0  0  0  0  0  0  0  0  0  0  0
   21.3926  -11.3682  -18.1979 C   0  0  2  0  0  0  0  0  0  0  0  0
   21.4443  -11.9478  -16.8811 N   0  0  0  0  0  0  0  0  0  0  0  0
   21.0584   -9.9302  -18.0584 C   0  0  0  0  0  0  0  0  0  0  0  0
   21.0995   -9.1501  -19.0437 O   0  0  0  0  0  0  0  0  0  0  0  0
   18.0909   -8.3604  -17.6034 C   0  0  0  0  0  0  0  0  0  0  0  0
   18.8409   -7.9207  -16.3803 C   0  0  1  0  0  0  0  0  0  0  0  0
   18.4882   -8.7994  -15.3381 O   0  0  0  0  0  0  0  0  0  0  0  0
   20.3569   -7.9825  -16.6137 C   0  0  2  0  0  0  0  0  0  0  0  0
   20.6761   -9.3796  -16.7913 N   0  0  0  0  0  0  0  0  0  0  0  0
   21.0903   -7.4033  -15.4716 C   0  0  0  0  0  0  0  0  0  0  0  0
   21.9804   -8.1037  -14.9273 O   0  0  0  0  0  0  0  0  0  0  0  0
   23.9433   -4.2635  -15.1978 O   0  0  0  0  0  0  0  0  0  0  0  0
   22.8831   -5.0456  -15.6282 C   0  0  0  0  0  0  0  0  0  0  0  0
   21.9125   -5.2896  -14.4951 C   0  0  2  0  0  0  0  0  0  0  0  0
   20.8150   -6.0971  -14.9864 N   0  0  0  0  0  0  0  0  0  0  0  0
   21.3574   -4.0168  -13.9680 C   0  0  0  0  0  0  0  0  0  0  0  0
   20.2242   -3.4348  -14.4962 O   0  0  0  0  0  0  0  0  0  0  0  0
   21.9523   -3.4573  -13.0025 O   0  0  0  0  0  0  0  0  0  0  0  0
  2  1  1  1
  2  3  1  0
  4  6  1  0
  4  2  1  0
  4  5  1  1
  6 12  1  0
  7  6  2  0
  9  8  1  6
  9 11  1  0
 10  9  1  0
 11 13  1  0
 11 12  1  1
 13 14  2  0
 13 18  1  0
 16 15  1  0
 17 19  1  0
 17 16  1  6
 18 17  1  0
 19 20  1  0
 21 19  2  0
M  END
$$$$
