VTS.pdb
     RDKit          3D

 21 20  0  0  1  0  0  0  0  0999 V2000
   17.0383  -11.9870  -17.7003 C   0  0  0  0  0  0  0  0  0  0  0  0
   17.7836  -12.6421  -16.5785 C   0  0  2  0  0  0  0  0  0  0  0  0
   16.9303  -13.7013  -15.8807 C   0  0  0  0  0  0  0  0  0  0  0  0
   18.2207  -11.6773  -15.5047 C   0  0  2  0  0  0  0  0  0  0  0  0
   17.0377  -11.1337  -14.8901 N   0  0  0  0  0  0  0  0  0  0  0  0
   19.0207  -10.5519  -16.0456 C   0  0  0  0  0  0  0  0  0  0  0  0
   20.1512  -10.7415  -16.5624 O   0  0  0  0  0  0  0  0  0  0  0  0
   18.5535   -8.3649  -18.8625 C   0  0  0  0  0  0  0  0  0  0  0  0
   18.4733   -7.4902  -17.6460 C   0  0  1  0  0  0  0  0  0  0  0  0
   17.1169   -7.4171  -17.2751 O   0  0  0  0  0  0  0  0  0  0  0  0
   19.2912   -8.0816  -16.4893 C   0  0  2  0  0  0  0  0  0  0  0  0
   18.5303   -9.2058  -15.9972 N   0  0  0  0  0  0  0  0  0  0  0  0
   19.5123   -7.0762  -15.4318 C   0  0  0  0  0  0  0  0  0  0  0  0
   18.5576   -6.8177  -14.6565 O   0  0  0  0  0  0  0  0  0  0  0  0
   22.0381   -6.8676  -12.7342 O   0  0  0  0  0  0  0  0  0  0  0  0
   22.1586   -5.6911  -13.4569 C   0  0  0  0  0  0  0  0  0  0  0  0
   20.8906   -5.4152  -14.2324 C   0  0  2  0  0  0  0  0  0  0  0  0
   20.7568   -6.4096  -15.2771 N   0  0  0  0  0  0  0  0  0  0  0  0
   20.9192   -4.0722  -14.8659 C   0  0  0  0  0  0  0  0  0  0  0  0
   20.9464   -3.9057  -16.2346 O   0  0  0  0  0  0  0  0  0  0  0  0
   20.9183   -3.0547  -14.1149 O   0  0  0  0  0  0  0  0  0  0  0  0
  2  1  1  6
  2  3  1  0
  4  6  1  0
  4  2  1  0
  4  5  1  6
  6 12  1  0
  7  6  2  0
  9  8  1  6
  9 11  1  0
 10  9  1  0
 11 13  1  0
 11 12  1  1
 13 14  2  0
 13 18  1  0
 16 15  1  0
 17 19  1  0
 17 16  1  6
 18 17  1  0
 19 20  1  0
 21 19  2  0
M  END
$$$$
