VTS.pdb
     RDKit          3D

 21 20  0  0  1  0  0  0  0  0999 V2000
   26.7143  -34.5337   -9.5588 C   0  0  0  0  0  0  0  0  0  0  0  0
   25.9606  -33.3945  -10.1730 C   0  0  2  0  0  0  0  0  0  0  0  0
   26.7081  -32.0716  -10.0055 C   0  0  0  0  0  0  0  0  0  0  0  0
   24.5933  -33.1862   -9.5713 C   0  0  2  0  0  0  0  0  0  0  0  0
   23.9455  -32.1277  -10.3009 N   0  0  0  0  0  0  0  0  0  0  0  0
   24.6568  -32.7929   -8.1429 C   0  0  0  0  0  0  0  0  0  0  0  0
   24.7093  -31.5848   -7.7983 O   0  0  0  0  0  0  0  0  0  0  0  0
   22.2362  -33.0621   -5.5078 C   0  0  0  0  0  0  0  0  0  0  0  0
   23.3825  -33.9415   -5.1023 C   0  0  1  0  0  0  0  0  0  0  0  0
   23.1079  -35.2336   -5.5897 O   0  0  0  0  0  0  0  0  0  0  0  0
   24.7019  -33.4355   -5.7021 C   0  0  2  0  0  0  0  0  0  0  0  0
   24.6605  -33.7802   -7.1037 N   0  0  0  0  0  0  0  0  0  0  0  0
   25.8593  -34.0557   -5.0286 C   0  0  0  0  0  0  0  0  0  0  0  0
   26.3045  -35.1336   -5.4964 O   0  0  0  0  0  0  0  0  0  0  0  0
   27.1651  -32.7035   -1.4323 O   0  0  0  0  0  0  0  0  0  0  0  0
   28.1807  -33.2333   -2.2127 C   0  0  0  0  0  0  0  0  0  0  0  0
   27.6083  -34.1296   -3.2872 C   0  0  2  0  0  0  0  0  0  0  0  0
   26.4666  -33.4697   -3.8861 N   0  0  0  0  0  0  0  0  0  0  0  0
   27.1577  -35.4306   -2.7301 C   0  0  0  0  0  0  0  0  0  0  0  0
   28.0451  -36.4240   -2.3731 O   0  0  0  0  0  0  0  0  0  0  0  0
   25.9165  -35.6222   -2.5827 O   0  0  0  0  0  0  0  0  0  0  0  0
  2  1  1  1
  2  3  1  0
  4  6  1  0
  4  2  1  0
  4  5  1  6
  6 12  1  0
  7  6  2  0
  9  8  1  6
  9 11  1  0
 10  9  1  0
 11 13  1  0
 11 12  1  6
 13 14  2  0
 13 18  1  0
 16 15  1  0
 17 19  1  0
 17 16  1  1
 18 17  1  0
 19 20  1  0
 21 19  2  0
M  END
$$$$
