VTS.pdb
     RDKit          3D

 21 20  0  0  1  0  0  0  0  0999 V2000
   16.8789  -11.9289  -17.1444 C   0  0  0  0  0  0  0  0  0  0  0  0
   17.9259  -12.1359  -18.1951 C   0  0  2  0  0  0  0  0  0  0  0  0
   18.2202  -13.6206  -18.4096 C   0  0  0  0  0  0  0  0  0  0  0  0
   19.2463  -11.4874  -17.8622 C   0  0  2  0  0  0  0  0  0  0  0  0
   19.8099  -12.1845  -16.7358 N   0  0  0  0  0  0  0  0  0  0  0  0
   19.0992  -10.0579  -17.4961 C   0  0  0  0  0  0  0  0  0  0  0  0
   18.6967   -9.2069  -18.3297 O   0  0  0  0  0  0  0  0  0  0  0  0
   16.8843   -8.6413  -15.0570 C   0  0  0  0  0  0  0  0  0  0  0  0
   18.2555   -8.2419  -14.5967 C   0  0  1  0  0  0  0  0  0  0  0  0
   18.6700   -9.1963  -13.6481 O   0  0  0  0  0  0  0  0  0  0  0  0
   19.2445   -8.2210  -15.7707 C   0  0  2  0  0  0  0  0  0  0  0  0
   19.4118   -9.5970  -16.1753 N   0  0  0  0  0  0  0  0  0  0  0  0
   20.5296   -7.6181  -15.3668 C   0  0  0  0  0  0  0  0  0  0  0  0
   21.4830   -8.3907  -15.0963 O   0  0  0  0  0  0  0  0  0  0  0  0
   23.7326   -4.2487  -15.6697 O   0  0  0  0  0  0  0  0  0  0  0  0
   22.5608   -4.8846  -16.0486 C   0  0  0  0  0  0  0  0  0  0  0  0
   22.0027   -5.6925  -14.8991 C   0  0  2  0  0  0  0  0  0  0  0  0
   20.7052   -6.2114  -15.2799 N   0  0  0  0  0  0  0  0  0  0  0  0
   21.8348   -4.8623  -13.6791 C   0  0  0  0  0  0  0  0  0  0  0  0
   22.8154   -4.7676  -12.7139 O   0  0  0  0  0  0  0  0  0  0  0  0
   20.7523   -4.2254  -13.5313 O   0  0  0  0  0  0  0  0  0  0  0  0
  2  1  1  1
  2  3  1  0
  4  6  1  0
  4  2  1  0
  4  5  1  1
  6 12  1  0
  7  6  2  0
  9  8  1  6
  9 11  1  0
 10  9  1  0
 11 13  1  0
 11 12  1  1
 13 14  2  0
 13 18  1  0
 16 15  1  0
 17 19  1  0
 17 16  1  6
 18 17  1  0
 19 20  1  0
 21 19  2  0
M  END
$$$$
