WRP.pdb
     RDKit          3D

 33 35  0  0  1  0  0  0  0  0999 V2000
   28.2945  -21.0642  -17.8063 N   0  0  0  0  0  0  0  0  0  0  0  0
   27.5642  -20.1829  -16.9174 C   0  0  1  0  0  0  0  0  0  0  0  0
   26.9418  -19.0800  -17.7538 C   0  0  0  0  0  0  0  0  0  0  0  0
   27.5745  -17.7659  -17.4680 C   0  0  0  0  0  0  0  0  0  0  0  0
   28.7082  -17.2033  -18.0356 C   0  0  0  0  0  0  0  0  0  0  0  0
   28.9230  -15.9972  -17.4795 N   0  0  0  0  0  0  0  0  0  0  0  0
   27.9693  -15.7587  -16.5723 C   0  0  0  0  0  0  0  0  0  0  0  0
   27.7553  -14.6751  -15.7472 C   0  0  0  0  0  0  0  0  0  0  0  0
   26.6794  -14.6925  -14.8969 C   0  0  0  0  0  0  0  0  0  0  0  0
   25.8253  -15.7692  -14.8633 C   0  0  0  0  0  0  0  0  0  0  0  0
   26.0544  -16.8446  -15.6955 C   0  0  0  0  0  0  0  0  0  0  0  0
   27.1212  -16.8434  -16.5484 C   0  0  0  0  0  0  0  0  0  0  0  0
   26.5205  -20.8945  -16.1552 C   0  0  0  0  0  0  0  0  0  0  0  0
   25.9468  -21.8942  -16.6693 O   0  0  0  0  0  0  0  0  0  0  0  0
   27.6538  -20.8720   -8.5714 N   0  0  0  0  0  0  0  0  0  0  0  0
   26.2799  -20.8268   -8.8544 C   0  0  0  0  0  0  0  0  0  0  0  0
   25.4797  -20.2782   -8.0294 N   0  0  0  0  0  0  0  0  0  0  0  0
   25.7635  -21.3974  -10.0739 N   0  0  0  0  0  0  0  0  0  0  0  0
   26.5824  -22.2573  -10.8668 C   0  0  0  0  0  0  0  0  0  0  0  0
   26.6571  -21.8742  -12.3226 C   0  0  0  0  0  0  0  0  0  0  0  0
   25.3912  -21.1146  -12.6839 C   0  0  0  0  0  0  0  0  0  0  0  0
   25.0232  -21.2448  -14.1358 C   0  0  2  0  0  0  0  0  0  0  0  0
   26.1155  -20.5204  -14.8628 N   0  0  0  0  0  0  0  0  0  0  0  0
   23.7245  -20.6818  -14.4969 C   0  0  0  0  0  0  0  0  0  0  0  0
   23.6446  -19.3984  -14.1965 O   0  0  0  0  0  0  0  0  0  0  0  0
   24.4659  -20.2390   -8.1947 N   0  0  0  0  0  0  0  0  0  0  0  0
   22.5861  -21.1942  -15.0689 C   0  0  0  0  0  0  0  0  0  0  0  0
   22.6817  -22.4516  -15.8905 C   0  0  0  0  0  0  0  0  0  0  0  0
   21.5894  -23.2537  -15.2325 C   0  0  0  0  0  0  0  0  0  0  0  0
   20.5629  -22.2520  -14.7876 C   0  0  2  0  0  0  0  0  0  0  0  0
   21.2344  -20.8730  -15.1605 C   0  0  0  0  0  0  0  0  0  0  0  0
   20.5886  -19.8598  -14.3587 O   0  0  0  0  0  0  0  0  0  0  0  0
   19.5235  -19.1115  -14.7041 O   0  0  0  0  0  0  0  0  0  0  0  0
  2  1  1  6
  2 13  1  0
  2  3  1  0
  3  4  1  0
  4  5  2  0
  6  5  1  0
  7  6  1  0
  8  7  2  0
  9  8  1  0
 10  9  2  0
 10 11  1  0
 11 12  2  0
 12  7  1  0
 12  4  1  0
 13 14  2  0
 16 17  2  0
 16 15  1  0
 18 16  1  0
 19 18  1  0
 19 20  1  0
 20 21  1  0
 22 21  1  1
 22 24  1  0
 23 13  1  0
 23 22  1  0
 24 25  2  0
 26 24  1  0
 26 27  1  0
 27 28  1  0
 29 28  1  0
 30 26  1  0
 30 29  1  0
 30 31  1  1
 32 31  1  0
 33 31  2  0
M  END
$$$$
