WRP.pdb
     RDKit          3D

 33 35  0  0  1  0  0  0  0  0999 V2000
   26.4692  -20.3358  -19.7274 N   0  0  0  0  0  0  0  0  0  0  0  0
   26.1621  -19.6616  -18.4818 C   0  0  1  0  0  0  0  0  0  0  0  0
   25.0086  -18.7081  -18.7338 C   0  0  0  0  0  0  0  0  0  0  0  0
   25.4198  -17.5890  -19.6211 C   0  0  0  0  0  0  0  0  0  0  0  0
   26.5392  -16.7745  -19.5340 C   0  0  0  0  0  0  0  0  0  0  0  0
   26.5154  -15.8890  -20.5467 N   0  0  0  0  0  0  0  0  0  0  0  0
   25.4210  -16.1008  -21.2862 C   0  0  0  0  0  0  0  0  0  0  0  0
   24.9547  -15.4633  -22.4162 C   0  0  0  0  0  0  0  0  0  0  0  0
   23.7817  -15.8929  -22.9823 C   0  0  0  0  0  0  0  0  0  0  0  0
   23.0783  -16.9406  -22.4369 C   0  0  0  0  0  0  0  0  0  0  0  0
   23.5595  -17.5667  -21.3063 C   0  0  0  0  0  0  0  0  0  0  0  0
   24.7261  -17.1515  -20.7300 C   0  0  0  0  0  0  0  0  0  0  0  0
   25.8151  -20.6067  -17.4034 C   0  0  0  0  0  0  0  0  0  0  0  0
   25.1843  -21.6638  -17.6813 O   0  0  0  0  0  0  0  0  0  0  0  0
   26.1534  -19.3985   -8.7792 N   0  0  0  0  0  0  0  0  0  0  0  0
   25.4069  -20.5716   -8.9689 C   0  0  0  0  0  0  0  0  0  0  0  0
   24.5426  -20.9211   -8.1013 N   0  0  0  0  0  0  0  0  0  0  0  0
   25.6094  -21.3881  -10.1401 N   0  0  0  0  0  0  0  0  0  0  0  0
   25.9639  -20.7831  -11.3840 C   0  0  0  0  0  0  0  0  0  0  0  0
   26.0761  -21.7501  -12.5346 C   0  0  0  0  0  0  0  0  0  0  0  0
   26.4785  -20.9724  -13.7769 C   0  0  0  0  0  0  0  0  0  0  0  0
   25.5979  -21.2613  -14.9607 C   0  0  2  0  0  0  0  0  0  0  0  0
   26.1506  -20.3989  -16.0548 N   0  0  0  0  0  0  0  0  0  0  0  0
   24.1805  -20.9686  -14.7622 C   0  0  0  0  0  0  0  0  0  0  0  0
   23.9926  -19.7558  -14.2751 O   0  0  0  0  0  0  0  0  0  0  0  0
   23.9822  -21.7770   -8.2016 N   0  0  0  0  0  0  0  0  0  0  0  0
   23.0207  -21.6749  -14.9669 C   0  0  0  0  0  0  0  0  0  0  0  0
   23.0605  -22.9184  -15.8138 C   0  0  0  0  0  0  0  0  0  0  0  0
   22.3741  -23.8737  -14.8725 C   0  0  0  0  0  0  0  0  0  0  0  0
   21.3876  -23.0445  -14.1017 C   0  0  2  0  0  0  0  0  0  0  0  0
   21.6743  -21.5830  -14.6245 C   0  0  0  0  0  0  0  0  0  0  0  0
   21.1533  -20.6712  -13.6326 O   0  0  0  0  0  0  0  0  0  0  0  0
   20.0172  -19.9524  -13.7115 O   0  0  0  0  0  0  0  0  0  0  0  0
  2  1  1  6
  2 13  1  0
  2  3  1  0
  3  4  1  0
  4  5  2  0
  6  5  1  0
  7  6  1  0
  8  7  2  0
  9  8  1  0
 10  9  2  0
 10 11  1  0
 11 12  2  0
 12  7  1  0
 12  4  1  0
 13 14  2  0
 16 17  2  0
 16 15  1  0
 18 16  1  0
 19 18  1  0
 19 20  1  0
 20 21  1  0
 22 21  1  1
 22 24  1  0
 23 13  1  0
 23 22  1  0
 24 25  2  0
 26 24  1  0
 26 27  1  0
 27 28  1  0
 29 28  1  0
 30 26  1  0
 30 29  1  0
 30 31  1  1
 32 31  1  0
 33 31  2  0
M  END
$$$$
