WRP.pdb
     RDKit          3D

 33 35  0  0  1  0  0  0  0  0999 V2000
   27.0880  -22.6922  -11.7629 N   0  0  0  0  0  0  0  0  0  0  0  0
   26.2344  -21.6059  -11.3249 C   0  0  1  0  0  0  0  0  0  0  0  0
   27.0515  -20.3271  -11.3444 C   0  0  0  0  0  0  0  0  0  0  0  0
   28.0282  -20.2956  -10.2246 C   0  0  0  0  0  0  0  0  0  0  0  0
   29.3656  -20.6633  -10.2248 C   0  0  0  0  0  0  0  0  0  0  0  0
   29.8715  -20.4730   -8.9927 N   0  0  0  0  0  0  0  0  0  0  0  0
   28.9097  -19.9954   -8.1949 C   0  0  0  0  0  0  0  0  0  0  0  0
   28.9306  -19.6447   -6.8617 C   0  0  0  0  0  0  0  0  0  0  0  0
   27.7799  -19.1735   -6.2829 C   0  0  0  0  0  0  0  0  0  0  0  0
   26.6224  -19.0508   -7.0143 C   0  0  0  0  0  0  0  0  0  0  0  0
   26.6196  -19.4063   -8.3468 C   0  0  0  0  0  0  0  0  0  0  0  0
   27.7568  -19.8773   -8.9388 C   0  0  0  0  0  0  0  0  0  0  0  0
   25.0362  -21.4575  -12.1727 C   0  0  0  0  0  0  0  0  0  0  0  0
   25.0975  -21.7622  -13.3958 O   0  0  0  0  0  0  0  0  0  0  0  0
   17.7863  -23.7955  -11.3951 N   0  0  0  0  0  0  0  0  0  0  0  0
   17.6907  -23.4425  -12.7500 C   0  0  0  0  0  0  0  0  0  0  0  0
   16.5458  -23.3039  -13.2903 N   0  0  0  0  0  0  0  0  0  0  0  0
   18.8796  -23.2347  -13.5391 N   0  0  0  0  0  0  0  0  0  0  0  0
   20.1252  -22.9545  -12.8998 C   0  0  0  0  0  0  0  0  0  0  0  0
   20.1184  -21.7135  -12.0446 C   0  0  0  0  0  0  0  0  0  0  0  0
   21.5064  -21.5317  -11.4525 C   0  0  0  0  0  0  0  0  0  0  0  0
   22.5357  -21.1462  -12.4782 C   0  0  2  0  0  0  0  0  0  0  0  0
   23.8022  -20.9871  -11.6927 N   0  0  0  0  0  0  0  0  0  0  0  0
   22.2460  -19.9170  -13.2126 C   0  0  0  0  0  0  0  0  0  0  0  0
   21.7339  -18.9856  -12.4291 O   0  0  0  0  0  0  0  0  0  0  0  0
   16.4355  -23.0361  -14.2766 N   0  0  0  0  0  0  0  0  0  0  0  0
   22.3862  -19.5306  -14.5228 C   0  0  0  0  0  0  0  0  0  0  0  0
   23.4763  -20.1492  -15.3559 C   0  0  0  0  0  0  0  0  0  0  0  0
   22.6573  -20.5779  -16.5455 C   0  0  0  0  0  0  0  0  0  0  0  0
   21.5591  -19.5613  -16.6691 C   0  0  2  0  0  0  0  0  0  0  0  0
   21.7942  -18.6369  -15.4113 C   0  0  0  0  0  0  0  0  0  0  0  0
   20.5502  -17.9485  -15.1562 O   0  0  0  0  0  0  0  0  0  0  0  0
   20.2792  -16.6513  -15.3957 O   0  0  0  0  0  0  0  0  0  0  0  0
  2  1  1  6
  2 13  1  0
  2  3  1  0
  3  4  1  0
  4  5  2  0
  6  5  1  0
  7  6  1  0
  8  7  2  0
  9  8  1  0
 10  9  2  0
 10 11  1  0
 11 12  2  0
 12  7  1  0
 12  4  1  0
 13 14  2  0
 16 17  2  0
 16 15  1  0
 18 16  1  0
 19 18  1  0
 19 20  1  0
 20 21  1  0
 22 21  1  1
 22 24  1  0
 23 13  1  0
 23 22  1  0
 24 25  2  0
 26 24  1  0
 26 27  1  0
 27 28  1  0
 29 28  1  0
 30 26  1  0
 30 29  1  0
 30 31  1  6
 32 31  1  0
 33 31  2  0
M  END
$$$$
