WRP.pdb
     RDKit          3D

 33 35  0  0  1  0  0  0  0  0999 V2000
   25.3414  -19.2376  -11.0659 N   0  0  0  0  0  0  0  0  0  0  0  0
   26.3469  -20.2575  -11.2873 C   0  0  1  0  0  0  0  0  0  0  0  0
   26.0655  -21.4101  -10.3408 C   0  0  0  0  0  0  0  0  0  0  0  0
   26.1718  -20.9795   -8.9223 C   0  0  0  0  0  0  0  0  0  0  0  0
   25.1618  -20.7984   -7.9891 C   0  0  0  0  0  0  0  0  0  0  0  0
   25.7078  -20.4009   -6.8254 N   0  0  0  0  0  0  0  0  0  0  0  0
   27.0349  -20.3183   -6.9717 C   0  0  0  0  0  0  0  0  0  0  0  0
   28.0234  -19.9597   -6.0800 C   0  0  0  0  0  0  0  0  0  0  0  0
   29.3283  -19.9612   -6.5021 C   0  0  0  0  0  0  0  0  0  0  0  0
   29.6515  -20.3133   -7.7911 C   0  0  0  0  0  0  0  0  0  0  0  0
   28.6500  -20.6692   -8.6697 C   0  0  0  0  0  0  0  0  0  0  0  0
   27.3452  -20.6731   -8.2656 C   0  0  0  0  0  0  0  0  0  0  0  0
   26.3619  -20.7366  -12.6826 C   0  0  0  0  0  0  0  0  0  0  0  0
   25.3948  -20.4620  -13.4454 O   0  0  0  0  0  0  0  0  0  0  0  0
   32.1779  -25.6824  -16.3995 N   0  0  0  0  0  0  0  0  0  0  0  0
   30.7911  -25.6742  -16.1846 C   0  0  0  0  0  0  0  0  0  0  0  0
   30.1446  -26.7713  -16.1702 N   0  0  0  0  0  0  0  0  0  0  0  0
   30.0884  -24.4318  -15.9793 N   0  0  0  0  0  0  0  0  0  0  0  0
   30.7406  -23.1877  -16.2360 C   0  0  0  0  0  0  0  0  0  0  0  0
   29.8616  -21.9770  -16.0533 C   0  0  0  0  0  0  0  0  0  0  0  0
   29.1713  -22.0851  -14.7035 C   0  0  0  0  0  0  0  0  0  0  0  0
   27.9149  -21.2637  -14.6198 C   0  0  2  0  0  0  0  0  0  0  0  0
   27.4097  -21.4973  -13.2282 N   0  0  0  0  0  0  0  0  0  0  0  0
   26.8818  -21.6141  -15.5914 C   0  0  0  0  0  0  0  0  0  0  0  0
   26.6061  -22.9053  -15.5714 O   0  0  0  0  0  0  0  0  0  0  0  0
   29.1192  -26.8010  -16.1031 N   0  0  0  0  0  0  0  0  0  0  0  0
   26.1508  -20.9003  -16.5089 C   0  0  0  0  0  0  0  0  0  0  0  0
   26.0964  -19.4005  -16.3946 C   0  0  0  0  0  0  0  0  0  0  0  0
   26.4754  -19.0369  -17.8067 C   0  0  0  0  0  0  0  0  0  0  0  0
   25.9322  -20.1399  -18.6688 C   0  0  2  0  0  0  0  0  0  0  0  0
   25.3389  -21.1510  -17.6118 C   0  0  0  0  0  0  0  0  0  0  0  0
   25.2393  -22.4346  -18.2667 O   0  0  0  0  0  0  0  0  0  0  0  0
   24.1175  -23.0298  -18.7147 O   0  0  0  0  0  0  0  0  0  0  0  0
  2  1  1  6
  2 13  1  0
  2  3  1  0
  3  4  1  0
  4  5  2  0
  6  5  1  0
  7  6  1  0
  8  7  2  0
  9  8  1  0
 10  9  2  0
 10 11  1  0
 11 12  2  0
 12  7  1  0
 12  4  1  0
 13 14  2  0
 16 17  2  0
 16 15  1  0
 18 16  1  0
 19 18  1  0
 19 20  1  0
 20 21  1  0
 22 21  1  6
 22 24  1  0
 23 13  1  0
 23 22  1  0
 24 25  2  0
 26 24  1  0
 26 27  1  0
 27 28  1  0
 29 28  1  0
 30 26  1  0
 30 29  1  0
 30 31  1  6
 32 31  1  0
 33 31  2  0
M  END
$$$$
