WRP.pdb
     RDKit          3D

 33 35  0  0  1  0  0  0  0  0999 V2000
   15.0836  -14.7646    5.2007 N   0  0  0  0  0  0  0  0  0  0  0  0
   16.2858  -15.5578    5.0398 C   0  0  1  0  0  0  0  0  0  0  0  0
   17.2833  -15.1217    6.0972 C   0  0  0  0  0  0  0  0  0  0  0  0
   17.9668  -13.8616    5.7049 C   0  0  0  0  0  0  0  0  0  0  0  0
   17.5549  -12.8918    4.8028 C   0  0  0  0  0  0  0  0  0  0  0  0
   18.4821  -11.9181    4.7539 N   0  0  0  0  0  0  0  0  0  0  0  0
   19.4795  -12.2227    5.5918 C   0  0  0  0  0  0  0  0  0  0  0  0
   20.6449  -11.5510    5.8941 C   0  0  0  0  0  0  0  0  0  0  0  0
   21.5079  -12.1004    6.8075 C   0  0  0  0  0  0  0  0  0  0  0  0
   21.2214  -13.3000    7.4146 C   0  0  0  0  0  0  0  0  0  0  0  0
   20.0511  -13.9583    7.1004 C   0  0  0  0  0  0  0  0  0  0  0  0
   19.1806  -13.4251    6.1929 C   0  0  0  0  0  0  0  0  0  0  0  0
   16.0223  -17.0049    5.1545 C   0  0  0  0  0  0  0  0  0  0  0  0
   15.5438  -17.4674    6.2267 O   0  0  0  0  0  0  0  0  0  0  0  0
   15.8504  -23.0805   -1.1945 N   0  0  0  0  0  0  0  0  0  0  0  0
   15.1402  -23.7196   -0.1665 C   0  0  0  0  0  0  0  0  0  0  0  0
   14.5085  -24.7989   -0.4075 N   0  0  0  0  0  0  0  0  0  0  0  0
   15.1183  -23.1647    1.1643 N   0  0  0  0  0  0  0  0  0  0  0  0
   15.4001  -21.7799    1.3689 C   0  0  0  0  0  0  0  0  0  0  0  0
   15.4992  -21.3742    2.8172 C   0  0  0  0  0  0  0  0  0  0  0  0
   15.8137  -19.8885    2.8784 C   0  0  0  0  0  0  0  0  0  0  0  0
   16.0130  -19.3885    4.2821 C   0  0  2  0  0  0  0  0  0  0  0  0
   16.2769  -17.9220    4.1207 N   0  0  0  0  0  0  0  0  0  0  0  0
   17.1122  -20.0163    5.0113 C   0  0  0  0  0  0  0  0  0  0  0  0
   18.2449  -19.9622    4.3348 O   0  0  0  0  0  0  0  0  0  0  0  0
   14.0228  -25.3246    0.3303 N   0  0  0  0  0  0  0  0  0  0  0  0
   17.2171  -20.6438    6.2283 C   0  0  0  0  0  0  0  0  0  0  0  0
   16.2325  -20.3038    7.3146 C   0  0  0  0  0  0  0  0  0  0  0  0
   15.7913  -21.6958    7.6850 C   0  0  0  0  0  0  0  0  0  0  0  0
   16.9880  -22.5740    7.4584 C   0  0  2  0  0  0  0  0  0  0  0  0
   18.0465  -21.5736    6.8495 C   0  0  0  0  0  0  0  0  0  0  0  0
   19.0288  -22.3720    6.1538 O   0  0  0  0  0  0  0  0  0  0  0  0
   20.1703  -22.8745    6.6619 O   0  0  0  0  0  0  0  0  0  0  0  0
  2  1  1  1
  2 13  1  0
  2  3  1  0
  3  4  1  0
  4  5  2  0
  6  5  1  0
  7  6  1  0
  8  7  2  0
  9  8  1  0
 10  9  2  0
 10 11  1  0
 11 12  2  0
 12  7  1  0
 12  4  1  0
 13 14  2  0
 16 17  2  0
 16 15  1  0
 18 16  1  0
 19 18  1  0
 19 20  1  0
 20 21  1  0
 22 21  1  6
 22 24  1  0
 23 13  1  0
 23 22  1  0
 24 25  2  0
 26 24  1  0
 26 27  1  0
 27 28  1  0
 29 28  1  0
 30 26  1  0
 30 29  1  0
 30 31  1  1
 32 31  1  0
 33 31  2  0
M  END
$$$$
