WRP.pdb
     RDKit          3D

 33 35  0  0  1  0  0  0  0  0999 V2000
   27.2784  -19.4033  -17.7352 N   0  0  0  0  0  0  0  0  0  0  0  0
   26.7012  -18.8828  -16.5121 C   0  0  1  0  0  0  0  0  0  0  0  0
   25.5525  -17.9643  -16.8865 C   0  0  0  0  0  0  0  0  0  0  0  0
   26.0507  -16.6704  -17.4215 C   0  0  0  0  0  0  0  0  0  0  0  0
   25.9062  -16.1411  -18.6955 C   0  0  0  0  0  0  0  0  0  0  0  0
   26.5164  -14.9430  -18.7430 N   0  0  0  0  0  0  0  0  0  0  0  0
   27.0507  -14.6775  -17.5457 C   0  0  0  0  0  0  0  0  0  0  0  0
   27.7678  -13.5894  -17.0955 C   0  0  0  0  0  0  0  0  0  0  0  0
   28.2043  -13.5760  -15.7954 C   0  0  0  0  0  0  0  0  0  0  0  0
   27.9347  -14.6265  -14.9507 C   0  0  0  0  0  0  0  0  0  0  0  0
   27.2161  -15.7069  -15.4178 C   0  0  0  0  0  0  0  0  0  0  0  0
   26.7739  -15.7363  -16.7098 C   0  0  0  0  0  0  0  0  0  0  0  0
   26.2252  -19.9542  -15.6164 C   0  0  0  0  0  0  0  0  0  0  0  0
   25.7533  -21.0151  -16.1109 O   0  0  0  0  0  0  0  0  0  0  0  0
   27.3711  -20.3737   -7.1008 N   0  0  0  0  0  0  0  0  0  0  0  0
   28.1058  -20.8633   -8.1917 C   0  0  0  0  0  0  0  0  0  0  0  0
   29.3705  -20.9832   -8.1024 N   0  0  0  0  0  0  0  0  0  0  0  0
   27.4409  -21.2328   -9.4167 N   0  0  0  0  0  0  0  0  0  0  0  0
   26.0306  -21.0536   -9.5500 C   0  0  0  0  0  0  0  0  0  0  0  0
   25.4770  -21.4633  -10.8907 C   0  0  0  0  0  0  0  0  0  0  0  0
   26.0701  -20.5523  -11.9529 C   0  0  0  0  0  0  0  0  0  0  0  0
   25.5849  -20.8740  -13.3390 C   0  0  2  0  0  0  0  0  0  0  0  0
   26.2651  -19.8656  -14.2146 N   0  0  0  0  0  0  0  0  0  0  0  0
   24.1374  -20.7971  -13.5203 C   0  0  0  0  0  0  0  0  0  0  0  0
   23.6362  -19.6883  -13.0076 O   0  0  0  0  0  0  0  0  0  0  0  0
   29.9474  -21.2953   -8.8939 N   0  0  0  0  0  0  0  0  0  0  0  0
   23.2011  -21.6197  -14.0969 C   0  0  0  0  0  0  0  0  0  0  0  0
   23.6544  -22.6802  -15.0639 C   0  0  0  0  0  0  0  0  0  0  0  0
   22.9629  -23.8727  -14.4561 C   0  0  0  0  0  0  0  0  0  0  0  0
   21.6954  -23.3413  -13.8512 C   0  0  2  0  0  0  0  0  0  0  0  0
   21.8188  -21.7858  -14.0893 C   0  0  0  0  0  0  0  0  0  0  0  0
   20.9330  -21.1438  -13.1461 O   0  0  0  0  0  0  0  0  0  0  0  0
   19.6379  -20.8281  -13.3376 O   0  0  0  0  0  0  0  0  0  0  0  0
  2  1  1  6
  2 13  1  0
  2  3  1  0
  3  4  1  0
  4  5  2  0
  6  5  1  0
  7  6  1  0
  8  7  2  0
  9  8  1  0
 10  9  2  0
 10 11  1  0
 11 12  2  0
 12  7  1  0
 12  4  1  0
 13 14  2  0
 16 17  2  0
 16 15  1  0
 18 16  1  0
 19 18  1  0
 19 20  1  0
 20 21  1  0
 22 21  1  1
 22 24  1  0
 23 13  1  0
 23 22  1  0
 24 25  2  0
 26 24  1  0
 26 27  1  0
 27 28  1  0
 29 28  1  0
 30 26  1  0
 30 29  1  0
 30 31  1  1
 32 31  1  0
 33 31  2  0
M  END
$$$$
