WRP.pdb
     RDKit          3D

 33 35  0  0  1  0  0  0  0  0999 V2000
   25.0644  -21.6787  -17.6750 N   0  0  0  0  0  0  0  0  0  0  0  0
   25.0523  -20.7563  -16.5574 C   0  0  1  0  0  0  0  0  0  0  0  0
   23.6217  -20.6285  -16.0671 C   0  0  0  0  0  0  0  0  0  0  0  0
   22.8188  -19.7632  -16.9701 C   0  0  0  0  0  0  0  0  0  0  0  0
   22.4249  -19.9988  -18.2790 C   0  0  0  0  0  0  0  0  0  0  0  0
   21.7097  -18.9465  -18.7164 N   0  0  0  0  0  0  0  0  0  0  0  0
   21.6265  -18.0382  -17.7379 C   0  0  0  0  0  0  0  0  0  0  0  0
   21.0076  -16.8069  -17.6958 C   0  0  0  0  0  0  0  0  0  0  0  0
   21.0806  -16.0682  -16.5426 C   0  0  0  0  0  0  0  0  0  0  0  0
   21.7576  -16.5419  -15.4440 C   0  0  0  0  0  0  0  0  0  0  0  0
   22.3708  -17.7757  -15.5036 C   0  0  0  0  0  0  0  0  0  0  0  0
   22.3079  -18.5243  -16.6444 C   0  0  0  0  0  0  0  0  0  0  0  0
   25.9303  -21.1974  -15.4568 C   0  0  0  0  0  0  0  0  0  0  0  0
   25.7300  -22.3178  -14.9117 O   0  0  0  0  0  0  0  0  0  0  0  0
   32.9745  -21.4479  -10.5662 N   0  0  0  0  0  0  0  0  0  0  0  0
   32.0630  -22.1929  -11.3301 C   0  0  0  0  0  0  0  0  0  0  0  0
   32.4901  -23.0076  -12.2109 N   0  0  0  0  0  0  0  0  0  0  0  0
   30.6431  -22.0446  -11.1273 N   0  0  0  0  0  0  0  0  0  0  0  0
   29.8043  -21.6258  -12.2044 C   0  0  0  0  0  0  0  0  0  0  0  0
   29.6928  -20.1307  -12.3588 C   0  0  0  0  0  0  0  0  0  0  0  0
   28.8254  -19.8375  -13.5719 C   0  0  0  0  0  0  0  0  0  0  0  0
   27.5479  -20.6300  -13.5849 C   0  0  2  0  0  0  0  0  0  0  0  0
   27.0002  -20.4303  -14.9657 N   0  0  0  0  0  0  0  0  0  0  0  0
   26.5577  -20.2222  -12.5912 C   0  0  0  0  0  0  0  0  0  0  0  0
   26.3842  -18.9132  -12.5789 O   0  0  0  0  0  0  0  0  0  0  0  0
   31.8557  -23.5068  -12.8474 N   0  0  0  0  0  0  0  0  0  0  0  0
   25.7842  -20.8974  -11.6794 C   0  0  0  0  0  0  0  0  0  0  0  0
   25.2905  -22.2783  -12.0181 C   0  0  0  0  0  0  0  0  0  0  0  0
   25.7368  -23.0056  -10.7765 C   0  0  0  0  0  0  0  0  0  0  0  0
   25.6511  -21.9998   -9.6648 C   0  0  2  0  0  0  0  0  0  0  0  0
   25.2334  -20.6779  -10.4197 C   0  0  0  0  0  0  0  0  0  0  0  0
   25.5923  -19.5721   -9.5624 O   0  0  0  0  0  0  0  0  0  0  0  0
   26.8197  -19.0445   -9.3932 O   0  0  0  0  0  0  0  0  0  0  0  0
  2  1  1  6
  2 13  1  0
  2  3  1  0
  3  4  1  0
  4  5  2  0
  6  5  1  0
  7  6  1  0
  8  7  2  0
  9  8  1  0
 10  9  2  0
 10 11  1  0
 11 12  2  0
 12  7  1  0
 12  4  1  0
 13 14  2  0
 16 17  2  0
 16 15  1  0
 18 16  1  0
 19 18  1  0
 19 20  1  0
 20 21  1  0
 22 21  1  6
 22 24  1  0
 23 13  1  0
 23 22  1  0
 24 25  2  0
 26 24  1  0
 26 27  1  0
 27 28  1  0
 29 28  1  0
 30 26  1  0
 30 29  1  0
 30 31  1  1
 32 31  1  0
 33 31  2  0
M  END
$$$$
