WRP.pdb
     RDKit          3D

 33 35  0  0  1  0  0  0  0  0999 V2000
   26.7468  -21.6261  -10.3254 N   0  0  0  0  0  0  0  0  0  0  0  0
   25.9201  -21.1847  -11.4308 C   0  0  1  0  0  0  0  0  0  0  0  0
   25.1223  -19.9785  -10.9704 C   0  0  0  0  0  0  0  0  0  0  0  0
   24.0477  -20.3739  -10.0230 C   0  0  0  0  0  0  0  0  0  0  0  0
   24.0501  -20.3318   -8.6365 C   0  0  0  0  0  0  0  0  0  0  0  0
   22.8673  -20.7854   -8.1833 N   0  0  0  0  0  0  0  0  0  0  0  0
   22.0993  -21.1196   -9.2264 C   0  0  0  0  0  0  0  0  0  0  0  0
   20.8185  -21.6269   -9.2819 C   0  0  0  0  0  0  0  0  0  0  0  0
   20.2605  -21.8836  -10.5082 C   0  0  0  0  0  0  0  0  0  0  0  0
   20.9613  -21.6413  -11.6658 C   0  0  0  0  0  0  0  0  0  0  0  0
   22.2413  -21.1337  -11.5917 C   0  0  0  0  0  0  0  0  0  0  0  0
   22.8120  -20.8724  -10.3785 C   0  0  0  0  0  0  0  0  0  0  0  0
   26.7163  -20.8430  -12.6249 C   0  0  0  0  0  0  0  0  0  0  0  0
   27.6719  -20.0251  -12.5227 O   0  0  0  0  0  0  0  0  0  0  0  0
   27.5180  -25.8381  -18.7751 N   0  0  0  0  0  0  0  0  0  0  0  0
   27.4084  -25.7381  -17.3795 C   0  0  0  0  0  0  0  0  0  0  0  0
   26.6396  -26.5307  -16.7450 N   0  0  0  0  0  0  0  0  0  0  0  0
   28.1598  -24.7436  -16.6544 N   0  0  0  0  0  0  0  0  0  0  0  0
   28.8680  -23.7240  -17.3599 C   0  0  0  0  0  0  0  0  0  0  0  0
   28.6449  -22.3317  -16.8275 C   0  0  0  0  0  0  0  0  0  0  0  0
   27.6399  -22.4089  -15.6899 C   0  0  0  0  0  0  0  0  0  0  0  0
   27.3488  -21.0693  -15.0726 C   0  0  2  0  0  0  0  0  0  0  0  0
   26.4716  -21.3834  -13.8986 N   0  0  0  0  0  0  0  0  0  0  0  0
   26.6805  -20.1150  -15.9540 C   0  0  0  0  0  0  0  0  0  0  0  0
   25.5599  -20.6063  -16.4507 O   0  0  0  0  0  0  0  0  0  0  0  0
   26.4779  -26.4429  -15.7336 N   0  0  0  0  0  0  0  0  0  0  0  0
   26.9655  -18.8387  -16.3727 C   0  0  0  0  0  0  0  0  0  0  0  0
   27.9397  -18.0087  -15.5807 C   0  0  0  0  0  0  0  0  0  0  0  0
   28.8542  -17.5781  -16.6978 C   0  0  0  0  0  0  0  0  0  0  0  0
   27.9827  -17.4691  -17.9158 C   0  0  2  0  0  0  0  0  0  0  0  0
   26.5809  -17.9687  -17.3894 C   0  0  0  0  0  0  0  0  0  0  0  0
   25.8143  -18.3673  -18.5469 O   0  0  0  0  0  0  0  0  0  0  0  0
   24.7705  -17.7130  -19.0909 O   0  0  0  0  0  0  0  0  0  0  0  0
  2  1  1  1
  2 13  1  0
  2  3  1  0
  3  4  1  0
  4  5  2  0
  6  5  1  0
  7  6  1  0
  8  7  2  0
  9  8  1  0
 10  9  2  0
 10 11  1  0
 11 12  2  0
 12  7  1  0
 12  4  1  0
 13 14  2  0
 16 17  2  0
 16 15  1  0
 18 16  1  0
 19 18  1  0
 19 20  1  0
 20 21  1  0
 22 21  1  6
 22 24  1  0
 23 13  1  0
 23 22  1  0
 24 25  2  0
 26 24  1  0
 26 27  1  0
 27 28  1  0
 29 28  1  0
 30 26  1  0
 30 29  1  0
 30 31  1  6
 32 31  1  0
 33 31  2  0
M  END
$$$$
