WRP.pdb
     RDKit          3D

 33 35  0  0  1  0  0  0  0  0999 V2000
   27.4164  -21.3079  -10.7269 N   0  0  0  0  0  0  0  0  0  0  0  0
   26.3282  -20.7376  -11.4955 C   0  0  1  0  0  0  0  0  0  0  0  0
   25.9376  -19.4192  -10.8531 C   0  0  0  0  0  0  0  0  0  0  0  0
   25.5249  -19.6115   -9.4384 C   0  0  0  0  0  0  0  0  0  0  0  0
   26.1556  -19.1800   -8.2808 C   0  0  0  0  0  0  0  0  0  0  0  0
   25.4341  -19.5756   -7.2164 N   0  0  0  0  0  0  0  0  0  0  0  0
   24.3589  -20.2474   -7.6431 C   0  0  0  0  0  0  0  0  0  0  0  0
   23.3297  -20.8451   -6.9471 C   0  0  0  0  0  0  0  0  0  0  0  0
   22.3361  -21.4786   -7.6488 C   0  0  0  0  0  0  0  0  0  0  0  0
   22.3603  -21.5203   -9.0226 C   0  0  0  0  0  0  0  0  0  0  0  0
   23.3973  -20.9171   -9.7026 C   0  0  0  0  0  0  0  0  0  0  0  0
   24.3950  -20.2820   -9.0193 C   0  0  0  0  0  0  0  0  0  0  0  0
   26.6908  -20.5271  -12.9100 C   0  0  0  0  0  0  0  0  0  0  0  0
   27.5506  -19.6529  -13.2087 O   0  0  0  0  0  0  0  0  0  0  0  0
   29.9130  -25.5239  -17.7093 N   0  0  0  0  0  0  0  0  0  0  0  0
   30.1856  -24.3566  -18.4390 C   0  0  0  0  0  0  0  0  0  0  0  0
   30.6381  -24.4416  -19.6264 N   0  0  0  0  0  0  0  0  0  0  0  0
   29.9579  -23.0575  -17.8559 N   0  0  0  0  0  0  0  0  0  0  0  0
   29.1319  -22.9253  -16.6987 C   0  0  0  0  0  0  0  0  0  0  0  0
   27.6531  -22.9131  -16.9900 C   0  0  0  0  0  0  0  0  0  0  0  0
   26.9088  -22.6983  -15.6823 C   0  0  0  0  0  0  0  0  0  0  0  0
   26.7243  -21.2450  -15.3443 C   0  0  2  0  0  0  0  0  0  0  0  0
   26.1258  -21.2556  -13.9703 N   0  0  0  0  0  0  0  0  0  0  0  0
   25.8607  -20.5027  -16.2594 C   0  0  0  0  0  0  0  0  0  0  0  0
   24.7093  -21.1182  -16.4565 O   0  0  0  0  0  0  0  0  0  0  0  0
   30.9390  -23.6144  -20.1575 N   0  0  0  0  0  0  0  0  0  0  0  0
   25.9896  -19.3229  -16.9502 C   0  0  0  0  0  0  0  0  0  0  0  0
   26.9718  -18.2922  -16.4622 C   0  0  0  0  0  0  0  0  0  0  0  0
   27.7183  -18.0427  -17.7467 C   0  0  0  0  0  0  0  0  0  0  0  0
   26.7119  -18.2358  -18.8444 C   0  0  2  0  0  0  0  0  0  0  0  0
   25.4236  -18.7021  -18.0605 C   0  0  0  0  0  0  0  0  0  0  0  0
   24.5704  -19.3728  -19.0137 O   0  0  0  0  0  0  0  0  0  0  0  0
   23.3611  -18.9656  -19.4442 O   0  0  0  0  0  0  0  0  0  0  0  0
  2  1  1  1
  2 13  1  0
  2  3  1  0
  3  4  1  0
  4  5  2  0
  6  5  1  0
  7  6  1  0
  8  7  2  0
  9  8  1  0
 10  9  2  0
 10 11  1  0
 11 12  2  0
 12  7  1  0
 12  4  1  0
 13 14  2  0
 16 17  2  0
 16 15  1  0
 18 16  1  0
 19 18  1  0
 19 20  1  0
 20 21  1  0
 22 21  1  6
 22 24  1  0
 23 13  1  0
 23 22  1  0
 24 25  2  0
 26 24  1  0
 26 27  1  0
 27 28  1  0
 29 28  1  0
 30 26  1  0
 30 29  1  0
 30 31  1  6
 32 31  1  0
 33 31  2  0
M  END
$$$$
