WRP.pdb
     RDKit          3D

 33 35  0  0  1  0  0  0  0  0999 V2000
   27.8634  -21.6075  -15.8123 N   0  0  0  0  0  0  0  0  0  0  0  0
   26.9617  -20.4893  -15.6201 C   0  0  1  0  0  0  0  0  0  0  0  0
   26.6823  -19.8704  -16.9774 C   0  0  0  0  0  0  0  0  0  0  0  0
   27.7333  -18.8868  -17.3468 C   0  0  0  0  0  0  0  0  0  0  0  0
   28.8184  -19.0491  -18.1956 C   0  0  0  0  0  0  0  0  0  0  0  0
   29.5140  -17.8984  -18.2408 N   0  0  0  0  0  0  0  0  0  0  0  0
   28.9185  -16.9970  -17.4520 C   0  0  0  0  0  0  0  0  0  0  0  0
   29.2440  -15.6879  -17.1668 C   0  0  0  0  0  0  0  0  0  0  0  0
   28.4444  -14.9790  -16.3071 C   0  0  0  0  0  0  0  0  0  0  0  0
   27.3360  -15.5581  -15.7363 C   0  0  0  0  0  0  0  0  0  0  0  0
   27.0253  -16.8686  -16.0327 C   0  0  0  0  0  0  0  0  0  0  0  0
   27.8109  -17.5889  -16.8869 C   0  0  0  0  0  0  0  0  0  0  0  0
   25.6980  -20.8925  -14.9744 C   0  0  0  0  0  0  0  0  0  0  0  0
   25.2079  -22.0290  -15.2211 O   0  0  0  0  0  0  0  0  0  0  0  0
   21.2633  -19.7825   -8.2473 N   0  0  0  0  0  0  0  0  0  0  0  0
   20.3697  -20.5611   -8.9988 C   0  0  0  0  0  0  0  0  0  0  0  0
   19.1493  -20.6460   -8.6447 N   0  0  0  0  0  0  0  0  0  0  0  0
   20.8209  -21.2683  -10.1717 N   0  0  0  0  0  0  0  0  0  0  0  0
   22.1233  -21.0207  -10.7022 C   0  0  0  0  0  0  0  0  0  0  0  0
   22.2198  -19.7836  -11.5577 C   0  0  0  0  0  0  0  0  0  0  0  0
   23.6038  -19.7412  -12.1847 C   0  0  0  0  0  0  0  0  0  0  0  0
   23.6838  -20.4984  -13.4811 C   0  0  2  0  0  0  0  0  0  0  0  0
   24.9891  -20.0715  -14.0813 N   0  0  0  0  0  0  0  0  0  0  0  0
   22.5940  -20.2361  -14.4179 C   0  0  0  0  0  0  0  0  0  0  0  0
   22.2894  -18.9523  -14.4705 O   0  0  0  0  0  0  0  0  0  0  0  0
   18.4561  -21.1710   -9.1930 N   0  0  0  0  0  0  0  0  0  0  0  0
   21.8284  -21.0266  -15.2393 C   0  0  0  0  0  0  0  0  0  0  0  0
   22.3777  -22.3489  -15.7029 C   0  0  0  0  0  0  0  0  0  0  0  0
   21.2205  -23.2367  -15.3257 C   0  0  0  0  0  0  0  0  0  0  0  0
   19.9911  -22.3891  -15.4835 C   0  0  2  0  0  0  0  0  0  0  0  0
   20.5855  -20.9774  -15.8649 C   0  0  0  0  0  0  0  0  0  0  0  0
   19.5680  -19.9970  -15.5646 O   0  0  0  0  0  0  0  0  0  0  0  0
   18.4930  -19.6902  -16.3154 O   0  0  0  0  0  0  0  0  0  0  0  0
  2  1  1  6
  2 13  1  0
  2  3  1  0
  3  4  1  0
  4  5  2  0
  6  5  1  0
  7  6  1  0
  8  7  2  0
  9  8  1  0
 10  9  2  0
 10 11  1  0
 11 12  2  0
 12  7  1  0
 12  4  1  0
 13 14  2  0
 16 17  2  0
 16 15  1  0
 18 16  1  0
 19 18  1  0
 19 20  1  0
 20 21  1  0
 22 21  1  1
 22 24  1  0
 23 13  1  0
 23 22  1  0
 24 25  2  0
 26 24  1  0
 26 27  1  0
 27 28  1  0
 29 28  1  0
 30 26  1  0
 30 29  1  0
 30 31  1  1
 32 31  1  0
 33 31  2  0
M  END
$$$$
