RFM.pdb
     RDKit          3D

 31 31  0  0  1  0  0  0  0  0999 V2000
    8.7041  -14.5238   13.9526 N   0  0  0  0  0  0  0  0  0  0  0  0
    7.7638  -15.3714   14.6260 C   0  0  0  0  0  0  0  0  0  0  0  0
    7.3402  -16.4356   14.0361 N   0  0  0  0  0  0  0  0  0  0  0  0
    7.3141  -15.0287   15.9292 N   0  0  0  0  0  0  0  0  0  0  0  0
    7.8092  -13.8883   16.6501 C   0  0  0  0  0  0  0  0  0  0  0  0
    9.2124  -14.1474   17.1204 C   0  0  0  0  0  0  0  0  0  0  0  0
    9.3512  -13.8882   18.6106 C   0  0  0  0  0  0  0  0  0  0  0  0
    9.6241  -15.1375   19.3982 C   0  0  2  0  0  0  0  0  0  0  0  0
    8.6584  -16.1828   19.1053 N   0  0  0  0  0  0  0  0  0  0  0  0
    9.6277  -14.8004   20.8465 C   0  0  0  0  0  0  0  0  0  0  0  0
   10.4786  -13.9893   21.2929 O   0  0  0  0  0  0  0  0  0  0  0  0
    6.7155  -17.0778   14.5366 N   0  0  0  0  0  0  0  0  0  0  0  0
    8.7000  -15.3595   21.7641 C   0  0  1  0  0  0  0  0  0  0  0  0
    8.5465  -14.7710   23.0684 C   0  0  0  0  0  0  0  0  0  0  0  0
    7.1058  -14.5170   23.4189 C   0  0  0  0  0  0  0  0  0  0  0  0
    6.8942  -13.7022   24.6013 C   0  0  0  0  0  0  0  0  0  0  0  0
    7.2460  -12.3803   24.6259 C   0  0  0  0  0  0  0  0  0  0  0  0
    7.0491  -11.5901   25.7668 C   0  0  0  0  0  0  0  0  0  0  0  0
    6.4965  -12.1451   26.8758 C   0  0  0  0  0  0  0  0  0  0  0  0
    6.1336  -13.4647   26.8838 C   0  0  0  0  0  0  0  0  0  0  0  0
    6.3354  -14.2457   25.7363 C   0  0  0  0  0  0  0  0  0  0  0  0
    9.2861  -15.5789   24.0553 O   0  0  0  0  0  0  0  0  0  0  0  0
    9.2502  -16.8571   23.9865 C   0  0  0  0  0  0  0  0  0  0  0  0
   11.8860  -15.6879   31.5289 S   0  0  0  0  0  0  0  0  0  0  0  0
   11.2676  -14.6841   30.1516 C   0  0  0  0  0  0  0  0  0  0  0  0
   11.0750  -15.7343   28.6923 C   0  0  0  0  0  0  0  0  0  0  0  0
   10.5699  -14.9906   27.4987 C   0  0  2  0  0  0  0  0  0  0  0  0
   10.4626  -15.8626   26.2552 N   0  0  0  0  0  0  0  0  0  0  0  0
   10.0664  -15.0566   25.1170 C   0  0  0  0  0  0  0  0  0  0  0  0
    9.6547  -17.0665   26.4558 O   0  0  0  0  0  0  0  0  0  0  0  0
    8.3899  -16.9111   26.3347 O   0  0  0  0  0  0  0  0  0  0  0  0
  1  2  1  0
  2  3  2  0
  4  2  1  0
  4  5  1  0
  6  5  1  0
  7  6  1  0
  8 10  1  0
  8  7  1  0
  8  9  1  1
 10 12  1  0
 11 10  2  0
 12 13  1  0
 14 15  1  0
 13 14  1  6
 15 20  2  0
 16 17  2  0
 16 15  1  0
 17 18  1  0
 18 19  2  0
 20 19  1  0
 21 22  2  0
 21 13  1  0
 24 25  1  0
 24 23  1  0
 25 26  1  0
 27 26  1  6
 27 28  1  0
 27 29  1  0
 28 21  1  0
 29 30  2  0
 29 31  1  0
M  END
$$$$
