RFM.pdb
     RDKit          3D

 31 31  0  0  1  0  0  0  0  0999 V2000
    6.8048  -14.2115   19.0762 N   0  0  0  0  0  0  0  0  0  0  0  0
    7.8431  -13.5600   18.3321 C   0  0  0  0  0  0  0  0  0  0  0  0
    7.9964  -12.2860   18.4476 N   0  0  0  0  0  0  0  0  0  0  0  0
    8.6860  -14.3245   17.4817 N   0  0  0  0  0  0  0  0  0  0  0  0
    9.3599  -15.5163   17.9185 C   0  0  0  0  0  0  0  0  0  0  0  0
   10.5387  -15.1547   18.7768 C   0  0  0  0  0  0  0  0  0  0  0  0
   11.3193  -16.3903   19.1905 C   0  0  0  0  0  0  0  0  0  0  0  0
   10.5864  -17.2366   20.1917 C   0  0  2  0  0  0  0  0  0  0  0  0
    9.3669  -17.7976   19.6354 N   0  0  0  0  0  0  0  0  0  0  0  0
   10.2980  -16.4134   21.3961 C   0  0  0  0  0  0  0  0  0  0  0  0
   11.2044  -15.6936   21.8873 O   0  0  0  0  0  0  0  0  0  0  0  0
    8.6262  -11.7913   17.8060 N   0  0  0  0  0  0  0  0  0  0  0  0
    9.0266  -16.4010   22.0273 C   0  0  1  0  0  0  0  0  0  0  0  0
    8.8326  -15.6216   23.2214 C   0  0  0  0  0  0  0  0  0  0  0  0
    7.4489  -15.0378   23.3089 C   0  0  0  0  0  0  0  0  0  0  0  0
    7.2107  -14.1882   24.4613 C   0  0  0  0  0  0  0  0  0  0  0  0
    6.6278  -14.6788   25.5977 C   0  0  0  0  0  0  0  0  0  0  0  0
    6.3904  -13.8617   26.7115 C   0  0  0  0  0  0  0  0  0  0  0  0
    6.7456  -12.5521   26.6665 C   0  0  0  0  0  0  0  0  0  0  0  0
    7.3308  -12.0303   25.5447 C   0  0  0  0  0  0  0  0  0  0  0  0
    7.5635  -12.8576   24.4361 C   0  0  0  0  0  0  0  0  0  0  0  0
    9.2383  -16.4195   24.3929 O   0  0  0  0  0  0  0  0  0  0  0  0
    9.0874  -17.6911   24.3799 C   0  0  0  0  0  0  0  0  0  0  0  0
   11.0567  -13.8685   30.3381 S   0  0  0  0  0  0  0  0  0  0  0  0
   10.3008  -13.3631   28.7696 C   0  0  0  0  0  0  0  0  0  0  0  0
   10.8974  -14.4439   27.4485 C   0  0  0  0  0  0  0  0  0  0  0  0
   10.8147  -15.8947   27.7972 C   0  0  2  0  0  0  0  0  0  0  0  0
   10.2264  -16.7434   26.6783 N   0  0  0  0  0  0  0  0  0  0  0  0
    9.8035  -15.8942   25.5818 C   0  0  0  0  0  0  0  0  0  0  0  0
    9.2097  -17.6904   27.1383 O   0  0  0  0  0  0  0  0  0  0  0  0
    9.5877  -18.5121   28.0441 O   0  0  0  0  0  0  0  0  0  0  0  0
  1  2  1  0
  2  3  2  0
  4  2  1  0
  4  5  1  0
  6  5  1  0
  7  6  1  0
  8 10  1  0
  8  7  1  0
  8  9  1  6
 10 12  1  0
 11 10  2  0
 12 13  1  0
 14 15  1  0
 13 14  1  1
 15 20  2  0
 16 17  2  0
 16 15  1  0
 17 18  1  0
 18 19  2  0
 20 19  1  0
 21 22  2  0
 21 13  1  0
 24 25  1  0
 24 23  1  0
 25 26  1  0
 27 26  1  6
 27 28  1  0
 27 29  1  0
 28 21  1  0
 29 30  2  0
 29 31  1  0
M  END
$$$$
