RFM.pdb
     RDKit          3D

 31 31  0  0  1  0  0  0  0  0999 V2000
    7.8615  -13.2405   13.0354 N   0  0  0  0  0  0  0  0  0  0  0  0
    8.3056  -14.0007   14.1671 C   0  0  0  0  0  0  0  0  0  0  0  0
    8.3373  -15.2864   14.0891 N   0  0  0  0  0  0  0  0  0  0  0  0
    8.7038  -13.3294   15.3541 N   0  0  0  0  0  0  0  0  0  0  0  0
    9.2651  -14.0139   16.4862 C   0  0  0  0  0  0  0  0  0  0  0  0
    8.2126  -14.8543   17.1520 C   0  0  0  0  0  0  0  0  0  0  0  0
    8.2735  -14.7186   18.6637 C   0  0  0  0  0  0  0  0  0  0  0  0
    9.3179  -15.5992   19.2878 C   0  0  2  0  0  0  0  0  0  0  0  0
    9.0032  -17.0085   19.1266 N   0  0  0  0  0  0  0  0  0  0  0  0
    9.4521  -15.2400   20.7246 C   0  0  0  0  0  0  0  0  0  0  0  0
   10.3215  -14.4024   21.0763 O   0  0  0  0  0  0  0  0  0  0  0  0
    8.6036  -15.8375   14.9128 N   0  0  0  0  0  0  0  0  0  0  0  0
    8.6309  -15.8065   21.7344 C   0  0  1  0  0  0  0  0  0  0  0  0
    8.5222  -15.1539   23.0124 C   0  0  0  0  0  0  0  0  0  0  0  0
    7.1047  -14.7777   23.3475 C   0  0  0  0  0  0  0  0  0  0  0  0
    6.9402  -14.0378   24.5853 C   0  0  0  0  0  0  0  0  0  0  0  0
    7.3776  -12.7471   24.7054 C   0  0  0  0  0  0  0  0  0  0  0  0
    7.2263  -12.0297   25.9001 C   0  0  0  0  0  0  0  0  0  0  0  0
    6.6324  -12.6254   26.9658 C   0  0  0  0  0  0  0  0  0  0  0  0
    6.1838  -13.9154   26.8783 C   0  0  0  0  0  0  0  0  0  0  0  0
    6.3406  -14.6236   25.6776 C   0  0  0  0  0  0  0  0  0  0  0  0
    9.1989  -15.9729   24.0346 O   0  0  0  0  0  0  0  0  0  0  0  0
    9.5891  -17.1577   23.7448 C   0  0  0  0  0  0  0  0  0  0  0  0
   11.2621  -13.7242   29.8727 S   0  0  0  0  0  0  0  0  0  0  0  0
   12.2764  -15.2190   29.7175 C   0  0  0  0  0  0  0  0  0  0  0  0
   11.6011  -16.2597   28.4020 C   0  0  0  0  0  0  0  0  0  0  0  0
   10.8381  -15.4853   27.3768 C   0  0  1  0  0  0  0  0  0  0  0  0
   10.2564  -16.3642   26.2779 N   0  0  0  0  0  0  0  0  0  0  0  0
    9.4717  -15.5591   25.3624 C   0  0  0  0  0  0  0  0  0  0  0  0
    9.5665  -17.5511   26.7852 O   0  0  0  0  0  0  0  0  0  0  0  0
    8.2905  -17.4674   26.8434 O   0  0  0  0  0  0  0  0  0  0  0  0
  1  2  1  0
  2  3  2  0
  4  2  1  0
  4  5  1  0
  6  5  1  0
  7  6  1  0
  8 10  1  0
  8  7  1  0
  8  9  1  1
 10 12  1  0
 11 10  2  0
 12 13  1  0
 14 15  1  0
 13 14  1  6
 15 20  2  0
 16 17  2  0
 16 15  1  0
 17 18  1  0
 18 19  2  0
 20 19  1  0
 21 22  2  0
 21 13  1  0
 24 25  1  0
 24 23  1  0
 25 26  1  0
 27 26  1  6
 27 28  1  0
 27 29  1  0
 28 21  1  0
 29 30  2  0
 29 31  1  0
M  END
$$$$
