RFM.pdb
     RDKit          3D

 31 31  0  0  1  0  0  0  0  0999 V2000
    9.4528  -22.7686   18.9962 N   0  0  0  0  0  0  0  0  0  0  0  0
    9.5894  -22.0435   17.7667 C   0  0  0  0  0  0  0  0  0  0  0  0
    9.0753  -22.5281   16.6893 N   0  0  0  0  0  0  0  0  0  0  0  0
   10.2860  -20.8055   17.7528 N   0  0  0  0  0  0  0  0  0  0  0  0
    9.9367  -19.7046   18.6080 C   0  0  0  0  0  0  0  0  0  0  0  0
   10.5365  -19.9026   19.9712 C   0  0  0  0  0  0  0  0  0  0  0  0
   10.8994  -18.5742   20.6121 C   0  0  0  0  0  0  0  0  0  0  0  0
   10.0825  -17.4289   20.0860 C   0  0  2  0  0  0  0  0  0  0  0  0
   10.7097  -16.8015   18.9353 N   0  0  0  0  0  0  0  0  0  0  0  0
    9.8696  -16.4477   21.1829 C   0  0  0  0  0  0  0  0  0  0  0  0
   10.7224  -15.5456   21.3828 O   0  0  0  0  0  0  0  0  0  0  0  0
    9.1823  -22.0202   15.8040 N   0  0  0  0  0  0  0  0  0  0  0  0
    8.7299  -16.4813   22.0285 C   0  0  1  0  0  0  0  0  0  0  0  0
    8.5268  -15.4311   22.9911 C   0  0  0  0  0  0  0  0  0  0  0  0
    7.1131  -14.9169   22.9918 C   0  0  0  0  0  0  0  0  0  0  0  0
    6.7960  -13.9886   24.0616 C   0  0  0  0  0  0  0  0  0  0  0  0
    7.1202  -12.6625   23.9714 C   0  0  0  0  0  0  0  0  0  0  0  0
    6.8214  -11.7627   25.0037 C   0  0  0  0  0  0  0  0  0  0  0  0
    6.1956  -12.2129   26.1213 C   0  0  0  0  0  0  0  0  0  0  0  0
    5.8577  -13.5335   26.2427 C   0  0  0  0  0  0  0  0  0  0  0  0
    6.1618  -14.4248   25.2032 C   0  0  0  0  0  0  0  0  0  0  0  0
    9.0193  -15.8773   24.3072 O   0  0  0  0  0  0  0  0  0  0  0  0
    9.2696  -17.1173   24.5060 C   0  0  0  0  0  0  0  0  0  0  0  0
   11.2504  -14.1544   31.7373 S   0  0  0  0  0  0  0  0  0  0  0  0
   10.5747  -13.5013   30.1868 C   0  0  0  0  0  0  0  0  0  0  0  0
   10.6658  -14.7825   28.9141 C   0  0  0  0  0  0  0  0  0  0  0  0
   10.0782  -14.3534   27.6088 C   0  0  1  0  0  0  0  0  0  0  0  0
    9.8967  -15.5056   26.6301 N   0  0  0  0  0  0  0  0  0  0  0  0
    9.2532  -15.0318   25.4204 C   0  0  0  0  0  0  0  0  0  0  0  0
    9.2692  -16.6848   27.2283 O   0  0  0  0  0  0  0  0  0  0  0  0
    7.9926  -16.7335   27.1482 O   0  0  0  0  0  0  0  0  0  0  0  0
  1  2  1  0
  2  3  2  0
  4  2  1  0
  4  5  1  0
  6  5  1  0
  7  6  1  0
  8 10  1  0
  8  7  1  0
  8  9  1  6
 10 12  1  0
 11 10  2  0
 12 13  1  0
 14 15  1  0
 13 14  1  6
 15 20  2  0
 16 17  2  0
 16 15  1  0
 17 18  1  0
 18 19  2  0
 20 19  1  0
 21 22  2  0
 21 13  1  0
 24 25  1  0
 24 23  1  0
 25 26  1  0
 27 26  1  6
 27 28  1  0
 27 29  1  0
 28 21  1  0
 29 30  2  0
 29 31  1  0
M  END
$$$$
