RFM.pdb
     RDKit          3D

 31 31  0  0  1  0  0  0  0  0999 V2000
   10.4787  -18.6941   15.4473 N   0  0  0  0  0  0  0  0  0  0  0  0
   11.4514  -19.5074   16.1170 C   0  0  0  0  0  0  0  0  0  0  0  0
   11.5273  -20.7616   15.8322 N   0  0  0  0  0  0  0  0  0  0  0  0
   12.3154  -18.9221   17.0809 N   0  0  0  0  0  0  0  0  0  0  0  0
   12.1982  -17.5538   17.5044 C   0  0  0  0  0  0  0  0  0  0  0  0
   11.0626  -17.4129   18.4779 C   0  0  0  0  0  0  0  0  0  0  0  0
   11.5705  -17.2988   19.9048 C   0  0  0  0  0  0  0  0  0  0  0  0
   10.7174  -18.0450   20.8903 C   0  0  2  0  0  0  0  0  0  0  0  0
    9.5102  -18.5675   20.2732 N   0  0  0  0  0  0  0  0  0  0  0  0
   10.3922  -17.1404   22.0249 C   0  0  0  0  0  0  0  0  0  0  0  0
   11.3156  -16.5105   22.6008 O   0  0  0  0  0  0  0  0  0  0  0  0
   12.2059  -21.3529   16.3251 N   0  0  0  0  0  0  0  0  0  0  0  0
    9.0665  -16.9504   22.4956 C   0  0  1  0  0  0  0  0  0  0  0  0
    8.8244  -16.0603   23.6002 C   0  0  0  0  0  0  0  0  0  0  0  0
    7.4419  -15.4678   23.5692 C   0  0  0  0  0  0  0  0  0  0  0  0
    7.1766  -14.4700   24.5893 C   0  0  0  0  0  0  0  0  0  0  0  0
    7.6602  -13.1949   24.4792 C   0  0  0  0  0  0  0  0  0  0  0  0
    7.4117  -12.2289   25.4640 C   0  0  0  0  0  0  0  0  0  0  0  0
    6.6744  -12.5616   26.5544 C   0  0  0  0  0  0  0  0  0  0  0  0
    6.1762  -13.8285   26.6946 C   0  0  0  0  0  0  0  0  0  0  0  0
    6.4312  -14.7870   25.7027 C   0  0  0  0  0  0  0  0  0  0  0  0
    9.1720  -16.7439   24.8594 O   0  0  0  0  0  0  0  0  0  0  0  0
    8.8784  -17.9807   25.0141 C   0  0  0  0  0  0  0  0  0  0  0  0
   11.1163  -13.1101   29.0568 S   0  0  0  0  0  0  0  0  0  0  0  0
   12.2033  -13.5674   27.6797 C   0  0  0  0  0  0  0  0  0  0  0  0
   12.1527  -15.3608   27.4547 C   0  0  0  0  0  0  0  0  0  0  0  0
   10.9699  -15.9993   28.1076 C   0  0  2  0  0  0  0  0  0  0  0  0
   10.1707  -16.8823   27.1589 N   0  0  0  0  0  0  0  0  0  0  0  0
    9.8278  -16.1403   25.9614 C   0  0  0  0  0  0  0  0  0  0  0  0
    9.0391  -17.5527   27.8011 O   0  0  0  0  0  0  0  0  0  0  0  0
    7.9001  -16.9902   27.6434 O   0  0  0  0  0  0  0  0  0  0  0  0
  1  2  1  0
  2  3  2  0
  4  2  1  0
  4  5  1  0
  6  5  1  0
  7  6  1  0
  8 10  1  0
  8  7  1  0
  8  9  1  6
 10 12  1  0
 11 10  2  0
 12 13  1  0
 14 15  1  0
 13 14  1  6
 15 20  2  0
 16 17  2  0
 16 15  1  0
 17 18  1  0
 18 19  2  0
 20 19  1  0
 21 22  2  0
 21 13  1  0
 24 25  1  0
 24 23  1  0
 25 26  1  0
 27 26  1  6
 27 28  1  0
 27 29  1  0
 28 21  1  0
 29 30  2  0
 29 31  1  0
M  END
$$$$
