RFM.pdb
     RDKit          3D

 31 31  0  0  1  0  0  0  0  0999 V2000
    9.1028  -21.5271   17.6280 N   0  0  0  0  0  0  0  0  0  0  0  0
   10.2020  -22.3402   18.0600 C   0  0  0  0  0  0  0  0  0  0  0  0
   10.7508  -23.1531   17.2245 N   0  0  0  0  0  0  0  0  0  0  0  0
   10.6701  -22.2389   19.3975 N   0  0  0  0  0  0  0  0  0  0  0  0
   10.1065  -21.3262   20.3538 C   0  0  0  0  0  0  0  0  0  0  0  0
   10.3945  -19.9098   19.9438 C   0  0  0  0  0  0  0  0  0  0  0  0
    9.8730  -18.9212   20.9724 C   0  0  0  0  0  0  0  0  0  0  0  0
   10.0758  -17.4904   20.5631 C   0  0  2  0  0  0  0  0  0  0  0  0
   11.3734  -17.2846   19.9424 N   0  0  0  0  0  0  0  0  0  0  0  0
    9.9083  -16.6212   21.7580 C   0  0  0  0  0  0  0  0  0  0  0  0
   10.9220  -16.2514   22.4034 O   0  0  0  0  0  0  0  0  0  0  0  0
   11.4772  -23.8006   17.5502 N   0  0  0  0  0  0  0  0  0  0  0  0
    8.6371  -16.1813   22.2114 C   0  0  1  0  0  0  0  0  0  0  0  0
    8.5398  -15.4226   23.4303 C   0  0  0  0  0  0  0  0  0  0  0  0
    7.3158  -14.5489   23.4680 C   0  0  0  0  0  0  0  0  0  0  0  0
    7.2072  -13.6910   24.6338 C   0  0  0  0  0  0  0  0  0  0  0  0
    6.3953  -14.0194   25.6848 C   0  0  0  0  0  0  0  0  0  0  0  0
    6.2825  -13.1921   26.8107 C   0  0  0  0  0  0  0  0  0  0  0  0
    6.9936  -12.0367   26.8640 C   0  0  0  0  0  0  0  0  0  0  0  0
    7.8148  -11.6794   25.8291 C   0  0  0  0  0  0  0  0  0  0  0  0
    7.9198  -12.5152   24.7076 C   0  0  0  0  0  0  0  0  0  0  0  0
    8.6807  -16.3333   24.5812 O   0  0  0  0  0  0  0  0  0  0  0  0
    8.3186  -17.5568   24.4726 C   0  0  0  0  0  0  0  0  0  0  0  0
   11.2669  -12.5192   28.1781 S   0  0  0  0  0  0  0  0  0  0  0  0
   11.2460  -14.2441   27.6200 C   0  0  0  0  0  0  0  0  0  0  0  0
    9.8799  -15.1117   28.4265 C   0  0  0  0  0  0  0  0  0  0  0  0
    9.8512  -16.5734   28.1173 C   0  0  2  0  0  0  0  0  0  0  0  0
   10.0223  -16.8717   26.6340 N   0  0  0  0  0  0  0  0  0  0  0  0
    9.2003  -15.9714   25.8492 C   0  0  0  0  0  0  0  0  0  0  0  0
    9.8577  -18.2876   26.3017 O   0  0  0  0  0  0  0  0  0  0  0  0
    8.7150  -18.6158   25.8273 O   0  0  0  0  0  0  0  0  0  0  0  0
  1  2  1  0
  2  3  2  0
  4  2  1  0
  4  5  1  0
  6  5  1  0
  7  6  1  0
  8 10  1  0
  8  7  1  0
  8  9  1  1
 10 12  1  0
 11 10  2  0
 12 13  1  0
 14 15  1  0
 13 14  1  1
 15 20  2  0
 16 17  2  0
 16 15  1  0
 17 18  1  0
 18 19  2  0
 20 19  1  0
 21 22  2  0
 21 13  1  0
 24 25  1  0
 24 23  1  0
 25 26  1  0
 27 26  1  6
 27 28  1  0
 27 29  1  0
 28 21  1  0
 29 30  2  0
 29 31  1  0
M  END
$$$$
