RFM.pdb
     RDKit          3D

 31 31  0  0  1  0  0  0  0  0999 V2000
    7.3675  -14.9445   17.1760 N   0  0  0  0  0  0  0  0  0  0  0  0
    8.4346  -13.9938   17.0602 C   0  0  0  0  0  0  0  0  0  0  0  0
    8.2193  -12.7635   17.3764 N   0  0  0  0  0  0  0  0  0  0  0  0
    9.7100  -14.4190   16.6010 N   0  0  0  0  0  0  0  0  0  0  0  0
   10.0025  -15.7858   16.2669 C   0  0  0  0  0  0  0  0  0  0  0  0
    9.7632  -16.6685   17.4588 C   0  0  0  0  0  0  0  0  0  0  0  0
   10.6898  -16.3078   18.6070 C   0  0  0  0  0  0  0  0  0  0  0  0
   10.4709  -17.1597   19.8244 C   0  0  2  0  0  0  0  0  0  0  0  0
    9.4049  -18.1262   19.6231 N   0  0  0  0  0  0  0  0  0  0  0  0
   10.1813  -16.2745   20.9837 C   0  0  0  0  0  0  0  0  0  0  0  0
   11.0321  -15.4199   21.3398 O   0  0  0  0  0  0  0  0  0  0  0  0
    8.9956  -12.0927   17.3594 N   0  0  0  0  0  0  0  0  0  0  0  0
    8.9692  -16.3492   21.7188 C   0  0  1  0  0  0  0  0  0  0  0  0
    8.7846  -15.5106   22.8737 C   0  0  0  0  0  0  0  0  0  0  0  0
    7.5214  -14.6971   22.7978 C   0  0  0  0  0  0  0  0  0  0  0  0
    7.2075  -13.9345   23.9922 C   0  0  0  0  0  0  0  0  0  0  0  0
    7.6489  -12.6493   24.1513 C   0  0  0  0  0  0  0  0  0  0  0  0
    7.3535  -11.9101   25.3050 C   0  0  0  0  0  0  0  0  0  0  0  0
    6.6122  -12.4784   26.2903 C   0  0  0  0  0  0  0  0  0  0  0  0
    6.1554  -13.7621   26.1620 C   0  0  0  0  0  0  0  0  0  0  0  0
    6.4573  -14.4923   25.0030 C   0  0  0  0  0  0  0  0  0  0  0  0
    8.9168  -16.3284   24.0932 O   0  0  0  0  0  0  0  0  0  0  0  0
    8.9462  -17.6054   24.0031 C   0  0  0  0  0  0  0  0  0  0  0  0
   10.3172  -13.0935   29.6409 S   0  0  0  0  0  0  0  0  0  0  0  0
   11.0720  -14.6916   30.0451 C   0  0  0  0  0  0  0  0  0  0  0  0
   11.1016  -15.7254   28.5618 C   0  0  0  0  0  0  0  0  0  0  0  0
   10.0241  -15.3795   27.5860 C   0  0  2  0  0  0  0  0  0  0  0  0
   10.0806  -16.2164   26.3152 N   0  0  0  0  0  0  0  0  0  0  0  0
    9.0196  -15.8172   25.4112 C   0  0  0  0  0  0  0  0  0  0  0  0
   10.1512  -17.6562   26.5685 O   0  0  0  0  0  0  0  0  0  0  0  0
   10.2385  -17.9984   27.7989 O   0  0  0  0  0  0  0  0  0  0  0  0
  1  2  1  0
  2  3  2  0
  4  2  1  0
  4  5  1  0
  6  5  1  0
  7  6  1  0
  8 10  1  0
  8  7  1  0
  8  9  1  6
 10 12  1  0
 11 10  2  0
 12 13  1  0
 14 15  1  0
 13 14  1  1
 15 20  2  0
 16 17  2  0
 16 15  1  0
 17 18  1  0
 18 19  2  0
 20 19  1  0
 21 22  2  0
 21 13  1  0
 24 25  1  0
 24 23  1  0
 25 26  1  0
 27 26  1  6
 27 28  1  0
 27 29  1  0
 28 21  1  0
 29 30  2  0
 29 31  1  0
M  END
$$$$
