RFM.pdb
     RDKit          3D

 31 31  0  0  1  0  0  0  0  0999 V2000
   12.1942  -20.5468   15.2644 N   0  0  0  0  0  0  0  0  0  0  0  0
   10.8913  -19.9580   15.1553 C   0  0  0  0  0  0  0  0  0  0  0  0
   10.0333  -20.4729   14.3437 N   0  0  0  0  0  0  0  0  0  0  0  0
   10.5648  -18.8200   15.9405 N   0  0  0  0  0  0  0  0  0  0  0  0
   11.1832  -18.5437   17.2080 C   0  0  0  0  0  0  0  0  0  0  0  0
   10.1739  -17.9600   18.1556 C   0  0  0  0  0  0  0  0  0  0  0  0
   10.8463  -17.3756   19.3859 C   0  0  0  0  0  0  0  0  0  0  0  0
   10.3156  -17.9477   20.6692 C   0  0  2  0  0  0  0  0  0  0  0  0
    9.0797  -18.6832   20.4627 N   0  0  0  0  0  0  0  0  0  0  0  0
   10.1257  -16.8418   21.6451 C   0  0  0  0  0  0  0  0  0  0  0  0
   11.1001  -16.1073   21.9481 O   0  0  0  0  0  0  0  0  0  0  0  0
    9.1194  -20.0228   14.2201 N   0  0  0  0  0  0  0  0  0  0  0  0
    8.8753  -16.5712   22.2603 C   0  0  1  0  0  0  0  0  0  0  0  0
    8.7558  -15.4648   23.1728 C   0  0  0  0  0  0  0  0  0  0  0  0
    7.3245  -15.1551   23.5171 C   0  0  0  0  0  0  0  0  0  0  0  0
    7.1432  -14.1645   24.5623 C   0  0  0  0  0  0  0  0  0  0  0  0
    7.6649  -12.9051   24.4463 C   0  0  0  0  0  0  0  0  0  0  0  0
    7.4976  -11.9463   25.4550 C   0  0  0  0  0  0  0  0  0  0  0  0
    6.8021  -12.2703   26.5752 C   0  0  0  0  0  0  0  0  0  0  0  0
    6.2675  -13.5215   26.7220 C   0  0  0  0  0  0  0  0  0  0  0  0
    6.4413  -14.4729   25.7060 C   0  0  0  0  0  0  0  0  0  0  0  0
    9.6312  -15.6985   24.3359 O   0  0  0  0  0  0  0  0  0  0  0  0
   10.4964  -14.8150   24.6688 C   0  0  0  0  0  0  0  0  0  0  0  0
    9.8501  -12.9960   29.0361 S   0  0  0  0  0  0  0  0  0  0  0  0
   11.2381  -14.1490   29.2122 C   0  0  0  0  0  0  0  0  0  0  0  0
   10.7418  -15.7735   28.5923 C   0  0  0  0  0  0  0  0  0  0  0  0
   10.0784  -15.7116   27.2547 C   0  0  1  0  0  0  0  0  0  0  0  0
   10.3540  -16.9384   26.3960 N   0  0  0  0  0  0  0  0  0  0  0  0
    9.6067  -16.8539   25.1564 C   0  0  0  0  0  0  0  0  0  0  0  0
   10.1918  -18.2021   27.1164 O   0  0  0  0  0  0  0  0  0  0  0  0
   10.9711  -18.3728   28.1175 O   0  0  0  0  0  0  0  0  0  0  0  0
  1  2  1  0
  2  3  2  0
  4  2  1  0
  4  5  1  0
  6  5  1  0
  7  6  1  0
  8 10  1  0
  8  7  1  0
  8  9  1  6
 10 12  1  0
 11 10  2  0
 12 13  1  0
 14 15  1  0
 13 14  1  6
 15 20  2  0
 16 17  2  0
 16 15  1  0
 17 18  1  0
 18 19  2  0
 20 19  1  0
 21 22  2  0
 21 13  1  0
 24 25  1  0
 24 23  1  0
 25 26  1  0
 27 26  1  6
 27 28  1  0
 27 29  1  0
 28 21  1  0
 29 30  2  0
 29 31  1  0
M  END
$$$$
