RFM.pdb
     RDKit          3D

 31 31  0  0  1  0  0  0  0  0999 V2000
    7.4905  -15.0427   14.2241 N   0  0  0  0  0  0  0  0  0  0  0  0
    8.7759  -15.6708   14.1280 C   0  0  0  0  0  0  0  0  0  0  0  0
    9.6044  -15.2749   13.2242 N   0  0  0  0  0  0  0  0  0  0  0  0
    9.1179  -16.7162   15.0270 N   0  0  0  0  0  0  0  0  0  0  0  0
   10.3258  -16.7110   15.8057 C   0  0  0  0  0  0  0  0  0  0  0  0
   10.0132  -16.3745   17.2362 C   0  0  0  0  0  0  0  0  0  0  0  0
    9.0272  -17.3640   17.8327 C   0  0  0  0  0  0  0  0  0  0  0  0
    9.5936  -18.1227   18.9986 C   0  0  2  0  0  0  0  0  0  0  0  0
    8.6699  -19.1329   19.4860 N   0  0  0  0  0  0  0  0  0  0  0  0
    9.9488  -17.1572   20.0723 C   0  0  0  0  0  0  0  0  0  0  0  0
   10.8854  -16.3391   19.8863 O   0  0  0  0  0  0  0  0  0  0  0  0
    9.3160  -14.5540   12.5533 N   0  0  0  0  0  0  0  0  0  0  0  0
    9.2687  -17.1140   21.3176 C   0  0  1  0  0  0  0  0  0  0  0  0
    9.5085  -16.0204   22.2218 C   0  0  0  0  0  0  0  0  0  0  0  0
    8.2476  -15.2811   22.5776 C   0  0  0  0  0  0  0  0  0  0  0  0
    7.8422  -14.2622   21.6267 C   0  0  0  0  0  0  0  0  0  0  0  0
    6.9253  -14.5289   20.6469 C   0  0  0  0  0  0  0  0  0  0  0  0
    6.5343  -13.5503   19.7226 C   0  0  0  0  0  0  0  0  0  0  0  0
    7.0751  -12.3073   19.7975 C   0  0  0  0  0  0  0  0  0  0  0  0
    7.9948  -12.0082   20.7658 C   0  0  0  0  0  0  0  0  0  0  0  0
    8.3786  -12.9955   21.6854 C   0  0  0  0  0  0  0  0  0  0  0  0
   10.2824  -16.5077   23.3782 O   0  0  0  0  0  0  0  0  0  0  0  0
   11.5466  -16.3092   23.4272 C   0  0  0  0  0  0  0  0  0  0  0  0
    9.3464  -12.3720   29.0964 S   0  0  0  0  0  0  0  0  0  0  0  0
    8.8591  -13.0612   27.4918 C   0  0  0  0  0  0  0  0  0  0  0  0
    9.5187  -14.7381   27.3419 C   0  0  0  0  0  0  0  0  0  0  0  0
    9.3837  -15.2988   25.9633 C   0  0  2  0  0  0  0  0  0  0  0  0
    9.8955  -16.7283   25.8492 N   0  0  0  0  0  0  0  0  0  0  0  0
    9.7406  -17.2031   24.4880 C   0  0  0  0  0  0  0  0  0  0  0  0
    9.3510  -17.6253   26.8695 O   0  0  0  0  0  0  0  0  0  0  0  0
    8.2353  -18.1817   26.5793 O   0  0  0  0  0  0  0  0  0  0  0  0
  1  2  1  0
  2  3  2  0
  4  2  1  0
  4  5  1  0
  6  5  1  0
  7  6  1  0
  8 10  1  0
  8  7  1  0
  8  9  1  1
 10 12  1  0
 11 10  2  0
 12 13  1  0
 14 15  1  0
 13 14  1  1
 15 20  2  0
 16 17  2  0
 16 15  1  0
 17 18  1  0
 18 19  2  0
 20 19  1  0
 21 22  2  0
 21 13  1  0
 24 25  1  0
 24 23  1  0
 25 26  1  0
 27 26  1  6
 27 28  1  0
 27 29  1  0
 28 21  1  0
 29 30  2  0
 29 31  1  0
M  END
$$$$
