WHN.pdb
     RDKit          3D

 33 35  0  0  1  0  0  0  0  0999 V2000
   31.0844   -8.7488  -20.3634 N   0  0  0  0  0  0  0  0  0  0  0  0
   30.8423   -9.8573  -19.4756 C   0  0  1  0  0  0  0  0  0  0  0  0
   30.3602   -9.3688  -18.1438 C   0  0  0  0  0  0  0  0  0  0  0  0
   31.4922   -8.7432  -17.4204 C   0  0  0  0  0  0  0  0  0  0  0  0
   31.6510   -7.3950  -17.1136 C   0  0  0  0  0  0  0  0  0  0  0  0
   32.7811   -7.2059  -16.4162 N   0  0  0  0  0  0  0  0  0  0  0  0
   33.3392   -8.4070  -16.2773 C   0  0  0  0  0  0  0  0  0  0  0  0
   34.5164   -8.7446  -15.6450 C   0  0  0  0  0  0  0  0  0  0  0  0
   34.9479  -10.0451  -15.6079 C   0  0  0  0  0  0  0  0  0  0  0  0
   34.1827  -11.0101  -16.2149 C   0  0  0  0  0  0  0  0  0  0  0  0
   32.9897  -10.7133  -16.8628 C   0  0  0  0  0  0  0  0  0  0  0  0
   32.5664   -9.3992  -16.8914 C   0  0  0  0  0  0  0  0  0  0  0  0
   29.8842  -10.7684  -20.1340 C   0  0  0  0  0  0  0  0  0  0  0  0
   29.0241  -10.3294  -20.9342 O   0  0  0  0  0  0  0  0  0  0  0  0
   29.9236  -12.1375  -19.8725 N   0  0  0  0  0  0  0  0  0  0  0  0
   28.9986  -13.0905  -20.5520 C   0  0  1  0  0  0  0  0  0  0  0  0
   29.8054  -14.3547  -20.6560 C   0  0  0  0  0  0  0  0  0  0  0  0
   30.4317  -14.6104  -21.9523 C   0  0  0  0  0  0  0  0  0  0  0  0
   30.3350  -13.8936  -23.1085 C   0  0  0  0  0  0  0  0  0  0  0  0
   31.1491  -14.4916  -24.0083 N   0  0  0  0  0  0  0  0  0  0  0  0
   31.7538  -15.5530  -23.4664 C   0  0  0  0  0  0  0  0  0  0  0  0
   31.3134  -15.6227  -22.2102 N   0  0  0  0  0  0  0  0  0  0  0  0
   27.8402  -13.2886  -19.5986 C   0  0  0  0  0  0  0  0  0  0  0  0
   27.9769  -13.4080  -18.3611 O   0  0  0  0  0  0  0  0  0  0  0  0
   22.0491  -12.2879  -19.6016 N   0  0  0  0  0  0  0  0  0  0  0  0
   23.2248  -12.2688  -18.8283 C   0  0  0  0  0  0  0  0  0  0  0  0
   23.1306  -12.2382  -17.5843 O   0  0  0  0  0  0  0  0  0  0  0  0
   24.5295  -12.2848  -19.4800 C   0  0  0  0  0  0  0  0  0  0  0  0
   25.3397  -13.5457  -19.2832 C   0  0  2  0  0  0  0  0  0  0  0  0
   26.5315  -13.3418  -20.1341 N   0  0  0  0  0  0  0  0  0  0  0  0
   24.6708  -14.7586  -19.8000 C   0  0  0  0  0  0  0  0  0  0  0  0
   24.5345  -14.9306  -21.0266 O   0  0  0  0  0  0  0  0  0  0  0  0
   24.1834  -15.7254  -18.9418 O   0  0  0  0  0  0  0  0  0  0  0  0
  2 13  1  0
  2  1  1  6
  3  2  1  0
  4  3  1  0
  5  4  2  0
  6  5  1  0
  7 12  2  0
  7  6  1  0
  8  7  1  0
  9  8  2  0
  9 10  1  0
 10 11  2  0
 11 12  1  0
 12  4  1  0
 13 14  2  0
 15 16  1  0
 15 13  1  0
 16 17  1  1
 18 17  1  0
 19 18  2  0
 20 21  1  0
 20 19  1  0
 21 22  2  0
 22 18  1  0
 23 24  2  0
 23 16  1  0
 25 26  1  0
 26 27  2  0
 26 28  1  0
 29 28  1  6
 29 30  1  0
 30 23  1  0
 31 33  1  0
 31 29  1  0
 32 31  2  0
M  END
$$$$
