WHN.pdb
     RDKit          3D

 33 35  0  0  1  0  0  0  0  0999 V2000
   26.0609  -20.8269  -17.2469 N   0  0  0  0  0  0  0  0  0  0  0  0
   25.9273  -19.9509  -16.1110 C   0  0  1  0  0  0  0  0  0  0  0  0
   25.2846  -18.6594  -16.5157 C   0  0  0  0  0  0  0  0  0  0  0  0
   26.2507  -17.8688  -17.3143 C   0  0  0  0  0  0  0  0  0  0  0  0
   25.9743  -17.0805  -18.4275 C   0  0  0  0  0  0  0  0  0  0  0  0
   27.0928  -16.4831  -18.8646 N   0  0  0  0  0  0  0  0  0  0  0  0
   28.0697  -16.8788  -18.0508 C   0  0  0  0  0  0  0  0  0  0  0  0
   29.4078  -16.5503  -18.0837 C   0  0  0  0  0  0  0  0  0  0  0  0
   30.2822  -17.0651  -17.1620 C   0  0  0  0  0  0  0  0  0  0  0  0
   29.7987  -17.9180  -16.2008 C   0  0  0  0  0  0  0  0  0  0  0  0
   28.4575  -18.2750  -16.1313 C   0  0  0  0  0  0  0  0  0  0  0  0
   27.5877  -17.7481  -17.0654 C   0  0  0  0  0  0  0  0  0  0  0  0
   25.1663  -20.6686  -15.0683 C   0  0  0  0  0  0  0  0  0  0  0  0
   24.4636  -21.6667  -15.3561 O   0  0  0  0  0  0  0  0  0  0  0  0
   25.2196  -20.2430  -13.7415 N   0  0  0  0  0  0  0  0  0  0  0  0
   24.3934  -20.8874  -12.6796 C   0  0  1  0  0  0  0  0  0  0  0  0
   24.9412  -20.3097  -11.4044 C   0  0  0  0  0  0  0  0  0  0  0  0
   24.2277  -20.6688  -10.1797 C   0  0  0  0  0  0  0  0  0  0  0  0
   23.3632  -19.9182   -9.4386 C   0  0  0  0  0  0  0  0  0  0  0  0
   22.9142  -20.7118   -8.4394 N   0  0  0  0  0  0  0  0  0  0  0  0
   23.4589  -21.9293   -8.5216 C   0  0  0  0  0  0  0  0  0  0  0  0
   24.2608  -21.8997   -9.5861 N   0  0  0  0  0  0  0  0  0  0  0  0
   22.9790  -20.3996  -12.9072 C   0  0  0  0  0  0  0  0  0  0  0  0
   22.7042  -19.2744  -13.3793 O   0  0  0  0  0  0  0  0  0  0  0  0
   17.8549  -20.6535  -13.7370 N   0  0  0  0  0  0  0  0  0  0  0  0
   18.8253  -21.1378  -14.6339 C   0  0  0  0  0  0  0  0  0  0  0  0
   18.4831  -21.4240  -15.7994 O   0  0  0  0  0  0  0  0  0  0  0  0
   20.2079  -21.2995  -14.1988 C   0  0  0  0  0  0  0  0  0  0  0  0
   20.4953  -20.8807  -12.7750 C   0  0  2  0  0  0  0  0  0  0  0  0
   21.9089  -21.2611  -12.5683 N   0  0  0  0  0  0  0  0  0  0  0  0
   19.7168  -21.6390  -11.7727 C   0  0  0  0  0  0  0  0  0  0  0  0
   20.0467  -22.8002  -11.4635 O   0  0  0  0  0  0  0  0  0  0  0  0
   18.6116  -21.0831  -11.1577 O   0  0  0  0  0  0  0  0  0  0  0  0
  2 13  1  0
  2  1  1  6
  3  2  1  0
  4  3  1  0
  5  4  2  0
  6  5  1  0
  7 12  2  0
  7  6  1  0
  8  7  1  0
  9  8  2  0
  9 10  1  0
 10 11  2  0
 11 12  1  0
 12  4  1  0
 13 14  2  0
 15 16  1  0
 15 13  1  0
 16 17  1  1
 18 17  1  0
 19 18  2  0
 20 21  1  0
 20 19  1  0
 21 22  2  0
 22 18  1  0
 23 24  2  0
 23 16  1  0
 25 26  1  0
 26 27  2  0
 26 28  1  0
 29 28  1  6
 29 30  1  0
 30 23  1  0
 31 33  1  0
 31 29  1  0
 32 31  2  0
M  END
$$$$
