WHN.pdb
     RDKit          3D

 33 35  0  0  1  0  0  0  0  0999 V2000
   28.4138  -21.2273   -9.1241 N   0  0  0  0  0  0  0  0  0  0  0  0
   26.9812  -21.3511   -9.0350 C   0  0  1  0  0  0  0  0  0  0  0  0
   26.4734  -20.6953   -7.7872 C   0  0  0  0  0  0  0  0  0  0  0  0
   27.5681  -19.9035   -7.1782 C   0  0  0  0  0  0  0  0  0  0  0  0
   28.4862  -19.0923   -7.8386 C   0  0  0  0  0  0  0  0  0  0  0  0
   29.3056  -18.5019   -6.9559 N   0  0  0  0  0  0  0  0  0  0  0  0
   28.9240  -18.9244   -5.7520 C   0  0  0  0  0  0  0  0  0  0  0  0
   29.4547  -18.6126   -4.5188 C   0  0  0  0  0  0  0  0  0  0  0  0
   28.9360  -19.1547   -3.3716 C   0  0  0  0  0  0  0  0  0  0  0  0
   27.8732  -20.0180   -3.4735 C   0  0  0  0  0  0  0  0  0  0  0  0
   27.3078  -20.3588   -4.6963 C   0  0  0  0  0  0  0  0  0  0  0  0
   27.8396  -19.8044   -5.8438 C   0  0  0  0  0  0  0  0  0  0  0  0
   26.3963  -20.7772  -10.2638 C   0  0  0  0  0  0  0  0  0  0  0  0
   26.7281  -19.6353  -10.6623 O   0  0  0  0  0  0  0  0  0  0  0  0
   25.4613  -21.5023  -11.0016 N   0  0  0  0  0  0  0  0  0  0  0  0
   25.0264  -21.0639  -12.3596 C   0  0  1  0  0  0  0  0  0  0  0  0
   25.2137  -22.2922  -13.2059 C   0  0  0  0  0  0  0  0  0  0  0  0
   24.8825  -22.1506  -14.6230 C   0  0  0  0  0  0  0  0  0  0  0  0
   23.6662  -21.9420  -15.2035 C   0  0  0  0  0  0  0  0  0  0  0  0
   23.8843  -21.8128  -16.5323 N   0  0  0  0  0  0  0  0  0  0  0  0
   25.1859  -21.9303  -16.8113 C   0  0  0  0  0  0  0  0  0  0  0  0
   25.7930  -22.1365  -15.6426 N   0  0  0  0  0  0  0  0  0  0  0  0
   23.5541  -20.7373  -12.2338 C   0  0  0  0  0  0  0  0  0  0  0  0
   22.7924  -21.2890  -11.4092 O   0  0  0  0  0  0  0  0  0  0  0  0
   19.1508  -17.9408  -13.2707 N   0  0  0  0  0  0  0  0  0  0  0  0
   20.2859  -17.3420  -13.8479 C   0  0  0  0  0  0  0  0  0  0  0  0
   20.1646  -16.2379  -14.4168 O   0  0  0  0  0  0  0  0  0  0  0  0
   21.5810  -18.0092  -13.7774 C   0  0  0  0  0  0  0  0  0  0  0  0
   21.6122  -19.2854  -12.9678 C   0  0  2  0  0  0  0  0  0  0  0  0
   23.0082  -19.7555  -13.0941 N   0  0  0  0  0  0  0  0  0  0  0  0
   20.7665  -20.3585  -13.5326 C   0  0  0  0  0  0  0  0  0  0  0  0
   21.1561  -21.0184  -14.5153 O   0  0  0  0  0  0  0  0  0  0  0  0
   19.5315  -20.6549  -12.9888 O   0  0  0  0  0  0  0  0  0  0  0  0
  2 13  1  0
  2  1  1  6
  3  2  1  0
  4  3  1  0
  5  4  2  0
  6  5  1  0
  7 12  2  0
  7  6  1  0
  8  7  1  0
  9  8  2  0
  9 10  1  0
 10 11  2  0
 11 12  1  0
 12  4  1  0
 13 14  2  0
 15 16  1  0
 15 13  1  0
 16 17  1  6
 18 17  1  0
 19 18  2  0
 20 21  1  0
 20 19  1  0
 21 22  2  0
 22 18  1  0
 23 24  2  0
 23 16  1  0
 25 26  1  0
 26 27  2  0
 26 28  1  0
 29 28  1  6
 29 30  1  0
 30 23  1  0
 31 33  1  0
 31 29  1  0
 32 31  2  0
M  END
$$$$
