WHN.pdb
     RDKit          3D

 33 35  0  0  1  0  0  0  0  0999 V2000
   21.4449  -12.0248  -17.6105 N   0  0  0  0  0  0  0  0  0  0  0  0
   22.2961  -10.9346  -17.2075 C   0  0  1  0  0  0  0  0  0  0  0  0
   23.4917  -10.8412  -18.1057 C   0  0  0  0  0  0  0  0  0  0  0  0
   24.5000  -11.8370  -17.6724 C   0  0  0  0  0  0  0  0  0  0  0  0
   24.6611  -13.1333  -18.1529 C   0  0  0  0  0  0  0  0  0  0  0  0
   25.7031  -13.7267  -17.5519 N   0  0  0  0  0  0  0  0  0  0  0  0
   26.2024  -12.8320  -16.7014 C   0  0  0  0  0  0  0  0  0  0  0  0
   27.2731  -12.9598  -15.8429 C   0  0  0  0  0  0  0  0  0  0  0  0
   27.6444  -11.9270  -15.0217 C   0  0  0  0  0  0  0  0  0  0  0  0
   26.9272  -10.7571  -15.0699 C   0  0  0  0  0  0  0  0  0  0  0  0
   25.8418  -10.5860  -15.9206 C   0  0  0  0  0  0  0  0  0  0  0  0
   25.4795  -11.6343  -16.7431 C   0  0  0  0  0  0  0  0  0  0  0  0
   21.4849   -9.7003  -17.2017 C   0  0  0  0  0  0  0  0  0  0  0  0
   20.8606   -9.3353  -18.2263 O   0  0  0  0  0  0  0  0  0  0  0  0
   21.4020   -8.9197  -16.0492 N   0  0  0  0  0  0  0  0  0  0  0  0
   20.6029   -7.6604  -16.0132 C   0  0  1  0  0  0  0  0  0  0  0  0
   19.5139   -7.9595  -15.0210 C   0  0  0  0  0  0  0  0  0  0  0  0
   18.4002   -8.7673  -15.5160 C   0  0  0  0  0  0  0  0  0  0  0  0
   18.2701   -9.4081  -16.7129 C   0  0  0  0  0  0  0  0  0  0  0  0
   17.0943  -10.0757  -16.6729 N   0  0  0  0  0  0  0  0  0  0  0  0
   16.4805   -9.8824  -15.5018 C   0  0  0  0  0  0  0  0  0  0  0  0
   17.2811   -9.0827  -14.7971 N   0  0  0  0  0  0  0  0  0  0  0  0
   21.5322   -6.6001  -15.4632 C   0  0  0  0  0  0  0  0  0  0  0  0
   22.7116   -6.8287  -15.1152 O   0  0  0  0  0  0  0  0  0  0  0  0
   23.7323   -2.0123  -14.8499 N   0  0  0  0  0  0  0  0  0  0  0  0
   23.9358   -3.0058  -15.8256 C   0  0  0  0  0  0  0  0  0  0  0  0
   24.9152   -2.9090  -16.5930 O   0  0  0  0  0  0  0  0  0  0  0  0
   23.0108   -4.1285  -15.9307 C   0  0  0  0  0  0  0  0  0  0  0  0
   21.9033   -4.1577  -14.9022 C   0  0  2  0  0  0  0  0  0  0  0  0
   21.0422   -5.2789  -15.3351 N   0  0  0  0  0  0  0  0  0  0  0  0
   21.0484   -2.9519  -14.9274 C   0  0  0  0  0  0  0  0  0  0  0  0
   21.2342   -2.0288  -14.1111 O   0  0  0  0  0  0  0  0  0  0  0  0
   20.0291   -2.8187  -15.8504 O   0  0  0  0  0  0  0  0  0  0  0  0
  2 13  1  0
  2  1  1  6
  3  2  1  0
  4  3  1  0
  5  4  2  0
  6  5  1  0
  7 12  2  0
  7  6  1  0
  8  7  1  0
  9  8  2  0
  9 10  1  0
 10 11  2  0
 11 12  1  0
 12  4  1  0
 13 14  2  0
 15 16  1  0
 15 13  1  0
 16 17  1  1
 18 17  1  0
 19 18  2  0
 20 21  1  0
 20 19  1  0
 21 22  2  0
 22 18  1  0
 23 24  2  0
 23 16  1  0
 25 26  1  0
 26 27  2  0
 26 28  1  0
 29 28  1  6
 29 30  1  0
 30 23  1  0
 31 33  1  0
 31 29  1  0
 32 31  2  0
M  END
$$$$
