WHN.pdb
     RDKit          3D

 33 35  0  0  1  0  0  0  0  0999 V2000
   22.9517  -17.6532  -18.9265 N   0  0  0  0  0  0  0  0  0  0  0  0
   21.8232  -17.7776  -18.0397 C   0  0  1  0  0  0  0  0  0  0  0  0
   20.5394  -17.6932  -18.8075 C   0  0  0  0  0  0  0  0  0  0  0  0
   20.3850  -16.3191  -19.3404 C   0  0  0  0  0  0  0  0  0  0  0  0
   20.5618  -15.9037  -20.6570 C   0  0  0  0  0  0  0  0  0  0  0  0
   20.2971  -14.5938  -20.7717 N   0  0  0  0  0  0  0  0  0  0  0  0
   19.9577  -14.1737  -19.5545 C   0  0  0  0  0  0  0  0  0  0  0  0
   19.6042  -12.9058  -19.1456 C   0  0  0  0  0  0  0  0  0  0  0  0
   19.2921  -12.6499  -17.8356 C   0  0  0  0  0  0  0  0  0  0  0  0
   19.3382  -13.6842  -16.9337 C   0  0  0  0  0  0  0  0  0  0  0  0
   19.6889  -14.9770  -17.3035 C   0  0  0  0  0  0  0  0  0  0  0  0
   19.9998  -15.2208  -18.6268 C   0  0  0  0  0  0  0  0  0  0  0  0
   21.9649  -19.0457  -17.2960 C   0  0  0  0  0  0  0  0  0  0  0  0
   22.3219  -20.0974  -17.8785 O   0  0  0  0  0  0  0  0  0  0  0  0
   21.7018  -19.0906  -15.9273 N   0  0  0  0  0  0  0  0  0  0  0  0
   21.8407  -20.3532  -15.1450 C   0  0  1  0  0  0  0  0  0  0  0  0
   22.9315  -20.0413  -14.1588 C   0  0  0  0  0  0  0  0  0  0  0  0
   24.3003  -20.1537  -14.6605 C   0  0  0  0  0  0  0  0  0  0  0  0
   24.7314  -20.3961  -15.9315 C   0  0  0  0  0  0  0  0  0  0  0  0
   26.0827  -20.3392  -15.9033 N   0  0  0  0  0  0  0  0  0  0  0  0
   26.5189  -20.0705  -14.6691 C   0  0  0  0  0  0  0  0  0  0  0  0
   25.4274  -19.9576  -13.9122 N   0  0  0  0  0  0  0  0  0  0  0  0
   20.5229  -20.5364  -14.4238 C   0  0  0  0  0  0  0  0  0  0  0  0
   19.9295  -19.6129  -13.8245 O   0  0  0  0  0  0  0  0  0  0  0  0
   16.2320  -23.1813  -12.7909 N   0  0  0  0  0  0  0  0  0  0  0  0
   16.6543  -23.5413  -14.0842 C   0  0  0  0  0  0  0  0  0  0  0  0
   15.9292  -24.2893  -14.7714 O   0  0  0  0  0  0  0  0  0  0  0  0
   17.9220  -23.0427  -14.6053 C   0  0  0  0  0  0  0  0  0  0  0  0
   18.6830  -22.1141  -13.6868 C   0  0  2  0  0  0  0  0  0  0  0  0
   19.9289  -21.8207  -14.4266 N   0  0  0  0  0  0  0  0  0  0  0  0
   19.0998  -22.7540  -12.4209 C   0  0  0  0  0  0  0  0  0  0  0  0
   18.3520  -22.7290  -11.4244 O   0  0  0  0  0  0  0  0  0  0  0  0
   20.3205  -23.3918  -12.3116 O   0  0  0  0  0  0  0  0  0  0  0  0
  2 13  1  0
  2  1  1  6
  3  2  1  0
  4  3  1  0
  5  4  2  0
  6  5  1  0
  7 12  2  0
  7  6  1  0
  8  7  1  0
  9  8  2  0
  9 10  1  0
 10 11  2  0
 11 12  1  0
 12  4  1  0
 13 14  2  0
 15 16  1  0
 15 13  1  0
 16 17  1  1
 18 17  1  0
 19 18  2  0
 20 21  1  0
 20 19  1  0
 21 22  2  0
 22 18  1  0
 23 24  2  0
 23 16  1  0
 25 26  1  0
 26 27  2  0
 26 28  1  0
 29 28  1  6
 29 30  1  0
 30 23  1  0
 31 33  1  0
 31 29  1  0
 32 31  2  0
M  END
$$$$
