WHN.pdb
     RDKit          3D

 33 35  0  0  1  0  0  0  0  0999 V2000
   20.4588  -12.1091  -19.1933 N   0  0  0  0  0  0  0  0  0  0  0  0
   20.6792  -10.7063  -19.4366 C   0  0  1  0  0  0  0  0  0  0  0  0
   19.4762  -10.0893  -20.0822 C   0  0  0  0  0  0  0  0  0  0  0  0
   19.4168  -10.5164  -21.5000 C   0  0  0  0  0  0  0  0  0  0  0  0
   18.6481  -11.5455  -22.0361 C   0  0  0  0  0  0  0  0  0  0  0  0
   18.8235  -11.6147  -23.3640 N   0  0  0  0  0  0  0  0  0  0  0  0
   19.6876  -10.6510  -23.6771 C   0  0  0  0  0  0  0  0  0  0  0  0
   20.1969  -10.3155  -24.9131 C   0  0  0  0  0  0  0  0  0  0  0  0
   21.0953   -9.2892  -25.0495 C   0  0  0  0  0  0  0  0  0  0  0  0
   21.4804   -8.5980  -23.9273 C   0  0  0  0  0  0  0  0  0  0  0  0
   20.9914   -8.9030  -22.6629 C   0  0  0  0  0  0  0  0  0  0  0  0
   20.0862   -9.9386  -22.5403 C   0  0  0  0  0  0  0  0  0  0  0  0
   21.0305  -10.0699  -18.1509 C   0  0  0  0  0  0  0  0  0  0  0  0
   20.4082  -10.3550  -17.1001 O   0  0  0  0  0  0  0  0  0  0  0  0
   22.0655   -9.1375  -18.0884 N   0  0  0  0  0  0  0  0  0  0  0  0
   22.4975   -8.5341  -16.7942 C   0  0  1  0  0  0  0  0  0  0  0  0
   23.9759   -8.8036  -16.7532 C   0  0  0  0  0  0  0  0  0  0  0  0
   24.3703  -10.1548  -16.3578 C   0  0  0  0  0  0  0  0  0  0  0  0
   23.5824  -11.2071  -15.9944 C   0  0  0  0  0  0  0  0  0  0  0  0
   24.4071  -12.2589  -15.7854 N   0  0  0  0  0  0  0  0  0  0  0  0
   25.6793  -11.9126  -16.0029 C   0  0  0  0  0  0  0  0  0  0  0  0
   25.6533  -10.6265  -16.3526 N   0  0  0  0  0  0  0  0  0  0  0  0
   22.2421   -7.0485  -16.9284 C   0  0  0  0  0  0  0  0  0  0  0  0
   22.5083   -6.3924  -17.9594 O   0  0  0  0  0  0  0  0  0  0  0  0
   18.3533   -3.0496  -15.6399 N   0  0  0  0  0  0  0  0  0  0  0  0
   19.5303   -3.4496  -14.9801 C   0  0  0  0  0  0  0  0  0  0  0  0
   20.1255   -2.6283  -14.2529 O   0  0  0  0  0  0  0  0  0  0  0  0
   20.0394   -4.8058  -15.1495 C   0  0  0  0  0  0  0  0  0  0  0  0
   21.3593   -4.9191  -15.8776 C   0  0  2  0  0  0  0  0  0  0  0  0
   21.6718   -6.3634  -15.8295 N   0  0  0  0  0  0  0  0  0  0  0  0
   22.4718   -4.2365  -15.1834 C   0  0  0  0  0  0  0  0  0  0  0  0
   23.0799   -4.8036  -14.2552 O   0  0  0  0  0  0  0  0  0  0  0  0
   22.8631   -2.9615  -15.5440 O   0  0  0  0  0  0  0  0  0  0  0  0
  2 13  1  0
  2  1  1  1
  3  2  1  0
  4  3  1  0
  5  4  2  0
  6  5  1  0
  7 12  2  0
  7  6  1  0
  8  7  1  0
  9  8  2  0
  9 10  1  0
 10 11  2  0
 11 12  1  0
 12  4  1  0
 13 14  2  0
 15 16  1  0
 15 13  1  0
 16 17  1  6
 18 17  1  0
 19 18  2  0
 20 21  1  0
 20 19  1  0
 21 22  2  0
 22 18  1  0
 23 24  2  0
 23 16  1  0
 25 26  1  0
 26 27  2  0
 26 28  1  0
 29 28  1  1
 29 30  1  0
 30 23  1  0
 31 33  1  0
 31 29  1  0
 32 31  2  0
M  END
$$$$
