WHN.pdb
     RDKit          3D

 33 35  0  0  1  0  0  0  0  0999 V2000
   21.8989  -12.3939  -17.6259 N   0  0  0  0  0  0  0  0  0  0  0  0
   21.5145  -11.2670  -18.4368 C   0  0  1  0  0  0  0  0  0  0  0  0
   20.0419  -11.2948  -18.7114 C   0  0  0  0  0  0  0  0  0  0  0  0
   19.7434  -12.4182  -19.6308 C   0  0  0  0  0  0  0  0  0  0  0  0
   20.3764  -13.6569  -19.6771 C   0  0  0  0  0  0  0  0  0  0  0  0
   19.8112  -14.4340  -20.6128 N   0  0  0  0  0  0  0  0  0  0  0  0
   18.8351  -13.7111  -21.1586 C   0  0  0  0  0  0  0  0  0  0  0  0
   17.9653  -14.0578  -22.1701 C   0  0  0  0  0  0  0  0  0  0  0  0
   17.0187  -13.1736  -22.6186 C   0  0  0  0  0  0  0  0  0  0  0  0
   16.9522  -11.9305  -22.0394 C   0  0  0  0  0  0  0  0  0  0  0  0
   17.8091  -11.5405  -21.0173 C   0  0  0  0  0  0  0  0  0  0  0  0
   18.7571  -12.4416  -20.5745 C   0  0  0  0  0  0  0  0  0  0  0  0
   21.9456  -10.0368  -17.7423 C   0  0  0  0  0  0  0  0  0  0  0  0
   21.7668   -9.8975  -16.5088 O   0  0  0  0  0  0  0  0  0  0  0  0
   22.5611   -9.0076  -18.4537 N   0  0  0  0  0  0  0  0  0  0  0  0
   23.0180   -7.7566  -17.7816 C   0  0  1  0  0  0  0  0  0  0  0  0
   23.9771   -7.1531  -18.7694 C   0  0  0  0  0  0  0  0  0  0  0  0
   24.5930   -5.8875  -18.3734 C   0  0  0  0  0  0  0  0  0  0  0  0
   24.5080   -5.2269  -17.1832 C   0  0  0  0  0  0  0  0  0  0  0  0
   25.3055   -4.1388  -17.2823 N   0  0  0  0  0  0  0  0  0  0  0  0
   25.8888   -4.0881  -18.4835 C   0  0  0  0  0  0  0  0  0  0  0  0
   25.4516   -5.1580  -19.1477 N   0  0  0  0  0  0  0  0  0  0  0  0
   21.7865   -6.8864  -17.6528 C   0  0  0  0  0  0  0  0  0  0  0  0
   20.9676   -6.7070  -18.5809 O   0  0  0  0  0  0  0  0  0  0  0  0
   18.1355   -4.0701  -15.0783 N   0  0  0  0  0  0  0  0  0  0  0  0
   18.3985   -5.3838  -14.6474 C   0  0  0  0  0  0  0  0  0  0  0  0
   17.6295   -5.9149  -13.8203 O   0  0  0  0  0  0  0  0  0  0  0  0
   19.5549   -6.1060  -15.1653 C   0  0  0  0  0  0  0  0  0  0  0  0
   20.3745   -5.3670  -16.1984 C   0  0  2  0  0  0  0  0  0  0  0  0
   21.5471   -6.2405  -16.4168 N   0  0  0  0  0  0  0  0  0  0  0  0
   20.9095   -4.0784  -15.7095 C   0  0  0  0  0  0  0  0  0  0  0  0
   20.3496   -3.0068  -16.0113 O   0  0  0  0  0  0  0  0  0  0  0  0
   22.0359   -4.0302  -14.9110 O   0  0  0  0  0  0  0  0  0  0  0  0
  2 13  1  0
  2  1  1  1
  3  2  1  0
  4  3  1  0
  5  4  2  0
  6  5  1  0
  7 12  2  0
  7  6  1  0
  8  7  1  0
  9  8  2  0
  9 10  1  0
 10 11  2  0
 11 12  1  0
 12  4  1  0
 13 14  2  0
 15 16  1  0
 15 13  1  0
 16 17  1  6
 18 17  1  0
 19 18  2  0
 20 21  1  0
 20 19  1  0
 21 22  2  0
 22 18  1  0
 23 24  2  0
 23 16  1  0
 25 26  1  0
 26 27  2  0
 26 28  1  0
 29 28  1  1
 29 30  1  0
 30 23  1  0
 31 33  1  0
 31 29  1  0
 32 31  2  0
M  END
$$$$
