WHN.pdb
     RDKit          3D

 33 35  0  0  1  0  0  0  0  0999 V2000
   28.1391  -20.5184   -9.6997 N   0  0  0  0  0  0  0  0  0  0  0  0
   26.8523  -21.1585   -9.5991 C   0  0  1  0  0  0  0  0  0  0  0  0
   26.3434  -21.0978   -8.1913 C   0  0  0  0  0  0  0  0  0  0  0  0
   27.0460  -20.0102   -7.4704 C   0  0  0  0  0  0  0  0  0  0  0  0
   27.1989  -18.6900   -7.8840 C   0  0  0  0  0  0  0  0  0  0  0  0
   27.8590  -17.9841   -6.9539 N   0  0  0  0  0  0  0  0  0  0  0  0
   28.1266  -18.8316   -5.9623 C   0  0  0  0  0  0  0  0  0  0  0  0
   28.7946  -18.5950   -4.7802 C   0  0  0  0  0  0  0  0  0  0  0  0
   28.9902  -19.5998   -3.8686 C   0  0  0  0  0  0  0  0  0  0  0  0
   28.5064  -20.8523   -4.1555 C   0  0  0  0  0  0  0  0  0  0  0  0
   27.8273  -21.1340   -5.3347 C   0  0  0  0  0  0  0  0  0  0  0  0
   27.6364  -20.1120   -6.2436 C   0  0  0  0  0  0  0  0  0  0  0  0
   25.9435  -20.5105  -10.5663 C   0  0  0  0  0  0  0  0  0  0  0  0
   25.7446  -19.2727  -10.5333 O   0  0  0  0  0  0  0  0  0  0  0  0
   25.2904  -21.2715  -11.5352 N   0  0  0  0  0  0  0  0  0  0  0  0
   24.5047  -20.6344  -12.6317 C   0  0  1  0  0  0  0  0  0  0  0  0
   25.2743  -20.9907  -13.8730 C   0  0  0  0  0  0  0  0  0  0  0  0
   26.4148  -20.1319  -14.1885 C   0  0  0  0  0  0  0  0  0  0  0  0
   26.4446  -18.7828  -14.3860 C   0  0  0  0  0  0  0  0  0  0  0  0
   27.7397  -18.4451  -14.5823 N   0  0  0  0  0  0  0  0  0  0  0  0
   28.5250  -19.5243  -14.5156 C   0  0  0  0  0  0  0  0  0  0  0  0
   27.7124  -20.5532  -14.2747 N   0  0  0  0  0  0  0  0  0  0  0  0
   23.1616  -21.3319  -12.6331 C   0  0  0  0  0  0  0  0  0  0  0  0
   23.0180  -22.5531  -12.8620 O   0  0  0  0  0  0  0  0  0  0  0  0
   17.8654  -21.5809  -12.3049 N   0  0  0  0  0  0  0  0  0  0  0  0
   18.3237  -20.2997  -11.9457 C   0  0  0  0  0  0  0  0  0  0  0  0
   17.4931  -19.4341  -11.6019 O   0  0  0  0  0  0  0  0  0  0  0  0
   19.7502  -19.9973  -11.9777 C   0  0  0  0  0  0  0  0  0  0  0  0
   20.6552  -21.1626  -12.3067 C   0  0  2  0  0  0  0  0  0  0  0  0
   22.0054  -20.5629  -12.3612 N   0  0  0  0  0  0  0  0  0  0  0  0
   20.4079  -21.7364  -13.6465 C   0  0  0  0  0  0  0  0  0  0  0  0
   19.5892  -22.6640  -13.7950 O   0  0  0  0  0  0  0  0  0  0  0  0
   21.0736  -21.2618  -14.7602 O   0  0  0  0  0  0  0  0  0  0  0  0
  2 13  1  0
  2  1  1  1
  3  2  1  0
  4  3  1  0
  5  4  2  0
  6  5  1  0
  7 12  2  0
  7  6  1  0
  8  7  1  0
  9  8  2  0
  9 10  1  0
 10 11  2  0
 11 12  1  0
 12  4  1  0
 13 14  2  0
 15 16  1  0
 15 13  1  0
 16 17  1  6
 18 17  1  0
 19 18  2  0
 20 21  1  0
 20 19  1  0
 21 22  2  0
 22 18  1  0
 23 24  2  0
 23 16  1  0
 25 26  1  0
 26 27  2  0
 26 28  1  0
 29 28  1  6
 29 30  1  0
 30 23  1  0
 31 33  1  0
 31 29  1  0
 32 31  2  0
M  END
$$$$
