WHN.pdb
     RDKit          3D

 33 35  0  0  1  0  0  0  0  0999 V2000
   26.2028  -22.5484  -11.7560 N   0  0  0  0  0  0  0  0  0  0  0  0
   25.7172  -21.3393  -11.1414 C   0  0  1  0  0  0  0  0  0  0  0  0
   26.8155  -20.3258  -11.0349 C   0  0  0  0  0  0  0  0  0  0  0  0
   27.8136  -20.7977  -10.0463 C   0  0  0  0  0  0  0  0  0  0  0  0
   28.9901  -21.4942  -10.3070 C   0  0  0  0  0  0  0  0  0  0  0  0
   29.6610  -21.7184   -9.1674 N   0  0  0  0  0  0  0  0  0  0  0  0
   28.9318  -21.1784   -8.1927 C   0  0  0  0  0  0  0  0  0  0  0  0
   29.1861  -21.1491   -6.8384 C   0  0  0  0  0  0  0  0  0  0  0  0
   28.3096  -20.5518   -5.9701 C   0  0  0  0  0  0  0  0  0  0  0  0
   27.1681  -19.9805   -6.4761 C   0  0  0  0  0  0  0  0  0  0  0  0
   26.8733  -19.9874   -7.8341 C   0  0  0  0  0  0  0  0  0  0  0  0
   27.7658  -20.5915   -8.6975 C   0  0  0  0  0  0  0  0  0  0  0  0
   24.5657  -20.8569  -11.9305 C   0  0  0  0  0  0  0  0  0  0  0  0
   24.0944  -19.7094  -11.7464 O   0  0  0  0  0  0  0  0  0  0  0  0
   23.9836  -21.6766  -12.8969 N   0  0  0  0  0  0  0  0  0  0  0  0
   22.7673  -21.2548  -13.6507 C   0  0  1  0  0  0  0  0  0  0  0  0
   23.1695  -21.4134  -15.0905 C   0  0  0  0  0  0  0  0  0  0  0  0
   24.0330  -20.3660  -15.6337 C   0  0  0  0  0  0  0  0  0  0  0  0
   24.5568  -19.2742  -15.0063 C   0  0  0  0  0  0  0  0  0  0  0  0
   25.3434  -18.6446  -15.9089 N   0  0  0  0  0  0  0  0  0  0  0  0
   25.3371  -19.2948  -17.0764 C   0  0  0  0  0  0  0  0  0  0  0  0
   24.5356  -20.3461  -16.9048 N   0  0  0  0  0  0  0  0  0  0  0  0
   21.6945  -22.2613  -13.2954 C   0  0  0  0  0  0  0  0  0  0  0  0
   21.9341  -23.4574  -13.0192 O   0  0  0  0  0  0  0  0  0  0  0  0
   17.6209  -24.2829  -10.9137 N   0  0  0  0  0  0  0  0  0  0  0  0
   17.8005  -22.8926  -10.7895 C   0  0  0  0  0  0  0  0  0  0  0  0
   16.9769  -22.2330  -10.1232 O   0  0  0  0  0  0  0  0  0  0  0  0
   18.9354  -22.2410  -11.4335 C   0  0  0  0  0  0  0  0  0  0  0  0
   19.2434  -22.7086  -12.8377 C   0  0  2  0  0  0  0  0  0  0  0  0
   20.3477  -21.8278  -13.2741 N   0  0  0  0  0  0  0  0  0  0  0  0
   18.1353  -22.4770  -13.7885 C   0  0  0  0  0  0  0  0  0  0  0  0
   17.9313  -21.3400  -14.2559 O   0  0  0  0  0  0  0  0  0  0  0  0
   17.3038  -23.5084  -14.1804 O   0  0  0  0  0  0  0  0  0  0  0  0
  2 13  1  0
  2  1  1  6
  3  2  1  0
  4  3  1  0
  5  4  2  0
  6  5  1  0
  7 12  2  0
  7  6  1  0
  8  7  1  0
  9  8  2  0
  9 10  1  0
 10 11  2  0
 11 12  1  0
 12  4  1  0
 13 14  2  0
 15 16  1  0
 15 13  1  0
 16 17  1  6
 18 17  1  0
 19 18  2  0
 20 21  1  0
 20 19  1  0
 21 22  2  0
 22 18  1  0
 23 24  2  0
 23 16  1  0
 25 26  1  0
 26 27  2  0
 26 28  1  0
 29 28  1  1
 29 30  1  0
 30 23  1  0
 31 33  1  0
 31 29  1  0
 32 31  2  0
M  END
$$$$
