TSN.pdb
     RDKit          3D

 22 21  0  0  1  0  0  0  0  0999 V2000
   26.4165  -18.4521  -15.2490 C   0  0  0  0  0  0  0  0  0  0  0  0
   27.0261  -19.6081  -15.9778 C   0  0  1  0  0  0  0  0  0  0  0  0
   28.0493  -19.1293  -16.7923 O   0  0  0  0  0  0  0  0  0  0  0  0
   27.5196  -20.7067  -15.0617 C   0  0  2  0  0  0  0  0  0  0  0  0
   28.2172  -21.7096  -15.7967 N   0  0  0  0  0  0  0  0  0  0  0  0
   26.3559  -21.2270  -14.3001 C   0  0  0  0  0  0  0  0  0  0  0  0
   25.4786  -21.9262  -14.8767 O   0  0  0  0  0  0  0  0  0  0  0  0
   25.3790  -20.0184  -10.3400 O   0  0  0  0  0  0  0  0  0  0  0  0
   25.0783  -21.3444  -10.7240 C   0  0  0  0  0  0  0  0  0  0  0  0
   24.9869  -21.4835  -12.2033 C   0  0  2  0  0  0  0  0  0  0  0  0
   26.1364  -20.9939  -12.9166 N   0  0  0  0  0  0  0  0  0  0  0  0
   23.7279  -20.8506  -12.6747 C   0  0  0  0  0  0  0  0  0  0  0  0
   23.6256  -19.6034  -12.8658 O   0  0  0  0  0  0  0  0  0  0  0  0
   21.8847  -23.1823  -16.3887 N   0  0  0  0  0  0  0  0  0  0  0  0
   21.4344  -22.0292  -15.7129 C   0  0  0  0  0  0  0  0  0  0  0  0
   21.7131  -20.9243  -16.3143 O   0  0  0  0  0  0  0  0  0  0  0  0
   20.7007  -22.0070  -14.4290 C   0  0  0  0  0  0  0  0  0  0  0  0
   21.3184  -21.0452  -13.4223 C   0  0  2  0  0  0  0  0  0  0  0  0
   22.5870  -21.6318  -12.9296 N   0  0  0  0  0  0  0  0  0  0  0  0
   20.4162  -21.0132  -12.2489 C   0  0  0  0  0  0  0  0  0  0  0  0
   19.2835  -20.2237  -12.2815 O   0  0  0  0  0  0  0  0  0  0  0  0
   20.6426  -21.6749  -11.2273 O   0  0  0  0  0  0  0  0  0  0  0  0
  2  1  1  1
  3  2  1  0
  4  2  1  0
  4  5  1  6
  4  6  1  0
  6  7  2  0
  9  8  1  0
 10  9  1  1
 10 12  1  0
 11  6  1  0
 11 10  1  0
 12 19  1  0
 13 12  2  0
 15 14  1  0
 16 15  2  0
 17 15  1  0
 18 17  1  6
 19 18  1  0
 20 18  1  0
 20 21  1  0
 22 20  2  0
M  END
$$$$
