TSN.pdb
     RDKit          3D

 22 21  0  0  1  0  0  0  0  0999 V2000
   17.2030   -8.4373  -17.7171 C   0  0  0  0  0  0  0  0  0  0  0  0
   16.4650   -9.3516  -16.7906 C   0  0  1  0  0  0  0  0  0  0  0  0
   15.3950   -9.9146  -17.4820 O   0  0  0  0  0  0  0  0  0  0  0  0
   17.3413  -10.4173  -16.1693 C   0  0  2  0  0  0  0  0  0  0  0  0
   16.5598  -11.3576  -15.4361 N   0  0  0  0  0  0  0  0  0  0  0  0
   18.3795   -9.7395  -15.3524 C   0  0  0  0  0  0  0  0  0  0  0  0
   18.0509   -9.0551  -14.3450 O   0  0  0  0  0  0  0  0  0  0  0  0
   23.0249   -8.8195  -14.1598 O   0  0  0  0  0  0  0  0  0  0  0  0
   22.1051   -9.6351  -14.8562 C   0  0  0  0  0  0  0  0  0  0  0  0
   20.7503   -9.0203  -14.9068 C   0  0  2  0  0  0  0  0  0  0  0  0
   19.7728   -9.7981  -15.6204 N   0  0  0  0  0  0  0  0  0  0  0  0
   20.8626   -7.6391  -15.4433 C   0  0  0  0  0  0  0  0  0  0  0  0
   20.9043   -7.3947  -16.6846 O   0  0  0  0  0  0  0  0  0  0  0  0
   21.1130   -2.3066  -15.6465 N   0  0  0  0  0  0  0  0  0  0  0  0
   20.0928   -2.8707  -14.8527 C   0  0  0  0  0  0  0  0  0  0  0  0
   19.2330   -2.0164  -14.4155 O   0  0  0  0  0  0  0  0  0  0  0  0
   19.9519   -4.3025  -14.5098 C   0  0  0  0  0  0  0  0  0  0  0  0
   21.0919   -5.1481  -15.0623 C   0  0  2  0  0  0  0  0  0  0  0  0
   20.9265   -6.5371  -14.5725 N   0  0  0  0  0  0  0  0  0  0  0  0
   22.3377   -4.6535  -14.4339 C   0  0  0  0  0  0  0  0  0  0  0  0
   23.1821   -3.8291  -15.1514 O   0  0  0  0  0  0  0  0  0  0  0  0
   22.6549   -4.9556  -13.2759 O   0  0  0  0  0  0  0  0  0  0  0  0
  2  1  1  6
  3  2  1  0
  4  2  1  0
  4  5  1  1
  4  6  1  0
  6  7  2  0
  9  8  1  0
 10  9  1  6
 10 12  1  0
 11  6  1  0
 11 10  1  0
 12 19  1  0
 13 12  2  0
 15 14  1  0
 16 15  2  0
 17 15  1  0
 18 17  1  1
 19 18  1  0
 20 18  1  0
 20 21  1  0
 22 20  2  0
M  END
$$$$
