TSN.pdb
     RDKit          3D

 22 21  0  0  1  0  0  0  0  0999 V2000
   20.6080  -10.8255  -20.5542 C   0  0  0  0  0  0  0  0  0  0  0  0
   20.3189  -10.0501  -19.3075 C   0  0  1  0  0  0  0  0  0  0  0  0
   19.1349   -9.3401  -19.4913 O   0  0  0  0  0  0  0  0  0  0  0  0
   20.2588  -10.9087  -18.0629 C   0  0  2  0  0  0  0  0  0  0  0  0
   19.2026  -11.8623  -18.1510 N   0  0  0  0  0  0  0  0  0  0  0  0
   20.1516  -10.0073  -16.8879 C   0  0  0  0  0  0  0  0  0  0  0  0
   19.0365   -9.5159  -16.5618 O   0  0  0  0  0  0  0  0  0  0  0  0
   21.8264   -7.9565  -12.8209 O   0  0  0  0  0  0  0  0  0  0  0  0
   21.9945   -8.9335  -13.8276 C   0  0  0  0  0  0  0  0  0  0  0  0
   21.1521   -8.6470  -15.0210 C   0  0  2  0  0  0  0  0  0  0  0  0
   21.2459   -9.6342  -16.0633 N   0  0  0  0  0  0  0  0  0  0  0  0
   21.4610   -7.2812  -15.5182 C   0  0  0  0  0  0  0  0  0  0  0  0
   22.3624   -7.0603  -16.3790 O   0  0  0  0  0  0  0  0  0  0  0  0
   21.3081   -1.9529  -16.0444 N   0  0  0  0  0  0  0  0  0  0  0  0
   20.0807   -2.5011  -15.6179 C   0  0  0  0  0  0  0  0  0  0  0  0
   19.1255   -1.6417  -15.5219 O   0  0  0  0  0  0  0  0  0  0  0  0
   19.8314   -3.9223  -15.2931 C   0  0  0  0  0  0  0  0  0  0  0  0
   21.0809   -4.7808  -15.4408 C   0  0  2  0  0  0  0  0  0  0  0  0
   20.7475   -6.1681  -15.0398 N   0  0  0  0  0  0  0  0  0  0  0  0
   22.0534   -4.3014  -14.4328 C   0  0  0  0  0  0  0  0  0  0  0  0
   22.1543   -4.9529  -13.2193 O   0  0  0  0  0  0  0  0  0  0  0  0
   22.7878   -3.3262  -14.6395 O   0  0  0  0  0  0  0  0  0  0  0  0
  2  1  1  6
  3  2  1  0
  4  2  1  0
  4  5  1  6
  4  6  1  0
  6  7  2  0
  9  8  1  0
 10  9  1  1
 10 12  1  0
 11  6  1  0
 11 10  1  0
 12 19  1  0
 13 12  2  0
 15 14  1  0
 16 15  2  0
 17 15  1  0
 18 17  1  1
 19 18  1  0
 20 18  1  0
 20 21  1  0
 22 20  2  0
M  END
$$$$
