TSN.pdb
     RDKit          3D

 22 21  0  0  1  0  0  0  0  0999 V2000
   16.6636  -11.8119  -19.0512 C   0  0  0  0  0  0  0  0  0  0  0  0
   17.5002  -11.2151  -17.9636 C   0  0  1  0  0  0  0  0  0  0  0  0
   17.6991  -12.1786  -16.9777 O   0  0  0  0  0  0  0  0  0  0  0  0
   18.8151  -10.6499  -18.4547 C   0  0  2  0  0  0  0  0  0  0  0  0
   19.6141  -11.6653  -19.0575 N   0  0  0  0  0  0  0  0  0  0  0  0
   19.4775   -9.9694  -17.3132 C   0  0  0  0  0  0  0  0  0  0  0  0
   18.8972   -9.0250  -16.7111 O   0  0  0  0  0  0  0  0  0  0  0  0
   23.2471   -9.5206  -14.1966 O   0  0  0  0  0  0  0  0  0  0  0  0
   22.7168  -10.1818  -15.3269 C   0  0  0  0  0  0  0  0  0  0  0  0
   21.4105   -9.6020  -15.7432 C   0  0  2  0  0  0  0  0  0  0  0  0
   20.7659  -10.3056  -16.8198 N   0  0  0  0  0  0  0  0  0  0  0  0
   21.5943   -8.1601  -16.0516 C   0  0  0  0  0  0  0  0  0  0  0  0
   21.9780   -7.7526  -17.1870 O   0  0  0  0  0  0  0  0  0  0  0  0
   21.5429   -2.8658  -15.7174 N   0  0  0  0  0  0  0  0  0  0  0  0
   20.3596   -3.6237  -15.8384 C   0  0  0  0  0  0  0  0  0  0  0  0
   19.3103   -2.9230  -16.0998 O   0  0  0  0  0  0  0  0  0  0  0  0
   20.2510   -5.0917  -15.6948 C   0  0  0  0  0  0  0  0  0  0  0  0
   21.5768   -5.7390  -15.3162 C   0  0  2  0  0  0  0  0  0  0  0  0
   21.3424   -7.1821  -15.0733 N   0  0  0  0  0  0  0  0  0  0  0  0
   21.9706   -5.1768  -14.0045 C   0  0  0  0  0  0  0  0  0  0  0  0
   22.4627   -3.8882  -13.9354 O   0  0  0  0  0  0  0  0  0  0  0  0
   21.8749   -5.8267  -12.9551 O   0  0  0  0  0  0  0  0  0  0  0  0
  2  1  1  6
  3  2  1  0
  4  2  1  0
  4  5  1  1
  4  6  1  0
  6  7  2  0
  9  8  1  0
 10  9  1  6
 10 12  1  0
 11  6  1  0
 11 10  1  0
 12 19  1  0
 13 12  2  0
 15 14  1  0
 16 15  2  0
 17 15  1  0
 18 17  1  1
 19 18  1  0
 20 18  1  0
 20 21  1  0
 22 20  2  0
M  END
$$$$
