GPA.pdb
     RDKit          3D

 17 17  0  0  1  0  0  0  0  0999 V2000
    8.4944  -17.0515   16.3568 N   0  0  0  0  0  0  0  0  0  0  0  0
    7.7715  -16.3550   17.4310 C   0  0  0  0  0  0  0  0  0  0  0  0
    8.6864  -15.8351   18.4451 C   0  0  0  0  0  0  0  0  0  0  0  0
    9.7232  -16.5919   18.6803 O   0  0  0  0  0  0  0  0  0  0  0  0
    8.6058  -14.6488   19.1933 N   0  0  0  0  0  0  0  0  0  0  0  0
    8.2608  -13.3769   18.4293 C   0  0  0  0  0  0  0  0  0  0  0  0
    7.6429  -12.4656   19.4375 C   0  0  0  0  0  0  0  0  0  0  0  0
    7.4485  -13.3579   20.6414 C   0  0  0  0  0  0  0  0  0  0  0  0
    8.7521  -14.1754   20.5070 C   0  0  1  0  0  0  0  0  0  0  0  0
    8.9922  -15.0121   21.6398 C   0  0  0  0  0  0  0  0  0  0  0  0
    8.1125  -15.3762   22.4350 O   0  0  0  0  0  0  0  0  0  0  0  0
   10.3255  -17.8620   22.5807 C   0  0  0  0  0  0  0  0  0  0  0  0
   10.5240  -16.4179   23.0402 C   0  0  2  0  0  0  0  0  0  0  0  0
   10.3206  -15.5161   21.9585 N   0  0  0  0  0  0  0  0  0  0  0  0
   11.8603  -16.2803   23.6707 C   0  0  0  0  0  0  0  0  0  0  0  0
   12.1984  -16.9595   24.6713 O   0  0  0  0  0  0  0  0  0  0  0  0
   12.7804  -15.3812   23.1572 O   0  0  0  0  0  0  0  0  0  0  0  0
  2  1  1  0
  3  2  1  0
  4  3  2  0
  5  3  1  0
  5  6  1  0
  7  6  1  0
  8  9  1  0
  8  7  1  0
  9  5  1  0
  9 10  1  1
 10 14  1  0
 11 10  2  0
 13 14  1  0
 13 15  1  0
 13 12  1  6
 15 17  1  0
 16 15  2  0
M  END
$$$$
