GPA.pdb
     RDKit          3D

 17 17  0  0  1  0  0  0  0  0999 V2000
    9.9420  -18.0617   19.7718 N   0  0  0  0  0  0  0  0  0  0  0  0
    8.8118  -17.5086   20.5324 C   0  0  0  0  0  0  0  0  0  0  0  0
    9.2385  -16.4293   21.4204 C   0  0  0  0  0  0  0  0  0  0  0  0
   10.4888  -16.4916   21.7891 O   0  0  0  0  0  0  0  0  0  0  0  0
    8.4991  -15.3476   21.9268 N   0  0  0  0  0  0  0  0  0  0  0  0
    7.4062  -14.7821   21.0287 C   0  0  0  0  0  0  0  0  0  0  0  0
    6.4243  -14.1443   21.9548 C   0  0  0  0  0  0  0  0  0  0  0  0
    6.8860  -14.5990   23.3200 C   0  0  0  0  0  0  0  0  0  0  0  0
    8.4069  -14.5245   23.0606 C   0  0  1  0  0  0  0  0  0  0  0  0
    9.1744  -14.7091   24.2512 C   0  0  0  0  0  0  0  0  0  0  0  0
   10.1617  -15.4554   24.3341 O   0  0  0  0  0  0  0  0  0  0  0  0
    9.3487  -13.1791   27.7139 C   0  0  0  0  0  0  0  0  0  0  0  0
    9.5600  -14.2975   26.6938 C   0  0  2  0  0  0  0  0  0  0  0  0
    8.8506  -14.0192   25.4921 N   0  0  0  0  0  0  0  0  0  0  0  0
    9.1868  -15.5980   27.3034 C   0  0  0  0  0  0  0  0  0  0  0  0
    8.0883  -16.1565   27.0623 O   0  0  0  0  0  0  0  0  0  0  0  0
   10.0612  -16.2349   28.1686 O   0  0  0  0  0  0  0  0  0  0  0  0
  2  1  1  0
  3  2  1  0
  4  3  2  0
  5  3  1  0
  5  6  1  0
  7  6  1  0
  8  9  1  0
  8  7  1  0
  9  5  1  0
  9 10  1  1
 10 14  1  0
 11 10  2  0
 13 14  1  0
 13 15  1  0
 13 12  1  1
 15 17  1  0
 16 15  2  0
M  END
$$$$
