GPA.pdb
     RDKit          3D

 17 17  0  0  1  0  0  0  0  0999 V2000
    7.1907  -13.0316   21.0436 N   0  0  0  0  0  0  0  0  0  0  0  0
    6.4502  -13.2726   22.2907 C   0  0  0  0  0  0  0  0  0  0  0  0
    7.3472  -13.6290   23.3880 C   0  0  0  0  0  0  0  0  0  0  0  0
    8.2184  -14.5563   23.0978 O   0  0  0  0  0  0  0  0  0  0  0  0
    7.4011  -13.1192   24.6959 N   0  0  0  0  0  0  0  0  0  0  0  0
    6.9903  -11.6643   24.8835 C   0  0  0  0  0  0  0  0  0  0  0  0
    6.5398  -11.5608   26.3030 C   0  0  0  0  0  0  0  0  0  0  0  0
    6.4864  -13.0008   26.7580 C   0  0  0  0  0  0  0  0  0  0  0  0
    7.7370  -13.5037   26.0038 C   0  0  1  0  0  0  0  0  0  0  0  0
    8.1056  -14.8314   26.3806 C   0  0  0  0  0  0  0  0  0  0  0  0
    7.3041  -15.6888   26.7823 O   0  0  0  0  0  0  0  0  0  0  0  0
   10.9154  -17.0797   25.5103 C   0  0  0  0  0  0  0  0  0  0  0  0
    9.8038  -16.6729   26.4773 C   0  0  2  0  0  0  0  0  0  0  0  0
    9.4848  -15.2949   26.3216 N   0  0  0  0  0  0  0  0  0  0  0  0
   10.2014  -17.0265   27.8626 C   0  0  0  0  0  0  0  0  0  0  0  0
   10.3327  -16.1588   28.7606 O   0  0  0  0  0  0  0  0  0  0  0  0
   10.4406  -18.3487   28.1995 O   0  0  0  0  0  0  0  0  0  0  0  0
  2  1  1  0
  3  2  1  0
  4  3  2  0
  5  3  1  0
  5  6  1  0
  7  6  1  0
  8  9  1  0
  8  7  1  0
  9  5  1  0
  9 10  1  6
 10 14  1  0
 11 10  2  0
 13 14  1  0
 13 15  1  0
 13 12  1  6
 15 17  1  0
 16 15  2  0
M  END
$$$$
