GPA.pdb
     RDKit          3D

 17 17  0  0  1  0  0  0  0  0999 V2000
    8.7852  -15.9535   15.6313 N   0  0  0  0  0  0  0  0  0  0  0  0
    8.0238  -15.4884   16.8000 C   0  0  0  0  0  0  0  0  0  0  0  0
    8.8780  -15.3510   17.9778 C   0  0  0  0  0  0  0  0  0  0  0  0
    9.7254  -16.3282   18.1510 O   0  0  0  0  0  0  0  0  0  0  0  0
    8.9130  -14.3263   18.9381 N   0  0  0  0  0  0  0  0  0  0  0  0
    8.6941  -12.9053   18.4347 C   0  0  0  0  0  0  0  0  0  0  0  0
    8.1674  -12.1472   19.6080 C   0  0  0  0  0  0  0  0  0  0  0  0
    7.8862  -13.2291   20.6248 C   0  0  0  0  0  0  0  0  0  0  0  0
    9.1040  -14.1273   20.3148 C   0  0  1  0  0  0  0  0  0  0  0  0
    9.2607  -15.1830   21.2645 C   0  0  0  0  0  0  0  0  0  0  0  0
    8.3403  -15.9270   21.6362 O   0  0  0  0  0  0  0  0  0  0  0  0
   10.8111  -17.8723   22.1684 C   0  0  0  0  0  0  0  0  0  0  0  0
   10.6720  -16.5129   22.8531 C   0  0  2  0  0  0  0  0  0  0  0  0
   10.5442  -15.4765   21.8865 N   0  0  0  0  0  0  0  0  0  0  0  0
   11.8127  -16.3085   23.7799 C   0  0  0  0  0  0  0  0  0  0  0  0
   12.7255  -15.4799   23.5411 O   0  0  0  0  0  0  0  0  0  0  0  0
   11.8950  -17.0431   24.9514 O   0  0  0  0  0  0  0  0  0  0  0  0
  2  1  1  0
  3  2  1  0
  4  3  2  0
  5  3  1  0
  5  6  1  0
  7  6  1  0
  8  9  1  0
  8  7  1  0
  9  5  1  0
  9 10  1  1
 10 14  1  0
 11 10  2  0
 13 14  1  0
 13 15  1  0
 13 12  1  6
 15 17  1  0
 16 15  2  0
M  END
$$$$
