GPA.pdb
     RDKit          3D

 17 17  0  0  1  0  0  0  0  0999 V2000
    9.8735  -17.9239   18.8798 N   0  0  0  0  0  0  0  0  0  0  0  0
    8.7032  -17.2116   19.4133 C   0  0  0  0  0  0  0  0  0  0  0  0
    9.0943  -16.1662   20.3565 C   0  0  0  0  0  0  0  0  0  0  0  0
   10.0706  -16.4951   21.1576 O   0  0  0  0  0  0  0  0  0  0  0  0
    8.5718  -14.8724   20.5193 N   0  0  0  0  0  0  0  0  0  0  0  0
    8.2515  -14.0959   19.2485 C   0  0  0  0  0  0  0  0  0  0  0  0
    7.1976  -13.1139   19.6404 C   0  0  0  0  0  0  0  0  0  0  0  0
    6.8094  -13.5556   21.0323 C   0  0  0  0  0  0  0  0  0  0  0  0
    8.2177  -13.9571   21.5235 C   0  0  1  0  0  0  0  0  0  0  0  0
    8.2468  -14.2483   22.9217 C   0  0  0  0  0  0  0  0  0  0  0  0
    9.0911  -14.9781   23.4632 O   0  0  0  0  0  0  0  0  0  0  0  0
    6.3899  -13.1282   26.0358 C   0  0  0  0  0  0  0  0  0  0  0  0
    7.2330  -14.0991   25.2096 C   0  0  2  0  0  0  0  0  0  0  0  0
    7.2638  -13.6983   23.8446 N   0  0  0  0  0  0  0  0  0  0  0  0
    6.7241  -15.4799   25.4006 C   0  0  0  0  0  0  0  0  0  0  0  0
    6.8794  -16.1044   26.4788 O   0  0  0  0  0  0  0  0  0  0  0  0
    6.0537  -16.1207   24.3717 O   0  0  0  0  0  0  0  0  0  0  0  0
  2  1  1  0
  3  2  1  0
  4  3  2  0
  5  3  1  0
  5  6  1  0
  7  6  1  0
  8  9  1  0
  8  7  1  0
  9  5  1  0
  9 10  1  1
 10 14  1  0
 11 10  2  0
 13 14  1  0
 13 15  1  0
 13 12  1  1
 15 17  1  0
 16 15  2  0
M  END
$$$$
