GPA.pdb
     RDKit          3D

 17 17  0  0  1  0  0  0  0  0999 V2000
    9.1398  -15.7595   15.3757 N   0  0  0  0  0  0  0  0  0  0  0  0
    8.3071  -15.2587   16.4792 C   0  0  0  0  0  0  0  0  0  0  0  0
    9.0806  -15.1061   17.7097 C   0  0  0  0  0  0  0  0  0  0  0  0
   10.1302  -15.8774   17.7904 O   0  0  0  0  0  0  0  0  0  0  0  0
    8.8541  -14.2556   18.8045 N   0  0  0  0  0  0  0  0  0  0  0  0
    8.4268  -12.8279   18.4885 C   0  0  0  0  0  0  0  0  0  0  0  0
    7.6797  -12.3629   19.6943 C   0  0  0  0  0  0  0  0  0  0  0  0
    7.5143  -13.6241   20.5102 C   0  0  0  0  0  0  0  0  0  0  0  0
    8.8939  -14.2496   20.2080 C   0  0  1  0  0  0  0  0  0  0  0  0
    9.1586  -15.4028   21.0085 C   0  0  0  0  0  0  0  0  0  0  0  0
    8.3223  -16.2847   21.2566 O   0  0  0  0  0  0  0  0  0  0  0  0
   11.7230  -17.7133   21.6740 C   0  0  0  0  0  0  0  0  0  0  0  0
   10.7136  -16.8099   22.3819 C   0  0  2  0  0  0  0  0  0  0  0  0
   10.4626  -15.6402   21.6114 N   0  0  0  0  0  0  0  0  0  0  0  0
   11.1951  -16.5124   23.7536 C   0  0  0  0  0  0  0  0  0  0  0  0
   11.5172  -15.3524   24.1103 O   0  0  0  0  0  0  0  0  0  0  0  0
   11.3010  -17.5300   24.6875 O   0  0  0  0  0  0  0  0  0  0  0  0
  2  1  1  0
  3  2  1  0
  4  3  2  0
  5  3  1  0
  5  6  1  0
  7  6  1  0
  8  9  1  0
  8  7  1  0
  9  5  1  0
  9 10  1  1
 10 14  1  0
 11 10  2  0
 13 14  1  0
 13 15  1  0
 13 12  1  6
 15 17  1  0
 16 15  2  0
M  END
$$$$
