GPA.pdb
     RDKit          3D

 17 17  0  0  1  0  0  0  0  0999 V2000
    8.8672  -15.7555   15.3024 N   0  0  0  0  0  0  0  0  0  0  0  0
    8.0741  -15.2185   16.4180 C   0  0  0  0  0  0  0  0  0  0  0  0
    8.8788  -15.0755   17.6295 C   0  0  0  0  0  0  0  0  0  0  0  0
    9.8266  -15.9630   17.7598 O   0  0  0  0  0  0  0  0  0  0  0  0
    8.7749  -14.1276   18.6610 N   0  0  0  0  0  0  0  0  0  0  0  0
    8.4256  -12.7024   18.2518 C   0  0  0  0  0  0  0  0  0  0  0  0
    7.7841  -12.0921   19.4537 C   0  0  0  0  0  0  0  0  0  0  0  0
    7.5839  -13.2703   20.3785 C   0  0  0  0  0  0  0  0  0  0  0  0
    8.8984  -14.0142   20.0551 C   0  0  1  0  0  0  0  0  0  0  0  0
    9.1329  -15.1168   20.9326 C   0  0  0  0  0  0  0  0  0  0  0  0
    8.2823  -15.9742   21.2155 O   0  0  0  0  0  0  0  0  0  0  0  0
   10.6609  -17.7404   21.4994 C   0  0  0  0  0  0  0  0  0  0  0  0
   10.6645  -16.4845   22.3705 C   0  0  2  0  0  0  0  0  0  0  0  0
   10.4201  -15.3267   21.5802 N   0  0  0  0  0  0  0  0  0  0  0  0
   11.9378  -16.4144   23.1294 C   0  0  0  0  0  0  0  0  0  0  0  0
   12.7393  -15.4566   22.9998 O   0  0  0  0  0  0  0  0  0  0  0  0
   12.2744  -17.4255   24.0144 O   0  0  0  0  0  0  0  0  0  0  0  0
  2  1  1  0
  3  2  1  0
  4  3  2  0
  5  3  1  0
  5  6  1  0
  7  6  1  0
  8  9  1  0
  8  7  1  0
  9  5  1  0
  9 10  1  1
 10 14  1  0
 11 10  2  0
 13 14  1  0
 13 15  1  0
 13 12  1  6
 15 17  1  0
 16 15  2  0
M  END
$$$$
