GPA.pdb
     RDKit          3D

 17 17  0  0  1  0  0  0  0  0999 V2000
    7.6611  -17.0248   17.0177 N   0  0  0  0  0  0  0  0  0  0  0  0
    7.0921  -16.3342   18.1843 C   0  0  0  0  0  0  0  0  0  0  0  0
    8.1146  -16.0400   19.1861 C   0  0  0  0  0  0  0  0  0  0  0  0
    8.9917  -16.9901   19.3621 O   0  0  0  0  0  0  0  0  0  0  0  0
    8.2824  -14.8911   19.9769 N   0  0  0  0  0  0  0  0  0  0  0  0
    8.0393  -13.5489   19.2987 C   0  0  0  0  0  0  0  0  0  0  0  0
    7.6675  -12.6115   20.3995 C   0  0  0  0  0  0  0  0  0  0  0  0
    7.4803  -13.5258   21.5880 C   0  0  0  0  0  0  0  0  0  0  0  0
    8.6341  -14.5056   21.2804 C   0  0  1  0  0  0  0  0  0  0  0  0
    8.8746  -15.4205   22.3509 C   0  0  0  0  0  0  0  0  0  0  0  0
    7.9843  -16.0535   22.9386 O   0  0  0  0  0  0  0  0  0  0  0  0
   11.7746  -17.3801   23.6250 C   0  0  0  0  0  0  0  0  0  0  0  0
   10.4432  -16.6665   23.8578 C   0  0  2  0  0  0  0  0  0  0  0  0
   10.2163  -15.6891   22.8489 N   0  0  0  0  0  0  0  0  0  0  0  0
   10.4187  -16.1040   25.2308 C   0  0  0  0  0  0  0  0  0  0  0  0
   10.3285  -14.8699   25.4442 O   0  0  0  0  0  0  0  0  0  0  0  0
   10.4963  -16.9470   26.3273 O   0  0  0  0  0  0  0  0  0  0  0  0
  2  1  1  0
  3  2  1  0
  4  3  2  0
  5  3  1  0
  5  6  1  0
  7  6  1  0
  8  9  1  0
  8  7  1  0
  9  5  1  0
  9 10  1  1
 10 14  1  0
 11 10  2  0
 13 14  1  0
 13 15  1  0
 13 12  1  6
 15 17  1  0
 16 15  2  0
M  END
$$$$
