NEV.pdb
     RDKit          3D

 25 24  0  0  1  0  0  0  0  0999 V2000
   15.1521  -15.9801   19.2978 N   0  0  0  0  0  0  0  0  0  0  0  0
   13.9464  -16.5651   19.7884 C   0  0  0  0  0  0  0  0  0  0  0  0
   13.9066  -17.8148   19.9990 O   0  0  0  0  0  0  0  0  0  0  0  0
   12.7185  -15.8019   20.0732 C   0  0  0  0  0  0  0  0  0  0  0  0
   12.3958  -15.9325   21.5611 C   0  0  2  0  0  0  0  0  0  0  0  0
   12.7120  -17.2687   22.0204 N   0  0  0  0  0  0  0  0  0  0  0  0
   10.9868  -15.6235   21.8369 C   0  0  0  0  0  0  0  0  0  0  0  0
   10.5171  -14.5021   21.4396 O   0  0  0  0  0  0  0  0  0  0  0  0
   10.0892  -16.4587   22.5084 N   0  0  0  0  0  0  0  0  0  0  0  0
    8.6844  -16.0923   22.7880 C   0  0  1  0  0  0  0  0  0  0  0  0
    7.8357  -17.3304   22.6580 C   0  0  0  0  0  0  0  0  0  0  0  0
    6.3961  -17.1771   23.0242 C   0  0  0  0  0  0  0  0  0  0  0  0
    5.7523  -18.5232   22.7439 C   0  0  0  0  0  0  0  0  0  0  0  0
    4.9909  -19.0875   23.5543 O   0  0  0  0  0  0  0  0  0  0  0  0
    8.6062  -15.5149   24.1368 C   0  0  0  0  0  0  0  0  0  0  0  0
    9.3704  -16.0212   25.0346 O   0  0  0  0  0  0  0  0  0  0  0  0
    6.0100  -19.1570   21.5520 O   0  0  0  0  0  0  0  0  0  0  0  0
    7.4806  -11.7305   25.2024 C   0  0  0  0  0  0  0  0  0  0  0  0
    6.9384  -12.7739   26.1365 C   0  0  2  0  0  0  0  0  0  0  0  0
    6.9452  -12.3015   27.5675 C   0  0  0  0  0  0  0  0  0  0  0  0
    7.7591  -14.0453   25.9461 C   0  0  2  0  0  0  0  0  0  0  0  0
    7.7713  -14.4487   24.5429 N   0  0  0  0  0  0  0  0  0  0  0  0
    7.2667  -15.1420   26.7904 C   0  0  0  0  0  0  0  0  0  0  0  0
    6.2790  -15.8512   26.4582 O   0  0  0  0  0  0  0  0  0  0  0  0
    7.8581  -15.4681   28.0099 O   0  0  0  0  0  0  0  0  0  0  0  0
  1  2  1  0
  2  3  2  0
  4  5  1  0
  4  2  1  0
  5  6  1  6
  7  5  1  0
  8  7  2  0
  9  7  1  0
 10  9  1  0
 10 11  1  1
 11 12  1  0
 12 13  1  0
 13 17  1  0
 14 13  2  0
 15 22  1  0
 15 10  1  0
 16 15  2  0
 19 18  1  6
 19 21  1  0
 20 19  1  0
 21 23  1  0
 21 22  1  6
 23 25  1  0
 24 23  2  0
M  END
$$$$
