NEV.pdb
     RDKit          3D

 25 24  0  0  1  0  0  0  0  0999 V2000
    8.7465  -13.0301   16.8034 N   0  0  0  0  0  0  0  0  0  0  0  0
    7.8673  -14.1511   16.8872 C   0  0  0  0  0  0  0  0  0  0  0  0
    7.3715  -14.6289   15.8225 O   0  0  0  0  0  0  0  0  0  0  0  0
    7.4875  -14.8057   18.1515 C   0  0  0  0  0  0  0  0  0  0  0  0
    8.1060  -14.0258   19.3109 C   0  0  2  0  0  0  0  0  0  0  0  0
    9.5000  -13.7498   19.0335 N   0  0  0  0  0  0  0  0  0  0  0  0
    7.9778  -14.7533   20.5801 C   0  0  0  0  0  0  0  0  0  0  0  0
    6.8056  -15.0230   21.0152 O   0  0  0  0  0  0  0  0  0  0  0  0
    9.0406  -15.1893   21.3766 N   0  0  0  0  0  0  0  0  0  0  0  0
    8.8620  -15.8762   22.6736 C   0  0  1  0  0  0  0  0  0  0  0  0
    9.9250  -16.9365   22.8000 C   0  0  0  0  0  0  0  0  0  0  0  0
    9.5222  -18.3168   22.3968 C   0  0  0  0  0  0  0  0  0  0  0  0
   10.7840  -19.1569   22.4801 C   0  0  0  0  0  0  0  0  0  0  0  0
   11.0715  -19.8431   23.4807 O   0  0  0  0  0  0  0  0  0  0  0  0
    8.9510  -14.8815   23.7512 C   0  0  0  0  0  0  0  0  0  0  0  0
    9.9622  -14.0917   23.7356 O   0  0  0  0  0  0  0  0  0  0  0  0
   11.6539  -19.1715   21.4162 O   0  0  0  0  0  0  0  0  0  0  0  0
    7.3858  -11.5241   26.6826 C   0  0  0  0  0  0  0  0  0  0  0  0
    7.0368  -12.6876   25.7996 C   0  0  2  0  0  0  0  0  0  0  0  0
    5.7806  -13.3817   26.2593 C   0  0  0  0  0  0  0  0  0  0  0  0
    8.2363  -13.6290   25.7691 C   0  0  2  0  0  0  0  0  0  0  0  0
    8.0256  -14.7056   24.8054 N   0  0  0  0  0  0  0  0  0  0  0  0
    8.5283  -14.1813   27.0987 C   0  0  0  0  0  0  0  0  0  0  0  0
    8.2119  -15.3587   27.4189 O   0  0  0  0  0  0  0  0  0  0  0  0
    9.1720  -13.4411   28.0892 O   0  0  0  0  0  0  0  0  0  0  0  0
  1  2  1  0
  2  3  2  0
  4  5  1  0
  4  2  1  0
  5  6  1  6
  7  5  1  0
  8  7  2  0
  9  7  1  0
 10  9  1  0
 10 11  1  1
 11 12  1  0
 12 13  1  0
 13 17  1  0
 14 13  2  0
 15 22  1  0
 15 10  1  0
 16 15  2  0
 19 18  1  1
 19 21  1  0
 20 19  1  0
 21 23  1  0
 21 22  1  6
 23 25  1  0
 24 23  2  0
M  END
$$$$
