NEV.pdb
     RDKit          3D

 25 24  0  0  1  0  0  0  0  0999 V2000
    7.9933  -12.5809   16.5149 N   0  0  0  0  0  0  0  0  0  0  0  0
    8.0352  -13.7650   17.3104 C   0  0  0  0  0  0  0  0  0  0  0  0
    8.6422  -14.7862   16.8674 O   0  0  0  0  0  0  0  0  0  0  0  0
    7.4089  -13.8860   18.6387 C   0  0  0  0  0  0  0  0  0  0  0  0
    8.4895  -13.7168   19.7058 C   0  0  2  0  0  0  0  0  0  0  0  0
    9.7669  -14.1640   19.1916 N   0  0  0  0  0  0  0  0  0  0  0  0
    8.1545  -14.4493   20.9339 C   0  0  0  0  0  0  0  0  0  0  0  0
    7.0521  -14.1817   21.5248 O   0  0  0  0  0  0  0  0  0  0  0  0
    8.9452  -15.4346   21.5323 N   0  0  0  0  0  0  0  0  0  0  0  0
    8.6092  -16.0834   22.8177 C   0  0  1  0  0  0  0  0  0  0  0  0
    9.4331  -17.3383   22.9461 C   0  0  0  0  0  0  0  0  0  0  0  0
    9.2336  -18.1254   24.1994 C   0  0  0  0  0  0  0  0  0  0  0  0
   10.1778  -19.3101   24.0985 C   0  0  0  0  0  0  0  0  0  0  0  0
   11.3946  -19.2257   24.3572 O   0  0  0  0  0  0  0  0  0  0  0  0
    8.8794  -15.1377   23.9091 C   0  0  0  0  0  0  0  0  0  0  0  0
   10.0230  -14.5557   23.9084 O   0  0  0  0  0  0  0  0  0  0  0  0
    9.6846  -20.5319   23.7076 O   0  0  0  0  0  0  0  0  0  0  0  0
    6.1103  -13.4479   26.6472 C   0  0  0  0  0  0  0  0  0  0  0  0
    7.3724  -12.7707   26.1960 C   0  0  2  0  0  0  0  0  0  0  0  0
    7.1488  -11.9361   24.9612 C   0  0  0  0  0  0  0  0  0  0  0  0
    8.4304  -13.8476   25.9792 C   0  0  2  0  0  0  0  0  0  0  0  0
    7.9977  -14.8015   24.9618 N   0  0  0  0  0  0  0  0  0  0  0  0
    8.7600  -14.5457   27.2290 C   0  0  0  0  0  0  0  0  0  0  0  0
    8.4513  -15.7523   27.4235 O   0  0  0  0  0  0  0  0  0  0  0  0
    9.4332  -13.9208   28.2776 O   0  0  0  0  0  0  0  0  0  0  0  0
  1  2  1  0
  2  3  2  0
  4  5  1  0
  4  2  1  0
  5  6  1  6
  7  5  1  0
  8  7  2  0
  9  7  1  0
 10  9  1  0
 10 11  1  1
 11 12  1  0
 12 13  1  0
 13 17  1  0
 14 13  2  0
 15 22  1  0
 15 10  1  0
 16 15  2  0
 19 18  1  6
 19 21  1  0
 20 19  1  0
 21 23  1  0
 21 22  1  6
 23 25  1  0
 24 23  2  0
M  END
$$$$
