NEV.pdb
     RDKit          3D

 25 24  0  0  1  0  0  0  0  0999 V2000
    8.0543  -14.0293   17.1467 N   0  0  0  0  0  0  0  0  0  0  0  0
    7.7304  -15.2368   17.8349 C   0  0  0  0  0  0  0  0  0  0  0  0
    7.9875  -16.3500   17.2850 O   0  0  0  0  0  0  0  0  0  0  0  0
    7.1047  -15.2810   19.1683 C   0  0  0  0  0  0  0  0  0  0  0  0
    8.1838  -15.5918   20.2046 C   0  0  2  0  0  0  0  0  0  0  0  0
    8.8284  -16.8485   19.8858 N   0  0  0  0  0  0  0  0  0  0  0  0
    7.6293  -15.6387   21.5637 C   0  0  0  0  0  0  0  0  0  0  0  0
    6.8663  -14.6863   21.9466 O   0  0  0  0  0  0  0  0  0  0  0  0
    7.8620  -16.6497   22.5007 N   0  0  0  0  0  0  0  0  0  0  0  0
    7.2754  -16.6573   23.8578 C   0  0  1  0  0  0  0  0  0  0  0  0
    7.5484  -17.9994   24.4858 C   0  0  0  0  0  0  0  0  0  0  0  0
    6.3704  -18.9064   24.6269 C   0  0  0  0  0  0  0  0  0  0  0  0
    6.9222  -20.2242   25.1407 C   0  0  0  0  0  0  0  0  0  0  0  0
    6.6641  -21.3185   24.6016 O   0  0  0  0  0  0  0  0  0  0  0  0
    7.8673  -15.5596   24.6345 C   0  0  0  0  0  0  0  0  0  0  0  0
    9.1099  -15.3078   24.4374 O   0  0  0  0  0  0  0  0  0  0  0  0
    7.7412  -20.2260   26.2443 O   0  0  0  0  0  0  0  0  0  0  0  0
    7.7925  -11.2788   26.8809 C   0  0  0  0  0  0  0  0  0  0  0  0
    6.9971  -12.3996   26.2755 C   0  0  2  0  0  0  0  0  0  0  0  0
    5.7424  -12.6829   27.0609 C   0  0  0  0  0  0  0  0  0  0  0  0
    7.9053  -13.6211   26.1811 C   0  0  2  0  0  0  0  0  0  0  0  0
    7.1979  -14.7473   25.5784 N   0  0  0  0  0  0  0  0  0  0  0  0
    8.4467  -13.9991   27.4934 C   0  0  0  0  0  0  0  0  0  0  0  0
    8.0331  -15.0101   28.1224 O   0  0  0  0  0  0  0  0  0  0  0  0
    9.4497  -13.2662   28.1260 O   0  0  0  0  0  0  0  0  0  0  0  0
  1  2  1  0
  2  3  2  0
  4  5  1  0
  4  2  1  0
  5  6  1  6
  7  5  1  0
  8  7  2  0
  9  7  1  0
 10  9  1  0
 10 11  1  1
 11 12  1  0
 12 13  1  0
 13 17  1  0
 14 13  2  0
 15 22  1  0
 15 10  1  0
 16 15  2  0
 19 18  1  1
 19 21  1  0
 20 19  1  0
 21 23  1  0
 21 22  1  1
 23 25  1  0
 24 23  2  0
M  END
$$$$
