NEV.pdb
     RDKit          3D

 25 24  0  0  1  0  0  0  0  0999 V2000
    9.2722  -13.4804   16.9110 N   0  0  0  0  0  0  0  0  0  0  0  0
    8.0147  -14.1508   16.9862 C   0  0  0  0  0  0  0  0  0  0  0  0
    7.4857  -14.5942   15.9226 O   0  0  0  0  0  0  0  0  0  0  0  0
    7.2723  -14.3681   18.2404 C   0  0  0  0  0  0  0  0  0  0  0  0
    8.0251  -13.6815   19.3793 C   0  0  2  0  0  0  0  0  0  0  0  0
    9.4109  -13.4855   19.0088 N   0  0  0  0  0  0  0  0  0  0  0  0
    7.9396  -14.4538   20.6255 C   0  0  0  0  0  0  0  0  0  0  0  0
    6.7833  -14.7085   21.1095 O   0  0  0  0  0  0  0  0  0  0  0  0
    9.0279  -14.9486   21.3499 N   0  0  0  0  0  0  0  0  0  0  0  0
    8.8915  -15.8020   22.5496 C   0  0  1  0  0  0  0  0  0  0  0  0
   10.0516  -16.7627   22.5836 C   0  0  0  0  0  0  0  0  0  0  0  0
   10.1014  -17.6856   23.7566 C   0  0  0  0  0  0  0  0  0  0  0  0
   11.3503  -18.5280   23.5674 C   0  0  0  0  0  0  0  0  0  0  0  0
   11.4832  -19.3333   22.6247 O   0  0  0  0  0  0  0  0  0  0  0  0
    8.8588  -14.9416   23.7401 C   0  0  0  0  0  0  0  0  0  0  0  0
    9.7941  -14.0711   23.8581 O   0  0  0  0  0  0  0  0  0  0  0  0
   12.3848  -18.4081   24.4641 O   0  0  0  0  0  0  0  0  0  0  0  0
    6.6301  -12.3802   24.8287 C   0  0  0  0  0  0  0  0  0  0  0  0
    6.7799  -13.2116   26.0703 C   0  0  2  0  0  0  0  0  0  0  0  0
    6.8332  -12.3587   27.3116 C   0  0  0  0  0  0  0  0  0  0  0  0
    8.0282  -14.0730   25.9096 C   0  0  2  0  0  0  0  0  0  0  0  0
    7.8913  -14.9761   24.7704 N   0  0  0  0  0  0  0  0  0  0  0  0
    8.3267  -14.8314   27.1318 C   0  0  0  0  0  0  0  0  0  0  0  0
    8.0797  -16.0633   27.2325 O   0  0  0  0  0  0  0  0  0  0  0  0
    8.9005  -14.2393   28.2559 O   0  0  0  0  0  0  0  0  0  0  0  0
  1  2  1  0
  2  3  2  0
  4  5  1  0
  4  2  1  0
  5  6  1  6
  7  5  1  0
  8  7  2  0
  9  7  1  0
 10  9  1  0
 10 11  1  1
 11 12  1  0
 12 13  1  0
 13 17  1  0
 14 13  2  0
 15 22  1  0
 15 10  1  0
 16 15  2  0
 19 18  1  6
 19 21  1  0
 20 19  1  0
 21 23  1  0
 21 22  1  6
 23 25  1  0
 24 23  2  0
M  END
$$$$
