NEV.pdb
     RDKit          3D

 25 24  0  0  1  0  0  0  0  0999 V2000
    8.9794  -13.2284   17.1067 N   0  0  0  0  0  0  0  0  0  0  0  0
    7.7019  -13.8222   17.3349 C   0  0  0  0  0  0  0  0  0  0  0  0
    6.8846  -13.9205   16.3706 O   0  0  0  0  0  0  0  0  0  0  0  0
    7.2571  -14.3399   18.6409 C   0  0  0  0  0  0  0  0  0  0  0  0
    8.2757  -13.9277   19.7028 C   0  0  2  0  0  0  0  0  0  0  0  0
    9.6099  -14.2954   19.2775 N   0  0  0  0  0  0  0  0  0  0  0  0
    7.9744  -14.5367   21.0048 C   0  0  0  0  0  0  0  0  0  0  0  0
    6.8416  -14.2937   21.5466 O   0  0  0  0  0  0  0  0  0  0  0  0
    8.8288  -15.3766   21.7249 N   0  0  0  0  0  0  0  0  0  0  0  0
    8.4631  -16.0053   23.0122 C   0  0  1  0  0  0  0  0  0  0  0  0
    9.2548  -17.2786   23.1608 C   0  0  0  0  0  0  0  0  0  0  0  0
    9.1038  -17.9935   24.4632 C   0  0  0  0  0  0  0  0  0  0  0  0
    9.9326  -19.2595   24.3387 C   0  0  0  0  0  0  0  0  0  0  0  0
   11.1233  -19.3237   24.7030 O   0  0  0  0  0  0  0  0  0  0  0  0
    8.7446  -15.0565   24.0982 C   0  0  0  0  0  0  0  0  0  0  0  0
    9.8866  -14.4717   24.0821 O   0  0  0  0  0  0  0  0  0  0  0  0
    9.3596  -20.3888   23.8047 O   0  0  0  0  0  0  0  0  0  0  0  0
    6.0591  -13.2364   26.7980 C   0  0  0  0  0  0  0  0  0  0  0  0
    7.4099  -12.6801   26.4497 C   0  0  2  0  0  0  0  0  0  0  0  0
    7.3478  -11.7702   25.2500 C   0  0  0  0  0  0  0  0  0  0  0  0
    8.3585  -13.8545   26.2329 C   0  0  2  0  0  0  0  0  0  0  0  0
    7.8751  -14.7200   25.1609 N   0  0  0  0  0  0  0  0  0  0  0  0
    8.5571  -14.6281   27.4659 C   0  0  0  0  0  0  0  0  0  0  0  0
    8.1027  -15.7957   27.6043 O   0  0  0  0  0  0  0  0  0  0  0  0
    9.2584  -14.1223   28.5593 O   0  0  0  0  0  0  0  0  0  0  0  0
  1  2  1  0
  2  3  2  0
  4  5  1  0
  4  2  1  0
  5  6  1  6
  7  5  1  0
  8  7  2  0
  9  7  1  0
 10  9  1  0
 10 11  1  1
 11 12  1  0
 12 13  1  0
 13 17  1  0
 14 13  2  0
 15 22  1  0
 15 10  1  0
 16 15  2  0
 19 18  1  6
 19 21  1  0
 20 19  1  0
 21 23  1  0
 21 22  1  6
 23 25  1  0
 24 23  2  0
M  END
$$$$
