NEV.pdb
     RDKit          3D

 25 24  0  0  1  0  0  0  0  0999 V2000
    9.4895  -14.9180   18.0768 N   0  0  0  0  0  0  0  0  0  0  0  0
    8.2633  -14.3020   17.6850 C   0  0  0  0  0  0  0  0  0  0  0  0
    7.6464  -14.7437   16.6692 O   0  0  0  0  0  0  0  0  0  0  0  0
    7.6512  -13.1643   18.3938 C   0  0  0  0  0  0  0  0  0  0  0  0
    8.4673  -12.8768   19.6533 C   0  0  2  0  0  0  0  0  0  0  0  0
    9.8805  -12.8790   19.3383 N   0  0  0  0  0  0  0  0  0  0  0  0
    8.1845  -13.8525   20.7140 C   0  0  0  0  0  0  0  0  0  0  0  0
    6.9929  -13.9300   21.1724 O   0  0  0  0  0  0  0  0  0  0  0  0
    9.1164  -14.7251   21.2834 N   0  0  0  0  0  0  0  0  0  0  0  0
    8.8013  -15.6435   22.3984 C   0  0  1  0  0  0  0  0  0  0  0  0
    9.7951  -16.7758   22.3764 C   0  0  0  0  0  0  0  0  0  0  0  0
    9.6554  -17.7889   23.4647 C   0  0  0  0  0  0  0  0  0  0  0  0
   10.7634  -18.8006   23.2327 C   0  0  0  0  0  0  0  0  0  0  0  0
   10.5921  -19.8494   22.5804 O   0  0  0  0  0  0  0  0  0  0  0  0
    8.8565  -14.8919   23.6596 C   0  0  0  0  0  0  0  0  0  0  0  0
    9.8862  -14.1514   23.8542 O   0  0  0  0  0  0  0  0  0  0  0  0
   12.0114  -18.5636   23.7571 O   0  0  0  0  0  0  0  0  0  0  0  0
    6.6036  -12.3551   25.0664 C   0  0  0  0  0  0  0  0  0  0  0  0
    6.8662  -13.2771   26.2224 C   0  0  2  0  0  0  0  0  0  0  0  0
    7.0229  -12.5211   27.5166 C   0  0  0  0  0  0  0  0  0  0  0  0
    8.1007  -14.1080   25.8880 C   0  0  2  0  0  0  0  0  0  0  0  0
    7.8801  -14.9012   24.6820 N   0  0  0  0  0  0  0  0  0  0  0  0
    8.4922  -14.9751   27.0073 C   0  0  0  0  0  0  0  0  0  0  0  0
    8.1474  -16.1860   27.0685 O   0  0  0  0  0  0  0  0  0  0  0  0
    9.2678  -14.5162   28.0708 O   0  0  0  0  0  0  0  0  0  0  0  0
  1  2  1  0
  2  3  2  0
  4  5  1  0
  4  2  1  0
  5  6  1  6
  7  5  1  0
  8  7  2  0
  9  7  1  0
 10  9  1  0
 10 11  1  1
 11 12  1  0
 12 13  1  0
 13 17  1  0
 14 13  2  0
 15 22  1  0
 15 10  1  0
 16 15  2  0
 19 18  1  6
 19 21  1  0
 20 19  1  0
 21 23  1  0
 21 22  1  6
 23 25  1  0
 24 23  2  0
M  END
$$$$
