VPF.pdb
     RDKit          3D

 26 27  0  0  1  0  0  0  0  0999 V2000
    6.0342  -17.5103   21.6487 C   0  0  0  0  0  0  0  0  0  0  0  0
    6.6119  -18.3331   20.5123 C   0  0  1  0  0  0  0  0  0  0  0  0
    5.5197  -19.1850   19.9237 C   0  0  0  0  0  0  0  0  0  0  0  0
    7.2161  -17.3762   19.5141 C   0  0  2  0  0  0  0  0  0  0  0  0
    7.7331  -18.1565   18.4192 N   0  0  0  0  0  0  0  0  0  0  0  0
    8.2232  -16.5128   20.1667 C   0  0  0  0  0  0  0  0  0  0  0  0
    9.3563  -17.0646   20.3697 O   0  0  0  0  0  0  0  0  0  0  0  0
    7.9717  -15.1705   20.5477 N   0  0  0  0  0  0  0  0  0  0  0  0
    6.7320  -14.4681   20.4236 C   0  0  0  0  0  0  0  0  0  0  0  0
    6.9452  -13.0774   20.9468 C   0  0  0  0  0  0  0  0  0  0  0  0
    8.4681  -12.8959   20.9552 C   0  0  0  0  0  0  0  0  0  0  0  0
    8.9542  -14.3018   21.1279 C   0  0  1  0  0  0  0  0  0  0  0  0
    9.2392  -14.6266   22.5480 C   0  0  0  0  0  0  0  0  0  0  0  0
   10.2348  -14.0771   23.0795 O   0  0  0  0  0  0  0  0  0  0  0  0
    8.4603  -15.5085   23.3218 N   0  0  0  0  0  0  0  0  0  0  0  0
    8.6237  -15.5220   24.7714 C   0  0  1  0  0  0  0  0  0  0  0  0
    7.3108  -15.3599   25.4651 C   0  0  0  0  0  0  0  0  0  0  0  0
    7.1049  -14.0029   25.9959 C   0  0  0  0  0  0  0  0  0  0  0  0
    5.8626  -13.4059   26.0175 C   0  0  0  0  0  0  0  0  0  0  0  0
    5.6677  -12.1364   26.5213 C   0  0  0  0  0  0  0  0  0  0  0  0
    6.7055  -11.4091   27.0248 C   0  0  0  0  0  0  0  0  0  0  0  0
    7.9643  -11.9723   27.0203 C   0  0  0  0  0  0  0  0  0  0  0  0
    8.1526  -13.2407   26.5159 C   0  0  0  0  0  0  0  0  0  0  0  0
    9.2361  -16.8099   25.1464 C   0  0  0  0  0  0  0  0  0  0  0  0
    9.5390  -17.8311   24.2399 O   0  0  0  0  0  0  0  0  0  0  0  0
    9.5114  -17.0230   26.3735 O   0  0  0  0  0  0  0  0  0  0  0  0
  2  3  1  6
  2  1  1  0
  4  6  1  0
  4  2  1  0
  4  5  1  6
  6  8  1  0
  7  6  2  0
  8 12  1  0
  8  9  1  0
  9 10  1  0
 10 11  1  0
 12 11  1  0
 12 13  1  1
 14 13  2  0
 15 13  1  0
 16 24  1  0
 16 15  1  0
 16 17  1  1
 18 19  2  0
 18 17  1  0
 20 19  1  0
 21 20  2  0
 22 21  1  0
 22 23  2  0
 23 18  1  0
 24 25  1  0
 26 24  2  0
M  END
$$$$
