VPF.pdb
     RDKit          3D

 26 27  0  0  1  0  0  0  0  0999 V2000
    6.5265  -18.5554   20.7227 C   0  0  0  0  0  0  0  0  0  0  0  0
    7.7369  -18.9627   19.9035 C   0  0  1  0  0  0  0  0  0  0  0  0
    7.2916  -19.8895   18.8045 C   0  0  0  0  0  0  0  0  0  0  0  0
    8.3856  -17.7024   19.3858 C   0  0  2  0  0  0  0  0  0  0  0  0
    9.4400  -18.0926   18.4852 N   0  0  0  0  0  0  0  0  0  0  0  0
    8.8359  -16.8517   20.5078 C   0  0  0  0  0  0  0  0  0  0  0  0
    9.8520  -17.2909   21.1435 O   0  0  0  0  0  0  0  0  0  0  0  0
    8.2020  -15.6359   20.8690 N   0  0  0  0  0  0  0  0  0  0  0  0
    6.9919  -15.1097   20.3173 C   0  0  0  0  0  0  0  0  0  0  0  0
    6.7146  -13.8017   20.9993 C   0  0  0  0  0  0  0  0  0  0  0  0
    8.0526  -13.4051   21.6355 C   0  0  0  0  0  0  0  0  0  0  0  0
    8.6999  -14.7355   21.8679 C   0  0  1  0  0  0  0  0  0  0  0  0
    8.4799  -15.2331   23.2489 C   0  0  0  0  0  0  0  0  0  0  0  0
    7.4422  -15.9057   23.4640 O   0  0  0  0  0  0  0  0  0  0  0  0
    9.3641  -14.9931   24.3185 N   0  0  0  0  0  0  0  0  0  0  0  0
    9.0238  -15.4820   25.6502 C   0  0  1  0  0  0  0  0  0  0  0  0
    7.5674  -15.3093   25.9339 C   0  0  0  0  0  0  0  0  0  0  0  0
    7.1927  -13.9082   26.1835 C   0  0  0  0  0  0  0  0  0  0  0  0
    5.9121  -13.4440   25.9718 C   0  0  0  0  0  0  0  0  0  0  0  0
    5.5585  -12.1324   26.2122 C   0  0  0  0  0  0  0  0  0  0  0  0
    6.4691  -11.2284   26.6739 C   0  0  0  0  0  0  0  0  0  0  0  0
    7.7613  -11.6549   26.8977 C   0  0  0  0  0  0  0  0  0  0  0  0
    8.1084  -12.9663   26.6559 C   0  0  0  0  0  0  0  0  0  0  0  0
    9.3836  -16.9106   25.7141 C   0  0  0  0  0  0  0  0  0  0  0  0
    8.8861  -17.8873   24.8453 O   0  0  0  0  0  0  0  0  0  0  0  0
   10.1986  -17.2973   26.6160 O   0  0  0  0  0  0  0  0  0  0  0  0
  2  3  1  6
  2  1  1  0
  4  6  1  0
  4  2  1  0
  4  5  1  6
  6  8  1  0
  7  6  2  0
  8 12  1  0
  8  9  1  0
  9 10  1  0
 10 11  1  0
 12 11  1  0
 12 13  1  1
 14 13  2  0
 15 13  1  0
 16 24  1  0
 16 15  1  0
 16 17  1  6
 18 19  2  0
 18 17  1  0
 20 19  1  0
 21 20  2  0
 22 21  1  0
 22 23  2  0
 23 18  1  0
 24 25  1  0
 26 24  2  0
M  END
$$$$
