VPF.pdb
     RDKit          3D

 26 27  0  0  1  0  0  0  0  0999 V2000
    5.2479  -19.7497   21.8137 C   0  0  0  0  0  0  0  0  0  0  0  0
    6.4644  -18.9372   22.2161 C   0  0  1  0  0  0  0  0  0  0  0  0
    7.4614  -19.8490   22.8792 C   0  0  0  0  0  0  0  0  0  0  0  0
    7.0060  -18.2756   20.9727 C   0  0  2  0  0  0  0  0  0  0  0  0
    7.4738  -19.3161   20.0931 N   0  0  0  0  0  0  0  0  0  0  0  0
    8.0364  -17.2753   21.3237 C   0  0  0  0  0  0  0  0  0  0  0  0
    9.2327  -17.7201   21.3508 O   0  0  0  0  0  0  0  0  0  0  0  0
    7.7413  -15.9189   21.6127 N   0  0  0  0  0  0  0  0  0  0  0  0
    6.4491  -15.3063   21.5960 C   0  0  0  0  0  0  0  0  0  0  0  0
    6.6286  -13.8606   21.9576 C   0  0  0  0  0  0  0  0  0  0  0  0
    8.1228  -13.5900   21.7419 C   0  0  0  0  0  0  0  0  0  0  0  0
    8.7264  -14.9410   21.9729 C   0  0  1  0  0  0  0  0  0  0  0  0
    9.2163  -15.1063   23.3643 C   0  0  0  0  0  0  0  0  0  0  0  0
   10.2351  -14.4551   23.7011 O   0  0  0  0  0  0  0  0  0  0  0  0
    8.6051  -15.9457   24.3157 N   0  0  0  0  0  0  0  0  0  0  0  0
    9.0854  -15.9328   25.6932 C   0  0  1  0  0  0  0  0  0  0  0  0
    7.9843  -15.6014   26.6467 C   0  0  0  0  0  0  0  0  0  0  0  0
    7.5586  -14.1950   26.5668 C   0  0  0  0  0  0  0  0  0  0  0  0
    6.2681  -13.8382   26.2388 C   0  0  0  0  0  0  0  0  0  0  0  0
    5.8667  -12.5201   26.1704 C   0  0  0  0  0  0  0  0  0  0  0  0
    6.7371  -11.5022   26.4265 C   0  0  0  0  0  0  0  0  0  0  0  0
    8.0377  -11.8191   26.7579 C   0  0  0  0  0  0  0  0  0  0  0  0
    8.4328  -13.1375   26.8247 C   0  0  0  0  0  0  0  0  0  0  0  0
    9.6289  -17.2697   25.9960 C   0  0  0  0  0  0  0  0  0  0  0  0
    9.5746  -18.3585   25.1198 O   0  0  0  0  0  0  0  0  0  0  0  0
   10.1858  -17.4626   27.1273 O   0  0  0  0  0  0  0  0  0  0  0  0
  2  3  1  6
  2  1  1  0
  4  6  1  0
  4  2  1  0
  4  5  1  6
  6  8  1  0
  7  6  2  0
  8 12  1  0
  8  9  1  0
  9 10  1  0
 10 11  1  0
 12 11  1  0
 12 13  1  1
 14 13  2  0
 15 13  1  0
 16 24  1  0
 16 15  1  0
 16 17  1  1
 18 19  2  0
 18 17  1  0
 20 19  1  0
 21 20  2  0
 22 21  1  0
 22 23  2  0
 23 18  1  0
 24 25  1  0
 26 24  2  0
M  END
$$$$
