VPF.pdb
     RDKit          3D

 26 27  0  0  1  0  0  0  0  0999 V2000
    8.8952  -13.0411   21.2194 C   0  0  0  0  0  0  0  0  0  0  0  0
    7.5319  -13.2507   20.5872 C   0  0  1  0  0  0  0  0  0  0  0  0
    7.4028  -12.3410   19.3953 C   0  0  0  0  0  0  0  0  0  0  0  0
    7.4117  -14.7119   20.2298 C   0  0  2  0  0  0  0  0  0  0  0  0
    6.1541  -14.8932   19.5511 N   0  0  0  0  0  0  0  0  0  0  0  0
    7.5741  -15.5556   21.4328 C   0  0  0  0  0  0  0  0  0  0  0  0
    6.6289  -15.4656   22.2861 O   0  0  0  0  0  0  0  0  0  0  0  0
    8.6874  -16.4077   21.6444 N   0  0  0  0  0  0  0  0  0  0  0  0
    9.8184  -16.5610   20.7825 C   0  0  0  0  0  0  0  0  0  0  0  0
   10.7322  -17.5729   21.4102 C   0  0  0  0  0  0  0  0  0  0  0  0
    9.8548  -18.3055   22.4328 C   0  0  0  0  0  0  0  0  0  0  0  0
    8.8406  -17.2617   22.7862 C   0  0  1  0  0  0  0  0  0  0  0  0
    9.2085  -16.5151   24.0151 C   0  0  0  0  0  0  0  0  0  0  0  0
   10.0923  -15.6297   23.9124 O   0  0  0  0  0  0  0  0  0  0  0  0
    8.6249  -16.7449   25.2760 N   0  0  0  0  0  0  0  0  0  0  0  0
    9.1169  -16.0095   26.4359 C   0  0  1  0  0  0  0  0  0  0  0  0
    7.9885  -15.4979   27.2703 C   0  0  0  0  0  0  0  0  0  0  0  0
    7.4165  -14.2432   26.7563 C   0  0  0  0  0  0  0  0  0  0  0  0
    8.1155  -13.0554   26.7818 C   0  0  0  0  0  0  0  0  0  0  0  0
    7.5825  -11.8802   26.2938 C   0  0  0  0  0  0  0  0  0  0  0  0
    6.3284  -11.8414   25.7597 C   0  0  0  0  0  0  0  0  0  0  0  0
    5.5973  -13.0099   25.7167 C   0  0  0  0  0  0  0  0  0  0  0  0
    6.1351  -14.1806   26.2056 C   0  0  0  0  0  0  0  0  0  0  0  0
    9.9562  -16.9253   27.2304 C   0  0  0  0  0  0  0  0  0  0  0  0
   10.0457  -18.3033   27.0085 O   0  0  0  0  0  0  0  0  0  0  0  0
   10.6499  -16.4455   28.1873 O   0  0  0  0  0  0  0  0  0  0  0  0
  2  3  1  6
  2  1  1  0
  4  6  1  0
  4  2  1  0
  4  5  1  1
  6  8  1  0
  7  6  2  0
  8 12  1  0
  8  9  1  0
  9 10  1  0
 10 11  1  0
 12 11  1  0
 12 13  1  1
 14 13  2  0
 15 13  1  0
 16 24  1  0
 16 15  1  0
 16 17  1  1
 18 19  2  0
 18 17  1  0
 20 19  1  0
 21 20  2  0
 22 21  1  0
 22 23  2  0
 23 18  1  0
 24 25  1  0
 26 24  2  0
M  END
$$$$
