VPF.pdb
     RDKit          3D

 26 27  0  0  1  0  0  0  0  0999 V2000
    8.8678  -12.9394   21.2020 C   0  0  0  0  0  0  0  0  0  0  0  0
    7.5141  -13.3969   20.6918 C   0  0  1  0  0  0  0  0  0  0  0  0
    7.1526  -12.5866   19.4762 C   0  0  0  0  0  0  0  0  0  0  0  0
    7.6065  -14.8762   20.4086 C   0  0  2  0  0  0  0  0  0  0  0  0
    6.3599  -15.2855   19.8140 N   0  0  0  0  0  0  0  0  0  0  0  0
    7.9604  -15.6187   21.6370 C   0  0  0  0  0  0  0  0  0  0  0  0
    7.0358  -15.6803   22.5151 O   0  0  0  0  0  0  0  0  0  0  0  0
    9.2251  -16.2246   21.8460 N   0  0  0  0  0  0  0  0  0  0  0  0
   10.3881  -16.0722   21.0276 C   0  0  0  0  0  0  0  0  0  0  0  0
   11.4802  -16.9052   21.6330 C   0  0  0  0  0  0  0  0  0  0  0  0
   10.7520  -17.8773   22.5696 C   0  0  0  0  0  0  0  0  0  0  0  0
    9.5253  -17.1021   22.9398 C   0  0  1  0  0  0  0  0  0  0  0  0
    9.6849  -16.3800   24.2268 C   0  0  0  0  0  0  0  0  0  0  0  0
   10.3534  -15.3177   24.2161 O   0  0  0  0  0  0  0  0  0  0  0  0
    9.1319  -16.8187   25.4454 N   0  0  0  0  0  0  0  0  0  0  0  0
    9.4151  -16.0743   26.6676 C   0  0  1  0  0  0  0  0  0  0  0  0
    8.1546  -15.6882   27.3700 C   0  0  0  0  0  0  0  0  0  0  0  0
    7.5404  -14.4692   26.8199 C   0  0  0  0  0  0  0  0  0  0  0  0
    6.3289  -14.4923   26.1626 C   0  0  0  0  0  0  0  0  0  0  0  0
    5.7493  -13.3490   25.6528 C   0  0  0  0  0  0  0  0  0  0  0  0
    6.3552  -12.1337   25.7776 C   0  0  0  0  0  0  0  0  0  0  0  0
    7.5691  -12.0698   26.4290 C   0  0  0  0  0  0  0  0  0  0  0  0
    8.1429  -13.2153   26.9362 C   0  0  0  0  0  0  0  0  0  0  0  0
   10.2359  -16.9330   27.5413 C   0  0  0  0  0  0  0  0  0  0  0  0
   10.5160  -18.2790   27.2839 O   0  0  0  0  0  0  0  0  0  0  0  0
   10.7279  -16.4313   28.6059 O   0  0  0  0  0  0  0  0  0  0  0  0
  2  3  1  6
  2  1  1  0
  4  6  1  0
  4  2  1  0
  4  5  1  1
  6  8  1  0
  7  6  2  0
  8 12  1  0
  8  9  1  0
  9 10  1  0
 10 11  1  0
 12 11  1  0
 12 13  1  1
 14 13  2  0
 15 13  1  0
 16 24  1  0
 16 15  1  0
 16 17  1  1
 18 19  2  0
 18 17  1  0
 20 19  1  0
 21 20  2  0
 22 21  1  0
 22 23  2  0
 23 18  1  0
 24 25  1  0
 26 24  2  0
M  END
$$$$
