VPF.pdb
     RDKit          3D

 26 27  0  0  1  0  0  0  0  0999 V2000
    8.9142  -13.0500   21.1621 C   0  0  0  0  0  0  0  0  0  0  0  0
    7.5124  -13.2110   20.6044 C   0  0  1  0  0  0  0  0  0  0  0  0
    7.3675  -12.3333   19.3905 C   0  0  0  0  0  0  0  0  0  0  0  0
    7.3041  -14.6747   20.3023 C   0  0  2  0  0  0  0  0  0  0  0  0
    6.0248  -14.8088   19.6538 N   0  0  0  0  0  0  0  0  0  0  0  0
    7.4438  -15.4835   21.5318 C   0  0  0  0  0  0  0  0  0  0  0  0
    6.5884  -15.2294   22.4446 O   0  0  0  0  0  0  0  0  0  0  0  0
    8.4451  -16.4722   21.7063 N   0  0  0  0  0  0  0  0  0  0  0  0
    9.5196  -16.7638   20.8086 C   0  0  0  0  0  0  0  0  0  0  0  0
   10.3157  -17.8878   21.4052 C   0  0  0  0  0  0  0  0  0  0  0  0
    9.3844  -18.5081   22.4540 C   0  0  0  0  0  0  0  0  0  0  0  0
    8.5236  -17.3453   22.8412 C   0  0  1  0  0  0  0  0  0  0  0  0
    9.0224  -16.6588   24.0591 C   0  0  0  0  0  0  0  0  0  0  0  0
    9.9534  -15.8291   23.9164 O   0  0  0  0  0  0  0  0  0  0  0  0
    8.5119  -16.8866   25.3517 N   0  0  0  0  0  0  0  0  0  0  0  0
    9.1548  -16.2502   26.4962 C   0  0  1  0  0  0  0  0  0  0  0  0
    8.1471  -15.6199   27.4010 C   0  0  0  0  0  0  0  0  0  0  0  0
    7.6083  -14.3575   26.8701 C   0  0  0  0  0  0  0  0  0  0  0  0
    8.3117  -13.1741   26.9405 C   0  0  0  0  0  0  0  0  0  0  0  0
    7.8101  -11.9918   26.4369 C   0  0  0  0  0  0  0  0  0  0  0  0
    6.5843  -11.9410   25.8416 C   0  0  0  0  0  0  0  0  0  0  0  0
    5.8498  -13.1048   25.7523 C   0  0  0  0  0  0  0  0  0  0  0  0
    6.3562  -14.2827   26.2571 C   0  0  0  0  0  0  0  0  0  0  0  0
    9.9090  -17.2861   27.2261 C   0  0  0  0  0  0  0  0  0  0  0  0
   10.9014  -17.0163   28.1740 O   0  0  0  0  0  0  0  0  0  0  0  0
    9.6530  -18.5127   26.9871 O   0  0  0  0  0  0  0  0  0  0  0  0
  2  3  1  6
  2  1  1  0
  4  6  1  0
  4  2  1  0
  4  5  1  1
  6  8  1  0
  7  6  2  0
  8 12  1  0
  8  9  1  0
  9 10  1  0
 10 11  1  0
 12 11  1  0
 12 13  1  1
 14 13  2  0
 15 13  1  0
 16 24  1  0
 16 15  1  0
 16 17  1  1
 18 19  2  0
 18 17  1  0
 20 19  1  0
 21 20  2  0
 22 21  1  0
 22 23  2  0
 23 18  1  0
 24 25  1  0
 26 24  2  0
M  END
$$$$
