VPF.pdb
     RDKit          3D

 26 27  0  0  1  0  0  0  0  0999 V2000
    4.1077  -18.4302   22.4226 C   0  0  0  0  0  0  0  0  0  0  0  0
    5.5364  -17.9359   22.5516 C   0  0  1  0  0  0  0  0  0  0  0  0
    6.3243  -18.9300   23.3616 C   0  0  0  0  0  0  0  0  0  0  0  0
    6.0833  -17.7448   21.1582 C   0  0  2  0  0  0  0  0  0  0  0  0
    6.0769  -19.0296   20.5068 N   0  0  0  0  0  0  0  0  0  0  0  0
    7.4130  -17.1005   21.2063 C   0  0  0  0  0  0  0  0  0  0  0  0
    8.4034  -17.9000   21.1099 O   0  0  0  0  0  0  0  0  0  0  0  0
    7.5982  -15.7020   21.3485 N   0  0  0  0  0  0  0  0  0  0  0  0
    6.5705  -14.7153   21.4739 C   0  0  0  0  0  0  0  0  0  0  0  0
    7.2397  -13.3767   21.5905 C   0  0  0  0  0  0  0  0  0  0  0  0
    8.6663  -13.6110   21.0785 C   0  0  0  0  0  0  0  0  0  0  0  0
    8.8802  -15.0607   21.3876 C   0  0  1  0  0  0  0  0  0  0  0  0
    9.5824  -15.2613   22.6799 C   0  0  0  0  0  0  0  0  0  0  0  0
   10.8226  -15.0692   22.7014 O   0  0  0  0  0  0  0  0  0  0  0  0
    8.9377  -15.6513   23.8697 N   0  0  0  0  0  0  0  0  0  0  0  0
    9.7041  -15.7158   25.1094 C   0  0  1  0  0  0  0  0  0  0  0  0
    9.6389  -14.4222   25.8534 C   0  0  0  0  0  0  0  0  0  0  0  0
    8.2608  -13.9581   26.0796 C   0  0  0  0  0  0  0  0  0  0  0  0
    7.1707  -14.6160   25.5511 C   0  0  0  0  0  0  0  0  0  0  0  0
    5.8782  -14.1855   25.7685 C   0  0  0  0  0  0  0  0  0  0  0  0
    5.6194  -13.0793   26.5228 C   0  0  0  0  0  0  0  0  0  0  0  0
    6.6842  -12.3938   27.0686 C   0  0  0  0  0  0  0  0  0  0  0  0
    7.9729  -12.8287   26.8481 C   0  0  0  0  0  0  0  0  0  0  0  0
    9.1406  -16.8004   25.9344 C   0  0  0  0  0  0  0  0  0  0  0  0
    8.0132  -17.5508   25.5849 O   0  0  0  0  0  0  0  0  0  0  0  0
    9.7052  -17.0835   27.0426 O   0  0  0  0  0  0  0  0  0  0  0  0
  2  3  1  6
  2  1  1  0
  4  6  1  0
  4  2  1  0
  4  5  1  1
  6  8  1  0
  7  6  2  0
  8 12  1  0
  8  9  1  0
  9 10  1  0
 10 11  1  0
 12 11  1  0
 12 13  1  1
 14 13  2  0
 15 13  1  0
 16 24  1  0
 16 15  1  0
 16 17  1  1
 18 19  2  0
 18 17  1  0
 20 19  1  0
 21 20  2  0
 22 21  1  0
 22 23  2  0
 23 18  1  0
 24 25  1  0
 26 24  2  0
M  END
$$$$
