VPF.pdb
     RDKit          3D

 26 27  0  0  1  0  0  0  0  0999 V2000
    4.9765  -19.6075   23.0737 C   0  0  0  0  0  0  0  0  0  0  0  0
    6.2455  -18.7760   23.0493 C   0  0  1  0  0  0  0  0  0  0  0  0
    7.3034  -19.4782   23.8572 C   0  0  0  0  0  0  0  0  0  0  0  0
    6.6384  -18.5810   21.6054 C   0  0  2  0  0  0  0  0  0  0  0  0
    6.8547  -19.8847   21.0321 N   0  0  0  0  0  0  0  0  0  0  0  0
    7.8033  -17.6768   21.5020 C   0  0  0  0  0  0  0  0  0  0  0  0
    8.9351  -18.2621   21.4248 O   0  0  0  0  0  0  0  0  0  0  0  0
    7.6955  -16.2631   21.4881 N   0  0  0  0  0  0  0  0  0  0  0  0
    6.4911  -15.4997   21.5987 C   0  0  0  0  0  0  0  0  0  0  0  0
    6.8666  -14.0483   21.5254 C   0  0  0  0  0  0  0  0  0  0  0  0
    8.2771  -14.0430   20.9233 C   0  0  0  0  0  0  0  0  0  0  0  0
    8.8121  -15.3729   21.3568 C   0  0  1  0  0  0  0  0  0  0  0  0
    9.6169  -15.2757   22.6003 C   0  0  0  0  0  0  0  0  0  0  0  0
   10.8077  -14.8942   22.4914 O   0  0  0  0  0  0  0  0  0  0  0  0
    9.1204  -15.5854   23.8813 N   0  0  0  0  0  0  0  0  0  0  0  0
    9.9954  -15.4439   25.0401 C   0  0  1  0  0  0  0  0  0  0  0  0
    9.9099  -14.0690   25.6175 C   0  0  0  0  0  0  0  0  0  0  0  0
    8.5304  -13.6605   25.9273 C   0  0  0  0  0  0  0  0  0  0  0  0
    8.1400  -13.3076   27.2014 C   0  0  0  0  0  0  0  0  0  0  0  0
    6.8487  -12.9180   27.4912 C   0  0  0  0  0  0  0  0  0  0  0  0
    5.8922  -12.8645   26.5208 C   0  0  0  0  0  0  0  0  0  0  0  0
    6.2442  -13.2106   25.2331 C   0  0  0  0  0  0  0  0  0  0  0  0
    7.5356  -13.5988   24.9498 C   0  0  0  0  0  0  0  0  0  0  0  0
    9.5801  -16.4394   26.0456 C   0  0  0  0  0  0  0  0  0  0  0  0
   10.3377  -16.7871   27.1687 O   0  0  0  0  0  0  0  0  0  0  0  0
    8.4609  -17.0325   25.8944 O   0  0  0  0  0  0  0  0  0  0  0  0
  2  3  1  1
  2  1  1  0
  4  6  1  0
  4  2  1  0
  4  5  1  1
  6  8  1  0
  7  6  2  0
  8 12  1  0
  8  9  1  0
  9 10  1  0
 10 11  1  0
 12 11  1  0
 12 13  1  1
 14 13  2  0
 15 13  1  0
 16 24  1  0
 16 15  1  0
 16 17  1  1
 18 19  2  0
 18 17  1  0
 20 19  1  0
 21 20  2  0
 22 21  1  0
 22 23  2  0
 23 18  1  0
 24 25  1  0
 26 24  2  0
M  END
$$$$
