VPF.pdb
     RDKit          3D

 26 27  0  0  1  0  0  0  0  0999 V2000
    8.7530  -12.9151   21.4007 C   0  0  0  0  0  0  0  0  0  0  0  0
    7.3787  -13.1970   20.8227 C   0  0  1  0  0  0  0  0  0  0  0  0
    7.1177  -12.2344   19.6957 C   0  0  0  0  0  0  0  0  0  0  0  0
    7.3531  -14.6404   20.3835 C   0  0  2  0  0  0  0  0  0  0  0  0
    6.1097  -14.8639   19.6911 N   0  0  0  0  0  0  0  0  0  0  0  0
    7.5695  -15.5382   21.5378 C   0  0  0  0  0  0  0  0  0  0  0  0
    6.6348  -15.5336   22.4072 O   0  0  0  0  0  0  0  0  0  0  0  0
    8.7208  -16.3519   21.6890 N   0  0  0  0  0  0  0  0  0  0  0  0
    9.8245  -16.4424   20.7839 C   0  0  0  0  0  0  0  0  0  0  0  0
   10.7977  -17.4326   21.3542 C   0  0  0  0  0  0  0  0  0  0  0  0
    9.9862  -18.2211   22.3896 C   0  0  0  0  0  0  0  0  0  0  0  0
    8.9474  -17.2250   22.8038 C   0  0  1  0  0  0  0  0  0  0  0  0
    9.3319  -16.4929   24.0364 C   0  0  0  0  0  0  0  0  0  0  0  0
   10.1620  -15.5586   23.9203 O   0  0  0  0  0  0  0  0  0  0  0  0
    8.8200  -16.7877   25.3149 N   0  0  0  0  0  0  0  0  0  0  0  0
    9.3619  -16.0947   26.4787 C   0  0  1  0  0  0  0  0  0  0  0  0
    8.2708  -15.5312   27.3291 C   0  0  0  0  0  0  0  0  0  0  0  0
    7.6878  -14.2992   26.7741 C   0  0  0  0  0  0  0  0  0  0  0  0
    6.4609  -14.2883   26.1458 C   0  0  0  0  0  0  0  0  0  0  0  0
    5.9107  -13.1325   25.6315 C   0  0  0  0  0  0  0  0  0  0  0  0
    6.5627  -11.9383   25.7226 C   0  0  0  0  0  0  0  0  0  0  0  0
    7.7933  -11.9086   26.3443 C   0  0  0  0  0  0  0  0  0  0  0  0
    8.3376  -13.0663   26.8562 C   0  0  0  0  0  0  0  0  0  0  0  0
   10.1554  -17.0653   27.2550 C   0  0  0  0  0  0  0  0  0  0  0  0
   11.0927  -16.7137   28.2319 O   0  0  0  0  0  0  0  0  0  0  0  0
    9.9897  -18.3102   27.0315 O   0  0  0  0  0  0  0  0  0  0  0  0
  2  3  1  6
  2  1  1  0
  4  6  1  0
  4  2  1  0
  4  5  1  1
  6  8  1  0
  7  6  2  0
  8 12  1  0
  8  9  1  0
  9 10  1  0
 10 11  1  0
 12 11  1  0
 12 13  1  1
 14 13  2  0
 15 13  1  0
 16 24  1  0
 16 15  1  0
 16 17  1  1
 18 19  2  0
 18 17  1  0
 20 19  1  0
 21 20  2  0
 22 21  1  0
 22 23  2  0
 23 18  1  0
 24 25  1  0
 26 24  2  0
M  END
$$$$
