VPF.pdb
     RDKit          3D

 26 27  0  0  1  0  0  0  0  0999 V2000
    8.9525  -12.9946   21.5086 C   0  0  0  0  0  0  0  0  0  0  0  0
    7.6216  -13.2036   20.8106 C   0  0  1  0  0  0  0  0  0  0  0  0
    7.4648  -12.1593   19.7383 C   0  0  0  0  0  0  0  0  0  0  0  0
    7.6036  -14.6121   20.2694 C   0  0  2  0  0  0  0  0  0  0  0  0
    6.3702  -14.7859   19.5458 N   0  0  0  0  0  0  0  0  0  0  0  0
    7.8050  -15.5898   21.3599 C   0  0  0  0  0  0  0  0  0  0  0  0
    6.7989  -15.7560   22.1278 O   0  0  0  0  0  0  0  0  0  0  0  0
    9.0158  -16.3006   21.5573 N   0  0  0  0  0  0  0  0  0  0  0  0
   10.1887  -16.2278   20.7421 C   0  0  0  0  0  0  0  0  0  0  0  0
   11.2083  -17.1584   21.3316 C   0  0  0  0  0  0  0  0  0  0  0  0
   10.4018  -18.0857   22.2492 C   0  0  0  0  0  0  0  0  0  0  0  0
    9.2417  -17.2204   22.6342 C   0  0  1  0  0  0  0  0  0  0  0  0
    9.4574  -16.5384   23.9348 C   0  0  0  0  0  0  0  0  0  0  0  0
   10.2118  -15.5352   23.9449 O   0  0  0  0  0  0  0  0  0  0  0  0
    8.8669  -16.9527   25.1443 N   0  0  0  0  0  0  0  0  0  0  0  0
    9.1802  -16.2347   26.3751 C   0  0  1  0  0  0  0  0  0  0  0  0
    7.9376  -15.7667   27.0593 C   0  0  0  0  0  0  0  0  0  0  0  0
    7.4807  -14.4510   26.5840 C   0  0  0  0  0  0  0  0  0  0  0  0
    6.2527  -14.2758   25.9826 C   0  0  0  0  0  0  0  0  0  0  0  0
    5.8209  -13.0415   25.5431 C   0  0  0  0  0  0  0  0  0  0  0  0
    6.5973  -11.9295   25.6853 C   0  0  0  0  0  0  0  0  0  0  0  0
    7.8331  -12.0644   26.2823 C   0  0  0  0  0  0  0  0  0  0  0  0
    8.2589  -13.2999   26.7194 C   0  0  0  0  0  0  0  0  0  0  0  0
    9.9262  -17.1514   27.2569 C   0  0  0  0  0  0  0  0  0  0  0  0
   10.7096  -16.7386   28.3397 O   0  0  0  0  0  0  0  0  0  0  0  0
    9.8653  -18.4050   27.0295 O   0  0  0  0  0  0  0  0  0  0  0  0
  2  3  1  6
  2  1  1  0
  4  6  1  0
  4  2  1  0
  4  5  1  1
  6  8  1  0
  7  6  2  0
  8 12  1  0
  8  9  1  0
  9 10  1  0
 10 11  1  0
 12 11  1  0
 12 13  1  1
 14 13  2  0
 15 13  1  0
 16 24  1  0
 16 15  1  0
 16 17  1  1
 18 19  2  0
 18 17  1  0
 20 19  1  0
 21 20  2  0
 22 21  1  0
 22 23  2  0
 23 18  1  0
 24 25  1  0
 26 24  2  0
M  END
$$$$
