VPF.pdb
     RDKit          3D

 26 27  0  0  1  0  0  0  0  0999 V2000
    8.8844  -12.9032   21.5147 C   0  0  0  0  0  0  0  0  0  0  0  0
    7.5588  -13.2459   20.8610 C   0  0  1  0  0  0  0  0  0  0  0  0
    7.3614  -12.3554   19.6640 C   0  0  0  0  0  0  0  0  0  0  0  0
    7.5876  -14.7125   20.5069 C   0  0  2  0  0  0  0  0  0  0  0  0
    6.3493  -15.0249   19.8403 N   0  0  0  0  0  0  0  0  0  0  0  0
    7.8477  -15.5319   21.7095 C   0  0  0  0  0  0  0  0  0  0  0  0
    6.9131  -15.5253   22.5791 O   0  0  0  0  0  0  0  0  0  0  0  0
    9.0382  -16.2770   21.9040 N   0  0  0  0  0  0  0  0  0  0  0  0
   10.1755  -16.3066   21.0373 C   0  0  0  0  0  0  0  0  0  0  0  0
   11.1843  -17.2369   21.6456 C   0  0  0  0  0  0  0  0  0  0  0  0
   10.3849  -18.0674   22.6573 C   0  0  0  0  0  0  0  0  0  0  0  0
    9.2767  -17.1317   23.0306 C   0  0  1  0  0  0  0  0  0  0  0  0
    9.5760  -16.3741   24.2715 C   0  0  0  0  0  0  0  0  0  0  0  0
   10.3752  -15.4102   24.1834 O   0  0  0  0  0  0  0  0  0  0  0  0
    9.0168  -16.6763   25.5282 N   0  0  0  0  0  0  0  0  0  0  0  0
    9.5886  -16.0746   26.7280 C   0  0  1  0  0  0  0  0  0  0  0  0
    8.5305  -15.4467   27.5749 C   0  0  0  0  0  0  0  0  0  0  0  0
    7.8656  -14.3112   26.9160 C   0  0  0  0  0  0  0  0  0  0  0  0
    8.3923  -13.0376   26.9441 C   0  0  0  0  0  0  0  0  0  0  0  0
    7.7731  -11.9741   26.3207 C   0  0  0  0  0  0  0  0  0  0  0  0
    6.6012  -12.1372   25.6429 C   0  0  0  0  0  0  0  0  0  0  0  0
    6.0425  -13.3971   25.5924 C   0  0  0  0  0  0  0  0  0  0  0  0
    6.6658  -14.4555   26.2169 C   0  0  0  0  0  0  0  0  0  0  0  0
   10.2749  -17.1378   27.4850 C   0  0  0  0  0  0  0  0  0  0  0  0
   11.1557  -16.9054   28.5464 O   0  0  0  0  0  0  0  0  0  0  0  0
   10.0639  -18.3536   27.1618 O   0  0  0  0  0  0  0  0  0  0  0  0
  2  3  1  6
  2  1  1  0
  4  6  1  0
  4  2  1  0
  4  5  1  1
  6  8  1  0
  7  6  2  0
  8 12  1  0
  8  9  1  0
  9 10  1  0
 10 11  1  0
 12 11  1  0
 12 13  1  1
 14 13  2  0
 15 13  1  0
 16 24  1  0
 16 15  1  0
 16 17  1  1
 18 19  2  0
 18 17  1  0
 20 19  1  0
 21 20  2  0
 22 21  1  0
 22 23  2  0
 23 18  1  0
 24 25  1  0
 26 24  2  0
M  END
$$$$
