DEP.pdb
     RDKit          3D

 25 25  0  0  1  0  0  0  0  0999 V2000
    9.7206  -15.0049   19.5020 N   0  0  0  0  0  0  0  0  0  0  0  0
    9.1128  -13.8289   20.0755 C   0  0  1  0  0  0  0  0  0  0  0  0
    8.5190  -13.0061   18.9609 C   0  0  0  0  0  0  0  0  0  0  0  0
    8.0430  -13.9205   17.9083 C   0  0  0  0  0  0  0  0  0  0  0  0
    7.4912  -13.4681   16.8881 O   0  0  0  0  0  0  0  0  0  0  0  0
    8.1525  -14.2157   21.0974 C   0  0  0  0  0  0  0  0  0  0  0  0
    6.9910  -14.6473   20.8666 O   0  0  0  0  0  0  0  0  0  0  0  0
    8.1954  -15.2926   18.0228 O   0  0  0  0  0  0  0  0  0  0  0  0
    8.5385  -14.1048   22.4853 N   0  0  0  0  0  0  0  0  0  0  0  0
    7.6368  -14.6213   23.5065 C   0  0  1  0  0  0  0  0  0  0  0  0
    7.6096  -16.1187   23.3229 C   0  0  0  0  0  0  0  0  0  0  0  0
    8.9670  -16.7638   23.2733 C   0  0  0  0  0  0  0  0  0  0  0  0
    8.7334  -18.2522   23.2641 C   0  0  0  0  0  0  0  0  0  0  0  0
    9.0496  -18.9612   22.3006 O   0  0  0  0  0  0  0  0  0  0  0  0
    8.0668  -14.2141   24.8441 C   0  0  0  0  0  0  0  0  0  0  0  0
    9.1315  -14.8008   25.2532 O   0  0  0  0  0  0  0  0  0  0  0  0
    8.1304  -18.7820   24.4244 O   0  0  0  0  0  0  0  0  0  0  0  0
    7.4733  -13.2839   25.7215 N   0  0  0  0  0  0  0  0  0  0  0  0
    6.3371  -12.4066   25.4641 C   0  0  0  0  0  0  0  0  0  0  0  0
    6.1662  -11.5934   26.7134 C   0  0  0  0  0  0  0  0  0  0  0  0
    6.7443  -12.4809   27.7674 C   0  0  0  0  0  0  0  0  0  0  0  0
    8.0005  -13.0226   27.0624 C   0  0  1  0  0  0  0  0  0  0  0  0
    8.4113  -14.2781   27.7487 C   0  0  0  0  0  0  0  0  0  0  0  0
    7.9920  -15.3491   27.2248 O   0  0  0  0  0  0  0  0  0  0  0  0
    9.1868  -14.3756   28.8647 O   0  0  0  0  0  0  0  0  0  0  0  0
  2  1  1  6
  2  3  1  0
  3  4  1  0
  4  8  1  0
  5  4  2  0
  6  2  1  0
  7  6  2  0
  9  6  1  0
 10 11  1  1
 10  9  1  0
 11 12  1  0
 13 12  1  0
 13 17  1  0
 14 13  2  0
 15 10  1  0
 16 15  2  0
 18 15  1  0
 18 22  1  0
 19 18  1  0
 20 19  1  0
 20 21  1  0
 21 22  1  0
 22 23  1  1
 23 25  1  0
 24 23  2  0
M  END
$$$$
