DEP.pdb
     RDKit          3D

 25 25  0  0  1  0  0  0  0  0999 V2000
    8.8464  -15.6665   20.3512 N   0  0  0  0  0  0  0  0  0  0  0  0
    8.3060  -14.3709   20.6842 C   0  0  1  0  0  0  0  0  0  0  0  0
    7.3948  -13.9317   19.5667 C   0  0  0  0  0  0  0  0  0  0  0  0
    8.1916  -13.8162   18.3329 C   0  0  0  0  0  0  0  0  0  0  0  0
    9.1882  -14.5423   18.1606 O   0  0  0  0  0  0  0  0  0  0  0  0
    7.6579  -14.4239   21.9855 C   0  0  0  0  0  0  0  0  0  0  0  0
    6.9354  -13.5105   22.4671 O   0  0  0  0  0  0  0  0  0  0  0  0
    7.8576  -12.9080   17.3416 O   0  0  0  0  0  0  0  0  0  0  0  0
    7.8432  -15.6016   22.8018 N   0  0  0  0  0  0  0  0  0  0  0  0
    7.2346  -15.6395   24.1249 C   0  0  1  0  0  0  0  0  0  0  0  0
    7.1588  -17.0965   24.5098 C   0  0  0  0  0  0  0  0  0  0  0  0
    6.2125  -17.9122   23.6731 C   0  0  0  0  0  0  0  0  0  0  0  0
    6.3167  -19.3310   24.1693 C   0  0  0  0  0  0  0  0  0  0  0  0
    7.0703  -20.1582   23.6414 O   0  0  0  0  0  0  0  0  0  0  0  0
    7.9954  -14.8322   25.0784 C   0  0  0  0  0  0  0  0  0  0  0  0
    9.2048  -15.2241   25.2487 O   0  0  0  0  0  0  0  0  0  0  0  0
    5.4985  -19.6527   25.2728 O   0  0  0  0  0  0  0  0  0  0  0  0
    7.5788  -13.7072   25.8189 N   0  0  0  0  0  0  0  0  0  0  0  0
    6.4156  -12.8593   25.5841 C   0  0  0  0  0  0  0  0  0  0  0  0
    6.4839  -11.7852   26.6294 C   0  0  0  0  0  0  0  0  0  0  0  0
    7.2485  -12.4440   27.7312 C   0  0  0  0  0  0  0  0  0  0  0  0
    8.3491  -13.1812   26.9477 C   0  0  1  0  0  0  0  0  0  0  0  0
    8.8798  -14.2721   27.8104 C   0  0  0  0  0  0  0  0  0  0  0  0
    9.7654  -13.9276   28.6436 O   0  0  0  0  0  0  0  0  0  0  0  0
    8.5014  -15.5808   27.7871 O   0  0  0  0  0  0  0  0  0  0  0  0
  2  1  1  6
  2  3  1  0
  3  4  1  0
  4  8  1  0
  5  4  2  0
  6  2  1  0
  7  6  2  0
  9  6  1  0
 10 11  1  1
 10  9  1  0
 11 12  1  0
 13 12  1  0
 13 17  1  0
 14 13  2  0
 15 10  1  0
 16 15  2  0
 18 15  1  0
 18 22  1  0
 19 18  1  0
 20 19  1  0
 20 21  1  0
 21 22  1  0
 22 23  1  1
 23 25  1  0
 24 23  2  0
M  END
$$$$
