DEP.pdb
     RDKit          3D

 25 25  0  0  1  0  0  0  0  0999 V2000
    6.5232  -15.9596   19.8671 N   0  0  0  0  0  0  0  0  0  0  0  0
    7.4364  -15.1698   20.6569 C   0  0  1  0  0  0  0  0  0  0  0  0
    7.5663  -13.8101   20.0195 C   0  0  0  0  0  0  0  0  0  0  0  0
    8.5159  -13.9094   18.8975 C   0  0  0  0  0  0  0  0  0  0  0  0
    8.7448  -15.0120   18.3664 O   0  0  0  0  0  0  0  0  0  0  0  0
    6.9888  -15.1308   22.0405 C   0  0  0  0  0  0  0  0  0  0  0  0
    5.8734  -14.6863   22.4235 O   0  0  0  0  0  0  0  0  0  0  0  0
    9.1720  -12.7920   18.4075 O   0  0  0  0  0  0  0  0  0  0  0  0
    7.8727  -15.6339   23.0668 N   0  0  0  0  0  0  0  0  0  0  0  0
    7.3901  -15.6917   24.4401 C   0  0  1  0  0  0  0  0  0  0  0  0
    7.5276  -17.1307   24.8724 C   0  0  0  0  0  0  0  0  0  0  0  0
    6.4450  -18.0400   24.3603 C   0  0  0  0  0  0  0  0  0  0  0  0
    6.7543  -19.4155   24.8917 C   0  0  0  0  0  0  0  0  0  0  0  0
    7.0769  -20.3502   24.1480 O   0  0  0  0  0  0  0  0  0  0  0  0
    8.1255  -14.7616   25.2969 C   0  0  0  0  0  0  0  0  0  0  0  0
    9.3824  -15.0048   25.3762 O   0  0  0  0  0  0  0  0  0  0  0  0
    6.6507  -19.5661   26.2907 O   0  0  0  0  0  0  0  0  0  0  0  0
    7.6409  -13.6603   26.0315 N   0  0  0  0  0  0  0  0  0  0  0  0
    6.3787  -12.9508   25.8566 C   0  0  0  0  0  0  0  0  0  0  0  0
    6.4015  -11.8368   26.8614 C   0  0  0  0  0  0  0  0  0  0  0  0
    7.3078  -12.3682   27.9239 C   0  0  0  0  0  0  0  0  0  0  0  0
    8.4253  -13.0129   27.0849 C   0  0  1  0  0  0  0  0  0  0  0  0
    9.1302  -14.0076   27.9391 C   0  0  0  0  0  0  0  0  0  0  0  0
    8.7186  -15.1987   27.8434 O   0  0  0  0  0  0  0  0  0  0  0  0
   10.1612  -13.7564   28.7937 O   0  0  0  0  0  0  0  0  0  0  0  0
  2  1  1  6
  2  3  1  0
  3  4  1  0
  4  8  1  0
  5  4  2  0
  6  2  1  0
  7  6  2  0
  9  6  1  0
 10 11  1  1
 10  9  1  0
 11 12  1  0
 13 12  1  0
 13 17  1  0
 14 13  2  0
 15 10  1  0
 16 15  2  0
 18 15  1  0
 18 22  1  0
 19 18  1  0
 20 19  1  0
 20 21  1  0
 21 22  1  0
 22 23  1  1
 23 25  1  0
 24 23  2  0
M  END
$$$$
