DEP.pdb
     RDKit          3D

 25 25  0  0  1  0  0  0  0  0999 V2000
    9.2432  -17.0762   20.7904 N   0  0  0  0  0  0  0  0  0  0  0  0
    8.2226  -16.1146   20.4510 C   0  0  1  0  0  0  0  0  0  0  0  0
    7.5046  -16.5957   19.2160 C   0  0  0  0  0  0  0  0  0  0  0  0
    8.4376  -16.5286   18.0778 C   0  0  0  0  0  0  0  0  0  0  0  0
    8.4675  -15.5181   17.3511 O   0  0  0  0  0  0  0  0  0  0  0  0
    7.3480  -15.8964   21.5927 C   0  0  0  0  0  0  0  0  0  0  0  0
    6.1360  -16.2380   21.6462 O   0  0  0  0  0  0  0  0  0  0  0  0
    9.2979  -17.5752   17.7885 O   0  0  0  0  0  0  0  0  0  0  0  0
    7.8887  -15.2418   22.7618 N   0  0  0  0  0  0  0  0  0  0  0  0
    7.0497  -15.1183   23.9463 C   0  0  1  0  0  0  0  0  0  0  0  0
    6.6583  -16.5238   24.3310 C   0  0  0  0  0  0  0  0  0  0  0  0
    7.7843  -17.5190   24.2792 C   0  0  0  0  0  0  0  0  0  0  0  0
    7.5595  -18.4792   25.4183 C   0  0  0  0  0  0  0  0  0  0  0  0
    6.4919  -18.5204   26.0423 O   0  0  0  0  0  0  0  0  0  0  0  0
    7.7479  -14.4035   25.0147 C   0  0  0  0  0  0  0  0  0  0  0  0
    8.9019  -14.8853   25.3000 O   0  0  0  0  0  0  0  0  0  0  0  0
    8.6457  -19.3256   25.7257 O   0  0  0  0  0  0  0  0  0  0  0  0
    7.3239  -13.2814   25.7554 N   0  0  0  0  0  0  0  0  0  0  0  0
    6.1510  -12.4456   25.5251 C   0  0  0  0  0  0  0  0  0  0  0  0
    6.2139  -11.3691   26.5683 C   0  0  0  0  0  0  0  0  0  0  0  0
    6.9908  -12.0182   27.6672 C   0  0  0  0  0  0  0  0  0  0  0  0
    8.0946  -12.7457   26.8793 C   0  0  1  0  0  0  0  0  0  0  0  0
    8.6406  -13.8298   27.7411 C   0  0  0  0  0  0  0  0  0  0  0  0
    8.1535  -14.9796   27.5466 O   0  0  0  0  0  0  0  0  0  0  0  0
    9.6020  -13.6984   28.6976 O   0  0  0  0  0  0  0  0  0  0  0  0
  2  1  1  1
  2  3  1  0
  3  4  1  0
  4  8  1  0
  5  4  2  0
  6  2  1  0
  7  6  2  0
  9  6  1  0
 10 11  1  1
 10  9  1  0
 11 12  1  0
 13 12  1  0
 13 17  1  0
 14 13  2  0
 15 10  1  0
 16 15  2  0
 18 15  1  0
 18 22  1  0
 19 18  1  0
 20 19  1  0
 20 21  1  0
 21 22  1  0
 22 23  1  1
 23 25  1  0
 24 23  2  0
M  END
$$$$
