DEP.pdb
     RDKit          3D

 25 25  0  0  1  0  0  0  0  0999 V2000
    9.2799  -15.2865   20.1744 N   0  0  0  0  0  0  0  0  0  0  0  0
    8.4761  -14.1110   20.4063 C   0  0  1  0  0  0  0  0  0  0  0  0
    7.5606  -13.9176   19.2246 C   0  0  0  0  0  0  0  0  0  0  0  0
    8.3773  -13.9056   17.9985 C   0  0  0  0  0  0  0  0  0  0  0  0
    9.1663  -14.8393   17.7624 O   0  0  0  0  0  0  0  0  0  0  0  0
    7.7791  -14.2302   21.6775 C   0  0  0  0  0  0  0  0  0  0  0  0
    6.8949  -13.4327   22.0907 O   0  0  0  0  0  0  0  0  0  0  0  0
    8.2902  -12.8681   17.0847 O   0  0  0  0  0  0  0  0  0  0  0  0
    8.1095  -15.3372   22.5452 N   0  0  0  0  0  0  0  0  0  0  0  0
    7.4132  -15.4608   23.8189 C   0  0  1  0  0  0  0  0  0  0  0  0
    7.3824  -16.9350   24.1384 C   0  0  0  0  0  0  0  0  0  0  0  0
    6.6928  -17.2770   25.4301 C   0  0  0  0  0  0  0  0  0  0  0  0
    6.7948  -18.7721   25.5870 C   0  0  0  0  0  0  0  0  0  0  0  0
    5.8025  -19.4799   25.7990 O   0  0  0  0  0  0  0  0  0  0  0  0
    8.0656  -14.6616   24.8560 C   0  0  0  0  0  0  0  0  0  0  0  0
    9.2626  -15.0335   25.1283 O   0  0  0  0  0  0  0  0  0  0  0  0
    8.0948  -19.3094   25.4773 O   0  0  0  0  0  0  0  0  0  0  0  0
    7.5584  -13.5632   25.5796 N   0  0  0  0  0  0  0  0  0  0  0  0
    6.3787  -12.7595   25.2803 C   0  0  0  0  0  0  0  0  0  0  0  0
    6.3380  -11.6963   26.3381 C   0  0  0  0  0  0  0  0  0  0  0  0
    7.0585  -12.3373   27.4794 C   0  0  0  0  0  0  0  0  0  0  0  0
    8.2348  -13.0205   26.7596 C   0  0  1  0  0  0  0  0  0  0  0  0
    8.7544  -14.0998   27.6433 C   0  0  0  0  0  0  0  0  0  0  0  0
    8.2227  -15.2359   27.4886 O   0  0  0  0  0  0  0  0  0  0  0  0
    9.7349  -13.9776   28.5815 O   0  0  0  0  0  0  0  0  0  0  0  0
  2  1  1  6
  2  3  1  0
  3  4  1  0
  4  8  1  0
  5  4  2  0
  6  2  1  0
  7  6  2  0
  9  6  1  0
 10 11  1  1
 10  9  1  0
 11 12  1  0
 13 12  1  0
 13 17  1  0
 14 13  2  0
 15 10  1  0
 16 15  2  0
 18 15  1  0
 18 22  1  0
 19 18  1  0
 20 19  1  0
 20 21  1  0
 21 22  1  0
 22 23  1  1
 23 25  1  0
 24 23  2  0
M  END
$$$$
