DEP.pdb
     RDKit          3D

 25 25  0  0  1  0  0  0  0  0999 V2000
    8.7393  -14.2071   18.9706 N   0  0  0  0  0  0  0  0  0  0  0  0
    9.4577  -14.3407   20.2146 C   0  0  1  0  0  0  0  0  0  0  0  0
   10.4771  -13.2336   20.2988 C   0  0  0  0  0  0  0  0  0  0  0  0
   11.7170  -13.6903   19.6471 C   0  0  0  0  0  0  0  0  0  0  0  0
   12.0141  -13.2808   18.5095 O   0  0  0  0  0  0  0  0  0  0  0  0
    8.5212  -14.3642   21.3275 C   0  0  0  0  0  0  0  0  0  0  0  0
    7.4431  -13.7131   21.3744 O   0  0  0  0  0  0  0  0  0  0  0  0
   12.5768  -14.5766   20.2749 O   0  0  0  0  0  0  0  0  0  0  0  0
    8.8307  -15.1882   22.4733 N   0  0  0  0  0  0  0  0  0  0  0  0
    7.8293  -15.3355   23.5211 C   0  0  1  0  0  0  0  0  0  0  0  0
    7.6412  -16.8199   23.7153 C   0  0  0  0  0  0  0  0  0  0  0  0
    6.7254  -17.1873   24.8499 C   0  0  0  0  0  0  0  0  0  0  0  0
    6.7149  -18.6923   24.9213 C   0  0  0  0  0  0  0  0  0  0  0  0
    6.0060  -19.3071   25.7277 O   0  0  0  0  0  0  0  0  0  0  0  0
    8.2392  -14.6435   24.7430 C   0  0  0  0  0  0  0  0  0  0  0  0
    9.4022  -14.9773   25.1689 O   0  0  0  0  0  0  0  0  0  0  0  0
    7.5664  -19.3519   24.0099 O   0  0  0  0  0  0  0  0  0  0  0  0
    7.5354  -13.6820   25.4964 N   0  0  0  0  0  0  0  0  0  0  0  0
    6.2701  -13.0354   25.1675 C   0  0  0  0  0  0  0  0  0  0  0  0
    6.0127  -12.0658   26.2832 C   0  0  0  0  0  0  0  0  0  0  0  0
    6.7517  -12.6764   27.4293 C   0  0  0  0  0  0  0  0  0  0  0  0
    8.0552  -13.1330   26.7504 C   0  0  1  0  0  0  0  0  0  0  0  0
    8.6750  -14.1867   27.5997 C   0  0  0  0  0  0  0  0  0  0  0  0
    9.4381  -13.7701   28.5170 O   0  0  0  0  0  0  0  0  0  0  0  0
    8.4940  -15.5322   27.4835 O   0  0  0  0  0  0  0  0  0  0  0  0
  2  1  1  6
  2  3  1  0
  3  4  1  0
  4  8  1  0
  5  4  2  0
  6  2  1  0
  7  6  2  0
  9  6  1  0
 10 11  1  1
 10  9  1  0
 11 12  1  0
 13 12  1  0
 13 17  1  0
 14 13  2  0
 15 10  1  0
 16 15  2  0
 18 15  1  0
 18 22  1  0
 19 18  1  0
 20 19  1  0
 20 21  1  0
 21 22  1  0
 22 23  1  1
 23 25  1  0
 24 23  2  0
M  END
$$$$
