NCF.pdb
     RDKit          3D

 26 26  0  0  1  0  0  0  0  0999 V2000
   29.2809  -20.0558  -17.2756 N   0  0  0  0  0  0  0  0  0  0  0  0
   27.8877  -19.9444  -17.5253 C   0  0  0  0  0  0  0  0  0  0  0  0
   27.4618  -19.2342  -18.4498 O   0  0  0  0  0  0  0  0  0  0  0  0
   26.9116  -20.6727  -16.6779 C   0  0  0  0  0  0  0  0  0  0  0  0
   27.7280  -21.4977  -15.6668 C   0  0  2  0  0  0  0  0  0  0  0  0
   28.0383  -22.7486  -16.3883 N   0  0  0  0  0  0  0  0  0  0  0  0
   26.8563  -21.8411  -14.5189 C   0  0  0  0  0  0  0  0  0  0  0  0
   25.9159  -22.6867  -14.6686 O   0  0  0  0  0  0  0  0  0  0  0  0
   26.9676  -21.3016  -13.2123 N   0  0  0  0  0  0  0  0  0  0  0  0
   25.9480  -21.4938  -12.2028 C   0  0  1  0  0  0  0  0  0  0  0  0
   26.5894  -21.2173  -10.8517 C   0  0  0  0  0  0  0  0  0  0  0  0
   25.3946  -21.2066   -9.5201 S   0  0  0  0  0  0  0  0  0  0  0  0
   24.7559  -20.6514  -12.4199 C   0  0  0  0  0  0  0  0  0  0  0  0
   24.9634  -19.4209  -12.6602 O   0  0  0  0  0  0  0  0  0  0  0  0
   23.4253  -21.0748  -12.3854 N   0  0  0  0  0  0  0  0  0  0  0  0
   22.2902  -20.2080  -12.6414 C   0  0  1  0  0  0  0  0  0  0  0  0
   22.2970  -19.6577  -14.0388 C   0  0  0  0  0  0  0  0  0  0  0  0
   22.1504  -20.7725  -14.9960 C   0  0  0  0  0  0  0  0  0  0  0  0
   23.1953  -21.4152  -15.6250 C   0  0  0  0  0  0  0  0  0  0  0  0
   23.0281  -22.4412  -16.5074 C   0  0  0  0  0  0  0  0  0  0  0  0
   21.7780  -22.8896  -16.8154 C   0  0  0  0  0  0  0  0  0  0  0  0
   20.6961  -22.2739  -16.2078 C   0  0  0  0  0  0  0  0  0  0  0  0
   20.8891  -21.2401  -15.3194 C   0  0  0  0  0  0  0  0  0  0  0  0
   21.0734  -20.9088  -12.2430 C   0  0  0  0  0  0  0  0  0  0  0  0
   19.9564  -20.2780  -12.2575 O   0  0  0  0  0  0  0  0  0  0  0  0
   20.9663  -22.2261  -11.8353 O   0  0  0  0  0  0  0  0  0  0  0  0
  2  3  2  0
  2  1  1  0
  4  2  1  0
  5  4  1  0
  5  6  1  6
  7  5  1  0
  8  7  2  0
  9  7  1  0
 10  9  1  0
 10 11  1  1
 11 12  1  0
 13 15  1  0
 13 10  1  0
 14 13  2  0
 16 24  1  0
 16 15  1  0
 16 17  1  6
 17 18  1  0
 18 19  2  0
 18 23  1  0
 19 20  1  0
 20 21  2  0
 22 21  1  0
 23 22  2  0
 24 26  1  0
 25 24  2  0
M  END
$$$$
