NCF.pdb
     RDKit          3D

 26 26  0  0  1  0  0  0  0  0999 V2000
   20.1802   -2.8988  -18.5764 N   0  0  0  0  0  0  0  0  0  0  0  0
   18.8144   -3.1759  -18.3051 C   0  0  0  0  0  0  0  0  0  0  0  0
   17.9336   -2.3373  -18.5527 O   0  0  0  0  0  0  0  0  0  0  0  0
   18.4147   -4.4759  -17.7118 C   0  0  0  0  0  0  0  0  0  0  0  0
   19.7114   -5.2613  -17.4452 C   0  0  2  0  0  0  0  0  0  0  0  0
   19.8854   -6.0920  -18.6541 N   0  0  0  0  0  0  0  0  0  0  0  0
   19.4886   -6.1719  -16.2979 C   0  0  0  0  0  0  0  0  0  0  0  0
   18.8138   -7.2399  -16.4588 O   0  0  0  0  0  0  0  0  0  0  0  0
   19.9722   -5.9678  -14.9807 N   0  0  0  0  0  0  0  0  0  0  0  0
   19.7852   -6.9401  -13.9248 C   0  0  1  0  0  0  0  0  0  0  0  0
   21.1621   -7.4515  -13.5296 C   0  0  0  0  0  0  0  0  0  0  0  0
   21.1339   -8.3639  -11.9909 S   0  0  0  0  0  0  0  0  0  0  0  0
   19.0545   -6.3966  -12.7634 C   0  0  0  0  0  0  0  0  0  0  0  0
   19.5571   -5.3736  -12.2016 O   0  0  0  0  0  0  0  0  0  0  0  0
   17.8680   -6.8977  -12.2231 N   0  0  0  0  0  0  0  0  0  0  0  0
   17.2671   -6.4138  -10.9943 C   0  0  1  0  0  0  0  0  0  0  0  0
   15.7671   -6.4808  -11.0284 C   0  0  0  0  0  0  0  0  0  0  0  0
   15.2304   -5.8929   -9.7847 C   0  0  0  0  0  0  0  0  0  0  0  0
   14.8979   -4.5654   -9.6188 C   0  0  0  0  0  0  0  0  0  0  0  0
   14.4062   -4.0507   -8.4557 C   0  0  0  0  0  0  0  0  0  0  0  0
   14.2167   -4.8547   -7.3712 C   0  0  0  0  0  0  0  0  0  0  0  0
   14.5370   -6.1971   -7.4902 C   0  0  0  0  0  0  0  0  0  0  0  0
   15.0315   -6.6946   -8.6749 C   0  0  0  0  0  0  0  0  0  0  0  0
   17.9055   -7.0899   -9.8692 C   0  0  0  0  0  0  0  0  0  0  0  0
   18.0207   -6.4698   -8.7520 O   0  0  0  0  0  0  0  0  0  0  0  0
   18.4237   -8.3721   -9.8530 O   0  0  0  0  0  0  0  0  0  0  0  0
  2  3  2  0
  2  1  1  0
  4  2  1  0
  5  4  1  0
  5  6  1  6
  7  5  1  0
  8  7  2  0
  9  7  1  0
 10  9  1  0
 10 11  1  1
 11 12  1  0
 13 15  1  0
 13 10  1  0
 14 13  2  0
 16 24  1  0
 16 15  1  0
 16 17  1  6
 17 18  1  0
 18 19  2  0
 18 23  1  0
 19 20  1  0
 20 21  2  0
 22 21  1  0
 23 22  2  0
 24 26  1  0
 25 24  2  0
M  END
$$$$
