NCF.pdb
     RDKit          3D

 26 26  0  0  1  0  0  0  0  0999 V2000
   12.7945  -15.0040  -14.0198 N   0  0  0  0  0  0  0  0  0  0  0  0
   14.2043  -14.9200  -14.1658 C   0  0  0  0  0  0  0  0  0  0  0  0
   14.9498  -15.7601  -13.6378 O   0  0  0  0  0  0  0  0  0  0  0  0
   14.8144  -13.8179  -14.9498 C   0  0  0  0  0  0  0  0  0  0  0  0
   13.6656  -12.8871  -15.3781 C   0  0  2  0  0  0  0  0  0  0  0  0
   13.1948  -13.4590  -16.6559 N   0  0  0  0  0  0  0  0  0  0  0  0
   14.2224  -11.5435  -15.6610 C   0  0  0  0  0  0  0  0  0  0  0  0
   14.6685  -11.2746  -16.8231 O   0  0  0  0  0  0  0  0  0  0  0  0
   14.3124  -10.4784  -14.7292 N   0  0  0  0  0  0  0  0  0  0  0  0
   14.8551   -9.1831  -15.0797 C   0  0  1  0  0  0  0  0  0  0  0  0
   13.8460   -8.1338  -14.6388 C   0  0  0  0  0  0  0  0  0  0  0  0
   12.3505   -8.1725  -15.6200 S   0  0  0  0  0  0  0  0  0  0  0  0
   16.1859   -8.9371  -14.4909 C   0  0  0  0  0  0  0  0  0  0  0  0
   16.3405   -9.2673  -13.2736 O   0  0  0  0  0  0  0  0  0  0  0  0
   17.2880   -8.3765  -15.1405 N   0  0  0  0  0  0  0  0  0  0  0  0
   18.5895   -8.1979  -14.5245 C   0  0  1  0  0  0  0  0  0  0  0  0
   19.7095   -8.6492  -15.4174 C   0  0  0  0  0  0  0  0  0  0  0  0
   20.9955   -8.4282  -14.7261 C   0  0  0  0  0  0  0  0  0  0  0  0
   21.6445   -9.3636  -13.9488 C   0  0  0  0  0  0  0  0  0  0  0  0
   22.8314   -9.1289  -13.3198 C   0  0  0  0  0  0  0  0  0  0  0  0
   23.4468   -7.9181  -13.4372 C   0  0  0  0  0  0  0  0  0  0  0  0
   22.8319   -6.9458  -14.2086 C   0  0  0  0  0  0  0  0  0  0  0  0
   21.6338   -7.2056  -14.8349 C   0  0  0  0  0  0  0  0  0  0  0  0
   18.6849   -6.8267  -14.0332 C   0  0  0  0  0  0  0  0  0  0  0  0
   18.1463   -5.8812  -14.7127 O   0  0  0  0  0  0  0  0  0  0  0  0
   19.3084   -6.3982  -12.8754 O   0  0  0  0  0  0  0  0  0  0  0  0
  2  3  2  0
  2  1  1  0
  4  2  1  0
  5  4  1  0
  5  6  1  6
  7  5  1  0
  8  7  2  0
  9  7  1  0
 10  9  1  0
 10 11  1  1
 11 12  1  0
 13 15  1  0
 13 10  1  0
 14 13  2  0
 16 24  1  0
 16 15  1  0
 16 17  1  6
 17 18  1  0
 18 19  2  0
 18 23  1  0
 19 20  1  0
 20 21  2  0
 22 21  1  0
 23 22  2  0
 24 26  1  0
 25 24  2  0
M  END
$$$$
