NCF.pdb
     RDKit          3D

 26 26  0  0  1  0  0  0  0  0999 V2000
   15.3333  -12.6050  -16.4689 N   0  0  0  0  0  0  0  0  0  0  0  0
   15.6071  -11.9235  -15.2538 C   0  0  0  0  0  0  0  0  0  0  0  0
   14.6887  -11.6045  -14.4823 O   0  0  0  0  0  0  0  0  0  0  0  0
   17.0013  -11.5729  -14.8863 C   0  0  0  0  0  0  0  0  0  0  0  0
   17.8968  -12.0253  -16.0537 C   0  0  2  0  0  0  0  0  0  0  0  0
   18.1231  -13.4625  -15.7992 N   0  0  0  0  0  0  0  0  0  0  0  0
   19.2032  -11.3348  -15.9462 C   0  0  0  0  0  0  0  0  0  0  0  0
   19.8540  -11.3775  -14.8523 O   0  0  0  0  0  0  0  0  0  0  0  0
   19.8320  -10.5996  -16.9829 N   0  0  0  0  0  0  0  0  0  0  0  0
   21.0878   -9.9055  -16.7920 C   0  0  1  0  0  0  0  0  0  0  0  0
   21.9373  -10.1558  -18.0286 C   0  0  0  0  0  0  0  0  0  0  0  0
   22.6169  -11.8104  -18.0644 S   0  0  0  0  0  0  0  0  0  0  0  0
   20.9156   -8.4624  -16.5352 C   0  0  0  0  0  0  0  0  0  0  0  0
   20.0389   -7.8603  -17.2306 O   0  0  0  0  0  0  0  0  0  0  0  0
   21.6225   -7.6967  -15.6052 N   0  0  0  0  0  0  0  0  0  0  0  0
   21.4397   -6.2690  -15.4219 C   0  0  1  0  0  0  0  0  0  0  0  0
   22.2103   -5.7421  -14.2455 C   0  0  0  0  0  0  0  0  0  0  0  0
   21.9711   -4.2900  -14.1243 C   0  0  0  0  0  0  0  0  0  0  0  0
   22.7108   -3.3130  -14.7556 C   0  0  0  0  0  0  0  0  0  0  0  0
   22.4672   -1.9780  -14.6221 C   0  0  0  0  0  0  0  0  0  0  0  0
   21.4471   -1.5386  -13.8315 C   0  0  0  0  0  0  0  0  0  0  0  0
   20.6757   -2.4842  -13.1762 C   0  0  0  0  0  0  0  0  0  0  0  0
   20.9399   -3.8270  -13.3267 C   0  0  0  0  0  0  0  0  0  0  0  0
   21.6941   -5.6025  -16.6952 C   0  0  0  0  0  0  0  0  0  0  0  0
   20.8502   -4.7379  -17.1269 O   0  0  0  0  0  0  0  0  0  0  0  0
   22.7787   -5.7915  -17.5324 O   0  0  0  0  0  0  0  0  0  0  0  0
  2  3  2  0
  2  1  1  0
  4  2  1  0
  5  4  1  0
  5  6  1  1
  7  5  1  0
  8  7  2  0
  9  7  1  0
 10  9  1  0
 10 11  1  6
 11 12  1  0
 13 15  1  0
 13 10  1  0
 14 13  2  0
 16 24  1  0
 16 15  1  0
 16 17  1  1
 17 18  1  0
 18 19  2  0
 18 23  1  0
 19 20  1  0
 20 21  2  0
 22 21  1  0
 23 22  2  0
 24 26  1  0
 25 24  2  0
M  END
$$$$
