NCF.pdb
     RDKit          3D

 26 26  0  0  1  0  0  0  0  0999 V2000
   15.5533  -15.2937  -16.0372 N   0  0  0  0  0  0  0  0  0  0  0  0
   16.9031  -15.2517  -15.5988 C   0  0  0  0  0  0  0  0  0  0  0  0
   17.3711  -16.1585  -14.8923 O   0  0  0  0  0  0  0  0  0  0  0  0
   17.7801  -14.1150  -15.9734 C   0  0  0  0  0  0  0  0  0  0  0  0
   16.8881  -13.0782  -16.6796 C   0  0  2  0  0  0  0  0  0  0  0  0
   16.6816  -13.6396  -18.0301 N   0  0  0  0  0  0  0  0  0  0  0  0
   17.6499  -11.8158  -16.8253 C   0  0  0  0  0  0  0  0  0  0  0  0
   18.4699  -11.6788  -17.7900 O   0  0  0  0  0  0  0  0  0  0  0  0
   17.5544  -10.6942  -15.9631 N   0  0  0  0  0  0  0  0  0  0  0  0
   18.2838   -9.4667  -16.2012 C   0  0  1  0  0  0  0  0  0  0  0  0
   17.4840   -8.3347  -15.5747 C   0  0  0  0  0  0  0  0  0  0  0  0
   15.8309   -8.2148  -16.2482 S   0  0  0  0  0  0  0  0  0  0  0  0
   19.6649   -9.5069  -15.6825 C   0  0  0  0  0  0  0  0  0  0  0  0
   19.8245  -10.0048  -14.5243 O   0  0  0  0  0  0  0  0  0  0  0  0
   20.8098   -9.0503  -16.3394 N   0  0  0  0  0  0  0  0  0  0  0  0
   22.1574   -9.2027  -15.8236 C   0  0  1  0  0  0  0  0  0  0  0  0
   23.0392   -9.9841  -16.7550 C   0  0  0  0  0  0  0  0  0  0  0  0
   24.3961  -10.0658  -16.1782 C   0  0  0  0  0  0  0  0  0  0  0  0
   24.7832  -10.9501  -15.1940 C   0  0  0  0  0  0  0  0  0  0  0  0
   26.0447  -11.0000  -14.6787 C   0  0  0  0  0  0  0  0  0  0  0  0
   27.0087  -10.1484  -15.1304 C   0  0  0  0  0  0  0  0  0  0  0  0
   26.6664   -9.2412  -16.1196 C   0  0  0  0  0  0  0  0  0  0  0  0
   25.3863   -9.2095  -16.6254 C   0  0  0  0  0  0  0  0  0  0  0  0
   22.6558   -7.8871  -15.4348 C   0  0  0  0  0  0  0  0  0  0  0  0
   22.4032   -6.8771  -16.1845 O   0  0  0  0  0  0  0  0  0  0  0  0
   23.3974   -7.5765  -14.3094 O   0  0  0  0  0  0  0  0  0  0  0  0
  2  3  2  0
  2  1  1  0
  4  2  1  0
  5  4  1  0
  5  6  1  6
  7  5  1  0
  8  7  2  0
  9  7  1  0
 10  9  1  0
 10 11  1  1
 11 12  1  0
 13 15  1  0
 13 10  1  0
 14 13  2  0
 16 24  1  0
 16 15  1  0
 16 17  1  6
 17 18  1  0
 18 19  2  0
 18 23  1  0
 19 20  1  0
 20 21  2  0
 22 21  1  0
 23 22  2  0
 24 26  1  0
 25 24  2  0
M  END
$$$$
