NCF.pdb
     RDKit          3D

 26 26  0  0  1  0  0  0  0  0999 V2000
   27.4028  -21.7608  -17.2332 N   0  0  0  0  0  0  0  0  0  0  0  0
   26.3874  -20.7833  -17.4035 C   0  0  0  0  0  0  0  0  0  0  0  0
   26.1424  -20.3090  -18.5240 O   0  0  0  0  0  0  0  0  0  0  0  0
   25.6022  -20.3043  -16.2392 C   0  0  0  0  0  0  0  0  0  0  0  0
   26.1115  -21.0780  -15.0099 C   0  0  2  0  0  0  0  0  0  0  0  0
   25.3456  -22.3407  -15.0352 N   0  0  0  0  0  0  0  0  0  0  0  0
   25.7232  -20.3370  -13.7870 C   0  0  0  0  0  0  0  0  0  0  0  0
   25.0384  -19.2677  -13.8851 O   0  0  0  0  0  0  0  0  0  0  0  0
   26.0493  -20.7137  -12.4595 N   0  0  0  0  0  0  0  0  0  0  0  0
   25.2088  -20.3814  -11.3288 C   0  0  1  0  0  0  0  0  0  0  0  0
   23.8892  -21.1149  -11.5130 C   0  0  0  0  0  0  0  0  0  0  0  0
   22.8240  -20.9701  -10.0829 S   0  0  0  0  0  0  0  0  0  0  0  0
   25.8332  -20.7058  -10.0314 C   0  0  0  0  0  0  0  0  0  0  0  0
   26.1607  -21.9192   -9.8439 O   0  0  0  0  0  0  0  0  0  0  0  0
   26.0966  -19.8103   -8.9923 N   0  0  0  0  0  0  0  0  0  0  0  0
   26.8328  -20.1548   -7.7903 C   0  0  1  0  0  0  0  0  0  0  0  0
   27.6262  -18.9968   -7.2564 C   0  0  0  0  0  0  0  0  0  0  0  0
   28.2617  -19.3944   -5.9842 C   0  0  0  0  0  0  0  0  0  0  0  0
   29.2463  -20.3511   -5.8591 C   0  0  0  0  0  0  0  0  0  0  0  0
   29.8130  -20.6990   -4.6686 C   0  0  0  0  0  0  0  0  0  0  0  0
   29.4158  -20.0950   -3.5128 C   0  0  0  0  0  0  0  0  0  0  0  0
   28.4282  -19.1267   -3.5887 C   0  0  0  0  0  0  0  0  0  0  0  0
   27.8709  -18.7912   -4.8021 C   0  0  0  0  0  0  0  0  0  0  0  0
   25.9115  -20.7798   -6.8464 C   0  0  0  0  0  0  0  0  0  0  0  0
   26.3863  -21.4670   -5.8726 O   0  0  0  0  0  0  0  0  0  0  0  0
   24.5298  -20.7213   -6.8680 O   0  0  0  0  0  0  0  0  0  0  0  0
  2  3  2  0
  2  1  1  0
  4  2  1  0
  5  4  1  0
  5  6  1  1
  7  5  1  0
  8  7  2  0
  9  7  1  0
 10  9  1  0
 10 11  1  6
 11 12  1  0
 13 15  1  0
 13 10  1  0
 14 13  2  0
 16 24  1  0
 16 15  1  0
 16 17  1  1
 17 18  1  0
 18 19  2  0
 18 23  1  0
 19 20  1  0
 20 21  2  0
 22 21  1  0
 23 22  2  0
 24 26  1  0
 25 24  2  0
M  END
$$$$
