NCF.pdb
     RDKit          3D

 26 26  0  0  1  0  0  0  0  0999 V2000
   22.8517  -16.5589  -16.4653 N   0  0  0  0  0  0  0  0  0  0  0  0
   21.8942  -15.5601  -16.1471 C   0  0  0  0  0  0  0  0  0  0  0  0
   21.0583  -15.7435  -15.2480 O   0  0  0  0  0  0  0  0  0  0  0  0
   21.8710  -14.2767  -16.8912 C   0  0  0  0  0  0  0  0  0  0  0  0
   20.4753  -14.1568  -17.5291 C   0  0  2  0  0  0  0  0  0  0  0  0
   20.5574  -15.0008  -18.7385 N   0  0  0  0  0  0  0  0  0  0  0  0
   20.2712  -12.7562  -17.9670 C   0  0  0  0  0  0  0  0  0  0  0  0
   20.0074  -12.5063  -19.1876 O   0  0  0  0  0  0  0  0  0  0  0  0
   20.3412  -11.6146  -17.1289 N   0  0  0  0  0  0  0  0  0  0  0  0
   20.0149  -10.2847  -17.5982 C   0  0  1  0  0  0  0  0  0  0  0  0
   18.5756  -10.3171  -18.0891 C   0  0  0  0  0  0  0  0  0  0  0  0
   17.9485   -8.6849  -18.4681 S   0  0  0  0  0  0  0  0  0  0  0  0
   20.2139   -9.2454  -16.5695 C   0  0  0  0  0  0  0  0  0  0  0  0
   19.5801   -9.3946  -15.4783 O   0  0  0  0  0  0  0  0  0  0  0  0
   21.0284   -8.1160  -16.6801 N   0  0  0  0  0  0  0  0  0  0  0  0
   21.2731   -7.1819  -15.5972 C   0  0  1  0  0  0  0  0  0  0  0  0
   22.7292   -7.0908  -15.2412 C   0  0  0  0  0  0  0  0  0  0  0  0
   23.2442   -8.4476  -14.9687 C   0  0  0  0  0  0  0  0  0  0  0  0
   24.2000   -9.0950  -15.7221 C   0  0  0  0  0  0  0  0  0  0  0  0
   24.6542  -10.3509  -15.4468 C   0  0  0  0  0  0  0  0  0  0  0  0
   24.1653  -11.0426  -14.3786 C   0  0  0  0  0  0  0  0  0  0  0  0
   23.2023  -10.4325  -13.5917 C   0  0  0  0  0  0  0  0  0  0  0  0
   22.7593   -9.1633  -13.8886 C   0  0  0  0  0  0  0  0  0  0  0  0
   20.6200   -5.9171  -15.9203 C   0  0  0  0  0  0  0  0  0  0  0  0
   20.5913   -4.9861  -15.0382 O   0  0  0  0  0  0  0  0  0  0  0  0
   20.0022   -5.5789  -17.1107 O   0  0  0  0  0  0  0  0  0  0  0  0
  2  3  2  0
  2  1  1  0
  4  2  1  0
  5  4  1  0
  5  6  1  6
  7  5  1  0
  8  7  2  0
  9  7  1  0
 10  9  1  0
 10 11  1  1
 11 12  1  0
 13 15  1  0
 13 10  1  0
 14 13  2  0
 16 24  1  0
 16 15  1  0
 16 17  1  6
 17 18  1  0
 18 19  2  0
 18 23  1  0
 19 20  1  0
 20 21  2  0
 22 21  1  0
 23 22  2  0
 24 26  1  0
 25 24  2  0
M  END
$$$$
