NCF.pdb
     RDKit          3D

 26 26  0  0  1  0  0  0  0  0999 V2000
   28.3022  -23.2625  -16.2331 N   0  0  0  0  0  0  0  0  0  0  0  0
   27.5330  -22.2531  -16.8697 C   0  0  0  0  0  0  0  0  0  0  0  0
   27.6708  -22.0166  -18.0803 O   0  0  0  0  0  0  0  0  0  0  0  0
   26.5514  -21.4549  -16.0944 C   0  0  0  0  0  0  0  0  0  0  0  0
   25.9576  -20.4164  -17.0631 C   0  0  2  0  0  0  0  0  0  0  0  0
   27.0611  -19.4611  -17.2893 N   0  0  0  0  0  0  0  0  0  0  0  0
   24.8653  -19.6917  -16.3725 C   0  0  0  0  0  0  0  0  0  0  0  0
   24.8739  -19.5942  -15.1027 O   0  0  0  0  0  0  0  0  0  0  0  0
   23.7630  -19.0666  -17.0087 N   0  0  0  0  0  0  0  0  0  0  0  0
   22.7113  -18.4037  -16.2672 C   0  0  1  0  0  0  0  0  0  0  0  0
   22.6170  -16.9782  -16.7893 C   0  0  0  0  0  0  0  0  0  0  0  0
   21.2703  -16.0672  -16.0429 S   0  0  0  0  0  0  0  0  0  0  0  0
   21.4141  -19.1015  -16.3578 C   0  0  0  0  0  0  0  0  0  0  0  0
   21.0724  -19.5228  -17.5069 O   0  0  0  0  0  0  0  0  0  0  0  0
   20.5276  -19.3415  -15.3054 N   0  0  0  0  0  0  0  0  0  0  0  0
   19.2412  -19.9947  -15.4599 C   0  0  1  0  0  0  0  0  0  0  0  0
   19.2294  -21.3766  -14.8721 C   0  0  0  0  0  0  0  0  0  0  0  0
   17.9052  -21.9874  -15.1045 C   0  0  0  0  0  0  0  0  0  0  0  0
   16.8911  -22.0512  -14.1728 C   0  0  0  0  0  0  0  0  0  0  0  0
   15.6782  -22.6249  -14.4162 C   0  0  0  0  0  0  0  0  0  0  0  0
   15.4085  -23.1784  -15.6325 C   0  0  0  0  0  0  0  0  0  0  0  0
   16.3977  -23.1383  -16.6013 C   0  0  0  0  0  0  0  0  0  0  0  0
   17.6147  -22.5531  -16.3331 C   0  0  0  0  0  0  0  0  0  0  0  0
   18.2023  -19.0915  -14.9749 C   0  0  0  0  0  0  0  0  0  0  0  0
   18.4764  -18.2800  -14.0198 O   0  0  0  0  0  0  0  0  0  0  0  0
   16.9019  -18.9935  -15.4359 O   0  0  0  0  0  0  0  0  0  0  0  0
  2  3  2  0
  2  1  1  0
  4  2  1  0
  5  4  1  0
  5  6  1  1
  7  5  1  0
  8  7  2  0
  9  7  1  0
 10  9  1  0
 10 11  1  6
 11 12  1  0
 13 15  1  0
 13 10  1  0
 14 13  2  0
 16 24  1  0
 16 15  1  0
 16 17  1  1
 17 18  1  0
 18 19  2  0
 18 23  1  0
 19 20  1  0
 20 21  2  0
 22 21  1  0
 23 22  2  0
 24 26  1  0
 25 24  2  0
M  END
$$$$
