MKP.pdb
     RDKit          3D

 25 25  0  0  1  0  0  0  0  0999 V2000
   17.3531  -18.6859  -10.9031 C   0  0  0  0  0  0  0  0  0  0  0  0
   17.1833  -18.0284  -12.5653 S   0  0  0  0  0  0  0  0  0  0  0  0
   17.7493  -19.2103  -13.8182 C   0  0  0  0  0  0  0  0  0  0  0  0
   18.9366  -20.0135  -13.3112 C   0  0  0  0  0  0  0  0  0  0  0  0
   19.4700  -20.8357  -14.4813 C   0  0  2  0  0  0  0  0  0  0  0  0
   18.5286  -21.9159  -14.6843 N   0  0  0  0  0  0  0  0  0  0  0  0
   20.7621  -21.4083  -14.0441 C   0  0  0  0  0  0  0  0  0  0  0  0
   20.8316  -21.9746  -12.9309 O   0  0  0  0  0  0  0  0  0  0  0  0
   21.9384  -21.3445  -14.8353 N   0  0  0  0  0  0  0  0  0  0  0  0
   23.2295  -21.9075  -14.3631 C   0  0  1  0  0  0  0  0  0  0  0  0
   23.6742  -22.7663  -15.5409 C   0  0  0  0  0  0  0  0  0  0  0  0
   24.9818  -23.4297  -15.3250 C   0  0  0  0  0  0  0  0  0  0  0  0
   25.4802  -24.1093  -16.6097 C   0  0  0  0  0  0  0  0  0  0  0  0
   26.8478  -24.7048  -16.3917 C   0  0  0  0  0  0  0  0  0  0  0  0
   27.2640  -25.3710  -17.6000 N   0  0  0  0  0  0  0  0  0  0  0  0
   24.1840  -20.8086  -14.1064 C   0  0  0  0  0  0  0  0  0  0  0  0
   24.1740  -19.8788  -14.9584 O   0  0  0  0  0  0  0  0  0  0  0  0
   25.0551  -20.7523  -13.0127 N   0  0  0  0  0  0  0  0  0  0  0  0
   24.6041  -21.1205  -11.6479 C   0  0  0  0  0  0  0  0  0  0  0  0
   25.7682  -21.9245  -11.1478 C   0  0  0  0  0  0  0  0  0  0  0  0
   26.9536  -21.5158  -12.0007 C   0  0  0  0  0  0  0  0  0  0  0  0
   26.3834  -20.3071  -12.7821 C   0  0  1  0  0  0  0  0  0  0  0  0
   27.2328  -19.9939  -13.9122 C   0  0  0  0  0  0  0  0  0  0  0  0
   27.2225  -20.4494  -15.0614 O   0  0  0  0  0  0  0  0  0  0  0  0
   28.2307  -19.0148  -13.6668 O   0  0  0  0  0  0  0  0  0  0  0  0
  1  2  1  0
  3  2  1  0
  4  5  1  0
  4  3  1  0
  5  6  1  1
  7  5  1  0
  7  8  2  0
  9  7  1  0
 10  9  1  0
 10 11  1  6
 11 12  1  0
 13 12  1  0
 14 13  1  0
 14 15  1  0
 16 10  1  0
 17 16  2  0
 18 16  1  0
 18 22  1  0
 19 18  1  0
 20 19  1  0
 20 21  1  0
 21 22  1  0
 22 23  1  6
 23 24  2  0
 23 25  1  0
M  END
$$$$
