MKP.pdb
     RDKit          3D

 25 25  0  0  1  0  0  0  0  0999 V2000
   21.4829  -15.9909  -22.1003 C   0  0  0  0  0  0  0  0  0  0  0  0
   19.8448  -15.3732  -21.7018 S   0  0  0  0  0  0  0  0  0  0  0  0
   19.2911  -15.9366  -20.0699 C   0  0  0  0  0  0  0  0  0  0  0  0
   20.4766  -16.2792  -19.1817 C   0  0  0  0  0  0  0  0  0  0  0  0
   19.9248  -16.8067  -17.8600 C   0  0  2  0  0  0  0  0  0  0  0  0
   19.0200  -15.7933  -17.3615 N   0  0  0  0  0  0  0  0  0  0  0  0
   21.0729  -16.9150  -16.9333 C   0  0  0  0  0  0  0  0  0  0  0  0
   21.4503  -15.8983  -16.3099 O   0  0  0  0  0  0  0  0  0  0  0  0
   21.7738  -18.1297  -16.7162 N   0  0  0  0  0  0  0  0  0  0  0  0
   22.8993  -18.2210  -15.7510 C   0  0  1  0  0  0  0  0  0  0  0  0
   22.6254  -19.5389  -15.0366 C   0  0  0  0  0  0  0  0  0  0  0  0
   21.3472  -19.5472  -14.2865 C   0  0  0  0  0  0  0  0  0  0  0  0
   21.0290  -20.9490  -13.7441 C   0  0  0  0  0  0  0  0  0  0  0  0
   19.6700  -20.9634  -13.0919 C   0  0  0  0  0  0  0  0  0  0  0  0
   19.4579  -22.2533  -12.4851 N   0  0  0  0  0  0  0  0  0  0  0  0
   24.1803  -18.2629  -16.4873 C   0  0  0  0  0  0  0  0  0  0  0  0
   24.2803  -19.1884  -17.3383 O   0  0  0  0  0  0  0  0  0  0  0  0
   25.2362  -17.3649  -16.2960 N   0  0  0  0  0  0  0  0  0  0  0  0
   25.0149  -16.0348  -15.6766 C   0  0  0  0  0  0  0  0  0  0  0  0
   26.1922  -15.9283  -14.7523 C   0  0  0  0  0  0  0  0  0  0  0  0
   27.2293  -16.8977  -15.2856 C   0  0  0  0  0  0  0  0  0  0  0  0
   26.6117  -17.3111  -16.6436 C   0  0  1  0  0  0  0  0  0  0  0  0
   27.2626  -18.5015  -17.1496 C   0  0  0  0  0  0  0  0  0  0  0  0
   26.9743  -19.6925  -16.9861 O   0  0  0  0  0  0  0  0  0  0  0  0
   28.4068  -18.2695  -17.9569 O   0  0  0  0  0  0  0  0  0  0  0  0
  1  2  1  0
  3  2  1  0
  4  5  1  0
  4  3  1  0
  5  6  1  1
  7  5  1  0
  7  8  2  0
  9  7  1  0
 10  9  1  0
 10 11  1  6
 11 12  1  0
 13 12  1  0
 14 13  1  0
 14 15  1  0
 16 10  1  0
 17 16  2  0
 18 16  1  0
 18 22  1  0
 19 18  1  0
 20 19  1  0
 20 21  1  0
 21 22  1  0
 22 23  1  1
 23 24  2  0
 23 25  1  0
M  END
$$$$
