MKP.pdb
     RDKit          3D

 25 25  0  0  1  0  0  0  0  0999 V2000
   27.8287  -14.9587  -16.2140 C   0  0  0  0  0  0  0  0  0  0  0  0
   28.1948  -16.6841  -15.8782 S   0  0  0  0  0  0  0  0  0  0  0  0
   26.6855  -17.6803  -15.7497 C   0  0  0  0  0  0  0  0  0  0  0  0
   25.4468  -16.8003  -15.8028 C   0  0  0  0  0  0  0  0  0  0  0  0
   24.2304  -17.7202  -15.8640 C   0  0  2  0  0  0  0  0  0  0  0  0
   24.6586  -18.9184  -16.5532 N   0  0  0  0  0  0  0  0  0  0  0  0
   23.2182  -17.0312  -16.6944 C   0  0  0  0  0  0  0  0  0  0  0  0
   23.3591  -17.0147  -17.9372 O   0  0  0  0  0  0  0  0  0  0  0  0
   22.0838  -16.3814  -16.1424 N   0  0  0  0  0  0  0  0  0  0  0  0
   21.0284  -15.7866  -17.0020 C   0  0  1  0  0  0  0  0  0  0  0  0
   19.7439  -16.3114  -16.3716 C   0  0  0  0  0  0  0  0  0  0  0  0
   19.5386  -17.7646  -16.5772 C   0  0  0  0  0  0  0  0  0  0  0  0
   19.0472  -18.4450  -15.2903 C   0  0  0  0  0  0  0  0  0  0  0  0
   18.8839  -19.9275  -15.5098 C   0  0  0  0  0  0  0  0  0  0  0  0
   18.6368  -20.5622  -14.2398 N   0  0  0  0  0  0  0  0  0  0  0  0
   21.1023  -14.3122  -16.9274 C   0  0  0  0  0  0  0  0  0  0  0  0
   21.1654  -13.8362  -15.7612 O   0  0  0  0  0  0  0  0  0  0  0  0
   21.1083  -13.4600  -18.0373 N   0  0  0  0  0  0  0  0  0  0  0  0
   21.5181  -13.9438  -19.3788 C   0  0  0  0  0  0  0  0  0  0  0  0
   20.4848  -13.3078  -20.2618 C   0  0  0  0  0  0  0  0  0  0  0  0
   19.9294  -12.1361  -19.4756 C   0  0  0  0  0  0  0  0  0  0  0  0
   20.8955  -12.0753  -18.2674 C   0  0  1  0  0  0  0  0  0  0  0  0
   20.3302  -11.2596  -17.2130 C   0  0  0  0  0  0  0  0  0  0  0  0
   19.4981  -11.5502  -16.3462 O   0  0  0  0  0  0  0  0  0  0  0  0
   20.8010   -9.9214  -17.1642 O   0  0  0  0  0  0  0  0  0  0  0  0
  1  2  1  0
  3  2  1  0
  4  5  1  0
  4  3  1  0
  5  6  1  6
  7  5  1  0
  7  8  2  0
  9  7  1  0
 10  9  1  0
 10 11  1  1
 11 12  1  0
 13 12  1  0
 14 13  1  0
 14 15  1  0
 16 10  1  0
 17 16  2  0
 18 16  1  0
 18 22  1  0
 19 18  1  0
 20 19  1  0
 20 21  1  0
 21 22  1  0
 22 23  1  1
 23 24  2  0
 23 25  1  0
M  END
$$$$
