MKP.pdb
     RDKit          3D

 25 25  0  0  1  0  0  0  0  0999 V2000
   17.7065  -20.1598  -15.8648 C   0  0  0  0  0  0  0  0  0  0  0  0
   19.0780  -21.1051  -16.5351 S   0  0  0  0  0  0  0  0  0  0  0  0
   20.6655  -20.2714  -16.2670 C   0  0  0  0  0  0  0  0  0  0  0  0
   20.7527  -19.7078  -14.8576 C   0  0  0  0  0  0  0  0  0  0  0  0
   21.5723  -20.6859  -14.0201 C   0  0  2  0  0  0  0  0  0  0  0  0
   20.9415  -20.7377  -12.7188 N   0  0  0  0  0  0  0  0  0  0  0  0
   22.9193  -20.0926  -13.8712 C   0  0  0  0  0  0  0  0  0  0  0  0
   23.0350  -18.9751  -13.3211 O   0  0  0  0  0  0  0  0  0  0  0  0
   24.0982  -20.7372  -14.3278 N   0  0  0  0  0  0  0  0  0  0  0  0
   25.4483  -20.1794  -14.0587 C   0  0  1  0  0  0  0  0  0  0  0  0
   26.1888  -21.3651  -13.4518 C   0  0  0  0  0  0  0  0  0  0  0  0
   25.6563  -21.7783  -12.1319 C   0  0  0  0  0  0  0  0  0  0  0  0
   25.8359  -20.6669  -11.0863 C   0  0  0  0  0  0  0  0  0  0  0  0
   25.3995  -21.1500   -9.7266 C   0  0  0  0  0  0  0  0  0  0  0  0
   25.5655  -20.0794   -8.7763 N   0  0  0  0  0  0  0  0  0  0  0  0
   26.0685  -19.7498  -15.3298 C   0  0  0  0  0  0  0  0  0  0  0  0
   26.2291  -20.6633  -16.1844 O   0  0  0  0  0  0  0  0  0  0  0  0
   26.4643  -18.4388  -15.6174 N   0  0  0  0  0  0  0  0  0  0  0  0
   26.0195  -17.2976  -14.7798 C   0  0  0  0  0  0  0  0  0  0  0  0
   27.2826  -16.4964  -14.6593 C   0  0  0  0  0  0  0  0  0  0  0  0
   28.1584  -16.9223  -15.8217 C   0  0  0  0  0  0  0  0  0  0  0  0
   27.1838  -17.7897  -16.6550 C   0  0  1  0  0  0  0  0  0  0  0  0
   27.9172  -18.5869  -17.6158 C   0  0  0  0  0  0  0  0  0  0  0  0
   28.0924  -18.4062  -18.8261 O   0  0  0  0  0  0  0  0  0  0  0  0
   28.5300  -19.7550  -17.0916 O   0  0  0  0  0  0  0  0  0  0  0  0
  1  2  1  0
  3  2  1  0
  4  5  1  0
  4  3  1  0
  5  6  1  1
  7  5  1  0
  7  8  2  0
  9  7  1  0
 10  9  1  0
 10 11  1  6
 11 12  1  0
 13 12  1  0
 14 13  1  0
 14 15  1  0
 16 10  1  0
 17 16  2  0
 18 16  1  0
 18 22  1  0
 19 18  1  0
 20 19  1  0
 20 21  1  0
 21 22  1  0
 22 23  1  6
 23 24  2  0
 23 25  1  0
M  END
$$$$
