MKP.pdb
     RDKit          3D

 25 25  0  0  1  0  0  0  0  0999 V2000
   27.4286  -18.2868   -8.2789 C   0  0  0  0  0  0  0  0  0  0  0  0
   26.8245  -19.7781   -7.4821 S   0  0  0  0  0  0  0  0  0  0  0  0
   26.8387  -21.1974   -8.6101 C   0  0  0  0  0  0  0  0  0  0  0  0
   27.0123  -20.7451  -10.0513 C   0  0  0  0  0  0  0  0  0  0  0  0
   25.7894  -21.2175  -10.8329 C   0  0  2  0  0  0  0  0  0  0  0  0
   25.7176  -22.6514  -10.6518 N   0  0  0  0  0  0  0  0  0  0  0  0
   26.0606  -20.9324  -12.2590 C   0  0  0  0  0  0  0  0  0  0  0  0
   27.1750  -21.2359  -12.7394 O   0  0  0  0  0  0  0  0  0  0  0  0
   25.1072  -20.3243  -13.1165 N   0  0  0  0  0  0  0  0  0  0  0  0
   25.2896  -20.2923  -14.5903 C   0  0  1  0  0  0  0  0  0  0  0  0
   23.8700  -20.4836  -15.1105 C   0  0  0  0  0  0  0  0  0  0  0  0
   23.6346  -21.8229  -15.6998 C   0  0  0  0  0  0  0  0  0  0  0  0
   23.7179  -22.9237  -14.6313 C   0  0  0  0  0  0  0  0  0  0  0  0
   23.4125  -24.2691  -15.2390 C   0  0  0  0  0  0  0  0  0  0  0  0
   23.5687  -25.2837  -14.2274 N   0  0  0  0  0  0  0  0  0  0  0  0
   25.8390  -18.9803  -14.9924 C   0  0  0  0  0  0  0  0  0  0  0  0
   25.1927  -17.9787  -14.5806 O   0  0  0  0  0  0  0  0  0  0  0  0
   26.9897  -18.8053  -15.7692 N   0  0  0  0  0  0  0  0  0  0  0  0
   28.2285  -19.5752  -15.4968 C   0  0  0  0  0  0  0  0  0  0  0  0
   28.6672  -19.9486  -16.8824 C   0  0  0  0  0  0  0  0  0  0  0  0
   27.9948  -18.9581  -17.8131 C   0  0  0  0  0  0  0  0  0  0  0  0
   27.3979  -17.9362  -16.8150 C   0  0  1  0  0  0  0  0  0  0  0  0
   26.4106  -17.1077  -17.4749 C   0  0  0  0  0  0  0  0  0  0  0  0
   25.2432  -17.3648  -17.7897 O   0  0  0  0  0  0  0  0  0  0  0  0
   26.8462  -15.7999  -17.8135 O   0  0  0  0  0  0  0  0  0  0  0  0
  1  2  1  0
  3  2  1  0
  4  5  1  0
  4  3  1  0
  5  6  1  6
  7  5  1  0
  7  8  2  0
  9  7  1  0
 10  9  1  0
 10 11  1  6
 11 12  1  0
 13 12  1  0
 14 13  1  0
 14 15  1  0
 16 10  1  0
 17 16  2  0
 18 16  1  0
 18 22  1  0
 19 18  1  0
 20 19  1  0
 20 21  1  0
 21 22  1  0
 22 23  1  6
 23 24  2  0
 23 25  1  0
M  END
$$$$
