MKP.pdb
     RDKit          3D

 25 25  0  0  1  0  0  0  0  0999 V2000
   29.0641  -19.5012   -4.8024 C   0  0  0  0  0  0  0  0  0  0  0  0
   27.3738  -20.0353   -5.0873 S   0  0  0  0  0  0  0  0  0  0  0  0
   26.8140  -19.6333   -6.7643 C   0  0  0  0  0  0  0  0  0  0  0  0
   27.6522  -20.3575   -7.8057 C   0  0  0  0  0  0  0  0  0  0  0  0
   27.2274  -19.8425   -9.1783 C   0  0  2  0  0  0  0  0  0  0  0  0
   26.4754  -18.6285   -8.9444 N   0  0  0  0  0  0  0  0  0  0  0  0
   26.3194  -20.8601   -9.7516 C   0  0  0  0  0  0  0  0  0  0  0  0
   26.7084  -22.0462   -9.8335 O   0  0  0  0  0  0  0  0  0  0  0  0
   25.0152  -20.5515  -10.2180 N   0  0  0  0  0  0  0  0  0  0  0  0
   24.5445  -20.9765  -11.5613 C   0  0  1  0  0  0  0  0  0  0  0  0
   23.0406  -20.7430  -11.4815 C   0  0  0  0  0  0  0  0  0  0  0  0
   22.3341  -21.0177  -12.7551 C   0  0  0  0  0  0  0  0  0  0  0  0
   20.9087  -21.5320  -12.5013 C   0  0  0  0  0  0  0  0  0  0  0  0
   20.2046  -21.7932  -13.8084 C   0  0  0  0  0  0  0  0  0  0  0  0
   18.8634  -22.2434  -13.5334 N   0  0  0  0  0  0  0  0  0  0  0  0
   25.1682  -20.1251  -12.5962 C   0  0  0  0  0  0  0  0  0  0  0  0
   24.8605  -18.9031  -12.5430 O   0  0  0  0  0  0  0  0  0  0  0  0
   26.0447  -20.5884  -13.5836 N   0  0  0  0  0  0  0  0  0  0  0  0
   27.0860  -21.6002  -13.2774 C   0  0  0  0  0  0  0  0  0  0  0  0
   26.9926  -22.5056  -14.4704 C   0  0  0  0  0  0  0  0  0  0  0  0
   26.3336  -21.6871  -15.5638 C   0  0  0  0  0  0  0  0  0  0  0  0
   26.3218  -20.2705  -14.9393 C   0  0  1  0  0  0  0  0  0  0  0  0
   25.4127  -19.4090  -15.6659 C   0  0  0  0  0  0  0  0  0  0  0  0
   24.1792  -19.3404  -15.6204 O   0  0  0  0  0  0  0  0  0  0  0  0
   26.0282  -18.5037  -16.5695 O   0  0  0  0  0  0  0  0  0  0  0  0
  1  2  1  0
  3  2  1  0
  4  5  1  0
  4  3  1  0
  5  6  1  1
  7  5  1  0
  7  8  2  0
  9  7  1  0
 10  9  1  0
 10 11  1  1
 11 12  1  0
 13 12  1  0
 14 13  1  0
 14 15  1  0
 16 10  1  0
 17 16  2  0
 18 16  1  0
 18 22  1  0
 19 18  1  0
 20 19  1  0
 20 21  1  0
 21 22  1  0
 22 23  1  6
 23 24  2  0
 23 25  1  0
M  END
$$$$
