MKP.pdb
     RDKit          3D

 25 25  0  0  1  0  0  0  0  0999 V2000
   20.9559  -18.6484   -8.9191 C   0  0  0  0  0  0  0  0  0  0  0  0
   20.3815  -20.3421   -9.0774 S   0  0  0  0  0  0  0  0  0  0  0  0
   19.7188  -20.6768  -10.7315 C   0  0  0  0  0  0  0  0  0  0  0  0
   20.7471  -20.3558  -11.8045 C   0  0  0  0  0  0  0  0  0  0  0  0
   20.1097  -20.6570  -13.1583 C   0  0  2  0  0  0  0  0  0  0  0  0
   19.3996  -21.9087  -13.0061 N   0  0  0  0  0  0  0  0  0  0  0  0
   21.2198  -20.8547  -14.1159 C   0  0  0  0  0  0  0  0  0  0  0  0
   21.8366  -21.9429  -14.1170 O   0  0  0  0  0  0  0  0  0  0  0  0
   21.6226  -19.8581  -15.0425 N   0  0  0  0  0  0  0  0  0  0  0  0
   22.6984  -20.1043  -16.0368 C   0  0  1  0  0  0  0  0  0  0  0  0
   22.1554  -19.4360  -17.2942 C   0  0  0  0  0  0  0  0  0  0  0  0
   23.0170  -19.6324  -18.4840 C   0  0  0  0  0  0  0  0  0  0  0  0
   22.4139  -18.9576  -19.7256 C   0  0  0  0  0  0  0  0  0  0  0  0
   23.3649  -19.0575  -20.8911 C   0  0  0  0  0  0  0  0  0  0  0  0
   22.7156  -18.5377  -22.0681 N   0  0  0  0  0  0  0  0  0  0  0  0
   23.9492  -19.4614  -15.5818 C   0  0  0  0  0  0  0  0  0  0  0  0
   23.8680  -18.2213  -15.3671 O   0  0  0  0  0  0  0  0  0  0  0  0
   25.1611  -20.1326  -15.3845 N   0  0  0  0  0  0  0  0  0  0  0  0
   25.2153  -21.4335  -14.6729 C   0  0  0  0  0  0  0  0  0  0  0  0
   26.1754  -22.2090  -15.5264 C   0  0  0  0  0  0  0  0  0  0  0  0
   26.9741  -21.1765  -16.2982 C   0  0  0  0  0  0  0  0  0  0  0  0
   26.5345  -19.8578  -15.6167 C   0  0  1  0  0  0  0  0  0  0  0  0
   26.9020  -18.7222  -16.4365 C   0  0  0  0  0  0  0  0  0  0  0  0
   26.2881  -18.1827  -17.3640 O   0  0  0  0  0  0  0  0  0  0  0  0
   28.1584  -18.1363  -16.1314 O   0  0  0  0  0  0  0  0  0  0  0  0
  1  2  1  0
  3  2  1  0
  4  5  1  0
  4  3  1  0
  5  6  1  1
  7  5  1  0
  7  8  2  0
  9  7  1  0
 10  9  1  0
 10 11  1  6
 11 12  1  0
 13 12  1  0
 14 13  1  0
 14 15  1  0
 16 10  1  0
 17 16  2  0
 18 16  1  0
 18 22  1  0
 19 18  1  0
 20 19  1  0
 20 21  1  0
 21 22  1  0
 22 23  1  6
 23 24  2  0
 23 25  1  0
M  END
$$$$
