HCW.pdb
     RDKit          3D

 31 33  0  0  1  0  0  0  0  0999 V2000
    9.0866  -19.5429   18.2716 N   0  0  0  0  0  0  0  0  0  0  0  0
    9.7144  -18.9358   19.4150 C   0  0  1  0  0  0  0  0  0  0  0  0
   11.2115  -19.0256   19.2500 C   0  0  0  0  0  0  0  0  0  0  0  0
   11.6928  -20.4202   19.2331 C   0  0  0  0  0  0  0  0  0  0  0  0
   12.2007  -21.0601   20.3419 C   0  0  0  0  0  0  0  0  0  0  0  0
   12.5443  -22.3047   19.9979 N   0  0  0  0  0  0  0  0  0  0  0  0
   12.2568  -22.4391   18.7002 C   0  0  0  0  0  0  0  0  0  0  0  0
   11.7406  -21.3015   18.2302 N   0  0  0  0  0  0  0  0  0  0  0  0
    9.2432  -17.5530   19.6519 C   0  0  0  0  0  0  0  0  0  0  0  0
    9.0061  -16.7852   18.6846 O   0  0  0  0  0  0  0  0  0  0  0  0
    9.0352  -17.0224   20.9610 N   0  0  0  0  0  0  0  0  0  0  0  0
    8.3516  -15.8069   21.2493 C   0  0  1  0  0  0  0  0  0  0  0  0
    6.8858  -15.8450   20.8547 C   0  0  0  0  0  0  0  0  0  0  0  0
    5.9350  -16.9233   21.9434 S   0  0  0  0  0  0  0  0  0  0  0  0
    8.4127  -15.4271   22.6845 C   0  0  0  0  0  0  0  0  0  0  0  0
    7.8266  -14.3861   23.0826 O   0  0  0  0  0  0  0  0  0  0  0  0
    9.1122  -16.1937   23.6484 N   0  0  0  0  0  0  0  0  0  0  0  0
   10.1056  -15.6484   24.5605 C   0  0  1  0  0  0  0  0  0  0  0  0
    9.5665  -15.6446   25.9781 C   0  0  0  0  0  0  0  0  0  0  0  0
    8.1585  -15.1759   25.9828 C   0  0  0  0  0  0  0  0  0  0  0  0
    7.0359  -15.9373   25.7832 C   0  0  0  0  0  0  0  0  0  0  0  0
    5.9675  -15.1386   25.8637 N   0  0  0  0  0  0  0  0  0  0  0  0
    6.3317  -13.8534   26.1128 C   0  0  0  0  0  0  0  0  0  0  0  0
    5.6191  -12.6884   26.2786 C   0  0  0  0  0  0  0  0  0  0  0  0
    6.2878  -11.5154   26.5250 C   0  0  0  0  0  0  0  0  0  0  0  0
    7.6678  -11.5614   26.5959 C   0  0  0  0  0  0  0  0  0  0  0  0
    8.4053  -12.7117   26.4343 C   0  0  0  0  0  0  0  0  0  0  0  0
    7.7079  -13.8762   26.1877 C   0  0  0  0  0  0  0  0  0  0  0  0
   11.2836  -16.5448   24.5254 C   0  0  0  0  0  0  0  0  0  0  0  0
   12.4615  -16.2285   25.1751 O   0  0  0  0  0  0  0  0  0  0  0  0
   11.2247  -17.6237   23.8923 O   0  0  0  0  0  0  0  0  0  0  0  0
  2  1  1  6
  2  9  1  0
  2  3  1  0
  3  4  1  0
  4  8  1  0
  5  6  1  0
  5  4  2  0
  6  7  1  0
  7  8  2  0
  9 10  2  0
 11 12  1  0
 11  9  1  0
 12 15  1  0
 12 13  1  1
 14 13  1  0
 15 17  1  0
 16 15  2  0
 17 18  1  0
 18 19  1  1
 19 20  1  0
 20 28  1  0
 20 21  2  0
 21 22  1  0
 23 22  1  0
 23 24  2  0
 25 24  1  0
 26 25  2  0
 27 28  2  0
 27 26  1  0
 28 23  1  0
 29 30  1  0
 29 18  1  0
 31 29  2  0
M  END
$$$$
