HCW.pdb
     RDKit          3D

 31 33  0  0  1  0  0  0  0  0999 V2000
   10.1438  -18.3889   18.3156 N   0  0  0  0  0  0  0  0  0  0  0  0
    9.9662  -18.3591   19.7430 C   0  0  1  0  0  0  0  0  0  0  0  0
   11.0448  -19.1981   20.3829 C   0  0  0  0  0  0  0  0  0  0  0  0
   10.9806  -20.6114   19.9641 C   0  0  0  0  0  0  0  0  0  0  0  0
   10.1457  -21.5378   20.5484 C   0  0  0  0  0  0  0  0  0  0  0  0
   10.3251  -22.7164   19.9449 N   0  0  0  0  0  0  0  0  0  0  0  0
   11.2536  -22.5296   19.0027 C   0  0  0  0  0  0  0  0  0  0  0  0
   11.6553  -21.2567   19.0085 N   0  0  0  0  0  0  0  0  0  0  0  0
    9.9156  -16.9804   20.2786 C   0  0  0  0  0  0  0  0  0  0  0  0
   10.7801  -16.1321   19.9397 O   0  0  0  0  0  0  0  0  0  0  0  0
    8.9068  -16.5428   21.1893 N   0  0  0  0  0  0  0  0  0  0  0  0
    8.7727  -15.2130   21.6806 C   0  0  1  0  0  0  0  0  0  0  0  0
    7.3821  -14.6414   21.4677 C   0  0  0  0  0  0  0  0  0  0  0  0
    6.1112  -15.7161   22.1619 S   0  0  0  0  0  0  0  0  0  0  0  0
    9.0838  -15.0896   23.1283 C   0  0  0  0  0  0  0  0  0  0  0  0
    9.0982  -13.9537   23.6714 O   0  0  0  0  0  0  0  0  0  0  0  0
    9.3712  -16.2098   23.9460 N   0  0  0  0  0  0  0  0  0  0  0  0
   10.0280  -16.1278   25.2413 C   0  0  1  0  0  0  0  0  0  0  0  0
    9.0493  -16.4772   26.3461 C   0  0  0  0  0  0  0  0  0  0  0  0
    7.8337  -15.6339   26.2306 C   0  0  0  0  0  0  0  0  0  0  0  0
    6.5828  -16.0400   25.8433 C   0  0  0  0  0  0  0  0  0  0  0  0
    5.7707  -14.9791   25.8685 N   0  0  0  0  0  0  0  0  0  0  0  0
    6.4344  -13.8608   26.2625 C   0  0  0  0  0  0  0  0  0  0  0  0
    6.0499  -12.5523   26.4427 C   0  0  0  0  0  0  0  0  0  0  0  0
    6.9737  -11.6267   26.8592 C   0  0  0  0  0  0  0  0  0  0  0  0
    8.2676  -12.0605   27.0813 C   0  0  0  0  0  0  0  0  0  0  0  0
    8.6793  -13.3620   26.9093 C   0  0  0  0  0  0  0  0  0  0  0  0
    7.7304  -14.2714   26.4901 C   0  0  0  0  0  0  0  0  0  0  0  0
   11.1104  -17.1380   25.2578 C   0  0  0  0  0  0  0  0  0  0  0  0
   11.9930  -17.2453   26.3157 O   0  0  0  0  0  0  0  0  0  0  0  0
   11.2415  -17.9240   24.2917 O   0  0  0  0  0  0  0  0  0  0  0  0
  2  1  1  6
  2  9  1  0
  2  3  1  0
  3  4  1  0
  4  8  1  0
  5  6  1  0
  5  4  2  0
  6  7  1  0
  7  8  2  0
  9 10  2  0
 11 12  1  0
 11  9  1  0
 12 15  1  0
 12 13  1  1
 14 13  1  0
 15 17  1  0
 16 15  2  0
 17 18  1  0
 18 19  1  1
 19 20  1  0
 20 28  1  0
 20 21  2  0
 21 22  1  0
 23 22  1  0
 23 24  2  0
 25 24  1  0
 26 25  2  0
 27 28  2  0
 27 26  1  0
 28 23  1  0
 29 30  1  0
 29 18  1  0
 31 29  2  0
M  END
$$$$
