HCW.pdb
     RDKit          3D

 31 33  0  0  1  0  0  0  0  0999 V2000
    9.9720  -19.1102   18.7476 N   0  0  0  0  0  0  0  0  0  0  0  0
    9.2568  -18.8598   19.9705 C   0  0  1  0  0  0  0  0  0  0  0  0
    9.5264  -19.9927   20.9299 C   0  0  0  0  0  0  0  0  0  0  0  0
    8.9825  -21.2776   20.4499 C   0  0  0  0  0  0  0  0  0  0  0  0
    7.7266  -21.7384   20.7771 C   0  0  0  0  0  0  0  0  0  0  0  0
    7.5377  -22.9220   20.1865 N   0  0  0  0  0  0  0  0  0  0  0  0
    8.6535  -23.1947   19.5043 C   0  0  0  0  0  0  0  0  0  0  0  0
    9.5331  -22.2029   19.6592 N   0  0  0  0  0  0  0  0  0  0  0  0
    9.5668  -17.5321   20.5460 C   0  0  0  0  0  0  0  0  0  0  0  0
   10.7504  -17.1075   20.5698 O   0  0  0  0  0  0  0  0  0  0  0  0
    8.5646  -16.6757   21.0945 N   0  0  0  0  0  0  0  0  0  0  0  0
    8.8183  -15.4307   21.7375 C   0  0  1  0  0  0  0  0  0  0  0  0
    7.8945  -14.3221   21.2649 C   0  0  0  0  0  0  0  0  0  0  0  0
    6.1636  -14.8207   21.3515 S   0  0  0  0  0  0  0  0  0  0  0  0
    8.7019  -15.5016   23.2171 C   0  0  0  0  0  0  0  0  0  0  0  0
    7.8413  -14.8010   23.8121 O   0  0  0  0  0  0  0  0  0  0  0  0
    9.5284  -16.3356   24.0092 N   0  0  0  0  0  0  0  0  0  0  0  0
   10.0270  -15.9756   25.3275 C   0  0  1  0  0  0  0  0  0  0  0  0
    9.0061  -16.3382   26.3889 C   0  0  0  0  0  0  0  0  0  0  0  0
    7.7788  -15.5235   26.2099 C   0  0  0  0  0  0  0  0  0  0  0  0
    6.5822  -15.9403   25.6864 C   0  0  0  0  0  0  0  0  0  0  0  0
    5.7365  -14.9056   25.6968 N   0  0  0  0  0  0  0  0  0  0  0  0
    6.3247  -13.7949   26.2131 C   0  0  0  0  0  0  0  0  0  0  0  0
    5.8824  -12.5105   26.4310 C   0  0  0  0  0  0  0  0  0  0  0  0
    6.7338  -11.5861   26.9827 C   0  0  0  0  0  0  0  0  0  0  0  0
    8.0159  -11.9964   27.2982 C   0  0  0  0  0  0  0  0  0  0  0  0
    8.4842  -13.2735   27.0914 C   0  0  0  0  0  0  0  0  0  0  0  0
    7.6075  -14.1823   26.5356 C   0  0  0  0  0  0  0  0  0  0  0  0
   11.2464  -16.7774   25.5779 C   0  0  0  0  0  0  0  0  0  0  0  0
   11.9596  -16.6731   26.7569 O   0  0  0  0  0  0  0  0  0  0  0  0
   11.6544  -17.5770   24.7047 O   0  0  0  0  0  0  0  0  0  0  0  0
  2  1  1  6
  2  9  1  0
  2  3  1  0
  3  4  1  0
  4  8  1  0
  5  6  1  0
  5  4  2  0
  6  7  1  0
  7  8  2  0
  9 10  2  0
 11 12  1  0
 11  9  1  0
 12 15  1  0
 12 13  1  6
 14 13  1  0
 15 17  1  0
 16 15  2  0
 17 18  1  0
 18 19  1  1
 19 20  1  0
 20 28  1  0
 20 21  2  0
 21 22  1  0
 23 22  1  0
 23 24  2  0
 25 24  1  0
 26 25  2  0
 27 28  2  0
 27 26  1  0
 28 23  1  0
 29 30  1  0
 29 18  1  0
 31 29  2  0
M  END
$$$$
