HCW.pdb
     RDKit          3D

 31 33  0  0  1  0  0  0  0  0999 V2000
    9.5968  -18.9624   17.7973 N   0  0  0  0  0  0  0  0  0  0  0  0
   10.1807  -17.9538   18.6409 C   0  0  1  0  0  0  0  0  0  0  0  0
   10.4298  -16.7162   17.8145 C   0  0  0  0  0  0  0  0  0  0  0  0
   11.4871  -16.9173   16.8052 C   0  0  0  0  0  0  0  0  0  0  0  0
   12.8318  -16.8981   17.1021 C   0  0  0  0  0  0  0  0  0  0  0  0
   13.5215  -17.1117   15.9777 N   0  0  0  0  0  0  0  0  0  0  0  0
   12.6252  -17.2609   14.9983 C   0  0  0  0  0  0  0  0  0  0  0  0
   11.3906  -17.1445   15.4923 N   0  0  0  0  0  0  0  0  0  0  0  0
    9.3682  -17.6857   19.8484 C   0  0  0  0  0  0  0  0  0  0  0  0
    8.1608  -17.3498   19.7435 O   0  0  0  0  0  0  0  0  0  0  0  0
    9.8946  -17.7904   21.1715 N   0  0  0  0  0  0  0  0  0  0  0  0
    9.1301  -17.6620   22.3660 C   0  0  1  0  0  0  0  0  0  0  0  0
    8.2579  -18.8737   22.6431 C   0  0  0  0  0  0  0  0  0  0  0  0
    9.2507  -20.3431   22.9702 S   0  0  0  0  0  0  0  0  0  0  0  0
    9.9651  -17.4337   23.5738 C   0  0  0  0  0  0  0  0  0  0  0  0
   11.1433  -17.8761   23.6136 O   0  0  0  0  0  0  0  0  0  0  0  0
    9.4921  -16.7282   24.7071 N   0  0  0  0  0  0  0  0  0  0  0  0
   10.2726  -16.5056   25.9143 C   0  0  1  0  0  0  0  0  0  0  0  0
    9.9213  -15.1614   26.5228 C   0  0  0  0  0  0  0  0  0  0  0  0
    8.4626  -14.9169   26.4019 C   0  0  0  0  0  0  0  0  0  0  0  0
    7.4803  -15.8587   26.2351 C   0  0  0  0  0  0  0  0  0  0  0  0
    6.3031  -15.2298   26.1683 N   0  0  0  0  0  0  0  0  0  0  0  0
    6.4567  -13.8848   26.2851 C   0  0  0  0  0  0  0  0  0  0  0  0
    5.5709  -12.8321   26.2786 C   0  0  0  0  0  0  0  0  0  0  0  0
    6.0417  -11.5507   26.4211 C   0  0  0  0  0  0  0  0  0  0  0  0
    7.4054  -11.3762   26.5667 C   0  0  0  0  0  0  0  0  0  0  0  0
    8.3133  -12.4101   26.5769 C   0  0  0  0  0  0  0  0  0  0  0  0
    7.8130  -13.6876   26.4317 C   0  0  0  0  0  0  0  0  0  0  0  0
    9.8982  -17.5563   26.8881 C   0  0  0  0  0  0  0  0  0  0  0  0
   10.6167  -17.7644   28.0501 O   0  0  0  0  0  0  0  0  0  0  0  0
    8.9043  -18.2846   26.6649 O   0  0  0  0  0  0  0  0  0  0  0  0
  2  1  1  6
  2  9  1  0
  2  3  1  0
  3  4  1  0
  4  8  1  0
  5  6  1  0
  5  4  2  0
  6  7  1  0
  7  8  2  0
  9 10  2  0
 11 12  1  0
 11  9  1  0
 12 15  1  0
 12 13  1  1
 14 13  1  0
 15 17  1  0
 16 15  2  0
 17 18  1  0
 18 19  1  1
 19 20  1  0
 20 28  1  0
 20 21  2  0
 21 22  1  0
 23 22  1  0
 23 24  2  0
 25 24  1  0
 26 25  2  0
 27 28  2  0
 27 26  1  0
 28 23  1  0
 29 30  1  0
 29 18  1  0
 31 29  2  0
M  END
$$$$
