HCW.pdb
     RDKit          3D

 31 33  0  0  1  0  0  0  0  0999 V2000
    8.4386  -17.3140   18.4424 N   0  0  0  0  0  0  0  0  0  0  0  0
    8.4878  -16.5463   19.6581 C   0  0  1  0  0  0  0  0  0  0  0  0
    7.3352  -15.5727   19.6630 C   0  0  0  0  0  0  0  0  0  0  0  0
    7.5507  -14.4414   18.7406 C   0  0  0  0  0  0  0  0  0  0  0  0
    8.7043  -14.2699   18.0083 C   0  0  0  0  0  0  0  0  0  0  0  0
    8.5851  -13.1588   17.2756 N   0  0  0  0  0  0  0  0  0  0  0  0
    7.3809  -12.6468   17.5453 C   0  0  0  0  0  0  0  0  0  0  0  0
    6.7486  -13.4186   18.4320 N   0  0  0  0  0  0  0  0  0  0  0  0
    8.5249  -17.4006   20.8661 C   0  0  0  0  0  0  0  0  0  0  0  0
    7.6914  -18.3304   21.0158 O   0  0  0  0  0  0  0  0  0  0  0  0
    9.4858  -17.2237   21.9071 N   0  0  0  0  0  0  0  0  0  0  0  0
    9.5236  -17.9719   23.1181 C   0  0  1  0  0  0  0  0  0  0  0  0
   10.3412  -19.2461   23.0006 C   0  0  0  0  0  0  0  0  0  0  0  0
   11.9283  -18.9428   22.1998 S   0  0  0  0  0  0  0  0  0  0  0  0
   10.0693  -17.2016   24.2655 C   0  0  0  0  0  0  0  0  0  0  0  0
   11.1010  -16.4962   24.1126 O   0  0  0  0  0  0  0  0  0  0  0  0
    9.4743  -17.2212   25.5507 N   0  0  0  0  0  0  0  0  0  0  0  0
   10.0571  -16.5994   26.7295 C   0  0  1  0  0  0  0  0  0  0  0  0
    8.9617  -16.1269   27.6662 C   0  0  0  0  0  0  0  0  0  0  0  0
    7.9183  -15.4018   26.8996 C   0  0  0  0  0  0  0  0  0  0  0  0
    6.8372  -15.9492   26.2583 C   0  0  0  0  0  0  0  0  0  0  0  0
    6.1438  -14.9603   25.6863 N   0  0  0  0  0  0  0  0  0  0  0  0
    6.7232  -13.7538   25.9206 C   0  0  0  0  0  0  0  0  0  0  0  0
    6.4000  -12.4675   25.5550 C   0  0  0  0  0  0  0  0  0  0  0  0
    7.2025  -11.4284   25.9550 C   0  0  0  0  0  0  0  0  0  0  0  0
    8.3153  -11.7288   26.7186 C   0  0  0  0  0  0  0  0  0  0  0  0
    8.6619  -13.0050   27.0985 C   0  0  0  0  0  0  0  0  0  0  0  0
    7.8379  -14.0304   26.6827 C   0  0  0  0  0  0  0  0  0  0  0  0
   10.8442  -17.6346   27.4374 C   0  0  0  0  0  0  0  0  0  0  0  0
   11.6469  -17.3286   28.5199 O   0  0  0  0  0  0  0  0  0  0  0  0
   10.7904  -18.8258   27.0547 O   0  0  0  0  0  0  0  0  0  0  0  0
  2  1  1  6
  2  9  1  0
  2  3  1  0
  3  4  1  0
  4  8  1  0
  5  6  1  0
  5  4  2  0
  6  7  1  0
  7  8  2  0
  9 10  2  0
 11 12  1  0
 11  9  1  0
 12 15  1  0
 12 13  1  6
 14 13  1  0
 15 17  1  0
 16 15  2  0
 17 18  1  0
 18 19  1  1
 19 20  1  0
 20 28  1  0
 20 21  2  0
 21 22  1  0
 23 22  1  0
 23 24  2  0
 25 24  1  0
 26 25  2  0
 27 28  2  0
 27 26  1  0
 28 23  1  0
 29 30  1  0
 29 18  1  0
 31 29  2  0
M  END
$$$$
