HCW.pdb
     RDKit          3D

 31 33  0  0  1  0  0  0  0  0999 V2000
    8.7987  -16.3936   17.9913 N   0  0  0  0  0  0  0  0  0  0  0  0
    8.6242  -15.1765   18.7385 C   0  0  1  0  0  0  0  0  0  0  0  0
    7.5423  -14.3556   18.0810 C   0  0  0  0  0  0  0  0  0  0  0  0
    7.8202  -14.0977   16.6551 C   0  0  0  0  0  0  0  0  0  0  0  0
    8.9280  -14.5860   15.9985 C   0  0  0  0  0  0  0  0  0  0  0  0
    8.8862  -14.1780   14.7268 N   0  0  0  0  0  0  0  0  0  0  0  0
    7.7746  -13.4493   14.5922 C   0  0  0  0  0  0  0  0  0  0  0  0
    7.1238  -13.3963   15.7564 N   0  0  0  0  0  0  0  0  0  0  0  0
    8.3655  -15.4258   20.1741 C   0  0  0  0  0  0  0  0  0  0  0  0
    8.1636  -14.4665   20.9620 O   0  0  0  0  0  0  0  0  0  0  0  0
    8.3306  -16.7381   20.7355 N   0  0  0  0  0  0  0  0  0  0  0  0
    8.0010  -17.0383   22.0879 C   0  0  1  0  0  0  0  0  0  0  0  0
    7.4598  -18.4458   22.2661 C   0  0  0  0  0  0  0  0  0  0  0  0
    5.8020  -18.6100   21.5756 S   0  0  0  0  0  0  0  0  0  0  0  0
    9.1496  -16.8859   23.0181 C   0  0  0  0  0  0  0  0  0  0  0  0
   10.3043  -17.2259   22.6487 O   0  0  0  0  0  0  0  0  0  0  0  0
    9.0078  -16.3662   24.3280 N   0  0  0  0  0  0  0  0  0  0  0  0
   10.1070  -16.2119   25.2683 C   0  0  1  0  0  0  0  0  0  0  0  0
    9.8319  -15.0532   26.2075 C   0  0  0  0  0  0  0  0  0  0  0  0
    8.3773  -14.7608   26.2379 C   0  0  0  0  0  0  0  0  0  0  0  0
    7.3545  -15.6724   26.2872 C   0  0  0  0  0  0  0  0  0  0  0  0
    6.1972  -15.0043   26.2982 N   0  0  0  0  0  0  0  0  0  0  0  0
    6.4038  -13.6619   26.2577 C   0  0  0  0  0  0  0  0  0  0  0  0
    5.5556  -12.5788   26.2499 C   0  0  0  0  0  0  0  0  0  0  0  0
    6.0781  -11.3104   26.2034 C   0  0  0  0  0  0  0  0  0  0  0  0
    7.4540  -11.1798   26.1658 C   0  0  0  0  0  0  0  0  0  0  0  0
    8.3251  -12.2448   26.1726 C   0  0  0  0  0  0  0  0  0  0  0  0
    7.7730  -13.5083   26.2198 C   0  0  0  0  0  0  0  0  0  0  0  0
   10.1764  -17.4478   26.0807 C   0  0  0  0  0  0  0  0  0  0  0  0
   11.2611  -17.7304   26.8890 O   0  0  0  0  0  0  0  0  0  0  0  0
    9.2322  -18.2696   26.0436 O   0  0  0  0  0  0  0  0  0  0  0  0
  2  1  1  6
  2  9  1  0
  2  3  1  0
  3  4  1  0
  4  8  1  0
  5  6  1  0
  5  4  2  0
  6  7  1  0
  7  8  2  0
  9 10  2  0
 11 12  1  0
 11  9  1  0
 12 15  1  0
 12 13  1  6
 14 13  1  0
 15 17  1  0
 16 15  2  0
 17 18  1  0
 18 19  1  1
 19 20  1  0
 20 28  1  0
 20 21  2  0
 21 22  1  0
 23 22  1  0
 23 24  2  0
 25 24  1  0
 26 25  2  0
 27 28  2  0
 27 26  1  0
 28 23  1  0
 29 30  1  0
 29 18  1  0
 31 29  2  0
M  END
$$$$
