HCW.pdb
     RDKit          3D

 31 33  0  0  1  0  0  0  0  0999 V2000
    7.4754  -16.9438   18.7364 N   0  0  0  0  0  0  0  0  0  0  0  0
    8.2672  -16.2493   19.7165 C   0  0  1  0  0  0  0  0  0  0  0  0
    7.8167  -14.8103   19.7716 C   0  0  0  0  0  0  0  0  0  0  0  0
    8.0225  -14.1071   18.4908 C   0  0  0  0  0  0  0  0  0  0  0  0
    6.9934  -13.5852   17.7390 C   0  0  0  0  0  0  0  0  0  0  0  0
    7.5084  -13.0155   16.6455 N   0  0  0  0  0  0  0  0  0  0  0  0
    8.8326  -13.1788   16.7132 C   0  0  0  0  0  0  0  0  0  0  0  0
    9.1513  -13.8393   17.8285 N   0  0  0  0  0  0  0  0  0  0  0  0
    8.2397  -16.9121   21.0394 C   0  0  0  0  0  0  0  0  0  0  0  0
    7.1481  -17.2693   21.5516 O   0  0  0  0  0  0  0  0  0  0  0  0
    9.4224  -17.1788   21.7936 N   0  0  0  0  0  0  0  0  0  0  0  0
    9.4519  -17.8186   23.0653 C   0  0  1  0  0  0  0  0  0  0  0  0
   10.2270  -19.1243   23.0525 C   0  0  0  0  0  0  0  0  0  0  0  0
    9.9935  -20.0479   24.5837 S   0  0  0  0  0  0  0  0  0  0  0  0
   10.0365  -16.9688   24.1349 C   0  0  0  0  0  0  0  0  0  0  0  0
   11.0882  -16.3139   23.9101 O   0  0  0  0  0  0  0  0  0  0  0  0
    9.4577  -16.8558   25.4226 N   0  0  0  0  0  0  0  0  0  0  0  0
   10.0938  -16.1884   26.5477 C   0  0  1  0  0  0  0  0  0  0  0  0
    9.0485  -15.7609   27.5602 C   0  0  0  0  0  0  0  0  0  0  0  0
    7.8802  -15.1691   26.8623 C   0  0  0  0  0  0  0  0  0  0  0  0
    6.7981  -15.8396   26.3532 C   0  0  0  0  0  0  0  0  0  0  0  0
    5.9714  -14.9454   25.8030 N   0  0  0  0  0  0  0  0  0  0  0  0
    6.4610  -13.6836   25.9233 C   0  0  0  0  0  0  0  0  0  0  0  0
    5.9940  -12.4511   25.5289 C   0  0  0  0  0  0  0  0  0  0  0  0
    6.7347  -11.3281   25.8008 C   0  0  0  0  0  0  0  0  0  0  0  0
    7.9341  -11.4917   26.4688 C   0  0  0  0  0  0  0  0  0  0  0  0
    8.4248  -12.7114   26.8747 C   0  0  0  0  0  0  0  0  0  0  0  0
    7.6600  -13.8235   26.5885 C   0  0  0  0  0  0  0  0  0  0  0  0
   10.9857  -17.1714   27.2038 C   0  0  0  0  0  0  0  0  0  0  0  0
   11.8610  -16.8063   28.2089 O   0  0  0  0  0  0  0  0  0  0  0  0
   10.9565  -18.3716   26.8475 O   0  0  0  0  0  0  0  0  0  0  0  0
  2  1  1  6
  2  9  1  0
  2  3  1  0
  3  4  1  0
  4  8  1  0
  5  6  1  0
  5  4  2  0
  6  7  1  0
  7  8  2  0
  9 10  2  0
 11 12  1  0
 11  9  1  0
 12 15  1  0
 12 13  1  6
 14 13  1  0
 15 17  1  0
 16 15  2  0
 17 18  1  0
 18 19  1  1
 19 20  1  0
 20 28  1  0
 20 21  2  0
 21 22  1  0
 23 22  1  0
 23 24  2  0
 25 24  1  0
 26 25  2  0
 27 28  2  0
 27 26  1  0
 28 23  1  0
 29 30  1  0
 29 18  1  0
 31 29  2  0
M  END
$$$$
