HCW.pdb
     RDKit          3D

 31 33  0  0  1  0  0  0  0  0999 V2000
    7.1519  -17.0206   18.6018 N   0  0  0  0  0  0  0  0  0  0  0  0
    7.8871  -16.3819   19.6608 C   0  0  1  0  0  0  0  0  0  0  0  0
    7.4744  -14.9323   19.7310 C   0  0  0  0  0  0  0  0  0  0  0  0
    7.9031  -14.1674   18.5444 C   0  0  0  0  0  0  0  0  0  0  0  0
    8.6139  -14.7204   17.5024 C   0  0  0  0  0  0  0  0  0  0  0  0
    8.8437  -13.7717   16.5900 N   0  0  0  0  0  0  0  0  0  0  0  0
    8.2876  -12.6488   17.0531 C   0  0  0  0  0  0  0  0  0  0  0  0
    7.7159  -12.8810   18.2367 N   0  0  0  0  0  0  0  0  0  0  0  0
    7.7418  -17.0852   20.9549 C   0  0  0  0  0  0  0  0  0  0  0  0
    6.6140  -17.1889   21.5017 O   0  0  0  0  0  0  0  0  0  0  0  0
    8.8468  -17.6732   21.6419 N   0  0  0  0  0  0  0  0  0  0  0  0
    8.8162  -18.1397   22.9869 C   0  0  1  0  0  0  0  0  0  0  0  0
    9.1037  -19.6261   23.1039 C   0  0  0  0  0  0  0  0  0  0  0  0
    9.1504  -20.1578   24.8264 S   0  0  0  0  0  0  0  0  0  0  0  0
    9.7767  -17.4332   23.8736 C   0  0  0  0  0  0  0  0  0  0  0  0
   10.9795  -17.3097   23.5221 O   0  0  0  0  0  0  0  0  0  0  0  0
    9.3992  -16.8797   25.1215 N   0  0  0  0  0  0  0  0  0  0  0  0
   10.3421  -16.4149   26.1270 C   0  0  1  0  0  0  0  0  0  0  0  0
    9.7956  -15.1849   26.8261 C   0  0  0  0  0  0  0  0  0  0  0  0
    8.3669  -14.9947   26.4728 C   0  0  0  0  0  0  0  0  0  0  0  0
    7.4449  -15.9755   26.2129 C   0  0  0  0  0  0  0  0  0  0  0  0
    6.2766  -15.3897   25.9340 N   0  0  0  0  0  0  0  0  0  0  0  0
    6.3777  -14.0361   25.9969 C   0  0  0  0  0  0  0  0  0  0  0  0
    5.4778  -13.0147   25.7977 C   0  0  0  0  0  0  0  0  0  0  0  0
    5.8898  -11.7130   25.9375 C   0  0  0  0  0  0  0  0  0  0  0  0
    7.2107  -11.4867   26.2772 C   0  0  0  0  0  0  0  0  0  0  0  0
    8.1314  -12.4884   26.4824 C   0  0  0  0  0  0  0  0  0  0  0  0
    7.6905  -13.7874   26.3353 C   0  0  0  0  0  0  0  0  0  0  0  0
   10.4812  -17.4875   27.1382 C   0  0  0  0  0  0  0  0  0  0  0  0
    9.6604  -18.5992   27.1412 O   0  0  0  0  0  0  0  0  0  0  0  0
   11.3638  -17.3973   28.0221 O   0  0  0  0  0  0  0  0  0  0  0  0
  2  1  1  6
  2  9  1  0
  2  3  1  0
  3  4  1  0
  4  8  1  0
  5  6  1  0
  5  4  2  0
  6  7  1  0
  7  8  2  0
  9 10  2  0
 11 12  1  0
 11  9  1  0
 12 15  1  0
 12 13  1  6
 14 13  1  0
 15 17  1  0
 16 15  2  0
 17 18  1  0
 18 19  1  1
 19 20  1  0
 20 28  1  0
 20 21  2  0
 21 22  1  0
 23 22  1  0
 23 24  2  0
 25 24  1  0
 26 25  2  0
 27 28  2  0
 27 26  1  0
 28 23  1  0
 29 30  1  0
 29 18  1  0
 31 29  2  0
M  END
$$$$
