HCW.pdb
     RDKit          3D

 31 33  0  0  1  0  0  0  0  0999 V2000
    9.6414  -18.8647   19.1977 N   0  0  0  0  0  0  0  0  0  0  0  0
   10.8119  -18.0617   19.4324 C   0  0  1  0  0  0  0  0  0  0  0  0
   11.4505  -17.7369   18.1046 C   0  0  0  0  0  0  0  0  0  0  0  0
   12.2113  -18.8745   17.5531 C   0  0  0  0  0  0  0  0  0  0  0  0
   13.2032  -19.5307   18.2475 C   0  0  0  0  0  0  0  0  0  0  0  0
   13.6915  -20.5068   17.4767 N   0  0  0  0  0  0  0  0  0  0  0  0
   13.0178  -20.4609   16.3239 C   0  0  0  0  0  0  0  0  0  0  0  0
   12.1194  -19.4745   16.3631 N   0  0  0  0  0  0  0  0  0  0  0  0
   10.5192  -16.8569   20.2405 C   0  0  0  0  0  0  0  0  0  0  0  0
   11.4371  -16.0510   20.5399 O   0  0  0  0  0  0  0  0  0  0  0  0
    9.2093  -16.5462   20.7161 N   0  0  0  0  0  0  0  0  0  0  0  0
    8.8858  -15.4381   21.5498 C   0  0  1  0  0  0  0  0  0  0  0  0
    7.3973  -15.3211   21.8266 C   0  0  0  0  0  0  0  0  0  0  0  0
    6.7262  -16.8547   22.4971 S   0  0  0  0  0  0  0  0  0  0  0  0
    9.5779  -15.4725   22.8642 C   0  0  0  0  0  0  0  0  0  0  0  0
   10.4941  -14.6450   23.1117 O   0  0  0  0  0  0  0  0  0  0  0  0
    9.2518  -16.4098   23.8747 N   0  0  0  0  0  0  0  0  0  0  0  0
    9.9776  -16.5443   25.1282 C   0  0  1  0  0  0  0  0  0  0  0  0
    9.8382  -15.2778   25.9509 C   0  0  0  0  0  0  0  0  0  0  0  0
    8.4101  -14.8828   26.0336 C   0  0  0  0  0  0  0  0  0  0  0  0
    7.3213  -15.7150   25.9933 C   0  0  0  0  0  0  0  0  0  0  0  0
    6.2181  -14.9677   26.0950 N   0  0  0  0  0  0  0  0  0  0  0  0
    6.5257  -13.6487   26.2035 C   0  0  0  0  0  0  0  0  0  0  0  0
    5.7621  -12.5113   26.3293 C   0  0  0  0  0  0  0  0  0  0  0  0
    6.3790  -11.2886   26.4192 C   0  0  0  0  0  0  0  0  0  0  0  0
    7.7606  -11.2578   26.3782 C   0  0  0  0  0  0  0  0  0  0  0  0
    8.5485  -12.3788   26.2532 C   0  0  0  0  0  0  0  0  0  0  0  0
    7.9025  -13.5946   26.1649 C   0  0  0  0  0  0  0  0  0  0  0  0
    9.3536  -17.6507   25.8890 C   0  0  0  0  0  0  0  0  0  0  0  0
    9.8872  -18.1117   27.0774 O   0  0  0  0  0  0  0  0  0  0  0  0
    8.3119  -18.1933   25.4546 O   0  0  0  0  0  0  0  0  0  0  0  0
  2  1  1  6
  2  9  1  0
  2  3  1  0
  3  4  1  0
  4  8  1  0
  5  6  1  0
  5  4  2  0
  6  7  1  0
  7  8  2  0
  9 10  2  0
 11 12  1  0
 11  9  1  0
 12 15  1  0
 12 13  1  1
 14 13  1  0
 15 17  1  0
 16 15  2  0
 17 18  1  0
 18 19  1  1
 19 20  1  0
 20 28  1  0
 20 21  2  0
 21 22  1  0
 23 22  1  0
 23 24  2  0
 25 24  1  0
 26 25  2  0
 27 28  2  0
 27 26  1  0
 28 23  1  0
 29 30  1  0
 29 18  1  0
 31 29  2  0
M  END
$$$$
