HCW.pdb
     RDKit          3D

 31 33  0  0  1  0  0  0  0  0999 V2000
    8.9550  -16.9997   18.2733 N   0  0  0  0  0  0  0  0  0  0  0  0
    8.7975  -16.1761   19.4424 C   0  0  1  0  0  0  0  0  0  0  0  0
    7.5797  -15.3042   19.2601 C   0  0  0  0  0  0  0  0  0  0  0  0
    7.7175  -14.3766   18.1209 C   0  0  0  0  0  0  0  0  0  0  0  0
    8.2653  -13.1179   18.2306 C   0  0  0  0  0  0  0  0  0  0  0  0
    8.2465  -12.5366   17.0276 N   0  0  0  0  0  0  0  0  0  0  0  0
    7.6977  -13.4149   16.1837 C   0  0  0  0  0  0  0  0  0  0  0  0
    7.3748  -14.5320   16.8391 N   0  0  0  0  0  0  0  0  0  0  0  0
    8.7565  -16.9683   20.6917 C   0  0  0  0  0  0  0  0  0  0  0  0
    8.0694  -18.0196   20.7584 O   0  0  0  0  0  0  0  0  0  0  0  0
    9.4773  -16.5949   21.8663 N   0  0  0  0  0  0  0  0  0  0  0  0
    9.5616  -17.3754   23.0543 C   0  0  1  0  0  0  0  0  0  0  0  0
   10.3858  -18.6381   22.8750 C   0  0  0  0  0  0  0  0  0  0  0  0
   11.8640  -18.3293   21.8894 S   0  0  0  0  0  0  0  0  0  0  0  0
   10.1382  -16.6314   24.2040 C   0  0  0  0  0  0  0  0  0  0  0  0
   11.1583  -15.9123   24.0367 O   0  0  0  0  0  0  0  0  0  0  0  0
    9.5863  -16.6916   25.5070 N   0  0  0  0  0  0  0  0  0  0  0  0
   10.1439  -16.0056   26.6621 C   0  0  1  0  0  0  0  0  0  0  0  0
    9.0475  -15.6900   27.6615 C   0  0  0  0  0  0  0  0  0  0  0  0
    7.8751  -15.1104   26.9603 C   0  0  0  0  0  0  0  0  0  0  0  0
    6.7595  -15.7800   26.5283 C   0  0  0  0  0  0  0  0  0  0  0  0
    5.9414  -14.8993   25.9444 N   0  0  0  0  0  0  0  0  0  0  0  0
    6.4694  -13.6476   25.9668 C   0  0  0  0  0  0  0  0  0  0  0  0
    6.0250  -12.4300   25.5055 C   0  0  0  0  0  0  0  0  0  0  0  0
    6.8048  -11.3143   25.6810 C   0  0  0  0  0  0  0  0  0  0  0  0
    8.0192  -11.4697   26.3232 C   0  0  0  0  0  0  0  0  0  0  0  0
    8.4881  -12.6744   26.7945 C   0  0  0  0  0  0  0  0  0  0  0  0
    7.6842  -13.7795   26.6047 C   0  0  0  0  0  0  0  0  0  0  0  0
   11.0987  -16.9312   27.3132 C   0  0  0  0  0  0  0  0  0  0  0  0
   11.9854  -16.5028   28.2827 O   0  0  0  0  0  0  0  0  0  0  0  0
   11.1140  -18.1398   26.9854 O   0  0  0  0  0  0  0  0  0  0  0  0
  2  1  1  6
  2  9  1  0
  2  3  1  0
  3  4  1  0
  4  8  1  0
  5  6  1  0
  5  4  2  0
  6  7  1  0
  7  8  2  0
  9 10  2  0
 11 12  1  0
 11  9  1  0
 12 15  1  0
 12 13  1  6
 14 13  1  0
 15 17  1  0
 16 15  2  0
 17 18  1  0
 18 19  1  1
 19 20  1  0
 20 28  1  0
 20 21  2  0
 21 22  1  0
 23 22  1  0
 23 24  2  0
 25 24  1  0
 26 25  2  0
 27 28  2  0
 27 26  1  0
 28 23  1  0
 29 30  1  0
 29 18  1  0
 31 29  2  0
M  END
$$$$
