HCW.pdb
     RDKit          3D

 31 33  0  0  1  0  0  0  0  0999 V2000
    9.1759  -16.9588   19.1034 N   0  0  0  0  0  0  0  0  0  0  0  0
    8.9785  -16.0805   20.2257 C   0  0  1  0  0  0  0  0  0  0  0  0
    7.7715  -15.2158   19.9575 C   0  0  0  0  0  0  0  0  0  0  0  0
    7.9140  -14.4180   18.7245 C   0  0  0  0  0  0  0  0  0  0  0  0
    8.4516  -13.1503   18.7000 C   0  0  0  0  0  0  0  0  0  0  0  0
    8.4406  -12.7050   17.4402 N   0  0  0  0  0  0  0  0  0  0  0  0
    7.9066  -13.6754   16.6931 C   0  0  0  0  0  0  0  0  0  0  0  0
    7.5852  -14.7162   17.4645 N   0  0  0  0  0  0  0  0  0  0  0  0
    8.8885  -16.8127   21.5086 C   0  0  0  0  0  0  0  0  0  0  0  0
    8.1415  -17.8185   21.6182 O   0  0  0  0  0  0  0  0  0  0  0  0
    9.6266  -16.4296   22.6692 N   0  0  0  0  0  0  0  0  0  0  0  0
    9.7996  -17.2371   23.8293 C   0  0  1  0  0  0  0  0  0  0  0  0
   10.7430  -18.4050   23.6015 C   0  0  0  0  0  0  0  0  0  0  0  0
   11.4572  -18.9908   25.1503 S   0  0  0  0  0  0  0  0  0  0  0  0
   10.3111  -16.4783   24.9999 C   0  0  0  0  0  0  0  0  0  0  0  0
   11.3012  -15.7120   24.8658 O   0  0  0  0  0  0  0  0  0  0  0  0
    9.7283  -16.5757   26.2871 N   0  0  0  0  0  0  0  0  0  0  0  0
   10.1664  -15.8069   27.4418 C   0  0  1  0  0  0  0  0  0  0  0  0
    8.9665  -15.3328   28.2392 C   0  0  0  0  0  0  0  0  0  0  0  0
    7.8576  -14.9749   27.3202 C   0  0  0  0  0  0  0  0  0  0  0  0
    6.9011  -15.8177   26.8157 C   0  0  0  0  0  0  0  0  0  0  0  0
    6.0891  -15.1067   26.0275 N   0  0  0  0  0  0  0  0  0  0  0  0
    6.4666  -13.8023   25.9813 C   0  0  0  0  0  0  0  0  0  0  0  0
    5.9660  -12.7001   25.3277 C   0  0  0  0  0  0  0  0  0  0  0  0
    6.5824  -11.4836   25.4826 C   0  0  0  0  0  0  0  0  0  0  0  0
    7.6949  -11.4230   26.3012 C   0  0  0  0  0  0  0  0  0  0  0  0
    8.2165  -12.5085   26.9666 C   0  0  0  0  0  0  0  0  0  0  0  0
    7.5774  -13.7188   26.7931 C   0  0  0  0  0  0  0  0  0  0  0  0
   10.9572  -16.7118   28.3067 C   0  0  0  0  0  0  0  0  0  0  0  0
   11.0860  -18.0595   28.0292 O   0  0  0  0  0  0  0  0  0  0  0  0
   11.5312  -16.2562   29.3222 O   0  0  0  0  0  0  0  0  0  0  0  0
  2  1  1  6
  2  9  1  0
  2  3  1  0
  3  4  1  0
  4  8  1  0
  5  6  1  0
  5  4  2  0
  6  7  1  0
  7  8  2  0
  9 10  2  0
 11 12  1  0
 11  9  1  0
 12 15  1  0
 12 13  1  6
 14 13  1  0
 15 17  1  0
 16 15  2  0
 17 18  1  0
 18 19  1  1
 19 20  1  0
 20 28  1  0
 20 21  2  0
 21 22  1  0
 23 22  1  0
 23 24  2  0
 25 24  1  0
 26 25  2  0
 27 28  2  0
 27 26  1  0
 28 23  1  0
 29 30  1  0
 29 18  1  0
 31 29  2  0
M  END
$$$$
