HCW.pdb
     RDKit          3D

 31 33  0  0  1  0  0  0  0  0999 V2000
    9.4704  -18.3155   17.4272 N   0  0  0  0  0  0  0  0  0  0  0  0
   10.1690  -17.5279   18.4078 C   0  0  1  0  0  0  0  0  0  0  0  0
   10.8256  -16.3606   17.7130 C   0  0  0  0  0  0  0  0  0  0  0  0
   11.9853  -16.7709   16.8982 C   0  0  0  0  0  0  0  0  0  0  0  0
   13.1946  -17.1492   17.4377 C   0  0  0  0  0  0  0  0  0  0  0  0
   14.0291  -17.4604   16.4416 N   0  0  0  0  0  0  0  0  0  0  0  0
   13.3541  -17.2799   15.3029 C   0  0  0  0  0  0  0  0  0  0  0  0
   12.1152  -16.8623   15.5718 N   0  0  0  0  0  0  0  0  0  0  0  0
    9.2952  -17.1137   19.5282 C   0  0  0  0  0  0  0  0  0  0  0  0
    8.1351  -16.6817   19.3065 O   0  0  0  0  0  0  0  0  0  0  0  0
    9.7080  -17.1787   20.8935 N   0  0  0  0  0  0  0  0  0  0  0  0
    8.8270  -17.2682   22.0086 C   0  0  1  0  0  0  0  0  0  0  0  0
    7.8469  -18.4227   21.8967 C   0  0  0  0  0  0  0  0  0  0  0  0
    6.8776  -18.6167   23.4049 S   0  0  0  0  0  0  0  0  0  0  0  0
    9.5371  -17.4162   23.3054 C   0  0  0  0  0  0  0  0  0  0  0  0
   10.2469  -18.4343   23.5184 O   0  0  0  0  0  0  0  0  0  0  0  0
    9.4541  -16.4488   24.3364 N   0  0  0  0  0  0  0  0  0  0  0  0
   10.2010  -16.5180   25.5828 C   0  0  1  0  0  0  0  0  0  0  0  0
    9.9382  -15.2799   26.4185 C   0  0  0  0  0  0  0  0  0  0  0  0
    8.5139  -14.8809   26.2978 C   0  0  0  0  0  0  0  0  0  0  0  0
    7.4197  -15.7050   26.3542 C   0  0  0  0  0  0  0  0  0  0  0  0
    6.3229  -14.9571   26.2007 N   0  0  0  0  0  0  0  0  0  0  0  0
    6.6402  -13.6456   26.0411 C   0  0  0  0  0  0  0  0  0  0  0  0
    5.8857  -12.5108   25.8526 C   0  0  0  0  0  0  0  0  0  0  0  0
    6.5113  -11.2963   25.7208 C   0  0  0  0  0  0  0  0  0  0  0  0
    7.8922  -11.2709   25.7849 C   0  0  0  0  0  0  0  0  0  0  0  0
    8.6711  -12.3895   25.9726 C   0  0  0  0  0  0  0  0  0  0  0  0
    8.0163  -13.5970   26.1020 C   0  0  0  0  0  0  0  0  0  0  0  0
    9.7018  -17.6897   26.3380 C   0  0  0  0  0  0  0  0  0  0  0  0
   10.3817  -18.1999   27.4275 O   0  0  0  0  0  0  0  0  0  0  0  0
    8.6341  -18.2440   25.9902 O   0  0  0  0  0  0  0  0  0  0  0  0
  2  1  1  6
  2  9  1  0
  2  3  1  0
  3  4  1  0
  4  8  1  0
  5  6  1  0
  5  4  2  0
  6  7  1  0
  7  8  2  0
  9 10  2  0
 11 12  1  0
 11  9  1  0
 12 15  1  0
 12 13  1  6
 14 13  1  0
 15 17  1  0
 16 15  2  0
 17 18  1  0
 18 19  1  1
 19 20  1  0
 20 28  1  0
 20 21  2  0
 21 22  1  0
 23 22  1  0
 23 24  2  0
 25 24  1  0
 26 25  2  0
 27 28  2  0
 27 26  1  0
 28 23  1  0
 29 30  1  0
 29 18  1  0
 31 29  2  0
M  END
$$$$
