MKR.pdb
     RDKit          3D

 29 28  0  0  1  0  0  0  0  0999 V2000
   25.7095  -18.4210  -21.2191 C   0  0  0  0  0  0  0  0  0  0  0  0
   27.5132  -18.4911  -21.3726 S   0  0  0  0  0  0  0  0  0  0  0  0
   28.2322  -18.7709  -19.7092 C   0  0  0  0  0  0  0  0  0  0  0  0
   27.2619  -19.5441  -18.8799 C   0  0  0  0  0  0  0  0  0  0  0  0
   26.7130  -18.7650  -17.7190 C   0  0  2  0  0  0  0  0  0  0  0  0
   27.6871  -18.0879  -16.9251 N   0  0  0  0  0  0  0  0  0  0  0  0
   25.8479  -19.5831  -16.8405 C   0  0  0  0  0  0  0  0  0  0  0  0
   24.9246  -20.3085  -17.3014 O   0  0  0  0  0  0  0  0  0  0  0  0
   26.0672  -19.5456  -15.4422 N   0  0  0  0  0  0  0  0  0  0  0  0
   25.2423  -20.2555  -14.4914 C   0  0  1  0  0  0  0  0  0  0  0  0
   25.8657  -20.1044  -13.1214 C   0  0  0  0  0  0  0  0  0  0  0  0
   25.0599  -20.7469  -12.0433 C   0  0  0  0  0  0  0  0  0  0  0  0
   25.7062  -20.5124  -10.7050 C   0  0  0  0  0  0  0  0  0  0  0  0
   24.9120  -21.0030   -9.5385 C   0  0  0  0  0  0  0  0  0  0  0  0
   25.5294  -20.5186   -8.2942 N   0  0  0  0  0  0  0  0  0  0  0  0
   23.8413  -19.7448  -14.5029 C   0  0  0  0  0  0  0  0  0  0  0  0
   23.6325  -18.5424  -14.2193 O   0  0  0  0  0  0  0  0  0  0  0  0
   16.2933  -22.1379  -16.5559 N   0  0  0  0  0  0  0  0  0  0  0  0
   17.4134  -22.8196  -17.0916 C   0  0  0  0  0  0  0  0  0  0  0  0
   17.3380  -24.1097  -17.2149 N   0  0  0  0  0  0  0  0  0  0  0  0
   18.5783  -22.1057  -17.4810 N   0  0  0  0  0  0  0  0  0  0  0  0
   18.6317  -20.6722  -17.4252 C   0  0  0  0  0  0  0  0  0  0  0  0
   19.2110  -20.1336  -16.1317 C   0  0  0  0  0  0  0  0  0  0  0  0
   20.6347  -20.5478  -16.0063 C   0  0  0  0  0  0  0  0  0  0  0  0
   21.3405  -20.0637  -14.7716 C   0  0  2  0  0  0  0  0  0  0  0  0
   22.7270  -20.5565  -14.8208 N   0  0  0  0  0  0  0  0  0  0  0  0
   20.6812  -20.4707  -13.5271 C   0  0  0  0  0  0  0  0  0  0  0  0
   21.0552  -21.4761  -12.8289 O   0  0  0  0  0  0  0  0  0  0  0  0
   19.5900  -19.7911  -13.0064 O   0  0  0  0  0  0  0  0  0  0  0  0
  2  3  1  0
  2  1  1  0
  4  5  1  0
  4  3  1  0
  5  6  1  1
  7  5  1  0
  7  8  2  0
  9  7  1  0
 10  9  1  0
 10 11  1  1
 12 13  1  0
 12 11  1  0
 13 14  1  0
 14 15  1  0
 16 17  2  0
 16 10  1  0
 19 18  1  0
 20 19  2  0
 21 19  1  0
 22 21  1  0
 22 23  1  0
 23 24  1  0
 25 24  1  6
 25 26  1  0
 25 27  1  0
 26 16  1  0
 27 29  1  0
 28 27  2  0
M  END
$$$$
