MKR.pdb
     RDKit          3D

 29 28  0  0  1  0  0  0  0  0999 V2000
   27.3176  -18.7221   -6.8185 C   0  0  0  0  0  0  0  0  0  0  0  0
   27.9357  -20.4159   -6.6439 S   0  0  0  0  0  0  0  0  0  0  0  0
   28.0477  -21.1732   -8.3101 C   0  0  0  0  0  0  0  0  0  0  0  0
   27.0447  -20.5302   -9.2089 C   0  0  0  0  0  0  0  0  0  0  0  0
   27.0886  -21.0446  -10.6193 C   0  0  2  0  0  0  0  0  0  0  0  0
   28.3868  -21.3914  -11.1009 N   0  0  0  0  0  0  0  0  0  0  0  0
   26.4379  -20.1281  -11.5817 C   0  0  0  0  0  0  0  0  0  0  0  0
   25.2180  -19.8207  -11.4900 O   0  0  0  0  0  0  0  0  0  0  0  0
   27.2124  -19.5840  -12.6347 N   0  0  0  0  0  0  0  0  0  0  0  0
   26.6523  -18.7796  -13.6965 C   0  0  1  0  0  0  0  0  0  0  0  0
   27.7922  -18.2524  -14.5398 C   0  0  0  0  0  0  0  0  0  0  0  0
   27.3265  -17.4619  -15.7157 C   0  0  0  0  0  0  0  0  0  0  0  0
   27.0813  -16.0329  -15.3138 C   0  0  0  0  0  0  0  0  0  0  0  0
   26.7025  -15.1282  -16.4410 C   0  0  0  0  0  0  0  0  0  0  0  0
   26.4598  -13.7757  -15.9157 N   0  0  0  0  0  0  0  0  0  0  0  0
   25.6925  -19.5667  -14.5230 C   0  0  0  0  0  0  0  0  0  0  0  0
   25.9742  -20.7523  -14.8140 O   0  0  0  0  0  0  0  0  0  0  0  0
   19.0281  -23.1536  -14.9850 N   0  0  0  0  0  0  0  0  0  0  0  0
   19.9480  -24.1409  -14.5543 C   0  0  0  0  0  0  0  0  0  0  0  0
   19.7272  -25.3714  -14.9040 N   0  0  0  0  0  0  0  0  0  0  0  0
   21.0755  -23.7865  -13.7659 N   0  0  0  0  0  0  0  0  0  0  0  0
   21.3608  -22.4180  -13.4397 C   0  0  0  0  0  0  0  0  0  0  0  0
   21.6908  -21.5598  -14.6453 C   0  0  0  0  0  0  0  0  0  0  0  0
   22.9324  -20.7820  -14.3854 C   0  0  0  0  0  0  0  0  0  0  0  0
   23.3766  -19.8839  -15.5048 C   0  0  2  0  0  0  0  0  0  0  0  0
   24.4697  -19.0374  -14.9988 N   0  0  0  0  0  0  0  0  0  0  0  0
   22.2932  -19.0677  -16.0609 C   0  0  0  0  0  0  0  0  0  0  0  0
   21.6429  -19.3860  -17.1163 O   0  0  0  0  0  0  0  0  0  0  0  0
   21.8866  -17.8755  -15.4803 O   0  0  0  0  0  0  0  0  0  0  0  0
  2  3  1  0
  2  1  1  0
  4  5  1  0
  4  3  1  0
  5  6  1  6
  7  5  1  0
  7  8  2  0
  9  7  1  0
 10  9  1  0
 10 11  1  6
 12 13  1  0
 12 11  1  0
 13 14  1  0
 14 15  1  0
 16 17  2  0
 16 10  1  0
 19 18  1  0
 20 19  2  0
 21 19  1  0
 22 21  1  0
 22 23  1  0
 23 24  1  0
 25 24  1  1
 25 26  1  0
 25 27  1  0
 26 16  1  0
 27 29  1  0
 28 27  2  0
M  END
$$$$
