MKR.pdb
     RDKit          3D

 29 28  0  0  1  0  0  0  0  0999 V2000
   32.8488  -25.5610  -22.7022 C   0  0  0  0  0  0  0  0  0  0  0  0
   33.2236  -26.8837  -21.5227 S   0  0  0  0  0  0  0  0  0  0  0  0
   33.0508  -26.2189  -19.8226 C   0  0  0  0  0  0  0  0  0  0  0  0
   33.1992  -24.7343  -19.8597 C   0  0  0  0  0  0  0  0  0  0  0  0
   33.2464  -24.1035  -18.4975 C   0  0  2  0  0  0  0  0  0  0  0  0
   34.2672  -24.5996  -17.6318 N   0  0  0  0  0  0  0  0  0  0  0  0
   31.9432  -24.1559  -17.7987 C   0  0  0  0  0  0  0  0  0  0  0  0
   31.7285  -24.9547  -16.8463 O   0  0  0  0  0  0  0  0  0  0  0  0
   30.9105  -23.2819  -18.2163 N   0  0  0  0  0  0  0  0  0  0  0  0
   29.6350  -23.1842  -17.5442 C   0  0  1  0  0  0  0  0  0  0  0  0
   29.0279  -21.8396  -17.8787 C   0  0  0  0  0  0  0  0  0  0  0  0
   27.6635  -21.6600  -17.3037 C   0  0  0  0  0  0  0  0  0  0  0  0
   27.0927  -20.3350  -17.7308 C   0  0  0  0  0  0  0  0  0  0  0  0
   25.7476  -20.0260  -17.1582 C   0  0  0  0  0  0  0  0  0  0  0  0
   25.2714  -18.7458  -17.7045 N   0  0  0  0  0  0  0  0  0  0  0  0
   28.7264  -24.2975  -17.9429 C   0  0  0  0  0  0  0  0  0  0  0  0
   28.6771  -24.6372  -19.1478 O   0  0  0  0  0  0  0  0  0  0  0  0
   27.8944  -32.1039  -14.6254 N   0  0  0  0  0  0  0  0  0  0  0  0
   27.0632  -32.1731  -15.7703 C   0  0  0  0  0  0  0  0  0  0  0  0
   26.6556  -33.3438  -16.1557 N   0  0  0  0  0  0  0  0  0  0  0  0
   26.6906  -30.9930  -16.4680 N   0  0  0  0  0  0  0  0  0  0  0  0
   27.1989  -29.7057  -16.0868 C   0  0  0  0  0  0  0  0  0  0  0  0
   26.6965  -28.5699  -16.9565 C   0  0  0  0  0  0  0  0  0  0  0  0
   27.4548  -27.3270  -16.6496 C   0  0  0  0  0  0  0  0  0  0  0  0
   27.0302  -26.1068  -17.4164 C   0  0  2  0  0  0  0  0  0  0  0  0
   27.9108  -24.9951  -17.0211 N   0  0  0  0  0  0  0  0  0  0  0  0
   25.6203  -25.7571  -17.2192 C   0  0  0  0  0  0  0  0  0  0  0  0
   25.2206  -24.9113  -16.3456 O   0  0  0  0  0  0  0  0  0  0  0  0
   24.6011  -26.3225  -17.9712 O   0  0  0  0  0  0  0  0  0  0  0  0
  2  3  1  0
  2  1  1  0
  4  5  1  0
  4  3  1  0
  5  6  1  1
  7  5  1  0
  7  8  2  0
  9  7  1  0
 10  9  1  0
 10 11  1  6
 12 13  1  0
 12 11  1  0
 13 14  1  0
 14 15  1  0
 16 17  2  0
 16 10  1  0
 19 18  1  0
 20 19  2  0
 21 19  1  0
 22 21  1  0
 22 23  1  0
 23 24  1  0
 25 24  1  1
 25 26  1  0
 25 27  1  0
 26 16  1  0
 27 29  1  0
 28 27  2  0
M  END
$$$$
