MKR.pdb
     RDKit          3D

 29 28  0  0  1  0  0  0  0  0999 V2000
   20.8786  -15.3326  -18.8185 C   0  0  0  0  0  0  0  0  0  0  0  0
   22.1471  -14.2559  -19.5348 S   0  0  0  0  0  0  0  0  0  0  0  0
   23.6911  -14.4432  -18.5635 C   0  0  0  0  0  0  0  0  0  0  0  0
   23.7335  -15.8119  -17.9700 C   0  0  0  0  0  0  0  0  0  0  0  0
   24.7199  -15.9461  -16.8454 C   0  0  2  0  0  0  0  0  0  0  0  0
   25.9537  -15.2528  -17.0317 N   0  0  0  0  0  0  0  0  0  0  0  0
   24.9985  -17.3566  -16.4957 C   0  0  0  0  0  0  0  0  0  0  0  0
   24.0763  -18.1665  -16.2045 O   0  0  0  0  0  0  0  0  0  0  0  0
   26.3417  -17.8042  -16.4888 N   0  0  0  0  0  0  0  0  0  0  0  0
   26.7351  -19.1236  -16.0497 C   0  0  1  0  0  0  0  0  0  0  0  0
   28.1951  -19.3190  -16.3937 C   0  0  0  0  0  0  0  0  0  0  0  0
   28.7444  -20.6075  -15.8813 C   0  0  0  0  0  0  0  0  0  0  0  0
   28.5471  -21.6958  -16.9013 C   0  0  0  0  0  0  0  0  0  0  0  0
   29.0978  -23.0263  -16.5026 C   0  0  0  0  0  0  0  0  0  0  0  0
   28.8179  -24.0043  -17.5654 N   0  0  0  0  0  0  0  0  0  0  0  0
   26.4998  -19.3000  -14.5877 C   0  0  0  0  0  0  0  0  0  0  0  0
   27.1023  -18.5525  -13.7827 O   0  0  0  0  0  0  0  0  0  0  0  0
   18.9487  -19.9432  -13.0915 N   0  0  0  0  0  0  0  0  0  0  0  0
   19.3881  -21.2835  -13.2223 C   0  0  0  0  0  0  0  0  0  0  0  0
   18.5287  -22.1681  -13.6273 N   0  0  0  0  0  0  0  0  0  0  0  0
   20.7297  -21.6394  -12.9192 N   0  0  0  0  0  0  0  0  0  0  0  0
   21.7266  -20.6420  -12.6506 C   0  0  0  0  0  0  0  0  0  0  0  0
   23.0758  -21.2167  -12.2655 C   0  0  0  0  0  0  0  0  0  0  0  0
   24.0901  -20.1292  -12.2128 C   0  0  0  0  0  0  0  0  0  0  0  0
   25.4819  -20.5259  -12.6157 C   0  0  2  0  0  0  0  0  0  0  0  0
   25.6230  -20.2768  -14.0598 N   0  0  0  0  0  0  0  0  0  0  0  0
   25.8087  -21.9168  -12.2872 C   0  0  0  0  0  0  0  0  0  0  0  0
   25.7100  -22.8795  -13.1249 O   0  0  0  0  0  0  0  0  0  0  0  0
   26.2533  -22.2999  -11.0305 O   0  0  0  0  0  0  0  0  0  0  0  0
  2  3  1  0
  2  1  1  0
  4  5  1  0
  4  3  1  0
  5  6  1  6
  7  5  1  0
  7  8  2  0
  9  7  1  0
 10  9  1  0
 10 11  1  1
 12 13  1  0
 12 11  1  0
 13 14  1  0
 14 15  1  0
 16 17  2  0
 16 10  1  0
 19 18  1  0
 20 19  2  0
 21 19  1  0
 22 21  1  0
 22 23  1  0
 23 24  1  0
 25 24  1  6
 25 26  1  0
 25 27  1  0
 26 16  1  0
 27 29  1  0
 28 27  2  0
M  END
$$$$
