MKR.pdb
     RDKit          3D

 29 28  0  0  1  0  0  0  0  0999 V2000
   17.9396  -27.6019    4.5291 C   0  0  0  0  0  0  0  0  0  0  0  0
   18.3895  -26.7528    2.9935 S   0  0  0  0  0  0  0  0  0  0  0  0
   17.3375  -27.3981    1.6374 C   0  0  0  0  0  0  0  0  0  0  0  0
   17.6939  -26.7012    0.3668 C   0  0  0  0  0  0  0  0  0  0  0  0
   16.8338  -27.1023   -0.7973 C   0  0  2  0  0  0  0  0  0  0  0  0
   17.2397  -28.2926   -1.4727 N   0  0  0  0  0  0  0  0  0  0  0  0
   16.6643  -26.0127   -1.7840 C   0  0  0  0  0  0  0  0  0  0  0  0
   16.3036  -24.8533   -1.4423 O   0  0  0  0  0  0  0  0  0  0  0  0
   16.9151  -26.2860   -3.1505 N   0  0  0  0  0  0  0  0  0  0  0  0
   16.7290  -25.3110   -4.2006 C   0  0  1  0  0  0  0  0  0  0  0  0
   17.4688  -25.7939   -5.4286 C   0  0  0  0  0  0  0  0  0  0  0  0
   17.3251  -24.8722   -6.5923 C   0  0  0  0  0  0  0  0  0  0  0  0
   18.2196  -25.3166   -7.7175 C   0  0  0  0  0  0  0  0  0  0  0  0
   18.1378  -24.4700   -8.9459 C   0  0  0  0  0  0  0  0  0  0  0  0
   19.1992  -24.8712   -9.8821 N   0  0  0  0  0  0  0  0  0  0  0  0
   15.2820  -25.1007   -4.4938 C   0  0  0  0  0  0  0  0  0  0  0  0
   14.5427  -26.1010   -4.6435 O   0  0  0  0  0  0  0  0  0  0  0  0
   10.9557  -17.7637   -3.0598 N   0  0  0  0  0  0  0  0  0  0  0  0
   10.1784  -18.7878   -3.6543 C   0  0  0  0  0  0  0  0  0  0  0  0
    8.8861  -18.6724   -3.6119 N   0  0  0  0  0  0  0  0  0  0  0  0
   10.8019  -19.9021   -4.2771 N   0  0  0  0  0  0  0  0  0  0  0  0
   12.2212  -19.9447   -4.4883 C   0  0  0  0  0  0  0  0  0  0  0  0
   12.6895  -21.1773   -5.2367 C   0  0  0  0  0  0  0  0  0  0  0  0
   12.8508  -22.3120   -4.2876 C   0  0  0  0  0  0  0  0  0  0  0  0
   13.2692  -23.6154   -4.9064 C   0  0  2  0  0  0  0  0  0  0  0  0
   14.6975  -23.8178   -4.6121 N   0  0  0  0  0  0  0  0  0  0  0  0
   13.0143  -23.6833   -6.3485 C   0  0  0  0  0  0  0  0  0  0  0  0
   13.9178  -23.4842   -7.2329 O   0  0  0  0  0  0  0  0  0  0  0  0
   11.7616  -23.9706   -6.8700 O   0  0  0  0  0  0  0  0  0  0  0  0
  2  3  1  0
  2  1  1  0
  4  5  1  0
  4  3  1  0
  5  6  1  6
  7  5  1  0
  7  8  2  0
  9  7  1  0
 10  9  1  0
 10 11  1  6
 12 13  1  0
 12 11  1  0
 13 14  1  0
 14 15  1  0
 16 17  2  0
 16 10  1  0
 19 18  1  0
 20 19  2  0
 21 19  1  0
 22 21  1  0
 22 23  1  0
 23 24  1  0
 25 24  1  6
 25 26  1  0
 25 27  1  0
 26 16  1  0
 27 29  1  0
 28 27  2  0
M  END
$$$$
