MKR.pdb
     RDKit          3D

 29 28  0  0  1  0  0  0  0  0999 V2000
   28.8300  -19.5438   -6.8287 C   0  0  0  0  0  0  0  0  0  0  0  0
   27.0516  -19.5057   -7.1712 S   0  0  0  0  0  0  0  0  0  0  0  0
   26.5980  -21.0302   -8.0836 C   0  0  0  0  0  0  0  0  0  0  0  0
   26.9161  -20.8482   -9.5303 C   0  0  0  0  0  0  0  0  0  0  0  0
   25.7186  -20.4995  -10.3669 C   0  0  2  0  0  0  0  0  0  0  0  0
   24.6262  -21.4142  -10.2777 N   0  0  0  0  0  0  0  0  0  0  0  0
   26.0603  -20.2820  -11.7901 C   0  0  0  0  0  0  0  0  0  0  0  0
   26.2894  -19.1312  -12.2528 O   0  0  0  0  0  0  0  0  0  0  0  0
   26.1296  -21.4024  -12.6530 N   0  0  0  0  0  0  0  0  0  0  0  0
   26.2084  -21.2909  -14.0916 C   0  0  1  0  0  0  0  0  0  0  0  0
   27.2947  -22.2245  -14.5780 C   0  0  0  0  0  0  0  0  0  0  0  0
   28.2575  -21.5617  -15.5043 C   0  0  0  0  0  0  0  0  0  0  0  0
   29.3087  -22.5431  -15.9466 C   0  0  0  0  0  0  0  0  0  0  0  0
   30.2389  -22.0248  -16.9947 C   0  0  0  0  0  0  0  0  0  0  0  0
   31.2947  -23.0195  -17.2398 N   0  0  0  0  0  0  0  0  0  0  0  0
   24.8999  -21.6102  -14.7317 C   0  0  0  0  0  0  0  0  0  0  0  0
   24.3600  -22.7143  -14.4884 O   0  0  0  0  0  0  0  0  0  0  0  0
   18.2114  -22.8517  -14.2898 N   0  0  0  0  0  0  0  0  0  0  0  0
   18.3624  -22.3353  -12.9795 C   0  0  0  0  0  0  0  0  0  0  0  0
   17.3631  -22.4557  -12.1597 N   0  0  0  0  0  0  0  0  0  0  0  0
   19.5739  -21.7082  -12.5826 N   0  0  0  0  0  0  0  0  0  0  0  0
   20.0245  -20.4924  -13.1988 C   0  0  0  0  0  0  0  0  0  0  0  0
   20.5959  -20.6890  -14.5893 C   0  0  0  0  0  0  0  0  0  0  0  0
   22.0827  -20.6775  -14.5293 C   0  0  0  0  0  0  0  0  0  0  0  0
   22.7822  -20.7843  -15.8546 C   0  0  2  0  0  0  0  0  0  0  0  0
   24.2321  -20.7216  -15.6069 N   0  0  0  0  0  0  0  0  0  0  0  0
   22.3676  -19.7579  -16.8157 C   0  0  0  0  0  0  0  0  0  0  0  0
   22.8067  -18.5558  -16.7947 O   0  0  0  0  0  0  0  0  0  0  0  0
   21.4578  -20.0132  -17.8310 O   0  0  0  0  0  0  0  0  0  0  0  0
  2  3  1  0
  2  1  1  0
  4  5  1  0
  4  3  1  0
  5  6  1  6
  7  5  1  0
  7  8  2  0
  9  7  1  0
 10  9  1  0
 10 11  1  6
 12 13  1  0
 12 11  1  0
 13 14  1  0
 14 15  1  0
 16 17  2  0
 16 10  1  0
 19 18  1  0
 20 19  2  0
 21 19  1  0
 22 21  1  0
 22 23  1  0
 23 24  1  0
 25 24  1  1
 25 26  1  0
 25 27  1  0
 26 16  1  0
 27 29  1  0
 28 27  2  0
M  END
$$$$
