MKR.pdb
     RDKit          3D

 29 28  0  0  1  0  0  0  0  0999 V2000
   21.3676  -19.9892  -15.1098 C   0  0  0  0  0  0  0  0  0  0  0  0
   21.4896  -18.3346  -14.3825 S   0  0  0  0  0  0  0  0  0  0  0  0
   20.8041  -17.1197  -15.5725 C   0  0  0  0  0  0  0  0  0  0  0  0
   20.8012  -15.7662  -14.9438 C   0  0  0  0  0  0  0  0  0  0  0  0
   19.4238  -15.1999  -14.7490 C   0  0  2  0  0  0  0  0  0  0  0  0
   18.3527  -16.0479  -15.1632 N   0  0  0  0  0  0  0  0  0  0  0  0
   19.2615  -13.8669  -15.3704 C   0  0  0  0  0  0  0  0  0  0  0  0
   20.0979  -12.9401  -15.1894 O   0  0  0  0  0  0  0  0  0  0  0  0
   18.1318  -13.6304  -16.1905 N   0  0  0  0  0  0  0  0  0  0  0  0
   17.8768  -12.3665  -16.8429 C   0  0  1  0  0  0  0  0  0  0  0  0
   16.8120  -12.5855  -17.8948 C   0  0  0  0  0  0  0  0  0  0  0  0
   16.5488  -11.3685  -18.7160 C   0  0  0  0  0  0  0  0  0  0  0  0
   15.4768  -11.6527  -19.7327 C   0  0  0  0  0  0  0  0  0  0  0  0
   15.1896  -10.5200  -20.6638 C   0  0  0  0  0  0  0  0  0  0  0  0
   13.9871  -10.8334  -21.4512 N   0  0  0  0  0  0  0  0  0  0  0  0
   17.4555  -11.3260  -15.8612 C   0  0  0  0  0  0  0  0  0  0  0  0
   16.7269  -11.6609  -14.8986 O   0  0  0  0  0  0  0  0  0  0  0  0
   22.3052   -4.7202  -13.3938 N   0  0  0  0  0  0  0  0  0  0  0  0
   21.4360   -4.1598  -14.3618 C   0  0  0  0  0  0  0  0  0  0  0  0
   21.7003   -2.9659  -14.7975 N   0  0  0  0  0  0  0  0  0  0  0  0
   20.3133   -4.8893  -14.8368 N   0  0  0  0  0  0  0  0  0  0  0  0
   20.0540   -6.2324  -14.4011 C   0  0  0  0  0  0  0  0  0  0  0  0
   18.8274   -6.8544  -15.0394 C   0  0  0  0  0  0  0  0  0  0  0  0
   18.6196   -8.2257  -14.5004 C   0  0  0  0  0  0  0  0  0  0  0  0
   17.3987   -8.9394  -15.0075 C   0  0  2  0  0  0  0  0  0  0  0  0
   17.8408   -9.9685  -15.9630 N   0  0  0  0  0  0  0  0  0  0  0  0
   16.4123   -8.0431  -15.6181 C   0  0  0  0  0  0  0  0  0  0  0  0
   16.2083   -7.9764  -16.8799 O   0  0  0  0  0  0  0  0  0  0  0  0
   15.6174   -7.1895  -14.8676 O   0  0  0  0  0  0  0  0  0  0  0  0
  2  3  1  0
  2  1  1  0
  4  5  1  0
  4  3  1  0
  5  6  1  6
  7  5  1  0
  7  8  2  0
  9  7  1  0
 10  9  1  0
 10 11  1  6
 12 13  1  0
 12 11  1  0
 13 14  1  0
 14 15  1  0
 16 17  2  0
 16 10  1  0
 19 18  1  0
 20 19  2  0
 21 19  1  0
 22 21  1  0
 22 23  1  0
 23 24  1  0
 25 24  1  6
 25 26  1  0
 25 27  1  0
 26 16  1  0
 27 29  1  0
 28 27  2  0
M  END
$$$$
