MKR.pdb
     RDKit          3D

 29 28  0  0  1  0  0  0  0  0999 V2000
   28.6466  -19.9782   -4.6798 C   0  0  0  0  0  0  0  0  0  0  0  0
   29.1318  -18.7514   -5.9212 S   0  0  0  0  0  0  0  0  0  0  0  0
   28.3336  -19.1830   -7.5145 C   0  0  0  0  0  0  0  0  0  0  0  0
   29.2422  -20.0762   -8.2915 C   0  0  0  0  0  0  0  0  0  0  0  0
   28.5442  -21.2619   -8.8939 C   0  0  2  0  0  0  0  0  0  0  0  0
   29.3724  -22.1248   -9.6731 N   0  0  0  0  0  0  0  0  0  0  0  0
   27.3524  -20.8819   -9.6842 C   0  0  0  0  0  0  0  0  0  0  0  0
   27.4278  -20.5998  -10.9114 O   0  0  0  0  0  0  0  0  0  0  0  0
   26.0934  -20.8343   -9.0382 N   0  0  0  0  0  0  0  0  0  0  0  0
   24.8623  -21.2502   -9.6704 C   0  0  1  0  0  0  0  0  0  0  0  0
   23.7817  -21.2967   -8.6127 C   0  0  0  0  0  0  0  0  0  0  0  0
   22.4840  -21.8172   -9.1317 C   0  0  0  0  0  0  0  0  0  0  0  0
   21.4886  -21.9359   -8.0097 C   0  0  0  0  0  0  0  0  0  0  0  0
   20.1981  -22.5847   -8.3920 C   0  0  0  0  0  0  0  0  0  0  0  0
   19.3226  -22.6536   -7.2118 N   0  0  0  0  0  0  0  0  0  0  0  0
   24.4864  -20.3294  -10.7816 C   0  0  0  0  0  0  0  0  0  0  0  0
   24.4388  -19.0976  -10.5577 O   0  0  0  0  0  0  0  0  0  0  0  0
   23.9706  -17.9768  -18.6443 N   0  0  0  0  0  0  0  0  0  0  0  0
   25.3150  -18.2329  -18.2790 C   0  0  0  0  0  0  0  0  0  0  0  0
   26.2348  -17.4538  -18.7608 N   0  0  0  0  0  0  0  0  0  0  0  0
   25.6376  -19.3099  -17.4104 N   0  0  0  0  0  0  0  0  0  0  0  0
   24.6215  -20.1738  -16.8794 C   0  0  0  0  0  0  0  0  0  0  0  0
   23.9147  -19.6081  -15.6631 C   0  0  0  0  0  0  0  0  0  0  0  0
   24.3736  -20.3177  -14.4384 C   0  0  0  0  0  0  0  0  0  0  0  0
   23.7243  -19.8779  -13.1571 C   0  0  2  0  0  0  0  0  0  0  0  0
   24.1787  -20.7807  -12.0866 N   0  0  0  0  0  0  0  0  0  0  0  0
   22.2605  -19.8418  -13.2290 C   0  0  0  0  0  0  0  0  0  0  0  0
   21.5152  -20.8283  -12.8980 O   0  0  0  0  0  0  0  0  0  0  0  0
   21.5643  -18.7249  -13.6666 O   0  0  0  0  0  0  0  0  0  0  0  0
  2  3  1  0
  2  1  1  0
  4  5  1  0
  4  3  1  0
  5  6  1  6
  7  5  1  0
  7  8  2  0
  9  7  1  0
 10  9  1  0
 10 11  1  1
 12 13  1  0
 12 11  1  0
 13 14  1  0
 14 15  1  0
 16 17  2  0
 16 10  1  0
 19 18  1  0
 20 19  2  0
 21 19  1  0
 22 21  1  0
 22 23  1  0
 23 24  1  0
 25 24  1  6
 25 26  1  0
 25 27  1  0
 26 16  1  0
 27 29  1  0
 28 27  2  0
M  END
$$$$
