IVL.pdb
     RDKit          3D

 24 23  0  0  1  0  0  0  0  0999 V2000
    7.7187  -12.0704   18.1339 C   0  0  0  0  0  0  0  0  0  0  0  0
    7.9925  -13.5174   18.3633 C   0  0  0  0  0  0  0  0  0  0  0  0
    7.6097  -14.0000   19.7613 C   0  0  2  0  0  0  0  0  0  0  0  0
    8.4148  -13.1372   20.7104 C   0  0  0  0  0  0  0  0  0  0  0  0
    8.0758  -15.4493   19.8721 C   0  0  2  0  0  0  0  0  0  0  0  0
    7.1949  -16.1835   18.9465 N   0  0  0  0  0  0  0  0  0  0  0  0
    7.8951  -16.0286   21.2002 C   0  0  0  0  0  0  0  0  0  0  0  0
    6.7134  -16.1528   21.6669 O   0  0  0  0  0  0  0  0  0  0  0  0
    8.8731  -19.3342   22.6762 C   0  0  0  0  0  0  0  0  0  0  0  0
    9.4503  -18.2647   23.5676 C   0  0  1  0  0  0  0  0  0  0  0  0
   10.8997  -18.0727   23.2438 C   0  0  0  0  0  0  0  0  0  0  0  0
    8.6660  -16.9564   23.4220 C   0  0  2  0  0  0  0  0  0  0  0  0
    8.9136  -16.4914   22.0733 N   0  0  0  0  0  0  0  0  0  0  0  0
    9.2046  -16.0317   24.4467 C   0  0  0  0  0  0  0  0  0  0  0  0
   10.3188  -15.4655   24.3568 O   0  0  0  0  0  0  0  0  0  0  0  0
    7.7843  -12.4315   25.3529 C   0  0  0  0  0  0  0  0  0  0  0  0
    7.6008  -12.7931   26.7918 C   0  0  1  0  0  0  0  0  0  0  0  0
    6.2338  -12.2881   27.2996 C   0  0  0  0  0  0  0  0  0  0  0  0
    7.8322  -14.1738   27.2077 C   0  0  0  0  0  0  0  0  0  0  0  0
    8.9894  -14.9686   26.6974 C   0  0  2  0  0  0  0  0  0  0  0  0
    8.4037  -15.7850   25.5837 N   0  0  0  0  0  0  0  0  0  0  0  0
    9.4932  -15.9352   27.6591 C   0  0  0  0  0  0  0  0  0  0  0  0
   10.4908  -15.7422   28.5860 O   0  0  0  0  0  0  0  0  0  0  0  0
    8.9846  -17.1139   27.6746 O   0  0  0  0  0  0  0  0  0  0  0  0
  2  1  1  0
  3  2  1  0
  3  4  1  1
  5  3  1  0
  5  7  1  0
  5  6  1  6
  7  8  2  0
 10 12  1  0
 10 11  1  6
 10  9  1  0
 13  7  1  0
 12 13  1  6
 14 12  1  0
 14 15  2  0
 17 19  1  0
 17 16  1  6
 18 17  1  0
 20 19  1  1
 20 21  1  0
 20 22  1  0
 21 14  1  0
 22 23  1  0
 24 22  2  0
M  END
$$$$
