IVL.pdb
     RDKit          3D

 24 23  0  0  1  0  0  0  0  0999 V2000
    5.7946  -10.9212   26.5584 C   0  0  0  0  0  0  0  0  0  0  0  0
    5.5064  -12.2609   25.9723 C   0  0  0  0  0  0  0  0  0  0  0  0
    6.7461  -13.1382   25.8079 C   0  0  2  0  0  0  0  0  0  0  0  0
    7.6696  -12.3499   24.9027 C   0  0  0  0  0  0  0  0  0  0  0  0
    6.2968  -14.4097   25.0930 C   0  0  2  0  0  0  0  0  0  0  0  0
    5.4453  -15.0970   26.0801 N   0  0  0  0  0  0  0  0  0  0  0  0
    7.3908  -15.3151   24.7532 C   0  0  0  0  0  0  0  0  0  0  0  0
    7.8040  -16.1452   25.6307 O   0  0  0  0  0  0  0  0  0  0  0  0
   10.5433  -17.0767   21.3171 C   0  0  0  0  0  0  0  0  0  0  0  0
    9.6928  -15.9562   21.8580 C   0  0  1  0  0  0  0  0  0  0  0  0
    8.5579  -15.6912   20.9175 C   0  0  0  0  0  0  0  0  0  0  0  0
    9.1871  -16.2904   23.2654 C   0  0  2  0  0  0  0  0  0  0  0  0
    8.0806  -15.3906   23.5154 N   0  0  0  0  0  0  0  0  0  0  0  0
   10.3257  -16.0552   24.1838 C   0  0  0  0  0  0  0  0  0  0  0  0
   11.2789  -15.2833   23.9276 O   0  0  0  0  0  0  0  0  0  0  0  0
    9.4367  -14.9228   29.2425 C   0  0  0  0  0  0  0  0  0  0  0  0
   10.0743  -15.1035   27.9024 C   0  0  1  0  0  0  0  0  0  0  0  0
   10.8447  -13.8282   27.5007 C   0  0  0  0  0  0  0  0  0  0  0  0
   10.8811  -16.2964   27.6598 C   0  0  0  0  0  0  0  0  0  0  0  0
   11.4978  -16.5749   26.3281 C   0  0  2  0  0  0  0  0  0  0  0  0
   10.3211  -16.7486   25.4144 N   0  0  0  0  0  0  0  0  0  0  0  0
   12.2137  -17.8390   26.2778 C   0  0  0  0  0  0  0  0  0  0  0  0
   11.7145  -19.0616   25.8933 O   0  0  0  0  0  0  0  0  0  0  0  0
   13.4481  -17.8644   26.6297 O   0  0  0  0  0  0  0  0  0  0  0  0
  2  1  1  0
  3  2  1  0
  3  4  1  6
  5  3  1  0
  5  7  1  0
  5  6  1  1
  7  8  2  0
 10 12  1  0
 10 11  1  6
 10  9  1  0
 13  7  1  0
 12 13  1  1
 14 12  1  0
 14 15  2  0
 17 19  1  0
 17 16  1  1
 18 17  1  0
 20 19  1  1
 20 21  1  0
 20 22  1  0
 21 14  1  0
 22 23  1  0
 24 22  2  0
M  END
$$$$
