IVL.pdb
     RDKit          3D

 24 23  0  0  1  0  0  0  0  0999 V2000
    5.5017  -11.5986   26.6433 C   0  0  0  0  0  0  0  0  0  0  0  0
    5.2749  -12.9751   26.1188 C   0  0  0  0  0  0  0  0  0  0  0  0
    6.5639  -13.7526   25.8585 C   0  0  2  0  0  0  0  0  0  0  0  0
    7.3614  -12.8863   24.9062 C   0  0  0  0  0  0  0  0  0  0  0  0
    6.1654  -15.0475   25.1556 C   0  0  2  0  0  0  0  0  0  0  0  0
    5.4935  -15.8354   26.2041 N   0  0  0  0  0  0  0  0  0  0  0  0
    7.2990  -15.8334   24.6766 C   0  0  0  0  0  0  0  0  0  0  0  0
    7.5902  -16.9262   25.2688 O   0  0  0  0  0  0  0  0  0  0  0  0
   10.2691  -14.3610   22.1349 C   0  0  0  0  0  0  0  0  0  0  0  0
    9.7493  -15.7437   21.8360 C   0  0  1  0  0  0  0  0  0  0  0  0
   10.8409  -16.5668   21.2249 C   0  0  0  0  0  0  0  0  0  0  0  0
    9.1962  -16.4008   23.1050 C   0  0  2  0  0  0  0  0  0  0  0  0
    8.1531  -15.5202   23.5875 N   0  0  0  0  0  0  0  0  0  0  0  0
   10.3324  -16.5027   24.0504 C   0  0  0  0  0  0  0  0  0  0  0  0
   11.4819  -16.8763   23.7199 O   0  0  0  0  0  0  0  0  0  0  0  0
    8.9950  -14.6360   29.1852 C   0  0  0  0  0  0  0  0  0  0  0  0
    9.6962  -14.7732   27.8721 C   0  0  1  0  0  0  0  0  0  0  0  0
   10.3559  -13.4354   27.4761 C   0  0  0  0  0  0  0  0  0  0  0  0
   10.6216  -15.8864   27.6790 C   0  0  0  0  0  0  0  0  0  0  0  0
   11.2457  -16.1732   26.3525 C   0  0  2  0  0  0  0  0  0  0  0  0
   10.0890  -16.1551   25.3977 N   0  0  0  0  0  0  0  0  0  0  0  0
   11.8034  -17.5121   26.2556 C   0  0  0  0  0  0  0  0  0  0  0  0
   13.0479  -17.9255   26.6701 O   0  0  0  0  0  0  0  0  0  0  0  0
   11.0931  -18.4403   25.7244 O   0  0  0  0  0  0  0  0  0  0  0  0
  2  1  1  0
  3  2  1  0
  3  4  1  6
  5  3  1  0
  5  7  1  0
  5  6  1  1
  7  8  2  0
 10 12  1  0
 10 11  1  1
 10  9  1  0
 13  7  1  0
 12 13  1  1
 14 12  1  0
 14 15  2  0
 17 19  1  0
 17 16  1  1
 18 17  1  0
 20 19  1  1
 20 21  1  0
 20 22  1  0
 21 14  1  0
 22 23  1  0
 24 22  2  0
M  END
$$$$
