IVL.pdb
     RDKit          3D

 24 23  0  0  1  0  0  0  0  0999 V2000
    6.1206  -11.1117   26.7206 C   0  0  0  0  0  0  0  0  0  0  0  0
    5.7810  -12.3931   26.0393 C   0  0  0  0  0  0  0  0  0  0  0  0
    6.9708  -13.3383   25.8821 C   0  0  2  0  0  0  0  0  0  0  0  0
    7.9797  -12.5682   25.0559 C   0  0  0  0  0  0  0  0  0  0  0  0
    6.4763  -14.5436   25.0868 C   0  0  2  0  0  0  0  0  0  0  0  0
    5.4917  -15.1841   25.9770 N   0  0  0  0  0  0  0  0  0  0  0  0
    7.5144  -15.5299   24.8012 C   0  0  0  0  0  0  0  0  0  0  0  0
    7.9101  -16.3024   25.7374 O   0  0  0  0  0  0  0  0  0  0  0  0
   10.8141  -17.4795   21.5899 C   0  0  0  0  0  0  0  0  0  0  0  0
    9.7204  -16.4966   21.9207 C   0  0  1  0  0  0  0  0  0  0  0  0
    8.5566  -16.7167   21.0044 C   0  0  0  0  0  0  0  0  0  0  0  0
    9.3068  -16.6208   23.3909 C   0  0  2  0  0  0  0  0  0  0  0  0
    8.1651  -15.7462   23.5589 N   0  0  0  0  0  0  0  0  0  0  0  0
   10.4754  -16.1849   24.1907 C   0  0  0  0  0  0  0  0  0  0  0  0
   11.2235  -15.2327   23.8685 O   0  0  0  0  0  0  0  0  0  0  0  0
    9.7600  -15.3164   29.3134 C   0  0  0  0  0  0  0  0  0  0  0  0
   10.3217  -15.3393   27.9281 C   0  0  1  0  0  0  0  0  0  0  0  0
   10.7805  -13.9252   27.5140 C   0  0  0  0  0  0  0  0  0  0  0  0
   11.3378  -16.3339   27.5948 C   0  0  0  0  0  0  0  0  0  0  0  0
   11.9094  -16.4482   26.2195 C   0  0  2  0  0  0  0  0  0  0  0  0
   10.7479  -16.8939   25.3816 N   0  0  0  0  0  0  0  0  0  0  0  0
   12.9014  -17.5033   26.0939 C   0  0  0  0  0  0  0  0  0  0  0  0
   12.6784  -18.8169   25.7531 O   0  0  0  0  0  0  0  0  0  0  0  0
   14.1331  -17.2239   26.3248 O   0  0  0  0  0  0  0  0  0  0  0  0
  2  1  1  0
  3  2  1  0
  3  4  1  6
  5  3  1  0
  5  7  1  0
  5  6  1  1
  7  8  2  0
 10 12  1  0
 10 11  1  6
 10  9  1  0
 13  7  1  0
 12 13  1  6
 14 12  1  0
 14 15  2  0
 17 19  1  0
 17 16  1  1
 18 17  1  0
 20 19  1  1
 20 21  1  0
 20 22  1  0
 21 14  1  0
 22 23  1  0
 24 22  2  0
M  END
$$$$
