IVL.pdb
     RDKit          3D

 24 23  0  0  1  0  0  0  0  0999 V2000
    7.1605  -21.0206   28.1962 C   0  0  0  0  0  0  0  0  0  0  0  0
    6.6985  -20.6921   26.8177 C   0  0  0  0  0  0  0  0  0  0  0  0
    7.5063  -19.5817   26.1484 C   0  0  2  0  0  0  0  0  0  0  0  0
    7.2255  -18.3403   26.9690 C   0  0  0  0  0  0  0  0  0  0  0  0
    6.9344  -19.4033   24.7445 C   0  0  2  0  0  0  0  0  0  0  0  0
    7.1661  -20.7043   24.0923 N   0  0  0  0  0  0  0  0  0  0  0  0
    7.6210  -18.3878   23.9509 C   0  0  0  0  0  0  0  0  0  0  0  0
    8.8257  -18.5974   23.5841 O   0  0  0  0  0  0  0  0  0  0  0  0
    7.5466  -14.0503   21.4933 C   0  0  0  0  0  0  0  0  0  0  0  0
    6.8708  -15.2675   22.0704 C   0  0  1  0  0  0  0  0  0  0  0  0
    6.2158  -16.0443   20.9703 C   0  0  0  0  0  0  0  0  0  0  0  0
    7.8747  -16.1294   22.8433 C   0  0  2  0  0  0  0  0  0  0  0  0
    7.0924  -17.1442   23.5177 N   0  0  0  0  0  0  0  0  0  0  0  0
    8.5602  -15.2209   23.7919 C   0  0  0  0  0  0  0  0  0  0  0  0
    9.3811  -14.3408   23.4431 O   0  0  0  0  0  0  0  0  0  0  0  0
    7.3021  -11.7178   25.2144 C   0  0  0  0  0  0  0  0  0  0  0  0
    7.2742  -12.3225   26.5814 C   0  0  1  0  0  0  0  0  0  0  0  0
    5.9505  -11.9729   27.2935 C   0  0  0  0  0  0  0  0  0  0  0  0
    7.5868  -13.7411   26.7322 C   0  0  0  0  0  0  0  0  0  0  0  0
    8.8060  -14.3502   26.1207 C   0  0  2  0  0  0  0  0  0  0  0  0
    8.2600  -15.3684   25.1642 N   0  0  0  0  0  0  0  0  0  0  0  0
    9.6100  -15.1046   27.0681 C   0  0  0  0  0  0  0  0  0  0  0  0
    9.7949  -16.4671   27.1007 O   0  0  0  0  0  0  0  0  0  0  0  0
   10.2269  -14.4698   27.9980 O   0  0  0  0  0  0  0  0  0  0  0  0
  2  1  1  0
  3  2  1  0
  3  4  1  1
  5  3  1  0
  5  7  1  0
  5  6  1  6
  7  8  2  0
 10 12  1  0
 10 11  1  6
 10  9  1  0
 13  7  1  0
 12 13  1  1
 14 12  1  0
 14 15  2  0
 17 19  1  0
 17 16  1  6
 18 17  1  0
 20 19  1  1
 20 21  1  0
 20 22  1  0
 21 14  1  0
 22 23  1  0
 24 22  2  0
M  END
$$$$
