IVL.pdb
     RDKit          3D

 24 23  0  0  1  0  0  0  0  0999 V2000
    6.6400  -12.4452   19.3633 C   0  0  0  0  0  0  0  0  0  0  0  0
    7.3148  -13.7018   19.7960 C   0  0  0  0  0  0  0  0  0  0  0  0
    8.8331  -13.5756   19.9076 C   0  0  2  0  0  0  0  0  0  0  0  0
    9.3160  -13.3578   18.4889 C   0  0  0  0  0  0  0  0  0  0  0  0
    9.3519  -14.9161   20.4212 C   0  0  2  0  0  0  0  0  0  0  0  0
    8.7540  -15.9077   19.5096 N   0  0  0  0  0  0  0  0  0  0  0  0
    8.9092  -15.2426   21.7738 C   0  0  0  0  0  0  0  0  0  0  0  0
    9.1935  -14.4445   22.7288 O   0  0  0  0  0  0  0  0  0  0  0  0
    6.6671  -18.4170   24.9196 C   0  0  0  0  0  0  0  0  0  0  0  0
    7.1696  -18.0549   23.5456 C   0  0  1  0  0  0  0  0  0  0  0  0
    6.0501  -18.1695   22.5576 C   0  0  0  0  0  0  0  0  0  0  0  0
    7.7760  -16.6477   23.5438 C   0  0  2  0  0  0  0  0  0  0  0  0
    8.1698  -16.3852   22.1754 N   0  0  0  0  0  0  0  0  0  0  0  0
    8.9341  -16.6920   24.4668 C   0  0  0  0  0  0  0  0  0  0  0  0
    9.9957  -17.3112   24.2227 O   0  0  0  0  0  0  0  0  0  0  0  0
    9.2150  -12.8009   28.7619 C   0  0  0  0  0  0  0  0  0  0  0  0
    8.9306  -13.9174   27.8094 C   0  0  1  0  0  0  0  0  0  0  0  0
    7.7378  -13.5538   26.9003 C   0  0  0  0  0  0  0  0  0  0  0  0
   10.0303  -14.4744   27.0262 C   0  0  0  0  0  0  0  0  0  0  0  0
   10.0309  -15.8953   26.5655 C   0  0  2  0  0  0  0  0  0  0  0  0
    8.8185  -15.9908   25.6876 N   0  0  0  0  0  0  0  0  0  0  0  0
    9.8046  -16.8490   27.6389 C   0  0  0  0  0  0  0  0  0  0  0  0
   10.7222  -17.2943   28.5616 O   0  0  0  0  0  0  0  0  0  0  0  0
    8.6358  -17.3632   27.7722 O   0  0  0  0  0  0  0  0  0  0  0  0
  2  1  1  0
  3  2  1  0
  3  4  1  6
  5  3  1  0
  5  7  1  0
  5  6  1  6
  7  8  2  0
 10 12  1  0
 10 11  1  6
 10  9  1  0
 13  7  1  0
 12 13  1  6
 14 12  1  0
 14 15  2  0
 17 19  1  0
 17 16  1  6
 18 17  1  0
 20 19  1  1
 20 21  1  0
 20 22  1  0
 21 14  1  0
 22 23  1  0
 24 22  2  0
M  END
$$$$
