FER.pdb
     RDKit          3D

 32 32  0  0  1  0  0  0  0  0999 V2000
   17.5382  -20.4599  -15.2475 N   0  0  0  0  0  0  0  0  0  0  0  0
   17.1613  -19.6977  -16.4340 C   0  0  1  0  0  0  0  0  0  0  0  0
   15.6345  -19.5529  -16.4543 C   0  0  0  0  0  0  0  0  0  0  0  0
   15.1119  -20.8878  -16.8391 C   0  0  0  0  0  0  0  0  0  0  0  0
   14.9688  -21.2233  -18.1665 C   0  0  0  0  0  0  0  0  0  0  0  0
   14.4707  -22.4853  -18.5148 C   0  0  0  0  0  0  0  0  0  0  0  0
   14.1204  -23.4017  -17.5472 C   0  0  0  0  0  0  0  0  0  0  0  0
   14.2732  -23.0429  -16.2260 C   0  0  0  0  0  0  0  0  0  0  0  0
   14.7619  -21.8029  -15.8709 C   0  0  0  0  0  0  0  0  0  0  0  0
   17.8451  -18.3828  -16.4642 C   0  0  0  0  0  0  0  0  0  0  0  0
   18.1098  -17.7654  -15.3971 O   0  0  0  0  0  0  0  0  0  0  0  0
   18.2075  -17.8093  -17.7001 N   0  0  0  0  0  0  0  0  0  0  0  0
   18.9659  -16.5388  -17.7645 C   0  0  1  0  0  0  0  0  0  0  0  0
   20.0655  -16.6907  -18.7668 C   0  0  0  0  0  0  0  0  0  0  0  0
   20.8605  -15.4679  -19.0760 C   0  0  0  0  0  0  0  0  0  0  0  0
   21.9155  -15.6406  -20.0913 C   0  0  0  0  0  0  0  0  0  0  0  0
   22.3914  -16.7695  -20.3268 O   0  0  0  0  0  0  0  0  0  0  0  0
   17.9905  -15.4964  -18.0111 C   0  0  0  0  0  0  0  0  0  0  0  0
   17.0185  -15.7300  -18.8091 O   0  0  0  0  0  0  0  0  0  0  0  0
   22.3991  -14.5611  -20.8024 O   0  0  0  0  0  0  0  0  0  0  0  0
   14.1697   -9.5177  -14.6398 N   0  0  0  0  0  0  0  0  0  0  0  0
   13.9150   -8.9357  -15.9079 C   0  0  0  0  0  0  0  0  0  0  0  0
   12.7949   -8.3594  -16.1230 N   0  0  0  0  0  0  0  0  0  0  0  0
   14.8762   -8.9749  -16.9459 N   0  0  0  0  0  0  0  0  0  0  0  0
   16.0869   -9.7393  -16.7923 C   0  0  0  0  0  0  0  0  0  0  0  0
   15.7624  -11.2341  -16.7898 C   0  0  0  0  0  0  0  0  0  0  0  0
   16.9963  -12.0735  -16.7689 C   0  0  0  0  0  0  0  0  0  0  0  0
   16.9484  -13.2241  -17.7413 C   0  0  2  0  0  0  0  0  0  0  0  0
   17.9909  -14.2083  -17.4491 N   0  0  0  0  0  0  0  0  0  0  0  0
   17.1109  -12.8237  -19.1446 C   0  0  0  0  0  0  0  0  0  0  0  0
   18.2480  -12.5498  -19.5829 O   0  0  0  0  0  0  0  0  0  0  0  0
   16.0533  -12.7254  -20.0485 O   0  0  0  0  0  0  0  0  0  0  0  0
  2  1  1  1
  2  3  1  0
  3  4  1  0
  4  9  2  0
  4  5  1  0
  5  6  2  0
  6  7  1  0
  8  7  2  0
  9  8  1  0
 10  2  1  0
 10 11  2  0
 12 10  1  0
 13 12  1  0
 13 14  1  6
 15 14  1  0
 15 16  1  0
 16 17  2  0
 16 20  1  0
 18 13  1  0
 19 18  2  0
 22 21  1  0
 22 24  1  0
 23 22  2  0
 24 25  1  0
 25 26  1  0
 26 27  1  0
 28 27  1  1
 28 29  1  0
 29 18  1  0
 30 28  1  0
 30 32  1  0
 31 30  2  0
M  END
$$$$
