FER.pdb
     RDKit          3D

 32 32  0  0  1  0  0  0  0  0999 V2000
   21.3440   -6.0409  -12.5654 N   0  0  0  0  0  0  0  0  0  0  0  0
   20.7743   -7.3604  -12.8207 C   0  0  1  0  0  0  0  0  0  0  0  0
   20.1615   -7.8862  -11.5166 C   0  0  0  0  0  0  0  0  0  0  0  0
   21.3109   -8.1691  -10.6210 C   0  0  0  0  0  0  0  0  0  0  0  0
   22.2783   -9.0744  -10.9948 C   0  0  0  0  0  0  0  0  0  0  0  0
   23.3554   -9.3343  -10.1378 C   0  0  0  0  0  0  0  0  0  0  0  0
   23.4644   -8.6962   -8.9214 C   0  0  0  0  0  0  0  0  0  0  0  0
   22.4842   -7.7943   -8.5701 C   0  0  0  0  0  0  0  0  0  0  0  0
   21.4186   -7.5307   -9.4053 C   0  0  0  0  0  0  0  0  0  0  0  0
   19.7820   -7.3105  -13.9210 C   0  0  0  0  0  0  0  0  0  0  0  0
   19.1577   -6.2469  -14.1827 O   0  0  0  0  0  0  0  0  0  0  0  0
   19.5287   -8.4651  -14.6893 N   0  0  0  0  0  0  0  0  0  0  0  0
   18.5764   -8.4395  -15.8233 C   0  0  1  0  0  0  0  0  0  0  0  0
   18.9496   -9.5238  -16.7834 C   0  0  0  0  0  0  0  0  0  0  0  0
   18.0660   -9.6965  -17.9717 C   0  0  0  0  0  0  0  0  0  0  0  0
   18.4611  -10.7700  -18.9019 C   0  0  0  0  0  0  0  0  0  0  0  0
   17.9829  -11.9166  -18.7882 O   0  0  0  0  0  0  0  0  0  0  0  0
   17.2512   -8.5037  -15.2414 C   0  0  0  0  0  0  0  0  0  0  0  0
   17.1077   -9.0081  -14.0748 O   0  0  0  0  0  0  0  0  0  0  0  0
   19.3658  -10.5320  -19.9166 O   0  0  0  0  0  0  0  0  0  0  0  0
   14.7544  -10.4860  -10.3043 N   0  0  0  0  0  0  0  0  0  0  0  0
   13.7696   -9.4670  -10.2460 C   0  0  0  0  0  0  0  0  0  0  0  0
   12.6990   -9.6632   -9.5765 N   0  0  0  0  0  0  0  0  0  0  0  0
   13.9447   -8.2306  -10.9119 N   0  0  0  0  0  0  0  0  0  0  0  0
   14.6307   -8.1724  -12.1767 C   0  0  0  0  0  0  0  0  0  0  0  0
   14.6378   -6.7350  -12.6997 C   0  0  0  0  0  0  0  0  0  0  0  0
   15.4146   -6.6059  -13.9676 C   0  0  0  0  0  0  0  0  0  0  0  0
   14.9380   -7.5364  -15.0534 C   0  0  2  0  0  0  0  0  0  0  0  0
   16.0597   -8.0551  -15.8366 N   0  0  0  0  0  0  0  0  0  0  0  0
   13.9994   -6.9169  -15.9976 C   0  0  0  0  0  0  0  0  0  0  0  0
   12.7709   -6.9801  -15.7810 O   0  0  0  0  0  0  0  0  0  0  0  0
   14.3956   -6.2431  -17.1526 O   0  0  0  0  0  0  0  0  0  0  0  0
  2  1  1  1
  2  3  1  0
  3  4  1  0
  4  9  2  0
  4  5  1  0
  5  6  2  0
  6  7  1  0
  8  7  2  0
  9  8  1  0
 10  2  1  0
 10 11  2  0
 12 10  1  0
 13 12  1  0
 13 14  1  6
 15 14  1  0
 15 16  1  0
 16 17  2  0
 16 20  1  0
 18 13  1  0
 19 18  2  0
 22 21  1  0
 22 24  1  0
 23 22  2  0
 24 25  1  0
 25 26  1  0
 26 27  1  0
 28 27  1  1
 28 29  1  0
 29 18  1  0
 30 28  1  0
 30 32  1  0
 31 30  2  0
M  END
$$$$
