FER.pdb
     RDKit          3D

 32 32  0  0  1  0  0  0  0  0999 V2000
   26.7492  -18.7835   -9.9286 N   0  0  0  0  0  0  0  0  0  0  0  0
   26.5416  -20.2225  -10.0578 C   0  0  1  0  0  0  0  0  0  0  0  0
   25.8520  -20.7306   -8.7854 C   0  0  0  0  0  0  0  0  0  0  0  0
   26.7673  -20.3836   -7.6696 C   0  0  0  0  0  0  0  0  0  0  0  0
   28.0354  -20.9168   -7.6178 C   0  0  0  0  0  0  0  0  0  0  0  0
   28.8869  -20.5834   -6.5568 C   0  0  0  0  0  0  0  0  0  0  0  0
   28.4757  -19.7264   -5.5592 C   0  0  0  0  0  0  0  0  0  0  0  0
   27.2026  -19.2053   -5.6335 C   0  0  0  0  0  0  0  0  0  0  0  0
   26.3550  -19.5268   -6.6730 C   0  0  0  0  0  0  0  0  0  0  0  0
   25.7631  -20.5429  -11.2781 C   0  0  0  0  0  0  0  0  0  0  0  0
   24.6464  -19.9993  -11.4956 O   0  0  0  0  0  0  0  0  0  0  0  0
   26.2732  -21.4673  -12.2124 N   0  0  0  0  0  0  0  0  0  0  0  0
   25.6044  -21.6916  -13.5146 C   0  0  1  0  0  0  0  0  0  0  0  0
   26.6348  -22.1151  -14.5126 C   0  0  0  0  0  0  0  0  0  0  0  0
   26.1471  -22.4153  -15.8891 C   0  0  0  0  0  0  0  0  0  0  0  0
   27.1921  -22.7761  -16.8646 C   0  0  0  0  0  0  0  0  0  0  0  0
   27.6465  -21.9228  -17.6531 O   0  0  0  0  0  0  0  0  0  0  0  0
   24.5180  -22.6153  -13.2587 C   0  0  0  0  0  0  0  0  0  0  0  0
   24.4549  -23.2026  -12.1242 O   0  0  0  0  0  0  0  0  0  0  0  0
   27.6901  -24.0617  -16.9276 O   0  0  0  0  0  0  0  0  0  0  0  0
   17.2644  -20.5851  -12.1011 N   0  0  0  0  0  0  0  0  0  0  0  0
   17.9907  -21.2830  -11.1025 C   0  0  0  0  0  0  0  0  0  0  0  0
   17.3624  -22.0019  -10.2531 N   0  0  0  0  0  0  0  0  0  0  0  0
   19.4016  -21.2052  -11.0242 N   0  0  0  0  0  0  0  0  0  0  0  0
   20.1324  -20.3041  -11.8773 C   0  0  0  0  0  0  0  0  0  0  0  0
   20.3909  -20.9644  -13.2326 C   0  0  0  0  0  0  0  0  0  0  0  0
   21.8348  -21.2859  -13.4308 C   0  0  0  0  0  0  0  0  0  0  0  0
   22.0739  -22.7166  -13.8402 C   0  0  2  0  0  0  0  0  0  0  0  0
   23.4846  -22.9502  -14.1503 N   0  0  0  0  0  0  0  0  0  0  0  0
   21.2966  -23.1374  -15.0127 C   0  0  0  0  0  0  0  0  0  0  0  0
   20.2868  -23.8567  -14.8608 O   0  0  0  0  0  0  0  0  0  0  0  0
   21.6163  -22.7790  -16.3221 O   0  0  0  0  0  0  0  0  0  0  0  0
  2  1  1  1
  2  3  1  0
  3  4  1  0
  4  9  2  0
  4  5  1  0
  5  6  2  0
  6  7  1  0
  8  7  2  0
  9  8  1  0
 10  2  1  0
 10 11  2  0
 12 10  1  0
 13 12  1  0
 13 14  1  6
 15 14  1  0
 15 16  1  0
 16 17  2  0
 16 20  1  0
 18 13  1  0
 19 18  2  0
 22 21  1  0
 22 24  1  0
 23 22  2  0
 24 25  1  0
 25 26  1  0
 26 27  1  0
 28 27  1  6
 28 29  1  0
 29 18  1  0
 30 28  1  0
 30 32  1  0
 31 30  2  0
M  END
$$$$
