FER.pdb
     RDKit          3D

 32 32  0  0  1  0  0  0  0  0999 V2000
   25.3685  -19.2102   -7.9473 N   0  0  0  0  0  0  0  0  0  0  0  0
   26.1642  -20.1372   -8.7462 C   0  0  1  0  0  0  0  0  0  0  0  0
   26.6678  -21.2599   -7.8306 C   0  0  0  0  0  0  0  0  0  0  0  0
   27.5924  -20.6073   -6.8701 C   0  0  0  0  0  0  0  0  0  0  0  0
   27.1008  -19.9763   -5.7497 C   0  0  0  0  0  0  0  0  0  0  0  0
   27.9849  -19.3614   -4.8540 C   0  0  0  0  0  0  0  0  0  0  0  0
   29.3448  -19.3775   -5.0754 C   0  0  0  0  0  0  0  0  0  0  0  0
   29.8125  -20.0156   -6.2032 C   0  0  0  0  0  0  0  0  0  0  0  0
   28.9516  -20.6240   -7.0927 C   0  0  0  0  0  0  0  0  0  0  0  0
   25.3833  -20.6620   -9.8918 C   0  0  0  0  0  0  0  0  0  0  0  0
   24.1226  -20.6518   -9.8756 O   0  0  0  0  0  0  0  0  0  0  0  0
   26.0538  -21.1809  -11.0183 N   0  0  0  0  0  0  0  0  0  0  0  0
   25.5029  -21.0167  -12.3832 C   0  0  1  0  0  0  0  0  0  0  0  0
   26.6172  -21.1730  -13.3685 C   0  0  0  0  0  0  0  0  0  0  0  0
   26.2656  -20.9986  -14.8069 C   0  0  0  0  0  0  0  0  0  0  0  0
   26.8071  -19.7857  -15.4468 C   0  0  0  0  0  0  0  0  0  0  0  0
   28.0150  -19.4942  -15.3351 O   0  0  0  0  0  0  0  0  0  0  0  0
   24.3966  -21.9461  -12.4885 C   0  0  0  0  0  0  0  0  0  0  0  0
   24.3159  -22.9141  -11.6563 O   0  0  0  0  0  0  0  0  0  0  0  0
   25.9931  -18.9478  -16.1818 O   0  0  0  0  0  0  0  0  0  0  0  0
   19.8084  -23.7813   -8.0481 N   0  0  0  0  0  0  0  0  0  0  0  0
   18.6239  -23.4518   -8.7552 C   0  0  0  0  0  0  0  0  0  0  0  0
   17.5229  -23.3309   -8.1180 N   0  0  0  0  0  0  0  0  0  0  0  0
   18.6310  -23.2498  -10.1559 N   0  0  0  0  0  0  0  0  0  0  0  0
   19.8693  -23.2689  -10.8908 C   0  0  0  0  0  0  0  0  0  0  0  0
   20.3601  -21.8386  -11.1215 C   0  0  0  0  0  0  0  0  0  0  0  0
   21.7858  -21.8016  -11.5617 C   0  0  0  0  0  0  0  0  0  0  0  0
   21.9480  -21.8927  -13.0574 C   0  0  2  0  0  0  0  0  0  0  0  0
   23.3609  -21.9009  -13.4374 N   0  0  0  0  0  0  0  0  0  0  0  0
   21.3074  -20.7950  -13.7928 C   0  0  0  0  0  0  0  0  0  0  0  0
   21.9539  -19.7555  -14.0411 O   0  0  0  0  0  0  0  0  0  0  0  0
   19.9893  -20.8336  -14.2470 O   0  0  0  0  0  0  0  0  0  0  0  0
  2  1  1  1
  2  3  1  0
  3  4  1  0
  4  9  2  0
  4  5  1  0
  5  6  2  0
  6  7  1  0
  8  7  2  0
  9  8  1  0
 10  2  1  0
 10 11  2  0
 12 10  1  0
 13 12  1  0
 13 14  1  6
 15 14  1  0
 15 16  1  0
 16 17  2  0
 16 20  1  0
 18 13  1  0
 19 18  2  0
 22 21  1  0
 22 24  1  0
 23 22  2  0
 24 25  1  0
 25 26  1  0
 26 27  1  0
 28 27  1  1
 28 29  1  0
 29 18  1  0
 30 28  1  0
 30 32  1  0
 31 30  2  0
M  END
$$$$
