FER.pdb
     RDKit          3D

 32 32  0  0  1  0  0  0  0  0999 V2000
   13.5173   -5.7856   -9.2292 N   0  0  0  0  0  0  0  0  0  0  0  0
   14.8947   -6.1951   -8.9725 C   0  0  1  0  0  0  0  0  0  0  0  0
   14.8725   -7.4572   -8.1012 C   0  0  0  0  0  0  0  0  0  0  0  0
   14.2005   -7.0592   -6.8390 C   0  0  0  0  0  0  0  0  0  0  0  0
   12.9476   -7.5420   -6.5353 C   0  0  0  0  0  0  0  0  0  0  0  0
   12.3239   -7.1549   -5.3423 C   0  0  0  0  0  0  0  0  0  0  0  0
   12.9456   -6.2956   -4.4628 C   0  0  0  0  0  0  0  0  0  0  0  0
   14.1993   -5.8265   -4.7887 C   0  0  0  0  0  0  0  0  0  0  0  0
   14.8231   -6.2001   -5.9608 C   0  0  0  0  0  0  0  0  0  0  0  0
   15.6345   -6.4069  -10.2396 C   0  0  0  0  0  0  0  0  0  0  0  0
   15.0302   -6.7405  -11.2947 O   0  0  0  0  0  0  0  0  0  0  0  0
   17.0334   -6.2341  -10.2718 N   0  0  0  0  0  0  0  0  0  0  0  0
   17.7988   -6.3991  -11.5289 C   0  0  1  0  0  0  0  0  0  0  0  0
   19.1470   -5.7763  -11.3509 C   0  0  0  0  0  0  0  0  0  0  0  0
   20.0781   -5.8569  -12.5125 C   0  0  0  0  0  0  0  0  0  0  0  0
   21.3863   -5.2050  -12.3195 C   0  0  0  0  0  0  0  0  0  0  0  0
   21.6641   -4.6460  -11.2393 O   0  0  0  0  0  0  0  0  0  0  0  0
   17.7638   -7.8131  -11.8424 C   0  0  0  0  0  0  0  0  0  0  0  0
   18.0671   -8.6597  -10.9329 O   0  0  0  0  0  0  0  0  0  0  0  0
   22.3308   -5.1982  -13.3259 O   0  0  0  0  0  0  0  0  0  0  0  0
   11.2305  -11.5200  -12.3599 N   0  0  0  0  0  0  0  0  0  0  0  0
   12.0610  -12.6650  -12.4644 C   0  0  0  0  0  0  0  0  0  0  0  0
   11.5432  -13.8295  -12.3707 N   0  0  0  0  0  0  0  0  0  0  0  0
   13.4559  -12.5499  -12.6738 N   0  0  0  0  0  0  0  0  0  0  0  0
   14.0288  -11.3035  -13.1119 C   0  0  0  0  0  0  0  0  0  0  0  0
   15.5272  -11.4793  -13.3645 C   0  0  0  0  0  0  0  0  0  0  0  0
   16.1355  -10.2649  -13.9832 C   0  0  0  0  0  0  0  0  0  0  0  0
   17.4084   -9.8271  -13.3051 C   0  0  2  0  0  0  0  0  0  0  0  0
   17.4188   -8.3813  -13.0806 N   0  0  0  0  0  0  0  0  0  0  0  0
   18.6262  -10.1583  -14.0557 C   0  0  0  0  0  0  0  0  0  0  0  0
   18.5670  -10.9653  -15.0072 O   0  0  0  0  0  0  0  0  0  0  0  0
   19.8806   -9.6186  -13.7722 O   0  0  0  0  0  0  0  0  0  0  0  0
  2  1  1  6
  2  3  1  0
  3  4  1  0
  4  9  2  0
  4  5  1  0
  5  6  2  0
  6  7  1  0
  8  7  2  0
  9  8  1  0
 10  2  1  0
 10 11  2  0
 12 10  1  0
 13 12  1  0
 13 14  1  1
 15 14  1  0
 15 16  1  0
 16 17  2  0
 16 20  1  0
 18 13  1  0
 19 18  2  0
 22 21  1  0
 22 24  1  0
 23 22  2  0
 24 25  1  0
 25 26  1  0
 26 27  1  0
 28 27  1  6
 28 29  1  0
 29 18  1  0
 30 28  1  0
 30 32  1  0
 31 30  2  0
M  END
$$$$
