FER.pdb
     RDKit          3D

 32 32  0  0  1  0  0  0  0  0999 V2000
   28.5417  -22.1040   -8.8898 N   0  0  0  0  0  0  0  0  0  0  0  0
   27.4155  -21.1779   -8.9590 C   0  0  1  0  0  0  0  0  0  0  0  0
   27.9431  -19.7538   -8.7446 C   0  0  0  0  0  0  0  0  0  0  0  0
   28.1726  -19.6287   -7.2835 C   0  0  0  0  0  0  0  0  0  0  0  0
   27.2776  -18.9419   -6.4945 C   0  0  0  0  0  0  0  0  0  0  0  0
   27.5090  -18.8288   -5.1177 C   0  0  0  0  0  0  0  0  0  0  0  0
   28.6219  -19.3961   -4.5360 C   0  0  0  0  0  0  0  0  0  0  0  0
   29.5024  -20.0788   -5.3463 C   0  0  0  0  0  0  0  0  0  0  0  0
   29.2855  -20.1963   -6.7034 C   0  0  0  0  0  0  0  0  0  0  0  0
   26.6894  -21.3145  -10.2442 C   0  0  0  0  0  0  0  0  0  0  0  0
   27.2815  -21.7122  -11.2839 O   0  0  0  0  0  0  0  0  0  0  0  0
   25.3174  -20.9969  -10.3113 N   0  0  0  0  0  0  0  0  0  0  0  0
   24.5366  -21.2218  -11.5495 C   0  0  1  0  0  0  0  0  0  0  0  0
   23.0812  -21.1243  -11.2192 C   0  0  0  0  0  0  0  0  0  0  0  0
   22.1300  -21.2040  -12.3645 C   0  0  0  0  0  0  0  0  0  0  0  0
   20.7027  -21.2504  -11.9979 C   0  0  0  0  0  0  0  0  0  0  0  0
   20.3537  -21.2305  -10.8003 O   0  0  0  0  0  0  0  0  0  0  0  0
   25.0526  -20.2879  -12.5295 C   0  0  0  0  0  0  0  0  0  0  0  0
   25.1984  -19.0600  -12.2023 O   0  0  0  0  0  0  0  0  0  0  0  0
   19.7230  -21.3164  -12.9679 O   0  0  0  0  0  0  0  0  0  0  0  0
   27.0284  -24.7851  -15.9930 N   0  0  0  0  0  0  0  0  0  0  0  0
   28.0150  -24.3080  -16.8934 C   0  0  0  0  0  0  0  0  0  0  0  0
   28.3483  -25.0224  -17.8991 N   0  0  0  0  0  0  0  0  0  0  0  0
   28.6412  -23.0527  -16.7066 N   0  0  0  0  0  0  0  0  0  0  0  0
   28.2190  -22.1760  -15.6451 C   0  0  0  0  0  0  0  0  0  0  0  0
   27.2224  -21.1482  -16.1838 C   0  0  0  0  0  0  0  0  0  0  0  0
   27.2183  -19.8957  -15.3722 C   0  0  0  0  0  0  0  0  0  0  0  0
   25.8650  -19.5653  -14.7967 C   0  0  2  0  0  0  0  0  0  0  0  0
   25.4274  -20.5912  -13.8496 N   0  0  0  0  0  0  0  0  0  0  0  0
   24.8074  -19.4272  -15.8059 C   0  0  0  0  0  0  0  0  0  0  0  0
   23.9525  -20.3288  -15.9346 O   0  0  0  0  0  0  0  0  0  0  0  0
   24.6872  -18.3275  -16.6552 O   0  0  0  0  0  0  0  0  0  0  0  0
  2  1  1  6
  2  3  1  0
  3  4  1  0
  4  9  2  0
  4  5  1  0
  5  6  2  0
  6  7  1  0
  8  7  2  0
  9  8  1  0
 10  2  1  0
 10 11  2  0
 12 10  1  0
 13 12  1  0
 13 14  1  1
 15 14  1  0
 15 16  1  0
 16 17  2  0
 16 20  1  0
 18 13  1  0
 19 18  2  0
 22 21  1  0
 22 24  1  0
 23 22  2  0
 24 25  1  0
 25 26  1  0
 26 27  1  0
 28 27  1  6
 28 29  1  0
 29 18  1  0
 30 28  1  0
 30 32  1  0
 31 30  2  0
M  END
$$$$
