FER.pdb
     RDKit          3D

 32 32  0  0  1  0  0  0  0  0999 V2000
   21.6113  -14.9776  -16.9802 N   0  0  0  0  0  0  0  0  0  0  0  0
   22.9511  -15.5543  -16.9258 C   0  0  1  0  0  0  0  0  0  0  0  0
   23.9181  -14.4888  -16.3947 C   0  0  0  0  0  0  0  0  0  0  0  0
   24.0917  -13.5185  -17.5045 C   0  0  0  0  0  0  0  0  0  0  0  0
   24.8417  -13.8519  -18.6097 C   0  0  0  0  0  0  0  0  0  0  0  0
   25.0001  -12.9248  -19.6477 C   0  0  0  0  0  0  0  0  0  0  0  0
   24.4151  -11.6790  -19.5820 C   0  0  0  0  0  0  0  0  0  0  0  0
   23.6690  -11.3691  -18.4661 C   0  0  0  0  0  0  0  0  0  0  0  0
   23.5065  -12.2735  -17.4375 C   0  0  0  0  0  0  0  0  0  0  0  0
   22.9703  -16.7845  -16.0988 C   0  0  0  0  0  0  0  0  0  0  0  0
   22.5291  -16.7783  -14.9177 O   0  0  0  0  0  0  0  0  0  0  0  0
   23.4877  -17.9815  -16.6349 N   0  0  0  0  0  0  0  0  0  0  0  0
   23.4689  -19.2423  -15.8580 C   0  0  1  0  0  0  0  0  0  0  0  0
   22.7323  -20.2773  -16.6474 C   0  0  0  0  0  0  0  0  0  0  0  0
   22.7576  -21.6684  -16.1117 C   0  0  0  0  0  0  0  0  0  0  0  0
   22.0368  -22.6693  -16.9194 C   0  0  0  0  0  0  0  0  0  0  0  0
   20.8927  -23.0445  -16.5926 O   0  0  0  0  0  0  0  0  0  0  0  0
   24.8478  -19.5310  -15.5201 C   0  0  0  0  0  0  0  0  0  0  0  0
   25.7565  -19.3426  -16.4003 O   0  0  0  0  0  0  0  0  0  0  0  0
   22.6089  -23.2123  -18.0519 O   0  0  0  0  0  0  0  0  0  0  0  0
   26.4640  -20.8203   -7.3545 N   0  0  0  0  0  0  0  0  0  0  0  0
   25.2434  -21.0964   -8.0220 C   0  0  0  0  0  0  0  0  0  0  0  0
   24.2071  -21.4017   -7.3394 N   0  0  0  0  0  0  0  0  0  0  0  0
   25.1427  -21.0392   -9.4324 N   0  0  0  0  0  0  0  0  0  0  0  0
   26.2664  -20.6189  -10.2290 C   0  0  0  0  0  0  0  0  0  0  0  0
   25.9133  -20.7061  -11.7147 C   0  0  0  0  0  0  0  0  0  0  0  0
   27.0583  -20.3074  -12.5852 C   0  0  0  0  0  0  0  0  0  0  0  0
   26.7254  -20.3371  -14.0549 C   0  0  2  0  0  0  0  0  0  0  0  0
   25.3178  -20.0113  -14.2859 N   0  0  0  0  0  0  0  0  0  0  0  0
   26.9817  -21.6327  -14.6965 C   0  0  0  0  0  0  0  0  0  0  0  0
   26.0398  -22.4341  -14.8722 O   0  0  0  0  0  0  0  0  0  0  0  0
   28.2401  -22.0426  -15.1367 O   0  0  0  0  0  0  0  0  0  0  0  0
  2  1  1  1
  2  3  1  0
  3  4  1  0
  4  9  2  0
  4  5  1  0
  5  6  2  0
  6  7  1  0
  8  7  2  0
  9  8  1  0
 10  2  1  0
 10 11  2  0
 12 10  1  0
 13 12  1  0
 13 14  1  6
 15 14  1  0
 15 16  1  0
 16 17  2  0
 16 20  1  0
 18 13  1  0
 19 18  2  0
 22 21  1  0
 22 24  1  0
 23 22  2  0
 24 25  1  0
 25 26  1  0
 26 27  1  0
 28 27  1  1
 28 29  1  0
 29 18  1  0
 30 28  1  0
 30 32  1  0
 31 30  2  0
M  END
$$$$
