FER.pdb
     RDKit          3D

 32 32  0  0  1  0  0  0  0  0999 V2000
   28.3540  -20.3262   -8.3401 N   0  0  0  0  0  0  0  0  0  0  0  0
   26.9222  -20.3639   -8.0585 C   0  0  1  0  0  0  0  0  0  0  0  0
   26.6154  -19.3380   -6.9604 C   0  0  0  0  0  0  0  0  0  0  0  0
   27.6171  -19.5839   -5.8930 C   0  0  0  0  0  0  0  0  0  0  0  0
   27.5591  -20.7316   -5.1351 C   0  0  0  0  0  0  0  0  0  0  0  0
   28.5089  -20.9487   -4.1286 C   0  0  0  0  0  0  0  0  0  0  0  0
   29.5054  -20.0293   -3.8830 C   0  0  0  0  0  0  0  0  0  0  0  0
   29.5427  -18.8889   -4.6550 C   0  0  0  0  0  0  0  0  0  0  0  0
   28.6126  -18.6640   -5.6484 C   0  0  0  0  0  0  0  0  0  0  0  0
   26.1292  -20.1181   -9.2866 C   0  0  0  0  0  0  0  0  0  0  0  0
   25.7029  -18.9640   -9.5625 O   0  0  0  0  0  0  0  0  0  0  0  0
   25.8444  -21.1855  -10.1625 N   0  0  0  0  0  0  0  0  0  0  0  0
   25.2139  -20.9494  -11.4816 C   0  0  1  0  0  0  0  0  0  0  0  0
   26.1974  -21.3061  -12.5504 C   0  0  0  0  0  0  0  0  0  0  0  0
   25.7408  -21.1403  -13.9600 C   0  0  0  0  0  0  0  0  0  0  0  0
   26.7312  -21.5003  -14.9911 C   0  0  0  0  0  0  0  0  0  0  0  0
   27.8484  -21.9521  -14.6682 O   0  0  0  0  0  0  0  0  0  0  0  0
   23.9624  -21.6791  -11.4693 C   0  0  0  0  0  0  0  0  0  0  0  0
   23.7857  -22.5964  -10.5955 O   0  0  0  0  0  0  0  0  0  0  0  0
   26.4463  -21.3467  -16.3327 O   0  0  0  0  0  0  0  0  0  0  0  0
   18.7258  -24.7032   -7.2035 N   0  0  0  0  0  0  0  0  0  0  0  0
   18.0134  -24.5292   -8.4175 C   0  0  0  0  0  0  0  0  0  0  0  0
   17.0170  -25.2860   -8.6772 N   0  0  0  0  0  0  0  0  0  0  0  0
   18.3783  -23.5315   -9.3524 N   0  0  0  0  0  0  0  0  0  0  0  0
   19.5819  -22.7626   -9.1684 C   0  0  0  0  0  0  0  0  0  0  0  0
   19.7080  -21.7187  -10.2794 C   0  0  0  0  0  0  0  0  0  0  0  0
   21.1331  -21.4356  -10.6205 C   0  0  0  0  0  0  0  0  0  0  0  0
   21.5152  -21.8954  -12.0042 C   0  0  2  0  0  0  0  0  0  0  0  0
   22.8781  -21.4838  -12.3417 N   0  0  0  0  0  0  0  0  0  0  0  0
   20.6340  -21.3883  -13.0636 C   0  0  0  0  0  0  0  0  0  0  0  0
   19.7685  -22.1388  -13.5615 O   0  0  0  0  0  0  0  0  0  0  0  0
   20.6976  -20.0892  -13.5671 O   0  0  0  0  0  0  0  0  0  0  0  0
  2  1  1  6
  2  3  1  0
  3  4  1  0
  4  9  2  0
  4  5  1  0
  5  6  2  0
  6  7  1  0
  8  7  2  0
  9  8  1  0
 10  2  1  0
 10 11  2  0
 12 10  1  0
 13 12  1  0
 13 14  1  6
 15 14  1  0
 15 16  1  0
 16 17  2  0
 16 20  1  0
 18 13  1  0
 19 18  2  0
 22 21  1  0
 22 24  1  0
 23 22  2  0
 24 25  1  0
 25 26  1  0
 26 27  1  0
 28 27  1  1
 28 29  1  0
 29 18  1  0
 30 28  1  0
 30 32  1  0
 31 30  2  0
M  END
$$$$
