SHP.pdb
     RDKit          3D

 24 25  0  0  1  0  0  0  0  0999 V2000
   14.7922  -11.3060  -15.1120 O   0  0  0  0  0  0  0  0  0  0  0  0
   15.7549  -10.2952  -15.2107 C   0  0  0  0  0  0  0  0  0  0  0  0
   16.9896  -10.8781  -15.7944 C   0  0  2  0  0  0  0  0  0  0  0  0
   17.1606  -12.2172  -15.2768 N   0  0  0  0  0  0  0  0  0  0  0  0
   18.2118  -10.1248  -15.6216 C   0  0  0  0  0  0  0  0  0  0  0  0
   18.8661  -10.2798  -14.5350 O   0  0  0  0  0  0  0  0  0  0  0  0
   18.7851   -9.2199  -16.5237 N   0  0  0  0  0  0  0  0  0  0  0  0
   20.0157   -8.4767  -16.3238 C   0  0  1  0  0  0  0  0  0  0  0  0
   20.8046   -8.4033  -17.6127 C   0  0  0  0  0  0  0  0  0  0  0  0
   21.3106   -9.7396  -18.0166 C   0  0  0  0  0  0  0  0  0  0  0  0
   21.9076  -10.6473  -17.1778 C   0  0  0  0  0  0  0  0  0  0  0  0
   22.2214  -11.7298  -17.9210 N   0  0  0  0  0  0  0  0  0  0  0  0
   21.8396  -11.5262  -19.1962 C   0  0  0  0  0  0  0  0  0  0  0  0
   21.2803  -10.2891  -19.2261 N   0  0  0  0  0  0  0  0  0  0  0  0
   19.7043   -7.1130  -15.8842 C   0  0  0  0  0  0  0  0  0  0  0  0
   18.5238   -6.6377  -16.0668 O   0  0  0  0  0  0  0  0  0  0  0  0
   20.6340   -6.2701  -15.2583 N   0  0  0  0  0  0  0  0  0  0  0  0
   22.0795   -6.5690  -15.1594 C   0  0  0  0  0  0  0  0  0  0  0  0
   22.5325   -5.9418  -13.8832 C   0  0  0  0  0  0  0  0  0  0  0  0
   21.2974   -5.2385  -13.3327 C   0  0  0  0  0  0  0  0  0  0  0  0
   20.5215   -4.9671  -14.6279 C   0  0  1  0  0  0  0  0  0  0  0  0
   21.1726   -3.9036  -15.4154 C   0  0  0  0  0  0  0  0  0  0  0  0
   22.0133   -4.1835  -16.2847 O   0  0  0  0  0  0  0  0  0  0  0  0
   20.8421   -2.5874  -15.1814 O   0  0  0  0  0  0  0  0  0  0  0  0
  2  1  1  0
  3  5  1  0
  3  2  1  0
  3  4  1  1
  5  6  2  0
  7  5  1  0
  8  7  1  0
  9 10  1  0
  8  9  1  6
 10 14  1  0
 11 12  1  0
 11 10  2  0
 12 13  1  0
 13 14  2  0
 15  8  1  0
 15 17  1  0
 16 15  2  0
 17 18  1  0
 19 18  1  0
 20 19  1  0
 20 21  1  0
 21 17  1  0
 21 22  1  6
 22 24  1  0
 23 22  2  0
M  END
$$$$
