SHP.pdb
     RDKit          3D

 24 25  0  0  1  0  0  0  0  0999 V2000
   25.9569  -13.4378  -15.6239 O   0  0  0  0  0  0  0  0  0  0  0  0
   25.3706  -12.1683  -15.6789 C   0  0  0  0  0  0  0  0  0  0  0  0
   24.1158  -12.2643  -16.4670 C   0  0  2  0  0  0  0  0  0  0  0  0
   24.4450  -12.6609  -17.8178 N   0  0  0  0  0  0  0  0  0  0  0  0
   23.2693  -11.0921  -16.4916 C   0  0  0  0  0  0  0  0  0  0  0  0
   23.2592  -10.3788  -17.5518 O   0  0  0  0  0  0  0  0  0  0  0  0
   22.4341  -10.6275  -15.4680 N   0  0  0  0  0  0  0  0  0  0  0  0
   21.5702   -9.4628  -15.5314 C   0  0  1  0  0  0  0  0  0  0  0  0
   20.2345   -9.7592  -14.8855 C   0  0  0  0  0  0  0  0  0  0  0  0
   19.4766  -10.7821  -15.6499 C   0  0  0  0  0  0  0  0  0  0  0  0
   18.6536  -10.5242  -16.7177 C   0  0  0  0  0  0  0  0  0  0  0  0
   18.1561  -11.7088  -17.1322 N   0  0  0  0  0  0  0  0  0  0  0  0
   18.6422  -12.6969  -16.3571 C   0  0  0  0  0  0  0  0  0  0  0  0
   19.4547  -12.0956  -15.4503 N   0  0  0  0  0  0  0  0  0  0  0  0
   22.1972   -8.3424  -14.8234 C   0  0  0  0  0  0  0  0  0  0  0  0
   22.9943   -8.5740  -13.8416 O   0  0  0  0  0  0  0  0  0  0  0  0
   21.9808   -6.9975  -15.1567 N   0  0  0  0  0  0  0  0  0  0  0  0
   20.9722   -6.5456  -16.1402 C   0  0  0  0  0  0  0  0  0  0  0  0
   21.5356   -5.3065  -16.7520 C   0  0  0  0  0  0  0  0  0  0  0  0
   22.8498   -5.0697  -16.0172 C   0  0  0  0  0  0  0  0  0  0  0  0
   22.5551   -5.7537  -14.6761 C   0  0  1  0  0  0  0  0  0  0  0  0
   21.5964   -4.9613  -13.8835 C   0  0  0  0  0  0  0  0  0  0  0  0
   20.3805   -5.2063  -13.9305 O   0  0  0  0  0  0  0  0  0  0  0  0
   22.0585   -3.9398  -13.0839 O   0  0  0  0  0  0  0  0  0  0  0  0
  2  1  1  0
  3  5  1  0
  3  2  1  0
  3  4  1  6
  5  6  2  0
  7  5  1  0
  8  7  1  0
  9 10  1  0
  8  9  1  1
 10 14  1  0
 11 12  1  0
 11 10  2  0
 12 13  1  0
 13 14  2  0
 15  8  1  0
 15 17  1  0
 16 15  2  0
 17 18  1  0
 19 18  1  0
 20 19  1  0
 20 21  1  0
 21 17  1  0
 21 22  1  1
 22 24  1  0
 23 22  2  0
M  END
$$$$
