SHP.pdb
     RDKit          3D

 24 25  0  0  1  0  0  0  0  0999 V2000
   27.6615  -10.9078  -15.3380 O   0  0  0  0  0  0  0  0  0  0  0  0
   26.6418  -10.1688  -15.9482 C   0  0  0  0  0  0  0  0  0  0  0  0
   25.4980  -11.0776  -16.2143 C   0  0  2  0  0  0  0  0  0  0  0  0
   25.8889  -12.0313  -17.2284 N   0  0  0  0  0  0  0  0  0  0  0  0
   24.2437  -10.4581  -16.5801 C   0  0  0  0  0  0  0  0  0  0  0  0
   24.0444  -10.1833  -17.8119 O   0  0  0  0  0  0  0  0  0  0  0  0
   23.1883  -10.1117  -15.7270 N   0  0  0  0  0  0  0  0  0  0  0  0
   21.9473   -9.4692  -16.1191 C   0  0  1  0  0  0  0  0  0  0  0  0
   20.7686  -10.1446  -15.4531 C   0  0  0  0  0  0  0  0  0  0  0  0
   20.5504  -11.5112  -15.9915 C   0  0  0  0  0  0  0  0  0  0  0  0
   20.9536  -12.6749  -15.3857 C   0  0  0  0  0  0  0  0  0  0  0  0
   20.5696  -13.6934  -16.1843 N   0  0  0  0  0  0  0  0  0  0  0  0
   19.9401  -13.2021  -17.2687 C   0  0  0  0  0  0  0  0  0  0  0  0
   19.9429  -11.8519  -17.1231 N   0  0  0  0  0  0  0  0  0  0  0  0
   21.9712   -8.0595  -15.7165 C   0  0  0  0  0  0  0  0  0  0  0  0
   22.6089   -7.7094  -14.6565 O   0  0  0  0  0  0  0  0  0  0  0  0
   21.3286   -7.0390  -16.4321 N   0  0  0  0  0  0  0  0  0  0  0  0
   20.5093   -7.2725  -17.6417 C   0  0  0  0  0  0  0  0  0  0  0  0
   20.6666   -6.0450  -18.4758 C   0  0  0  0  0  0  0  0  0  0  0  0
   21.5435   -5.1162  -17.6441 C   0  0  0  0  0  0  0  0  0  0  0  0
   21.2162   -5.6060  -16.2277 C   0  0  1  0  0  0  0  0  0  0  0  0
   19.8541   -5.1994  -15.8346 C   0  0  0  0  0  0  0  0  0  0  0  0
   18.8984   -5.9815  -15.9604 O   0  0  0  0  0  0  0  0  0  0  0  0
   19.6438   -3.9384  -15.3228 O   0  0  0  0  0  0  0  0  0  0  0  0
  2  1  1  0
  3  5  1  0
  3  2  1  0
  3  4  1  6
  5  6  2  0
  7  5  1  0
  8  7  1  0
  9 10  1  0
  8  9  1  1
 10 14  1  0
 11 12  1  0
 11 10  2  0
 12 13  1  0
 13 14  2  0
 15  8  1  0
 15 17  1  0
 16 15  2  0
 17 18  1  0
 19 18  1  0
 20 19  1  0
 20 21  1  0
 21 17  1  0
 21 22  1  6
 22 24  1  0
 23 22  2  0
M  END
$$$$
