SHP.pdb
     RDKit          3D

 24 25  0  0  1  0  0  0  0  0999 V2000
   27.8554  -34.5703    2.4810 O   0  0  0  0  0  0  0  0  0  0  0  0
   27.6450  -33.2367    2.8493 C   0  0  0  0  0  0  0  0  0  0  0  0
   26.2023  -32.9262    2.6846 C   0  0  2  0  0  0  0  0  0  0  0  0
   26.0025  -32.3231    1.3858 N   0  0  0  0  0  0  0  0  0  0  0  0
   25.5905  -32.1060    3.7064 C   0  0  0  0  0  0  0  0  0  0  0  0
   26.0227  -30.9134    3.8601 O   0  0  0  0  0  0  0  0  0  0  0  0
   24.5519  -32.4665    4.5741 N   0  0  0  0  0  0  0  0  0  0  0  0
   24.0153  -31.6532    5.6500 C   0  0  1  0  0  0  0  0  0  0  0  0
   22.5040  -31.7229    5.6623 C   0  0  0  0  0  0  0  0  0  0  0  0
   21.9096  -30.8023    4.6602 C   0  0  0  0  0  0  0  0  0  0  0  0
   21.7504  -29.4489    4.8242 C   0  0  0  0  0  0  0  0  0  0  0  0
   21.1788  -28.9757    3.6964 N   0  0  0  0  0  0  0  0  0  0  0  0
   20.9763  -29.9904    2.8346 C   0  0  0  0  0  0  0  0  0  0  0  0
   21.4370  -31.1065    3.4561 N   0  0  0  0  0  0  0  0  0  0  0  0
   24.5195  -32.1407    6.9376 C   0  0  0  0  0  0  0  0  0  0  0  0
   25.0770  -33.2970    7.0080 O   0  0  0  0  0  0  0  0  0  0  0  0
   24.4336  -31.4079    8.1302 N   0  0  0  0  0  0  0  0  0  0  0  0
   23.7742  -30.0881    8.2392 C   0  0  0  0  0  0  0  0  0  0  0  0
   24.5139  -29.3572    9.3096 C   0  0  0  0  0  0  0  0  0  0  0  0
   25.5500  -30.3525    9.8189 C   0  0  0  0  0  0  0  0  0  0  0  0
   24.8556  -31.6808    9.4923 C   0  0  1  0  0  0  0  0  0  0  0  0
   23.7151  -31.9122   10.3983 C   0  0  0  0  0  0  0  0  0  0  0  0
   22.5550  -31.6657   10.0322 O   0  0  0  0  0  0  0  0  0  0  0  0
   23.9432  -32.4071   11.6630 O   0  0  0  0  0  0  0  0  0  0  0  0
  2  1  1  0
  3  5  1  0
  3  2  1  0
  3  4  1  6
  5  6  2  0
  7  5  1  0
  8  7  1  0
  9 10  1  0
  8  9  1  1
 10 14  1  0
 11 12  1  0
 11 10  2  0
 12 13  1  0
 13 14  2  0
 15  8  1  0
 15 17  1  0
 16 15  2  0
 17 18  1  0
 19 18  1  0
 20 19  1  0
 20 21  1  0
 21 17  1  0
 21 22  1  1
 22 24  1  0
 23 22  2  0
M  END
$$$$
