SHP.pdb
     RDKit          3D

 24 25  0  0  1  0  0  0  0  0999 V2000
   19.4029  -30.6529   -9.5181 O   0  0  0  0  0  0  0  0  0  0  0  0
   19.8972  -31.9272   -9.2178 C   0  0  0  0  0  0  0  0  0  0  0  0
   21.1915  -32.1070   -9.9231 C   0  0  2  0  0  0  0  0  0  0  0  0
   20.9291  -32.6002  -11.2566 N   0  0  0  0  0  0  0  0  0  0  0  0
   22.1771  -32.9435   -9.2751 C   0  0  0  0  0  0  0  0  0  0  0  0
   22.0284  -34.2109   -9.3411 O   0  0  0  0  0  0  0  0  0  0  0  0
   23.3084  -32.5252   -8.5633 N   0  0  0  0  0  0  0  0  0  0  0  0
   24.2603  -33.3873   -7.8869 C   0  0  1  0  0  0  0  0  0  0  0  0
   25.6772  -32.9739   -8.2192 C   0  0  0  0  0  0  0  0  0  0  0  0
   26.0671  -33.4176   -9.5815 C   0  0  0  0  0  0  0  0  0  0  0  0
   26.0271  -32.6377  -10.7103 C   0  0  0  0  0  0  0  0  0  0  0  0
   26.4580  -33.4009  -11.7371 N   0  0  0  0  0  0  0  0  0  0  0  0
   26.7651  -34.6317  -11.2850 C   0  0  0  0  0  0  0  0  0  0  0  0
   26.5140  -34.6133   -9.9505 N   0  0  0  0  0  0  0  0  0  0  0  0
   24.0701  -33.2922   -6.4362 C   0  0  0  0  0  0  0  0  0  0  0  0
   23.6005  -32.2106   -5.9238 O   0  0  0  0  0  0  0  0  0  0  0  0
   24.3726  -34.3325   -5.5458 N   0  0  0  0  0  0  0  0  0  0  0  0
   25.0870  -35.5679   -5.9362 C   0  0  0  0  0  0  0  0  0  0  0  0
   24.5554  -36.6382   -5.0422 C   0  0  0  0  0  0  0  0  0  0  0  0
   23.5806  -35.9239   -4.1133 C   0  0  0  0  0  0  0  0  0  0  0  0
   24.1663  -34.5061   -4.1193 C   0  0  1  0  0  0  0  0  0  0  0  0
   25.4290  -34.4578   -3.3588 C   0  0  0  0  0  0  0  0  0  0  0  0
   26.5196  -34.6122   -3.9311 O   0  0  0  0  0  0  0  0  0  0  0  0
   25.3942  -34.2389   -1.9996 O   0  0  0  0  0  0  0  0  0  0  0  0
  2  1  1  0
  3  5  1  0
  3  2  1  0
  3  4  1  6
  5  6  2  0
  7  5  1  0
  8  7  1  0
  9 10  1  0
  8  9  1  1
 10 14  1  0
 11 12  1  0
 11 10  2  0
 12 13  1  0
 13 14  2  0
 15  8  1  0
 15 17  1  0
 16 15  2  0
 17 18  1  0
 19 18  1  0
 20 19  1  0
 20 21  1  0
 21 17  1  0
 21 22  1  1
 22 24  1  0
 23 22  2  0
M  END
$$$$
