SHP.pdb
     RDKit          3D

 24 25  0  0  1  0  0  0  0  0999 V2000
   27.4597  -20.3616  -18.8820 O   0  0  0  0  0  0  0  0  0  0  0  0
   28.7415  -20.0707  -18.4014 C   0  0  0  0  0  0  0  0  0  0  0  0
   29.1347  -21.1323  -17.4404 C   0  0  2  0  0  0  0  0  0  0  0  0
   29.3329  -22.3663  -18.1672 N   0  0  0  0  0  0  0  0  0  0  0  0
   28.2491  -21.3589  -16.3200 C   0  0  0  0  0  0  0  0  0  0  0  0
   27.5000  -22.3938  -16.3442 O   0  0  0  0  0  0  0  0  0  0  0  0
   28.1060  -20.5619  -15.1773 N   0  0  0  0  0  0  0  0  0  0  0  0
   27.1742  -20.7885  -14.0877 C   0  0  1  0  0  0  0  0  0  0  0  0
   27.6198  -20.0453  -12.8476 C   0  0  0  0  0  0  0  0  0  0  0  0
   26.6954  -20.2834  -11.7101 C   0  0  0  0  0  0  0  0  0  0  0  0
   25.6225  -19.4926  -11.3824 C   0  0  0  0  0  0  0  0  0  0  0  0
   25.0398  -20.0423  -10.2958 N   0  0  0  0  0  0  0  0  0  0  0  0
   25.7150  -21.1502   -9.9351 C   0  0  0  0  0  0  0  0  0  0  0  0
   26.7324  -21.2747  -10.8260 N   0  0  0  0  0  0  0  0  0  0  0  0
   25.8413  -20.3113  -14.4692 C   0  0  0  0  0  0  0  0  0  0  0  0
   25.7199  -19.2060  -15.1146 O   0  0  0  0  0  0  0  0  0  0  0  0
   24.6573  -21.0007  -14.1703 N   0  0  0  0  0  0  0  0  0  0  0  0
   24.6016  -22.2095  -13.3192 C   0  0  0  0  0  0  0  0  0  0  0  0
   23.4630  -23.0184  -13.8452 C   0  0  0  0  0  0  0  0  0  0  0  0
   22.8663  -22.1729  -14.9643 C   0  0  0  0  0  0  0  0  0  0  0  0
   23.2637  -20.7651  -14.5024 C   0  0  1  0  0  0  0  0  0  0  0  0
   22.4683  -20.3544  -13.3303 C   0  0  0  0  0  0  0  0  0  0  0  0
   22.9529  -20.3999  -12.1884 O   0  0  0  0  0  0  0  0  0  0  0  0
   21.1749  -19.9164  -13.5081 O   0  0  0  0  0  0  0  0  0  0  0  0
  2  1  1  0
  3  5  1  0
  3  2  1  0
  3  4  1  6
  5  6  2  0
  7  5  1  0
  8  7  1  0
  9 10  1  0
  8  9  1  1
 10 14  1  0
 11 12  1  0
 11 10  2  0
 12 13  1  0
 13 14  2  0
 15  8  1  0
 15 17  1  0
 16 15  2  0
 17 18  1  0
 19 18  1  0
 20 19  1  0
 20 21  1  0
 21 17  1  0
 21 22  1  1
 22 24  1  0
 23 22  2  0
M  END
$$$$
