SHP.pdb
     RDKit          3D

 24 25  0  0  1  0  0  0  0  0999 V2000
   29.1734  -22.1663  -14.0100 O   0  0  0  0  0  0  0  0  0  0  0  0
   28.8608  -21.1170  -13.1385 C   0  0  0  0  0  0  0  0  0  0  0  0
   27.4084  -21.1754  -12.8352 C   0  0  2  0  0  0  0  0  0  0  0  0
   26.6764  -20.6495  -13.9657 N   0  0  0  0  0  0  0  0  0  0  0  0
   26.9687  -20.5260  -11.6202 C   0  0  0  0  0  0  0  0  0  0  0  0
   27.1335  -19.2629  -11.5191 O   0  0  0  0  0  0  0  0  0  0  0  0
   26.3666  -21.1267  -10.5076 N   0  0  0  0  0  0  0  0  0  0  0  0
   26.0814  -20.4834   -9.2381 C   0  0  1  0  0  0  0  0  0  0  0  0
   24.7004  -20.8638   -8.7509 C   0  0  0  0  0  0  0  0  0  0  0  0
   23.6448  -20.3714   -9.6719 C   0  0  0  0  0  0  0  0  0  0  0  0
   23.8691  -19.6849  -10.8391 C   0  0  0  0  0  0  0  0  0  0  0  0
   22.6624  -19.4189  -11.3828 N   0  0  0  0  0  0  0  0  0  0  0  0
   21.6929  -19.9171  -10.5920 C   0  0  0  0  0  0  0  0  0  0  0  0
   22.3286  -20.4997   -9.5429 N   0  0  0  0  0  0  0  0  0  0  0  0
   27.0664  -20.9050   -8.2373 C   0  0  0  0  0  0  0  0  0  0  0  0
   27.6408  -22.0497   -8.3502 O   0  0  0  0  0  0  0  0  0  0  0  0
   27.4355  -20.1199   -7.1355 N   0  0  0  0  0  0  0  0  0  0  0  0
   26.8015  -18.8266   -6.7976 C   0  0  0  0  0  0  0  0  0  0  0  0
   27.8711  -18.0129   -6.1487 C   0  0  0  0  0  0  0  0  0  0  0  0
   29.0827  -18.9358   -6.0883 C   0  0  0  0  0  0  0  0  0  0  0  0
   28.3966  -20.3076   -6.0636 C   0  0  1  0  0  0  0  0  0  0  0  0
   27.7466  -20.5447   -4.7611 C   0  0  0  0  0  0  0  0  0  0  0  0
   26.5103  -20.5131   -4.6549 O   0  0  0  0  0  0  0  0  0  0  0  0
   28.5224  -20.8038   -3.6533 O   0  0  0  0  0  0  0  0  0  0  0  0
  2  1  1  0
  3  5  1  0
  3  2  1  0
  3  4  1  6
  5  6  2  0
  7  5  1  0
  8  7  1  0
  9 10  1  0
  8  9  1  1
 10 14  1  0
 11 12  1  0
 11 10  2  0
 12 13  1  0
 13 14  2  0
 15  8  1  0
 15 17  1  0
 16 15  2  0
 17 18  1  0
 19 18  1  0
 20 19  1  0
 20 21  1  0
 21 17  1  0
 21 22  1  1
 22 24  1  0
 23 22  2  0
M  END
$$$$
