SHP.pdb
     RDKit          3D

 24 25  0  0  1  0  0  0  0  0999 V2000
   22.4738   -9.8998    6.3270 O   0  0  0  0  0  0  0  0  0  0  0  0
   22.1587  -10.9910    7.1445 C   0  0  0  0  0  0  0  0  0  0  0  0
   20.7354  -10.8770    7.5519 C   0  0  2  0  0  0  0  0  0  0  0  0
   20.5776   -9.6888    8.3605 N   0  0  0  0  0  0  0  0  0  0  0  0
   20.1583  -12.0147    8.2327 C   0  0  0  0  0  0  0  0  0  0  0  0
   20.2727  -12.0775    9.5038 O   0  0  0  0  0  0  0  0  0  0  0  0
   19.4686  -13.0882    7.6554 N   0  0  0  0  0  0  0  0  0  0  0  0
   19.0263  -14.2886    8.3412 C   0  0  1  0  0  0  0  0  0  0  0  0
   17.7621  -14.8250    7.7065 C   0  0  0  0  0  0  0  0  0  0  0  0
   16.5756  -14.0218    8.0964 C   0  0  0  0  0  0  0  0  0  0  0  0
   16.1716  -13.7800    9.3857 C   0  0  0  0  0  0  0  0  0  0  0  0
   15.0612  -13.0152    9.3183 N   0  0  0  0  0  0  0  0  0  0  0  0
   14.7596  -12.7725    8.0285 C   0  0  0  0  0  0  0  0  0  0  0  0
   15.7115  -13.4064    7.2962 N   0  0  0  0  0  0  0  0  0  0  0  0
   20.0676  -15.3176    8.2590 C   0  0  0  0  0  0  0  0  0  0  0  0
   20.8751  -15.3296    7.2586 O   0  0  0  0  0  0  0  0  0  0  0  0
   20.2476  -16.3160    9.2271 N   0  0  0  0  0  0  0  0  0  0  0  0
   19.3513  -16.5070   10.3885 C   0  0  0  0  0  0  0  0  0  0  0  0
   20.2167  -17.0450   11.4789 C   0  0  0  0  0  0  0  0  0  0  0  0
   21.5941  -17.2003   10.8449 C   0  0  0  0  0  0  0  0  0  0  0  0
   21.2111  -17.3924    9.3719 C   0  0  1  0  0  0  0  0  0  0  0  0
   20.6067  -18.7204    9.1569 C   0  0  0  0  0  0  0  0  0  0  0  0
   19.3735  -18.8570    9.1216 O   0  0  0  0  0  0  0  0  0  0  0  0
   21.4219  -19.8182    8.9937 O   0  0  0  0  0  0  0  0  0  0  0  0
  2  1  1  0
  3  5  1  0
  3  2  1  0
  3  4  1  1
  5  6  2  0
  7  5  1  0
  8  7  1  0
  9 10  1  0
  8  9  1  6
 10 14  1  0
 11 12  1  0
 11 10  2  0
 12 13  1  0
 13 14  2  0
 15  8  1  0
 15 17  1  0
 16 15  2  0
 17 18  1  0
 19 18  1  0
 20 19  1  0
 20 21  1  0
 21 17  1  0
 21 22  1  1
 22 24  1  0
 23 22  2  0
M  END
$$$$
