SHP.pdb
     RDKit          3D

 24 25  0  0  1  0  0  0  0  0999 V2000
   26.8313  -10.9764  -20.3255 O   0  0  0  0  0  0  0  0  0  0  0  0
   25.6240  -10.3424  -20.0113 C   0  0  0  0  0  0  0  0  0  0  0  0
   24.7926  -11.2826  -19.2176 C   0  0  2  0  0  0  0  0  0  0  0  0
   24.2903  -12.3143  -20.0971 N   0  0  0  0  0  0  0  0  0  0  0  0
   23.7026  -10.7096  -18.4597 C   0  0  0  0  0  0  0  0  0  0  0  0
   22.6484  -10.3597  -19.0914 O   0  0  0  0  0  0  0  0  0  0  0  0
   23.6566  -10.4839  -17.0782 N   0  0  0  0  0  0  0  0  0  0  0  0
   22.5679   -9.8591  -16.3494 C   0  0  1  0  0  0  0  0  0  0  0  0
   22.4354  -10.4690  -14.9712 C   0  0  0  0  0  0  0  0  0  0  0  0
   21.2771   -9.9018  -14.2353 C   0  0  0  0  0  0  0  0  0  0  0  0
   21.3603   -9.0378  -13.1721 C   0  0  0  0  0  0  0  0  0  0  0  0
   20.0970   -8.7566  -12.7877 N   0  0  0  0  0  0  0  0  0  0  0  0
   19.2289   -9.4178  -13.5768 C   0  0  0  0  0  0  0  0  0  0  0  0
   19.9855  -10.1170  -14.4616 N   0  0  0  0  0  0  0  0  0  0  0  0
   22.8281   -8.4234  -16.2059 C   0  0  0  0  0  0  0  0  0  0  0  0
   24.0181   -8.0138  -15.9430 O   0  0  0  0  0  0  0  0  0  0  0  0
   21.8381   -7.4396  -16.3424 N   0  0  0  0  0  0  0  0  0  0  0  0
   20.4069   -7.7386  -16.5682 C   0  0  0  0  0  0  0  0  0  0  0  0
   19.8827   -6.6012  -17.3799 C   0  0  0  0  0  0  0  0  0  0  0  0
   21.0630   -5.6479  -17.5259 C   0  0  0  0  0  0  0  0  0  0  0  0
   21.8652   -5.9902  -16.2640 C   0  0  1  0  0  0  0  0  0  0  0  0
   21.1871   -5.4797  -15.0578 C   0  0  0  0  0  0  0  0  0  0  0  0
   20.5164   -6.2379  -14.3394 O   0  0  0  0  0  0  0  0  0  0  0  0
   21.3014   -4.1476  -14.7280 O   0  0  0  0  0  0  0  0  0  0  0  0
  2  1  1  0
  3  5  1  0
  3  2  1  0
  3  4  1  6
  5  6  2  0
  7  5  1  0
  8  7  1  0
  9 10  1  0
  8  9  1  1
 10 14  1  0
 11 12  1  0
 11 10  2  0
 12 13  1  0
 13 14  2  0
 15  8  1  0
 15 17  1  0
 16 15  2  0
 17 18  1  0
 19 18  1  0
 20 19  1  0
 20 21  1  0
 21 17  1  0
 21 22  1  1
 22 24  1  0
 23 22  2  0
M  END
$$$$
