GNS.pdb
     RDKit          3D

 19 18  0  0  1  0  0  0  0  0999 V2000
    7.5683  -19.1971   18.3102 N   0  0  0  0  0  0  0  0  0  0  0  0
    7.0487  -18.4056   19.4104 C   0  0  0  0  0  0  0  0  0  0  0  0
    8.0585  -17.4166   19.8880 C   0  0  0  0  0  0  0  0  0  0  0  0
    9.2754  -17.6565   19.9264 O   0  0  0  0  0  0  0  0  0  0  0  0
    6.4991  -12.5572   18.9830 N   0  0  0  0  0  0  0  0  0  0  0  0
    7.6609  -13.3353   19.3430 C   0  0  0  0  0  0  0  0  0  0  0  0
    8.4186  -13.6524   18.4210 O   0  0  0  0  0  0  0  0  0  0  0  0
    7.8988  -13.7125   20.7424 C   0  0  0  0  0  0  0  0  0  0  0  0
    8.3478  -15.1447   20.9169 C   0  0  2  0  0  0  0  0  0  0  0  0
    7.5828  -16.1595   20.3101 N   0  0  0  0  0  0  0  0  0  0  0  0
    8.8356  -15.4631   22.2676 C   0  0  0  0  0  0  0  0  0  0  0  0
    7.9922  -15.6465   23.2092 O   0  0  0  0  0  0  0  0  0  0  0  0
    8.9988  -17.8121   24.6570 O   0  0  0  0  0  0  0  0  0  0  0  0
   10.1116  -17.6971   23.8259 C   0  0  0  0  0  0  0  0  0  0  0  0
   10.6101  -16.2650   23.8037 C   0  0  2  0  0  0  0  0  0  0  0  0
   10.1979  -15.5851   22.6124 N   0  0  0  0  0  0  0  0  0  0  0  0
   12.0869  -16.2825   23.9058 C   0  0  0  0  0  0  0  0  0  0  0  0
   12.7346  -16.7349   25.0385 O   0  0  0  0  0  0  0  0  0  0  0  0
   12.7771  -15.8783   22.9452 O   0  0  0  0  0  0  0  0  0  0  0  0
  1  2  1  0
  2  3  1  0
  3 10  1  0
  3  4  2  0
  6  5  1  0
  7  6  2  0
  8  6  1  0
  9  8  1  1
 10  9  1  0
 11  9  1  0
 11 12  2  0
 14 13  1  0
 15 14  1  6
 15 16  1  0
 16 11  1  0
 17 15  1  0
 18 17  1  0
 19 17  2  0
M  END
$$$$
