GNS.pdb
     RDKit          3D

 19 18  0  0  1  0  0  0  0  0999 V2000
    8.9240  -16.5523   18.2430 N   0  0  0  0  0  0  0  0  0  0  0  0
    9.3722  -15.8996   19.4596 C   0  0  0  0  0  0  0  0  0  0  0  0
    8.3105  -15.9233   20.5075 C   0  0  0  0  0  0  0  0  0  0  0  0
    7.1939  -16.4341   20.3284 O   0  0  0  0  0  0  0  0  0  0  0  0
    8.6688  -18.9853   24.3325 N   0  0  0  0  0  0  0  0  0  0  0  0
    8.7882  -17.6572   23.7788 C   0  0  0  0  0  0  0  0  0  0  0  0
    9.9348  -17.2227   23.6323 O   0  0  0  0  0  0  0  0  0  0  0  0
    7.5880  -16.8908   23.4192 C   0  0  0  0  0  0  0  0  0  0  0  0
    7.8842  -15.4876   22.9431 C   0  0  2  0  0  0  0  0  0  0  0  0
    8.6145  -15.3312   21.7492 N   0  0  0  0  0  0  0  0  0  0  0  0
    8.2489  -14.5511   24.0174 C   0  0  0  0  0  0  0  0  0  0  0  0
    9.4827  -14.3593   24.2865 O   0  0  0  0  0  0  0  0  0  0  0  0
    5.4582  -12.6111   26.4434 O   0  0  0  0  0  0  0  0  0  0  0  0
    6.6303  -11.9198   26.1424 C   0  0  0  0  0  0  0  0  0  0  0  0
    7.7407  -12.8897   25.7873 C   0  0  2  0  0  0  0  0  0  0  0  0
    7.3175  -13.8296   24.7930 N   0  0  0  0  0  0  0  0  0  0  0  0
    8.1590  -13.5933   27.0208 C   0  0  0  0  0  0  0  0  0  0  0  0
    8.0724  -14.9662   27.1427 O   0  0  0  0  0  0  0  0  0  0  0  0
    8.6049  -12.9356   27.9858 O   0  0  0  0  0  0  0  0  0  0  0  0
  1  2  1  0
  2  3  1  0
  3 10  1  0
  3  4  2  0
  6  5  1  0
  7  6  2  0
  8  6  1  0
  9  8  1  1
 10  9  1  0
 11  9  1  0
 11 12  2  0
 14 13  1  0
 15 14  1  1
 15 16  1  0
 16 11  1  0
 17 15  1  0
 18 17  1  0
 19 17  2  0
M  END
$$$$
