GNS.pdb
     RDKit          3D

 19 18  0  0  1  0  0  0  0  0999 V2000
    8.5432  -19.4177   18.4809 N   0  0  0  0  0  0  0  0  0  0  0  0
    7.7041  -18.3656   19.0250 C   0  0  0  0  0  0  0  0  0  0  0  0
    8.5223  -17.3209   19.7070 C   0  0  0  0  0  0  0  0  0  0  0  0
    9.7558  -17.3949   19.8215 O   0  0  0  0  0  0  0  0  0  0  0  0
    6.6124  -12.1179   19.3197 N   0  0  0  0  0  0  0  0  0  0  0  0
    7.4304  -13.2910   19.5184 C   0  0  0  0  0  0  0  0  0  0  0  0
    7.8770  -13.8297   18.5010 O   0  0  0  0  0  0  0  0  0  0  0  0
    7.6979  -13.7902   20.8736 C   0  0  0  0  0  0  0  0  0  0  0  0
    8.4265  -15.1137   20.8998 C   0  0  2  0  0  0  0  0  0  0  0  0
    7.8391  -16.2089   20.2374 N   0  0  0  0  0  0  0  0  0  0  0  0
    9.0460  -15.4351   22.1947 C   0  0  0  0  0  0  0  0  0  0  0  0
    8.3125  -15.5037   23.2381 O   0  0  0  0  0  0  0  0  0  0  0  0
   10.8069  -18.0977   25.0904 O   0  0  0  0  0  0  0  0  0  0  0  0
   10.2820  -17.5679   23.9131 C   0  0  0  0  0  0  0  0  0  0  0  0
   10.9285  -16.2326   23.5989 C   0  0  2  0  0  0  0  0  0  0  0  0
   10.4230  -15.6800   22.3781 N   0  0  0  0  0  0  0  0  0  0  0  0
   12.3927  -16.4315   23.5105 C   0  0  0  0  0  0  0  0  0  0  0  0
   13.0946  -16.1791   22.3482 O   0  0  0  0  0  0  0  0  0  0  0  0
   13.0219  -16.8394   24.5107 O   0  0  0  0  0  0  0  0  0  0  0  0
  1  2  1  0
  2  3  1  0
  3 10  1  0
  3  4  2  0
  6  5  1  0
  7  6  2  0
  8  6  1  0
  9  8  1  1
 10  9  1  0
 11  9  1  0
 11 12  2  0
 14 13  1  0
 15 14  1  6
 15 16  1  0
 16 11  1  0
 17 15  1  0
 18 17  1  0
 19 17  2  0
M  END
$$$$
