GNS.pdb
     RDKit          3D

 19 18  0  0  1  0  0  0  0  0999 V2000
    7.0761  -19.6502   19.2052 N   0  0  0  0  0  0  0  0  0  0  0  0
    6.5347  -18.3788   19.6497 C   0  0  0  0  0  0  0  0  0  0  0  0
    7.6221  -17.4406   20.0537 C   0  0  0  0  0  0  0  0  0  0  0  0
    8.8215  -17.7588   20.0641 O   0  0  0  0  0  0  0  0  0  0  0  0
    6.7920  -12.2283   18.8683 N   0  0  0  0  0  0  0  0  0  0  0  0
    7.6311  -13.3263   19.2870 C   0  0  0  0  0  0  0  0  0  0  0  0
    8.2502  -13.9167   18.3966 O   0  0  0  0  0  0  0  0  0  0  0  0
    7.7206  -13.6946   20.7059 C   0  0  0  0  0  0  0  0  0  0  0  0
    8.1011  -15.1389   20.9350 C   0  0  2  0  0  0  0  0  0  0  0  0
    7.2435  -16.1390   20.4372 N   0  0  0  0  0  0  0  0  0  0  0  0
    8.6585  -15.4111   22.2688 C   0  0  0  0  0  0  0  0  0  0  0  0
    7.9985  -15.0611   23.3048 O   0  0  0  0  0  0  0  0  0  0  0  0
   10.4176  -18.6070   23.4286 O   0  0  0  0  0  0  0  0  0  0  0  0
   10.0443  -17.6272   24.3467 C   0  0  0  0  0  0  0  0  0  0  0  0
   10.3996  -16.2487   23.8240 C   0  0  2  0  0  0  0  0  0  0  0  0
    9.8973  -16.0455   22.4982 N   0  0  0  0  0  0  0  0  0  0  0  0
   11.8728  -16.1052   23.8477 C   0  0  0  0  0  0  0  0  0  0  0  0
   12.6018  -15.8727   22.6981 O   0  0  0  0  0  0  0  0  0  0  0  0
   12.4845  -16.1953   24.9341 O   0  0  0  0  0  0  0  0  0  0  0  0
  1  2  1  0
  2  3  1  0
  3 10  1  0
  3  4  2  0
  6  5  1  0
  7  6  2  0
  8  6  1  0
  9  8  1  1
 10  9  1  0
 11  9  1  0
 11 12  2  0
 14 13  1  0
 15 14  1  6
 15 16  1  0
 16 11  1  0
 17 15  1  0
 18 17  1  0
 19 17  2  0
M  END
$$$$
