GNS.pdb
     RDKit          3D

 19 18  0  0  1  0  0  0  0  0999 V2000
    3.2952  -23.8272   19.3490 N   0  0  0  0  0  0  0  0  0  0  0  0
    3.7449  -24.5318   20.5357 C   0  0  0  0  0  0  0  0  0  0  0  0
    4.0135  -23.5847   21.6567 C   0  0  0  0  0  0  0  0  0  0  0  0
    4.0195  -22.3519   21.5146 O   0  0  0  0  0  0  0  0  0  0  0  0
    1.8918  -22.5474   24.2899 N   0  0  0  0  0  0  0  0  0  0  0  0
    2.4209  -23.3191   25.3896 C   0  0  0  0  0  0  0  0  0  0  0  0
    1.6481  -23.5451   26.3258 O   0  0  0  0  0  0  0  0  0  0  0  0
    3.8101  -23.7951   25.3635 C   0  0  0  0  0  0  0  0  0  0  0  0
    4.5554  -23.4229   24.1029 C   0  0  2  0  0  0  0  0  0  0  0  0
    4.2697  -24.1408   22.9255 N   0  0  0  0  0  0  0  0  0  0  0  0
    5.9799  -23.1208   24.3118 C   0  0  0  0  0  0  0  0  0  0  0  0
    6.8362  -24.0655   24.2363 O   0  0  0  0  0  0  0  0  0  0  0  0
    7.5358  -19.2341   24.9691 O   0  0  0  0  0  0  0  0  0  0  0  0
    8.1875  -20.1493   24.1444 C   0  0  0  0  0  0  0  0  0  0  0  0
    7.8935  -21.5681   24.5919 C   0  0  2  0  0  0  0  0  0  0  0  0
    6.4865  -21.8354   24.5960 N   0  0  0  0  0  0  0  0  0  0  0  0
    8.4611  -21.7584   25.9458 C   0  0  0  0  0  0  0  0  0  0  0  0
    7.6604  -21.9926   27.0464 O   0  0  0  0  0  0  0  0  0  0  0  0
    9.6994  -21.7074   26.1090 O   0  0  0  0  0  0  0  0  0  0  0  0
  1  2  1  0
  2  3  1  0
  3 10  1  0
  3  4  2  0
  6  5  1  0
  7  6  2  0
  8  6  1  0
  9  8  1  1
 10  9  1  0
 11  9  1  0
 11 12  2  0
 14 13  1  0
 15 14  1  1
 15 16  1  0
 16 11  1  0
 17 15  1  0
 18 17  1  0
 19 17  2  0
M  END
$$$$
