GNS.pdb
     RDKit          3D

 19 18  0  0  1  0  0  0  0  0999 V2000
    5.3556  -22.8249   25.2898 N   0  0  0  0  0  0  0  0  0  0  0  0
    5.6026  -21.4693   24.8334 C   0  0  0  0  0  0  0  0  0  0  0  0
    7.0501  -21.2523   24.5443 C   0  0  0  0  0  0  0  0  0  0  0  0
    7.9188  -22.1134   24.7539 O   0  0  0  0  0  0  0  0  0  0  0  0
   11.0374  -19.0794   21.2513 N   0  0  0  0  0  0  0  0  0  0  0  0
   10.3433  -18.3341   22.2748 C   0  0  0  0  0  0  0  0  0  0  0  0
   10.9975  -17.4695   22.8657 O   0  0  0  0  0  0  0  0  0  0  0  0
    8.9326  -18.6151   22.5717 C   0  0  0  0  0  0  0  0  0  0  0  0
    8.7344  -19.5868   23.7118 C   0  0  2  0  0  0  0  0  0  0  0  0
    7.4225  -20.0033   24.0095 N   0  0  0  0  0  0  0  0  0  0  0  0
    9.5786  -19.3183   24.8861 C   0  0  0  0  0  0  0  0  0  0  0  0
   10.8133  -19.0384   24.7169 O   0  0  0  0  0  0  0  0  0  0  0  0
    8.3886  -17.4145   28.0229 O   0  0  0  0  0  0  0  0  0  0  0  0
    9.7516  -17.6447   27.8451 C   0  0  0  0  0  0  0  0  0  0  0  0
    9.9874  -19.0467   27.3173 C   0  0  2  0  0  0  0  0  0  0  0  0
    9.1182  -19.3463   26.2191 N   0  0  0  0  0  0  0  0  0  0  0  0
    9.7727  -20.0053   28.4247 C   0  0  0  0  0  0  0  0  0  0  0  0
   10.5125  -19.9519   29.5897 O   0  0  0  0  0  0  0  0  0  0  0  0
    8.8994  -20.8926   28.3127 O   0  0  0  0  0  0  0  0  0  0  0  0
  1  2  1  0
  2  3  1  0
  3 10  1  0
  3  4  2  0
  6  5  1  0
  7  6  2  0
  8  6  1  0
  9  8  1  6
 10  9  1  0
 11  9  1  0
 11 12  2  0
 14 13  1  0
 15 14  1  1
 15 16  1  0
 16 11  1  0
 17 15  1  0
 18 17  1  0
 19 17  2  0
M  END
$$$$
