GNS.pdb
     RDKit          3D

 19 18  0  0  1  0  0  0  0  0999 V2000
    6.7716  -18.9970   19.3262 N   0  0  0  0  0  0  0  0  0  0  0  0
    6.2175  -17.6921   19.6381 C   0  0  0  0  0  0  0  0  0  0  0  0
    7.1532  -16.8967   20.4853 C   0  0  0  0  0  0  0  0  0  0  0  0
    8.1692  -17.3800   21.0090 O   0  0  0  0  0  0  0  0  0  0  0  0
    8.4751  -14.0396   18.9171 N   0  0  0  0  0  0  0  0  0  0  0  0
    7.9914  -12.9473   19.7280 C   0  0  0  0  0  0  0  0  0  0  0  0
    7.9507  -11.8372   19.1887 O   0  0  0  0  0  0  0  0  0  0  0  0
    7.5771  -13.1796   21.1178 C   0  0  0  0  0  0  0  0  0  0  0  0
    7.5544  -14.6392   21.5082 C   0  0  2  0  0  0  0  0  0  0  0  0
    6.8466  -15.5363   20.6851 N   0  0  0  0  0  0  0  0  0  0  0  0
    7.4021  -14.8745   22.9523 C   0  0  0  0  0  0  0  0  0  0  0  0
    6.2786  -14.6324   23.5095 O   0  0  0  0  0  0  0  0  0  0  0  0
    6.4315  -17.4769   25.8954 O   0  0  0  0  0  0  0  0  0  0  0  0
    7.2255  -17.2381   24.7752 C   0  0  0  0  0  0  0  0  0  0  0  0
    8.1320  -16.0458   25.0131 C   0  0  2  0  0  0  0  0  0  0  0  0
    8.4272  -15.3598   23.7910 N   0  0  0  0  0  0  0  0  0  0  0  0
    9.3781  -16.5261   25.6518 C   0  0  0  0  0  0  0  0  0  0  0  0
    9.3970  -17.0015   26.9483 O   0  0  0  0  0  0  0  0  0  0  0  0
   10.4496  -16.5050   25.0084 O   0  0  0  0  0  0  0  0  0  0  0  0
  1  2  1  0
  2  3  1  0
  3 10  1  0
  3  4  2  0
  6  5  1  0
  7  6  2  0
  8  6  1  0
  9  8  1  1
 10  9  1  0
 11  9  1  0
 11 12  2  0
 14 13  1  0
 15 14  1  6
 15 16  1  0
 16 11  1  0
 17 15  1  0
 18 17  1  0
 19 17  2  0
M  END
$$$$
