GNS.pdb
     RDKit          3D

 19 18  0  0  1  0  0  0  0  0999 V2000
    6.4755  -16.6446   11.9538 N   0  0  0  0  0  0  0  0  0  0  0  0
    7.1284  -17.7088   12.6943 C   0  0  0  0  0  0  0  0  0  0  0  0
    6.5482  -17.8498   14.0616 C   0  0  0  0  0  0  0  0  0  0  0  0
    5.8804  -16.9584   14.6088 O   0  0  0  0  0  0  0  0  0  0  0  0
    5.7376  -22.6283   14.6968 N   0  0  0  0  0  0  0  0  0  0  0  0
    5.2401  -21.4607   15.3851 C   0  0  0  0  0  0  0  0  0  0  0  0
    4.1103  -21.0751   15.0695 O   0  0  0  0  0  0  0  0  0  0  0  0
    6.0610  -20.7912   16.4025 C   0  0  0  0  0  0  0  0  0  0  0  0
    6.3975  -19.3576   16.0634 C   0  0  2  0  0  0  0  0  0  0  0  0
    6.7840  -19.0605   14.7422 N   0  0  0  0  0  0  0  0  0  0  0  0
    7.1653  -18.6565   17.1040 C   0  0  0  0  0  0  0  0  0  0  0  0
    8.3988  -18.3947   16.9004 O   0  0  0  0  0  0  0  0  0  0  0  0
    5.5911  -17.5729   20.8375 O   0  0  0  0  0  0  0  0  0  0  0  0
    6.5927  -16.7744   20.2884 C   0  0  0  0  0  0  0  0  0  0  0  0
    7.4396  -17.5780   19.3205 C   0  0  2  0  0  0  0  0  0  0  0  0
    6.6309  -18.2396   18.3411 N   0  0  0  0  0  0  0  0  0  0  0  0
    8.2261  -18.5643   20.0953 C   0  0  0  0  0  0  0  0  0  0  0  0
    9.1938  -18.1763   21.0010 O   0  0  0  0  0  0  0  0  0  0  0  0
    8.0165  -19.7858   19.9328 O   0  0  0  0  0  0  0  0  0  0  0  0
  1  2  1  0
  2  3  1  0
  3 10  1  0
  3  4  2  0
  6  5  1  0
  7  6  2  0
  8  6  1  0
  9  8  1  1
 10  9  1  0
 11  9  1  0
 11 12  2  0
 14 13  1  0
 15 14  1  1
 15 16  1  0
 16 11  1  0
 17 15  1  0
 18 17  1  0
 19 17  2  0
M  END
$$$$
