HKA.pdb
     RDKit          3D

 25 25  0  0  1  0  0  0  0  0999 V2000
    9.4656  -17.7287   15.8712 N   0  0  0  0  0  0  0  0  0  0  0  0
   10.4751  -17.8523   16.8796 C   0  0  1  0  0  0  0  0  0  0  0  0
   11.5401  -16.7844   16.7731 C   0  0  0  0  0  0  0  0  0  0  0  0
   12.4266  -16.9870   15.6152 C   0  0  0  0  0  0  0  0  0  0  0  0
   12.4091  -17.9962   14.6923 C   0  0  0  0  0  0  0  0  0  0  0  0
   13.4107  -17.7427   13.8342 N   0  0  0  0  0  0  0  0  0  0  0  0
   14.0424  -16.6140   14.1975 C   0  0  0  0  0  0  0  0  0  0  0  0
   13.4299  -16.1584   15.2921 N   0  0  0  0  0  0  0  0  0  0  0  0
    9.8363  -17.6987   18.2068 C   0  0  0  0  0  0  0  0  0  0  0  0
    8.8923  -16.9014   18.3372 O   0  0  0  0  0  0  0  0  0  0  0  0
   10.2622  -18.4251   19.3248 N   0  0  0  0  0  0  0  0  0  0  0  0
    9.7563  -18.4650   20.6418 C   0  0  1  0  0  0  0  0  0  0  0  0
    9.6534  -19.7617   21.3499 C   0  0  0  0  0  0  0  0  0  0  0  0
    8.8424  -20.8329   20.7015 C   0  0  0  0  0  0  0  0  0  0  0  0
    8.8610  -22.1488   21.5007 C   0  0  0  0  0  0  0  0  0  0  0  0
    8.0503  -23.1594   20.7104 C   0  0  0  0  0  0  0  0  0  0  0  0
    8.1298  -24.4214   21.4015 N   0  0  0  0  0  0  0  0  0  0  0  0
   10.3046  -17.3958   21.4944 C   0  0  0  0  0  0  0  0  0  0  0  0
   11.5817  -17.2516   21.5366 O   0  0  0  0  0  0  0  0  0  0  0  0
    9.1215  -14.6107   23.6331 C   0  0  0  0  0  0  0  0  0  0  0  0
   10.2248  -15.5482   23.1249 C   0  0  2  0  0  0  0  0  0  0  0  0
    9.5342  -16.5173   22.2677 N   0  0  0  0  0  0  0  0  0  0  0  0
   10.7361  -16.2693   24.3100 C   0  0  0  0  0  0  0  0  0  0  0  0
   10.4864  -17.6146   24.5423 O   0  0  0  0  0  0  0  0  0  0  0  0
   11.4262  -15.6568   25.1515 O   0  0  0  0  0  0  0  0  0  0  0  0
  2  1  1  6
  2  9  1  0
  3  2  1  0
  4  3  1  0
  5  4  2  0
  6  5  1  0
  7  6  1  0
  7  8  2  0
  8  4  1  0
  9 11  1  0
  9 10  2  0
 11 12  1  0
 12 18  1  0
 12 13  1  1
 13 14  1  0
 14 15  1  0
 16 17  1  0
 16 15  1  0
 18 19  2  0
 21 20  1  1
 21 23  1  0
 22 21  1  0
 22 18  1  0
 23 24  1  0
 25 23  2  0
M  END
$$$$
