HKA.pdb
     RDKit          3D

 25 25  0  0  1  0  0  0  0  0999 V2000
    5.8908  -16.0697   20.2861 N   0  0  0  0  0  0  0  0  0  0  0  0
    7.0335  -15.6524   21.0420 C   0  0  1  0  0  0  0  0  0  0  0  0
    7.3493  -14.1850   20.8601 C   0  0  0  0  0  0  0  0  0  0  0  0
    7.7761  -13.8670   19.4873 C   0  0  0  0  0  0  0  0  0  0  0  0
    7.1058  -13.1616   18.5263 C   0  0  0  0  0  0  0  0  0  0  0  0
    7.9031  -13.1410   17.4458 N   0  0  0  0  0  0  0  0  0  0  0  0
    9.0388  -13.8085   17.7092 C   0  0  0  0  0  0  0  0  0  0  0  0
    8.9503  -14.2500   18.9655 N   0  0  0  0  0  0  0  0  0  0  0  0
    6.7487  -15.8610   22.4802 C   0  0  0  0  0  0  0  0  0  0  0  0
    5.6780  -15.4442   22.9534 O   0  0  0  0  0  0  0  0  0  0  0  0
    7.6493  -16.5152   23.3286 N   0  0  0  0  0  0  0  0  0  0  0  0
    7.6175  -16.7125   24.7258 C   0  0  1  0  0  0  0  0  0  0  0  0
    7.9995  -18.0272   25.2906 C   0  0  0  0  0  0  0  0  0  0  0  0
    7.9585  -18.1722   26.7748 C   0  0  0  0  0  0  0  0  0  0  0  0
    8.4904  -19.5379   27.2466 C   0  0  0  0  0  0  0  0  0  0  0  0
    8.3299  -19.5795   28.7551 C   0  0  0  0  0  0  0  0  0  0  0  0
    9.6261  -19.8448   29.3262 N   0  0  0  0  0  0  0  0  0  0  0  0
    8.2000  -15.5841   25.4729 C   0  0  0  0  0  0  0  0  0  0  0  0
    9.4683  -15.3918   25.3855 O   0  0  0  0  0  0  0  0  0  0  0  0
    7.1025  -12.6219   27.3835 C   0  0  0  0  0  0  0  0  0  0  0  0
    8.1903  -13.6178   26.9603 C   0  0  2  0  0  0  0  0  0  0  0  0
    7.4709  -14.6976   26.2767 N   0  0  0  0  0  0  0  0  0  0  0  0
    8.7596  -14.1673   28.2093 C   0  0  0  0  0  0  0  0  0  0  0  0
    8.5452  -15.4732   28.6274 O   0  0  0  0  0  0  0  0  0  0  0  0
    9.4684  -13.4382   28.9343 O   0  0  0  0  0  0  0  0  0  0  0  0
  2  1  1  6
  2  9  1  0
  3  2  1  0
  4  3  1  0
  5  4  2  0
  6  5  1  0
  7  6  1  0
  7  8  2  0
  8  4  1  0
  9 11  1  0
  9 10  2  0
 11 12  1  0
 12 18  1  0
 12 13  1  6
 13 14  1  0
 14 15  1  0
 16 17  1  0
 16 15  1  0
 18 19  2  0
 21 20  1  1
 21 23  1  0
 22 21  1  0
 22 18  1  0
 23 24  1  0
 25 23  2  0
M  END
$$$$
