HKA.pdb
     RDKit          3D

 25 25  0  0  1  0  0  0  0  0999 V2000
   13.6347  -15.3924   16.9084 N   0  0  0  0  0  0  0  0  0  0  0  0
   13.9633  -15.5194   18.2966 C   0  0  1  0  0  0  0  0  0  0  0  0
   14.3780  -14.2062   18.9207 C   0  0  0  0  0  0  0  0  0  0  0  0
   15.7286  -13.7889   18.5090 C   0  0  0  0  0  0  0  0  0  0  0  0
   16.7601  -14.5630   18.0536 C   0  0  0  0  0  0  0  0  0  0  0  0
   17.7823  -13.7269   17.8092 N   0  0  0  0  0  0  0  0  0  0  0  0
   17.4151  -12.4673   18.0983 C   0  0  0  0  0  0  0  0  0  0  0  0
   16.1524  -12.5170   18.5271 N   0  0  0  0  0  0  0  0  0  0  0  0
   12.7611  -15.9864   19.0244 C   0  0  0  0  0  0  0  0  0  0  0  0
   11.6495  -15.5209   18.7215 O   0  0  0  0  0  0  0  0  0  0  0  0
   12.8351  -16.9392   20.0469 N   0  0  0  0  0  0  0  0  0  0  0  0
   11.8200  -17.5185   20.8381 C   0  0  1  0  0  0  0  0  0  0  0  0
   11.6196  -18.9858   20.8167 C   0  0  0  0  0  0  0  0  0  0  0  0
   11.2401  -19.6056   19.5138 C   0  0  0  0  0  0  0  0  0  0  0  0
    9.8956  -19.0769   18.9813 C   0  0  0  0  0  0  0  0  0  0  0  0
    9.6434  -19.7650   17.6523 C   0  0  0  0  0  0  0  0  0  0  0  0
    8.3437  -19.3530   17.1857 N   0  0  0  0  0  0  0  0  0  0  0  0
   11.7726  -16.9601   22.2007 C   0  0  0  0  0  0  0  0  0  0  0  0
   12.8740  -16.8790   22.8593 O   0  0  0  0  0  0  0  0  0  0  0  0
    9.3282  -15.4482   24.5426 C   0  0  0  0  0  0  0  0  0  0  0  0
   10.7053  -16.0468   24.2269 C   0  0  2  0  0  0  0  0  0  0  0  0
   10.6098  -16.5065   22.8376 N   0  0  0  0  0  0  0  0  0  0  0  0
   10.8501  -17.2363   25.0929 C   0  0  0  0  0  0  0  0  0  0  0  0
   11.2888  -17.1653   26.4077 O   0  0  0  0  0  0  0  0  0  0  0  0
   10.5695  -18.3651   24.6383 O   0  0  0  0  0  0  0  0  0  0  0  0
  2  1  1  6
  2  9  1  0
  3  2  1  0
  4  3  1  0
  5  4  2  0
  6  5  1  0
  7  6  1  0
  7  8  2  0
  8  4  1  0
  9 11  1  0
  9 10  2  0
 11 12  1  0
 12 18  1  0
 12 13  1  1
 13 14  1  0
 14 15  1  0
 16 17  1  0
 16 15  1  0
 18 19  2  0
 21 20  1  1
 21 23  1  0
 22 21  1  0
 22 18  1  0
 23 24  1  0
 25 23  2  0
M  END
$$$$
