HKA.pdb
     RDKit          3D

 25 25  0  0  1  0  0  0  0  0999 V2000
    9.3124  -18.6720   20.7126 N   0  0  0  0  0  0  0  0  0  0  0  0
   10.0600  -17.5987   21.2960 C   0  0  1  0  0  0  0  0  0  0  0  0
   10.2866  -16.4547   20.3337 C   0  0  0  0  0  0  0  0  0  0  0  0
   11.1543  -16.8317   19.2055 C   0  0  0  0  0  0  0  0  0  0  0  0
   11.7917  -18.0202   18.9781 C   0  0  0  0  0  0  0  0  0  0  0  0
   12.4605  -17.8767   17.8223 N   0  0  0  0  0  0  0  0  0  0  0  0
   12.2564  -16.6426   17.3322 C   0  0  0  0  0  0  0  0  0  0  0  0
   11.4530  -16.0095   18.1894 N   0  0  0  0  0  0  0  0  0  0  0  0
    9.2924  -17.0581   22.4412 C   0  0  0  0  0  0  0  0  0  0  0  0
    8.3525  -16.2743   22.2259 O   0  0  0  0  0  0  0  0  0  0  0  0
    9.5913  -17.4019   23.7646 N   0  0  0  0  0  0  0  0  0  0  0  0
    8.9000  -17.1269   24.9639 C   0  0  1  0  0  0  0  0  0  0  0  0
    8.2395  -18.2292   25.7001 C   0  0  0  0  0  0  0  0  0  0  0  0
    7.2871  -19.0874   24.9372 C   0  0  0  0  0  0  0  0  0  0  0  0
    6.6639  -20.1926   25.8095 C   0  0  0  0  0  0  0  0  0  0  0  0
    5.8752  -21.0982   24.8817 C   0  0  0  0  0  0  0  0  0  0  0  0
    5.3570  -22.1879   25.6697 N   0  0  0  0  0  0  0  0  0  0  0  0
    9.6432  -16.2172   25.8531 C   0  0  0  0  0  0  0  0  0  0  0  0
   10.8953  -16.4433   26.0392 O   0  0  0  0  0  0  0  0  0  0  0  0
    9.1291  -13.0643   27.7236 C   0  0  0  0  0  0  0  0  0  0  0  0
    9.9405  -14.3282   27.4094 C   0  0  2  0  0  0  0  0  0  0  0  0
    9.0852  -15.1157   26.5156 N   0  0  0  0  0  0  0  0  0  0  0  0
   10.0712  -15.0659   28.6840 C   0  0  0  0  0  0  0  0  0  0  0  0
   10.9770  -14.7106   29.6737 O   0  0  0  0  0  0  0  0  0  0  0  0
    9.3418  -16.0567   28.8980 O   0  0  0  0  0  0  0  0  0  0  0  0
  2  1  1  6
  2  9  1  0
  3  2  1  0
  4  3  1  0
  5  4  2  0
  6  5  1  0
  7  6  1  0
  7  8  2  0
  8  4  1  0
  9 11  1  0
  9 10  2  0
 11 12  1  0
 12 18  1  0
 12 13  1  1
 13 14  1  0
 14 15  1  0
 16 17  1  0
 16 15  1  0
 18 19  2  0
 21 20  1  1
 21 23  1  0
 22 21  1  0
 22 18  1  0
 23 24  1  0
 25 23  2  0
M  END
$$$$
