HKA.pdb
     RDKit          3D

 25 25  0  0  1  0  0  0  0  0999 V2000
    8.0714  -17.6350   16.8615 N   0  0  0  0  0  0  0  0  0  0  0  0
    9.2478  -17.1237   17.4985 C   0  0  1  0  0  0  0  0  0  0  0  0
    8.9320  -16.2295   18.6760 C   0  0  0  0  0  0  0  0  0  0  0  0
    8.2774  -14.9746   18.2703 C   0  0  0  0  0  0  0  0  0  0  0  0
    7.9316  -14.5590   17.0140 C   0  0  0  0  0  0  0  0  0  0  0  0
    7.3627  -13.3509   17.1576 N   0  0  0  0  0  0  0  0  0  0  0  0
    7.3469  -13.0102   18.4570 C   0  0  0  0  0  0  0  0  0  0  0  0
    7.9110  -14.0143   19.1312 N   0  0  0  0  0  0  0  0  0  0  0  0
   10.0358  -18.2649   18.0180 C   0  0  0  0  0  0  0  0  0  0  0  0
    9.4509  -19.3189   18.3196 O   0  0  0  0  0  0  0  0  0  0  0  0
   11.4241  -18.1959   18.1815 N   0  0  0  0  0  0  0  0  0  0  0  0
   12.3513  -19.1792   18.5883 C   0  0  1  0  0  0  0  0  0  0  0  0
   13.5806  -19.4030   17.7932 C   0  0  0  0  0  0  0  0  0  0  0  0
   13.4091  -19.7877   16.3620 C   0  0  0  0  0  0  0  0  0  0  0  0
   14.7553  -19.9622   15.6353 C   0  0  0  0  0  0  0  0  0  0  0  0
   14.4392  -20.3597   14.2052 C   0  0  0  0  0  0  0  0  0  0  0  0
   15.6822  -20.4008   13.4772 N   0  0  0  0  0  0  0  0  0  0  0  0
   12.6118  -19.1501   20.0381 C   0  0  0  0  0  0  0  0  0  0  0  0
   12.8898  -18.0174   20.5796 O   0  0  0  0  0  0  0  0  0  0  0  0
   12.1058  -21.1527   23.0387 C   0  0  0  0  0  0  0  0  0  0  0  0
   12.9341  -20.1000   22.2904 C   0  0  2  0  0  0  0  0  0  0  0  0
   12.5784  -20.2712   20.8779 N   0  0  0  0  0  0  0  0  0  0  0  0
   14.3503  -20.4907   22.4556 C   0  0  0  0  0  0  0  0  0  0  0  0
   15.0778  -20.2271   23.6078 O   0  0  0  0  0  0  0  0  0  0  0  0
   14.9358  -21.0861   21.5270 O   0  0  0  0  0  0  0  0  0  0  0  0
  2  1  1  1
  2  9  1  0
  3  2  1  0
  4  3  1  0
  5  4  2  0
  6  5  1  0
  7  6  1  0
  7  8  2  0
  8  4  1  0
  9 11  1  0
  9 10  2  0
 11 12  1  0
 12 18  1  0
 12 13  1  6
 13 14  1  0
 14 15  1  0
 16 17  1  0
 16 15  1  0
 18 19  2  0
 21 20  1  1
 21 23  1  0
 22 21  1  0
 22 18  1  0
 23 24  1  0
 25 23  2  0
M  END
$$$$
