HKA.pdb
     RDKit          3D

 25 25  0  0  1  0  0  0  0  0999 V2000
    6.0739  -16.4730   20.6749 N   0  0  0  0  0  0  0  0  0  0  0  0
    7.2543  -15.9385   21.2849 C   0  0  1  0  0  0  0  0  0  0  0  0
    7.4609  -14.4739   20.9719 C   0  0  0  0  0  0  0  0  0  0  0  0
    7.9556  -14.2552   19.6025 C   0  0  0  0  0  0  0  0  0  0  0  0
    8.2756  -15.1845   18.6514 C   0  0  0  0  0  0  0  0  0  0  0  0
    8.6775  -14.4970   17.5698 N   0  0  0  0  0  0  0  0  0  0  0  0
    8.6156  -13.1791   17.8231 C   0  0  0  0  0  0  0  0  0  0  0  0
    8.1711  -13.0420   19.0739 N   0  0  0  0  0  0  0  0  0  0  0  0
    7.1185  -16.0542   22.7550 C   0  0  0  0  0  0  0  0  0  0  0  0
    6.1157  -15.5757   23.3112 O   0  0  0  0  0  0  0  0  0  0  0  0
    8.0864  -16.6875   23.5430 N   0  0  0  0  0  0  0  0  0  0  0  0
    8.1431  -16.8958   24.9378 C   0  0  1  0  0  0  0  0  0  0  0  0
    8.5001  -18.2323   25.4667 C   0  0  0  0  0  0  0  0  0  0  0  0
    8.6103  -18.3749   26.9477 C   0  0  0  0  0  0  0  0  0  0  0  0
    9.1366  -19.7598   27.3669 C   0  0  0  0  0  0  0  0  0  0  0  0
    9.2452  -19.7536   28.8806 C   0  0  0  0  0  0  0  0  0  0  0  0
    9.8593  -20.9943   29.2807 N   0  0  0  0  0  0  0  0  0  0  0  0
    8.8299  -15.8032   25.6486 C   0  0  0  0  0  0  0  0  0  0  0  0
   10.0887  -15.6440   25.4403 O   0  0  0  0  0  0  0  0  0  0  0  0
    8.0277  -12.7749   27.5631 C   0  0  0  0  0  0  0  0  0  0  0  0
    9.0249  -13.8728   27.1699 C   0  0  2  0  0  0  0  0  0  0  0  0
    8.2105  -14.9173   26.5402 N   0  0  0  0  0  0  0  0  0  0  0  0
    9.5659  -14.4154   28.4344 C   0  0  0  0  0  0  0  0  0  0  0  0
   10.5156  -13.7504   29.1973 O   0  0  0  0  0  0  0  0  0  0  0  0
    9.1619  -15.5211   28.8512 O   0  0  0  0  0  0  0  0  0  0  0  0
  2  1  1  6
  2  9  1  0
  3  2  1  0
  4  3  1  0
  5  4  2  0
  6  5  1  0
  7  6  1  0
  7  8  2  0
  8  4  1  0
  9 11  1  0
  9 10  2  0
 11 12  1  0
 12 18  1  0
 12 13  1  6
 13 14  1  0
 14 15  1  0
 16 17  1  0
 16 15  1  0
 18 19  2  0
 21 20  1  1
 21 23  1  0
 22 21  1  0
 22 18  1  0
 23 24  1  0
 25 23  2  0
M  END
$$$$
