HKA.pdb
     RDKit          3D

 25 25  0  0  1  0  0  0  0  0999 V2000
   -3.6098  -23.2576   23.3432 N   0  0  0  0  0  0  0  0  0  0  0  0
   -3.5669  -22.5334   24.5780 C   0  0  1  0  0  0  0  0  0  0  0  0
   -3.9739  -21.0858   24.4200 C   0  0  0  0  0  0  0  0  0  0  0  0
   -3.0656  -20.3392   23.5338 C   0  0  0  0  0  0  0  0  0  0  0  0
   -1.7196  -20.1357   23.6657 C   0  0  0  0  0  0  0  0  0  0  0  0
   -1.3427  -19.3960   22.6100 N   0  0  0  0  0  0  0  0  0  0  0  0
   -2.4092  -19.1382   21.8348 C   0  0  0  0  0  0  0  0  0  0  0  0
   -3.4617  -19.7220   22.4114 N   0  0  0  0  0  0  0  0  0  0  0  0
   -4.5248  -23.1540   25.5215 C   0  0  0  0  0  0  0  0  0  0  0  0
   -5.6167  -23.5657   25.0945 O   0  0  0  0  0  0  0  0  0  0  0  0
   -4.2404  -23.2931   26.8848 N   0  0  0  0  0  0  0  0  0  0  0  0
   -4.9732  -23.9168   27.9173 C   0  0  1  0  0  0  0  0  0  0  0  0
   -4.2587  -24.6721   28.9720 C   0  0  0  0  0  0  0  0  0  0  0  0
   -3.3654  -25.7830   28.5320 C   0  0  0  0  0  0  0  0  0  0  0  0
   -2.7306  -26.5313   29.7185 C   0  0  0  0  0  0  0  0  0  0  0  0
   -1.8771  -27.6430   29.1365 C   0  0  0  0  0  0  0  0  0  0  0  0
   -1.1562  -28.2563   30.2232 N   0  0  0  0  0  0  0  0  0  0  0  0
   -6.0375  -23.0546   28.4602 C   0  0  0  0  0  0  0  0  0  0  0  0
   -5.6910  -21.9680   29.0541 O   0  0  0  0  0  0  0  0  0  0  0  0
   -9.7224  -22.7786   28.2671 C   0  0  0  0  0  0  0  0  0  0  0  0
   -8.3593  -22.2853   28.7702 C   0  0  2  0  0  0  0  0  0  0  0  0
   -7.4088  -23.3306   28.3770 N   0  0  0  0  0  0  0  0  0  0  0  0
   -8.4405  -22.2734   30.2464 C   0  0  0  0  0  0  0  0  0  0  0  0
   -7.8504  -23.2440   31.0438 O   0  0  0  0  0  0  0  0  0  0  0  0
   -9.0642  -21.3561   30.8201 O   0  0  0  0  0  0  0  0  0  0  0  0
  2  1  1  6
  2  9  1  0
  3  2  1  0
  4  3  1  0
  5  4  2  0
  6  5  1  0
  7  6  1  0
  7  8  2  0
  8  4  1  0
  9 11  1  0
  9 10  2  0
 11 12  1  0
 12 18  1  0
 12 13  1  1
 13 14  1  0
 14 15  1  0
 16 17  1  0
 16 15  1  0
 18 19  2  0
 21 20  1  6
 21 23  1  0
 22 21  1  0
 22 18  1  0
 23 24  1  0
 25 23  2  0
M  END
$$$$
