HKA.pdb
     RDKit          3D

 25 25  0  0  1  0  0  0  0  0999 V2000
    9.1981  -15.7329   20.8887 N   0  0  0  0  0  0  0  0  0  0  0  0
    8.4376  -14.6150   21.3611 C   0  0  1  0  0  0  0  0  0  0  0  0
    7.2319  -14.3224   20.4970 C   0  0  0  0  0  0  0  0  0  0  0  0
    7.6027  -13.9350   19.1257 C   0  0  0  0  0  0  0  0  0  0  0  0
    8.8513  -13.8053   18.5830 C   0  0  0  0  0  0  0  0  0  0  0  0
    8.6723  -13.4330   17.3050 N   0  0  0  0  0  0  0  0  0  0  0  0
    7.3585  -13.3297   17.0440 C   0  0  0  0  0  0  0  0  0  0  0  0
    6.7110  -13.6401   18.1689 N   0  0  0  0  0  0  0  0  0  0  0  0
    7.9344  -14.9274   22.7184 C   0  0  0  0  0  0  0  0  0  0  0  0
    7.1551  -14.1349   23.2739 O   0  0  0  0  0  0  0  0  0  0  0  0
    8.3089  -16.0911   23.4000 N   0  0  0  0  0  0  0  0  0  0  0  0
    8.0801  -16.4878   24.7349 C   0  0  1  0  0  0  0  0  0  0  0  0
    7.7977  -17.9092   25.0404 C   0  0  0  0  0  0  0  0  0  0  0  0
    6.7459  -18.5876   24.2285 C   0  0  0  0  0  0  0  0  0  0  0  0
    6.6098  -20.0819   24.5739 C   0  0  0  0  0  0  0  0  0  0  0  0
    5.4813  -20.6332   23.7221 C   0  0  0  0  0  0  0  0  0  0  0  0
    5.4358  -22.0592   23.9251 N   0  0  0  0  0  0  0  0  0  0  0  0
    9.0364  -15.8846   25.6795 C   0  0  0  0  0  0  0  0  0  0  0  0
   10.2921  -16.0462   25.4542 O   0  0  0  0  0  0  0  0  0  0  0  0
    9.0336  -13.4402   28.4398 C   0  0  0  0  0  0  0  0  0  0  0  0
    9.7422  -14.5139   27.6036 C   0  0  2  0  0  0  0  0  0  0  0  0
    8.6788  -15.1419   26.8126 N   0  0  0  0  0  0  0  0  0  0  0  0
   10.2523  -15.5177   28.5618 C   0  0  0  0  0  0  0  0  0  0  0  0
   11.3584  -15.2970   29.3705 O   0  0  0  0  0  0  0  0  0  0  0  0
    9.6748  -16.6204   28.6622 O   0  0  0  0  0  0  0  0  0  0  0  0
  2  1  1  6
  2  9  1  0
  3  2  1  0
  4  3  1  0
  5  4  2  0
  6  5  1  0
  7  6  1  0
  7  8  2  0
  8  4  1  0
  9 11  1  0
  9 10  2  0
 11 12  1  0
 12 18  1  0
 12 13  1  6
 13 14  1  0
 14 15  1  0
 16 17  1  0
 16 15  1  0
 18 19  2  0
 21 20  1  1
 21 23  1  0
 22 21  1  0
 22 18  1  0
 23 24  1  0
 25 23  2  0
M  END
$$$$
