HKA.pdb
     RDKit          3D

 25 25  0  0  1  0  0  0  0  0999 V2000
   10.8239  -17.7348   21.2308 N   0  0  0  0  0  0  0  0  0  0  0  0
    9.9513  -16.6013   21.1600 C   0  0  1  0  0  0  0  0  0  0  0  0
    8.8483  -16.7766   20.1408 C   0  0  0  0  0  0  0  0  0  0  0  0
    9.3656  -16.9094   18.7687 C   0  0  0  0  0  0  0  0  0  0  0  0
   10.6655  -16.9294   18.3442 C   0  0  0  0  0  0  0  0  0  0  0  0
   10.6261  -17.0686   17.0089 N   0  0  0  0  0  0  0  0  0  0  0  0
    9.3485  -17.1348   16.5988 C   0  0  0  0  0  0  0  0  0  0  0  0
    8.5830  -17.0361   17.6875 N   0  0  0  0  0  0  0  0  0  0  0  0
    9.3011  -16.4245   22.4786 C   0  0  0  0  0  0  0  0  0  0  0  0
    8.4586  -15.5227   22.6236 O   0  0  0  0  0  0  0  0  0  0  0  0
    9.6049  -17.2428   23.5726 N   0  0  0  0  0  0  0  0  0  0  0  0
    9.1742  -17.1794   24.9151 C   0  0  1  0  0  0  0  0  0  0  0  0
    9.0798  -18.4219   25.7155 C   0  0  0  0  0  0  0  0  0  0  0  0
   10.0461  -19.5140   25.4003 C   0  0  0  0  0  0  0  0  0  0  0  0
    9.8306  -20.7606   26.2779 C   0  0  0  0  0  0  0  0  0  0  0  0
   10.9651  -21.7207   25.9711 C   0  0  0  0  0  0  0  0  0  0  0  0
   10.8649  -22.8252   26.8912 N   0  0  0  0  0  0  0  0  0  0  0  0
    9.7967  -16.0714   25.6604 C   0  0  0  0  0  0  0  0  0  0  0  0
   11.0584  -15.8747   25.5090 O   0  0  0  0  0  0  0  0  0  0  0  0
    8.8008  -13.0988   27.5858 C   0  0  0  0  0  0  0  0  0  0  0  0
    9.8625  -14.1283   27.1766 C   0  0  2  0  0  0  0  0  0  0  0  0
    9.1129  -15.2088   26.5274 N   0  0  0  0  0  0  0  0  0  0  0  0
   10.4331  -14.6589   28.4331 C   0  0  0  0  0  0  0  0  0  0  0  0
   11.3480  -13.9556   29.2041 O   0  0  0  0  0  0  0  0  0  0  0  0
   10.0881  -15.7897   28.8352 O   0  0  0  0  0  0  0  0  0  0  0  0
  2  1  1  1
  2  9  1  0
  3  2  1  0
  4  3  1  0
  5  4  2  0
  6  5  1  0
  7  6  1  0
  7  8  2  0
  8  4  1  0
  9 11  1  0
  9 10  2  0
 11 12  1  0
 12 18  1  0
 12 13  1  1
 13 14  1  0
 14 15  1  0
 16 17  1  0
 16 15  1  0
 18 19  2  0
 21 20  1  1
 21 23  1  0
 22 21  1  0
 22 18  1  0
 23 24  1  0
 25 23  2  0
M  END
$$$$
