HKA.pdb
     RDKit          3D

 25 25  0  0  1  0  0  0  0  0999 V2000
    8.5915  -15.8132   18.6367 N   0  0  0  0  0  0  0  0  0  0  0  0
    8.8410  -14.5627   19.2889 C   0  0  1  0  0  0  0  0  0  0  0  0
    8.2311  -13.3899   18.5551 C   0  0  0  0  0  0  0  0  0  0  0  0
    8.1035  -13.6353   17.1089 C   0  0  0  0  0  0  0  0  0  0  0  0
    7.0157  -13.4426   16.3026 C   0  0  0  0  0  0  0  0  0  0  0  0
    7.3907  -13.8094   15.0662 N   0  0  0  0  0  0  0  0  0  0  0  0
    8.6696  -14.2202   15.0848 C   0  0  0  0  0  0  0  0  0  0  0  0
    9.0975  -14.1092   16.3440 N   0  0  0  0  0  0  0  0  0  0  0  0
    8.2242  -14.6021   20.6346 C   0  0  0  0  0  0  0  0  0  0  0  0
    8.1355  -13.5517   21.2924 O   0  0  0  0  0  0  0  0  0  0  0  0
    7.7353  -15.7886   21.1934 N   0  0  0  0  0  0  0  0  0  0  0  0
    7.1627  -16.0406   22.4585 C   0  0  1  0  0  0  0  0  0  0  0  0
    6.2797  -17.2151   22.6440 C   0  0  0  0  0  0  0  0  0  0  0  0
    5.0665  -17.3023   21.7801 C   0  0  0  0  0  0  0  0  0  0  0  0
    4.3443  -18.6552   21.9165 C   0  0  0  0  0  0  0  0  0  0  0  0
    3.1759  -18.6340   20.9482 C   0  0  0  0  0  0  0  0  0  0  0  0
    2.4948  -19.8994   21.0560 N   0  0  0  0  0  0  0  0  0  0  0  0
    8.1252  -15.8757   23.5616 C   0  0  0  0  0  0  0  0  0  0  0  0
    9.2897  -16.4055   23.4320 O   0  0  0  0  0  0  0  0  0  0  0  0
    8.5507  -13.9760   26.6870 C   0  0  0  0  0  0  0  0  0  0  0  0
    8.8887  -15.1823   25.8011 C   0  0  2  0  0  0  0  0  0  0  0  0
    7.8663  -15.1793   24.7497 N   0  0  0  0  0  0  0  0  0  0  0  0
    8.6806  -16.3836   26.6374 C   0  0  0  0  0  0  0  0  0  0  0  0
    9.6085  -16.8255   27.5700 O   0  0  0  0  0  0  0  0  0  0  0  0
    7.6279  -17.0439   26.5131 O   0  0  0  0  0  0  0  0  0  0  0  0
  2  1  1  6
  2  9  1  0
  3  2  1  0
  4  3  1  0
  5  4  2  0
  6  5  1  0
  7  6  1  0
  7  8  2  0
  8  4  1  0
  9 11  1  0
  9 10  2  0
 11 12  1  0
 12 18  1  0
 12 13  1  6
 13 14  1  0
 14 15  1  0
 16 17  1  0
 16 15  1  0
 18 19  2  0
 21 20  1  1
 21 23  1  0
 22 21  1  0
 22 18  1  0
 23 24  1  0
 25 23  2  0
M  END
$$$$
