FPR.pdb
     RDKit          3D

 30 31  0  0  1  0  0  0  0  0999 V2000
    5.4910  -17.3774   24.6040 N   0  0  0  0  0  0  0  0  0  0  0  0
    6.4342  -16.3209   24.6334 C   0  0  1  0  0  0  0  0  0  0  0  0
    7.0273  -16.0329   26.0012 C   0  0  0  0  0  0  0  0  0  0  0  0
    6.9290  -14.5662   26.3462 C   0  0  0  0  0  0  0  0  0  0  0  0
    5.6805  -14.0044   26.4616 C   0  0  0  0  0  0  0  0  0  0  0  0
    5.5248  -12.6703   26.7648 C   0  0  0  0  0  0  0  0  0  0  0  0
    6.6569  -11.9117   26.9500 C   0  0  0  0  0  0  0  0  0  0  0  0
    7.9244  -12.4744   26.8347 C   0  0  0  0  0  0  0  0  0  0  0  0
    8.0478  -13.8097   26.5308 C   0  0  0  0  0  0  0  0  0  0  0  0
    7.4969  -16.3927   23.5985 C   0  0  0  0  0  0  0  0  0  0  0  0
    8.2542  -17.3888   23.5217 O   0  0  0  0  0  0  0  0  0  0  0  0
    7.7215  -15.3358   22.6323 N   0  0  0  0  0  0  0  0  0  0  0  0
    6.7339  -14.3218   22.3444 C   0  0  0  0  0  0  0  0  0  0  0  0
    7.3300  -13.4623   21.2594 C   0  0  0  0  0  0  0  0  0  0  0  0
    8.8064  -13.7044   21.3477 C   0  0  0  0  0  0  0  0  0  0  0  0
    8.8568  -15.1402   21.8060 C   0  0  1  0  0  0  0  0  0  0  0  0
   10.1696  -15.4024   22.4533 C   0  0  0  0  0  0  0  0  0  0  0  0
   10.2997  -15.1532   23.6710 O   0  0  0  0  0  0  0  0  0  0  0  0
   13.8660  -22.1953   25.0028 N   0  0  0  0  0  0  0  0  0  0  0  0
   13.0641  -21.3816   25.8494 C   0  0  0  0  0  0  0  0  0  0  0  0
   13.2306  -21.4239   27.1404 N   0  0  0  0  0  0  0  0  0  0  0  0
   12.0699  -20.5091   25.3198 N   0  0  0  0  0  0  0  0  0  0  0  0
   12.0124  -20.3336   23.8878 C   0  0  0  0  0  0  0  0  0  0  0  0
   12.6806  -19.0274   23.4739 C   0  0  0  0  0  0  0  0  0  0  0  0
   11.7113  -18.0957   22.8088 C   0  0  0  0  0  0  0  0  0  0  0  0
   12.3042  -16.7773   22.4166 C   0  0  2  0  0  0  0  0  0  0  0  0
   11.2923  -15.9207   21.7762 N   0  0  0  0  0  0  0  0  0  0  0  0
   13.3589  -16.9747   21.4187 C   0  0  0  0  0  0  0  0  0  0  0  0
   14.6846  -16.9696   21.7812 O   0  0  0  0  0  0  0  0  0  0  0  0
   13.0635  -17.1502   20.2234 O   0  0  0  0  0  0  0  0  0  0  0  0
  2  1  1  1
  2  3  1  0
  2 10  1  0
  3  4  1  0
  4  5  2  0
  4  9  1  0
  5  6  1  0
  6  7  2  0
  8  7  1  0
  9  8  2  0
 10 12  1  0
 11 10  2  0
 12 16  1  0
 12 13  1  0
 13 14  1  0
 15 14  1  0
 16 15  1  0
 17 27  1  0
 16 17  1  1
 18 17  2  0
 20 19  1  0
 20 22  1  0
 21 20  2  0
 22 23  1  0
 23 24  1  0
 24 25  1  0
 26 25  1  6
 26 27  1  0
 26 28  1  0
 28 29  1  0
 30 28  2  0
M  END
$$$$
