FPR.pdb
     RDKit          3D

 30 31  0  0  1  0  0  0  0  0999 V2000
   10.6751  -16.1105   21.7558 N   0  0  0  0  0  0  0  0  0  0  0  0
    9.5738  -15.4361   22.3377 C   0  0  1  0  0  0  0  0  0  0  0  0
    8.2506  -15.6378   21.6207 C   0  0  0  0  0  0  0  0  0  0  0  0
    7.8527  -14.4066   20.8425 C   0  0  0  0  0  0  0  0  0  0  0  0
    6.5270  -14.0459   20.8233 C   0  0  0  0  0  0  0  0  0  0  0  0
    6.0999  -12.9392   20.1241 C   0  0  0  0  0  0  0  0  0  0  0  0
    7.0392  -12.2011   19.4429 C   0  0  0  0  0  0  0  0  0  0  0  0
    8.3835  -12.5607   19.4583 C   0  0  0  0  0  0  0  0  0  0  0  0
    8.7795  -13.6713   20.1655 C   0  0  0  0  0  0  0  0  0  0  0  0
    9.4180  -15.6255   23.8024 C   0  0  0  0  0  0  0  0  0  0  0  0
   10.0285  -16.5422   24.4013 O   0  0  0  0  0  0  0  0  0  0  0  0
    8.5661  -14.7800   24.6151 N   0  0  0  0  0  0  0  0  0  0  0  0
    7.8041  -13.6837   24.0638 C   0  0  0  0  0  0  0  0  0  0  0  0
    7.1090  -13.0358   25.2335 C   0  0  0  0  0  0  0  0  0  0  0  0
    7.0910  -14.0895   26.2992 C   0  0  0  0  0  0  0  0  0  0  0  0
    8.3720  -14.8340   26.0184 C   0  0  1  0  0  0  0  0  0  0  0  0
    8.2817  -16.2006   26.5978 C   0  0  0  0  0  0  0  0  0  0  0  0
    7.3181  -16.9277   26.2748 O   0  0  0  0  0  0  0  0  0  0  0  0
   12.3065  -19.3656   23.1943 N   0  0  0  0  0  0  0  0  0  0  0  0
   13.3007  -19.4591   24.2065 C   0  0  0  0  0  0  0  0  0  0  0  0
   14.5453  -19.2021   23.9217 N   0  0  0  0  0  0  0  0  0  0  0  0
   12.9712  -19.8311   25.5419 N   0  0  0  0  0  0  0  0  0  0  0  0
   11.5784  -20.0261   25.8692 C   0  0  0  0  0  0  0  0  0  0  0  0
   11.0734  -18.9114   26.7782 C   0  0  0  0  0  0  0  0  0  0  0  0
    9.6417  -19.1236   27.1721 C   0  0  0  0  0  0  0  0  0  0  0  0
    9.1026  -18.0773   28.0984 C   0  0  2  0  0  0  0  0  0  0  0  0
    9.2235  -16.7380   27.4988 N   0  0  0  0  0  0  0  0  0  0  0  0
    9.8909  -18.0415   29.3332 C   0  0  0  0  0  0  0  0  0  0  0  0
   10.6514  -16.9428   29.6545 O   0  0  0  0  0  0  0  0  0  0  0  0
    9.8803  -19.0129   30.1099 O   0  0  0  0  0  0  0  0  0  0  0  0
  2  1  1  6
  2  3  1  0
  2 10  1  0
  3  4  1  0
  4  5  2  0
  4  9  1  0
  5  6  1  0
  6  7  2  0
  8  7  1  0
  9  8  2  0
 10 12  1  0
 11 10  2  0
 12 16  1  0
 12 13  1  0
 13 14  1  0
 15 14  1  0
 16 15  1  0
 17 27  1  0
 16 17  1  6
 18 17  2  0
 20 19  1  0
 20 22  1  0
 21 20  2  0
 22 23  1  0
 23 24  1  0
 24 25  1  0
 26 25  1  6
 26 27  1  0
 26 28  1  0
 28 29  1  0
 30 28  2  0
M  END
$$$$
