FPR.pdb
     RDKit          3D

 30 31  0  0  1  0  0  0  0  0999 V2000
    5.1511  -16.5037   21.9647 N   0  0  0  0  0  0  0  0  0  0  0  0
    5.7985  -15.6284   22.8709 C   0  0  1  0  0  0  0  0  0  0  0  0
    5.3410  -15.7510   24.3136 C   0  0  0  0  0  0  0  0  0  0  0  0
    6.0000  -14.7132   25.1902 C   0  0  0  0  0  0  0  0  0  0  0  0
    7.0097  -15.1143   26.0313 C   0  0  0  0  0  0  0  0  0  0  0  0
    7.6434  -14.2174   26.8620 C   0  0  0  0  0  0  0  0  0  0  0  0
    7.2374  -12.9039   26.8273 C   0  0  0  0  0  0  0  0  0  0  0  0
    6.2156  -12.4910   25.9777 C   0  0  0  0  0  0  0  0  0  0  0  0
    5.6016  -13.4100   25.1598 C   0  0  0  0  0  0  0  0  0  0  0  0
    7.2809  -15.6109   22.7838 C   0  0  0  0  0  0  0  0  0  0  0  0
    7.9594  -16.5954   23.1609 O   0  0  0  0  0  0  0  0  0  0  0  0
    8.0217  -14.4765   22.2687 N   0  0  0  0  0  0  0  0  0  0  0  0
    7.3756  -13.3354   21.6629 C   0  0  0  0  0  0  0  0  0  0  0  0
    8.4876  -12.4215   21.2163 C   0  0  0  0  0  0  0  0  0  0  0  0
    9.6716  -12.8291   22.0397 C   0  0  0  0  0  0  0  0  0  0  0  0
    9.4283  -14.3064   22.2198 C   0  0  1  0  0  0  0  0  0  0  0  0
   10.1704  -14.7831   23.4169 C   0  0  0  0  0  0  0  0  0  0  0  0
    9.7247  -14.5045   24.5506 O   0  0  0  0  0  0  0  0  0  0  0  0
    7.7105  -20.7248   25.0515 N   0  0  0  0  0  0  0  0  0  0  0  0
    8.7196  -21.0768   24.1135 C   0  0  0  0  0  0  0  0  0  0  0  0
    8.4464  -21.9005   23.1424 N   0  0  0  0  0  0  0  0  0  0  0  0
   10.0393  -20.5477   24.2060 N   0  0  0  0  0  0  0  0  0  0  0  0
   10.2555  -19.4057   25.0627 C   0  0  0  0  0  0  0  0  0  0  0  0
   11.0208  -18.3121   24.3264 C   0  0  0  0  0  0  0  0  0  0  0  0
   11.2865  -17.1302   25.2110 C   0  0  0  0  0  0  0  0  0  0  0  0
   12.0667  -16.0363   24.5491 C   0  0  2  0  0  0  0  0  0  0  0  0
   11.3591  -15.5390   23.3576 N   0  0  0  0  0  0  0  0  0  0  0  0
   13.3529  -16.5511   24.0716 C   0  0  0  0  0  0  0  0  0  0  0  0
   13.6616  -16.5490   22.7323 O   0  0  0  0  0  0  0  0  0  0  0  0
   14.1856  -16.9992   24.8795 O   0  0  0  0  0  0  0  0  0  0  0  0
  2  1  1  6
  2  3  1  0
  2 10  1  0
  3  4  1  0
  4  5  2  0
  4  9  1  0
  5  6  1  0
  6  7  2  0
  8  7  1  0
  9  8  2  0
 10 12  1  0
 11 10  2  0
 12 16  1  0
 12 13  1  0
 13 14  1  0
 15 14  1  0
 16 15  1  0
 17 27  1  0
 16 17  1  1
 18 17  2  0
 20 19  1  0
 20 22  1  0
 21 20  2  0
 22 23  1  0
 23 24  1  0
 24 25  1  0
 26 25  1  6
 26 27  1  0
 26 28  1  0
 28 29  1  0
 30 28  2  0
M  END
$$$$
