FPR.pdb
     RDKit          3D

 30 31  0  0  1  0  0  0  0  0999 V2000
    5.2627  -16.5647   22.5492 N   0  0  0  0  0  0  0  0  0  0  0  0
    6.3133  -16.0014   21.7842 C   0  0  1  0  0  0  0  0  0  0  0  0
    6.4864  -14.5014   21.9448 C   0  0  0  0  0  0  0  0  0  0  0  0
    6.7589  -14.1294   23.3826 C   0  0  0  0  0  0  0  0  0  0  0  0
    7.0743  -12.8236   23.6711 C   0  0  0  0  0  0  0  0  0  0  0  0
    7.3426  -12.4238   24.9611 C   0  0  0  0  0  0  0  0  0  0  0  0
    7.2861  -13.3700   25.9576 C   0  0  0  0  0  0  0  0  0  0  0  0
    6.9672  -14.6942   25.6723 C   0  0  0  0  0  0  0  0  0  0  0  0
    6.7043  -15.0632   24.3741 C   0  0  0  0  0  0  0  0  0  0  0  0
    7.6191  -16.7007   21.8910 C   0  0  0  0  0  0  0  0  0  0  0  0
    7.9579  -17.2723   22.9541 O   0  0  0  0  0  0  0  0  0  0  0  0
    8.5655  -16.7639   20.7950 N   0  0  0  0  0  0  0  0  0  0  0  0
    8.2005  -16.4517   19.4327 C   0  0  0  0  0  0  0  0  0  0  0  0
    9.4392  -16.6927   18.6088 C   0  0  0  0  0  0  0  0  0  0  0  0
   10.5700  -16.6268   19.5901 C   0  0  0  0  0  0  0  0  0  0  0  0
    9.9242  -17.1658   20.8417 C   0  0  1  0  0  0  0  0  0  0  0  0
   10.6878  -16.6967   22.0283 C   0  0  0  0  0  0  0  0  0  0  0  0
   10.5629  -15.5076   22.3916 O   0  0  0  0  0  0  0  0  0  0  0  0
    9.5865  -14.7104   29.3141 N   0  0  0  0  0  0  0  0  0  0  0  0
   10.8595  -15.2654   29.6194 C   0  0  0  0  0  0  0  0  0  0  0  0
   11.5567  -14.7882   30.6105 N   0  0  0  0  0  0  0  0  0  0  0  0
   11.4029  -16.3433   28.8622 N   0  0  0  0  0  0  0  0  0  0  0  0
   10.7932  -16.6567   27.5914 C   0  0  0  0  0  0  0  0  0  0  0  0
   11.8459  -16.7501   26.4928 C   0  0  0  0  0  0  0  0  0  0  0  0
   11.2305  -17.0628   25.1610 C   0  0  0  0  0  0  0  0  0  0  0  0
   12.2080  -17.0781   24.0262 C   0  0  2  0  0  0  0  0  0  0  0  0
   11.5544  -17.5150   22.7813 N   0  0  0  0  0  0  0  0  0  0  0  0
   13.2717  -18.0510   24.2891 C   0  0  0  0  0  0  0  0  0  0  0  0
   13.2970  -19.2627   23.6409 O   0  0  0  0  0  0  0  0  0  0  0  0
   14.1702  -17.7889   25.1081 O   0  0  0  0  0  0  0  0  0  0  0  0
  2  1  1  1
  2  3  1  0
  2 10  1  0
  3  4  1  0
  4  5  2  0
  4  9  1  0
  5  6  1  0
  6  7  2  0
  8  7  1  0
  9  8  2  0
 10 12  1  0
 11 10  2  0
 12 16  1  0
 12 13  1  0
 13 14  1  0
 15 14  1  0
 16 15  1  0
 17 27  1  0
 16 17  1  1
 18 17  2  0
 20 19  1  0
 20 22  1  0
 21 20  2  0
 22 23  1  0
 23 24  1  0
 24 25  1  0
 26 25  1  1
 26 27  1  0
 26 28  1  0
 28 29  1  0
 30 28  2  0
M  END
$$$$
