FPR.pdb
     RDKit          3D

 30 31  0  0  1  0  0  0  0  0999 V2000
    5.7383  -16.9808   25.3708 N   0  0  0  0  0  0  0  0  0  0  0  0
    6.5867  -15.9610   24.8741 C   0  0  1  0  0  0  0  0  0  0  0  0
    7.4292  -15.2627   25.9268 C   0  0  0  0  0  0  0  0  0  0  0  0
    6.9538  -13.8494   26.1641 C   0  0  0  0  0  0  0  0  0  0  0  0
    5.6039  -13.6267   26.2908 C   0  0  0  0  0  0  0  0  0  0  0  0
    5.1074  -12.3594   26.4989 C   0  0  0  0  0  0  0  0  0  0  0  0
    6.0021  -11.3179   26.5771 C   0  0  0  0  0  0  0  0  0  0  0  0
    7.3705  -11.5365   26.4499 C   0  0  0  0  0  0  0  0  0  0  0  0
    7.8362  -12.8134   26.2425 C   0  0  0  0  0  0  0  0  0  0  0  0
    7.4125  -16.3412   23.6998 C   0  0  0  0  0  0  0  0  0  0  0  0
    7.9959  -17.4500   23.6552 O   0  0  0  0  0  0  0  0  0  0  0  0
    7.5933  -15.4710   22.5548 N   0  0  0  0  0  0  0  0  0  0  0  0
    6.7671  -14.3091   22.3224 C   0  0  0  0  0  0  0  0  0  0  0  0
    7.2390  -13.7226   21.0168 C   0  0  0  0  0  0  0  0  0  0  0  0
    8.6258  -14.2611   20.8347 C   0  0  0  0  0  0  0  0  0  0  0  0
    8.5199  -15.6144   21.4915 C   0  0  1  0  0  0  0  0  0  0  0  0
    9.8775  -16.0753   21.8863 C   0  0  0  0  0  0  0  0  0  0  0  0
   10.4255  -15.5496   22.8787 O   0  0  0  0  0  0  0  0  0  0  0  0
   13.2927  -21.7359   26.0498 N   0  0  0  0  0  0  0  0  0  0  0  0
   14.3642  -21.7422   25.1151 C   0  0  0  0  0  0  0  0  0  0  0  0
   15.4993  -22.2977   25.4302 N   0  0  0  0  0  0  0  0  0  0  0  0
   14.2312  -21.1502   23.8259 N   0  0  0  0  0  0  0  0  0  0  0  0
   12.9826  -20.5020   23.5009 C   0  0  0  0  0  0  0  0  0  0  0  0
   13.0665  -19.8115   22.1444 C   0  0  0  0  0  0  0  0  0  0  0  0
   11.7736  -19.1427   21.7824 C   0  0  0  0  0  0  0  0  0  0  0  0
   11.8612  -17.6497   21.7014 C   0  0  2  0  0  0  0  0  0  0  0  0
   10.5970  -17.0794   21.2069 N   0  0  0  0  0  0  0  0  0  0  0  0
   12.8895  -17.2558   20.7346 C   0  0  0  0  0  0  0  0  0  0  0  0
   12.5809  -17.0804   19.4068 O   0  0  0  0  0  0  0  0  0  0  0  0
   14.0620  -17.0748   21.1079 O   0  0  0  0  0  0  0  0  0  0  0  0
  2  1  1  1
  2  3  1  0
  2 10  1  0
  3  4  1  0
  4  5  2  0
  4  9  1  0
  5  6  1  0
  6  7  2  0
  8  7  1  0
  9  8  2  0
 10 12  1  0
 11 10  2  0
 12 16  1  0
 12 13  1  0
 13 14  1  0
 15 14  1  0
 16 15  1  0
 17 27  1  0
 16 17  1  1
 18 17  2  0
 20 19  1  0
 20 22  1  0
 21 20  2  0
 22 23  1  0
 23 24  1  0
 24 25  1  0
 26 25  1  6
 26 27  1  0
 26 28  1  0
 28 29  1  0
 30 28  2  0
M  END
$$$$
