FPR.pdb
     RDKit          3D

 30 31  0  0  1  0  0  0  0  0999 V2000
    5.2257  -17.4404   24.6953 N   0  0  0  0  0  0  0  0  0  0  0  0
    6.0311  -16.2781   24.7777 C   0  0  1  0  0  0  0  0  0  0  0  0
    6.2950  -15.7832   26.1887 C   0  0  0  0  0  0  0  0  0  0  0  0
    6.7923  -14.3576   26.1883 C   0  0  0  0  0  0  0  0  0  0  0  0
    5.8818  -13.3480   25.9892 C   0  0  0  0  0  0  0  0  0  0  0  0
    6.2744  -12.0284   25.9685 C   0  0  0  0  0  0  0  0  0  0  0  0
    7.6077  -11.7463   26.1534 C   0  0  0  0  0  0  0  0  0  0  0  0
    8.5351  -12.7639   26.3557 C   0  0  0  0  0  0  0  0  0  0  0  0
    8.1126  -14.0722   26.3711 C   0  0  0  0  0  0  0  0  0  0  0  0
    7.2875  -16.3217   23.9869 C   0  0  0  0  0  0  0  0  0  0  0  0
    8.2357  -17.0683   24.3260 O   0  0  0  0  0  0  0  0  0  0  0  0
    7.4925  -15.5186   22.7978 N   0  0  0  0  0  0  0  0  0  0  0  0
    6.4339  -14.7492   22.1863 C   0  0  0  0  0  0  0  0  0  0  0  0
    7.0402  -14.1156   20.9607 C   0  0  0  0  0  0  0  0  0  0  0  0
    8.5173  -14.1290   21.2143 C   0  0  0  0  0  0  0  0  0  0  0  0
    8.6784  -15.3854   22.0325 C   0  0  1  0  0  0  0  0  0  0  0  0
    9.9383  -15.3007   22.8179 C   0  0  0  0  0  0  0  0  0  0  0  0
    9.9910  -14.5121   23.7859 O   0  0  0  0  0  0  0  0  0  0  0  0
    8.4521  -20.5106   26.1212 N   0  0  0  0  0  0  0  0  0  0  0  0
    9.4629  -19.6982   26.7045 C   0  0  0  0  0  0  0  0  0  0  0  0
    9.1863  -18.9594   27.7408 N   0  0  0  0  0  0  0  0  0  0  0  0
   10.7879  -19.6678   26.1813 N   0  0  0  0  0  0  0  0  0  0  0  0
   11.4770  -18.3993   26.1488 C   0  0  0  0  0  0  0  0  0  0  0  0
   11.4868  -17.8230   24.7376 C   0  0  0  0  0  0  0  0  0  0  0  0
   12.1768  -16.4921   24.6874 C   0  0  0  0  0  0  0  0  0  0  0  0
   12.3461  -15.9448   23.3035 C   0  0  2  0  0  0  0  0  0  0  0  0
   11.0925  -16.0611   22.5401 N   0  0  0  0  0  0  0  0  0  0  0  0
   13.3426  -16.7286   22.5689 C   0  0  0  0  0  0  0  0  0  0  0  0
   12.9856  -17.4753   21.4716 O   0  0  0  0  0  0  0  0  0  0  0  0
   14.5318  -16.7270   22.9334 O   0  0  0  0  0  0  0  0  0  0  0  0
  2  1  1  1
  2  3  1  0
  2 10  1  0
  3  4  1  0
  4  5  2  0
  4  9  1  0
  5  6  1  0
  6  7  2  0
  8  7  1  0
  9  8  2  0
 10 12  1  0
 11 10  2  0
 12 16  1  0
 12 13  1  0
 13 14  1  0
 15 14  1  0
 16 15  1  0
 17 27  1  0
 16 17  1  1
 18 17  2  0
 20 19  1  0
 20 22  1  0
 21 20  2  0
 22 23  1  0
 23 24  1  0
 24 25  1  0
 26 25  1  1
 26 27  1  0
 26 28  1  0
 28 29  1  0
 30 28  2  0
M  END
$$$$
