FPR.pdb
     RDKit          3D

 30 31  0  0  1  0  0  0  0  0999 V2000
    5.5676  -17.8731   24.5624 N   0  0  0  0  0  0  0  0  0  0  0  0
    6.1553  -16.5978   24.7483 C   0  0  1  0  0  0  0  0  0  0  0  0
    6.3013  -16.1675   26.1972 C   0  0  0  0  0  0  0  0  0  0  0  0
    6.5158  -14.6772   26.3100 C   0  0  0  0  0  0  0  0  0  0  0  0
    7.7877  -14.2166   26.5506 C   0  0  0  0  0  0  0  0  0  0  0  0
    8.0463  -12.8697   26.6732 C   0  0  0  0  0  0  0  0  0  0  0  0
    6.9934  -11.9939   26.5478 C   0  0  0  0  0  0  0  0  0  0  0  0
    5.7028  -12.4537   26.3040 C   0  0  0  0  0  0  0  0  0  0  0  0
    5.4759  -13.8047   26.1866 C   0  0  0  0  0  0  0  0  0  0  0  0
    7.4148  -16.3660   23.9964 C   0  0  0  0  0  0  0  0  0  0  0  0
    8.4491  -17.0257   24.2544 O   0  0  0  0  0  0  0  0  0  0  0  0
    7.5253  -15.3810   22.9387 N   0  0  0  0  0  0  0  0  0  0  0  0
    6.4184  -14.5454   22.5347 C   0  0  0  0  0  0  0  0  0  0  0  0
    6.9279  -13.7140   21.3856 C   0  0  0  0  0  0  0  0  0  0  0  0
    8.4197  -13.7384   21.5278 C   0  0  0  0  0  0  0  0  0  0  0  0
    8.6506  -15.1051   22.1218 C   0  0  1  0  0  0  0  0  0  0  0  0
    9.9641  -15.1211   22.8188 C   0  0  0  0  0  0  0  0  0  0  0  0
   10.0910  -14.4682   23.8767 O   0  0  0  0  0  0  0  0  0  0  0  0
   12.9731  -21.7446   25.1975 N   0  0  0  0  0  0  0  0  0  0  0  0
   13.4808  -21.0956   26.3563 C   0  0  0  0  0  0  0  0  0  0  0  0
   14.3241  -21.7147   27.1320 N   0  0  0  0  0  0  0  0  0  0  0  0
   13.0884  -19.7693   26.6990 N   0  0  0  0  0  0  0  0  0  0  0  0
   12.0648  -19.1357   25.9017 C   0  0  0  0  0  0  0  0  0  0  0  0
   12.6586  -18.0324   25.0334 C   0  0  0  0  0  0  0  0  0  0  0  0
   11.6118  -17.3680   24.1892 C   0  0  0  0  0  0  0  0  0  0  0  0
   12.1523  -16.3358   23.2479 C   0  0  2  0  0  0  0  0  0  0  0  0
   11.0908  -15.8335   22.3599 N   0  0  0  0  0  0  0  0  0  0  0  0
   13.1653  -16.9317   22.3727 C   0  0  0  0  0  0  0  0  0  0  0  0
   14.5029  -16.6853   22.5701 O   0  0  0  0  0  0  0  0  0  0  0  0
   12.8229  -17.6725   21.4342 O   0  0  0  0  0  0  0  0  0  0  0  0
  2  1  1  1
  2  3  1  0
  2 10  1  0
  3  4  1  0
  4  5  2  0
  4  9  1  0
  5  6  1  0
  6  7  2  0
  8  7  1  0
  9  8  2  0
 10 12  1  0
 11 10  2  0
 12 16  1  0
 12 13  1  0
 13 14  1  0
 15 14  1  0
 16 15  1  0
 17 27  1  0
 16 17  1  1
 18 17  2  0
 20 19  1  0
 20 22  1  0
 21 20  2  0
 22 23  1  0
 23 24  1  0
 24 25  1  0
 26 25  1  1
 26 27  1  0
 26 28  1  0
 28 29  1  0
 30 28  2  0
M  END
$$$$
