FPR.pdb
     RDKit          3D

 30 31  0  0  1  0  0  0  0  0999 V2000
    5.4882  -17.4574   24.9403 N   0  0  0  0  0  0  0  0  0  0  0  0
    6.3483  -16.3356   24.8496 C   0  0  1  0  0  0  0  0  0  0  0  0
    6.7937  -15.7634   26.1837 C   0  0  0  0  0  0  0  0  0  0  0  0
    6.7584  -14.2540   26.1748 C   0  0  0  0  0  0  0  0  0  0  0  0
    7.9466  -13.5720   26.2800 C   0  0  0  0  0  0  0  0  0  0  0  0
    7.9797  -12.1955   26.2873 C   0  0  0  0  0  0  0  0  0  0  0  0
    6.7871  -11.5183   26.1859 C   0  0  0  0  0  0  0  0  0  0  0  0
    5.5802  -12.2028   26.0789 C   0  0  0  0  0  0  0  0  0  0  0  0
    5.5792  -13.5777   26.0745 C   0  0  0  0  0  0  0  0  0  0  0  0
    7.5026  -16.4962   23.9291 C   0  0  0  0  0  0  0  0  0  0  0  0
    8.3480  -17.4042   24.1094 O   0  0  0  0  0  0  0  0  0  0  0  0
    7.7206  -15.6296   22.7878 N   0  0  0  0  0  0  0  0  0  0  0  0
    6.7460  -14.6563   22.3525 C   0  0  0  0  0  0  0  0  0  0  0  0
    7.3277  -14.0141   21.1194 C   0  0  0  0  0  0  0  0  0  0  0  0
    8.8007  -14.2746   21.2112 C   0  0  0  0  0  0  0  0  0  0  0  0
    8.8348  -15.6096   21.9116 C   0  0  1  0  0  0  0  0  0  0  0  0
   10.1604  -15.7886   22.5613 C   0  0  0  0  0  0  0  0  0  0  0  0
   10.4426  -15.0851   23.5548 O   0  0  0  0  0  0  0  0  0  0  0  0
   11.8983  -17.5193   28.5825 N   0  0  0  0  0  0  0  0  0  0  0  0
   11.3261  -18.6989   28.0321 C   0  0  0  0  0  0  0  0  0  0  0  0
   11.0314  -19.7024   28.8081 N   0  0  0  0  0  0  0  0  0  0  0  0
   11.0620  -18.8173   26.6369 N   0  0  0  0  0  0  0  0  0  0  0  0
   12.1017  -18.4296   25.7129 C   0  0  0  0  0  0  0  0  0  0  0  0
   11.6409  -18.6094   24.2710 C   0  0  0  0  0  0  0  0  0  0  0  0
   12.6964  -18.1820   23.2946 C   0  0  0  0  0  0  0  0  0  0  0  0
   12.4768  -16.8171   22.7180 C   0  0  2  0  0  0  0  0  0  0  0  0
   11.1330  -16.7116   22.1257 N   0  0  0  0  0  0  0  0  0  0  0  0
   13.4221  -16.5725   21.6254 C   0  0  0  0  0  0  0  0  0  0  0  0
   13.9646  -17.6155   20.9135 O   0  0  0  0  0  0  0  0  0  0  0  0
   13.7465  -15.4092   21.3282 O   0  0  0  0  0  0  0  0  0  0  0  0
  2  1  1  1
  2  3  1  0
  2 10  1  0
  3  4  1  0
  4  5  2  0
  4  9  1  0
  5  6  1  0
  6  7  2  0
  8  7  1  0
  9  8  2  0
 10 12  1  0
 11 10  2  0
 12 16  1  0
 12 13  1  0
 13 14  1  0
 15 14  1  0
 16 15  1  0
 17 27  1  0
 16 17  1  1
 18 17  2  0
 20 19  1  0
 20 22  1  0
 21 20  2  0
 22 23  1  0
 23 24  1  0
 24 25  1  0
 26 25  1  6
 26 27  1  0
 26 28  1  0
 28 29  1  0
 30 28  2  0
M  END
$$$$
