NFG.pdb
     RDKit          3D

 24 24  0  0  1  0  0  0  0  0999 V2000
    7.0523  -16.0832   18.5172 N   0  0  0  0  0  0  0  0  0  0  0  0
    7.2699  -17.1313   19.4253 C   0  0  0  0  0  0  0  0  0  0  0  0
    7.2597  -18.3254   19.0441 O   0  0  0  0  0  0  0  0  0  0  0  0
    7.5131  -16.8142   20.8459 C   0  0  0  0  0  0  0  0  0  0  0  0
    7.4532  -15.3264   21.1202 C   0  0  2  0  0  0  0  0  0  0  0  0
    7.8714  -14.5248   20.0143 N   0  0  0  0  0  0  0  0  0  0  0  0
    8.3355  -15.0994   22.3297 C   0  0  0  0  0  0  0  0  0  0  0  0
    9.4436  -14.5272   22.1717 O   0  0  0  0  0  0  0  0  0  0  0  0
    7.9508  -15.5083   23.6118 N   0  0  0  0  0  0  0  0  0  0  0  0
    8.7214  -15.1580   24.8120 C   0  0  1  0  0  0  0  0  0  0  0  0
    7.7868  -14.9255   25.9531 C   0  0  0  0  0  0  0  0  0  0  0  0
    7.2891  -13.5816   26.1672 C   0  0  0  0  0  0  0  0  0  0  0  0
    8.1572  -12.5246   25.9154 C   0  0  0  0  0  0  0  0  0  0  0  0
    7.6955  -11.2445   26.1151 C   0  0  0  0  0  0  0  0  0  0  0  0
    6.4117  -10.9965   26.5521 C   0  0  0  0  0  0  0  0  0  0  0  0
    5.5698  -12.0853   26.7940 C   0  0  0  0  0  0  0  0  0  0  0  0
    6.0070  -13.3729   26.6022 C   0  0  0  0  0  0  0  0  0  0  0  0
    9.7131  -16.2014   25.1076 C   0  0  0  0  0  0  0  0  0  0  0  0
   10.4137  -16.2337   26.1659 O   0  0  0  0  0  0  0  0  0  0  0  0
    9.9226  -17.2671   24.1639 N   0  0  0  0  0  0  0  0  0  0  0  0
   10.7969  -18.3710   24.5445 C   0  0  0  0  0  0  0  0  0  0  0  0
   12.0939  -18.1943   23.8590 C   0  0  0  0  0  0  0  0  0  0  0  0
   13.1391  -19.0964   23.9940 O   0  0  0  0  0  0  0  0  0  0  0  0
   12.2809  -17.1978   23.1211 O   0  0  0  0  0  0  0  0  0  0  0  0
  2  1  1  0
  2  3  2  0
  4  5  1  0
  4  2  1  0
  5  6  1  6
  7  5  1  0
  8  7  2  0
  9  7  1  0
 10  9  1  0
 10 11  1  1
 11 12  1  0
 12 13  2  0
 13 14  1  0
 15 14  2  0
 16 15  1  0
 17 12  1  0
 17 16  2  0
 18 20  1  0
 18 10  1  0
 19 18  2  0
 21 20  1  0
 22 23  1  0
 22 21  1  0
 24 22  2  0
M  END
$$$$
