NFG.pdb
     RDKit          3D

 24 24  0  0  1  0  0  0  0  0999 V2000
    9.9872  -16.1670   16.5811 N   0  0  0  0  0  0  0  0  0  0  0  0
    8.9229  -16.2803   17.4893 C   0  0  0  0  0  0  0  0  0  0  0  0
    7.8999  -16.9451   17.2020 O   0  0  0  0  0  0  0  0  0  0  0  0
    9.0181  -15.6043   18.7978 C   0  0  0  0  0  0  0  0  0  0  0  0
    9.0063  -16.5842   19.9520 C   0  0  2  0  0  0  0  0  0  0  0  0
    7.8500  -17.4224   19.9774 N   0  0  0  0  0  0  0  0  0  0  0  0
    9.1012  -15.7387   21.2048 C   0  0  0  0  0  0  0  0  0  0  0  0
   10.1521  -15.0809   21.4127 O   0  0  0  0  0  0  0  0  0  0  0  0
    8.0547  -15.6716   22.1317 N   0  0  0  0  0  0  0  0  0  0  0  0
    8.2092  -15.0340   23.4456 C   0  0  1  0  0  0  0  0  0  0  0  0
    7.2047  -13.9384   23.5883 C   0  0  0  0  0  0  0  0  0  0  0  0
    7.1842  -13.1855   24.8261 C   0  0  0  0  0  0  0  0  0  0  0  0
    6.2412  -13.5440   25.7835 C   0  0  0  0  0  0  0  0  0  0  0  0
    6.2126  -12.8364   26.9625 C   0  0  0  0  0  0  0  0  0  0  0  0
    7.0860  -11.7979   27.2064 C   0  0  0  0  0  0  0  0  0  0  0  0
    8.0189  -11.4681   26.2195 C   0  0  0  0  0  0  0  0  0  0  0  0
    8.0676  -12.1595   25.0340 C   0  0  0  0  0  0  0  0  0  0  0  0
    8.0992  -16.0337   24.5171 C   0  0  0  0  0  0  0  0  0  0  0  0
    7.0689  -16.7483   24.7166 O   0  0  0  0  0  0  0  0  0  0  0  0
    9.2103  -16.2431   25.4071 N   0  0  0  0  0  0  0  0  0  0  0  0
    9.1324  -17.3347   26.3715 C   0  0  0  0  0  0  0  0  0  0  0  0
   10.3906  -17.3614   27.1458 C   0  0  0  0  0  0  0  0  0  0  0  0
   11.6348  -17.4862   26.5450 O   0  0  0  0  0  0  0  0  0  0  0  0
   10.3581  -17.2694   28.3959 O   0  0  0  0  0  0  0  0  0  0  0  0
  2  1  1  0
  2  3  2  0
  4  5  1  0
  4  2  1  0
  5  6  1  1
  7  5  1  0
  8  7  2  0
  9  7  1  0
 10  9  1  0
 10 11  1  1
 11 12  1  0
 12 13  2  0
 13 14  1  0
 15 14  2  0
 16 15  1  0
 17 12  1  0
 17 16  2  0
 18 20  1  0
 18 10  1  0
 19 18  2  0
 21 20  1  0
 22 23  1  0
 22 21  1  0
 24 22  2  0
M  END
$$$$
