NFG.pdb
     RDKit          3D

 24 24  0  0  1  0  0  0  0  0999 V2000
    8.4643  -12.5125   18.2740 N   0  0  0  0  0  0  0  0  0  0  0  0
    8.0614  -13.6058   19.0569 C   0  0  0  0  0  0  0  0  0  0  0  0
    7.4848  -14.5906   18.5384 O   0  0  0  0  0  0  0  0  0  0  0  0
    8.3242  -13.5872   20.5090 C   0  0  0  0  0  0  0  0  0  0  0  0
    8.6525  -14.9626   21.0504 C   0  0  2  0  0  0  0  0  0  0  0  0
    7.5879  -15.9033   20.9024 N   0  0  0  0  0  0  0  0  0  0  0  0
    9.0036  -14.7531   22.5084 C   0  0  0  0  0  0  0  0  0  0  0  0
    9.9096  -13.9322   22.8008 O   0  0  0  0  0  0  0  0  0  0  0  0
    8.3488  -15.4464   23.5329 N   0  0  0  0  0  0  0  0  0  0  0  0
    8.7660  -15.3497   24.9377 C   0  0  1  0  0  0  0  0  0  0  0  0
    7.5698  -15.0999   25.7958 C   0  0  0  0  0  0  0  0  0  0  0  0
    7.2234  -13.7272   26.1043 C   0  0  0  0  0  0  0  0  0  0  0  0
    5.8902  -13.3535   25.9734 C   0  0  0  0  0  0  0  0  0  0  0  0
    5.5497  -12.0529   26.2636 C   0  0  0  0  0  0  0  0  0  0  0  0
    6.4895  -11.1315   26.6741 C   0  0  0  0  0  0  0  0  0  0  0  0
    7.8188  -11.5458   26.7934 C   0  0  0  0  0  0  0  0  0  0  0  0
    8.1841  -12.8388   26.5096 C   0  0  0  0  0  0  0  0  0  0  0  0
    9.4977  -16.5590   25.3400 C   0  0  0  0  0  0  0  0  0  0  0  0
    9.7905  -16.8430   26.5423 O   0  0  0  0  0  0  0  0  0  0  0  0
    9.9169  -17.5001   24.3356 N   0  0  0  0  0  0  0  0  0  0  0  0
   10.6026  -18.7144   24.7636 C   0  0  0  0  0  0  0  0  0  0  0  0
   12.0578  -18.4589   24.7408 C   0  0  0  0  0  0  0  0  0  0  0  0
   12.9913  -19.4260   25.0842 O   0  0  0  0  0  0  0  0  0  0  0  0
   12.4900  -17.3318   24.4014 O   0  0  0  0  0  0  0  0  0  0  0  0
  2  1  1  0
  2  3  2  0
  4  5  1  0
  4  2  1  0
  5  6  1  1
  7  5  1  0
  8  7  2  0
  9  7  1  0
 10  9  1  0
 10 11  1  1
 11 12  1  0
 12 13  2  0
 13 14  1  0
 15 14  2  0
 16 15  1  0
 17 12  1  0
 17 16  2  0
 18 20  1  0
 18 10  1  0
 19 18  2  0
 21 20  1  0
 22 23  1  0
 22 21  1  0
 24 22  2  0
M  END
$$$$
