NFG.pdb
     RDKit          3D

 24 24  0  0  1  0  0  0  0  0999 V2000
    8.3475  -12.9450   17.9366 N   0  0  0  0  0  0  0  0  0  0  0  0
    8.1791  -14.1527   18.6320 C   0  0  0  0  0  0  0  0  0  0  0  0
    7.5787  -15.1194   18.1066 O   0  0  0  0  0  0  0  0  0  0  0  0
    8.7194  -14.2772   19.9997 C   0  0  0  0  0  0  0  0  0  0  0  0
    7.6353  -14.5412   21.0232 C   0  0  2  0  0  0  0  0  0  0  0  0
    6.5896  -13.5683   21.0107 N   0  0  0  0  0  0  0  0  0  0  0  0
    8.3399  -14.5753   22.3631 C   0  0  0  0  0  0  0  0  0  0  0  0
    9.2342  -13.7239   22.5984 O   0  0  0  0  0  0  0  0  0  0  0  0
    8.0223  -15.5254   23.3406 N   0  0  0  0  0  0  0  0  0  0  0  0
    8.7594  -15.6256   24.6069 C   0  0  1  0  0  0  0  0  0  0  0  0
    7.8351  -15.3404   25.7445 C   0  0  0  0  0  0  0  0  0  0  0  0
    7.4424  -13.9655   25.9792 C   0  0  0  0  0  0  0  0  0  0  0  0
    6.2947  -13.5051   25.3429 C   0  0  0  0  0  0  0  0  0  0  0  0
    5.9123  -12.2016   25.5584 C   0  0  0  0  0  0  0  0  0  0  0  0
    6.6336  -11.3603   26.3785 C   0  0  0  0  0  0  0  0  0  0  0  0
    7.7811  -11.8605   26.9998 C   0  0  0  0  0  0  0  0  0  0  0  0
    8.1837  -13.1581   26.8008 C   0  0  0  0  0  0  0  0  0  0  0  0
    9.3990  -16.9433   24.7255 C   0  0  0  0  0  0  0  0  0  0  0  0
    8.7638  -18.0235   24.9298 O   0  0  0  0  0  0  0  0  0  0  0  0
   10.8285  -17.0503   24.6021 N   0  0  0  0  0  0  0  0  0  0  0  0
   11.6364  -17.0058   25.8158 C   0  0  0  0  0  0  0  0  0  0  0  0
   11.5993  -18.3408   26.4481 C   0  0  0  0  0  0  0  0  0  0  0  0
   12.5449  -19.3202   26.1811 O   0  0  0  0  0  0  0  0  0  0  0  0
   10.6873  -18.6230   27.2610 O   0  0  0  0  0  0  0  0  0  0  0  0
  2  1  1  0
  2  3  2  0
  4  5  1  0
  4  2  1  0
  5  6  1  1
  7  5  1  0
  8  7  2  0
  9  7  1  0
 10  9  1  0
 10 11  1  1
 11 12  1  0
 12 13  2  0
 13 14  1  0
 15 14  2  0
 16 15  1  0
 17 12  1  0
 17 16  2  0
 18 20  1  0
 18 10  1  0
 19 18  2  0
 21 20  1  0
 22 23  1  0
 22 21  1  0
 24 22  2  0
M  END
$$$$
