NFG.pdb
     RDKit          3D

 24 24  0  0  1  0  0  0  0  0999 V2000
    7.9629  -12.5134   18.7736 N   0  0  0  0  0  0  0  0  0  0  0  0
    8.1790  -13.7646   19.3722 C   0  0  0  0  0  0  0  0  0  0  0  0
    8.3253  -14.7952   18.6740 O   0  0  0  0  0  0  0  0  0  0  0  0
    8.2332  -13.8587   20.8440 C   0  0  0  0  0  0  0  0  0  0  0  0
    8.3122  -15.2923   21.3248 C   0  0  2  0  0  0  0  0  0  0  0  0
    7.2149  -16.0996   20.8955 N   0  0  0  0  0  0  0  0  0  0  0  0
    8.3790  -15.2120   22.8355 C   0  0  0  0  0  0  0  0  0  0  0  0
    9.2447  -14.4698   23.3644 O   0  0  0  0  0  0  0  0  0  0  0  0
    7.5061  -15.9391   23.6531 N   0  0  0  0  0  0  0  0  0  0  0  0
    7.5535  -15.8594   25.1188 C   0  0  1  0  0  0  0  0  0  0  0  0
    6.3651  -15.1034   25.6147 C   0  0  0  0  0  0  0  0  0  0  0  0
    6.5613  -13.7421   26.0707 C   0  0  0  0  0  0  0  0  0  0  0  0
    5.4358  -13.0238   26.4600 C   0  0  0  0  0  0  0  0  0  0  0  0
    5.6100  -11.7307   26.8947 C   0  0  0  0  0  0  0  0  0  0  0  0
    6.8573  -11.1460   26.9500 C   0  0  0  0  0  0  0  0  0  0  0  0
    7.9636  -11.9005   26.5503 C   0  0  0  0  0  0  0  0  0  0  0  0
    7.8158  -13.1937   26.1123 C   0  0  0  0  0  0  0  0  0  0  0  0
    7.6417  -17.2048   25.7033 C   0  0  0  0  0  0  0  0  0  0  0  0
    7.5881  -17.4409   26.9496 O   0  0  0  0  0  0  0  0  0  0  0  0
    7.7929  -18.3443   24.8378 N   0  0  0  0  0  0  0  0  0  0  0  0
    9.1388  -18.7410   24.4393 C   0  0  0  0  0  0  0  0  0  0  0  0
    9.8024  -19.3666   25.6019 C   0  0  0  0  0  0  0  0  0  0  0  0
    9.4919  -20.6458   26.0400 O   0  0  0  0  0  0  0  0  0  0  0  0
   10.6837  -18.7365   26.2333 O   0  0  0  0  0  0  0  0  0  0  0  0
  2  1  1  0
  2  3  2  0
  4  5  1  0
  4  2  1  0
  5  6  1  1
  7  5  1  0
  8  7  2  0
  9  7  1  0
 10  9  1  0
 10 11  1  1
 11 12  1  0
 12 13  2  0
 13 14  1  0
 15 14  2  0
 16 15  1  0
 17 12  1  0
 17 16  2  0
 18 20  1  0
 18 10  1  0
 19 18  2  0
 21 20  1  0
 22 23  1  0
 22 21  1  0
 24 22  2  0
M  END
$$$$
