NFG.pdb
     RDKit          3D

 24 24  0  0  1  0  0  0  0  0999 V2000
    8.4989  -12.2024   18.5569 N   0  0  0  0  0  0  0  0  0  0  0  0
    7.9191  -13.3075   19.1997 C   0  0  0  0  0  0  0  0  0  0  0  0
    7.3205  -14.1922   18.5440 O   0  0  0  0  0  0  0  0  0  0  0  0
    8.0206  -13.4212   20.6676 C   0  0  0  0  0  0  0  0  0  0  0  0
    8.3660  -14.8269   21.1118 C   0  0  2  0  0  0  0  0  0  0  0  0
    7.2512  -15.7197   21.0988 N   0  0  0  0  0  0  0  0  0  0  0  0
    8.9409  -14.6839   22.5054 C   0  0  0  0  0  0  0  0  0  0  0  0
    9.8954  -13.8865   22.6873 O   0  0  0  0  0  0  0  0  0  0  0  0
    8.4392  -15.4129   23.5897 N   0  0  0  0  0  0  0  0  0  0  0  0
    9.0080  -15.3043   24.9394 C   0  0  1  0  0  0  0  0  0  0  0  0
    7.9073  -15.1066   25.9288 C   0  0  0  0  0  0  0  0  0  0  0  0
    7.3489  -13.7775   26.0749 C   0  0  0  0  0  0  0  0  0  0  0  0
    8.2092  -12.7556   26.4620 C   0  0  0  0  0  0  0  0  0  0  0  0
    7.6902  -11.4898   26.6038 C   0  0  0  0  0  0  0  0  0  0  0  0
    6.3576  -11.2223   26.3731 C   0  0  0  0  0  0  0  0  0  0  0  0
    5.5254  -12.2759   25.9856 C   0  0  0  0  0  0  0  0  0  0  0  0
    6.0194  -13.5486   25.8372 C   0  0  0  0  0  0  0  0  0  0  0  0
    9.8284  -16.4841   25.2469 C   0  0  0  0  0  0  0  0  0  0  0  0
   10.2702  -16.7577   26.4053 O   0  0  0  0  0  0  0  0  0  0  0  0
   10.1641  -17.4069   24.1952 N   0  0  0  0  0  0  0  0  0  0  0  0
   10.8319  -18.6540   24.5513 C   0  0  0  0  0  0  0  0  0  0  0  0
   12.2802  -18.4917   24.3076 C   0  0  0  0  0  0  0  0  0  0  0  0
   13.1963  -19.5052   24.5490 O   0  0  0  0  0  0  0  0  0  0  0  0
   12.7224  -17.4048   23.8656 O   0  0  0  0  0  0  0  0  0  0  0  0
  2  1  1  0
  2  3  2  0
  4  5  1  0
  4  2  1  0
  5  6  1  1
  7  5  1  0
  8  7  2  0
  9  7  1  0
 10  9  1  0
 10 11  1  1
 11 12  1  0
 12 13  2  0
 13 14  1  0
 15 14  2  0
 16 15  1  0
 17 12  1  0
 17 16  2  0
 18 20  1  0
 18 10  1  0
 19 18  2  0
 21 20  1  0
 22 23  1  0
 22 21  1  0
 24 22  2  0
M  END
$$$$
