PSN.pdb
     RDKit          3D

 22 22  0  0  1  0  0  0  0  0999 V2000
   24.9669  -23.2785  -16.8093 N   0  0  0  0  0  0  0  0  0  0  0  0
   26.2415  -23.6768  -17.3809 C   0  0  0  0  0  0  0  0  0  0  0  0
   26.8824  -24.6413  -16.4373 C   0  0  0  0  0  0  0  0  0  0  0  0
   26.0391  -24.4898  -15.1676 C   0  0  0  0  0  0  0  0  0  0  0  0
   24.6892  -24.1902  -15.7431 C   0  0  1  0  0  0  0  0  0  0  0  0
   23.7151  -23.6609  -14.7656 C   0  0  0  0  0  0  0  0  0  0  0  0
   23.3620  -24.3416  -13.7427 O   0  0  0  0  0  0  0  0  0  0  0  0
   22.2029  -19.6982  -14.8771 O   0  0  0  0  0  0  0  0  0  0  0  0
   22.3194  -20.4420  -13.7292 C   0  0  0  0  0  0  0  0  0  0  0  0
   22.0888  -21.9255  -13.9188 C   0  0  2  0  0  0  0  0  0  0  0  0
   23.0924  -22.3851  -14.8591 N   0  0  0  0  0  0  0  0  0  0  0  0
   20.7255  -22.2600  -14.3244 C   0  0  0  0  0  0  0  0  0  0  0  0
   20.4534  -22.4254  -15.5514 O   0  0  0  0  0  0  0  0  0  0  0  0
   15.7574  -23.6595  -14.4352 N   0  0  0  0  0  0  0  0  0  0  0  0
   16.2094  -23.9148  -13.1197 C   0  0  0  0  0  0  0  0  0  0  0  0
   15.4490  -24.5546  -12.3505 O   0  0  0  0  0  0  0  0  0  0  0  0
   17.5331  -23.4214  -12.7287 C   0  0  0  0  0  0  0  0  0  0  0  0
   18.3059  -22.7701  -13.8382 C   0  0  2  0  0  0  0  0  0  0  0  0
   19.6648  -22.4137  -13.4002 N   0  0  0  0  0  0  0  0  0  0  0  0
   17.6447  -21.5055  -14.2212 C   0  0  0  0  0  0  0  0  0  0  0  0
   17.9709  -20.4593  -13.6181 O   0  0  0  0  0  0  0  0  0  0  0  0
   16.6864  -21.4229  -15.2102 O   0  0  0  0  0  0  0  0  0  0  0  0
  1  5  1  0
  2  3  1  0
  2  1  1  0
  3  4  1  0
  4  5  1  0
  6 11  1  0
  5  6  1  1
  7  6  2  0
  8  9  1  0
 10 11  1  0
 10  9  1  6
 12 10  1  0
 12 19  1  0
 13 12  2  0
 15 14  1  0
 16 15  2  0
 17 15  1  0
 18 19  1  0
 18 17  1  1
 20 18  1  0
 21 20  2  0
 22 20  1  0
M  END
$$$$
