PSN.pdb
     RDKit          3D

 22 22  0  0  1  0  0  0  0  0999 V2000
   21.4728  -10.6947  -15.8766 N   0  0  0  0  0  0  0  0  0  0  0  0
   20.9924  -11.6239  -16.8845 C   0  0  0  0  0  0  0  0  0  0  0  0
   19.7089  -11.0847  -17.4262 C   0  0  0  0  0  0  0  0  0  0  0  0
   19.3499   -9.9836  -16.4239 C   0  0  0  0  0  0  0  0  0  0  0  0
   20.7076   -9.4954  -16.0218 C   0  0  1  0  0  0  0  0  0  0  0  0
   20.7158   -8.6512  -14.8087 C   0  0  0  0  0  0  0  0  0  0  0  0
   20.4669   -9.1420  -13.6547 O   0  0  0  0  0  0  0  0  0  0  0  0
   21.8502   -4.3100  -12.8555 O   0  0  0  0  0  0  0  0  0  0  0  0
   21.7425   -5.1843  -13.9083 C   0  0  0  0  0  0  0  0  0  0  0  0
   20.9884   -6.4571  -13.5900 C   0  0  2  0  0  0  0  0  0  0  0  0
   20.9915   -7.2555  -14.8005 N   0  0  0  0  0  0  0  0  0  0  0  0
   19.6475   -6.2267  -13.0572 C   0  0  0  0  0  0  0  0  0  0  0  0
   18.6714   -6.0644  -13.8496 O   0  0  0  0  0  0  0  0  0  0  0  0
   15.5354   -5.6880   -9.9475 N   0  0  0  0  0  0  0  0  0  0  0  0
   16.5964   -6.0935   -9.1049 C   0  0  0  0  0  0  0  0  0  0  0  0
   16.3304   -6.3400   -7.9017 O   0  0  0  0  0  0  0  0  0  0  0  0
   17.9405   -6.2032   -9.6792 C   0  0  0  0  0  0  0  0  0  0  0  0
   18.0007   -5.9927  -11.1639 C   0  0  2  0  0  0  0  0  0  0  0  0
   19.3706   -6.1735  -11.6703 N   0  0  0  0  0  0  0  0  0  0  0  0
   17.6187   -4.6005  -11.4789 C   0  0  0  0  0  0  0  0  0  0  0  0
   16.4154   -4.2768  -11.3709 O   0  0  0  0  0  0  0  0  0  0  0  0
   18.5238   -3.6420  -11.8855 O   0  0  0  0  0  0  0  0  0  0  0  0
  1  5  1  0
  2  3  1  0
  2  1  1  0
  3  4  1  0
  4  5  1  0
  6 11  1  0
  5  6  1  1
  7  6  2  0
  8  9  1  0
 10 11  1  0
 10  9  1  6
 12 10  1  0
 12 19  1  0
 13 12  2  0
 15 14  1  0
 16 15  2  0
 17 15  1  0
 18 19  1  0
 18 17  1  1
 20 18  1  0
 21 20  2  0
 22 20  1  0
M  END
$$$$
