PSN.pdb
     RDKit          3D

 22 22  0  0  1  0  0  0  0  0999 V2000
   21.8787  -12.0617  -18.8391 N   0  0  0  0  0  0  0  0  0  0  0  0
   21.7484  -13.2700  -19.6347 C   0  0  0  0  0  0  0  0  0  0  0  0
   20.8015  -14.1822  -18.9258 C   0  0  0  0  0  0  0  0  0  0  0  0
   20.6828  -13.5422  -17.5393 C   0  0  0  0  0  0  0  0  0  0  0  0
   20.8266  -12.0887  -17.8711 C   0  0  1  0  0  0  0  0  0  0  0  0
   21.0895  -11.2215  -16.7035 C   0  0  0  0  0  0  0  0  0  0  0  0
   20.2240  -11.0764  -15.7739 O   0  0  0  0  0  0  0  0  0  0  0  0
   24.8566   -9.3180  -15.9037 O   0  0  0  0  0  0  0  0  0  0  0  0
   23.9830   -9.8199  -14.9713 C   0  0  0  0  0  0  0  0  0  0  0  0
   22.5222   -9.6593  -15.3322 C   0  0  2  0  0  0  0  0  0  0  0  0
   22.2898  -10.4850  -16.5013 N   0  0  0  0  0  0  0  0  0  0  0  0
   22.1141   -8.2690  -15.5204 C   0  0  0  0  0  0  0  0  0  0  0  0
   22.2756   -7.7094  -16.6464 O   0  0  0  0  0  0  0  0  0  0  0  0
   19.0810   -6.2730  -16.4770 N   0  0  0  0  0  0  0  0  0  0  0  0
   18.7346   -5.9444  -15.1458 C   0  0  0  0  0  0  0  0  0  0  0  0
   17.5155   -5.8119  -14.8711 O   0  0  0  0  0  0  0  0  0  0  0  0
   19.8115   -5.7776  -14.1656 C   0  0  0  0  0  0  0  0  0  0  0  0
   21.1840   -6.0775  -14.6935 C   0  0  2  0  0  0  0  0  0  0  0  0
   21.5334   -7.4924  -14.4895 N   0  0  0  0  0  0  0  0  0  0  0  0
   22.1826   -5.2878  -13.9436 C   0  0  0  0  0  0  0  0  0  0  0  0
   22.9214   -5.8849  -13.1300 O   0  0  0  0  0  0  0  0  0  0  0  0
   22.3391   -3.9257  -14.0972 O   0  0  0  0  0  0  0  0  0  0  0  0
  1  5  1  0
  2  3  1  0
  2  1  1  0
  3  4  1  0
  4  5  1  0
  6 11  1  0
  5  6  1  1
  7  6  2  0
  8  9  1  0
 10 11  1  0
 10  9  1  6
 12 10  1  0
 12 19  1  0
 13 12  2  0
 15 14  1  0
 16 15  2  0
 17 15  1  0
 18 19  1  0
 18 17  1  1
 20 18  1  0
 21 20  2  0
 22 20  1  0
M  END
$$$$
