PSN.pdb
     RDKit          3D

 22 22  0  0  1  0  0  0  0  0999 V2000
   19.4239  -13.5931  -17.1901 N   0  0  0  0  0  0  0  0  0  0  0  0
   19.3920  -14.9914  -17.5822 C   0  0  0  0  0  0  0  0  0  0  0  0
   20.5228  -15.2246  -18.5301 C   0  0  0  0  0  0  0  0  0  0  0  0
   20.9679  -13.8034  -18.8882 C   0  0  0  0  0  0  0  0  0  0  0  0
   20.6891  -13.0750  -17.6096 C   0  0  1  0  0  0  0  0  0  0  0  0
   20.7009  -11.6022  -17.7336 C   0  0  0  0  0  0  0  0  0  0  0  0
   21.7927  -10.9567  -17.8937 O   0  0  0  0  0  0  0  0  0  0  0  0
   17.1861   -9.1520  -17.5256 O   0  0  0  0  0  0  0  0  0  0  0  0
   18.2479   -8.9016  -18.3588 C   0  0  0  0  0  0  0  0  0  0  0  0
   19.5896   -9.3367  -17.8107 C   0  0  2  0  0  0  0  0  0  0  0  0
   19.5402  -10.7808  -17.6890 N   0  0  0  0  0  0  0  0  0  0  0  0
   19.9593   -8.6675  -16.5655 C   0  0  0  0  0  0  0  0  0  0  0  0
   19.6016   -9.1590  -15.4531 O   0  0  0  0  0  0  0  0  0  0  0  0
   21.7941   -5.3527  -13.0330 N   0  0  0  0  0  0  0  0  0  0  0  0
   22.4173   -4.9860  -14.2484 C   0  0  0  0  0  0  0  0  0  0  0  0
   23.2689   -4.0624  -14.2173 O   0  0  0  0  0  0  0  0  0  0  0  0
   22.0371   -5.7002  -15.4707 C   0  0  0  0  0  0  0  0  0  0  0  0
   21.0344   -6.7973  -15.2627 C   0  0  2  0  0  0  0  0  0  0  0  0
   20.7141   -7.4708  -16.5312 N   0  0  0  0  0  0  0  0  0  0  0  0
   19.7691   -6.2188  -14.7651 C   0  0  0  0  0  0  0  0  0  0  0  0
   19.4985   -6.3408  -13.5500 O   0  0  0  0  0  0  0  0  0  0  0  0
   18.8731   -5.5517  -15.5747 O   0  0  0  0  0  0  0  0  0  0  0  0
  1  5  1  0
  2  3  1  0
  2  1  1  0
  3  4  1  0
  4  5  1  0
  6 11  1  0
  5  6  1  6
  7  6  2  0
  8  9  1  0
 10 11  1  0
 10  9  1  1
 12 10  1  0
 12 19  1  0
 13 12  2  0
 15 14  1  0
 16 15  2  0
 17 15  1  0
 18 19  1  0
 18 17  1  6
 20 18  1  0
 21 20  2  0
 22 20  1  0
M  END
$$$$
