PSN.pdb
     RDKit          3D

 22 22  0  0  1  0  0  0  0  0999 V2000
   24.9229  -13.5511  -17.9892 N   0  0  0  0  0  0  0  0  0  0  0  0
   25.8733  -14.4649  -17.3794 C   0  0  0  0  0  0  0  0  0  0  0  0
   25.9384  -14.1481  -15.9211 C   0  0  0  0  0  0  0  0  0  0  0  0
   25.2216  -12.7974  -15.8318 C   0  0  0  0  0  0  0  0  0  0  0  0
   24.2023  -12.9308  -16.9210 C   0  0  1  0  0  0  0  0  0  0  0  0
   23.5627  -11.6579  -17.3147 C   0  0  0  0  0  0  0  0  0  0  0  0
   24.0419  -10.9349  -18.2540 O   0  0  0  0  0  0  0  0  0  0  0  0
   19.5698  -10.7863  -16.7081 O   0  0  0  0  0  0  0  0  0  0  0  0
   20.3994  -10.2234  -17.6458 C   0  0  0  0  0  0  0  0  0  0  0  0
   21.7807   -9.8788  -17.1328 C   0  0  2  0  0  0  0  0  0  0  0  0
   22.3900  -11.1250  -16.7106 N   0  0  0  0  0  0  0  0  0  0  0  0
   21.7804   -8.8567  -16.0886 C   0  0  0  0  0  0  0  0  0  0  0  0
   21.6696   -9.1955  -14.8721 O   0  0  0  0  0  0  0  0  0  0  0  0
   22.1458   -4.4126  -13.4590 N   0  0  0  0  0  0  0  0  0  0  0  0
   22.5826   -4.1164  -14.7710 C   0  0  0  0  0  0  0  0  0  0  0  0
   23.0285   -2.9633  -14.9960 O   0  0  0  0  0  0  0  0  0  0  0  0
   22.4914   -5.1658  -15.7904 C   0  0  0  0  0  0  0  0  0  0  0  0
   21.9485   -6.4724  -15.2899 C   0  0  2  0  0  0  0  0  0  0  0  0
   21.9003   -7.4742  -16.3668 N   0  0  0  0  0  0  0  0  0  0  0  0
   20.5565   -6.2831  -14.8320 C   0  0  0  0  0  0  0  0  0  0  0  0
   19.6451   -6.2831  -15.6887 O   0  0  0  0  0  0  0  0  0  0  0  0
   20.2140   -6.1067  -13.5073 O   0  0  0  0  0  0  0  0  0  0  0  0
  1  5  1  0
  2  3  1  0
  2  1  1  0
  3  4  1  0
  4  5  1  0
  6 11  1  0
  5  6  1  6
  7  6  2  0
  8  9  1  0
 10 11  1  0
 10  9  1  1
 12 10  1  0
 12 19  1  0
 13 12  2  0
 15 14  1  0
 16 15  2  0
 17 15  1  0
 18 19  1  0
 18 17  1  6
 20 18  1  0
 21 20  2  0
 22 20  1  0
M  END
$$$$
