PSN.pdb
     RDKit          3D

 22 22  0  0  1  0  0  0  0  0999 V2000
   25.6077  -12.8704  -17.7752 N   0  0  0  0  0  0  0  0  0  0  0  0
   26.3074  -14.1250  -17.5599 C   0  0  0  0  0  0  0  0  0  0  0  0
   27.2539  -13.9291  -16.4209 C   0  0  0  0  0  0  0  0  0  0  0  0
   27.2688  -12.4075  -16.2460 C   0  0  0  0  0  0  0  0  0  0  0  0
   25.8660  -12.0516  -16.6316 C   0  0  1  0  0  0  0  0  0  0  0  0
   25.6524  -10.6119  -16.8883 C   0  0  0  0  0  0  0  0  0  0  0  0
   25.8412   -9.7378  -15.9746 O   0  0  0  0  0  0  0  0  0  0  0  0
   24.9625   -7.0956  -20.2001 O   0  0  0  0  0  0  0  0  0  0  0  0
   25.0706   -8.4134  -19.8313 C   0  0  0  0  0  0  0  0  0  0  0  0
   24.9925   -8.6541  -18.3393 C   0  0  2  0  0  0  0  0  0  0  0  0
   25.2297  -10.0698  -18.1340 N   0  0  0  0  0  0  0  0  0  0  0  0
   23.7476   -8.1864  -17.7341 C   0  0  0  0  0  0  0  0  0  0  0  0
   22.7232   -8.9330  -17.7377 O   0  0  0  0  0  0  0  0  0  0  0  0
   20.1798   -5.4434  -15.1598 N   0  0  0  0  0  0  0  0  0  0  0  0
   21.3242   -5.7178  -14.3756 C   0  0  0  0  0  0  0  0  0  0  0  0
   21.2654   -5.4740  -13.1442 O   0  0  0  0  0  0  0  0  0  0  0  0
   22.5094   -6.2684  -15.0395 C   0  0  0  0  0  0  0  0  0  0  0  0
   22.3534   -6.4754  -16.5177 C   0  0  2  0  0  0  0  0  0  0  0  0
   23.6184   -6.9138  -17.1285 N   0  0  0  0  0  0  0  0  0  0  0  0
   22.0020   -5.1916  -17.1593 C   0  0  0  0  0  0  0  0  0  0  0  0
   20.8253   -4.7800  -17.0572 O   0  0  0  0  0  0  0  0  0  0  0  0
   22.9077   -4.4262  -17.8645 O   0  0  0  0  0  0  0  0  0  0  0  0
  1  5  1  0
  2  3  1  0
  2  1  1  0
  3  4  1  0
  4  5  1  0
  6 11  1  0
  5  6  1  6
  7  6  2  0
  8  9  1  0
 10 11  1  0
 10  9  1  6
 12 10  1  0
 12 19  1  0
 13 12  2  0
 15 14  1  0
 16 15  2  0
 17 15  1  0
 18 19  1  0
 18 17  1  1
 20 18  1  0
 21 20  2  0
 22 20  1  0
M  END
$$$$
