PSN.pdb
     RDKit          3D

 22 22  0  0  1  0  0  0  0  0999 V2000
   16.9918  -12.4080  -17.3088 N   0  0  0  0  0  0  0  0  0  0  0  0
   16.0131  -13.4609  -17.5172 C   0  0  0  0  0  0  0  0  0  0  0  0
   16.1764  -14.4588  -16.4178 C   0  0  0  0  0  0  0  0  0  0  0  0
   17.5156  -14.0605  -15.7900 C   0  0  0  0  0  0  0  0  0  0  0  0
   17.5031  -12.5754  -15.9838 C   0  0  1  0  0  0  0  0  0  0  0  0
   18.8145  -11.9245  -15.7811 C   0  0  0  0  0  0  0  0  0  0  0  0
   19.4351  -12.0109  -14.6667 O   0  0  0  0  0  0  0  0  0  0  0  0
   22.9330  -10.4028  -17.6692 O   0  0  0  0  0  0  0  0  0  0  0  0
   21.6709  -10.9415  -17.7044 C   0  0  0  0  0  0  0  0  0  0  0  0
   20.7893  -10.5468  -16.5395 C   0  0  2  0  0  0  0  0  0  0  0  0
   19.4966  -11.1620  -16.7696 N   0  0  0  0  0  0  0  0  0  0  0  0
   20.7091   -9.1034  -16.3275 C   0  0  0  0  0  0  0  0  0  0  0  0
   19.8818   -8.4114  -16.9936 O   0  0  0  0  0  0  0  0  0  0  0  0
   21.4373   -4.2441  -14.7244 N   0  0  0  0  0  0  0  0  0  0  0  0
   22.1528   -5.0471  -13.8061 C   0  0  0  0  0  0  0  0  0  0  0  0
   22.7047   -4.4767  -12.8318 O   0  0  0  0  0  0  0  0  0  0  0  0
   22.2106   -6.4929  -14.0408 C   0  0  0  0  0  0  0  0  0  0  0  0
   21.4913   -6.9509  -15.2758 C   0  0  2  0  0  0  0  0  0  0  0  0
   21.5241   -8.4172  -15.3959 N   0  0  0  0  0  0  0  0  0  0  0  0
   22.1779   -6.4179  -16.4707 C   0  0  0  0  0  0  0  0  0  0  0  0
   23.2472   -6.9580  -16.8306 O   0  0  0  0  0  0  0  0  0  0  0  0
   21.6975   -5.3549  -17.2073 O   0  0  0  0  0  0  0  0  0  0  0  0
  1  5  1  0
  2  3  1  0
  2  1  1  0
  3  4  1  0
  4  5  1  0
  6 11  1  0
  5  6  1  6
  7  6  2  0
  8  9  1  0
 10 11  1  0
 10  9  1  6
 12 10  1  0
 12 19  1  0
 13 12  2  0
 15 14  1  0
 16 15  2  0
 17 15  1  0
 18 19  1  0
 18 17  1  1
 20 18  1  0
 21 20  2  0
 22 20  1  0
M  END
$$$$
