PSN.pdb
     RDKit          3D

 22 22  0  0  1  0  0  0  0  0999 V2000
   18.9192  -11.3636  -17.3309 N   0  0  0  0  0  0  0  0  0  0  0  0
   18.2846  -12.5781  -17.8128 C   0  0  0  0  0  0  0  0  0  0  0  0
   17.1170  -12.8647  -16.9262 C   0  0  0  0  0  0  0  0  0  0  0  0
   17.3497  -11.9250  -15.7392 C   0  0  0  0  0  0  0  0  0  0  0  0
   18.0078  -10.7586  -16.4098 C   0  0  1  0  0  0  0  0  0  0  0  0
   18.6629   -9.8134  -15.4814 C   0  0  0  0  0  0  0  0  0  0  0  0
   17.9924   -9.1726  -14.6014 O   0  0  0  0  0  0  0  0  0  0  0  0
   22.8874   -9.3807  -15.1912 O   0  0  0  0  0  0  0  0  0  0  0  0
   22.0100   -9.2788  -14.1405 C   0  0  0  0  0  0  0  0  0  0  0  0
   20.6779   -8.6550  -14.4958 C   0  0  2  0  0  0  0  0  0  0  0  0
   20.0569   -9.5293  -15.4718 N   0  0  0  0  0  0  0  0  0  0  0  0
   20.7813   -7.2698  -14.9489 C   0  0  0  0  0  0  0  0  0  0  0  0
   20.9349   -7.0174  -16.1817 O   0  0  0  0  0  0  0  0  0  0  0  0
   20.9134   -2.1101  -15.2492 N   0  0  0  0  0  0  0  0  0  0  0  0
   19.9606   -2.4680  -14.2673 C   0  0  0  0  0  0  0  0  0  0  0  0
   19.2249   -1.5609  -13.8036 O   0  0  0  0  0  0  0  0  0  0  0  0
   19.8847   -3.8703  -13.8473 C   0  0  0  0  0  0  0  0  0  0  0  0
   20.8474   -4.7822  -14.5501 C   0  0  2  0  0  0  0  0  0  0  0  0
   20.7176   -6.1657  -14.0657 N   0  0  0  0  0  0  0  0  0  0  0  0
   22.2316   -4.3618  -14.2491 C   0  0  0  0  0  0  0  0  0  0  0  0
   22.6364   -4.4547  -13.0693 O   0  0  0  0  0  0  0  0  0  0  0  0
   23.0976   -3.8724  -15.2051 O   0  0  0  0  0  0  0  0  0  0  0  0
  1  5  1  0
  2  3  1  0
  2  1  1  0
  3  4  1  0
  4  5  1  0
  6 11  1  0
  5  6  1  1
  7  6  2  0
  8  9  1  0
 10 11  1  0
 10  9  1  6
 12 10  1  0
 12 19  1  0
 13 12  2  0
 15 14  1  0
 16 15  2  0
 17 15  1  0
 18 19  1  0
 18 17  1  1
 20 18  1  0
 21 20  2  0
 22 20  1  0
M  END
$$$$
