PSN.pdb
     RDKit          3D

 22 22  0  0  1  0  0  0  0  0999 V2000
   20.4498  -12.5953  -18.1410 N   0  0  0  0  0  0  0  0  0  0  0  0
   20.1606  -13.6610  -19.0848 C   0  0  0  0  0  0  0  0  0  0  0  0
   19.5886  -13.0368  -20.3154 C   0  0  0  0  0  0  0  0  0  0  0  0
   19.2749  -11.6082  -19.8606 C   0  0  0  0  0  0  0  0  0  0  0  0
   20.3702  -11.3665  -18.8681 C   0  0  1  0  0  0  0  0  0  0  0  0
   20.1548  -10.1907  -17.9988 C   0  0  0  0  0  0  0  0  0  0  0  0
   20.2635   -8.9998  -18.4512 O   0  0  0  0  0  0  0  0  0  0  0  0
   18.5387   -8.5620  -13.6727 O   0  0  0  0  0  0  0  0  0  0  0  0
   18.8518   -9.5591  -14.5627 C   0  0  0  0  0  0  0  0  0  0  0  0
   19.5751   -9.0851  -15.8045 C   0  0  2  0  0  0  0  0  0  0  0  0
   19.8167  -10.2604  -16.6187 N   0  0  0  0  0  0  0  0  0  0  0  0
   20.7891   -8.3229  -15.5212 C   0  0  0  0  0  0  0  0  0  0  0  0
   21.8788   -8.9302  -15.2957 O   0  0  0  0  0  0  0  0  0  0  0  0
   24.3748   -4.6718  -14.9900 N   0  0  0  0  0  0  0  0  0  0  0  0
   23.8579   -4.8167  -16.2984 C   0  0  0  0  0  0  0  0  0  0  0  0
   24.5063   -4.3069  -17.2465 O   0  0  0  0  0  0  0  0  0  0  0  0
   22.6010   -5.5499  -16.4748 C   0  0  0  0  0  0  0  0  0  0  0  0
   22.0611   -6.1686  -15.2185 C   0  0  2  0  0  0  0  0  0  0  0  0
   20.8170   -6.9085  -15.4837 N   0  0  0  0  0  0  0  0  0  0  0  0
   21.7167   -5.1029  -14.2547 C   0  0  0  0  0  0  0  0  0  0  0  0
   22.6310   -4.3518  -13.8492 O   0  0  0  0  0  0  0  0  0  0  0  0
   20.4374   -4.8968  -13.7811 O   0  0  0  0  0  0  0  0  0  0  0  0
  1  5  1  0
  2  3  1  0
  2  1  1  0
  3  4  1  0
  4  5  1  0
  6 11  1  0
  5  6  1  1
  7  6  2  0
  8  9  1  0
 10 11  1  0
 10  9  1  1
 12 10  1  0
 12 19  1  0
 13 12  2  0
 15 14  1  0
 16 15  2  0
 17 15  1  0
 18 19  1  0
 18 17  1  6
 20 18  1  0
 21 20  2  0
 22 20  1  0
M  END
$$$$
