PSN.pdb
     RDKit          3D

 22 22  0  0  1  0  0  0  0  0999 V2000
   20.5621  -11.4099  -19.5789 N   0  0  0  0  0  0  0  0  0  0  0  0
   19.9018  -12.5176  -20.2474 C   0  0  0  0  0  0  0  0  0  0  0  0
   18.8080  -13.0026  -19.3531 C   0  0  0  0  0  0  0  0  0  0  0  0
   19.1239  -12.3144  -18.0216 C   0  0  0  0  0  0  0  0  0  0  0  0
   19.7195  -11.0225  -18.4903 C   0  0  1  0  0  0  0  0  0  0  0  0
   20.4366  -10.2674  -17.4415 C   0  0  0  0  0  0  0  0  0  0  0  0
   19.8114   -9.7241  -16.4676 O   0  0  0  0  0  0  0  0  0  0  0  0
   24.6349   -9.2456  -17.5464 O   0  0  0  0  0  0  0  0  0  0  0  0
   23.9795   -9.7022  -16.4299 C   0  0  0  0  0  0  0  0  0  0  0  0
   22.5158   -9.3235  -16.3649 C   0  0  2  0  0  0  0  0  0  0  0  0
   21.8457  -10.0742  -17.4089 N   0  0  0  0  0  0  0  0  0  0  0  0
   22.2781   -7.8843  -16.4492 C   0  0  0  0  0  0  0  0  0  0  0  0
   22.2208   -7.3181  -17.5820 O   0  0  0  0  0  0  0  0  0  0  0  0
   21.0951   -2.9677  -15.6429 N   0  0  0  0  0  0  0  0  0  0  0  0
   20.0726   -3.9254  -15.8359 C   0  0  0  0  0  0  0  0  0  0  0  0
   18.9001   -3.5071  -16.0079 O   0  0  0  0  0  0  0  0  0  0  0  0
   20.4356   -5.3455  -15.8246 C   0  0  0  0  0  0  0  0  0  0  0  0
   21.8560   -5.6204  -15.4256 C   0  0  2  0  0  0  0  0  0  0  0  0
   22.1036   -7.0662  -15.3076 N   0  0  0  0  0  0  0  0  0  0  0  0
   22.1122   -5.0418  -14.0904 C   0  0  0  0  0  0  0  0  0  0  0  0
   22.1154   -3.7964  -13.9743 O   0  0  0  0  0  0  0  0  0  0  0  0
   22.3476   -5.8077  -12.9673 O   0  0  0  0  0  0  0  0  0  0  0  0
  1  5  1  0
  2  3  1  0
  2  1  1  0
  3  4  1  0
  4  5  1  0
  6 11  1  0
  5  6  1  1
  7  6  2  0
  8  9  1  0
 10 11  1  0
 10  9  1  6
 12 10  1  0
 12 19  1  0
 13 12  2  0
 15 14  1  0
 16 15  2  0
 17 15  1  0
 18 19  1  0
 18 17  1  1
 20 18  1  0
 21 20  2  0
 22 20  1  0
M  END
$$$$
