PSN.pdb
     RDKit          3D

 22 22  0  0  1  0  0  0  0  0999 V2000
   28.3535  -20.7987   -7.5814 N   0  0  0  0  0  0  0  0  0  0  0  0
   29.1340  -20.3845   -6.4285 C   0  0  0  0  0  0  0  0  0  0  0  0
   28.5194  -19.1353   -5.8872 C   0  0  0  0  0  0  0  0  0  0  0  0
   27.5632  -18.7115   -7.0063 C   0  0  0  0  0  0  0  0  0  0  0  0
   27.1416  -20.0402   -7.5541 C   0  0  1  0  0  0  0  0  0  0  0  0
   26.4706  -19.9707   -8.8692 C   0  0  0  0  0  0  0  0  0  0  0  0
   25.4407  -19.2357   -9.0528 O   0  0  0  0  0  0  0  0  0  0  0  0
   27.2266  -22.3920  -12.4253 O   0  0  0  0  0  0  0  0  0  0  0  0
   27.4009  -21.0345  -12.3195 C   0  0  0  0  0  0  0  0  0  0  0  0
   26.4449  -20.3534  -11.3645 C   0  0  2  0  0  0  0  0  0  0  0  0
   26.8867  -20.6887  -10.0247 N   0  0  0  0  0  0  0  0  0  0  0  0
   25.0417  -20.6817  -11.6057 C   0  0  0  0  0  0  0  0  0  0  0  0
   24.4698  -21.5683  -10.9030 O   0  0  0  0  0  0  0  0  0  0  0  0
   20.1305  -20.6873  -13.2229 N   0  0  0  0  0  0  0  0  0  0  0  0
   20.7010  -19.4989  -13.7350 C   0  0  0  0  0  0  0  0  0  0  0  0
   19.9414  -18.6869  -14.3205 O   0  0  0  0  0  0  0  0  0  0  0  0
   22.1395  -19.2817  -13.5554 C   0  0  0  0  0  0  0  0  0  0  0  0
   22.8412  -20.3676  -12.7932 C   0  0  2  0  0  0  0  0  0  0  0  0
   24.2655  -20.0487  -12.6056 N   0  0  0  0  0  0  0  0  0  0  0  0
   22.7925  -21.6236  -13.5699 C   0  0  0  0  0  0  0  0  0  0  0  0
   23.7189  -21.8582  -14.3768 O   0  0  0  0  0  0  0  0  0  0  0  0
   21.7762  -22.5486  -13.4482 O   0  0  0  0  0  0  0  0  0  0  0  0
  1  5  1  0
  2  3  1  0
  2  1  1  0
  3  4  1  0
  4  5  1  0
  6 11  1  0
  5  6  1  6
  7  6  2  0
  8  9  1  0
 10 11  1  0
 10  9  1  6
 12 10  1  0
 12 19  1  0
 13 12  2  0
 15 14  1  0
 16 15  2  0
 17 15  1  0
 18 19  1  0
 18 17  1  6
 20 18  1  0
 21 20  2  0
 22 20  1  0
M  END
$$$$
