KWP.pdb
     RDKit          3D

 31 33  0  0  1  0  0  0  0  0999 V2000
   27.6566  -17.8498  -16.7991 N   0  0  0  0  0  0  0  0  0  0  0  0
   27.9635  -19.2435  -16.8770 C   0  0  1  0  0  0  0  0  0  0  0  0
   29.3558  -19.5394  -17.3766 C   0  0  0  0  0  0  0  0  0  0  0  0
   29.8825  -18.4283  -18.2186 C   0  0  0  0  0  0  0  0  0  0  0  0
   29.7790  -18.7225  -19.7012 C   0  0  0  0  0  0  0  0  0  0  0  0
   30.3906  -17.6288  -20.5453 C   0  0  0  0  0  0  0  0  0  0  0  0
   30.2627  -18.0503  -21.9365 N   0  0  0  0  0  0  0  0  0  0  0  0
   27.6683  -19.8892  -15.5762 C   0  0  0  0  0  0  0  0  0  0  0  0
   28.0690  -21.0524  -15.2965 O   0  0  0  0  0  0  0  0  0  0  0  0
   26.9102  -19.1733  -14.6191 N   0  0  0  0  0  0  0  0  0  0  0  0
   26.4544  -19.8483  -13.4125 C   0  0  1  0  0  0  0  0  0  0  0  0
   26.9062  -19.0842  -12.1879 C   0  0  0  0  0  0  0  0  0  0  0  0
   26.2606  -19.6625  -10.9992 C   0  0  0  0  0  0  0  0  0  0  0  0
   24.9320  -19.9619  -10.8752 C   0  0  0  0  0  0  0  0  0  0  0  0
   24.6771  -20.4797   -9.6706 N   0  0  0  0  0  0  0  0  0  0  0  0
   25.8398  -20.5218   -8.9989 C   0  0  0  0  0  0  0  0  0  0  0  0
   26.1517  -20.9586   -7.7277 C   0  0  0  0  0  0  0  0  0  0  0  0
   27.4403  -20.9034   -7.2452 C   0  0  0  0  0  0  0  0  0  0  0  0
   28.4380  -20.4023   -8.0465 C   0  0  0  0  0  0  0  0  0  0  0  0
   28.1355  -19.9653   -9.3135 C   0  0  0  0  0  0  0  0  0  0  0  0
   26.8525  -20.0158   -9.8057 C   0  0  0  0  0  0  0  0  0  0  0  0
   24.9699  -19.9797  -13.4923 C   0  0  0  0  0  0  0  0  0  0  0  0
   24.2889  -18.9269  -13.7407 O   0  0  0  0  0  0  0  0  0  0  0  0
   24.2969  -21.1944  -13.3105 N   0  0  0  0  0  0  0  0  0  0  0  0
   24.7929  -22.4355  -12.8126 C   0  0  0  0  0  0  0  0  0  0  0  0
   23.9798  -23.5233  -13.4988 C   0  0  0  0  0  0  0  0  0  0  0  0
   22.9417  -22.7774  -14.2929 C   0  0  0  0  0  0  0  0  0  0  0  0
   22.8939  -21.4271  -13.6204 C   0  0  1  0  0  0  0  0  0  0  0  0
   22.1101  -21.5351  -12.3865 C   0  0  0  0  0  0  0  0  0  0  0  0
   20.7090  -21.6319  -12.4212 O   0  0  0  0  0  0  0  0  0  0  0  0
   22.6220  -21.5481  -11.2460 O   0  0  0  0  0  0  0  0  0  0  0  0
  2  1  1  1
  3  4  1  0
  3  2  1  0
  5  6  1  0
  5  4  1  0
  7  6  1  0
  8  2  1  0
  8  9  2  0
 10  8  1  0
 11 10  1  0
 11 12  1  1
 13 12  1  0
 14 13  2  0
 15 14  1  0
 16 15  1  0
 16 21  2  0
 17 16  1  0
 18 17  2  0
 18 19  1  0
 19 20  2  0
 20 21  1  0
 21 13  1  0
 22 11  1  0
 23 22  2  0
 24 25  1  0
 24 22  1  0
 26 27  1  0
 26 25  1  0
 27 28  1  0
 28 24  1  0
 28 29  1  1
 29 30  1  0
 31 29  2  0
M  END
$$$$
