KWP.pdb
     RDKit          3D

 31 33  0  0  1  0  0  0  0  0999 V2000
   28.2009  -19.9135  -18.9380 N   0  0  0  0  0  0  0  0  0  0  0  0
   27.0687  -19.4177  -18.2204 C   0  0  1  0  0  0  0  0  0  0  0  0
   25.7831  -19.4398  -19.0092 C   0  0  0  0  0  0  0  0  0  0  0  0
   25.3061  -18.0617  -19.3163 C   0  0  0  0  0  0  0  0  0  0  0  0
   26.1754  -17.3596  -20.3394 C   0  0  0  0  0  0  0  0  0  0  0  0
   25.7150  -15.9458  -20.6073 C   0  0  0  0  0  0  0  0  0  0  0  0
   26.6770  -15.3589  -21.5343 N   0  0  0  0  0  0  0  0  0  0  0  0
   26.9597  -20.1205  -16.9203 C   0  0  0  0  0  0  0  0  0  0  0  0
   26.5885  -21.3234  -16.8351 O   0  0  0  0  0  0  0  0  0  0  0  0
   27.2830  -19.4141  -15.7372 N   0  0  0  0  0  0  0  0  0  0  0  0
   27.0960  -20.0552  -14.4436 C   0  0  1  0  0  0  0  0  0  0  0  0
   27.9983  -19.4158  -13.4119 C   0  0  0  0  0  0  0  0  0  0  0  0
   28.0734  -20.2934  -12.2337 C   0  0  0  0  0  0  0  0  0  0  0  0
   28.8743  -21.3944  -12.1047 C   0  0  0  0  0  0  0  0  0  0  0  0
   28.7044  -21.9619  -10.9075 N   0  0  0  0  0  0  0  0  0  0  0  0
   27.7897  -21.2338  -10.2457 C   0  0  0  0  0  0  0  0  0  0  0  0
   27.2455  -21.3676   -8.9848 C   0  0  0  0  0  0  0  0  0  0  0  0
   26.3035  -20.4816   -8.5112 C   0  0  0  0  0  0  0  0  0  0  0  0
   25.8961  -19.4412   -9.3114 C   0  0  0  0  0  0  0  0  0  0  0  0
   26.4332  -19.3012  -10.5681 C   0  0  0  0  0  0  0  0  0  0  0  0
   27.3743  -20.1798  -11.0513 C   0  0  0  0  0  0  0  0  0  0  0  0
   25.6509  -19.9536  -14.0848 C   0  0  0  0  0  0  0  0  0  0  0  0
   25.0836  -18.8145  -14.2052 O   0  0  0  0  0  0  0  0  0  0  0  0
   24.8960  -21.0414  -13.6283 N   0  0  0  0  0  0  0  0  0  0  0  0
   25.3058  -22.3853  -13.3837 C   0  0  0  0  0  0  0  0  0  0  0  0
   24.0875  -23.2562  -13.6532 C   0  0  0  0  0  0  0  0  0  0  0  0
   22.9772  -22.2795  -13.9329 C   0  0  0  0  0  0  0  0  0  0  0  0
   23.4763  -20.9986  -13.3101 C   0  0  1  0  0  0  0  0  0  0  0  0
   23.2767  -21.0629  -11.8594 C   0  0  0  0  0  0  0  0  0  0  0  0
   24.3238  -21.4275  -10.9967 O   0  0  0  0  0  0  0  0  0  0  0  0
   22.1873  -20.8040  -11.3033 O   0  0  0  0  0  0  0  0  0  0  0  0
  2  1  1  6
  3  4  1  0
  3  2  1  0
  5  6  1  0
  5  4  1  0
  7  6  1  0
  8  2  1  0
  8  9  2  0
 10  8  1  0
 11 10  1  0
 11 12  1  1
 13 12  1  0
 14 13  2  0
 15 14  1  0
 16 15  1  0
 16 21  2  0
 17 16  1  0
 18 17  2  0
 18 19  1  0
 19 20  2  0
 20 21  1  0
 21 13  1  0
 22 11  1  0
 23 22  2  0
 24 25  1  0
 24 22  1  0
 26 27  1  0
 26 25  1  0
 27 28  1  0
 28 24  1  0
 28 29  1  1
 29 30  1  0
 31 29  2  0
M  END
$$$$
