KWP.pdb
     RDKit          3D

 31 33  0  0  1  0  0  0  0  0999 V2000
   22.8712  -20.8989  -12.1170 N   0  0  0  0  0  0  0  0  0  0  0  0
   24.0376  -20.5211  -12.8515 C   0  0  1  0  0  0  0  0  0  0  0  0
   23.7946  -19.4446  -13.8799 C   0  0  0  0  0  0  0  0  0  0  0  0
   23.6147  -20.0205  -15.2426 C   0  0  0  0  0  0  0  0  0  0  0  0
   22.5965  -21.1419  -15.2705 C   0  0  0  0  0  0  0  0  0  0  0  0
   22.3975  -21.6992  -16.6607 C   0  0  0  0  0  0  0  0  0  0  0  0
   22.7020  -23.1245  -16.5897 N   0  0  0  0  0  0  0  0  0  0  0  0
   25.1287  -20.1816  -11.9079 C   0  0  0  0  0  0  0  0  0  0  0  0
   26.1256  -19.4897  -12.2535 O   0  0  0  0  0  0  0  0  0  0  0  0
   25.0456  -20.6523  -10.5758 N   0  0  0  0  0  0  0  0  0  0  0  0
   26.1454  -20.4022   -9.6553 C   0  0  1  0  0  0  0  0  0  0  0  0
   25.6242  -20.3000   -8.2391 C   0  0  0  0  0  0  0  0  0  0  0  0
   26.6043  -19.5689   -7.4212 C   0  0  0  0  0  0  0  0  0  0  0  0
   26.9449  -18.2523   -7.5655 C   0  0  0  0  0  0  0  0  0  0  0  0
   27.8597  -17.9010   -6.6578 N   0  0  0  0  0  0  0  0  0  0  0  0
   28.1230  -18.9880   -5.9135 C   0  0  0  0  0  0  0  0  0  0  0  0
   28.9783  -19.1883   -4.8494 C   0  0  0  0  0  0  0  0  0  0  0  0
   29.0815  -20.4148   -4.2318 C   0  0  0  0  0  0  0  0  0  0  0  0
   28.3164  -21.4627   -4.6846 C   0  0  0  0  0  0  0  0  0  0  0  0
   27.4623  -21.2713   -5.7436 C   0  0  0  0  0  0  0  0  0  0  0  0
   27.3510  -20.0511   -6.3678 C   0  0  0  0  0  0  0  0  0  0  0  0
   27.1432  -21.4993   -9.8223 C   0  0  0  0  0  0  0  0  0  0  0  0
   26.7033  -22.6804  -10.0353 O   0  0  0  0  0  0  0  0  0  0  0  0
   28.5271  -21.2933   -9.7586 N   0  0  0  0  0  0  0  0  0  0  0  0
   29.2490  -20.1095   -9.4247 C   0  0  0  0  0  0  0  0  0  0  0  0
   30.5548  -20.1751  -10.2031 C   0  0  0  0  0  0  0  0  0  0  0  0
   30.5322  -21.5243  -10.8695 C   0  0  0  0  0  0  0  0  0  0  0  0
   29.5364  -22.3024  -10.0445 C   0  0  1  0  0  0  0  0  0  0  0  0
   30.1828  -22.7426   -8.8048 C   0  0  0  0  0  0  0  0  0  0  0  0
   31.0958  -23.8103   -8.8002 O   0  0  0  0  0  0  0  0  0  0  0  0
   29.9714  -22.2111   -7.6931 O   0  0  0  0  0  0  0  0  0  0  0  0
  2  1  1  1
  3  4  1  0
  3  2  1  0
  5  6  1  0
  5  4  1  0
  7  6  1  0
  8  2  1  0
  8  9  2  0
 10  8  1  0
 11 10  1  0
 11 12  1  1
 13 12  1  0
 14 13  2  0
 15 14  1  0
 16 15  1  0
 16 21  2  0
 17 16  1  0
 18 17  2  0
 18 19  1  0
 19 20  2  0
 20 21  1  0
 21 13  1  0
 22 11  1  0
 23 22  2  0
 24 25  1  0
 24 22  1  0
 26 27  1  0
 26 25  1  0
 27 28  1  0
 28 24  1  0
 28 29  1  1
 29 30  1  0
 31 29  2  0
M  END
$$$$
