KWP.pdb
     RDKit          3D

 31 33  0  0  1  0  0  0  0  0999 V2000
   23.5552  -21.1555  -12.0358 N   0  0  0  0  0  0  0  0  0  0  0  0
   24.8022  -20.9305  -12.6968 C   0  0  1  0  0  0  0  0  0  0  0  0
   24.6947  -20.0836  -13.9406 C   0  0  0  0  0  0  0  0  0  0  0  0
   23.5987  -20.5578  -14.8321 C   0  0  0  0  0  0  0  0  0  0  0  0
   23.7182  -22.0302  -15.1685 C   0  0  0  0  0  0  0  0  0  0  0  0
   24.0494  -22.2590  -16.6248 C   0  0  0  0  0  0  0  0  0  0  0  0
   22.8586  -21.9000  -17.3881 N   0  0  0  0  0  0  0  0  0  0  0  0
   25.7902  -20.4052  -11.7252 C   0  0  0  0  0  0  0  0  0  0  0  0
   26.8647  -19.8536  -12.0902 O   0  0  0  0  0  0  0  0  0  0  0  0
   25.5152  -20.5298  -10.3424 N   0  0  0  0  0  0  0  0  0  0  0  0
   26.5573  -20.2259   -9.3723 C   0  0  1  0  0  0  0  0  0  0  0  0
   25.9381  -19.8831   -8.0355 C   0  0  0  0  0  0  0  0  0  0  0  0
   26.9589  -19.2527   -7.1842 C   0  0  0  0  0  0  0  0  0  0  0  0
   27.4186  -17.9700   -7.3010 C   0  0  0  0  0  0  0  0  0  0  0  0
   28.3383  -17.7132   -6.3670 N   0  0  0  0  0  0  0  0  0  0  0  0
   28.4855  -18.8286   -5.6329 C   0  0  0  0  0  0  0  0  0  0  0  0
   29.2931  -19.1178   -4.5521 C   0  0  0  0  0  0  0  0  0  0  0  0
   29.2716  -20.3563   -3.9503 C   0  0  0  0  0  0  0  0  0  0  0  0
   28.4277  -21.3260   -4.4363 C   0  0  0  0  0  0  0  0  0  0  0  0
   27.6204  -21.0458   -5.5121 C   0  0  0  0  0  0  0  0  0  0  0  0
   27.6335  -19.8128   -6.1207 C   0  0  0  0  0  0  0  0  0  0  0  0
   27.4722  -21.4025   -9.2967 C   0  0  0  0  0  0  0  0  0  0  0  0
   26.9475  -22.5679   -9.2806 O   0  0  0  0  0  0  0  0  0  0  0  0
   28.8671  -21.2868   -9.2452 N   0  0  0  0  0  0  0  0  0  0  0  0
   29.6734  -20.1129   -9.1699 C   0  0  0  0  0  0  0  0  0  0  0  0
   30.9776  -20.4477   -9.8786 C   0  0  0  0  0  0  0  0  0  0  0  0
   30.8591  -21.9082  -10.2217 C   0  0  0  0  0  0  0  0  0  0  0  0
   29.7997  -22.4041   -9.2680 C   0  0  1  0  0  0  0  0  0  0  0  0
   30.3996  -22.5948   -7.9442 C   0  0  0  0  0  0  0  0  0  0  0  0
   30.1302  -21.7071   -6.8891 O   0  0  0  0  0  0  0  0  0  0  0  0
   31.1734  -23.5375   -7.6695 O   0  0  0  0  0  0  0  0  0  0  0  0
  2  1  1  1
  3  4  1  0
  3  2  1  0
  5  6  1  0
  5  4  1  0
  7  6  1  0
  8  2  1  0
  8  9  2  0
 10  8  1  0
 11 10  1  0
 11 12  1  1
 13 12  1  0
 14 13  2  0
 15 14  1  0
 16 15  1  0
 16 21  2  0
 17 16  1  0
 18 17  2  0
 18 19  1  0
 19 20  2  0
 20 21  1  0
 21 13  1  0
 22 11  1  0
 23 22  2  0
 24 25  1  0
 24 22  1  0
 26 27  1  0
 26 25  1  0
 27 28  1  0
 28 24  1  0
 28 29  1  1
 29 30  1  0
 31 29  2  0
M  END
$$$$
