KWP.pdb
     RDKit          3D

 31 33  0  0  1  0  0  0  0  0999 V2000
   28.4609  -19.8650  -16.8012 N   0  0  0  0  0  0  0  0  0  0  0  0
   28.1106  -19.4116  -15.4919 C   0  0  1  0  0  0  0  0  0  0  0  0
   27.6265  -17.9836  -15.4449 C   0  0  0  0  0  0  0  0  0  0  0  0
   28.2258  -17.1666  -16.5377 C   0  0  0  0  0  0  0  0  0  0  0  0
   29.7311  -17.0466  -16.4159 C   0  0  0  0  0  0  0  0  0  0  0  0
   30.3241  -16.1707  -17.4947 C   0  0  0  0  0  0  0  0  0  0  0  0
   31.7741  -16.2514  -17.3519 N   0  0  0  0  0  0  0  0  0  0  0  0
   27.1570  -20.3644  -14.8764 C   0  0  0  0  0  0  0  0  0  0  0  0
   26.2612  -20.9471  -15.5471 O   0  0  0  0  0  0  0  0  0  0  0  0
   27.2578  -20.6253  -13.4889 N   0  0  0  0  0  0  0  0  0  0  0  0
   26.3056  -21.5266  -12.8562 C   0  0  1  0  0  0  0  0  0  0  0  0
   26.8745  -22.0550  -11.5581 C   0  0  0  0  0  0  0  0  0  0  0  0
   26.5922  -21.0892  -10.4850 C   0  0  0  0  0  0  0  0  0  0  0  0
   25.4359  -20.3747  -10.3341 C   0  0  0  0  0  0  0  0  0  0  0  0
   25.5035  -19.5935   -9.2527 N   0  0  0  0  0  0  0  0  0  0  0  0
   26.7067  -19.7930   -8.6895 C   0  0  0  0  0  0  0  0  0  0  0  0
   27.2968  -19.2514   -7.5659 C   0  0  0  0  0  0  0  0  0  0  0  0
   28.5660  -19.6156   -7.1749 C   0  0  0  0  0  0  0  0  0  0  0  0
   29.2608  -20.5383   -7.9195 C   0  0  0  0  0  0  0  0  0  0  0  0
   28.6801  -21.0821   -9.0396 C   0  0  0  0  0  0  0  0  0  0  0  0
   27.4135  -20.7261   -9.4393 C   0  0  0  0  0  0  0  0  0  0  0  0
   25.0270  -20.7819  -12.6620 C   0  0  0  0  0  0  0  0  0  0  0  0
   25.0896  -19.6053  -12.1664 O   0  0  0  0  0  0  0  0  0  0  0  0
   23.7738  -21.3098  -12.9975 N   0  0  0  0  0  0  0  0  0  0  0  0
   23.4143  -22.6548  -13.3065 C   0  0  0  0  0  0  0  0  0  0  0  0
   22.2469  -22.5693  -14.2788 C   0  0  0  0  0  0  0  0  0  0  0  0
   21.9322  -21.1003  -14.3658 C   0  0  0  0  0  0  0  0  0  0  0  0
   22.5439  -20.5388  -13.1055 C   0  0  1  0  0  0  0  0  0  0  0  0
   21.6588  -20.8295  -11.9739 C   0  0  0  0  0  0  0  0  0  0  0  0
   20.5982  -19.9704  -11.6408 O   0  0  0  0  0  0  0  0  0  0  0  0
   21.7836  -21.8374  -11.2448 O   0  0  0  0  0  0  0  0  0  0  0  0
  2  1  1  6
  3  4  1  0
  3  2  1  0
  5  6  1  0
  5  4  1  0
  7  6  1  0
  8  2  1  0
  8  9  2  0
 10  8  1  0
 11 10  1  0
 11 12  1  1
 13 12  1  0
 14 13  2  0
 15 14  1  0
 16 15  1  0
 16 21  2  0
 17 16  1  0
 18 17  2  0
 18 19  1  0
 19 20  2  0
 20 21  1  0
 21 13  1  0
 22 11  1  0
 23 22  2  0
 24 25  1  0
 24 22  1  0
 26 27  1  0
 26 25  1  0
 27 28  1  0
 28 24  1  0
 28 29  1  1
 29 30  1  0
 31 29  2  0
M  END
$$$$
