KWP.pdb
     RDKit          3D

 31 33  0  0  1  0  0  0  0  0999 V2000
   29.4488  -22.4080  -17.4239 N   0  0  0  0  0  0  0  0  0  0  0  0
   28.3594  -21.4857  -17.3518 C   0  0  1  0  0  0  0  0  0  0  0  0
   27.4439  -21.5209  -18.5502 C   0  0  0  0  0  0  0  0  0  0  0  0
   28.1682  -21.1633  -19.8026 C   0  0  0  0  0  0  0  0  0  0  0  0
   28.4619  -19.6803  -19.9016 C   0  0  0  0  0  0  0  0  0  0  0  0
   29.1130  -19.3127  -21.2145 C   0  0  0  0  0  0  0  0  0  0  0  0
   28.0953  -19.4728  -22.2478 N   0  0  0  0  0  0  0  0  0  0  0  0
   27.6387  -21.6695  -16.0700 C   0  0  0  0  0  0  0  0  0  0  0  0
   26.7960  -22.5928  -15.8987 O   0  0  0  0  0  0  0  0  0  0  0  0
   27.9076  -20.7762  -15.0056 N   0  0  0  0  0  0  0  0  0  0  0  0
   27.1617  -20.8961  -13.7611 C   0  0  1  0  0  0  0  0  0  0  0  0
   27.8542  -20.1188  -12.6639 C   0  0  0  0  0  0  0  0  0  0  0  0
   27.0730  -20.2445  -11.4237 C   0  0  0  0  0  0  0  0  0  0  0  0
   25.7232  -20.0592  -11.3050 C   0  0  0  0  0  0  0  0  0  0  0  0
   25.3306  -20.2565  -10.0435 N   0  0  0  0  0  0  0  0  0  0  0  0
   26.4235  -20.5723   -9.3290 C   0  0  0  0  0  0  0  0  0  0  0  0
   26.5932  -20.8724   -7.9929 C   0  0  0  0  0  0  0  0  0  0  0  0
   27.8341  -21.1711   -7.4757 C   0  0  0  0  0  0  0  0  0  0  0  0
   28.9278  -21.1704   -8.3078 C   0  0  0  0  0  0  0  0  0  0  0  0
   28.7671  -20.8727   -9.6394 C   0  0  0  0  0  0  0  0  0  0  0  0
   27.5330  -20.5731  -10.1667 C   0  0  0  0  0  0  0  0  0  0  0  0
   25.7697  -20.4199  -14.0118 C   0  0  0  0  0  0  0  0  0  0  0  0
   25.6162  -19.2384  -14.4751 O   0  0  0  0  0  0  0  0  0  0  0  0
   24.6354  -21.2037  -13.7660 N   0  0  0  0  0  0  0  0  0  0  0  0
   24.5400  -22.4835  -13.1440 C   0  0  0  0  0  0  0  0  0  0  0  0
   23.3434  -23.1761  -13.7795 C   0  0  0  0  0  0  0  0  0  0  0  0
   22.7389  -22.1359  -14.6836 C   0  0  0  0  0  0  0  0  0  0  0  0
   23.2732  -20.8389  -14.1268 C   0  0  1  0  0  0  0  0  0  0  0  0
   22.5070  -20.4809  -12.9296 C   0  0  0  0  0  0  0  0  0  0  0  0
   23.0148  -20.7222  -11.6421 O   0  0  0  0  0  0  0  0  0  0  0  0
   21.3763  -19.9490  -12.9707 O   0  0  0  0  0  0  0  0  0  0  0  0
  2  1  1  6
  3  4  1  0
  3  2  1  0
  5  6  1  0
  5  4  1  0
  7  6  1  0
  8  2  1  0
  8  9  2  0
 10  8  1  0
 11 10  1  0
 11 12  1  1
 13 12  1  0
 14 13  2  0
 15 14  1  0
 16 15  1  0
 16 21  2  0
 17 16  1  0
 18 17  2  0
 18 19  1  0
 19 20  2  0
 20 21  1  0
 21 13  1  0
 22 11  1  0
 23 22  2  0
 24 25  1  0
 24 22  1  0
 26 27  1  0
 26 25  1  0
 27 28  1  0
 28 24  1  0
 28 29  1  1
 29 30  1  0
 31 29  2  0
M  END
$$$$
