KWP.pdb
     RDKit          3D

 31 33  0  0  1  0  0  0  0  0999 V2000
   23.2547  -15.6001  -19.1489 N   0  0  0  0  0  0  0  0  0  0  0  0
   23.0406  -16.9711  -18.8066 C   0  0  1  0  0  0  0  0  0  0  0  0
   22.5585  -17.8232  -19.9543 C   0  0  0  0  0  0  0  0  0  0  0  0
   21.1033  -18.1232  -19.8393 C   0  0  0  0  0  0  0  0  0  0  0  0
   20.6758  -18.3917  -18.4109 C   0  0  0  0  0  0  0  0  0  0  0  0
   19.2124  -18.7542  -18.3105 C   0  0  0  0  0  0  0  0  0  0  0  0
   18.9309  -18.9782  -16.8963 N   0  0  0  0  0  0  0  0  0  0  0  0
   24.2558  -17.5146  -18.1555 C   0  0  0  0  0  0  0  0  0  0  0  0
   25.3394  -17.6755  -18.7815 O   0  0  0  0  0  0  0  0  0  0  0  0
   24.1935  -17.8644  -16.7855 N   0  0  0  0  0  0  0  0  0  0  0  0
   25.3731  -18.4085  -16.1284 C   0  0  1  0  0  0  0  0  0  0  0  0
   25.5210  -17.8095  -14.7474 C   0  0  0  0  0  0  0  0  0  0  0  0
   26.5725  -18.5381  -14.0210 C   0  0  0  0  0  0  0  0  0  0  0  0
   27.9190  -18.4188  -14.2283 C   0  0  0  0  0  0  0  0  0  0  0  0
   28.5953  -19.2154  -13.3963 N   0  0  0  0  0  0  0  0  0  0  0  0
   27.6931  -19.8614  -12.6390 C   0  0  0  0  0  0  0  0  0  0  0  0
   27.8373  -20.7917  -11.6302 C   0  0  0  0  0  0  0  0  0  0  0  0
   26.7447  -21.3258  -10.9840 C   0  0  0  0  0  0  0  0  0  0  0  0
   25.4829  -20.9240  -11.3514 C   0  0  0  0  0  0  0  0  0  0  0  0
   25.3310  -19.9980  -12.3549 C   0  0  0  0  0  0  0  0  0  0  0  0
   26.4146  -19.4581  -13.0069 C   0  0  0  0  0  0  0  0  0  0  0  0
   25.2383  -19.8945  -16.0985 C   0  0  0  0  0  0  0  0  0  0  0  0
   24.0842  -20.3854  -15.8515 O   0  0  0  0  0  0  0  0  0  0  0  0
   26.3100  -20.7663  -16.3289 N   0  0  0  0  0  0  0  0  0  0  0  0
   27.7016  -20.4757  -16.4427 C   0  0  0  0  0  0  0  0  0  0  0  0
   28.2769  -21.5188  -17.3895 C   0  0  0  0  0  0  0  0  0  0  0  0
   27.1296  -22.4517  -17.6689 C   0  0  0  0  0  0  0  0  0  0  0  0
   26.1921  -22.2055  -16.5120 C   0  0  1  0  0  0  0  0  0  0  0  0
   26.6947  -22.9127  -15.3306 C   0  0  0  0  0  0  0  0  0  0  0  0
   27.2274  -22.2121  -14.2356 O   0  0  0  0  0  0  0  0  0  0  0  0
   26.6842  -24.1579  -15.2186 O   0  0  0  0  0  0  0  0  0  0  0  0
  2  1  1  6
  3  4  1  0
  3  2  1  0
  5  6  1  0
  5  4  1  0
  7  6  1  0
  8  2  1  0
  8  9  2  0
 10  8  1  0
 11 10  1  0
 11 12  1  1
 13 12  1  0
 14 13  2  0
 15 14  1  0
 16 15  1  0
 16 21  2  0
 17 16  1  0
 18 17  2  0
 18 19  1  0
 19 20  2  0
 20 21  1  0
 21 13  1  0
 22 11  1  0
 23 22  2  0
 24 25  1  0
 24 22  1  0
 26 27  1  0
 26 25  1  0
 27 28  1  0
 28 24  1  0
 28 29  1  1
 29 30  1  0
 31 29  2  0
M  END
$$$$
