KWP.pdb
     RDKit          3D

 31 33  0  0  1  0  0  0  0  0999 V2000
   29.9729  -21.1501  -18.2639 N   0  0  0  0  0  0  0  0  0  0  0  0
   28.6457  -21.6803  -18.2677 C   0  0  1  0  0  0  0  0  0  0  0  0
   28.4918  -22.9465  -19.0731 C   0  0  0  0  0  0  0  0  0  0  0  0
   29.5341  -23.0507  -20.1331 C   0  0  0  0  0  0  0  0  0  0  0  0
   30.7713  -23.7875  -19.6621 C   0  0  0  0  0  0  0  0  0  0  0  0
   31.7487  -24.0407  -20.7861 C   0  0  0  0  0  0  0  0  0  0  0  0
   32.9081  -24.7002  -20.1944 N   0  0  0  0  0  0  0  0  0  0  0  0
   28.1648  -21.8218  -16.8731 C   0  0  0  0  0  0  0  0  0  0  0  0
   28.1300  -22.9369  -16.2837 O   0  0  0  0  0  0  0  0  0  0  0  0
   27.7303  -20.6646  -16.1838 N   0  0  0  0  0  0  0  0  0  0  0  0
   27.1653  -20.7934  -14.8483 C   0  0  1  0  0  0  0  0  0  0  0  0
   27.6897  -19.6917  -13.9543 C   0  0  0  0  0  0  0  0  0  0  0  0
   27.2702  -19.9599  -12.5701 C   0  0  0  0  0  0  0  0  0  0  0  0
   26.0415  -19.6828  -12.0374 C   0  0  0  0  0  0  0  0  0  0  0  0
   25.9887  -20.0581  -10.7565 N   0  0  0  0  0  0  0  0  0  0  0  0
   27.1849  -20.5836  -10.4438 C   0  0  0  0  0  0  0  0  0  0  0  0
   27.6747  -21.1206   -9.2709 C   0  0  0  0  0  0  0  0  0  0  0  0
   28.9598  -21.6082   -9.1858 C   0  0  0  0  0  0  0  0  0  0  0  0
   29.7728  -21.5592  -10.2927 C   0  0  0  0  0  0  0  0  0  0  0  0
   29.2925  -21.0260  -11.4643 C   0  0  0  0  0  0  0  0  0  0  0  0
   28.0111  -20.5363  -11.5608 C   0  0  0  0  0  0  0  0  0  0  0  0
   25.6784  -20.7721  -14.9742 C   0  0  0  0  0  0  0  0  0  0  0  0
   25.1603  -19.9500  -15.8046 O   0  0  0  0  0  0  0  0  0  0  0  0
   24.8341  -21.6067  -14.2310 N   0  0  0  0  0  0  0  0  0  0  0  0
   25.1650  -22.5532  -13.2168 C   0  0  0  0  0  0  0  0  0  0  0  0
   24.1102  -23.6470  -13.2968 C   0  0  0  0  0  0  0  0  0  0  0  0
   23.1324  -23.1566  -14.3303 C   0  0  0  0  0  0  0  0  0  0  0  0
   23.3866  -21.6694  -14.3709 C   0  0  1  0  0  0  0  0  0  0  0  0
   22.7352  -21.0414  -13.2178 C   0  0  0  0  0  0  0  0  0  0  0  0
   21.3425  -20.8609  -13.1785 O   0  0  0  0  0  0  0  0  0  0  0  0
   23.3588  -20.6331  -12.2141 O   0  0  0  0  0  0  0  0  0  0  0  0
  2  1  1  1
  3  4  1  0
  3  2  1  0
  5  6  1  0
  5  4  1  0
  7  6  1  0
  8  2  1  0
  8  9  2  0
 10  8  1  0
 11 10  1  0
 11 12  1  1
 13 12  1  0
 14 13  2  0
 15 14  1  0
 16 15  1  0
 16 21  2  0
 17 16  1  0
 18 17  2  0
 18 19  1  0
 19 20  2  0
 20 21  1  0
 21 13  1  0
 22 11  1  0
 23 22  2  0
 24 25  1  0
 24 22  1  0
 26 27  1  0
 26 25  1  0
 27 28  1  0
 28 24  1  0
 28 29  1  1
 29 30  1  0
 31 29  2  0
M  END
$$$$
