DFV.pdb
     RDKit          3D

 27 27  0  0  1  0  0  0  0  0999 V2000
   27.4045  -23.0230  -17.0223 N   0  0  0  0  0  0  0  0  0  0  0  0
   27.3376  -21.7802  -16.3185 C   0  0  1  0  0  0  0  0  0  0  0  0
   26.7451  -20.6679  -17.1536 C   0  0  0  0  0  0  0  0  0  0  0  0
   27.6307  -20.2732  -18.2628 C   0  0  0  0  0  0  0  0  0  0  0  0
   28.7668  -19.8272  -18.0203 O   0  0  0  0  0  0  0  0  0  0  0  0
   26.5902  -21.9751  -15.0511 C   0  0  0  0  0  0  0  0  0  0  0  0
   25.4786  -22.5477  -15.0159 O   0  0  0  0  0  0  0  0  0  0  0  0
   27.2049  -20.3966  -19.5642 O   0  0  0  0  0  0  0  0  0  0  0  0
   27.1574  -21.4967  -13.8498 N   0  0  0  0  0  0  0  0  0  0  0  0
   26.4372  -21.3203  -12.6237 C   0  0  1  0  0  0  0  0  0  0  0  0
   27.3902  -20.8232  -11.5621 C   0  0  0  0  0  0  0  0  0  0  0  0
   26.5658  -20.6537  -10.3129 C   0  0  0  0  0  0  0  0  0  0  0  0
   25.2279  -20.9765  -10.3374 C   0  0  0  0  0  0  0  0  0  0  0  0
   24.4440  -20.8287   -9.1955 C   0  0  0  0  0  0  0  0  0  0  0  0
   24.9847  -20.3583   -8.0186 C   0  0  0  0  0  0  0  0  0  0  0  0
   26.3345  -20.0347   -8.0012 C   0  0  0  0  0  0  0  0  0  0  0  0
   27.1051  -20.1847   -9.1398 C   0  0  0  0  0  0  0  0  0  0  0  0
   25.2262  -20.5095  -12.7543 C   0  0  0  0  0  0  0  0  0  0  0  0
   25.3495  -19.2632  -12.8654 O   0  0  0  0  0  0  0  0  0  0  0  0
   23.1323  -19.9166  -15.3997 C   0  0  0  0  0  0  0  0  0  0  0  0
   22.1897  -20.4497  -14.3403 C   0  0  2  0  0  0  0  0  0  0  0  0
   20.9069  -19.6524  -14.4427 C   0  0  0  0  0  0  0  0  0  0  0  0
   22.7655  -20.2931  -12.9498 C   0  0  2  0  0  0  0  0  0  0  0  0
   23.9438  -21.0941  -12.7576 N   0  0  0  0  0  0  0  0  0  0  0  0
   21.7397  -20.7026  -11.9727 C   0  0  0  0  0  0  0  0  0  0  0  0
   20.8671  -19.8755  -11.6183 O   0  0  0  0  0  0  0  0  0  0  0  0
   21.6932  -21.9732  -11.4207 O   0  0  0  0  0  0  0  0  0  0  0  0
  2  1  1  6
  2  3  1  0
  4  3  1  0
  4  8  1  0
  5  4  2  0
  6  2  1  0
  7  6  2  0
  9  6  1  0
 10  9  1  0
 10 11  1  1
 12 11  1  0
 12 13  2  0
 14 13  1  0
 15 14  2  0
 16 17  2  0
 16 15  1  0
 17 12  1  0
 18 10  1  0
 18 24  1  0
 19 18  2  0
 21 20  1  6
 21 23  1  0
 22 21  1  0
 23 24  1  6
 23 25  1  0
 25 27  1  0
 26 25  2  0
M  END
$$$$
