DFV.pdb
     RDKit          3D

 27 27  0  0  1  0  0  0  0  0999 V2000
   24.0777  -33.0107  -13.8223 N   0  0  0  0  0  0  0  0  0  0  0  0
   22.7778  -32.8434  -14.3937 C   0  0  1  0  0  0  0  0  0  0  0  0
   22.0638  -34.1576  -14.6145 C   0  0  0  0  0  0  0  0  0  0  0  0
   20.7833  -33.9828  -15.3216 C   0  0  0  0  0  0  0  0  0  0  0  0
   20.0047  -34.9460  -15.4411 O   0  0  0  0  0  0  0  0  0  0  0  0
   21.9842  -31.9216  -13.5431 C   0  0  0  0  0  0  0  0  0  0  0  0
   21.4710  -32.2893  -12.4632 O   0  0  0  0  0  0  0  0  0  0  0  0
   20.4472  -32.7585  -15.8492 O   0  0  0  0  0  0  0  0  0  0  0  0
   21.8063  -30.5882  -13.9720 N   0  0  0  0  0  0  0  0  0  0  0  0
   21.0648  -29.5945  -13.2536 C   0  0  1  0  0  0  0  0  0  0  0  0
   21.8241  -28.2893  -13.2969 C   0  0  0  0  0  0  0  0  0  0  0  0
   21.0029  -27.3066  -12.5039 C   0  0  0  0  0  0  0  0  0  0  0  0
   20.3191  -26.3104  -13.1633 C   0  0  0  0  0  0  0  0  0  0  0  0
   19.5527  -25.3893  -12.4528 C   0  0  0  0  0  0  0  0  0  0  0  0
   19.4600  -25.4515  -11.0795 C   0  0  0  0  0  0  0  0  0  0  0  0
   20.1521  -26.4587  -10.4211 C   0  0  0  0  0  0  0  0  0  0  0  0
   20.9106  -27.3688  -11.1348 C   0  0  0  0  0  0  0  0  0  0  0  0
   19.6669  -29.4768  -13.6691 C   0  0  0  0  0  0  0  0  0  0  0  0
   19.4189  -29.2756  -14.8853 O   0  0  0  0  0  0  0  0  0  0  0  0
   16.5495  -30.8553  -11.2015 C   0  0  0  0  0  0  0  0  0  0  0  0
   16.3903  -30.6158  -12.6889 C   0  0  2  0  0  0  0  0  0  0  0  0
   16.8304  -31.8811  -13.3940 C   0  0  0  0  0  0  0  0  0  0  0  0
   17.2412  -29.4580  -13.1630 C   0  0  2  0  0  0  0  0  0  0  0  0
   18.6103  -29.5835  -12.7425 N   0  0  0  0  0  0  0  0  0  0  0  0
   16.6798  -28.2113  -12.6106 C   0  0  0  0  0  0  0  0  0  0  0  0
   17.0607  -27.8149  -11.4840 O   0  0  0  0  0  0  0  0  0  0  0  0
   15.7401  -27.4474  -13.2849 O   0  0  0  0  0  0  0  0  0  0  0  0
  2  1  1  1
  2  3  1  0
  4  3  1  0
  4  8  1  0
  5  4  2  0
  6  2  1  0
  7  6  2  0
  9  6  1  0
 10  9  1  0
 10 11  1  6
 12 11  1  0
 12 13  2  0
 14 13  1  0
 15 14  2  0
 16 17  2  0
 16 15  1  0
 17 12  1  0
 18 10  1  0
 18 24  1  0
 19 18  2  0
 21 20  1  1
 21 23  1  0
 22 21  1  0
 23 24  1  1
 23 25  1  0
 25 27  1  0
 26 25  2  0
M  END
$$$$
