DFV.pdb
     RDKit          3D

 27 27  0  0  1  0  0  0  0  0999 V2000
   23.8158  -20.6688  -20.8374 N   0  0  0  0  0  0  0  0  0  0  0  0
   22.6569  -19.8316  -20.8572 C   0  0  1  0  0  0  0  0  0  0  0  0
   21.9154  -19.8927  -22.1734 C   0  0  0  0  0  0  0  0  0  0  0  0
   22.7928  -19.5999  -23.3200 C   0  0  0  0  0  0  0  0  0  0  0  0
   22.7728  -20.3395  -24.3205 O   0  0  0  0  0  0  0  0  0  0  0  0
   21.7788  -20.1840  -19.7136 C   0  0  0  0  0  0  0  0  0  0  0  0
   21.8058  -21.3141  -19.1781 O   0  0  0  0  0  0  0  0  0  0  0  0
   23.6330  -18.5122  -23.2868 O   0  0  0  0  0  0  0  0  0  0  0  0
   20.8866  -19.2080  -19.2188 N   0  0  0  0  0  0  0  0  0  0  0  0
   20.0825  -19.3623  -18.0429 C   0  0  1  0  0  0  0  0  0  0  0  0
   20.4314  -18.2669  -17.0628 C   0  0  0  0  0  0  0  0  0  0  0  0
   20.1897  -16.9697  -17.7892 C   0  0  0  0  0  0  0  0  0  0  0  0
   18.9325  -16.4095  -17.7713 C   0  0  0  0  0  0  0  0  0  0  0  0
   18.6833  -15.2105  -18.4352 C   0  0  0  0  0  0  0  0  0  0  0  0
   19.6833  -14.5582  -19.1231 C   0  0  0  0  0  0  0  0  0  0  0  0
   20.9486  -15.1289  -19.1369 C   0  0  0  0  0  0  0  0  0  0  0  0
   21.1868  -16.3196  -18.4748 C   0  0  0  0  0  0  0  0  0  0  0  0
   18.6488  -19.4777  -18.3112 C   0  0  0  0  0  0  0  0  0  0  0  0
   18.1770  -18.8790  -19.3111 O   0  0  0  0  0  0  0  0  0  0  0  0
   16.3343  -22.6826  -16.9158 C   0  0  0  0  0  0  0  0  0  0  0  0
   15.9390  -21.7308  -18.0261 C   0  0  2  0  0  0  0  0  0  0  0  0
   16.6104  -22.2188  -19.2921 C   0  0  0  0  0  0  0  0  0  0  0  0
   16.3889  -20.3156  -17.7358 C   0  0  2  0  0  0  0  0  0  0  0  0
   17.8014  -20.2375  -17.4798 N   0  0  0  0  0  0  0  0  0  0  0  0
   15.6569  -19.8284  -16.5519 C   0  0  0  0  0  0  0  0  0  0  0  0
   16.2726  -19.6789  -15.4704 O   0  0  0  0  0  0  0  0  0  0  0  0
   14.3049  -19.5242  -16.5777 O   0  0  0  0  0  0  0  0  0  0  0  0
  2  1  1  6
  2  3  1  0
  4  3  1  0
  4  8  1  0
  5  4  2  0
  6  2  1  0
  7  6  2  0
  9  6  1  0
 10  9  1  0
 10 11  1  1
 12 11  1  0
 12 13  2  0
 14 13  1  0
 15 14  2  0
 16 17  2  0
 16 15  1  0
 17 12  1  0
 18 10  1  0
 18 24  1  0
 19 18  2  0
 21 20  1  1
 21 23  1  0
 22 21  1  0
 23 24  1  1
 23 25  1  0
 25 27  1  0
 26 25  2  0
M  END
$$$$
