DFV.pdb
     RDKit          3D

 27 27  0  0  1  0  0  0  0  0999 V2000
   25.1217  -21.9120  -14.3769 N   0  0  0  0  0  0  0  0  0  0  0  0
   24.5829  -20.9135  -13.5069 C   0  0  1  0  0  0  0  0  0  0  0  0
   23.0844  -20.7667  -13.6444 C   0  0  0  0  0  0  0  0  0  0  0  0
   22.6917  -20.3079  -14.9881 C   0  0  0  0  0  0  0  0  0  0  0  0
   21.8501  -20.9510  -15.6413 O   0  0  0  0  0  0  0  0  0  0  0  0
   24.9806  -21.2157  -12.1092 C   0  0  0  0  0  0  0  0  0  0  0  0
   24.7798  -22.3349  -11.5879 O   0  0  0  0  0  0  0  0  0  0  0  0
   23.2526  -19.1716  -15.5214 O   0  0  0  0  0  0  0  0  0  0  0  0
   25.6053  -20.2032  -11.3487 N   0  0  0  0  0  0  0  0  0  0  0  0
   26.0077  -20.3444   -9.9807 C   0  0  1  0  0  0  0  0  0  0  0  0
   27.0782  -19.3229   -9.6764 C   0  0  0  0  0  0  0  0  0  0  0  0
   27.5329  -19.6071   -8.2688 C   0  0  0  0  0  0  0  0  0  0  0  0
   27.1569  -18.7577   -7.2530 C   0  0  0  0  0  0  0  0  0  0  0  0
   27.5643  -18.9986   -5.9428 C   0  0  0  0  0  0  0  0  0  0  0  0
   28.3496  -20.0872   -5.6319 C   0  0  0  0  0  0  0  0  0  0  0  0
   28.7250  -20.9395   -6.6612 C   0  0  0  0  0  0  0  0  0  0  0  0
   28.3158  -20.6925   -7.9590 C   0  0  0  0  0  0  0  0  0  0  0  0
   24.8973  -20.3355   -9.0281 C   0  0  0  0  0  0  0  0  0  0  0  0
   24.0193  -19.4424   -9.1407 O   0  0  0  0  0  0  0  0  0  0  0  0
   22.1747  -22.5111   -8.6577 C   0  0  0  0  0  0  0  0  0  0  0  0
   22.7836  -22.4827   -7.2708 C   0  0  2  0  0  0  0  0  0  0  0  0
   21.6394  -22.4009   -6.2830 C   0  0  0  0  0  0  0  0  0  0  0  0
   23.6917  -21.2870   -7.0835 C   0  0  2  0  0  0  0  0  0  0  0  0
   24.7975  -21.2968   -8.0023 N   0  0  0  0  0  0  0  0  0  0  0  0
   24.2115  -21.3094   -5.7036 C   0  0  0  0  0  0  0  0  0  0  0  0
   25.3475  -21.7920   -5.4852 O   0  0  0  0  0  0  0  0  0  0  0  0
   23.4960  -20.8165   -4.6236 O   0  0  0  0  0  0  0  0  0  0  0  0
  2  1  1  6
  2  3  1  0
  4  3  1  0
  4  8  1  0
  5  4  2  0
  6  2  1  0
  7  6  2  0
  9  6  1  0
 10  9  1  0
 10 11  1  1
 12 11  1  0
 12 13  2  0
 14 13  1  0
 15 14  2  0
 16 17  2  0
 16 15  1  0
 17 12  1  0
 18 10  1  0
 18 24  1  0
 19 18  2  0
 21 20  1  6
 21 23  1  0
 22 21  1  0
 23 24  1  6
 23 25  1  0
 25 27  1  0
 26 25  2  0
M  END
$$$$
