DFV.pdb
     RDKit          3D

 27 27  0  0  1  0  0  0  0  0999 V2000
   26.3225  -21.7428  -13.0389 N   0  0  0  0  0  0  0  0  0  0  0  0
   25.5762  -20.8269  -12.2337 C   0  0  1  0  0  0  0  0  0  0  0  0
   24.0929  -20.8702  -12.5232 C   0  0  0  0  0  0  0  0  0  0  0  0
   23.7638  -20.2746  -13.8298 C   0  0  0  0  0  0  0  0  0  0  0  0
   23.1229  -20.9342  -14.6680 O   0  0  0  0  0  0  0  0  0  0  0  0
   25.8654  -21.0863  -10.8013 C   0  0  0  0  0  0  0  0  0  0  0  0
   25.5329  -22.1527  -10.2382 O   0  0  0  0  0  0  0  0  0  0  0  0
   24.1629  -18.9925  -14.1247 O   0  0  0  0  0  0  0  0  0  0  0  0
   26.5378  -20.0938  -10.0554 N   0  0  0  0  0  0  0  0  0  0  0  0
   26.8740  -20.2074   -8.6671 C   0  0  1  0  0  0  0  0  0  0  0  0
   27.9294  -19.1796   -8.3323 C   0  0  0  0  0  0  0  0  0  0  0  0
   28.3299  -19.4479   -6.9052 C   0  0  0  0  0  0  0  0  0  0  0  0
   29.1660  -20.5051   -6.6256 C   0  0  0  0  0  0  0  0  0  0  0  0
   29.5511  -20.7742   -5.3142 C   0  0  0  0  0  0  0  0  0  0  0  0
   29.1074  -19.9934   -4.2692 C   0  0  0  0  0  0  0  0  0  0  0  0
   28.2646  -18.9291   -4.5585 C   0  0  0  0  0  0  0  0  0  0  0  0
   27.8875  -18.6694   -5.8635 C   0  0  0  0  0  0  0  0  0  0  0  0
   25.7191  -20.1797   -7.7692 C   0  0  0  0  0  0  0  0  0  0  0  0
   24.8765  -19.2566   -7.9063 O   0  0  0  0  0  0  0  0  0  0  0  0
   23.0172  -22.6112   -7.3626 C   0  0  0  0  0  0  0  0  0  0  0  0
   23.5793  -22.3906   -5.9733 C   0  0  2  0  0  0  0  0  0  0  0  0
   22.4021  -22.2858   -5.0273 C   0  0  0  0  0  0  0  0  0  0  0  0
   24.3968  -21.1197   -5.8962 C   0  0  2  0  0  0  0  0  0  0  0  0
   25.5388  -21.1559   -6.7688 N   0  0  0  0  0  0  0  0  0  0  0  0
   24.8576  -20.9465   -4.5062 C   0  0  0  0  0  0  0  0  0  0  0  0
   24.0417  -20.5667   -3.6336 O   0  0  0  0  0  0  0  0  0  0  0  0
   26.1650  -21.1863   -4.1131 O   0  0  0  0  0  0  0  0  0  0  0  0
  2  1  1  6
  2  3  1  0
  4  3  1  0
  4  8  1  0
  5  4  2  0
  6  2  1  0
  7  6  2  0
  9  6  1  0
 10  9  1  0
 10 11  1  1
 12 11  1  0
 12 13  2  0
 14 13  1  0
 15 14  2  0
 16 17  2  0
 16 15  1  0
 17 12  1  0
 18 10  1  0
 18 24  1  0
 19 18  2  0
 21 20  1  6
 21 23  1  0
 22 21  1  0
 23 24  1  6
 23 25  1  0
 25 27  1  0
 26 25  2  0
M  END
$$$$
