DFV.pdb
     RDKit          3D

 27 27  0  0  1  0  0  0  0  0999 V2000
   26.3519  -22.0960  -12.9554 N   0  0  0  0  0  0  0  0  0  0  0  0
   25.8747  -20.9611  -12.2283 C   0  0  1  0  0  0  0  0  0  0  0  0
   24.4494  -20.5998  -12.5802 C   0  0  0  0  0  0  0  0  0  0  0  0
   24.3661  -19.8104  -13.8213 C   0  0  0  0  0  0  0  0  0  0  0  0
   24.9740  -20.1892  -14.8387 O   0  0  0  0  0  0  0  0  0  0  0  0
   26.0372  -21.2079  -10.7738 C   0  0  0  0  0  0  0  0  0  0  0  0
   25.4778  -22.1655  -10.1953 O   0  0  0  0  0  0  0  0  0  0  0  0
   23.6185  -18.6571  -13.8575 O   0  0  0  0  0  0  0  0  0  0  0  0
   26.8505  -20.3300  -10.0245 N   0  0  0  0  0  0  0  0  0  0  0  0
   27.0634  -20.4255   -8.6106 C   0  0  1  0  0  0  0  0  0  0  0  0
   28.2424  -19.5599   -8.2326 C   0  0  0  0  0  0  0  0  0  0  0  0
   28.4031  -19.7080   -6.7422 C   0  0  0  0  0  0  0  0  0  0  0  0
   27.9952  -18.6869   -5.9141 C   0  0  0  0  0  0  0  0  0  0  0  0
   28.1329  -18.7994   -4.5325 C   0  0  0  0  0  0  0  0  0  0  0  0
   28.6781  -19.9293   -3.9626 C   0  0  0  0  0  0  0  0  0  0  0  0
   29.0873  -20.9549   -4.8038 C   0  0  0  0  0  0  0  0  0  0  0  0
   28.9466  -20.8345   -6.1743 C   0  0  0  0  0  0  0  0  0  0  0  0
   25.8661  -20.1728   -7.8085 C   0  0  0  0  0  0  0  0  0  0  0  0
   25.1716  -19.1585   -8.0729 O   0  0  0  0  0  0  0  0  0  0  0  0
   21.8972  -21.6023   -5.6890 C   0  0  0  0  0  0  0  0  0  0  0  0
   23.1969  -21.8428   -6.4292 C   0  0  2  0  0  0  0  0  0  0  0  0
   23.6732  -23.2302   -6.0548 C   0  0  0  0  0  0  0  0  0  0  0  0
   24.2545  -20.8311   -6.0451 C   0  0  2  0  0  0  0  0  0  0  0  0
   25.4847  -21.0347   -6.7606 N   0  0  0  0  0  0  0  0  0  0  0  0
   24.5123  -20.9541   -4.5984 C   0  0  0  0  0  0  0  0  0  0  0  0
   25.5788  -21.4859   -4.2097 O   0  0  0  0  0  0  0  0  0  0  0  0
   23.6217  -20.5047   -3.6360 O   0  0  0  0  0  0  0  0  0  0  0  0
  2  1  1  6
  2  3  1  0
  4  3  1  0
  4  8  1  0
  5  4  2  0
  6  2  1  0
  7  6  2  0
  9  6  1  0
 10  9  1  0
 10 11  1  1
 12 11  1  0
 12 13  2  0
 14 13  1  0
 15 14  2  0
 16 17  2  0
 16 15  1  0
 17 12  1  0
 18 10  1  0
 18 24  1  0
 19 18  2  0
 21 20  1  1
 21 23  1  0
 22 21  1  0
 23 24  1  6
 23 25  1  0
 25 27  1  0
 26 25  2  0
M  END
$$$$
