DFV.pdb
     RDKit          3D

 27 27  0  0  1  0  0  0  0  0999 V2000
   19.0884  -11.6457  -15.8016 N   0  0  0  0  0  0  0  0  0  0  0  0
   18.3252  -10.5684  -16.3504 C   0  0  1  0  0  0  0  0  0  0  0  0
   16.8546  -10.8976  -16.4719 C   0  0  0  0  0  0  0  0  0  0  0  0
   16.6110  -12.0246  -17.3889 C   0  0  0  0  0  0  0  0  0  0  0  0
   17.1316  -12.0278  -18.5190 O   0  0  0  0  0  0  0  0  0  0  0  0
   18.5507   -9.3458  -15.5395 C   0  0  0  0  0  0  0  0  0  0  0  0
   18.1341   -9.2410  -14.3647 O   0  0  0  0  0  0  0  0  0  0  0  0
   15.8103  -13.0719  -16.9987 O   0  0  0  0  0  0  0  0  0  0  0  0
   19.2587   -8.2701  -16.1184 N   0  0  0  0  0  0  0  0  0  0  0  0
   19.5777   -7.0480  -15.4415 C   0  0  1  0  0  0  0  0  0  0  0  0
   21.0785   -6.8770  -15.4192 C   0  0  0  0  0  0  0  0  0  0  0  0
   21.5927   -7.8682  -14.4082 C   0  0  0  0  0  0  0  0  0  0  0  0
   22.2592   -8.9916  -14.8422 C   0  0  0  0  0  0  0  0  0  0  0  0
   22.7445   -9.9233  -13.9274 C   0  0  0  0  0  0  0  0  0  0  0  0
   22.5706   -9.7452  -12.5721 C   0  0  0  0  0  0  0  0  0  0  0  0
   21.8975   -8.6101  -12.1417 C   0  0  0  0  0  0  0  0  0  0  0  0
   21.4193   -7.6904  -13.0572 C   0  0  0  0  0  0  0  0  0  0  0  0
   18.8593   -5.8792  -15.9499 C   0  0  0  0  0  0  0  0  0  0  0  0
   19.0014   -5.5690  -17.1601 O   0  0  0  0  0  0  0  0  0  0  0  0
   14.9624   -2.9826  -15.7863 C   0  0  0  0  0  0  0  0  0  0  0  0
   15.7686   -4.1698  -15.3011 C   0  0  2  0  0  0  0  0  0  0  0  0
   15.6205   -4.2243  -13.7955 C   0  0  0  0  0  0  0  0  0  0  0  0
   17.2335   -4.0326  -15.6542 C   0  0  2  0  0  0  0  0  0  0  0  0
   18.0234   -5.1075  -15.1179 N   0  0  0  0  0  0  0  0  0  0  0  0
   17.7258   -2.7541  -15.1086 C   0  0  0  0  0  0  0  0  0  0  0  0
   18.3310   -2.7495  -14.0109 O   0  0  0  0  0  0  0  0  0  0  0  0
   17.5494   -1.5426  -15.7586 O   0  0  0  0  0  0  0  0  0  0  0  0
  2  1  1  1
  2  3  1  0
  4  3  1  0
  4  8  1  0
  5  4  2  0
  6  2  1  0
  7  6  2  0
  9  6  1  0
 10  9  1  0
 10 11  1  6
 12 11  1  0
 12 13  2  0
 14 13  1  0
 15 14  2  0
 16 17  2  0
 16 15  1  0
 17 12  1  0
 18 10  1  0
 18 24  1  0
 19 18  2  0
 21 20  1  1
 21 23  1  0
 22 21  1  0
 23 24  1  1
 23 25  1  0
 25 27  1  0
 26 25  2  0
M  END
$$$$
