DFV.pdb
     RDKit          3D

 27 27  0  0  1  0  0  0  0  0999 V2000
   27.7452  -23.0140  -17.3612 N   0  0  0  0  0  0  0  0  0  0  0  0
   27.1101  -21.7846  -17.0017 C   0  0  1  0  0  0  0  0  0  0  0  0
   26.1920  -21.2637  -18.0842 C   0  0  0  0  0  0  0  0  0  0  0  0
   26.6657  -19.9882  -18.6488 C   0  0  0  0  0  0  0  0  0  0  0  0
   27.7869  -19.9260  -19.1849 O   0  0  0  0  0  0  0  0  0  0  0  0
   26.3964  -21.9610  -15.7123 C   0  0  0  0  0  0  0  0  0  0  0  0
   25.4701  -22.7900  -15.5730 O   0  0  0  0  0  0  0  0  0  0  0  0
   25.8722  -18.8673  -18.5846 O   0  0  0  0  0  0  0  0  0  0  0  0
   26.7800  -21.1646  -14.6113 N   0  0  0  0  0  0  0  0  0  0  0  0
   26.0883  -21.1230  -13.3570 C   0  0  1  0  0  0  0  0  0  0  0  0
   26.9761  -20.4619  -12.3290 C   0  0  0  0  0  0  0  0  0  0  0  0
   26.2020  -20.4863  -11.0371 C   0  0  0  0  0  0  0  0  0  0  0  0
   26.2590  -21.6045  -10.2364 C   0  0  0  0  0  0  0  0  0  0  0  0
   25.5523  -21.6520   -9.0369 C   0  0  0  0  0  0  0  0  0  0  0  0
   24.7824  -20.5866   -8.6234 C   0  0  0  0  0  0  0  0  0  0  0  0
   24.7296  -19.4623   -9.4358 C   0  0  0  0  0  0  0  0  0  0  0  0
   25.4345  -19.4241  -10.6251 C   0  0  0  0  0  0  0  0  0  0  0  0
   24.7462  -20.5458  -13.4346 C   0  0  0  0  0  0  0  0  0  0  0  0
   24.6164  -19.3969  -13.9287 O   0  0  0  0  0  0  0  0  0  0  0  0
   22.1007  -20.9861  -15.5393 C   0  0  0  0  0  0  0  0  0  0  0  0
   21.4871  -21.2766  -14.1850 C   0  0  2  0  0  0  0  0  0  0  0  0
   20.1009  -20.6683  -14.1836 C   0  0  0  0  0  0  0  0  0  0  0  0
   22.2996  -20.6706  -13.0616 C   0  0  2  0  0  0  0  0  0  0  0  0
   23.6140  -21.2460  -12.9716 N   0  0  0  0  0  0  0  0  0  0  0  0
   21.5843  -20.9020  -11.7929 C   0  0  0  0  0  0  0  0  0  0  0  0
   21.8062  -21.9538  -11.1482 O   0  0  0  0  0  0  0  0  0  0  0  0
   20.6675  -20.0019  -11.2727 O   0  0  0  0  0  0  0  0  0  0  0  0
  2  1  1  6
  2  3  1  0
  4  3  1  0
  4  8  1  0
  5  4  2  0
  6  2  1  0
  7  6  2  0
  9  6  1  0
 10  9  1  0
 10 11  1  1
 12 11  1  0
 12 13  2  0
 14 13  1  0
 15 14  2  0
 16 17  2  0
 16 15  1  0
 17 12  1  0
 18 10  1  0
 18 24  1  0
 19 18  2  0
 21 20  1  6
 21 23  1  0
 22 21  1  0
 23 24  1  1
 23 25  1  0
 25 27  1  0
 26 25  2  0
M  END
$$$$
