CHH.pdb
     RDKit          3D

 27 28  0  0  1  0  0  0  0  0999 V2000
    7.7831  -14.3755   17.4363 N   0  0  0  0  0  0  0  0  0  0  0  0
    8.5893  -14.0586   18.5988 C   0  0  1  0  0  0  0  0  0  0  0  0
    7.9647  -12.8368   19.2627 C   0  0  0  0  0  0  0  0  0  0  0  0
    8.8260  -12.4347   20.7908 S   0  0  0  0  0  0  0  0  0  0  0  0
    8.6241  -15.2011   19.5421 C   0  0  0  0  0  0  0  0  0  0  0  0
    7.6127  -15.8619   19.8612 O   0  0  0  0  0  0  0  0  0  0  0  0
    9.8477  -15.5871   20.1268 N   0  0  0  0  0  0  0  0  0  0  0  0
   10.0282  -16.7187   20.9792 C   0  0  1  0  0  0  0  0  0  0  0  0
   11.2351  -17.5446   20.7325 C   0  0  0  0  0  0  0  0  0  0  0  0
   10.9299  -18.5619   19.6975 C   0  0  0  0  0  0  0  0  0  0  0  0
    9.6679  -18.8674   19.2351 C   0  0  0  0  0  0  0  0  0  0  0  0
    9.7422  -19.8327   18.2979 N   0  0  0  0  0  0  0  0  0  0  0  0
   11.0471  -20.1305   18.1740 C   0  0  0  0  0  0  0  0  0  0  0  0
   11.7548  -19.3679   19.0133 N   0  0  0  0  0  0  0  0  0  0  0  0
   10.0660  -16.2103   22.3720 C   0  0  0  0  0  0  0  0  0  0  0  0
   10.8109  -15.2383   22.6220 O   0  0  0  0  0  0  0  0  0  0  0  0
    9.3058  -16.7680   23.4235 N   0  0  0  0  0  0  0  0  0  0  0  0
    9.4431  -16.2737   24.8167 C   0  0  1  0  0  0  0  0  0  0  0  0
    8.1065  -16.2679   25.4778 C   0  0  0  0  0  0  0  0  0  0  0  0
    7.3894  -14.9872   25.3811 C   0  0  0  0  0  0  0  0  0  0  0  0
    7.9104  -13.8368   24.7653 C   0  0  0  0  0  0  0  0  0  0  0  0
    7.0080  -12.8484   24.8491 N   0  0  0  0  0  0  0  0  0  0  0  0
    5.9292  -13.3207   25.4947 C   0  0  0  0  0  0  0  0  0  0  0  0
    6.1720  -14.6079   25.8088 N   0  0  0  0  0  0  0  0  0  0  0  0
   10.3599  -17.2260   25.4739 C   0  0  0  0  0  0  0  0  0  0  0  0
   10.8601  -16.9329   26.7570 O   0  0  0  0  0  0  0  0  0  0  0  0
   10.7011  -18.2908   24.9107 O   0  0  0  0  0  0  0  0  0  0  0  0
  2  1  1  6
  2  5  1  0
  3  4  1  0
  3  2  1  0
  5  6  2  0
  5  7  1  0
  7  8  1  0
  8 15  1  0
  8  9  1  6
 10  9  1  0
 10 11  2  0
 12 11  1  0
 13 14  2  0
 13 12  1  0
 14 10  1  0
 15 16  2  0
 17 18  1  0
 17 15  1  0
 19 20  1  0
 18 19  1  1
 20 24  1  0
 21 20  2  0
 21 22  1  0
 22 23  1  0
 24 23  2  0
 25 26  1  0
 25 18  1  0
 27 25  2  0
M  END
$$$$
