CHH.pdb
     RDKit          3D

 27 28  0  0  1  0  0  0  0  0999 V2000
    8.5255  -14.3959   17.0594 N   0  0  0  0  0  0  0  0  0  0  0  0
    9.4415  -13.8578   18.0459 C   0  0  1  0  0  0  0  0  0  0  0  0
    8.6508  -13.6530   19.3329 C   0  0  0  0  0  0  0  0  0  0  0  0
    7.3265  -12.4607   19.0817 S   0  0  0  0  0  0  0  0  0  0  0  0
   10.5735  -14.7866   18.2743 C   0  0  0  0  0  0  0  0  0  0  0  0
   10.5324  -16.0041   17.9962 O   0  0  0  0  0  0  0  0  0  0  0  0
   11.7734  -14.3012   18.8335 N   0  0  0  0  0  0  0  0  0  0  0  0
   12.9231  -15.0968   19.1247 C   0  0  1  0  0  0  0  0  0  0  0  0
   14.2173  -14.3780   19.2147 C   0  0  0  0  0  0  0  0  0  0  0  0
   14.9423  -14.5106   17.9279 C   0  0  0  0  0  0  0  0  0  0  0  0
   14.6099  -15.3880   16.9182 C   0  0  0  0  0  0  0  0  0  0  0  0
   15.4690  -15.2523   15.8891 N   0  0  0  0  0  0  0  0  0  0  0  0
   16.3367  -14.2926   16.2535 C   0  0  0  0  0  0  0  0  0  0  0  0
   16.0183  -13.8511   17.4743 N   0  0  0  0  0  0  0  0  0  0  0  0
   12.6600  -15.7832   20.4129 C   0  0  0  0  0  0  0  0  0  0  0  0
   12.2190  -15.1004   21.3624 O   0  0  0  0  0  0  0  0  0  0  0  0
   12.8824  -17.1628   20.6177 N   0  0  0  0  0  0  0  0  0  0  0  0
   12.5701  -17.8064   21.9186 C   0  0  1  0  0  0  0  0  0  0  0  0
   11.8656  -19.0987   21.6792 C   0  0  0  0  0  0  0  0  0  0  0  0
   10.4835  -18.9539   21.1972 C   0  0  0  0  0  0  0  0  0  0  0  0
    9.6078  -17.9352   21.6089 C   0  0  0  0  0  0  0  0  0  0  0  0
    8.4315  -18.0896   20.9839 N   0  0  0  0  0  0  0  0  0  0  0  0
    8.5194  -19.1676   20.1876 C   0  0  0  0  0  0  0  0  0  0  0  0
    9.7585  -19.6777   20.3256 N   0  0  0  0  0  0  0  0  0  0  0  0
   13.8797  -18.0236   22.5643 C   0  0  0  0  0  0  0  0  0  0  0  0
   13.9317  -18.5901   23.8523 O   0  0  0  0  0  0  0  0  0  0  0  0
   14.9464  -17.7130   21.9870 O   0  0  0  0  0  0  0  0  0  0  0  0
  2  1  1  6
  2  5  1  0
  3  4  1  0
  3  2  1  0
  5  6  2  0
  5  7  1  0
  7  8  1  0
  8 15  1  0
  8  9  1  1
 10  9  1  0
 10 11  2  0
 12 11  1  0
 13 14  2  0
 13 12  1  0
 14 10  1  0
 15 16  2  0
 17 18  1  0
 17 15  1  0
 19 20  1  0
 18 19  1  6
 20 24  1  0
 21 20  2  0
 21 22  1  0
 22 23  1  0
 24 23  2  0
 25 26  1  0
 25 18  1  0
 27 25  2  0
M  END
$$$$
