CHH.pdb
     RDKit          3D

 27 28  0  0  1  0  0  0  0  0999 V2000
    7.8277  -14.2005   17.8907 N   0  0  0  0  0  0  0  0  0  0  0  0
    8.5677  -13.9506   19.1121 C   0  0  1  0  0  0  0  0  0  0  0  0
    7.8532  -12.8251   19.8513 C   0  0  0  0  0  0  0  0  0  0  0  0
    8.6604  -12.4851   21.4233 S   0  0  0  0  0  0  0  0  0  0  0  0
    8.6234  -15.1701   19.9523 C   0  0  0  0  0  0  0  0  0  0  0  0
    7.6812  -15.9855   20.0461 O   0  0  0  0  0  0  0  0  0  0  0  0
    9.7869  -15.4530   20.6967 N   0  0  0  0  0  0  0  0  0  0  0  0
    9.9902  -16.6253   21.4866 C   0  0  1  0  0  0  0  0  0  0  0  0
   11.1870  -17.4394   21.1631 C   0  0  0  0  0  0  0  0  0  0  0  0
   10.8840  -18.3192   20.0083 C   0  0  0  0  0  0  0  0  0  0  0  0
    9.6582  -18.4145   19.3854 C   0  0  0  0  0  0  0  0  0  0  0  0
    9.7239  -19.3016   18.3734 N   0  0  0  0  0  0  0  0  0  0  0  0
   10.9873  -19.7602   18.3627 C   0  0  0  0  0  0  0  0  0  0  0  0
   11.6787  -19.1699   19.3427 N   0  0  0  0  0  0  0  0  0  0  0  0
   10.0715  -16.1861   22.9009 C   0  0  0  0  0  0  0  0  0  0  0  0
   10.9178  -15.3155   23.1975 O   0  0  0  0  0  0  0  0  0  0  0  0
    9.2438  -16.7010   23.9230 N   0  0  0  0  0  0  0  0  0  0  0  0
    9.4114  -16.2741   25.3351 C   0  0  1  0  0  0  0  0  0  0  0  0
    8.0719  -16.1214   25.9722 C   0  0  0  0  0  0  0  0  0  0  0  0
    7.4167  -14.8325   25.7013 C   0  0  0  0  0  0  0  0  0  0  0  0
    8.0539  -13.7364   25.0959 C   0  0  0  0  0  0  0  0  0  0  0  0
    7.1811  -12.7233   24.9953 N   0  0  0  0  0  0  0  0  0  0  0  0
    6.0096  -13.1276   25.5127 C   0  0  0  0  0  0  0  0  0  0  0  0
    6.1653  -14.3978   25.9336 N   0  0  0  0  0  0  0  0  0  0  0  0
   10.1866  -17.3558   25.9742 C   0  0  0  0  0  0  0  0  0  0  0  0
   10.6401  -17.1944   27.2974 O   0  0  0  0  0  0  0  0  0  0  0  0
   10.4485  -18.4152   25.3606 O   0  0  0  0  0  0  0  0  0  0  0  0
  2  1  1  6
  2  5  1  0
  3  4  1  0
  3  2  1  0
  5  6  2  0
  5  7  1  0
  7  8  1  0
  8 15  1  0
  8  9  1  6
 10  9  1  0
 10 11  2  0
 12 11  1  0
 13 14  2  0
 13 12  1  0
 14 10  1  0
 15 16  2  0
 17 18  1  0
 17 15  1  0
 19 20  1  0
 18 19  1  1
 20 24  1  0
 21 20  2  0
 21 22  1  0
 22 23  1  0
 24 23  2  0
 25 26  1  0
 25 18  1  0
 27 25  2  0
M  END
$$$$
