CHH.pdb
     RDKit          3D

 27 28  0  0  1  0  0  0  0  0999 V2000
    6.5851  -14.5915   20.3912 N   0  0  0  0  0  0  0  0  0  0  0  0
    7.9429  -14.4895   20.8891 C   0  0  1  0  0  0  0  0  0  0  0  0
    8.1077  -13.0894   21.4690 C   0  0  0  0  0  0  0  0  0  0  0  0
    6.9235  -12.8076   22.7943 S   0  0  0  0  0  0  0  0  0  0  0  0
    8.2009  -15.5151   21.9272 C   0  0  0  0  0  0  0  0  0  0  0  0
    7.2943  -16.1318   22.5266 O   0  0  0  0  0  0  0  0  0  0  0  0
    9.5284  -15.8341   22.2794 N   0  0  0  0  0  0  0  0  0  0  0  0
    9.9140  -16.9135   23.1312 C   0  0  1  0  0  0  0  0  0  0  0  0
   11.1915  -17.5907   22.8008 C   0  0  0  0  0  0  0  0  0  0  0  0
   10.9721  -18.5280   21.6727 C   0  0  0  0  0  0  0  0  0  0  0  0
    9.7498  -19.0411   21.2955 C   0  0  0  0  0  0  0  0  0  0  0  0
    9.9010  -19.8582   20.2348 N   0  0  0  0  0  0  0  0  0  0  0  0
   11.2144  -19.8567   19.9489 C   0  0  0  0  0  0  0  0  0  0  0  0
   11.8522  -19.0594   20.8116 N   0  0  0  0  0  0  0  0  0  0  0  0
    9.9964  -16.3703   24.5088 C   0  0  0  0  0  0  0  0  0  0  0  0
   10.7295  -15.3772   24.7053 O   0  0  0  0  0  0  0  0  0  0  0  0
    9.2908  -16.9174   25.6031 N   0  0  0  0  0  0  0  0  0  0  0  0
    9.5037  -16.4138   26.9835 C   0  0  1  0  0  0  0  0  0  0  0  0
    8.1879  -16.0836   27.6023 C   0  0  0  0  0  0  0  0  0  0  0  0
    7.5468  -14.8787   27.0536 C   0  0  0  0  0  0  0  0  0  0  0  0
    8.1258  -13.5988   27.0749 C   0  0  0  0  0  0  0  0  0  0  0  0
    7.2852  -12.7281   26.4975 N   0  0  0  0  0  0  0  0  0  0  0  0
    6.1901  -13.4003   26.1069 C   0  0  0  0  0  0  0  0  0  0  0  0
    6.3607  -14.6925   26.4475 N   0  0  0  0  0  0  0  0  0  0  0  0
   10.1673  -17.5217   27.6988 C   0  0  0  0  0  0  0  0  0  0  0  0
   10.6001  -17.3296   29.0248 O   0  0  0  0  0  0  0  0  0  0  0  0
   10.3526  -18.6304   27.1473 O   0  0  0  0  0  0  0  0  0  0  0  0
  2  1  1  1
  2  5  1  0
  3  4  1  0
  3  2  1  0
  5  6  2  0
  5  7  1  0
  7  8  1  0
  8 15  1  0
  8  9  1  6
 10  9  1  0
 10 11  2  0
 12 11  1  0
 13 14  2  0
 13 12  1  0
 14 10  1  0
 15 16  2  0
 17 18  1  0
 17 15  1  0
 19 20  1  0
 18 19  1  1
 20 24  1  0
 21 20  2  0
 21 22  1  0
 22 23  1  0
 24 23  2  0
 25 26  1  0
 25 18  1  0
 27 25  2  0
M  END
$$$$
