CHH.pdb
     RDKit          3D

 27 28  0  0  1  0  0  0  0  0999 V2000
    9.4357  -17.3780   14.2859 N   0  0  0  0  0  0  0  0  0  0  0  0
   10.3020  -17.8108   15.3648 C   0  0  1  0  0  0  0  0  0  0  0  0
   11.2369  -16.6507   15.6870 C   0  0  0  0  0  0  0  0  0  0  0  0
   11.1978  -15.4203   14.3744 S   0  0  0  0  0  0  0  0  0  0  0  0
    9.5081  -18.1848   16.5590 C   0  0  0  0  0  0  0  0  0  0  0  0
    8.5810  -19.0223   16.5351 O   0  0  0  0  0  0  0  0  0  0  0  0
    9.7894  -17.5815   17.8019 N   0  0  0  0  0  0  0  0  0  0  0  0
    9.5537  -18.1810   19.0764 C   0  0  1  0  0  0  0  0  0  0  0  0
   10.1801  -19.5051   19.3087 C   0  0  0  0  0  0  0  0  0  0  0  0
    9.2933  -20.5674   18.7752 C   0  0  0  0  0  0  0  0  0  0  0  0
    8.0156  -20.3671   18.2987 C   0  0  0  0  0  0  0  0  0  0  0  0
    7.4884  -21.5375   17.8890 N   0  0  0  0  0  0  0  0  0  0  0  0
    8.4335  -22.4678   18.1085 C   0  0  0  0  0  0  0  0  0  0  0  0
    9.5123  -21.8834   18.6390 N   0  0  0  0  0  0  0  0  0  0  0  0
   10.0439  -17.2273   20.1011 C   0  0  0  0  0  0  0  0  0  0  0  0
   11.2517  -16.9068   20.0747 O   0  0  0  0  0  0  0  0  0  0  0  0
    9.2170  -16.6670   21.0996 N   0  0  0  0  0  0  0  0  0  0  0  0
    9.7280  -15.6232   22.0235 C   0  0  1  0  0  0  0  0  0  0  0  0
    8.6772  -14.5865   22.2348 C   0  0  0  0  0  0  0  0  0  0  0  0
    8.2453  -13.9038   21.0056 C   0  0  0  0  0  0  0  0  0  0  0  0
    6.9191  -13.8791   20.5423 C   0  0  0  0  0  0  0  0  0  0  0  0
    6.8667  -13.1759   19.4016 N   0  0  0  0  0  0  0  0  0  0  0  0
    8.1077  -12.7493   19.1160 C   0  0  0  0  0  0  0  0  0  0  0  0
    8.9267  -13.1940   20.0886 N   0  0  0  0  0  0  0  0  0  0  0  0
   10.0338  -16.3373   23.2789 C   0  0  0  0  0  0  0  0  0  0  0  0
   10.6944  -15.6570   24.3197 O   0  0  0  0  0  0  0  0  0  0  0  0
    9.7161  -17.5382   23.4352 O   0  0  0  0  0  0  0  0  0  0  0  0
  2  1  1  6
  2  5  1  0
  3  4  1  0
  3  2  1  0
  5  6  2  0
  5  7  1  0
  7  8  1  0
  8 15  1  0
  8  9  1  6
 10  9  1  0
 10 11  2  0
 12 11  1  0
 13 14  2  0
 13 12  1  0
 14 10  1  0
 15 16  2  0
 17 18  1  0
 17 15  1  0
 19 20  1  0
 18 19  1  1
 20 24  1  0
 21 20  2  0
 21 22  1  0
 22 23  1  0
 24 23  2  0
 25 26  1  0
 25 18  1  0
 27 25  2  0
M  END
$$$$
