VLR.pdb
     RDKit          3D

 27 26  0  0  1  0  0  0  0  0999 V2000
   17.1881  -25.6814   -6.6860 C   0  0  0  0  0  0  0  0  0  0  0  0
   17.6345  -24.3916   -7.3135 C   0  0  1  0  0  0  0  0  0  0  0  0
   18.8145  -23.8848   -6.4929 C   0  0  0  0  0  0  0  0  0  0  0  0
   18.0928  -24.5271   -8.7272 C   0  0  2  0  0  0  0  0  0  0  0  0
   19.1170  -25.5838   -8.8004 N   0  0  0  0  0  0  0  0  0  0  0  0
   18.6596  -23.3048   -9.3231 C   0  0  0  0  0  0  0  0  0  0  0  0
   17.8722  -22.3053   -9.4679 O   0  0  0  0  0  0  0  0  0  0  0  0
   21.4934  -20.1764   -8.2904 C   0  0  0  0  0  0  0  0  0  0  0  0
   22.2515  -21.4131   -8.7978 C   0  0  2  0  0  0  0  0  0  0  0  0
   23.7090  -21.1228   -8.5754 C   0  0  0  0  0  0  0  0  0  0  0  0
   21.8486  -21.5955  -10.2148 C   0  0  0  0  0  0  0  0  0  0  0  0
   20.4001  -21.9533  -10.4386 C   0  0  2  0  0  0  0  0  0  0  0  0
   19.9947  -23.1298   -9.7501 N   0  0  0  0  0  0  0  0  0  0  0  0
   20.0122  -21.9861  -11.8729 C   0  0  0  0  0  0  0  0  0  0  0  0
   20.1309  -23.0410  -12.5635 O   0  0  0  0  0  0  0  0  0  0  0  0
   16.3344  -24.6753  -15.0437 N   0  0  0  0  0  0  0  0  0  0  0  0
   15.7257  -24.0488  -16.1567 C   0  0  0  0  0  0  0  0  0  0  0  0
   15.6312  -24.6865  -17.2879 N   0  0  0  0  0  0  0  0  0  0  0  0
   15.2003  -22.7164  -16.0851 N   0  0  0  0  0  0  0  0  0  0  0  0
   15.5046  -21.8500  -14.9764 C   0  0  0  0  0  0  0  0  0  0  0  0
   16.9052  -21.3201  -15.1442 C   0  0  0  0  0  0  0  0  0  0  0  0
   17.6271  -21.5489  -13.8152 C   0  0  0  0  0  0  0  0  0  0  0  0
   19.0492  -20.9650  -13.9405 C   0  0  2  0  0  0  0  0  0  0  0  0
   19.4885  -20.8488  -12.5489 N   0  0  0  0  0  0  0  0  0  0  0  0
   18.8680  -19.6603  -14.6001 C   0  0  0  0  0  0  0  0  0  0  0  0
   18.9459  -18.6172  -13.9388 O   0  0  0  0  0  0  0  0  0  0  0  0
   18.6133  -19.6125  -15.9510 O   0  0  0  0  0  0  0  0  0  0  0  0
  2  1  1  1
  2  4  1  0
  2  3  1  0
  4  6  1  0
  4  5  1  1
  6  7  2  0
  9  8  1  6
 10  9  1  0
 11  9  1  0
 12 11  1  6
 13 12  1  0
 13  6  1  0
 14 12  1  0
 14 15  2  0
 16 17  1  0
 17 19  1  0
 17 18  2  0
 19 20  1  0
 21 20  1  0
 21 22  1  0
 23 22  1  1
 23 24  1  0
 23 25  1  0
 24 14  1  0
 25 26  2  0
 25 27  1  0
M  END
$$$$
