VLR.pdb
     RDKit          3D

 27 26  0  0  1  0  0  0  0  0999 V2000
   12.8189  -11.5159    5.9121 C   0  0  0  0  0  0  0  0  0  0  0  0
   14.2078  -11.7549    6.4324 C   0  0  1  0  0  0  0  0  0  0  0  0
   14.2309  -13.1691    7.0000 C   0  0  0  0  0  0  0  0  0  0  0  0
   15.2730  -11.6689    5.3908 C   0  0  2  0  0  0  0  0  0  0  0  0
   14.8306  -12.4002    4.1906 N   0  0  0  0  0  0  0  0  0  0  0  0
   16.5857  -12.2054    5.7900 C   0  0  0  0  0  0  0  0  0  0  0  0
   16.9209  -13.3458    5.3134 O   0  0  0  0  0  0  0  0  0  0  0  0
   21.9382  -10.6936    8.4480 C   0  0  0  0  0  0  0  0  0  0  0  0
   21.0786  -11.8453    7.9039 C   0  0  2  0  0  0  0  0  0  0  0  0
   21.9019  -12.5033    6.8328 C   0  0  0  0  0  0  0  0  0  0  0  0
   19.8073  -11.2334    7.4425 C   0  0  0  0  0  0  0  0  0  0  0  0
   18.7449  -12.2040    6.9892 C   0  0  2  0  0  0  0  0  0  0  0  0
   17.5135  -11.5781    6.6508 N   0  0  0  0  0  0  0  0  0  0  0  0
   18.5511  -13.3477    7.9183 C   0  0  0  0  0  0  0  0  0  0  0  0
   17.8514  -13.2328    8.9676 O   0  0  0  0  0  0  0  0  0  0  0  0
   15.9414  -21.2466    6.3575 N   0  0  0  0  0  0  0  0  0  0  0  0
   15.3484  -20.3998    7.3235 C   0  0  0  0  0  0  0  0  0  0  0  0
   14.0991  -20.5650    7.6506 N   0  0  0  0  0  0  0  0  0  0  0  0
   16.0831  -19.3495    7.9666 N   0  0  0  0  0  0  0  0  0  0  0  0
   17.4764  -19.1268    7.6809 C   0  0  0  0  0  0  0  0  0  0  0  0
   17.9930  -18.0462    8.5953 C   0  0  0  0  0  0  0  0  0  0  0  0
   18.2955  -16.8307    7.7173 C   0  0  0  0  0  0  0  0  0  0  0  0
   18.8746  -15.7237    8.6218 C   0  0  2  0  0  0  0  0  0  0  0  0
   19.1312  -14.6264    7.6874 N   0  0  0  0  0  0  0  0  0  0  0  0
   20.1063  -16.3005    9.1879 C   0  0  0  0  0  0  0  0  0  0  0  0
   21.1856  -16.1502    8.6013 O   0  0  0  0  0  0  0  0  0  0  0  0
   20.0460  -17.0036   10.3686 O   0  0  0  0  0  0  0  0  0  0  0  0
  2  1  1  6
  2  4  1  0
  2  3  1  0
  4  6  1  0
  4  5  1  6
  6  7  2  0
  9  8  1  6
 10  9  1  0
 11  9  1  0
 12 11  1  1
 13 12  1  0
 13  6  1  0
 14 12  1  0
 14 15  2  0
 16 17  1  0
 17 19  1  0
 17 18  2  0
 19 20  1  0
 21 20  1  0
 21 22  1  0
 23 22  1  6
 23 24  1  0
 23 25  1  0
 24 14  1  0
 25 26  2  0
 25 27  1  0
M  END
$$$$
