VLR.pdb
     RDKit          3D

 27 26  0  0  1  0  0  0  0  0999 V2000
   29.1799  -19.5201  -16.7196 C   0  0  0  0  0  0  0  0  0  0  0  0
   28.2944  -20.3342  -15.8198 C   0  0  1  0  0  0  0  0  0  0  0  0
   28.8666  -20.2181  -14.4120 C   0  0  0  0  0  0  0  0  0  0  0  0
   26.8781  -19.8666  -15.7714 C   0  0  2  0  0  0  0  0  0  0  0  0
   26.8607  -18.4131  -15.5310 N   0  0  0  0  0  0  0  0  0  0  0  0
   26.0409  -20.5062  -14.7417 C   0  0  0  0  0  0  0  0  0  0  0  0
   25.7704  -21.7483  -14.8963 O   0  0  0  0  0  0  0  0  0  0  0  0
   26.1034  -21.9691  -10.4911 C   0  0  0  0  0  0  0  0  0  0  0  0
   26.0429  -20.4385  -10.6142 C   0  0  2  0  0  0  0  0  0  0  0  0
   26.1948  -19.9066   -9.2170 C   0  0  0  0  0  0  0  0  0  0  0  0
   24.7520  -20.1253  -11.2767 C   0  0  0  0  0  0  0  0  0  0  0  0
   24.6330  -20.5703  -12.7133 C   0  0  2  0  0  0  0  0  0  0  0  0
   25.5074  -19.8770  -13.5950 N   0  0  0  0  0  0  0  0  0  0  0  0
   23.2342  -20.5864  -13.2153 C   0  0  0  0  0  0  0  0  0  0  0  0
   22.6908  -19.5434  -13.6850 O   0  0  0  0  0  0  0  0  0  0  0  0
   16.5751  -24.2537  -13.6717 N   0  0  0  0  0  0  0  0  0  0  0  0
   16.6108  -24.5524  -15.0542 C   0  0  0  0  0  0  0  0  0  0  0  0
   15.4991  -24.6536  -15.7243 N   0  0  0  0  0  0  0  0  0  0  0  0
   17.8450  -24.7510  -15.7569 N   0  0  0  0  0  0  0  0  0  0  0  0
   19.1134  -24.6683  -15.0808 C   0  0  0  0  0  0  0  0  0  0  0  0
   19.3551  -23.2373  -14.6751 C   0  0  0  0  0  0  0  0  0  0  0  0
   20.7870  -23.1642  -14.1421 C   0  0  0  0  0  0  0  0  0  0  0  0
   21.0561  -21.7108  -13.7015 C   0  0  2  0  0  0  0  0  0  0  0  0
   22.4308  -21.7607  -13.2006 N   0  0  0  0  0  0  0  0  0  0  0  0
   20.0654  -21.4441  -12.6443 C   0  0  0  0  0  0  0  0  0  0  0  0
   20.3734  -21.5972  -11.4556 O   0  0  0  0  0  0  0  0  0  0  0  0
   18.8013  -21.0251  -12.9891 O   0  0  0  0  0  0  0  0  0  0  0  0
  2  1  1  6
  2  4  1  0
  2  3  1  0
  4  6  1  0
  4  5  1  1
  6  7  2  0
  9  8  1  1
 10  9  1  0
 11  9  1  0
 12 11  1  1
 13 12  1  0
 13  6  1  0
 14 12  1  0
 14 15  2  0
 16 17  1  0
 17 19  1  0
 17 18  2  0
 19 20  1  0
 21 20  1  0
 21 22  1  0
 23 22  1  1
 23 24  1  0
 23 25  1  0
 24 14  1  0
 25 26  2  0
 25 27  1  0
M  END
$$$$
