VLR.pdb
     RDKit          3D

 27 26  0  0  1  0  0  0  0  0999 V2000
   18.7121   -7.6071  -17.5457 C   0  0  0  0  0  0  0  0  0  0  0  0
   20.1161   -7.9971  -17.9106 C   0  0  1  0  0  0  0  0  0  0  0  0
   21.0441   -6.9937  -17.2361 C   0  0  0  0  0  0  0  0  0  0  0  0
   20.5111   -9.3595  -17.4475 C   0  0  2  0  0  0  0  0  0  0  0  0
   20.2481   -9.4699  -16.0019 N   0  0  0  0  0  0  0  0  0  0  0  0
   21.9212   -9.7170  -17.6799 C   0  0  0  0  0  0  0  0  0  0  0  0
   22.3204   -9.7622  -18.8959 O   0  0  0  0  0  0  0  0  0  0  0  0
   27.4629  -10.4378  -15.1179 C   0  0  0  0  0  0  0  0  0  0  0  0
   26.5810  -10.7415  -16.3391 C   0  0  2  0  0  0  0  0  0  0  0  0
   27.2311  -10.0438  -17.5005 C   0  0  0  0  0  0  0  0  0  0  0  0
   25.2170  -10.2674  -15.9954 C   0  0  0  0  0  0  0  0  0  0  0  0
   24.1502  -10.5541  -17.0231 C   0  0  2  0  0  0  0  0  0  0  0  0
   22.8786  -10.0145  -16.6847 N   0  0  0  0  0  0  0  0  0  0  0  0
   24.0631  -11.9882  -17.4032 C   0  0  0  0  0  0  0  0  0  0  0  0
   23.2428  -12.7707  -16.8388 O   0  0  0  0  0  0  0  0  0  0  0  0
   21.8302  -18.4948  -20.8705 N   0  0  0  0  0  0  0  0  0  0  0  0
   20.9068  -17.8509  -20.0133 C   0  0  0  0  0  0  0  0  0  0  0  0
   19.9901  -18.5488  -19.4068 N   0  0  0  0  0  0  0  0  0  0  0  0
   20.9428  -16.4359  -19.7834 N   0  0  0  0  0  0  0  0  0  0  0  0
   21.8212  -15.5773  -20.5343 C   0  0  0  0  0  0  0  0  0  0  0  0
   23.1589  -15.5265  -19.8425 C   0  0  0  0  0  0  0  0  0  0  0  0
   23.3676  -14.0809  -19.3881 C   0  0  0  0  0  0  0  0  0  0  0  0
   24.7610  -13.9852  -18.7337 C   0  0  2  0  0  0  0  0  0  0  0  0
   24.8846  -12.5620  -18.4135 N   0  0  0  0  0  0  0  0  0  0  0  0
   25.7025  -14.4265  -19.7772 C   0  0  0  0  0  0  0  0  0  0  0  0
   26.3939  -13.5944  -20.3780 O   0  0  0  0  0  0  0  0  0  0  0  0
   25.8058  -15.7653  -20.0756 O   0  0  0  0  0  0  0  0  0  0  0  0
  2  1  1  1
  2  4  1  0
  2  3  1  0
  4  6  1  0
  4  5  1  1
  6  7  2  0
  9  8  1  1
 10  9  1  0
 11  9  1  0
 12 11  1  1
 13 12  1  0
 13  6  1  0
 14 12  1  0
 14 15  2  0
 16 17  1  0
 17 19  1  0
 17 18  2  0
 19 20  1  0
 21 20  1  0
 21 22  1  0
 23 22  1  6
 23 24  1  0
 23 25  1  0
 24 14  1  0
 25 26  2  0
 25 27  1  0
M  END
$$$$
