VLR.pdb
     RDKit          3D

 27 26  0  0  1  0  0  0  0  0999 V2000
   28.7100  -19.5117  -14.5608 C   0  0  0  0  0  0  0  0  0  0  0  0
   27.9806  -19.4346  -15.8718 C   0  0  1  0  0  0  0  0  0  0  0  0
   28.0258  -20.8284  -16.4865 C   0  0  0  0  0  0  0  0  0  0  0  0
   26.5463  -19.0411  -15.7501 C   0  0  2  0  0  0  0  0  0  0  0  0
   26.4680  -17.6032  -15.4381 N   0  0  0  0  0  0  0  0  0  0  0  0
   25.7806  -19.7696  -14.7238 C   0  0  0  0  0  0  0  0  0  0  0  0
   25.3913  -20.9542  -15.0156 O   0  0  0  0  0  0  0  0  0  0  0  0
   25.5733  -20.2300   -8.8464 C   0  0  0  0  0  0  0  0  0  0  0  0
   25.4123  -20.8097  -10.2605 C   0  0  2  0  0  0  0  0  0  0  0  0
   26.7735  -21.3056  -10.6597 C   0  0  0  0  0  0  0  0  0  0  0  0
   24.8637  -19.7146  -11.0990 C   0  0  0  0  0  0  0  0  0  0  0  0
   24.6408  -20.0564  -12.5515 C   0  0  2  0  0  0  0  0  0  0  0  0
   25.4351  -19.2839  -13.4431 N   0  0  0  0  0  0  0  0  0  0  0  0
   23.2079  -20.0632  -12.9460 C   0  0  0  0  0  0  0  0  0  0  0  0
   22.5734  -18.9849  -13.1421 O   0  0  0  0  0  0  0  0  0  0  0  0
   21.1342  -26.3496  -17.3496 N   0  0  0  0  0  0  0  0  0  0  0  0
   22.0452  -25.9943  -16.3269 C   0  0  0  0  0  0  0  0  0  0  0  0
   22.8686  -26.8853  -15.8543 N   0  0  0  0  0  0  0  0  0  0  0  0
   22.0968  -24.6687  -15.7823 N   0  0  0  0  0  0  0  0  0  0  0  0
   21.3095  -23.5995  -16.3385 C   0  0  0  0  0  0  0  0  0  0  0  0
   21.5655  -22.3442  -15.5450 C   0  0  0  0  0  0  0  0  0  0  0  0
   20.7817  -22.4790  -14.2384 C   0  0  0  0  0  0  0  0  0  0  0  0
   21.0340  -21.2092  -13.4001 C   0  0  2  0  0  0  0  0  0  0  0  0
   22.4711  -21.2671  -13.1270 N   0  0  0  0  0  0  0  0  0  0  0  0
   20.2089  -21.3807  -12.1919 C   0  0  0  0  0  0  0  0  0  0  0  0
   20.7364  -21.7260  -11.1270 O   0  0  0  0  0  0  0  0  0  0  0  0
   18.8538  -21.1543  -12.2578 O   0  0  0  0  0  0  0  0  0  0  0  0
  2  1  1  1
  2  4  1  0
  2  3  1  0
  4  6  1  0
  4  5  1  1
  6  7  2  0
  9  8  1  1
 10  9  1  0
 11  9  1  0
 12 11  1  1
 13 12  1  0
 13  6  1  0
 14 12  1  0
 14 15  2  0
 16 17  1  0
 17 19  1  0
 17 18  2  0
 19 20  1  0
 21 20  1  0
 21 22  1  0
 23 22  1  6
 23 24  1  0
 23 25  1  0
 24 14  1  0
 25 26  2  0
 25 27  1  0
M  END
$$$$
