VLR.pdb
     RDKit          3D

 27 26  0  0  1  0  0  0  0  0999 V2000
   26.0262  -18.1356  -16.3235 C   0  0  0  0  0  0  0  0  0  0  0  0
   27.0041  -19.2546  -16.5428 C   0  0  1  0  0  0  0  0  0  0  0  0
   28.2441  -18.6405  -17.1817 C   0  0  0  0  0  0  0  0  0  0  0  0
   27.4352  -19.9428  -15.2908 C   0  0  2  0  0  0  0  0  0  0  0  0
   28.4095  -20.9940  -15.6322 N   0  0  0  0  0  0  0  0  0  0  0  0
   26.3509  -20.5658  -14.5120 C   0  0  0  0  0  0  0  0  0  0  0  0
   25.8400  -21.6432  -14.9788 O   0  0  0  0  0  0  0  0  0  0  0  0
   26.3946  -22.2366  -10.4958 C   0  0  0  0  0  0  0  0  0  0  0  0
   26.0890  -20.7330  -10.4103 C   0  0  2  0  0  0  0  0  0  0  0  0
   26.0858  -20.3959   -8.9458 C   0  0  0  0  0  0  0  0  0  0  0  0
   24.7966  -20.5306  -11.1119 C   0  0  0  0  0  0  0  0  0  0  0  0
   24.8116  -20.8050  -12.5954 C   0  0  2  0  0  0  0  0  0  0  0  0
   25.8204  -20.0860  -13.2939 N   0  0  0  0  0  0  0  0  0  0  0  0
   23.4794  -20.6615  -13.2384 C   0  0  0  0  0  0  0  0  0  0  0  0
   22.8511  -19.5622  -13.2143 O   0  0  0  0  0  0  0  0  0  0  0  0
   21.1680  -27.7084  -16.9372 N   0  0  0  0  0  0  0  0  0  0  0  0
   20.9703  -27.5019  -15.5515 C   0  0  0  0  0  0  0  0  0  0  0  0
   20.5522  -28.4820  -14.8034 N   0  0  0  0  0  0  0  0  0  0  0  0
   21.2170  -26.2335  -14.9296 N   0  0  0  0  0  0  0  0  0  0  0  0
   21.8128  -25.1449  -15.6594 C   0  0  0  0  0  0  0  0  0  0  0  0
   21.9931  -23.9756  -14.7261 C   0  0  0  0  0  0  0  0  0  0  0  0
   21.3161  -22.7736  -15.3867 C   0  0  0  0  0  0  0  0  0  0  0  0
   21.4875  -21.5589  -14.4518 C   0  0  2  0  0  0  0  0  0  0  0  0
   22.8373  -21.7369  -13.9139 N   0  0  0  0  0  0  0  0  0  0  0  0
   20.4346  -21.7115  -13.4328 C   0  0  0  0  0  0  0  0  0  0  0  0
   19.2520  -21.4991  -13.7292 O   0  0  0  0  0  0  0  0  0  0  0  0
   20.7764  -22.0906  -12.1555 O   0  0  0  0  0  0  0  0  0  0  0  0
  2  1  1  1
  2  4  1  0
  2  3  1  0
  4  6  1  0
  4  5  1  6
  6  7  2  0
  9  8  1  1
 10  9  1  0
 11  9  1  0
 12 11  1  1
 13 12  1  0
 13  6  1  0
 14 12  1  0
 14 15  2  0
 16 17  1  0
 17 19  1  0
 17 18  2  0
 19 20  1  0
 21 20  1  0
 21 22  1  0
 23 22  1  6
 23 24  1  0
 23 25  1  0
 24 14  1  0
 25 26  2  0
 25 27  1  0
M  END
$$$$
