VLR.pdb
     RDKit          3D

 27 26  0  0  1  0  0  0  0  0999 V2000
   28.8973  -19.6312  -16.5777 C   0  0  0  0  0  0  0  0  0  0  0  0
   27.8504  -19.0429  -15.6753 C   0  0  1  0  0  0  0  0  0  0  0  0
   27.9433  -17.5283  -15.8174 C   0  0  0  0  0  0  0  0  0  0  0  0
   26.4543  -19.4436  -16.0176 C   0  0  2  0  0  0  0  0  0  0  0  0
   25.6518  -18.2311  -16.2559 N   0  0  0  0  0  0  0  0  0  0  0  0
   25.7643  -20.2498  -14.9957 C   0  0  0  0  0  0  0  0  0  0  0  0
   25.9995  -21.5086  -14.9868 O   0  0  0  0  0  0  0  0  0  0  0  0
   26.1618  -22.0146  -11.3056 C   0  0  0  0  0  0  0  0  0  0  0  0
   25.9064  -20.5041  -11.1849 C   0  0  2  0  0  0  0  0  0  0  0  0
   26.1685  -20.1556   -9.7468 C   0  0  0  0  0  0  0  0  0  0  0  0
   24.5147  -20.2792  -11.6499 C   0  0  0  0  0  0  0  0  0  0  0  0
   24.2433  -20.6405  -13.0893 C   0  0  2  0  0  0  0  0  0  0  0  0
   24.8657  -19.7637  -14.0202 N   0  0  0  0  0  0  0  0  0  0  0  0
   22.8011  -20.8381  -13.3893 C   0  0  0  0  0  0  0  0  0  0  0  0
   22.0571  -19.8668  -13.7164 O   0  0  0  0  0  0  0  0  0  0  0  0
   16.8477  -26.6723  -12.8648 N   0  0  0  0  0  0  0  0  0  0  0  0
   17.8969  -26.4145  -11.9512 C   0  0  0  0  0  0  0  0  0  0  0  0
   18.2607  -27.3352  -11.1055 N   0  0  0  0  0  0  0  0  0  0  0  0
   18.5862  -25.1574  -11.9208 N   0  0  0  0  0  0  0  0  0  0  0  0
   18.1910  -24.0659  -12.7724 C   0  0  0  0  0  0  0  0  0  0  0  0
   19.0784  -24.0541  -13.9902 C   0  0  0  0  0  0  0  0  0  0  0  0
   20.4978  -23.7618  -13.5007 C   0  0  0  0  0  0  0  0  0  0  0  0
   20.7641  -22.2543  -13.6891 C   0  0  2  0  0  0  0  0  0  0  0  0
   22.1764  -22.1152  -13.3299 N   0  0  0  0  0  0  0  0  0  0  0  0
   19.8577  -21.5862  -12.7392 C   0  0  0  0  0  0  0  0  0  0  0  0
   20.1506  -21.5340  -11.5379 O   0  0  0  0  0  0  0  0  0  0  0  0
   18.6892  -21.0234  -13.1975 O   0  0  0  0  0  0  0  0  0  0  0  0
  2  1  1  6
  2  4  1  0
  2  3  1  0
  4  6  1  0
  4  5  1  1
  6  7  2  0
  9  8  1  1
 10  9  1  0
 11  9  1  0
 12 11  1  1
 13 12  1  0
 13  6  1  0
 14 12  1  0
 14 15  2  0
 16 17  1  0
 17 19  1  0
 17 18  2  0
 19 20  1  0
 21 20  1  0
 21 22  1  0
 23 22  1  1
 23 24  1  0
 23 25  1  0
 24 14  1  0
 25 26  2  0
 25 27  1  0
M  END
$$$$
