VLR.pdb
     RDKit          3D

 27 26  0  0  1  0  0  0  0  0999 V2000
   26.7521  -20.8845  -19.0063 C   0  0  0  0  0  0  0  0  0  0  0  0
   27.0061  -21.2132  -17.5627 C   0  0  1  0  0  0  0  0  0  0  0  0
   28.5170  -21.3136  -17.3904 C   0  0  0  0  0  0  0  0  0  0  0  0
   26.5101  -20.1815  -16.6054 C   0  0  2  0  0  0  0  0  0  0  0  0
   27.6344  -19.3163  -16.2073 N   0  0  0  0  0  0  0  0  0  0  0  0
   25.8893  -20.7106  -15.3787 C   0  0  0  0  0  0  0  0  0  0  0  0
   25.3051  -21.8471  -15.4621 O   0  0  0  0  0  0  0  0  0  0  0  0
   23.8571  -20.1394  -10.3423 C   0  0  0  0  0  0  0  0  0  0  0  0
   25.1433  -20.9648  -10.5030 C   0  0  2  0  0  0  0  0  0  0  0  0
   25.8785  -20.8400   -9.1983 C   0  0  0  0  0  0  0  0  0  0  0  0
   25.8485  -20.4101  -11.6855 C   0  0  0  0  0  0  0  0  0  0  0  0
   25.1758  -20.6475  -13.0149 C   0  0  2  0  0  0  0  0  0  0  0  0
   25.8785  -20.0811  -14.1141 N   0  0  0  0  0  0  0  0  0  0  0  0
   23.7360  -20.2788  -13.0251 C   0  0  0  0  0  0  0  0  0  0  0  0
   23.3555  -19.1013  -12.7560 O   0  0  0  0  0  0  0  0  0  0  0  0
   21.3588  -26.8493  -13.8228 N   0  0  0  0  0  0  0  0  0  0  0  0
   20.0651  -26.4127  -13.4516 C   0  0  0  0  0  0  0  0  0  0  0  0
   19.3312  -27.1516  -12.6702 N   0  0  0  0  0  0  0  0  0  0  0  0
   19.5229  -25.1670  -13.9106 N   0  0  0  0  0  0  0  0  0  0  0  0
   20.3316  -24.2181  -14.6303 C   0  0  0  0  0  0  0  0  0  0  0  0
   20.8950  -23.2196  -13.6523 C   0  0  0  0  0  0  0  0  0  0  0  0
   20.6166  -21.8303  -14.2285 C   0  0  0  0  0  0  0  0  0  0  0  0
   21.3084  -20.7925  -13.3210 C   0  0  2  0  0  0  0  0  0  0  0  0
   22.7101  -21.2146  -13.3360 N   0  0  0  0  0  0  0  0  0  0  0  0
   20.6703  -20.9541  -12.0031 C   0  0  0  0  0  0  0  0  0  0  0  0
   19.5432  -20.4851  -11.8003 O   0  0  0  0  0  0  0  0  0  0  0  0
   21.3354  -21.6280  -11.0053 O   0  0  0  0  0  0  0  0  0  0  0  0
  2  1  1  6
  2  4  1  0
  2  3  1  0
  4  6  1  0
  4  5  1  1
  6  7  2  0
  9  8  1  1
 10  9  1  0
 11  9  1  0
 12 11  1  1
 13 12  1  0
 13  6  1  0
 14 12  1  0
 14 15  2  0
 16 17  1  0
 17 19  1  0
 17 18  2  0
 19 20  1  0
 21 20  1  0
 21 22  1  0
 23 22  1  6
 23 24  1  0
 23 25  1  0
 24 14  1  0
 25 26  2  0
 25 27  1  0
M  END
$$$$
