VLR.pdb
     RDKit          3D

 27 26  0  0  1  0  0  0  0  0999 V2000
   21.5252  -19.7371  -17.6303 C   0  0  0  0  0  0  0  0  0  0  0  0
   21.6303  -19.8041  -16.1334 C   0  0  1  0  0  0  0  0  0  0  0  0
   20.3883  -19.1229  -15.5711 C   0  0  0  0  0  0  0  0  0  0  0  0
   21.6711  -21.1917  -15.5858 C   0  0  2  0  0  0  0  0  0  0  0  0
   20.5771  -21.9763  -16.1847 N   0  0  0  0  0  0  0  0  0  0  0  0
   21.5513  -21.2921  -14.1209 C   0  0  0  0  0  0  0  0  0  0  0  0
   22.5217  -20.8343  -13.4219 O   0  0  0  0  0  0  0  0  0  0  0  0
   20.4067  -21.3227   -9.2637 C   0  0  0  0  0  0  0  0  0  0  0  0
   21.1179  -20.2465  -10.0987 C   0  0  2  0  0  0  0  0  0  0  0  0
   20.8578  -18.9427   -9.3982 C   0  0  0  0  0  0  0  0  0  0  0  0
   20.5638  -20.3518  -11.4718 C   0  0  0  0  0  0  0  0  0  0  0  0
   20.3831  -21.7555  -11.9946 C   0  0  2  0  0  0  0  0  0  0  0  0
   20.4626  -21.8463  -13.4117 N   0  0  0  0  0  0  0  0  0  0  0  0
   19.1750  -22.4364  -11.4601 C   0  0  0  0  0  0  0  0  0  0  0  0
   18.1039  -21.7987  -11.2366 O   0  0  0  0  0  0  0  0  0  0  0  0
   17.7546  -27.1149   -6.1542 N   0  0  0  0  0  0  0  0  0  0  0  0
   18.4989  -26.2183   -5.3517 C   0  0  0  0  0  0  0  0  0  0  0  0
   18.6406  -26.4525   -4.0788 N   0  0  0  0  0  0  0  0  0  0  0  0
   19.1132  -25.0423   -5.8959 N   0  0  0  0  0  0  0  0  0  0  0  0
   18.4179  -24.2000   -6.8339 C   0  0  0  0  0  0  0  0  0  0  0  0
   18.5658  -24.7853   -8.2146 C   0  0  0  0  0  0  0  0  0  0  0  0
   17.8846  -23.8156   -9.1817 C   0  0  0  0  0  0  0  0  0  0  0  0
   17.9455  -24.4323  -10.5941 C   0  0  2  0  0  0  0  0  0  0  0  0
   19.1479  -23.8297  -11.1722 N   0  0  0  0  0  0  0  0  0  0  0  0
   16.7043  -23.9930  -11.2549 C   0  0  0  0  0  0  0  0  0  0  0  0
   16.1219  -22.9743  -10.8618 O   0  0  0  0  0  0  0  0  0  0  0  0
   16.2015  -24.7217  -12.3077 O   0  0  0  0  0  0  0  0  0  0  0  0
  2  1  1  6
  2  4  1  0
  2  3  1  0
  4  6  1  0
  4  5  1  6
  6  7  2  0
  9  8  1  1
 10  9  1  0
 11  9  1  0
 12 11  1  6
 13 12  1  0
 13  6  1  0
 14 12  1  0
 14 15  2  0
 16 17  1  0
 17 19  1  0
 17 18  2  0
 19 20  1  0
 21 20  1  0
 21 22  1  0
 23 22  1  1
 23 24  1  0
 23 25  1  0
 24 14  1  0
 25 26  2  0
 25 27  1  0
M  END
$$$$
