VYP.pdb
     RDKit          3D

 27 28  0  0  1  0  0  0  0  0999 V2000
    5.9974  -20.2595   20.4297 C   0  0  0  0  0  0  0  0  0  0  0  0
    6.3465  -20.8514   21.7544 C   0  0  1  0  0  0  0  0  0  0  0  0
    7.8163  -20.7129   22.0175 C   0  0  0  0  0  0  0  0  0  0  0  0
    5.5067  -20.3373   22.8979 C   0  0  2  0  0  0  0  0  0  0  0  0
    4.1427  -20.7480   22.7709 N   0  0  0  0  0  0  0  0  0  0  0  0
    5.6663  -18.9021   23.1601 C   0  0  0  0  0  0  0  0  0  0  0  0
    5.0076  -18.0634   22.5054 O   0  0  0  0  0  0  0  0  0  0  0  0
    7.5397  -11.1006   26.8010 O   0  0  0  0  0  0  0  0  0  0  0  0
    7.4286  -12.4478   26.5483 C   0  0  0  0  0  0  0  0  0  0  0  0
    8.5564  -13.1924   26.3419 C   0  0  0  0  0  0  0  0  0  0  0  0
    8.4527  -14.5564   26.0855 C   0  0  0  0  0  0  0  0  0  0  0  0
    7.2303  -15.1914   26.0319 C   0  0  0  0  0  0  0  0  0  0  0  0
    7.1810  -16.6278   25.7571 C   0  0  0  0  0  0  0  0  0  0  0  0
    6.7669  -16.9612   24.3230 C   0  0  2  0  0  0  0  0  0  0  0  0
    6.5595  -18.3602   24.1535 N   0  0  0  0  0  0  0  0  0  0  0  0
    7.8128  -16.4370   23.4632 C   0  0  0  0  0  0  0  0  0  0  0  0
    8.8893  -17.1665   23.4382 O   0  0  0  0  0  0  0  0  0  0  0  0
    6.1059  -14.4211   26.2430 C   0  0  0  0  0  0  0  0  0  0  0  0
    6.1854  -13.0622   26.4998 C   0  0  0  0  0  0  0  0  0  0  0  0
    7.8334  -15.2560   22.6514 N   0  0  0  0  0  0  0  0  0  0  0  0
    6.8554  -14.2273   22.6249 C   0  0  0  0  0  0  0  0  0  0  0  0
    7.5687  -13.0000   22.0867 C   0  0  0  0  0  0  0  0  0  0  0  0
    8.5057  -13.6673   21.0687 C   0  0  0  0  0  0  0  0  0  0  0  0
    8.9080  -14.9337   21.7153 C   0  0  1  0  0  0  0  0  0  0  0  0
   10.2176  -14.8801   22.3896 C   0  0  0  0  0  0  0  0  0  0  0  0
   11.4187  -14.8122   21.7084 O   0  0  0  0  0  0  0  0  0  0  0  0
   10.2509  -14.8964   23.6413 O   0  0  0  0  0  0  0  0  0  0  0  0
  2  1  1  6
  2  4  1  0
  2  3  1  0
  4  5  1  6
  6  4  1  0
  6  7  2  0
  8  9  1  0
  9 10  2  0
 10 11  1  0
 12 13  1  0
 12 11  2  0
 14 13  1  1
 14 15  1  0
 15  6  1  0
 16 20  1  0
 16 14  1  0
 17 16  2  0
 18 12  1  0
 19 18  2  0
 19  9  1  0
 20 24  1  0
 21 20  1  0
 22 21  1  0
 22 23  1  0
 24 23  1  0
 24 25  1  1
 26 25  1  0
 27 25  2  0
M  END
$$$$
