VYP.pdb
     RDKit          3D

 27 28  0  0  1  0  0  0  0  0999 V2000
    6.6168  -22.1629   21.0467 C   0  0  0  0  0  0  0  0  0  0  0  0
    7.2086  -20.8551   21.4548 C   0  0  1  0  0  0  0  0  0  0  0  0
    8.5867  -20.7042   20.8833 C   0  0  0  0  0  0  0  0  0  0  0  0
    6.3302  -19.6641   21.1597 C   0  0  2  0  0  0  0  0  0  0  0  0
    6.0389  -19.5625   19.7632 N   0  0  0  0  0  0  0  0  0  0  0  0
    6.8039  -18.4086   21.7541 C   0  0  0  0  0  0  0  0  0  0  0  0
    7.4886  -17.6086   21.0779 O   0  0  0  0  0  0  0  0  0  0  0  0
    7.9087  -11.4639   27.1066 O   0  0  0  0  0  0  0  0  0  0  0  0
    7.4907  -12.6521   26.5545 C   0  0  0  0  0  0  0  0  0  0  0  0
    7.9082  -13.8345   27.0990 C   0  0  0  0  0  0  0  0  0  0  0  0
    7.4899  -15.0415   26.5464 C   0  0  0  0  0  0  0  0  0  0  0  0
    6.6550  -15.0842   25.4502 C   0  0  0  0  0  0  0  0  0  0  0  0
    6.2482  -16.3819   24.9103 C   0  0  0  0  0  0  0  0  0  0  0  0
    7.0524  -16.8114   23.6823 C   0  0  2  0  0  0  0  0  0  0  0  0
    6.5314  -18.0081   23.1119 N   0  0  0  0  0  0  0  0  0  0  0  0
    8.4291  -16.9485   24.1227 C   0  0  0  0  0  0  0  0  0  0  0  0
    8.6180  -17.9199   24.9667 O   0  0  0  0  0  0  0  0  0  0  0  0
    6.2462  -13.8796   24.9173 C   0  0  0  0  0  0  0  0  0  0  0  0
    6.6499  -12.6667   25.4508 C   0  0  0  0  0  0  0  0  0  0  0  0
    9.5902  -16.1856   23.7703 N   0  0  0  0  0  0  0  0  0  0  0  0
    9.6191  -14.9851   23.0131 C   0  0  0  0  0  0  0  0  0  0  0  0
   10.9182  -14.2962   23.3903 C   0  0  0  0  0  0  0  0  0  0  0  0
   11.8259  -15.5238   23.5598 C   0  0  0  0  0  0  0  0  0  0  0  0
   10.9493  -16.5473   24.1662 C   0  0  1  0  0  0  0  0  0  0  0  0
   11.0760  -16.6628   25.6301 C   0  0  0  0  0  0  0  0  0  0  0  0
   10.0570  -16.3396   26.5069 O   0  0  0  0  0  0  0  0  0  0  0  0
   12.1573  -17.0734   26.1099 O   0  0  0  0  0  0  0  0  0  0  0  0
  2  1  1  6
  2  4  1  0
  2  3  1  0
  4  5  1  6
  6  4  1  0
  6  7  2  0
  8  9  1  0
  9 10  2  0
 10 11  1  0
 12 13  1  0
 12 11  2  0
 14 13  1  1
 14 15  1  0
 15  6  1  0
 16 20  1  0
 16 14  1  0
 17 16  2  0
 18 12  1  0
 19 18  2  0
 19  9  1  0
 20 24  1  0
 21 20  1  0
 22 21  1  0
 22 23  1  0
 24 23  1  0
 24 25  1  1
 26 25  1  0
 27 25  2  0
M  END
$$$$
