VYP.pdb
     RDKit          3D

 27 28  0  0  1  0  0  0  0  0999 V2000
    7.8427  -13.7057   20.7804 C   0  0  0  0  0  0  0  0  0  0  0  0
    7.5355  -15.0255   20.1550 C   0  0  1  0  0  0  0  0  0  0  0  0
    8.1856  -15.1290   18.8076 C   0  0  0  0  0  0  0  0  0  0  0  0
    7.8466  -16.2104   21.0360 C   0  0  2  0  0  0  0  0  0  0  0  0
    7.3903  -17.4323   20.4495 N   0  0  0  0  0  0  0  0  0  0  0  0
    7.4360  -16.0408   22.4349 C   0  0  0  0  0  0  0  0  0  0  0  0
    6.2378  -16.1894   22.7638 O   0  0  0  0  0  0  0  0  0  0  0  0
    6.7382  -21.7888   25.1614 O   0  0  0  0  0  0  0  0  0  0  0  0
    7.2069  -20.5036   25.3031 C   0  0  0  0  0  0  0  0  0  0  0  0
    6.5113  -19.6109   26.0700 C   0  0  0  0  0  0  0  0  0  0  0  0
    6.9786  -18.3084   26.2186 C   0  0  0  0  0  0  0  0  0  0  0  0
    8.1387  -17.8822   25.6079 C   0  0  0  0  0  0  0  0  0  0  0  0
    8.5821  -16.5008   25.7981 C   0  0  0  0  0  0  0  0  0  0  0  0
    7.9112  -15.5079   24.8476 C   0  0  2  0  0  0  0  0  0  0  0  0
    8.3421  -15.7020   23.5038 N   0  0  0  0  0  0  0  0  0  0  0  0
    8.2214  -14.1833   25.3544 C   0  0  0  0  0  0  0  0  0  0  0  0
    9.4762  -13.8584   25.2466 O   0  0  0  0  0  0  0  0  0  0  0  0
    8.8243  -18.7993   24.8390 C   0  0  0  0  0  0  0  0  0  0  0  0
    8.3778  -20.1005   24.6772 C   0  0  0  0  0  0  0  0  0  0  0  0
    7.3642  -13.1978   25.9446 N   0  0  0  0  0  0  0  0  0  0  0  0
    5.9483  -13.2487   26.0338 C   0  0  0  0  0  0  0  0  0  0  0  0
    5.5788  -12.3302   27.1847 C   0  0  0  0  0  0  0  0  0  0  0  0
    6.6406  -11.2361   26.9977 C   0  0  0  0  0  0  0  0  0  0  0  0
    7.8498  -11.9680   26.5665 C   0  0  1  0  0  0  0  0  0  0  0  0
    8.8066  -12.2495   27.6518 C   0  0  0  0  0  0  0  0  0  0  0  0
    9.6819  -11.3048   28.1546 O   0  0  0  0  0  0  0  0  0  0  0  0
    8.8329  -13.3992   28.1475 O   0  0  0  0  0  0  0  0  0  0  0  0
  2  1  1  1
  2  4  1  0
  2  3  1  0
  4  5  1  6
  6  4  1  0
  6  7  2  0
  8  9  1  0
  9 10  2  0
 10 11  1  0
 12 13  1  0
 12 11  2  0
 14 13  1  1
 14 15  1  0
 15  6  1  0
 16 20  1  0
 16 14  1  0
 17 16  2  0
 18 12  1  0
 19 18  2  0
 19  9  1  0
 20 24  1  0
 21 20  1  0
 22 21  1  0
 22 23  1  0
 24 23  1  0
 24 25  1  1
 26 25  1  0
 27 25  2  0
M  END
$$$$
