HLC.pdb
     RDKit          3D

 25 25  0  0  1  0  0  0  0  0999 V2000
    9.6517  -18.3556   18.8388 N   0  0  0  0  0  0  0  0  0  0  0  0
   10.8285  -17.5282   18.7756 C   0  0  1  0  0  0  0  0  0  0  0  0
   11.0632  -17.0326   17.3643 C   0  0  0  0  0  0  0  0  0  0  0  0
   11.1699  -18.1807   16.4312 C   0  0  0  0  0  0  0  0  0  0  0  0
   10.8293  -19.4688   16.7609 C   0  0  0  0  0  0  0  0  0  0  0  0
   11.0581  -20.2254   15.6720 N   0  0  0  0  0  0  0  0  0  0  0  0
   11.5274  -19.4424   14.6878 C   0  0  0  0  0  0  0  0  0  0  0  0
   11.5979  -18.1686   15.1580 N   0  0  0  0  0  0  0  0  0  0  0  0
   10.7391  -16.3366   19.6539 C   0  0  0  0  0  0  0  0  0  0  0  0
   11.7315  -15.5716   19.6827 O   0  0  0  0  0  0  0  0  0  0  0  0
    6.1600  -13.6205   20.2624 C   0  0  0  0  0  0  0  0  0  0  0  0
    7.6274  -14.0173   20.1555 C   0  0  1  0  0  0  0  0  0  0  0  0
    8.3010  -12.7589   19.5592 C   0  0  0  0  0  0  0  0  0  0  0  0
    8.2171  -14.3243   21.5022 C   0  0  0  0  0  0  0  0  0  0  0  0
    9.5815  -14.8975   21.3660 C   0  0  2  0  0  0  0  0  0  0  0  0
    9.6175  -16.0227   20.4447 N   0  0  0  0  0  0  0  0  0  0  0  0
   10.0518  -15.3784   22.6805 C   0  0  0  0  0  0  0  0  0  0  0  0
    9.4326  -15.2750   23.7588 O   0  0  0  0  0  0  0  0  0  0  0  0
   11.3328  -16.0305   22.7740 N   0  0  0  0  0  0  0  0  0  0  0  0
   11.7447  -16.6774   23.9804 C   0  0  1  0  0  0  0  0  0  0  0  0
   10.8100  -17.8022   24.3666 C   0  0  0  0  0  0  0  0  0  0  0  0
   11.3494  -18.6864   25.8345 S   0  0  0  0  0  0  0  0  0  0  0  0
   13.0952  -17.2481   23.8346 C   0  0  0  0  0  0  0  0  0  0  0  0
   14.2215  -16.4508   23.7348 O   0  0  0  0  0  0  0  0  0  0  0  0
   13.2376  -18.5058   23.7988 O   0  0  0  0  0  0  0  0  0  0  0  0
  2  1  1  6
  2  9  1  0
  3  2  1  0
  4  3  1  0
  5  4  2  0
  6  7  1  0
  6  5  1  0
  7  8  2  0
  8  4  1  0
  9 16  1  0
 10  9  2  0
 12 11  1  1
 12 13  1  0
 14 12  1  0
 15 14  1  1
 16 15  1  0
 17 19  1  0
 17 15  1  0
 18 17  2  0
 20 19  1  0
 20 23  1  0
 20 21  1  6
 22 21  1  0
 23 24  1  0
 25 23  2  0
M  END
$$$$
