HLC.pdb
     RDKit          3D

 25 25  0  0  1  0  0  0  0  0999 V2000
    9.2671  -18.2757   19.2458 N   0  0  0  0  0  0  0  0  0  0  0  0
   10.4623  -17.4743   19.2984 C   0  0  1  0  0  0  0  0  0  0  0  0
   10.8232  -16.9547   17.9228 C   0  0  0  0  0  0  0  0  0  0  0  0
   11.2412  -18.0763   17.0468 C   0  0  0  0  0  0  0  0  0  0  0  0
   11.4904  -19.3481   17.4987 C   0  0  0  0  0  0  0  0  0  0  0  0
   11.8416  -20.0826   16.4275 N   0  0  0  0  0  0  0  0  0  0  0  0
   11.8153  -19.3018   15.3358 C   0  0  0  0  0  0  0  0  0  0  0  0
   11.4417  -18.0519   15.7189 N   0  0  0  0  0  0  0  0  0  0  0  0
   10.3260  -16.2997   20.1934 C   0  0  0  0  0  0  0  0  0  0  0  0
   11.3367  -15.5736   20.3421 O   0  0  0  0  0  0  0  0  0  0  0  0
    6.3712  -13.0929   19.6057 C   0  0  0  0  0  0  0  0  0  0  0  0
    7.7277  -13.6807   19.9753 C   0  0  1  0  0  0  0  0  0  0  0  0
    8.7224  -12.5524   19.6143 C   0  0  0  0  0  0  0  0  0  0  0  0
    7.8153  -13.9905   21.4423 C   0  0  0  0  0  0  0  0  0  0  0  0
    9.0251  -14.7996   21.7426 C   0  0  2  0  0  0  0  0  0  0  0  0
    9.1413  -15.9611   20.8744 N   0  0  0  0  0  0  0  0  0  0  0  0
    8.9651  -15.2848   23.1359 C   0  0  0  0  0  0  0  0  0  0  0  0
    8.8061  -14.5742   24.1491 O   0  0  0  0  0  0  0  0  0  0  0  0
    9.0971  -16.6954   23.3960 N   0  0  0  0  0  0  0  0  0  0  0  0
    9.0768  -17.2040   24.7319 C   0  0  1  0  0  0  0  0  0  0  0  0
    7.8155  -17.9879   25.0195 C   0  0  0  0  0  0  0  0  0  0  0  0
    6.3640  -16.9417   25.1817 S   0  0  0  0  0  0  0  0  0  0  0  0
   10.2233  -18.0981   24.9701 C   0  0  0  0  0  0  0  0  0  0  0  0
   10.4698  -18.6604   26.2101 O   0  0  0  0  0  0  0  0  0  0  0  0
   11.0118  -18.3650   24.0159 O   0  0  0  0  0  0  0  0  0  0  0  0
  2  1  1  6
  2  9  1  0
  3  2  1  0
  4  3  1  0
  5  4  2  0
  6  7  1  0
  6  5  1  0
  7  8  2  0
  8  4  1  0
  9 16  1  0
 10  9  2  0
 12 11  1  1
 12 13  1  0
 14 12  1  0
 15 14  1  6
 16 15  1  0
 17 19  1  0
 17 15  1  0
 18 17  2  0
 20 19  1  0
 20 23  1  0
 20 21  1  6
 22 21  1  0
 23 24  1  0
 25 23  2  0
M  END
$$$$
