HLC.pdb
     RDKit          3D

 25 25  0  0  1  0  0  0  0  0999 V2000
   10.3256  -14.1893   20.9479 N   0  0  0  0  0  0  0  0  0  0  0  0
    8.9793  -14.1928   21.4587 C   0  0  1  0  0  0  0  0  0  0  0  0
    8.1104  -15.1577   20.6799 C   0  0  0  0  0  0  0  0  0  0  0  0
    7.9173  -14.6662   19.2938 C   0  0  0  0  0  0  0  0  0  0  0  0
    8.5320  -13.5491   18.7856 C   0  0  0  0  0  0  0  0  0  0  0  0
    8.1185  -13.4200   17.5117 N   0  0  0  0  0  0  0  0  0  0  0  0
    7.2715  -14.4211   17.2245 C   0  0  0  0  0  0  0  0  0  0  0  0
    7.1446  -15.1986   18.3327 N   0  0  0  0  0  0  0  0  0  0  0  0
    8.9089  -14.5875   22.8865 C   0  0  0  0  0  0  0  0  0  0  0  0
    9.8439  -15.2936   23.3314 O   0  0  0  0  0  0  0  0  0  0  0  0
    5.4411  -11.8660   26.4764 C   0  0  0  0  0  0  0  0  0  0  0  0
    6.7285  -12.4537   25.9109 C   0  0  1  0  0  0  0  0  0  0  0  0
    7.8119  -11.9815   26.9089 C   0  0  0  0  0  0  0  0  0  0  0  0
    6.6832  -13.9546   25.8766 C   0  0  0  0  0  0  0  0  0  0  0  0
    7.8756  -14.5058   25.1817 C   0  0  2  0  0  0  0  0  0  0  0  0
    7.8651  -14.2179   23.7558 N   0  0  0  0  0  0  0  0  0  0  0  0
    7.9106  -15.9731   25.3431 C   0  0  0  0  0  0  0  0  0  0  0  0
    6.9920  -16.7618   25.0413 O   0  0  0  0  0  0  0  0  0  0  0  0
    9.0887  -16.5925   25.8936 N   0  0  0  0  0  0  0  0  0  0  0  0
    9.1474  -18.0045   26.1090 C   0  0  1  0  0  0  0  0  0  0  0  0
   10.2201  -18.6608   25.2684 C   0  0  0  0  0  0  0  0  0  0  0  0
   11.7786  -17.7677   25.3023 S   0  0  0  0  0  0  0  0  0  0  0  0
    9.4376  -18.3079   27.5213 C   0  0  0  0  0  0  0  0  0  0  0  0
    9.4153  -19.6009   28.0132 O   0  0  0  0  0  0  0  0  0  0  0  0
    9.7168  -17.3619   28.3153 O   0  0  0  0  0  0  0  0  0  0  0  0
  2  1  1  6
  2  9  1  0
  3  2  1  0
  4  3  1  0
  5  4  2  0
  6  7  1  0
  6  5  1  0
  7  8  2  0
  8  4  1  0
  9 16  1  0
 10  9  2  0
 12 11  1  1
 12 13  1  0
 14 12  1  0
 15 14  1  1
 16 15  1  0
 17 19  1  0
 17 15  1  0
 18 17  2  0
 20 19  1  0
 20 23  1  0
 20 21  1  6
 22 21  1  0
 23 24  1  0
 25 23  2  0
M  END
$$$$
