HLC.pdb
     RDKit          3D

 25 25  0  0  1  0  0  0  0  0999 V2000
   10.7936  -15.3983   20.4731 N   0  0  0  0  0  0  0  0  0  0  0  0
    9.5741  -14.8069   20.9594 C   0  0  1  0  0  0  0  0  0  0  0  0
    8.3661  -15.4768   20.3393 C   0  0  0  0  0  0  0  0  0  0  0  0
    7.9008  -14.7027   19.1628 C   0  0  0  0  0  0  0  0  0  0  0  0
    8.5512  -13.6009   18.6660 C   0  0  0  0  0  0  0  0  0  0  0  0
    7.8408  -13.1709   17.6072 N   0  0  0  0  0  0  0  0  0  0  0  0
    6.7778  -13.9736   17.4405 C   0  0  0  0  0  0  0  0  0  0  0  0
    6.8128  -14.9282   18.4079 N   0  0  0  0  0  0  0  0  0  0  0  0
    9.4324  -14.9142   22.4317 C   0  0  0  0  0  0  0  0  0  0  0  0
   10.3533  -15.4931   23.0543 O   0  0  0  0  0  0  0  0  0  0  0  0
    8.2465  -12.7127   27.1939 C   0  0  0  0  0  0  0  0  0  0  0  0
    7.1161  -13.5555   26.6156 C   0  0  1  0  0  0  0  0  0  0  0  0
    5.8386  -12.8401   27.1144 C   0  0  0  0  0  0  0  0  0  0  0  0
    7.1449  -13.5642   25.1140 C   0  0  0  0  0  0  0  0  0  0  0  0
    8.3013  -14.3499   24.6100 C   0  0  2  0  0  0  0  0  0  0  0  0
    8.3366  -14.4089   23.1568 N   0  0  0  0  0  0  0  0  0  0  0  0
    8.2179  -15.7355   25.1136 C   0  0  0  0  0  0  0  0  0  0  0  0
    7.2385  -16.4985   24.9895 O   0  0  0  0  0  0  0  0  0  0  0  0
    9.3427  -16.2976   25.8162 N   0  0  0  0  0  0  0  0  0  0  0  0
    9.2960  -17.6273   26.3390 C   0  0  1  0  0  0  0  0  0  0  0  0
   10.1558  -18.5802   25.5387 C   0  0  0  0  0  0  0  0  0  0  0  0
   11.6582  -17.8140   24.9194 S   0  0  0  0  0  0  0  0  0  0  0  0
    9.7710  -17.6595   27.7333 C   0  0  0  0  0  0  0  0  0  0  0  0
    9.7645  -18.8219   28.4837 O   0  0  0  0  0  0  0  0  0  0  0  0
   10.1998  -16.5949   28.2683 O   0  0  0  0  0  0  0  0  0  0  0  0
  2  1  1  6
  2  9  1  0
  3  2  1  0
  4  3  1  0
  5  4  2  0
  6  7  1  0
  6  5  1  0
  7  8  2  0
  8  4  1  0
  9 16  1  0
 10  9  2  0
 12 11  1  1
 12 13  1  0
 14 12  1  0
 15 14  1  6
 16 15  1  0
 17 19  1  0
 17 15  1  0
 18 17  2  0
 20 19  1  0
 20 23  1  0
 20 21  1  6
 22 21  1  0
 23 24  1  0
 25 23  2  0
M  END
$$$$
