HLC.pdb
     RDKit          3D

 25 25  0  0  1  0  0  0  0  0999 V2000
    7.2547  -15.7524   21.1492 N   0  0  0  0  0  0  0  0  0  0  0  0
    8.5246  -15.1711   21.5000 C   0  0  1  0  0  0  0  0  0  0  0  0
    8.7088  -13.8302   20.8214 C   0  0  0  0  0  0  0  0  0  0  0  0
    8.4786  -13.9607   19.3619 C   0  0  0  0  0  0  0  0  0  0  0  0
    8.1693  -15.1439   18.7390 C   0  0  0  0  0  0  0  0  0  0  0  0
    8.0352  -14.8730   17.4278 N   0  0  0  0  0  0  0  0  0  0  0  0
    8.2523  -13.5633   17.2288 C   0  0  0  0  0  0  0  0  0  0  0  0
    8.5287  -12.9929   18.4317 N   0  0  0  0  0  0  0  0  0  0  0  0
    8.6712  -14.9523   22.9594 C   0  0  0  0  0  0  0  0  0  0  0  0
    9.8066  -14.6254   23.3775 O   0  0  0  0  0  0  0  0  0  0  0  0
    5.7620  -11.8593   26.1924 C   0  0  0  0  0  0  0  0  0  0  0  0
    6.9058  -12.6966   25.6330 C   0  0  1  0  0  0  0  0  0  0  0  0
    8.1535  -12.1338   26.3535 C   0  0  0  0  0  0  0  0  0  0  0  0
    6.7379  -14.1525   25.9617 C   0  0  0  0  0  0  0  0  0  0  0  0
    7.8051  -14.9670   25.3242 C   0  0  2  0  0  0  0  0  0  0  0  0
    7.6206  -15.0896   23.8864 N   0  0  0  0  0  0  0  0  0  0  0  0
    7.7989  -16.3286   25.8953 C   0  0  0  0  0  0  0  0  0  0  0  0
    6.7857  -17.0242   26.1107 O   0  0  0  0  0  0  0  0  0  0  0  0
    9.0498  -16.9485   26.2501 N   0  0  0  0  0  0  0  0  0  0  0  0
    9.1439  -18.3618   26.4433 C   0  0  1  0  0  0  0  0  0  0  0  0
    8.8049  -19.1286   25.1843 C   0  0  0  0  0  0  0  0  0  0  0  0
    9.0071  -20.9039   25.3715 S   0  0  0  0  0  0  0  0  0  0  0  0
   10.5075  -18.7461   26.8477 C   0  0  0  0  0  0  0  0  0  0  0  0
   11.6305  -18.1695   26.2813 O   0  0  0  0  0  0  0  0  0  0  0  0
   10.6648  -19.6304   27.7403 O   0  0  0  0  0  0  0  0  0  0  0  0
  2  1  1  1
  2  9  1  0
  3  2  1  0
  4  3  1  0
  5  4  2  0
  6  7  1  0
  6  5  1  0
  7  8  2  0
  8  4  1  0
  9 16  1  0
 10  9  2  0
 12 11  1  1
 12 13  1  0
 14 12  1  0
 15 14  1  1
 16 15  1  0
 17 19  1  0
 17 15  1  0
 18 17  2  0
 20 19  1  0
 20 23  1  0
 20 21  1  6
 22 21  1  0
 23 24  1  0
 25 23  2  0
M  END
$$$$
