HLC.pdb
     RDKit          3D

 25 25  0  0  1  0  0  0  0  0999 V2000
    9.7344  -17.5057   17.0535 N   0  0  0  0  0  0  0  0  0  0  0  0
   10.9906  -16.9088   17.4261 C   0  0  1  0  0  0  0  0  0  0  0  0
   11.5496  -16.0774   16.2908 C   0  0  0  0  0  0  0  0  0  0  0  0
   10.8048  -16.3566   15.0388 C   0  0  0  0  0  0  0  0  0  0  0  0
    9.5869  -16.9882   14.9978 C   0  0  0  0  0  0  0  0  0  0  0  0
    9.2277  -17.0626   13.7032 N   0  0  0  0  0  0  0  0  0  0  0  0
   10.1858  -16.4975   12.9517 C   0  0  0  0  0  0  0  0  0  0  0  0
   11.1690  -16.0570   13.7811 N   0  0  0  0  0  0  0  0  0  0  0  0
   10.8753  -16.0217   18.6090 C   0  0  0  0  0  0  0  0  0  0  0  0
   11.9256  -15.4726   19.0167 O   0  0  0  0  0  0  0  0  0  0  0  0
    6.6513  -12.7566   19.7080 C   0  0  0  0  0  0  0  0  0  0  0  0
    8.0229  -13.4088   19.5828 C   0  0  1  0  0  0  0  0  0  0  0  0
    9.0004  -12.2113   19.6385 C   0  0  0  0  0  0  0  0  0  0  0  0
    8.2960  -14.3463   20.7240 C   0  0  0  0  0  0  0  0  0  0  0  0
    9.6002  -15.0357   20.5440 C   0  0  2  0  0  0  0  0  0  0  0  0
    9.6689  -15.7669   19.2883 N   0  0  0  0  0  0  0  0  0  0  0  0
    9.8054  -16.0045   21.6394 C   0  0  0  0  0  0  0  0  0  0  0  0
    9.1514  -17.0520   21.8181 O   0  0  0  0  0  0  0  0  0  0  0  0
   10.8406  -15.7596   22.6105 N   0  0  0  0  0  0  0  0  0  0  0  0
   11.4489  -16.8364   23.3275 C   0  0  1  0  0  0  0  0  0  0  0  0
   12.0725  -17.8538   22.3980 C   0  0  0  0  0  0  0  0  0  0  0  0
   12.8112  -19.2387   23.2722 S   0  0  0  0  0  0  0  0  0  0  0  0
   12.5087  -16.3385   24.2217 C   0  0  0  0  0  0  0  0  0  0  0  0
   12.6543  -16.8036   25.5166 O   0  0  0  0  0  0  0  0  0  0  0  0
   13.3149  -15.4581   23.7995 O   0  0  0  0  0  0  0  0  0  0  0  0
  2  1  1  6
  2  9  1  0
  3  2  1  0
  4  3  1  0
  5  4  2  0
  6  7  1  0
  6  5  1  0
  7  8  2  0
  8  4  1  0
  9 16  1  0
 10  9  2  0
 12 11  1  1
 12 13  1  0
 14 12  1  0
 15 14  1  1
 16 15  1  0
 17 19  1  0
 17 15  1  0
 18 17  2  0
 20 19  1  0
 20 23  1  0
 20 21  1  6
 22 21  1  0
 23 24  1  0
 25 23  2  0
M  END
$$$$
