HLC.pdb
     RDKit          3D

 25 25  0  0  1  0  0  0  0  0999 V2000
   10.5820  -15.6690   20.3798 N   0  0  0  0  0  0  0  0  0  0  0  0
    9.2516  -15.4042   20.8629 C   0  0  1  0  0  0  0  0  0  0  0  0
    8.3115  -16.5335   20.4976 C   0  0  0  0  0  0  0  0  0  0  0  0
    7.8210  -16.3603   19.1086 C   0  0  0  0  0  0  0  0  0  0  0  0
    8.2355  -15.3555   18.2705 C   0  0  0  0  0  0  0  0  0  0  0  0
    7.5800  -15.5205   17.1070 N   0  0  0  0  0  0  0  0  0  0  0  0
    6.7786  -16.5928   17.2063 C   0  0  0  0  0  0  0  0  0  0  0  0
    6.9268  -17.1176   18.4518 N   0  0  0  0  0  0  0  0  0  0  0  0
    9.1983  -15.2431   22.3362 C   0  0  0  0  0  0  0  0  0  0  0  0
   10.0810  -15.8267   23.0077 O   0  0  0  0  0  0  0  0  0  0  0  0
    8.2685  -12.4685   26.9127 C   0  0  0  0  0  0  0  0  0  0  0  0
    7.0931  -13.2915   26.3992 C   0  0  1  0  0  0  0  0  0  0  0  0
    5.8567  -12.4776   26.8481 C   0  0  0  0  0  0  0  0  0  0  0  0
    7.1125  -13.4095   24.9021 C   0  0  0  0  0  0  0  0  0  0  0  0
    8.2172  -14.2968   24.4538 C   0  0  2  0  0  0  0  0  0  0  0  0
    8.2250  -14.4820   23.0110 N   0  0  0  0  0  0  0  0  0  0  0  0
    8.0694  -15.6275   25.0765 C   0  0  0  0  0  0  0  0  0  0  0  0
    7.0473  -16.3420   25.0356 O   0  0  0  0  0  0  0  0  0  0  0  0
    9.1770  -16.1902   25.8055 N   0  0  0  0  0  0  0  0  0  0  0  0
    9.0955  -17.4979   26.3771 C   0  0  1  0  0  0  0  0  0  0  0  0
    9.8478  -18.5218   25.5563 C   0  0  0  0  0  0  0  0  0  0  0  0
   11.4916  -17.9697   25.0861 S   0  0  0  0  0  0  0  0  0  0  0  0
    9.6613  -17.5118   27.7374 C   0  0  0  0  0  0  0  0  0  0  0  0
    9.5986  -18.6325   28.5464 O   0  0  0  0  0  0  0  0  0  0  0  0
   10.2237  -16.4702   28.1870 O   0  0  0  0  0  0  0  0  0  0  0  0
  2  1  1  1
  2  9  1  0
  3  2  1  0
  4  3  1  0
  5  4  2  0
  6  7  1  0
  6  5  1  0
  7  8  2  0
  8  4  1  0
  9 16  1  0
 10  9  2  0
 12 11  1  6
 12 13  1  0
 14 12  1  0
 15 14  1  6
 16 15  1  0
 17 19  1  0
 17 15  1  0
 18 17  2  0
 20 19  1  0
 20 23  1  0
 20 21  1  6
 22 21  1  0
 23 24  1  0
 25 23  2  0
M  END
$$$$
