YLH.pdb
     RDKit          3D

 31 32  0  0  1  0  0  0  0  0999 V2000
   19.0254  -15.6117  -23.8133 O   0  0  0  0  0  0  0  0  0  0  0  0
   19.2754  -14.9228  -22.6097 C   0  0  0  0  0  0  0  0  0  0  0  0
   18.5118  -15.1249  -21.4925 C   0  0  0  0  0  0  0  0  0  0  0  0
   18.7762  -14.4337  -20.3138 C   0  0  0  0  0  0  0  0  0  0  0  0
   19.8093  -13.5275  -20.2307 C   0  0  0  0  0  0  0  0  0  0  0  0
   20.1055  -12.7860  -18.9929 C   0  0  0  0  0  0  0  0  0  0  0  0
   21.1999  -13.4257  -18.1703 C   0  0  2  0  0  0  0  0  0  0  0  0
   20.8133  -14.6709  -17.5899 N   0  0  0  0  0  0  0  0  0  0  0  0
   21.5548  -12.4694  -17.0945 C   0  0  0  0  0  0  0  0  0  0  0  0
   20.9214  -12.5296  -16.0098 O   0  0  0  0  0  0  0  0  0  0  0  0
   20.5692  -13.3342  -21.3617 C   0  0  0  0  0  0  0  0  0  0  0  0
   20.3113  -14.0207  -22.5426 C   0  0  0  0  0  0  0  0  0  0  0  0
   24.4538  -12.1361  -14.2741 C   0  0  0  0  0  0  0  0  0  0  0  0
   25.0423  -11.6190  -15.6046 C   0  0  2  0  0  0  0  0  0  0  0  0
   26.5213  -11.5427  -15.4910 C   0  0  0  0  0  0  0  0  0  0  0  0
   24.3060  -10.3807  -15.9802 C   0  0  0  0  0  0  0  0  0  0  0  0
   22.8614  -10.5904  -16.1847 C   0  0  2  0  0  0  0  0  0  0  0  0
   22.5835  -11.4957  -17.2572 N   0  0  0  0  0  0  0  0  0  0  0  0
   22.1291   -9.3202  -16.4708 C   0  0  0  0  0  0  0  0  0  0  0  0
   22.5204   -8.5737  -17.3838 O   0  0  0  0  0  0  0  0  0  0  0  0
   20.9678   -8.9087  -15.7257 N   0  0  0  0  0  0  0  0  0  0  0  0
   20.3007   -7.6619  -15.9914 C   0  0  1  0  0  0  0  0  0  0  0  0
   18.8751   -7.5877  -15.6087 C   0  0  0  0  0  0  0  0  0  0  0  0
   18.1952   -6.3095  -15.8055 C   0  0  0  0  0  0  0  0  0  0  0  0
   18.5596   -5.1063  -16.3302 C   0  0  0  0  0  0  0  0  0  0  0  0
   17.5191   -4.2666  -16.2812 N   0  0  0  0  0  0  0  0  0  0  0  0
   16.4995   -4.9114  -15.7361 C   0  0  0  0  0  0  0  0  0  0  0  0
   16.8907   -6.1451  -15.4435 N   0  0  0  0  0  0  0  0  0  0  0  0
   21.0923   -6.5083  -15.4413 C   0  0  0  0  0  0  0  0  0  0  0  0
   21.1210   -5.3072  -16.1161 O   0  0  0  0  0  0  0  0  0  0  0  0
   21.7267   -6.6229  -14.3778 O   0  0  0  0  0  0  0  0  0  0  0  0
  2 12  2  0
  2  1  1  0
  3  2  1  0
  4  5  1  0
  4  3  2  0
  5 11  2  0
  6  7  1  0
  6  5  1  0
  7  9  1  0
  7  8  1  1
  9 10  2  0
 11 12  1  0
 14 13  1  1
 14 16  1  0
 14 15  1  0
 17 16  1  6
 18 17  1  0
 18  9  1  0
 19 21  1  0
 19 17  1  0
 20 19  2  0
 22 21  1  0
 22 23  1  1
 23 24  1  0
 24 28  1  0
 25 24  2  0
 25 26  1  0
 26 27  1  0
 28 27  2  0
 29 22  1  0
 30 29  1  0
 31 29  2  0
M  END
$$$$
