YLH.pdb
     RDKit          3D

 31 32  0  0  1  0  0  0  0  0999 V2000
   28.1593  -15.4438  -20.3575 O   0  0  0  0  0  0  0  0  0  0  0  0
   27.8593  -16.2371  -19.2322 C   0  0  0  0  0  0  0  0  0  0  0  0
   28.5658  -16.1282  -18.0655 C   0  0  0  0  0  0  0  0  0  0  0  0
   28.2526  -16.9218  -16.9659 C   0  0  0  0  0  0  0  0  0  0  0  0
   27.2270  -17.8390  -17.0128 C   0  0  0  0  0  0  0  0  0  0  0  0
   26.8798  -18.6880  -15.8604 C   0  0  0  0  0  0  0  0  0  0  0  0
   27.8820  -19.7931  -15.6193 C   0  0  2  0  0  0  0  0  0  0  0  0
   27.8958  -20.7762  -16.6538 N   0  0  0  0  0  0  0  0  0  0  0  0
   27.5234  -20.4364  -14.3326 C   0  0  0  0  0  0  0  0  0  0  0  0
   26.6490  -21.3401  -14.3406 O   0  0  0  0  0  0  0  0  0  0  0  0
   26.5248  -17.9380  -18.1924 C   0  0  0  0  0  0  0  0  0  0  0  0
   26.8317  -17.1489  -19.2948 C   0  0  0  0  0  0  0  0  0  0  0  0
   30.0651  -22.5711  -11.4852 C   0  0  0  0  0  0  0  0  0  0  0  0
   30.1146  -21.0470  -11.2429 C   0  0  2  0  0  0  0  0  0  0  0  0
   31.2535  -20.7291  -10.3441 C   0  0  0  0  0  0  0  0  0  0  0  0
   28.7544  -20.6048  -10.8296 C   0  0  0  0  0  0  0  0  0  0  0  0
   27.7443  -20.7228  -11.8965 C   0  0  2  0  0  0  0  0  0  0  0  0
   28.1378  -20.0605  -13.1022 N   0  0  0  0  0  0  0  0  0  0  0  0
   26.4154  -20.1703  -11.4962 C   0  0  0  0  0  0  0  0  0  0  0  0
   26.0532  -19.0613  -11.9238 O   0  0  0  0  0  0  0  0  0  0  0  0
   25.5138  -20.8735  -10.6210 N   0  0  0  0  0  0  0  0  0  0  0  0
   24.0919  -20.6583  -10.6677 C   0  0  1  0  0  0  0  0  0  0  0  0
   23.4042  -21.0932  -11.9015 C   0  0  0  0  0  0  0  0  0  0  0  0
   21.9745  -20.8105  -12.0056 C   0  0  0  0  0  0  0  0  0  0  0  0
   21.0488  -20.2563  -11.1739 C   0  0  0  0  0  0  0  0  0  0  0  0
   19.8625  -20.2185  -11.7915 N   0  0  0  0  0  0  0  0  0  0  0  0
   20.0146  -20.7371  -12.9999 C   0  0  0  0  0  0  0  0  0  0  0  0
   21.2829  -21.0991  -13.1451 N   0  0  0  0  0  0  0  0  0  0  0  0
   23.4314  -21.2040   -9.4324 C   0  0  0  0  0  0  0  0  0  0  0  0
   22.1306  -20.8591   -9.1361 O   0  0  0  0  0  0  0  0  0  0  0  0
   24.0465  -21.9681   -8.6679 O   0  0  0  0  0  0  0  0  0  0  0  0
  2 12  2  0
  2  1  1  0
  3  2  1  0
  4  5  1  0
  4  3  2  0
  5 11  2  0
  6  7  1  0
  6  5  1  0
  7  9  1  0
  7  8  1  6
  9 10  2  0
 11 12  1  0
 14 13  1  1
 14 16  1  0
 14 15  1  0
 17 16  1  1
 18 17  1  0
 18  9  1  0
 19 21  1  0
 19 17  1  0
 20 19  2  0
 22 21  1  0
 22 23  1  6
 23 24  1  0
 24 28  1  0
 25 24  2  0
 25 26  1  0
 26 27  1  0
 28 27  2  0
 29 22  1  0
 30 29  1  0
 31 29  2  0
M  END
$$$$
