YLH.pdb
     RDKit          3D

 31 32  0  0  1  0  0  0  0  0999 V2000
   29.3121  -15.7649  -19.1943 O   0  0  0  0  0  0  0  0  0  0  0  0
   28.5922  -16.5740  -18.2929 C   0  0  0  0  0  0  0  0  0  0  0  0
   27.8795  -17.6633  -18.7144 C   0  0  0  0  0  0  0  0  0  0  0  0
   27.1753  -18.4490  -17.8068 C   0  0  0  0  0  0  0  0  0  0  0  0
   27.1709  -18.1599  -16.4608 C   0  0  0  0  0  0  0  0  0  0  0  0
   26.4323  -18.9787  -15.4843 C   0  0  0  0  0  0  0  0  0  0  0  0
   27.3146  -19.9656  -14.7556 C   0  0  2  0  0  0  0  0  0  0  0  0
   27.8788  -20.9569  -15.6136 N   0  0  0  0  0  0  0  0  0  0  0  0
   26.4765  -20.6246  -13.7254 C   0  0  0  0  0  0  0  0  0  0  0  0
   25.8725  -21.6833  -14.0352 O   0  0  0  0  0  0  0  0  0  0  0  0
   27.8918  -17.0616  -16.0508 C   0  0  0  0  0  0  0  0  0  0  0  0
   28.5976  -16.2720  -16.9512 C   0  0  0  0  0  0  0  0  0  0  0  0
   28.3123  -21.8101  -10.8450 C   0  0  0  0  0  0  0  0  0  0  0  0
   27.6442  -20.6085  -10.1423 C   0  0  2  0  0  0  0  0  0  0  0  0
   28.3286  -20.3530   -8.8490 C   0  0  0  0  0  0  0  0  0  0  0  0
   26.1754  -20.8504  -10.1192 C   0  0  0  0  0  0  0  0  0  0  0  0
   25.5470  -20.8027  -11.4517 C   0  0  2  0  0  0  0  0  0  0  0  0
   26.3403  -20.0945  -12.4089 N   0  0  0  0  0  0  0  0  0  0  0  0
   24.1967  -20.1640  -11.4299 C   0  0  0  0  0  0  0  0  0  0  0  0
   24.0961  -18.9288  -11.5212 O   0  0  0  0  0  0  0  0  0  0  0  0
   22.9801  -20.9240  -11.3058 N   0  0  0  0  0  0  0  0  0  0  0  0
   21.7935  -20.5786  -12.0425 C   0  0  1  0  0  0  0  0  0  0  0  0
   21.9368  -20.4910  -13.5109 C   0  0  0  0  0  0  0  0  0  0  0  0
   20.7799  -20.0205  -14.2691 C   0  0  0  0  0  0  0  0  0  0  0  0
   19.5141  -19.6400  -13.9395 C   0  0  0  0  0  0  0  0  0  0  0  0
   18.8579  -19.2732  -15.0462 N   0  0  0  0  0  0  0  0  0  0  0  0
   19.6807  -19.4121  -16.0738 C   0  0  0  0  0  0  0  0  0  0  0  0
   20.8445  -19.8620  -15.6221 N   0  0  0  0  0  0  0  0  0  0  0  0
   20.6435  -21.4594  -11.6403 C   0  0  0  0  0  0  0  0  0  0  0  0
   20.6695  -22.8053  -11.9350 O   0  0  0  0  0  0  0  0  0  0  0  0
   19.6612  -20.9877  -11.0409 O   0  0  0  0  0  0  0  0  0  0  0  0
  2 12  2  0
  2  1  1  0
  3  2  1  0
  4  5  1  0
  4  3  2  0
  5 11  2  0
  6  7  1  0
  6  5  1  0
  7  9  1  0
  7  8  1  6
  9 10  2  0
 11 12  1  0
 14 13  1  1
 14 16  1  0
 14 15  1  0
 17 16  1  1
 18 17  1  0
 18  9  1  0
 19 21  1  0
 19 17  1  0
 20 19  2  0
 22 21  1  0
 22 23  1  6
 23 24  1  0
 24 28  1  0
 25 24  2  0
 25 26  1  0
 26 27  1  0
 28 27  2  0
 29 22  1  0
 30 29  1  0
 31 29  2  0
M  END
$$$$
