YLH.pdb
     RDKit          3D

 31 32  0  0  1  0  0  0  0  0999 V2000
   29.1840  -15.1843  -18.6036 O   0  0  0  0  0  0  0  0  0  0  0  0
   28.4095  -16.1699  -17.9599 C   0  0  0  0  0  0  0  0  0  0  0  0
   27.9122  -17.2502  -18.6365 C   0  0  0  0  0  0  0  0  0  0  0  0
   27.1493  -18.2122  -17.9810 C   0  0  0  0  0  0  0  0  0  0  0  0
   26.8697  -18.1115  -16.6368 C   0  0  0  0  0  0  0  0  0  0  0  0
   26.0645  -19.1186  -15.9248 C   0  0  0  0  0  0  0  0  0  0  0  0
   26.8863  -19.9789  -14.9931 C   0  0  2  0  0  0  0  0  0  0  0  0
   27.7545  -20.8808  -15.6785 N   0  0  0  0  0  0  0  0  0  0  0  0
   25.9358  -20.7498  -14.1563 C   0  0  0  0  0  0  0  0  0  0  0  0
   25.6197  -21.9094  -14.5263 O   0  0  0  0  0  0  0  0  0  0  0  0
   27.3762  -17.0200  -15.9688 C   0  0  0  0  0  0  0  0  0  0  0  0
   28.1389  -16.0551  -16.6165 C   0  0  0  0  0  0  0  0  0  0  0  0
   26.9512  -21.9853  -10.9686 C   0  0  0  0  0  0  0  0  0  0  0  0
   26.1850  -20.7690  -10.4052 C   0  0  2  0  0  0  0  0  0  0  0  0
   26.5499  -20.5764   -8.9783 C   0  0  0  0  0  0  0  0  0  0  0  0
   24.7446  -20.9398  -10.7406 C   0  0  0  0  0  0  0  0  0  0  0  0
   24.4799  -21.0207  -12.1884 C   0  0  2  0  0  0  0  0  0  0  0  0
   25.3784  -20.2156  -12.9576 N   0  0  0  0  0  0  0  0  0  0  0  0
   23.0901  -20.6046  -12.5447 C   0  0  0  0  0  0  0  0  0  0  0  0
   22.4727  -19.8178  -11.8074 O   0  0  0  0  0  0  0  0  0  0  0  0
   22.4158  -21.0797  -13.7248 N   0  0  0  0  0  0  0  0  0  0  0  0
   21.1295  -20.5694  -14.1187 C   0  0  1  0  0  0  0  0  0  0  0  0
   21.0339  -20.0218  -15.4882 C   0  0  0  0  0  0  0  0  0  0  0  0
   19.7344  -19.5068  -15.9135 C   0  0  0  0  0  0  0  0  0  0  0  0
   18.5281  -19.3405  -15.3028 C   0  0  0  0  0  0  0  0  0  0  0  0
   17.6640  -18.7957  -16.1669 N   0  0  0  0  0  0  0  0  0  0  0  0
   18.2962  -18.6115  -17.3152 C   0  0  0  0  0  0  0  0  0  0  0  0
   19.5462  -19.0351  -17.1792 N   0  0  0  0  0  0  0  0  0  0  0  0
   20.0498  -21.5772  -13.8384 C   0  0  0  0  0  0  0  0  0  0  0  0
   20.3617  -22.9167  -13.7531 O   0  0  0  0  0  0  0  0  0  0  0  0
   18.8699  -21.2170  -13.6811 O   0  0  0  0  0  0  0  0  0  0  0  0
  2 12  2  0
  2  1  1  0
  3  2  1  0
  4  5  1  0
  4  3  2  0
  5 11  2  0
  6  7  1  0
  6  5  1  0
  7  9  1  0
  7  8  1  6
  9 10  2  0
 11 12  1  0
 14 13  1  1
 14 16  1  0
 14 15  1  0
 17 16  1  1
 18 17  1  0
 18  9  1  0
 19 21  1  0
 19 17  1  0
 20 19  2  0
 22 21  1  0
 22 23  1  6
 23 24  1  0
 24 28  1  0
 25 24  2  0
 25 26  1  0
 26 27  1  0
 28 27  2  0
 29 22  1  0
 30 29  1  0
 31 29  2  0
M  END
$$$$
