YLH.pdb
     RDKit          3D

 31 32  0  0  1  0  0  0  0  0999 V2000
   28.4017  -13.3306  -17.2984 O   0  0  0  0  0  0  0  0  0  0  0  0
   27.7127  -14.4514  -16.7935 C   0  0  0  0  0  0  0  0  0  0  0  0
   27.1910  -15.4084  -17.6206 C   0  0  0  0  0  0  0  0  0  0  0  0
   26.5140  -16.5076  -17.1007 C   0  0  0  0  0  0  0  0  0  0  0  0
   26.3461  -16.6700  -15.7440 C   0  0  0  0  0  0  0  0  0  0  0  0
   25.6329  -17.8258  -15.1739 C   0  0  0  0  0  0  0  0  0  0  0  0
   26.5647  -18.8770  -14.6168 C   0  0  2  0  0  0  0  0  0  0  0  0
   27.3747  -19.4974  -15.6147 N   0  0  0  0  0  0  0  0  0  0  0  0
   25.7224  -19.9035  -13.9573 C   0  0  0  0  0  0  0  0  0  0  0  0
   25.3502  -20.8953  -14.6350 O   0  0  0  0  0  0  0  0  0  0  0  0
   26.8758  -15.7000  -14.9239 C   0  0  0  0  0  0  0  0  0  0  0  0
   27.5533  -14.5994  -15.4356 C   0  0  0  0  0  0  0  0  0  0  0  0
   26.8897  -22.0402  -10.7953 C   0  0  0  0  0  0  0  0  0  0  0  0
   26.1307  -20.8694  -10.1343 C   0  0  2  0  0  0  0  0  0  0  0  0
   26.4223  -20.8545   -8.6780 C   0  0  0  0  0  0  0  0  0  0  0  0
   24.7064  -20.9484  -10.5605 C   0  0  0  0  0  0  0  0  0  0  0  0
   24.5169  -20.8237  -12.0169 C   0  0  2  0  0  0  0  0  0  0  0  0
   25.3291  -19.7953  -12.5912 N   0  0  0  0  0  0  0  0  0  0  0  0
   23.0997  -20.5355  -12.3914 C   0  0  0  0  0  0  0  0  0  0  0  0
   22.4478  -19.6986  -11.7445 O   0  0  0  0  0  0  0  0  0  0  0  0
   22.4373  -21.1929  -13.4878 N   0  0  0  0  0  0  0  0  0  0  0  0
   21.0854  -20.8692  -13.8590 C   0  0  1  0  0  0  0  0  0  0  0  0
   20.8680  -20.4851  -15.2695 C   0  0  0  0  0  0  0  0  0  0  0  0
   19.4894  -20.2545  -15.6952 C   0  0  0  0  0  0  0  0  0  0  0  0
   18.2762  -20.3291  -15.0802 C   0  0  0  0  0  0  0  0  0  0  0  0
   17.3165  -19.9874  -15.9475 N   0  0  0  0  0  0  0  0  0  0  0  0
   17.8946  -19.6964  -17.1023 C   0  0  0  0  0  0  0  0  0  0  0  0
   19.2053  -19.8524  -16.9670 N   0  0  0  0  0  0  0  0  0  0  0  0
   20.1399  -21.9515  -13.4178 C   0  0  0  0  0  0  0  0  0  0  0  0
   18.8537  -21.6322  -13.0401 O   0  0  0  0  0  0  0  0  0  0  0  0
   20.5042  -23.1403  -13.3885 O   0  0  0  0  0  0  0  0  0  0  0  0
  2 12  2  0
  2  1  1  0
  3  2  1  0
  4  5  1  0
  4  3  2  0
  5 11  2  0
  6  7  1  0
  6  5  1  0
  7  9  1  0
  7  8  1  6
  9 10  2  0
 11 12  1  0
 14 13  1  6
 14 16  1  0
 14 15  1  0
 17 16  1  1
 18 17  1  0
 18  9  1  0
 19 21  1  0
 19 17  1  0
 20 19  2  0
 22 21  1  0
 22 23  1  6
 23 24  1  0
 24 28  1  0
 25 24  2  0
 25 26  1  0
 26 27  1  0
 28 27  2  0
 29 22  1  0
 30 29  1  0
 31 29  2  0
M  END
$$$$
