YLH.pdb
     RDKit          3D

 31 32  0  0  1  0  0  0  0  0999 V2000
   18.6265   -8.3689  -15.9331 O   0  0  0  0  0  0  0  0  0  0  0  0
   18.3520   -9.7160  -16.2419 C   0  0  0  0  0  0  0  0  0  0  0  0
   18.6294  -10.7271  -15.3628 C   0  0  0  0  0  0  0  0  0  0  0  0
   18.3501  -12.0512  -15.6882 C   0  0  0  0  0  0  0  0  0  0  0  0
   17.7881  -12.3885  -16.8989 C   0  0  0  0  0  0  0  0  0  0  0  0
   17.4849  -13.7833  -17.2623 C   0  0  0  0  0  0  0  0  0  0  0  0
   18.6033  -14.4487  -18.0303 C   0  0  2  0  0  0  0  0  0  0  0  0
   18.8082  -13.8872  -19.3262 N   0  0  0  0  0  0  0  0  0  0  0  0
   18.2500  -15.8823  -18.1644 C   0  0  0  0  0  0  0  0  0  0  0  0
   17.5782  -16.2401  -19.1656 O   0  0  0  0  0  0  0  0  0  0  0  0
   17.5143  -11.3617  -17.7734 C   0  0  0  0  0  0  0  0  0  0  0  0
   17.7904  -10.0369  -17.4555 C   0  0  0  0  0  0  0  0  0  0  0  0
   17.9050  -20.5464  -18.6682 C   0  0  0  0  0  0  0  0  0  0  0  0
   19.0933  -20.5456  -17.6823 C   0  0  2  0  0  0  0  0  0  0  0  0
   18.7844  -21.4429  -16.5397 C   0  0  0  0  0  0  0  0  0  0  0  0
   19.4396  -19.1288  -17.3838 C   0  0  0  0  0  0  0  0  0  0  0  0
   18.2782  -18.2212  -17.3937 C   0  0  2  0  0  0  0  0  0  0  0  0
   18.6479  -16.8528  -17.1988 N   0  0  0  0  0  0  0  0  0  0  0  0
   17.2689  -18.5650  -16.3474 C   0  0  0  0  0  0  0  0  0  0  0  0
   17.5432  -18.4007  -15.1467 O   0  0  0  0  0  0  0  0  0  0  0  0
   15.9662  -19.0882  -16.6674 N   0  0  0  0  0  0  0  0  0  0  0  0
   14.9881  -19.3593  -15.6476 C   0  0  1  0  0  0  0  0  0  0  0  0
   13.7269  -18.5931  -15.7301 C   0  0  0  0  0  0  0  0  0  0  0  0
   13.8069  -17.1487  -15.5247 C   0  0  0  0  0  0  0  0  0  0  0  0
   14.1015  -16.3517  -14.4599 C   0  0  0  0  0  0  0  0  0  0  0  0
   14.0465  -15.0690  -14.8363 N   0  0  0  0  0  0  0  0  0  0  0  0
   13.7233  -15.0335  -16.1195 C   0  0  0  0  0  0  0  0  0  0  0  0
   13.5753  -16.2798  -16.5500 N   0  0  0  0  0  0  0  0  0  0  0  0
   14.7422  -20.8375  -15.5270 C   0  0  0  0  0  0  0  0  0  0  0  0
   14.0548  -21.3362  -14.4419 O   0  0  0  0  0  0  0  0  0  0  0  0
   15.1533  -21.6231  -16.3991 O   0  0  0  0  0  0  0  0  0  0  0  0
  2 12  2  0
  2  1  1  0
  3  2  1  0
  4  5  1  0
  4  3  2  0
  5 11  2  0
  6  7  1  0
  6  5  1  0
  7  9  1  0
  7  8  1  6
  9 10  2  0
 11 12  1  0
 14 13  1  6
 14 16  1  0
 14 15  1  0
 17 16  1  1
 18 17  1  0
 18  9  1  0
 19 21  1  0
 19 17  1  0
 20 19  2  0
 22 21  1  0
 22 23  1  6
 23 24  1  0
 24 28  1  0
 25 24  2  0
 25 26  1  0
 26 27  1  0
 28 27  2  0
 29 22  1  0
 30 29  1  0
 31 29  2  0
M  END
$$$$
