YLH.pdb
     RDKit          3D

 31 32  0  0  1  0  0  0  0  0999 V2000
   28.8944  -14.2180  -17.7801 O   0  0  0  0  0  0  0  0  0  0  0  0
   28.1323  -15.2488  -17.1951 C   0  0  0  0  0  0  0  0  0  0  0  0
   27.9171  -15.3077  -15.8451 C   0  0  0  0  0  0  0  0  0  0  0  0
   27.1611  -16.3349  -15.2881 C   0  0  0  0  0  0  0  0  0  0  0  0
   26.6063  -17.3222  -16.0709 C   0  0  0  0  0  0  0  0  0  0  0  0
   25.8033  -18.4176  -15.5010 C   0  0  0  0  0  0  0  0  0  0  0  0
   26.6417  -19.4558  -14.7919 C   0  0  2  0  0  0  0  0  0  0  0  0
   27.4438  -20.2338  -15.6796 N   0  0  0  0  0  0  0  0  0  0  0  0
   25.7092  -20.3470  -14.0609 C   0  0  0  0  0  0  0  0  0  0  0  0
   25.3796  -21.4353  -14.5980 O   0  0  0  0  0  0  0  0  0  0  0  0
   26.8307  -17.2506  -17.4268 C   0  0  0  0  0  0  0  0  0  0  0  0
   27.5847  -16.2279  -17.9905 C   0  0  0  0  0  0  0  0  0  0  0  0
   26.8526  -21.8929  -10.7925 C   0  0  0  0  0  0  0  0  0  0  0  0
   26.0125  -20.7111  -10.2618 C   0  0  2  0  0  0  0  0  0  0  0  0
   26.3255  -20.4912   -8.8266 C   0  0  0  0  0  0  0  0  0  0  0  0
   24.5925  -20.9536  -10.6377 C   0  0  0  0  0  0  0  0  0  0  0  0
   24.3565  -20.9481  -12.0926 C   0  0  2  0  0  0  0  0  0  0  0  0
   25.1837  -20.0048  -12.7805 N   0  0  0  0  0  0  0  0  0  0  0  0
   22.9381  -20.6395  -12.4455 C   0  0  0  0  0  0  0  0  0  0  0  0
   22.0316  -21.4133  -12.0939 O   0  0  0  0  0  0  0  0  0  0  0  0
   22.5605  -19.4654  -13.1886 N   0  0  0  0  0  0  0  0  0  0  0  0
   21.2285  -19.2917  -13.7039 C   0  0  1  0  0  0  0  0  0  0  0  0
   21.0808  -18.3479  -14.8316 C   0  0  0  0  0  0  0  0  0  0  0  0
   19.7256  -18.0828  -15.3091 C   0  0  0  0  0  0  0  0  0  0  0  0
   18.5349  -17.8194  -14.7018 C   0  0  0  0  0  0  0  0  0  0  0  0
   17.5928  -17.6322  -15.6332 N   0  0  0  0  0  0  0  0  0  0  0  0
   18.1600  -17.7707  -16.8213 C   0  0  0  0  0  0  0  0  0  0  0  0
   19.4465  -18.0427  -16.6434 N   0  0  0  0  0  0  0  0  0  0  0  0
   20.5946  -20.6230  -13.9969 C   0  0  0  0  0  0  0  0  0  0  0  0
   19.4062  -20.9695  -13.3915 O   0  0  0  0  0  0  0  0  0  0  0  0
   21.1311  -21.4227  -14.7839 O   0  0  0  0  0  0  0  0  0  0  0  0
  2 12  2  0
  2  1  1  0
  3  2  1  0
  4  5  1  0
  4  3  2  0
  5 11  2  0
  6  7  1  0
  6  5  1  0
  7  9  1  0
  7  8  1  6
  9 10  2  0
 11 12  1  0
 14 13  1  1
 14 16  1  0
 14 15  1  0
 17 16  1  1
 18 17  1  0
 18  9  1  0
 19 21  1  0
 19 17  1  0
 20 19  2  0
 22 21  1  0
 22 23  1  6
 23 24  1  0
 24 28  1  0
 25 24  2  0
 25 26  1  0
 26 27  1  0
 28 27  2  0
 29 22  1  0
 30 29  1  0
 31 29  2  0
M  END
$$$$
