IHP.pdb
     RDKit          3D

 26 27  0  0  1  0  0  0  0  0999 V2000
   28.6348  -13.9548  -15.9046 C   0  0  0  0  0  0  0  0  0  0  0  0
   27.2566  -14.2724  -15.4158 C   0  0  0  0  0  0  0  0  0  0  0  0
   26.2377  -13.2731  -15.9373 C   0  0  2  0  0  0  0  0  0  0  0  0
   26.6352  -11.9109  -15.4529 C   0  0  0  0  0  0  0  0  0  0  0  0
   24.8774  -13.6967  -15.4136 C   0  0  2  0  0  0  0  0  0  0  0  0
   24.6741  -15.0912  -15.7889 N   0  0  0  0  0  0  0  0  0  0  0  0
   23.7914  -12.8838  -16.0157 C   0  0  0  0  0  0  0  0  0  0  0  0
   23.5260  -12.9791  -17.2385 O   0  0  0  0  0  0  0  0  0  0  0  0
   23.0215  -11.9791  -15.2394 N   0  0  0  0  0  0  0  0  0  0  0  0
   22.0363  -11.0662  -15.8494 C   0  0  1  0  0  0  0  0  0  0  0  0
   20.6441  -11.6027  -15.5764 C   0  0  0  0  0  0  0  0  0  0  0  0
   20.3592  -12.8870  -16.2165 C   0  0  0  0  0  0  0  0  0  0  0  0
   20.0139  -13.0982  -17.5241 C   0  0  0  0  0  0  0  0  0  0  0  0
   19.8510  -14.4441  -17.6779 N   0  0  0  0  0  0  0  0  0  0  0  0
   20.0846  -15.0635  -16.5105 C   0  0  0  0  0  0  0  0  0  0  0  0
   20.3922  -14.1006  -15.6336 N   0  0  0  0  0  0  0  0  0  0  0  0
   22.2611   -9.6823  -15.4393 C   0  0  0  0  0  0  0  0  0  0  0  0
   22.7483   -9.3974  -14.2795 O   0  0  0  0  0  0  0  0  0  0  0  0
   21.9877   -8.5389  -16.2345 N   0  0  0  0  0  0  0  0  0  0  0  0
   21.4140   -8.5508  -17.5557 C   0  0  0  0  0  0  0  0  0  0  0  0
   22.2077   -7.5128  -18.3003 C   0  0  0  0  0  0  0  0  0  0  0  0
   22.6707   -6.5417  -17.2668 C   0  0  0  0  0  0  0  0  0  0  0  0
   22.2197   -7.1298  -15.9372 C   0  0  1  0  0  0  0  0  0  0  0  0
   20.9859   -6.3985  -15.5690 C   0  0  0  0  0  0  0  0  0  0  0  0
   20.9516   -5.1347  -15.0182 O   0  0  0  0  0  0  0  0  0  0  0  0
   19.8917   -6.9808  -15.7764 O   0  0  0  0  0  0  0  0  0  0  0  0
  1  2  1  0
  3  5  1  0
  3  2  1  0
  3  4  1  1
  5  7  1  0
  5  6  1  6
  7  9  1  0
  8  7  2  0
 10  9  1  0
 10 11  1  1
 11 12  1  0
 12 16  1  0
 13 12  2  0
 13 14  1  0
 14 15  1  0
 16 15  2  0
 17 18  2  0
 17 10  1  0
 19 17  1  0
 20 19  1  0
 21 20  1  0
 22 21  1  0
 22 23  1  0
 23 19  1  0
 23 24  1  6
 25 24  1  0
 26 24  2  0
M  END
$$$$
