IHP.pdb
     RDKit          3D

 26 27  0  0  1  0  0  0  0  0999 V2000
   24.9828  -18.8987  -15.4032 C   0  0  0  0  0  0  0  0  0  0  0  0
   23.6488  -18.2224  -15.3562 C   0  0  0  0  0  0  0  0  0  0  0  0
   23.7171  -16.8175  -15.9308 C   0  0  2  0  0  0  0  0  0  0  0  0
   24.5735  -15.9869  -15.0224 C   0  0  0  0  0  0  0  0  0  0  0  0
   22.2951  -16.2940  -16.0201 C   0  0  2  0  0  0  0  0  0  0  0  0
   21.5418  -17.2048  -16.8744 N   0  0  0  0  0  0  0  0  0  0  0  0
   22.2568  -14.9398  -16.6262 C   0  0  0  0  0  0  0  0  0  0  0  0
   22.5472  -14.7736  -17.8357 O   0  0  0  0  0  0  0  0  0  0  0  0
   21.8941  -13.7957  -15.8689 N   0  0  0  0  0  0  0  0  0  0  0  0
   21.7694  -12.4592  -16.4807 C   0  0  1  0  0  0  0  0  0  0  0  0
   20.7678  -12.5376  -17.6170 C   0  0  0  0  0  0  0  0  0  0  0  0
   19.4057  -12.8651  -17.1954 C   0  0  0  0  0  0  0  0  0  0  0  0
   19.0327  -13.5508  -16.0710 C   0  0  0  0  0  0  0  0  0  0  0  0
   17.6699  -13.6153  -16.0806 N   0  0  0  0  0  0  0  0  0  0  0  0
   17.1962  -12.9931  -17.1712 C   0  0  0  0  0  0  0  0  0  0  0  0
   18.2663  -12.5432  -17.8371 N   0  0  0  0  0  0  0  0  0  0  0  0
   21.4935  -11.4335  -15.4779 C   0  0  0  0  0  0  0  0  0  0  0  0
   21.0184  -11.7400  -14.3185 O   0  0  0  0  0  0  0  0  0  0  0  0
   21.7106  -10.0415  -15.6504 N   0  0  0  0  0  0  0  0  0  0  0  0
   21.9460   -9.3762  -16.9061 C   0  0  0  0  0  0  0  0  0  0  0  0
   23.0303   -8.3839  -16.5880 C   0  0  0  0  0  0  0  0  0  0  0  0
   22.8709   -8.0631  -15.1399 C   0  0  0  0  0  0  0  0  0  0  0  0
   21.7625   -8.9834  -14.6478 C   0  0  1  0  0  0  0  0  0  0  0  0
   20.5363   -8.1544  -14.6077 C   0  0  0  0  0  0  0  0  0  0  0  0
   20.2418   -7.2264  -13.6310 O   0  0  0  0  0  0  0  0  0  0  0  0
   19.7057   -8.3152  -15.5371 O   0  0  0  0  0  0  0  0  0  0  0  0
  1  2  1  0
  3  5  1  0
  3  2  1  0
  3  4  1  1
  5  7  1  0
  5  6  1  6
  7  9  1  0
  8  7  2  0
 10  9  1  0
 10 11  1  6
 11 12  1  0
 12 16  1  0
 13 12  2  0
 13 14  1  0
 14 15  1  0
 16 15  2  0
 17 18  2  0
 17 10  1  0
 19 17  1  0
 20 19  1  0
 21 20  1  0
 22 21  1  0
 22 23  1  0
 23 19  1  0
 23 24  1  6
 25 24  1  0
 26 24  2  0
M  END
$$$$
