IHP.pdb
     RDKit          3D

 26 27  0  0  1  0  0  0  0  0999 V2000
   25.8872  -33.7972  -15.5075 C   0  0  0  0  0  0  0  0  0  0  0  0
   27.0404  -32.8612  -15.3244 C   0  0  0  0  0  0  0  0  0  0  0  0
   28.2258  -33.2646  -16.1850 C   0  0  2  0  0  0  0  0  0  0  0  0
   28.4945  -34.7210  -15.9498 C   0  0  0  0  0  0  0  0  0  0  0  0
   29.3986  -32.3897  -15.7809 C   0  0  2  0  0  0  0  0  0  0  0  0
   29.0764  -31.0178  -16.1565 N   0  0  0  0  0  0  0  0  0  0  0  0
   30.6398  -32.7924  -16.4880 C   0  0  0  0  0  0  0  0  0  0  0  0
   30.7786  -32.5633  -17.7140 O   0  0  0  0  0  0  0  0  0  0  0  0
   31.7035  -33.4438  -15.8113 N   0  0  0  0  0  0  0  0  0  0  0  0
   32.8998  -33.9338  -16.5218 C   0  0  1  0  0  0  0  0  0  0  0  0
   34.0709  -33.0334  -16.1779 C   0  0  0  0  0  0  0  0  0  0  0  0
   34.1462  -31.8130  -16.9811 C   0  0  0  0  0  0  0  0  0  0  0  0
   33.3633  -31.4821  -18.0542 C   0  0  0  0  0  0  0  0  0  0  0  0
   33.7804  -30.2567  -18.4855 N   0  0  0  0  0  0  0  0  0  0  0  0
   34.7906  -29.8263  -17.7140 C   0  0  0  0  0  0  0  0  0  0  0  0
   34.9991  -30.7858  -16.8047 N   0  0  0  0  0  0  0  0  0  0  0  0
   33.1195  -35.3583  -16.2838 C   0  0  0  0  0  0  0  0  0  0  0  0
   32.8538  -35.8960  -15.1419 O   0  0  0  0  0  0  0  0  0  0  0  0
   33.6233  -36.2791  -17.2392 N   0  0  0  0  0  0  0  0  0  0  0  0
   34.1070  -35.9462  -18.5545 C   0  0  0  0  0  0  0  0  0  0  0  0
   33.5546  -37.0397  -19.4267 C   0  0  0  0  0  0  0  0  0  0  0  0
   33.3985  -38.2258  -18.5355 C   0  0  0  0  0  0  0  0  0  0  0  0
   33.7600  -37.7281  -17.1430 C   0  0  1  0  0  0  0  0  0  0  0  0
   35.1530  -38.1700  -16.9044 C   0  0  0  0  0  0  0  0  0  0  0  0
   35.5540  -39.4833  -16.7770 O   0  0  0  0  0  0  0  0  0  0  0  0
   36.0298  -37.2745  -16.8112 O   0  0  0  0  0  0  0  0  0  0  0  0
  1  2  1  0
  3  5  1  0
  3  2  1  0
  3  4  1  1
  5  7  1  0
  5  6  1  6
  7  9  1  0
  8  7  2  0
 10  9  1  0
 10 11  1  1
 11 12  1  0
 12 16  1  0
 13 12  2  0
 13 14  1  0
 14 15  1  0
 16 15  2  0
 17 18  2  0
 17 10  1  0
 19 17  1  0
 20 19  1  0
 21 20  1  0
 22 21  1  0
 22 23  1  0
 23 19  1  0
 23 24  1  6
 25 24  1  0
 26 24  2  0
M  END
$$$$
