IHP.pdb
     RDKit          3D

 26 27  0  0  1  0  0  0  0  0999 V2000
   22.6685   -9.5440  -14.3532 C   0  0  0  0  0  0  0  0  0  0  0  0
   21.4727   -9.8521  -13.5080 C   0  0  0  0  0  0  0  0  0  0  0  0
   20.5166   -8.6727  -13.4466 C   0  0  2  0  0  0  0  0  0  0  0  0
   21.2863   -7.4771  -12.9705 C   0  0  0  0  0  0  0  0  0  0  0  0
   19.3922   -9.0490  -12.4988 C   0  0  2  0  0  0  0  0  0  0  0  0
   18.7801  -10.2728  -13.0031 N   0  0  0  0  0  0  0  0  0  0  0  0
   18.3539   -7.9897  -12.4475 C   0  0  0  0  0  0  0  0  0  0  0  0
   17.6008   -7.7862  -13.4305 O   0  0  0  0  0  0  0  0  0  0  0  0
   18.1763   -7.1771  -11.2977 N   0  0  0  0  0  0  0  0  0  0  0  0
   17.1615   -6.1078  -11.2440 C   0  0  1  0  0  0  0  0  0  0  0  0
   16.6054   -6.0373   -9.8346 C   0  0  0  0  0  0  0  0  0  0  0  0
   15.7850   -7.1874   -9.4546 C   0  0  0  0  0  0  0  0  0  0  0  0
   14.4872   -7.4302   -9.8157 C   0  0  0  0  0  0  0  0  0  0  0  0
   14.1315   -8.6153   -9.2407 N   0  0  0  0  0  0  0  0  0  0  0  0
   15.1659   -9.1060   -8.5407 C   0  0  0  0  0  0  0  0  0  0  0  0
   16.1626   -8.2242   -8.6824 N   0  0  0  0  0  0  0  0  0  0  0  0
   17.6805   -4.8483  -11.7716 C   0  0  0  0  0  0  0  0  0  0  0  0
   18.9054   -4.4939  -11.5770 O   0  0  0  0  0  0  0  0  0  0  0  0
   16.9340   -3.9102  -12.5312 N   0  0  0  0  0  0  0  0  0  0  0  0
   15.5313   -4.0073  -12.8443 C   0  0  0  0  0  0  0  0  0  0  0  0
   15.4535   -3.5672  -14.2802 C   0  0  0  0  0  0  0  0  0  0  0  0
   16.6051   -2.6403  -14.4806 C   0  0  0  0  0  0  0  0  0  0  0  0
   17.3779   -2.6761  -13.1695 C   0  0  1  0  0  0  0  0  0  0  0  0
   16.9769   -1.4575  -12.4300 C   0  0  0  0  0  0  0  0  0  0  0  0
   17.4908   -0.1965  -12.6478 O   0  0  0  0  0  0  0  0  0  0  0  0
   16.1022   -1.5912  -11.5375 O   0  0  0  0  0  0  0  0  0  0  0  0
  1  2  1  0
  3  5  1  0
  3  2  1  0
  3  4  1  1
  5  7  1  0
  5  6  1  6
  7  9  1  0
  8  7  2  0
 10  9  1  0
 10 11  1  1
 11 12  1  0
 12 16  1  0
 13 12  2  0
 13 14  1  0
 14 15  1  0
 16 15  2  0
 17 18  2  0
 17 10  1  0
 19 17  1  0
 20 19  1  0
 21 20  1  0
 22 21  1  0
 22 23  1  0
 23 19  1  0
 23 24  1  1
 25 24  1  0
 26 24  2  0
M  END
$$$$
