IHP.pdb
     RDKit          3D

 26 27  0  0  1  0  0  0  0  0999 V2000
   16.4503  -25.9873   -2.5818 C   0  0  0  0  0  0  0  0  0  0  0  0
   15.8202  -24.6670   -2.8966 C   0  0  0  0  0  0  0  0  0  0  0  0
   14.3245  -24.8052   -3.1253 C   0  0  2  0  0  0  0  0  0  0  0  0
   14.1165  -25.7556   -4.2664 C   0  0  0  0  0  0  0  0  0  0  0  0
   13.7809  -23.4195   -3.4230 C   0  0  2  0  0  0  0  0  0  0  0  0
   14.5116  -22.8956   -4.5713 N   0  0  0  0  0  0  0  0  0  0  0  0
   13.9872  -22.5019   -2.2749 C   0  0  0  0  0  0  0  0  0  0  0  0
   14.8298  -21.5744   -2.3428 O   0  0  0  0  0  0  0  0  0  0  0  0
   13.2473  -22.6378   -1.0716 N   0  0  0  0  0  0  0  0  0  0  0  0
   13.3870  -21.6842    0.0451 C   0  0  1  0  0  0  0  0  0  0  0  0
   12.0073  -21.1901    0.4362 C   0  0  0  0  0  0  0  0  0  0  0  0
   11.4622  -20.1645   -0.4533 C   0  0  0  0  0  0  0  0  0  0  0  0
   12.0841  -19.0182   -0.8693 C   0  0  0  0  0  0  0  0  0  0  0  0
   11.2091  -18.3689   -1.6904 N   0  0  0  0  0  0  0  0  0  0  0  0
   10.0740  -19.0776   -1.7914 C   0  0  0  0  0  0  0  0  0  0  0  0
   10.2464  -20.1662   -1.0324 N   0  0  0  0  0  0  0  0  0  0  0  0
   14.1783  -22.2475    1.1362 C   0  0  0  0  0  0  0  0  0  0  0  0
   14.3436  -23.5211    1.2564 O   0  0  0  0  0  0  0  0  0  0  0  0
   14.8342  -21.4942    2.1445 N   0  0  0  0  0  0  0  0  0  0  0  0
   14.9251  -20.0576    2.1961 C   0  0  0  0  0  0  0  0  0  0  0  0
   16.3412  -19.8038    2.6343 C   0  0  0  0  0  0  0  0  0  0  0  0
   16.7369  -21.0008    3.4318 C   0  0  0  0  0  0  0  0  0  0  0  0
   15.5601  -21.9601    3.3208 C   0  0  1  0  0  0  0  0  0  0  0  0
   14.7945  -21.8088    4.5791 C   0  0  0  0  0  0  0  0  0  0  0  0
   15.1484  -22.3644    5.7906 O   0  0  0  0  0  0  0  0  0  0  0  0
   13.7436  -21.1212    4.5308 O   0  0  0  0  0  0  0  0  0  0  0  0
  1  2  1  0
  3  5  1  0
  3  2  1  0
  3  4  1  6
  5  7  1  0
  5  6  1  6
  7  9  1  0
  8  7  2  0
 10  9  1  0
 10 11  1  1
 11 12  1  0
 12 16  1  0
 13 12  2  0
 13 14  1  0
 14 15  1  0
 16 15  2  0
 17 18  2  0
 17 10  1  0
 19 17  1  0
 20 19  1  0
 21 20  1  0
 22 21  1  0
 22 23  1  0
 23 19  1  0
 23 24  1  1
 25 24  1  0
 26 24  2  0
M  END
$$$$
