IHP.pdb
     RDKit          3D

 26 27  0  0  1  0  0  0  0  0999 V2000
   25.0979  -25.3270  -15.0851 C   0  0  0  0  0  0  0  0  0  0  0  0
   23.7581  -24.7784  -15.4639 C   0  0  0  0  0  0  0  0  0  0  0  0
   22.8656  -24.6014  -14.2471 C   0  0  2  0  0  0  0  0  0  0  0  0
   22.6335  -25.9538  -13.6425 C   0  0  0  0  0  0  0  0  0  0  0  0
   21.5772  -23.9527  -14.7199 C   0  0  2  0  0  0  0  0  0  0  0  0
   21.9353  -22.7559  -15.4724 N   0  0  0  0  0  0  0  0  0  0  0  0
   20.7245  -23.5507  -13.5737 C   0  0  0  0  0  0  0  0  0  0  0  0
   21.2207  -22.9536  -12.5877 O   0  0  0  0  0  0  0  0  0  0  0  0
   19.3320  -23.8234  -13.5507 N   0  0  0  0  0  0  0  0  0  0  0  0
   18.4986  -23.5419  -12.3665 C   0  0  1  0  0  0  0  0  0  0  0  0
   17.3104  -22.7036  -12.7980 C   0  0  0  0  0  0  0  0  0  0  0  0
   16.3997  -22.3478  -11.7098 C   0  0  0  0  0  0  0  0  0  0  0  0
   16.7111  -22.2161  -10.3834 C   0  0  0  0  0  0  0  0  0  0  0  0
   15.5597  -21.8680   -9.7392 N   0  0  0  0  0  0  0  0  0  0  0  0
   14.5552  -21.7820  -10.6249 C   0  0  0  0  0  0  0  0  0  0  0  0
   15.0849  -22.0771  -11.8179 N   0  0  0  0  0  0  0  0  0  0  0  0
   18.1660  -24.7653  -11.6410 C   0  0  0  0  0  0  0  0  0  0  0  0
   17.9942  -25.8850  -12.2580 O   0  0  0  0  0  0  0  0  0  0  0  0
   18.0052  -24.8641  -10.2343 N   0  0  0  0  0  0  0  0  0  0  0  0
   18.1256  -23.7782   -9.2956 C   0  0  0  0  0  0  0  0  0  0  0  0
   18.8768  -24.3835   -8.1420 C   0  0  0  0  0  0  0  0  0  0  0  0
   18.5487  -25.8385   -8.1664 C   0  0  0  0  0  0  0  0  0  0  0  0
   17.7057  -26.0357   -9.4186 C   0  0  1  0  0  0  0  0  0  0  0  0
   16.2998  -26.0834   -8.9566 C   0  0  0  0  0  0  0  0  0  0  0  0
   15.4054  -25.0369   -9.0389 O   0  0  0  0  0  0  0  0  0  0  0  0
   15.8993  -27.1623   -8.4517 O   0  0  0  0  0  0  0  0  0  0  0  0
  1  2  1  0
  3  5  1  0
  3  2  1  0
  3  4  1  6
  5  7  1  0
  5  6  1  1
  7  9  1  0
  8  7  2  0
 10  9  1  0
 10 11  1  6
 11 12  1  0
 12 16  1  0
 13 12  2  0
 13 14  1  0
 14 15  1  0
 16 15  2  0
 17 18  2  0
 17 10  1  0
 19 17  1  0
 20 19  1  0
 21 20  1  0
 22 21  1  0
 22 23  1  0
 23 19  1  0
 23 24  1  1
 25 24  1  0
 26 24  2  0
M  END
$$$$
