IHP.pdb
     RDKit          3D

 26 27  0  0  1  0  0  0  0  0999 V2000
   46.2596  -10.1401   -8.2175 C   0  0  0  0  0  0  0  0  0  0  0  0
   45.3729  -11.3196   -7.9691 C   0  0  0  0  0  0  0  0  0  0  0  0
   46.1494  -12.6237   -8.0404 C   0  0  2  0  0  0  0  0  0  0  0  0
   46.8474  -12.6749   -9.3666 C   0  0  0  0  0  0  0  0  0  0  0  0
   45.1523  -13.7555   -7.8700 C   0  0  2  0  0  0  0  0  0  0  0  0
   44.5742  -13.6380   -6.5363 N   0  0  0  0  0  0  0  0  0  0  0  0
   45.8153  -15.0787   -7.9809 C   0  0  0  0  0  0  0  0  0  0  0  0
   46.6885  -15.4265   -7.1494 O   0  0  0  0  0  0  0  0  0  0  0  0
   45.4898  -15.9892   -9.0196 N   0  0  0  0  0  0  0  0  0  0  0  0
   46.2265  -17.2525   -9.2126 C   0  0  1  0  0  0  0  0  0  0  0  0
   45.2272  -18.3919   -9.2756 C   0  0  0  0  0  0  0  0  0  0  0  0
   44.4666  -18.5924   -8.0422 C   0  0  0  0  0  0  0  0  0  0  0  0
   44.9643  -18.9232   -6.8107 C   0  0  0  0  0  0  0  0  0  0  0  0
   43.8997  -18.9980   -5.9606 N   0  0  0  0  0  0  0  0  0  0  0  0
   42.7684  -18.7246   -6.6286 C   0  0  0  0  0  0  0  0  0  0  0  0
   43.1328  -18.4804   -7.8929 N   0  0  0  0  0  0  0  0  0  0  0  0
   47.1474  -17.1696  -10.3435 C   0  0  0  0  0  0  0  0  0  0  0  0
   46.9244  -16.3721  -11.3325 O   0  0  0  0  0  0  0  0  0  0  0  0
   48.3453  -17.9185  -10.4796 N   0  0  0  0  0  0  0  0  0  0  0  0
   48.8379  -18.8949   -9.5422 C   0  0  0  0  0  0  0  0  0  0  0  0
   50.3164  -18.6253   -9.4878 C   0  0  0  0  0  0  0  0  0  0  0  0
   50.6680  -18.0385  -10.8135 C   0  0  0  0  0  0  0  0  0  0  0  0
   49.3417  -17.8821  -11.5442 C   0  0  1  0  0  0  0  0  0  0  0  0
   49.2515  -19.0341  -12.4700 C   0  0  0  0  0  0  0  0  0  0  0  0
   49.8661  -19.1070  -13.7023 O   0  0  0  0  0  0  0  0  0  0  0  0
   48.5599  -20.0152  -12.0976 O   0  0  0  0  0  0  0  0  0  0  0  0
  1  2  1  0
  3  5  1  0
  3  2  1  0
  3  4  1  6
  5  7  1  0
  5  6  1  1
  7  9  1  0
  8  7  2  0
 10  9  1  0
 10 11  1  6
 11 12  1  0
 12 16  1  0
 13 12  2  0
 13 14  1  0
 14 15  1  0
 16 15  2  0
 17 18  2  0
 17 10  1  0
 19 17  1  0
 20 19  1  0
 21 20  1  0
 22 21  1  0
 22 23  1  0
 23 19  1  0
 23 24  1  6
 25 24  1  0
 26 24  2  0
M  END
$$$$
