IHP.pdb
     RDKit          3D

 26 27  0  0  1  0  0  0  0  0999 V2000
   25.2567  -20.4381   -8.4383 C   0  0  0  0  0  0  0  0  0  0  0  0
   23.9796  -21.1537   -8.7489 C   0  0  0  0  0  0  0  0  0  0  0  0
   22.7980  -20.1988   -8.7690 C   0  0  2  0  0  0  0  0  0  0  0  0
   22.5522  -19.7366   -7.3638 C   0  0  0  0  0  0  0  0  0  0  0  0
   21.6132  -20.9549   -9.3424 C   0  0  2  0  0  0  0  0  0  0  0  0
   21.4207  -22.1534   -8.5340 N   0  0  0  0  0  0  0  0  0  0  0  0
   21.8660  -21.3687  -10.7451 C   0  0  0  0  0  0  0  0  0  0  0  0
   22.5656  -22.3799  -10.9959 O   0  0  0  0  0  0  0  0  0  0  0  0
   21.3317  -20.6443  -11.8422 N   0  0  0  0  0  0  0  0  0  0  0  0
   21.6762  -20.9717  -13.2387 C   0  0  1  0  0  0  0  0  0  0  0  0
   20.4191  -20.8801  -14.0825 C   0  0  0  0  0  0  0  0  0  0  0  0
   20.6261  -21.1689  -15.5017 C   0  0  0  0  0  0  0  0  0  0  0  0
   20.6927  -20.2639  -16.5265 C   0  0  0  0  0  0  0  0  0  0  0  0
   20.9025  -20.9766  -17.6709 N   0  0  0  0  0  0  0  0  0  0  0  0
   20.9666  -22.2856  -17.3822 C   0  0  0  0  0  0  0  0  0  0  0  0
   20.7964  -22.3833  -16.0584 N   0  0  0  0  0  0  0  0  0  0  0  0
   22.8041  -20.1745  -13.7144 C   0  0  0  0  0  0  0  0  0  0  0  0
   22.9153  -18.9248  -13.4151 O   0  0  0  0  0  0  0  0  0  0  0  0
   23.8663  -20.6598  -14.5210 N   0  0  0  0  0  0  0  0  0  0  0  0
   24.0511  -22.0270  -14.9351 C   0  0  0  0  0  0  0  0  0  0  0  0
   25.5314  -22.2487  -14.7887 C   0  0  0  0  0  0  0  0  0  0  0  0
   26.1594  -20.9076  -14.9694 C   0  0  0  0  0  0  0  0  0  0  0  0
   24.9944  -19.9361  -15.0965 C   0  0  1  0  0  0  0  0  0  0  0  0
   24.8432  -19.6730  -16.5458 C   0  0  0  0  0  0  0  0  0  0  0  0
   23.8100  -20.1415  -17.3299 O   0  0  0  0  0  0  0  0  0  0  0  0
   25.7279  -18.9698  -17.0955 O   0  0  0  0  0  0  0  0  0  0  0  0
  1  2  1  0
  3  5  1  0
  3  2  1  0
  3  4  1  1
  5  7  1  0
  5  6  1  1
  7  9  1  0
  8  7  2  0
 10  9  1  0
 10 11  1  6
 11 12  1  0
 12 16  1  0
 13 12  2  0
 13 14  1  0
 14 15  1  0
 16 15  2  0
 17 18  2  0
 17 10  1  0
 19 17  1  0
 20 19  1  0
 21 20  1  0
 22 21  1  0
 22 23  1  0
 23 19  1  0
 23 24  1  6
 25 24  1  0
 26 24  2  0
M  END
$$$$
