IHP.pdb
     RDKit          3D

 26 27  0  0  1  0  0  0  0  0999 V2000
   29.5390  -32.4711  -23.7440 C   0  0  0  0  0  0  0  0  0  0  0  0
   29.5033  -31.1728  -23.0008 C   0  0  0  0  0  0  0  0  0  0  0  0
   29.3441  -31.3922  -21.5057 C   0  0  2  0  0  0  0  0  0  0  0  0
   28.0460  -32.1076  -21.2784 C   0  0  0  0  0  0  0  0  0  0  0  0
   29.3742  -30.0279  -20.8410 C   0  0  2  0  0  0  0  0  0  0  0  0
   30.7392  -29.5224  -20.9314 N   0  0  0  0  0  0  0  0  0  0  0  0
   28.9996  -30.1186  -19.4078 C   0  0  0  0  0  0  0  0  0  0  0  0
   29.8375  -30.4927  -18.5517 O   0  0  0  0  0  0  0  0  0  0  0  0
   27.6947  -29.7892  -18.9576 N   0  0  0  0  0  0  0  0  0  0  0  0
   27.2913  -29.9427  -17.5470 C   0  0  1  0  0  0  0  0  0  0  0  0
   26.6070  -28.6662  -17.0967 C   0  0  0  0  0  0  0  0  0  0  0  0
   27.4463  -27.4713  -17.1857 C   0  0  0  0  0  0  0  0  0  0  0  0
   28.4411  -27.0959  -16.3236 C   0  0  0  0  0  0  0  0  0  0  0  0
   28.9557  -25.9250  -16.7988 N   0  0  0  0  0  0  0  0  0  0  0  0
   28.3108  -25.5710  -17.9212 C   0  0  0  0  0  0  0  0  0  0  0  0
   27.3966  -26.5233  -18.1410 N   0  0  0  0  0  0  0  0  0  0  0  0
   26.5225  -31.1673  -17.3389 C   0  0  0  0  0  0  0  0  0  0  0  0
   25.7830  -31.6616  -18.2730 O   0  0  0  0  0  0  0  0  0  0  0  0
   26.5033  -31.9273  -16.1403 N   0  0  0  0  0  0  0  0  0  0  0  0
   27.2292  -31.6165  -14.9356 C   0  0  0  0  0  0  0  0  0  0  0  0
   27.7411  -32.9522  -14.4711 C   0  0  0  0  0  0  0  0  0  0  0  0
   26.7694  -33.9585  -14.9896 C   0  0  0  0  0  0  0  0  0  0  0  0
   25.7898  -33.1639  -15.8418 C   0  0  1  0  0  0  0  0  0  0  0  0
   24.5917  -32.9590  -14.9963 C   0  0  0  0  0  0  0  0  0  0  0  0
   23.6765  -33.9384  -14.6725 O   0  0  0  0  0  0  0  0  0  0  0  0
   24.4010  -31.8019  -14.5442 O   0  0  0  0  0  0  0  0  0  0  0  0
  1  2  1  0
  3  5  1  0
  3  2  1  0
  3  4  1  6
  5  7  1  0
  5  6  1  1
  7  9  1  0
  8  7  2  0
 10  9  1  0
 10 11  1  6
 11 12  1  0
 12 16  1  0
 13 12  2  0
 13 14  1  0
 14 15  1  0
 16 15  2  0
 17 18  2  0
 17 10  1  0
 19 17  1  0
 20 19  1  0
 21 20  1  0
 22 21  1  0
 22 23  1  0
 23 19  1  0
 23 24  1  1
 25 24  1  0
 26 24  2  0
M  END
$$$$
