CRM.pdb
     RDKit          3D

 26 25  0  0  1  0  0  0  0  0999 V2000
    7.6234  -14.5857   17.6142 N   0  0  0  0  0  0  0  0  0  0  0  0
    8.3745  -14.1117   18.7950 C   0  0  1  0  0  0  0  0  0  0  0  0
    7.9597  -12.6967   19.1216 C   0  0  0  0  0  0  0  0  0  0  0  0
    8.9141  -12.1287   20.5426 S   0  0  0  0  0  0  0  0  0  0  0  0
    7.9765  -14.9899   19.9266 C   0  0  0  0  0  0  0  0  0  0  0  0
    6.7927  -14.9176   20.3241 O   0  0  0  0  0  0  0  0  0  0  0  0
    8.6934  -21.5073   24.9324 N   0  0  0  0  0  0  0  0  0  0  0  0
    7.3408  -21.6023   24.4891 C   0  0  0  0  0  0  0  0  0  0  0  0
    6.4450  -22.2082   25.2112 N   0  0  0  0  0  0  0  0  0  0  0  0
    6.9182  -21.0485   23.2515 N   0  0  0  0  0  0  0  0  0  0  0  0
    7.8815  -20.3431   22.4407 C   0  0  0  0  0  0  0  0  0  0  0  0
    7.7040  -18.8318   22.5607 C   0  0  0  0  0  0  0  0  0  0  0  0
    8.6899  -18.0907   21.7321 C   0  0  0  0  0  0  0  0  0  0  0  0
    8.4757  -16.6285   21.7261 C   0  0  2  0  0  0  0  0  0  0  0  0
    8.8173  -15.8868   20.5765 N   0  0  0  0  0  0  0  0  0  0  0  0
    8.9893  -15.9926   22.9586 C   0  0  0  0  0  0  0  0  0  0  0  0
   10.2334  -15.7987   23.0449 O   0  0  0  0  0  0  0  0  0  0  0  0
    5.4730  -22.3516   24.8792 C   0  0  0  0  0  0  0  0  0  0  0  0
    6.9648  -10.7737   25.7242 S   0  0  0  0  0  0  0  0  0  0  0  0
    6.0866  -12.2268   26.4147 C   0  0  0  0  0  0  0  0  0  0  0  0
    6.7008  -13.7206   25.5821 C   0  0  0  0  0  0  0  0  0  0  0  0
    8.2210  -13.6458   25.5603 C   0  0  1  0  0  0  0  0  0  0  0  0
    8.8077  -15.0085   25.2592 N   0  0  0  0  0  0  0  0  0  0  0  0
    8.2063  -15.5769   24.0580 C   0  0  0  0  0  0  0  0  0  0  0  0
    8.4917  -15.8870   26.3982 O   0  0  0  0  0  0  0  0  0  0  0  0
    7.6662  -16.8065   26.2830 O   0  0  0  0  0  0  0  0  0  0  0  0
  2  5  1  0
  2  1  1  6
  3  2  1  0
  4  3  1  0
  5  6  2  0
  7  8  1  0
  8 10  1  0
  9  8  2  0
 10 11  1  0
 12 11  1  0
 13 12  1  0
 14 13  1  6
 15 14  1  0
 15  5  1  0
 16 14  1  0
 17 16  2  0
 19 18  1  0
 20 19  1  0
 21 20  1  0
 22 21  1  6
 22 23  1  0
 23 16  1  0
 24 22  1  0
 24 26  1  0
 25 24  2  0
M  END
$$$$
