CRM.pdb
     RDKit          3D

 26 25  0  0  1  0  0  0  0  0999 V2000
    7.2584  -14.0544   17.8650 N   0  0  0  0  0  0  0  0  0  0  0  0
    8.4469  -13.8693   18.7232 C   0  0  1  0  0  0  0  0  0  0  0  0
    8.5215  -12.4309   19.1774 C   0  0  0  0  0  0  0  0  0  0  0  0
    9.9165  -12.2537   20.3068 S   0  0  0  0  0  0  0  0  0  0  0  0
    8.2400  -14.7283   19.9187 C   0  0  0  0  0  0  0  0  0  0  0  0
    7.0837  -14.7890   20.3921 O   0  0  0  0  0  0  0  0  0  0  0  0
    9.5763  -20.9906   18.9298 N   0  0  0  0  0  0  0  0  0  0  0  0
    8.1735  -20.9719   19.1885 C   0  0  0  0  0  0  0  0  0  0  0  0
    7.3169  -21.1423   18.2251 N   0  0  0  0  0  0  0  0  0  0  0  0
    7.6561  -20.7649   20.4948 N   0  0  0  0  0  0  0  0  0  0  0  0
    8.3580  -19.8740   21.3873 C   0  0  0  0  0  0  0  0  0  0  0  0
    8.8857  -18.6497   20.6439 C   0  0  0  0  0  0  0  0  0  0  0  0
    9.6111  -17.7218   21.5497 C   0  0  0  0  0  0  0  0  0  0  0  0
    9.0138  -16.3717   21.6137 C   0  0  2  0  0  0  0  0  0  0  0  0
    9.2313  -15.4708   20.5508 N   0  0  0  0  0  0  0  0  0  0  0  0
    9.2418  -15.7314   22.9271 C   0  0  0  0  0  0  0  0  0  0  0  0
   10.4284  -15.4347   23.2380 O   0  0  0  0  0  0  0  0  0  0  0  0
    6.2927  -21.1221   18.3869 C   0  0  0  0  0  0  0  0  0  0  0  0
    5.3351  -11.7567   26.1230 S   0  0  0  0  0  0  0  0  0  0  0  0
    6.9844  -11.6685   26.9177 C   0  0  0  0  0  0  0  0  0  0  0  0
    7.6781  -13.3463   26.9935 C   0  0  0  0  0  0  0  0  0  0  0  0
    7.3340  -14.0482   25.6874 C   0  0  2  0  0  0  0  0  0  0  0  0
    8.5568  -14.7455   25.1302 N   0  0  0  0  0  0  0  0  0  0  0  0
    8.2422  -15.4169   23.8741 C   0  0  0  0  0  0  0  0  0  0  0  0
    8.9703  -15.7633   26.1110 O   0  0  0  0  0  0  0  0  0  0  0  0
    8.7170  -16.9642   25.9274 O   0  0  0  0  0  0  0  0  0  0  0  0
  2  5  1  0
  2  1  1  6
  3  2  1  0
  4  3  1  0
  5  6  2  0
  7  8  1  0
  8 10  1  0
  9  8  2  0
 10 11  1  0
 12 11  1  0
 13 12  1  0
 14 13  1  6
 15 14  1  0
 15  5  1  0
 16 14  1  0
 17 16  2  0
 19 18  1  0
 20 19  1  0
 21 20  1  0
 22 21  1  6
 22 23  1  0
 23 16  1  0
 24 22  1  0
 24 26  1  0
 25 24  2  0
M  END
$$$$
