CRM.pdb
     RDKit          3D

 26 25  0  0  1  0  0  0  0  0999 V2000
    6.8601  -19.5690   26.5345 N   0  0  0  0  0  0  0  0  0  0  0  0
    6.4756  -18.1620   26.2984 C   0  0  1  0  0  0  0  0  0  0  0  0
    6.8364  -17.3312   27.5069 C   0  0  0  0  0  0  0  0  0  0  0  0
    6.2674  -15.6412   27.2365 S   0  0  0  0  0  0  0  0  0  0  0  0
    7.2890  -17.6917   25.1463 C   0  0  0  0  0  0  0  0  0  0  0  0
    8.4000  -18.2367   24.9640 O   0  0  0  0  0  0  0  0  0  0  0  0
    7.9259  -12.9645   16.9412 N   0  0  0  0  0  0  0  0  0  0  0  0
    8.5895  -13.2656   18.1675 C   0  0  0  0  0  0  0  0  0  0  0  0
    9.8627  -13.5291   18.1878 N   0  0  0  0  0  0  0  0  0  0  0  0
    7.8958  -13.2940   19.4065 N   0  0  0  0  0  0  0  0  0  0  0  0
    7.2375  -14.5144   19.8066 C   0  0  0  0  0  0  0  0  0  0  0  0
    7.9753  -15.1877   20.9608 C   0  0  0  0  0  0  0  0  0  0  0  0
    7.0931  -15.3902   22.1391 C   0  0  0  0  0  0  0  0  0  0  0  0
    7.7169  -16.1911   23.2131 C   0  0  2  0  0  0  0  0  0  0  0  0
    6.9103  -16.6942   24.2546 N   0  0  0  0  0  0  0  0  0  0  0  0
    8.9443  -15.5511   23.7338 C   0  0  0  0  0  0  0  0  0  0  0  0
    8.8290  -14.4229   24.2873 O   0  0  0  0  0  0  0  0  0  0  0  0
   10.3586  -13.7903   19.0604 C   0  0  0  0  0  0  0  0  0  0  0  0
    9.4350  -13.1612   28.9846 S   0  0  0  0  0  0  0  0  0  0  0  0
   10.3414  -14.6063   28.3140 C   0  0  0  0  0  0  0  0  0  0  0  0
   10.3659  -14.4807   26.5014 C   0  0  0  0  0  0  0  0  0  0  0  0
   11.0289  -15.7393   25.9598 C   0  0  2  0  0  0  0  0  0  0  0  0
   11.3374  -15.5757   24.4867 N   0  0  0  0  0  0  0  0  0  0  0  0
   10.2465  -16.0939   23.6688 C   0  0  0  0  0  0  0  0  0  0  0  0
   12.5489  -16.3621   24.1991 O   0  0  0  0  0  0  0  0  0  0  0  0
   12.4675  -17.5413   23.8210 O   0  0  0  0  0  0  0  0  0  0  0  0
  2  5  1  0
  2  1  1  1
  3  2  1  0
  4  3  1  0
  5  6  2  0
  7  8  1  0
  8 10  1  0
  9  8  2  0
 10 11  1  0
 12 11  1  0
 13 12  1  0
 14 13  1  1
 15 14  1  0
 15  5  1  0
 16 14  1  0
 17 16  2  0
 19 18  1  0
 20 19  1  0
 21 20  1  0
 22 21  1  1
 22 23  1  0
 23 16  1  0
 24 22  1  0
 24 26  1  0
 25 24  2  0
M  END
$$$$
