CRM.pdb
     RDKit          3D

 26 25  0  0  1  0  0  0  0  0999 V2000
    6.8688  -14.4043   18.5355 N   0  0  0  0  0  0  0  0  0  0  0  0
    8.0877  -14.0007   19.2665 C   0  0  1  0  0  0  0  0  0  0  0  0
    7.9040  -12.6088   19.8232 C   0  0  0  0  0  0  0  0  0  0  0  0
    8.4742  -11.4163   18.5961 S   0  0  0  0  0  0  0  0  0  0  0  0
    8.2276  -14.9463   20.4051 C   0  0  0  0  0  0  0  0  0  0  0  0
    7.2114  -15.1656   21.1007 O   0  0  0  0  0  0  0  0  0  0  0  0
   13.3166  -21.1172   19.2516 N   0  0  0  0  0  0  0  0  0  0  0  0
   12.0634  -20.6140   18.7920 C   0  0  0  0  0  0  0  0  0  0  0  0
   11.1117  -21.4248   18.4345 N   0  0  0  0  0  0  0  0  0  0  0  0
   11.8039  -19.2206   18.7021 N   0  0  0  0  0  0  0  0  0  0  0  0
   11.8939  -18.4183   19.8984 C   0  0  0  0  0  0  0  0  0  0  0  0
   10.5660  -18.3970   20.6509 C   0  0  0  0  0  0  0  0  0  0  0  0
   10.6136  -17.4981   21.8330 C   0  0  0  0  0  0  0  0  0  0  0  0
    9.5360  -16.4870   21.8496 C   0  0  2  0  0  0  0  0  0  0  0  0
    9.3995  -15.6073   20.7560 N   0  0  0  0  0  0  0  0  0  0  0  0
    9.4779  -15.7667   23.1400 C   0  0  0  0  0  0  0  0  0  0  0  0
   10.2093  -14.7475   23.2773 O   0  0  0  0  0  0  0  0  0  0  0  0
   10.1868  -21.0829   18.1130 C   0  0  0  0  0  0  0  0  0  0  0  0
    6.5129  -11.5685   26.1883 S   0  0  0  0  0  0  0  0  0  0  0  0
    7.8732  -12.4069   27.0863 C   0  0  0  0  0  0  0  0  0  0  0  0
    7.4568  -14.1681   27.2491 C   0  0  0  0  0  0  0  0  0  0  0  0
    7.4144  -14.7645   25.8493 C   0  0  1  0  0  0  0  0  0  0  0  0
    8.7452  -15.4024   25.5117 N   0  0  0  0  0  0  0  0  0  0  0  0
    8.6689  -16.1182   24.2430 C   0  0  0  0  0  0  0  0  0  0  0  0
    9.0524  -16.3729   26.5759 O   0  0  0  0  0  0  0  0  0  0  0  0
    8.9874  -17.5937   26.3622 O   0  0  0  0  0  0  0  0  0  0  0  0
  2  5  1  0
  2  1  1  1
  3  2  1  0
  4  3  1  0
  5  6  2  0
  7  8  1  0
  8 10  1  0
  9  8  2  0
 10 11  1  0
 12 11  1  0
 13 12  1  0
 14 13  1  6
 15 14  1  0
 15  5  1  0
 16 14  1  0
 17 16  2  0
 19 18  1  0
 20 19  1  0
 21 20  1  0
 22 21  1  6
 22 23  1  0
 23 16  1  0
 24 22  1  0
 24 26  1  0
 25 24  2  0
M  END
$$$$
