CRM.pdb
     RDKit          3D

 26 25  0  0  1  0  0  0  0  0999 V2000
    6.9752  -14.1585   18.5461 N   0  0  0  0  0  0  0  0  0  0  0  0
    8.1354  -14.1045   19.4594 C   0  0  1  0  0  0  0  0  0  0  0  0
    8.4920  -12.6634   19.7368 C   0  0  0  0  0  0  0  0  0  0  0  0
    9.5866  -12.0774   18.4286 S   0  0  0  0  0  0  0  0  0  0  0  0
    7.6968  -14.7326   20.7335 C   0  0  0  0  0  0  0  0  0  0  0  0
    6.6548  -14.2903   21.2658 O   0  0  0  0  0  0  0  0  0  0  0  0
    6.7284  -19.5915   26.7841 N   0  0  0  0  0  0  0  0  0  0  0  0
    7.8624  -20.3001   26.2871 C   0  0  0  0  0  0  0  0  0  0  0  0
    8.7763  -20.7455   27.0978 N   0  0  0  0  0  0  0  0  0  0  0  0
    8.0430  -20.5447   24.8998 N   0  0  0  0  0  0  0  0  0  0  0  0
    7.1773  -19.8768   23.9578 C   0  0  0  0  0  0  0  0  0  0  0  0
    7.4073  -18.3679   23.9693 C   0  0  0  0  0  0  0  0  0  0  0  0
    7.7656  -17.8520   22.6227 C   0  0  0  0  0  0  0  0  0  0  0  0
    7.9244  -16.3835   22.5761 C   0  0  2  0  0  0  0  0  0  0  0  0
    8.3537  -15.7745   21.3788 N   0  0  0  0  0  0  0  0  0  0  0  0
    8.6719  -15.8740   23.7461 C   0  0  0  0  0  0  0  0  0  0  0  0
    9.9067  -16.1264   23.8097 O   0  0  0  0  0  0  0  0  0  0  0  0
    9.5843  -21.3045   26.7655 C   0  0  0  0  0  0  0  0  0  0  0  0
    7.0272  -10.3528   25.4527 S   0  0  0  0  0  0  0  0  0  0  0  0
    6.6210  -11.4286   26.8801 C   0  0  0  0  0  0  0  0  0  0  0  0
    7.0288  -13.1446   26.4429 C   0  0  0  0  0  0  0  0  0  0  0  0
    8.5427  -13.2428   26.3191 C   0  0  1  0  0  0  0  0  0  0  0  0
    8.9448  -14.6458   25.9167 N   0  0  0  0  0  0  0  0  0  0  0  0
    8.1243  -15.1216   24.8086 C   0  0  0  0  0  0  0  0  0  0  0  0
    8.7125  -15.5220   27.0774 O   0  0  0  0  0  0  0  0  0  0  0  0
    7.8093  -16.3729   27.0619 O   0  0  0  0  0  0  0  0  0  0  0  0
  2  5  1  0
  2  1  1  6
  3  2  1  0
  4  3  1  0
  5  6  2  0
  7  8  1  0
  8 10  1  0
  9  8  2  0
 10 11  1  0
 12 11  1  0
 13 12  1  0
 14 13  1  6
 15 14  1  0
 15  5  1  0
 16 14  1  0
 17 16  2  0
 19 18  1  0
 20 19  1  0
 21 20  1  0
 22 21  1  6
 22 23  1  0
 23 16  1  0
 24 22  1  0
 24 26  1  0
 25 24  2  0
M  END
$$$$
