CRM.pdb
     RDKit          3D

 26 25  0  0  1  0  0  0  0  0999 V2000
    5.6669  -14.0999   25.9781 N   0  0  0  0  0  0  0  0  0  0  0  0
    6.6782  -13.5194   25.0707 C   0  0  1  0  0  0  0  0  0  0  0  0
    7.4764  -12.4717   25.8097 C   0  0  0  0  0  0  0  0  0  0  0  0
    6.3684  -11.1298   26.2837 S   0  0  0  0  0  0  0  0  0  0  0  0
    7.5940  -14.6293   24.6970 C   0  0  0  0  0  0  0  0  0  0  0  0
    7.8001  -15.5194   25.5514 O   0  0  0  0  0  0  0  0  0  0  0  0
    8.3667  -12.5110   17.8510 N   0  0  0  0  0  0  0  0  0  0  0  0
    7.6399  -13.7340   17.7457 C   0  0  0  0  0  0  0  0  0  0  0  0
    7.0205  -14.0473   16.6462 N   0  0  0  0  0  0  0  0  0  0  0  0
    7.5587  -14.6517   18.8267 N   0  0  0  0  0  0  0  0  0  0  0  0
    8.6319  -14.6864   19.7910 C   0  0  0  0  0  0  0  0  0  0  0  0
    8.4709  -15.8588   20.7552 C   0  0  0  0  0  0  0  0  0  0  0  0
    9.5864  -15.9280   21.7342 C   0  0  0  0  0  0  0  0  0  0  0  0
    9.1501  -15.7786   23.1382 C   0  0  2  0  0  0  0  0  0  0  0  0
    8.2379  -14.7560   23.4711 N   0  0  0  0  0  0  0  0  0  0  0  0
   10.2928  -15.8173   24.0761 C   0  0  0  0  0  0  0  0  0  0  0  0
   11.0717  -14.8245   24.0943 O   0  0  0  0  0  0  0  0  0  0  0  0
    6.4630  -14.9172   16.5552 C   0  0  0  0  0  0  0  0  0  0  0  0
    9.0824  -15.2503   30.4032 S   0  0  0  0  0  0  0  0  0  0  0  0
   10.3208  -14.7651   29.1420 C   0  0  0  0  0  0  0  0  0  0  0  0
   10.4936  -16.1262   27.9506 C   0  0  0  0  0  0  0  0  0  0  0  0
   11.5104  -15.6968   26.9024 C   0  0  1  0  0  0  0  0  0  0  0  0
   11.7179  -16.8034   25.8904 N   0  0  0  0  0  0  0  0  0  0  0  0
   10.5940  -16.8742   24.9633 C   0  0  0  0  0  0  0  0  0  0  0  0
   11.7894  -18.0733   26.6328 O   0  0  0  0  0  0  0  0  0  0  0  0
   10.9176  -18.9447   26.4888 O   0  0  0  0  0  0  0  0  0  0  0  0
  2  5  1  0
  2  1  1  1
  3  2  1  0
  4  3  1  0
  5  6  2  0
  7  8  1  0
  8 10  1  0
  9  8  2  0
 10 11  1  0
 12 11  1  0
 13 12  1  0
 14 13  1  6
 15 14  1  0
 15  5  1  0
 16 14  1  0
 17 16  2  0
 19 18  1  0
 20 19  1  0
 21 20  1  0
 22 21  1  6
 22 23  1  0
 23 16  1  0
 24 22  1  0
 24 26  1  0
 25 24  2  0
M  END
$$$$
