CRM.pdb
     RDKit          3D

 26 25  0  0  1  0  0  0  0  0999 V2000
    7.0431  -14.1810   17.6424 N   0  0  0  0  0  0  0  0  0  0  0  0
    8.1150  -13.8546   18.6056 C   0  0  1  0  0  0  0  0  0  0  0  0
    7.9369  -12.4376   19.0969 C   0  0  0  0  0  0  0  0  0  0  0  0
    9.1986  -12.0946   20.3393 S   0  0  0  0  0  0  0  0  0  0  0  0
    7.9388  -14.7762   19.7587 C   0  0  0  0  0  0  0  0  0  0  0  0
    6.7698  -15.0074   20.1389 O   0  0  0  0  0  0  0  0  0  0  0  0
   10.8911  -19.8869   19.0417 N   0  0  0  0  0  0  0  0  0  0  0  0
   10.4091  -20.8604   19.9664 C   0  0  0  0  0  0  0  0  0  0  0  0
   10.8728  -22.0751   19.9557 N   0  0  0  0  0  0  0  0  0  0  0  0
    9.4097  -20.5501   20.9265 N   0  0  0  0  0  0  0  0  0  0  0  0
    9.8138  -19.9939   22.1955 C   0  0  0  0  0  0  0  0  0  0  0  0
    9.1801  -18.6244   22.4257 C   0  0  0  0  0  0  0  0  0  0  0  0
    9.4782  -17.6825   21.3160 C   0  0  0  0  0  0  0  0  0  0  0  0
    8.8014  -16.3759   21.4527 C   0  0  2  0  0  0  0  0  0  0  0  0
    8.9723  -15.4027   20.4465 N   0  0  0  0  0  0  0  0  0  0  0  0
    8.9822  -15.8018   22.8035 C   0  0  0  0  0  0  0  0  0  0  0  0
   10.0952  -15.2711   23.0721 O   0  0  0  0  0  0  0  0  0  0  0  0
   10.6017  -22.7759   20.6706 C   0  0  0  0  0  0  0  0  0  0  0  0
    6.6393  -10.6844   27.5802 S   0  0  0  0  0  0  0  0  0  0  0  0
    6.3779  -11.8048   26.1534 C   0  0  0  0  0  0  0  0  0  0  0  0
    6.9319  -13.4713   26.6202 C   0  0  0  0  0  0  0  0  0  0  0  0
    6.7885  -14.3657   25.3969 C   0  0  1  0  0  0  0  0  0  0  0  0
    8.1369  -14.9262   24.9975 N   0  0  0  0  0  0  0  0  0  0  0  0
    8.0123  -15.7919   23.8302 C   0  0  0  0  0  0  0  0  0  0  0  0
    8.6312  -15.7340   26.1253 O   0  0  0  0  0  0  0  0  0  0  0  0
    8.4172  -16.9554   26.1754 O   0  0  0  0  0  0  0  0  0  0  0  0
  2  5  1  0
  2  1  1  6
  3  2  1  0
  4  3  1  0
  5  6  2  0
  7  8  1  0
  8 10  1  0
  9  8  2  0
 10 11  1  0
 12 11  1  0
 13 12  1  0
 14 13  1  6
 15 14  1  0
 15  5  1  0
 16 14  1  0
 17 16  2  0
 19 18  1  0
 20 19  1  0
 21 20  1  0
 22 21  1  6
 22 23  1  0
 23 16  1  0
 24 22  1  0
 24 26  1  0
 25 24  2  0
M  END
$$$$
