CRM.pdb
     RDKit          3D

 26 25  0  0  1  0  0  0  0  0999 V2000
    6.5095  -19.7204   25.2614 N   0  0  0  0  0  0  0  0  0  0  0  0
    7.1919  -20.2488   24.0622 C   0  0  1  0  0  0  0  0  0  0  0  0
    6.2386  -21.1248   23.2846 C   0  0  0  0  0  0  0  0  0  0  0  0
    4.7993  -21.4689   24.3156 S   0  0  0  0  0  0  0  0  0  0  0  0
    7.5379  -19.0718   23.2226 C   0  0  0  0  0  0  0  0  0  0  0  0
    8.4773  -19.2014   22.4069 O   0  0  0  0  0  0  0  0  0  0  0  0
    8.6330  -14.1284   17.4774 N   0  0  0  0  0  0  0  0  0  0  0  0
    8.6739  -13.0687   18.4315 C   0  0  0  0  0  0  0  0  0  0  0  0
    9.0482  -11.8733   18.0826 N   0  0  0  0  0  0  0  0  0  0  0  0
    8.3151  -13.2711   19.7907 N   0  0  0  0  0  0  0  0  0  0  0  0
    7.5911  -14.4675   20.1476 C   0  0  0  0  0  0  0  0  0  0  0  0
    7.1765  -14.4453   21.6164 C   0  0  0  0  0  0  0  0  0  0  0  0
    6.5203  -15.7139   22.0260 C   0  0  0  0  0  0  0  0  0  0  0  0
    7.4182  -16.6350   22.7536 C   0  0  2  0  0  0  0  0  0  0  0  0
    6.8975  -17.8385   23.2721 N   0  0  0  0  0  0  0  0  0  0  0  0
    8.2444  -15.9227   23.7522 C   0  0  0  0  0  0  0  0  0  0  0  0
    9.0964  -15.0947   23.3267 O   0  0  0  0  0  0  0  0  0  0  0  0
    9.0728  -11.0841   18.7550 C   0  0  0  0  0  0  0  0  0  0  0  0
    7.2650  -10.7674   27.0074 S   0  0  0  0  0  0  0  0  0  0  0  0
    6.2894  -12.3031   26.7845 C   0  0  0  0  0  0  0  0  0  0  0  0
    7.2837  -13.4834   25.8253 C   0  0  0  0  0  0  0  0  0  0  0  0
    8.1266  -14.2838   26.8081 C   0  0  2  0  0  0  0  0  0  0  0  0
    8.9789  -15.2917   26.0667 N   0  0  0  0  0  0  0  0  0  0  0  0
    8.1647  -16.0853   25.1529 C   0  0  0  0  0  0  0  0  0  0  0  0
    9.5675  -16.1953   27.0698 O   0  0  0  0  0  0  0  0  0  0  0  0
    9.2743  -17.4010   27.0902 O   0  0  0  0  0  0  0  0  0  0  0  0
  2  5  1  0
  2  1  1  1
  3  2  1  0
  4  3  1  0
  5  6  2  0
  7  8  1  0
  8 10  1  0
  9  8  2  0
 10 11  1  0
 12 11  1  0
 13 12  1  0
 14 13  1  1
 15 14  1  0
 15  5  1  0
 16 14  1  0
 17 16  2  0
 19 18  1  0
 20 19  1  0
 21 20  1  0
 22 21  1  6
 22 23  1  0
 23 16  1  0
 24 22  1  0
 24 26  1  0
 25 24  2  0
M  END
$$$$
