HKP.pdb
     RDKit          3D

 27 28  0  0  1  0  0  0  0  0999 V2000
    9.0451  -15.6158   20.3473 N   0  0  0  0  0  0  0  0  0  0  0  0
    8.4667  -14.4212   20.8697 C   0  0  1  0  0  0  0  0  0  0  0  0
    7.3095  -13.9027   20.0178 C   0  0  0  0  0  0  0  0  0  0  0  0
    7.6749  -13.8222   18.5860 C   0  0  0  0  0  0  0  0  0  0  0  0
    8.3441  -12.8027   17.9676 C   0  0  0  0  0  0  0  0  0  0  0  0
    8.4719  -13.1290   16.6533 N   0  0  0  0  0  0  0  0  0  0  0  0
    7.8915  -14.3390   16.4419 C   0  0  0  0  0  0  0  0  0  0  0  0
    7.4140  -14.7404   17.6315 N   0  0  0  0  0  0  0  0  0  0  0  0
    7.9079  -14.6899   22.2144 C   0  0  0  0  0  0  0  0  0  0  0  0
    7.2024  -13.7981   22.7530 O   0  0  0  0  0  0  0  0  0  0  0  0
    8.1505  -15.9020   22.8820 N   0  0  0  0  0  0  0  0  0  0  0  0
    7.6323  -16.0907   24.2511 C   0  0  1  0  0  0  0  0  0  0  0  0
    7.2667  -17.5572   24.3136 C   0  0  0  0  0  0  0  0  0  0  0  0
    6.0933  -17.9927   23.5458 C   0  0  0  0  0  0  0  0  0  0  0  0
    5.8395  -19.4880   23.8066 C   0  0  0  0  0  0  0  0  0  0  0  0
    4.6374  -20.0129   23.0971 C   0  0  0  0  0  0  0  0  0  0  0  0
    4.9923  -21.2918   22.4896 N   0  0  0  0  0  0  0  0  0  0  0  0
    8.5914  -15.6260   25.2367 C   0  0  0  0  0  0  0  0  0  0  0  0
    9.7945  -16.0660   25.1246 O   0  0  0  0  0  0  0  0  0  0  0  0
    8.3606  -14.7396   26.3047 N   0  0  0  0  0  0  0  0  0  0  0  0
    7.0980  -14.0791   26.6242 C   0  0  0  0  0  0  0  0  0  0  0  0
    7.5475  -12.7324   27.1994 C   0  0  0  0  0  0  0  0  0  0  0  0
    8.6493  -13.2351   28.1068 C   0  0  0  0  0  0  0  0  0  0  0  0
    9.3149  -14.2864   27.2956 C   0  0  1  0  0  0  0  0  0  0  0  0
    9.8856  -15.3850   28.0826 C   0  0  0  0  0  0  0  0  0  0  0  0
   11.0177  -15.1542   28.8433 O   0  0  0  0  0  0  0  0  0  0  0  0
    9.3816  -16.5315   28.0904 O   0  0  0  0  0  0  0  0  0  0  0  0
  2  1  1  6
  2  3  1  0
  3  4  1  0
  4  8  1  0
  5  4  2  0
  5  6  1  0
  6  7  1  0
  8  7  2  0
  9  2  1  0
 10  9  2  0
 11  9  1  0
 12 11  1  0
 12 13  1  1
 13 14  1  0
 15 14  1  0
 16 17  1  0
 16 15  1  0
 18 12  1  0
 19 18  2  0
 20 18  1  0
 20 21  1  0
 22 21  1  0
 23 24  1  0
 23 22  1  0
 24 25  1  1
 24 20  1  0
 25 26  1  0
 27 25  2  0
M  END
$$$$
