HKP.pdb
     RDKit          3D

 27 28  0  0  1  0  0  0  0  0999 V2000
    6.8539  -16.6767   19.7866 N   0  0  0  0  0  0  0  0  0  0  0  0
    7.6909  -15.7676   20.4989 C   0  0  1  0  0  0  0  0  0  0  0  0
    7.6531  -14.3532   19.9227 C   0  0  0  0  0  0  0  0  0  0  0  0
    8.2068  -14.3042   18.5512 C   0  0  0  0  0  0  0  0  0  0  0  0
    8.8201  -15.3245   17.8786 C   0  0  0  0  0  0  0  0  0  0  0  0
    9.1761  -14.8565   16.6521 N   0  0  0  0  0  0  0  0  0  0  0  0
    8.7934  -13.5570   16.5491 C   0  0  0  0  0  0  0  0  0  0  0  0
    8.2064  -13.2438   17.7159 N   0  0  0  0  0  0  0  0  0  0  0  0
    7.2241  -15.6605   21.9001 C   0  0  0  0  0  0  0  0  0  0  0  0
    6.1105  -15.1154   22.1146 O   0  0  0  0  0  0  0  0  0  0  0  0
    7.9923  -16.1495   22.9698 N   0  0  0  0  0  0  0  0  0  0  0  0
    7.4380  -16.1090   24.3372 C   0  0  1  0  0  0  0  0  0  0  0  0
    7.4580  -17.5517   24.7916 C   0  0  0  0  0  0  0  0  0  0  0  0
    7.0790  -17.8253   26.1836 C   0  0  0  0  0  0  0  0  0  0  0  0
    7.2510  -19.3269   26.4731 C   0  0  0  0  0  0  0  0  0  0  0  0
    6.9398  -19.6929   27.8849 C   0  0  0  0  0  0  0  0  0  0  0  0
    7.2495  -21.1080   28.0648 N   0  0  0  0  0  0  0  0  0  0  0  0
    8.1679  -15.1655   25.1645 C   0  0  0  0  0  0  0  0  0  0  0  0
    9.4494  -15.2724   25.1696 O   0  0  0  0  0  0  0  0  0  0  0  0
    7.6360  -14.1362   25.9627 N   0  0  0  0  0  0  0  0  0  0  0  0
    6.2438  -13.6965   25.9940 C   0  0  0  0  0  0  0  0  0  0  0  0
    6.3612  -12.1944   26.2702 C   0  0  0  0  0  0  0  0  0  0  0  0
    7.3975  -12.2515   27.3716 C   0  0  0  0  0  0  0  0  0  0  0  0
    8.3464  -13.2932   26.9022 C   0  0  1  0  0  0  0  0  0  0  0  0
    8.9885  -14.0544   27.9794 C   0  0  0  0  0  0  0  0  0  0  0  0
    8.6573  -15.3858   28.1562 O   0  0  0  0  0  0  0  0  0  0  0  0
    9.8309  -13.5388   28.7495 O   0  0  0  0  0  0  0  0  0  0  0  0
  2  1  1  6
  2  3  1  0
  3  4  1  0
  4  8  1  0
  5  4  2  0
  5  6  1  0
  6  7  1  0
  8  7  2  0
  9  2  1  0
 10  9  2  0
 11  9  1  0
 12 11  1  0
 12 13  1  1
 13 14  1  0
 15 14  1  0
 16 17  1  0
 16 15  1  0
 18 12  1  0
 19 18  2  0
 20 18  1  0
 20 21  1  0
 22 21  1  0
 23 24  1  0
 23 22  1  0
 24 25  1  1
 24 20  1  0
 25 26  1  0
 27 25  2  0
M  END
$$$$
