HKP.pdb
     RDKit          3D

 27 28  0  0  1  0  0  0  0  0999 V2000
    7.1698  -16.7184   19.8779 N   0  0  0  0  0  0  0  0  0  0  0  0
    7.6357  -15.5973   20.6266 C   0  0  1  0  0  0  0  0  0  0  0  0
    7.1114  -14.2673   20.0883 C   0  0  0  0  0  0  0  0  0  0  0  0
    7.7187  -13.9258   18.7827 C   0  0  0  0  0  0  0  0  0  0  0  0
    8.5937  -12.9065   18.5280 C   0  0  0  0  0  0  0  0  0  0  0  0
    8.9024  -12.9474   17.2038 N   0  0  0  0  0  0  0  0  0  0  0  0
    8.2317  -13.9787   16.6275 C   0  0  0  0  0  0  0  0  0  0  0  0
    7.5189  -14.5586   17.6071 N   0  0  0  0  0  0  0  0  0  0  0  0
    7.1548  -15.7016   22.0232 C   0  0  0  0  0  0  0  0  0  0  0  0
    5.9170  -15.6160   22.2325 O   0  0  0  0  0  0  0  0  0  0  0  0
    8.0440  -15.8909   23.0943 N   0  0  0  0  0  0  0  0  0  0  0  0
    7.5135  -15.9777   24.4689 C   0  0  1  0  0  0  0  0  0  0  0  0
    7.6003  -17.4487   24.8108 C   0  0  0  0  0  0  0  0  0  0  0  0
    7.2084  -17.8495   26.1680 C   0  0  0  0  0  0  0  0  0  0  0  0
    7.4144  -19.3658   26.3314 C   0  0  0  0  0  0  0  0  0  0  0  0
    7.1322  -19.8521   27.7126 C   0  0  0  0  0  0  0  0  0  0  0  0
    7.4116  -21.2842   27.7546 N   0  0  0  0  0  0  0  0  0  0  0  0
    8.2196  -15.0703   25.3551 C   0  0  0  0  0  0  0  0  0  0  0  0
    9.4998  -15.1833   25.3974 O   0  0  0  0  0  0  0  0  0  0  0  0
    7.6657  -14.0698   26.1748 N   0  0  0  0  0  0  0  0  0  0  0  0
    6.2646  -13.6600   26.2139 C   0  0  0  0  0  0  0  0  0  0  0  0
    6.3504  -12.1622   26.5229 C   0  0  0  0  0  0  0  0  0  0  0  0
    7.3868  -12.2215   27.6241 C   0  0  0  0  0  0  0  0  0  0  0  0
    8.3576  -13.2329   27.1333 C   0  0  1  0  0  0  0  0  0  0  0  0
    9.0146  -14.0037   28.1945 C   0  0  0  0  0  0  0  0  0  0  0  0
    9.9344  -13.3759   29.0151 O   0  0  0  0  0  0  0  0  0  0  0  0
    8.7711  -15.2173   28.3854 O   0  0  0  0  0  0  0  0  0  0  0  0
  2  1  1  6
  2  3  1  0
  3  4  1  0
  4  8  1  0
  5  4  2  0
  5  6  1  0
  6  7  1  0
  8  7  2  0
  9  2  1  0
 10  9  2  0
 11  9  1  0
 12 11  1  0
 12 13  1  1
 13 14  1  0
 15 14  1  0
 16 17  1  0
 16 15  1  0
 18 12  1  0
 19 18  2  0
 20 18  1  0
 20 21  1  0
 22 21  1  0
 23 24  1  0
 23 22  1  0
 24 25  1  1
 24 20  1  0
 25 26  1  0
 27 25  2  0
M  END
$$$$
