HKP.pdb
     RDKit          3D

 27 28  0  0  1  0  0  0  0  0999 V2000
    8.5422  -16.1291   20.0889 N   0  0  0  0  0  0  0  0  0  0  0  0
    8.2191  -14.8705   20.6770 C   0  0  1  0  0  0  0  0  0  0  0  0
    7.2382  -14.0578   19.8337 C   0  0  0  0  0  0  0  0  0  0  0  0
    7.6940  -13.9306   18.4316 C   0  0  0  0  0  0  0  0  0  0  0  0
    8.3664  -12.8746   17.8816 C   0  0  0  0  0  0  0  0  0  0  0  0
    8.5919  -13.1647   16.5719 N   0  0  0  0  0  0  0  0  0  0  0  0
    8.0693  -14.3880   16.2960 C   0  0  0  0  0  0  0  0  0  0  0  0
    7.5289  -14.8338   17.4420 N   0  0  0  0  0  0  0  0  0  0  0  0
    7.5623  -15.0908   21.9857 C   0  0  0  0  0  0  0  0  0  0  0  0
    6.4444  -14.5496   22.1872 O   0  0  0  0  0  0  0  0  0  0  0  0
    8.1588  -15.8795   22.9836 N   0  0  0  0  0  0  0  0  0  0  0  0
    7.5209  -15.9714   24.3115 C   0  0  1  0  0  0  0  0  0  0  0  0
    7.5165  -17.4518   24.6223 C   0  0  0  0  0  0  0  0  0  0  0  0
    7.1524  -17.8529   25.9872 C   0  0  0  0  0  0  0  0  0  0  0  0
    7.3860  -19.3648   26.1537 C   0  0  0  0  0  0  0  0  0  0  0  0
    6.9884  -19.8768   27.4968 C   0  0  0  0  0  0  0  0  0  0  0  0
    7.0680  -21.3340   27.4679 N   0  0  0  0  0  0  0  0  0  0  0  0
    8.1958  -15.1163   25.2710 C   0  0  0  0  0  0  0  0  0  0  0  0
    9.4718  -15.2464   25.3636 O   0  0  0  0  0  0  0  0  0  0  0  0
    7.6160  -14.1502   26.1136 N   0  0  0  0  0  0  0  0  0  0  0  0
    6.2301  -13.6913   26.0792 C   0  0  0  0  0  0  0  0  0  0  0  0
    6.3420  -12.2206   26.4927 C   0  0  0  0  0  0  0  0  0  0  0  0
    7.2914  -12.3893   27.6590 C   0  0  0  0  0  0  0  0  0  0  0  0
    8.2622  -13.4030   27.1728 C   0  0  1  0  0  0  0  0  0  0  0  0
    8.8129  -14.2644   28.2248 C   0  0  0  0  0  0  0  0  0  0  0  0
    9.7323  -13.7397   29.1153 O   0  0  0  0  0  0  0  0  0  0  0  0
    8.4786  -15.4653   28.3463 O   0  0  0  0  0  0  0  0  0  0  0  0
  2  1  1  6
  2  3  1  0
  3  4  1  0
  4  8  1  0
  5  4  2  0
  5  6  1  0
  6  7  1  0
  8  7  2  0
  9  2  1  0
 10  9  2  0
 11  9  1  0
 12 11  1  0
 12 13  1  1
 13 14  1  0
 15 14  1  0
 16 17  1  0
 16 15  1  0
 18 12  1  0
 19 18  2  0
 20 18  1  0
 20 21  1  0
 22 21  1  0
 23 24  1  0
 23 22  1  0
 24 25  1  1
 24 20  1  0
 25 26  1  0
 27 25  2  0
M  END
$$$$
