HKP.pdb
     RDKit          3D

 27 28  0  0  1  0  0  0  0  0999 V2000
    8.4871  -17.4415   19.9653 N   0  0  0  0  0  0  0  0  0  0  0  0
    9.3286  -16.8044   20.9246 C   0  0  1  0  0  0  0  0  0  0  0  0
   10.0690  -15.5967   20.3526 C   0  0  0  0  0  0  0  0  0  0  0  0
   11.2210  -16.0040   19.5178 C   0  0  0  0  0  0  0  0  0  0  0  0
   12.5458  -15.8587   19.8234 C   0  0  0  0  0  0  0  0  0  0  0  0
   13.2674  -16.3633   18.7865 N   0  0  0  0  0  0  0  0  0  0  0  0
   12.4110  -16.8220   17.8368 C   0  0  0  0  0  0  0  0  0  0  0  0
   11.1727  -16.5927   18.3039 N   0  0  0  0  0  0  0  0  0  0  0  0
    8.5042  -16.2968   22.0451 C   0  0  0  0  0  0  0  0  0  0  0  0
    7.4978  -15.5933   21.7702 O   0  0  0  0  0  0  0  0  0  0  0  0
    8.8247  -16.5847   23.3822 N   0  0  0  0  0  0  0  0  0  0  0  0
    7.8680  -16.2293   24.4486 C   0  0  1  0  0  0  0  0  0  0  0  0
    7.3028  -17.5573   24.9015 C   0  0  0  0  0  0  0  0  0  0  0  0
    6.5506  -18.3418   23.9139 C   0  0  0  0  0  0  0  0  0  0  0  0
    6.2275  -19.7267   24.5020 C   0  0  0  0  0  0  0  0  0  0  0  0
    5.4090  -20.5764   23.5898 C   0  0  0  0  0  0  0  0  0  0  0  0
    5.2464  -21.8856   24.2146 N   0  0  0  0  0  0  0  0  0  0  0  0
    8.5084  -15.4223   25.4714 C   0  0  0  0  0  0  0  0  0  0  0  0
    9.7324  -15.7038   25.7473 O   0  0  0  0  0  0  0  0  0  0  0  0
    7.9464  -14.3564   26.1977 N   0  0  0  0  0  0  0  0  0  0  0  0
    6.6584  -13.7179   25.9412 C   0  0  0  0  0  0  0  0  0  0  0  0
    6.9081  -12.2609   26.3426 C   0  0  0  0  0  0  0  0  0  0  0  0
    7.6375  -12.5111   27.6447 C   0  0  0  0  0  0  0  0  0  0  0  0
    8.5215  -13.6630   27.3319 C   0  0  1  0  0  0  0  0  0  0  0  0
    8.7826  -14.5501   28.4707 C   0  0  0  0  0  0  0  0  0  0  0  0
    9.5423  -14.0852   29.5291 O   0  0  0  0  0  0  0  0  0  0  0  0
    8.3396  -15.7206   28.5193 O   0  0  0  0  0  0  0  0  0  0  0  0
  2  1  1  6
  2  3  1  0
  3  4  1  0
  4  8  1  0
  5  4  2  0
  5  6  1  0
  6  7  1  0
  8  7  2  0
  9  2  1  0
 10  9  2  0
 11  9  1  0
 12 11  1  0
 12 13  1  1
 13 14  1  0
 15 14  1  0
 16 17  1  0
 16 15  1  0
 18 12  1  0
 19 18  2  0
 20 18  1  0
 20 21  1  0
 22 21  1  0
 23 24  1  0
 23 22  1  0
 24 25  1  1
 24 20  1  0
 25 26  1  0
 27 25  2  0
M  END
$$$$
