HKP.pdb
     RDKit          3D

 27 28  0  0  1  0  0  0  0  0999 V2000
    6.4575  -16.2636   19.8083 N   0  0  0  0  0  0  0  0  0  0  0  0
    7.3894  -15.5492   20.6182 C   0  0  1  0  0  0  0  0  0  0  0  0
    7.4292  -14.0562   20.2972 C   0  0  0  0  0  0  0  0  0  0  0  0
    8.0047  -13.7976   18.9587 C   0  0  0  0  0  0  0  0  0  0  0  0
    7.3806  -13.1965   17.9010 C   0  0  0  0  0  0  0  0  0  0  0  0
    8.2636  -13.1578   16.8670 N   0  0  0  0  0  0  0  0  0  0  0  0
    9.4315  -13.7268   17.2645 C   0  0  0  0  0  0  0  0  0  0  0  0
    9.2499  -14.1080   18.5395 N   0  0  0  0  0  0  0  0  0  0  0  0
    6.9942  -15.6604   22.0409 C   0  0  0  0  0  0  0  0  0  0  0  0
    5.7904  -15.4503   22.3406 O   0  0  0  0  0  0  0  0  0  0  0  0
    7.9265  -15.9904   23.0387 N   0  0  0  0  0  0  0  0  0  0  0  0
    7.4941  -16.0285   24.4494 C   0  0  1  0  0  0  0  0  0  0  0  0
    7.7158  -17.4646   24.8697 C   0  0  0  0  0  0  0  0  0  0  0  0
    7.3650  -17.8250   26.2493 C   0  0  0  0  0  0  0  0  0  0  0  0
    7.7146  -19.3034   26.4947 C   0  0  0  0  0  0  0  0  0  0  0  0
    7.2915  -19.7924   27.8385 C   0  0  0  0  0  0  0  0  0  0  0  0
    7.4667  -21.2413   27.8692 N   0  0  0  0  0  0  0  0  0  0  0  0
    8.1839  -15.0176   25.2303 C   0  0  0  0  0  0  0  0  0  0  0  0
    9.4654  -14.9837   25.1287 O   0  0  0  0  0  0  0  0  0  0  0  0
    7.6120  -14.0591   26.0869 N   0  0  0  0  0  0  0  0  0  0  0  0
    6.1856  -13.8266   26.2962 C   0  0  0  0  0  0  0  0  0  0  0  0
    6.1144  -12.3175   26.5498 C   0  0  0  0  0  0  0  0  0  0  0  0
    7.2793  -12.1981   27.5083 C   0  0  0  0  0  0  0  0  0  0  0  0
    8.3040  -13.1007   26.9238 C   0  0  1  0  0  0  0  0  0  0  0  0
    9.1831  -13.7357   27.9117 C   0  0  0  0  0  0  0  0  0  0  0  0
   10.1152  -12.9637   28.5818 O   0  0  0  0  0  0  0  0  0  0  0  0
    9.1197  -14.9591   28.1718 O   0  0  0  0  0  0  0  0  0  0  0  0
  2  1  1  6
  2  3  1  0
  3  4  1  0
  4  8  1  0
  5  4  2  0
  5  6  1  0
  6  7  1  0
  8  7  2  0
  9  2  1  0
 10  9  2  0
 11  9  1  0
 12 11  1  0
 12 13  1  1
 13 14  1  0
 15 14  1  0
 16 17  1  0
 16 15  1  0
 18 12  1  0
 19 18  2  0
 20 18  1  0
 20 21  1  0
 22 21  1  0
 23 24  1  0
 23 22  1  0
 24 25  1  1
 24 20  1  0
 25 26  1  0
 27 25  2  0
M  END
$$$$
