HKP.pdb
     RDKit          3D

 27 28  0  0  1  0  0  0  0  0999 V2000
    3.6785  -27.6225   25.4052 N   0  0  0  0  0  0  0  0  0  0  0  0
    3.5002  -27.4231   26.8062 C   0  0  1  0  0  0  0  0  0  0  0  0
    4.1247  -26.1202   27.3025 C   0  0  0  0  0  0  0  0  0  0  0  0
    5.5964  -26.1230   27.1477 C   0  0  0  0  0  0  0  0  0  0  0  0
    6.5013  -26.7825   27.9324 C   0  0  0  0  0  0  0  0  0  0  0  0
    7.7430  -26.5178   27.4440 N   0  0  0  0  0  0  0  0  0  0  0  0
    7.6262  -25.7014   26.3644 C   0  0  0  0  0  0  0  0  0  0  0  0
    6.3120  -25.4753   26.2038 N   0  0  0  0  0  0  0  0  0  0  0  0
    2.0541  -27.3366   27.1127 C   0  0  0  0  0  0  0  0  0  0  0  0
    1.3203  -26.6773   26.3316 O   0  0  0  0  0  0  0  0  0  0  0  0
    1.5031  -27.9679   28.2404 N   0  0  0  0  0  0  0  0  0  0  0  0
    0.0362  -28.0242   28.3939 C   0  0  1  0  0  0  0  0  0  0  0  0
   -0.2332  -29.4242   28.8996 C   0  0  0  0  0  0  0  0  0  0  0  0
   -1.6298  -29.7840   29.1761 C   0  0  0  0  0  0  0  0  0  0  0  0
   -1.6852  -31.2126   29.7453 C   0  0  0  0  0  0  0  0  0  0  0  0
   -3.0605  -31.6373   30.1352 C   0  0  0  0  0  0  0  0  0  0  0  0
   -2.9713  -32.9640   30.7374 N   0  0  0  0  0  0  0  0  0  0  0  0
   -0.4394  -26.9373   29.2305 C   0  0  0  0  0  0  0  0  0  0  0  0
    0.3274  -26.5735   30.1965 O   0  0  0  0  0  0  0  0  0  0  0  0
   -1.6462  -26.2250   29.1050 N   0  0  0  0  0  0  0  0  0  0  0  0
   -2.5901  -26.3098   27.9939 C   0  0  0  0  0  0  0  0  0  0  0  0
   -3.1544  -24.8882   27.9097 C   0  0  0  0  0  0  0  0  0  0  0  0
   -3.3943  -24.6566   29.3858 C   0  0  0  0  0  0  0  0  0  0  0  0
   -2.1986  -25.2575   30.0305 C   0  0  1  0  0  0  0  0  0  0  0  0
   -2.4494  -25.8200   31.3619 C   0  0  0  0  0  0  0  0  0  0  0  0
   -2.4067  -24.9878   32.4661 O   0  0  0  0  0  0  0  0  0  0  0  0
   -2.7024  -27.0342   31.5359 O   0  0  0  0  0  0  0  0  0  0  0  0
  2  1  1  6
  2  3  1  0
  3  4  1  0
  4  8  1  0
  5  4  2  0
  5  6  1  0
  6  7  1  0
  8  7  2  0
  9  2  1  0
 10  9  2  0
 11  9  1  0
 12 11  1  0
 12 13  1  1
 13 14  1  0
 15 14  1  0
 16 17  1  0
 16 15  1  0
 18 12  1  0
 19 18  2  0
 20 18  1  0
 20 21  1  0
 22 21  1  0
 23 24  1  0
 23 22  1  0
 24 25  1  1
 24 20  1  0
 25 26  1  0
 27 25  2  0
M  END
$$$$
