HKP.pdb
     RDKit          3D

 27 28  0  0  1  0  0  0  0  0999 V2000
   12.6811  -18.1241   24.8281 N   0  0  0  0  0  0  0  0  0  0  0  0
   11.2599  -18.1055   24.9473 C   0  0  1  0  0  0  0  0  0  0  0  0
   10.7784  -18.4906   26.3451 C   0  0  0  0  0  0  0  0  0  0  0  0
   11.2825  -19.8211   26.7521 C   0  0  0  0  0  0  0  0  0  0  0  0
   11.5297  -20.8886   25.9342 C   0  0  0  0  0  0  0  0  0  0  0  0
   11.9806  -21.9097   26.7116 N   0  0  0  0  0  0  0  0  0  0  0  0
   12.0185  -21.4946   28.0046 C   0  0  0  0  0  0  0  0  0  0  0  0
   11.5895  -20.2218   28.0041 N   0  0  0  0  0  0  0  0  0  0  0  0
   10.7610  -16.7340   24.6967 C   0  0  0  0  0  0  0  0  0  0  0  0
   11.4469  -15.7669   25.1181 O   0  0  0  0  0  0  0  0  0  0  0  0
    9.5576  -16.5041   24.0092 N   0  0  0  0  0  0  0  0  0  0  0  0
    9.1141  -15.1167   23.7703 C   0  0  1  0  0  0  0  0  0  0  0  0
    8.6868  -15.1055   22.3193 C   0  0  0  0  0  0  0  0  0  0  0  0
    8.1799  -13.8392   21.7756 C   0  0  0  0  0  0  0  0  0  0  0  0
    7.8617  -14.0172   20.2805 C   0  0  0  0  0  0  0  0  0  0  0  0
    7.3956  -12.7614   19.6250 C   0  0  0  0  0  0  0  0  0  0  0  0
    7.1852  -13.0413   18.2079 N   0  0  0  0  0  0  0  0  0  0  0  0
    8.1077  -14.7205   24.7386 C   0  0  0  0  0  0  0  0  0  0  0  0
    7.4114  -15.6635   25.2672 O   0  0  0  0  0  0  0  0  0  0  0  0
    7.8055  -13.4176   25.1753 N   0  0  0  0  0  0  0  0  0  0  0  0
    8.4988  -12.1921   24.7880 C   0  0  0  0  0  0  0  0  0  0  0  0
    8.4062  -11.3284   26.0498 C   0  0  0  0  0  0  0  0  0  0  0  0
    6.9487  -11.5697   26.3777 C   0  0  0  0  0  0  0  0  0  0  0  0
    6.7653  -13.0174   26.1004 C   0  0  1  0  0  0  0  0  0  0  0  0
    5.4206  -13.3777   25.6379 C   0  0  0  0  0  0  0  0  0  0  0  0
    4.3668  -13.3454   26.5334 O   0  0  0  0  0  0  0  0  0  0  0  0
    5.1911  -13.7157   24.4540 O   0  0  0  0  0  0  0  0  0  0  0  0
  2  1  1  1
  2  3  1  0
  3  4  1  0
  4  8  1  0
  5  4  2  0
  5  6  1  0
  6  7  1  0
  8  7  2  0
  9  2  1  0
 10  9  2  0
 11  9  1  0
 12 11  1  0
 12 13  1  6
 13 14  1  0
 15 14  1  0
 16 17  1  0
 16 15  1  0
 18 12  1  0
 19 18  2  0
 20 18  1  0
 20 21  1  0
 22 21  1  0
 23 24  1  0
 23 22  1  0
 24 25  1  6
 24 20  1  0
 25 26  1  0
 27 25  2  0
M  END
$$$$
