HKP.pdb
     RDKit          3D

 27 28  0  0  1  0  0  0  0  0999 V2000
    8.9173  -16.0029   20.4160 N   0  0  0  0  0  0  0  0  0  0  0  0
    8.3267  -14.7631   20.8013 C   0  0  1  0  0  0  0  0  0  0  0  0
    7.2457  -14.2952   19.8286 C   0  0  0  0  0  0  0  0  0  0  0  0
    7.7269  -14.3003   18.4292 C   0  0  0  0  0  0  0  0  0  0  0  0
    8.3702  -13.2829   17.7806 C   0  0  0  0  0  0  0  0  0  0  0  0
    8.6353  -13.7018   16.5139 N   0  0  0  0  0  0  0  0  0  0  0  0
    8.1661  -14.9678   16.3622 C   0  0  0  0  0  0  0  0  0  0  0  0
    7.6182  -15.3100   17.5398 N   0  0  0  0  0  0  0  0  0  0  0  0
    7.6657  -14.9187   22.1172 C   0  0  0  0  0  0  0  0  0  0  0  0
    6.8155  -14.0567   22.4598 O   0  0  0  0  0  0  0  0  0  0  0  0
    7.9695  -15.9934   22.9695 N   0  0  0  0  0  0  0  0  0  0  0  0
    7.4118  -16.0138   24.3359 C   0  0  1  0  0  0  0  0  0  0  0  0
    7.3588  -17.4820   24.6961 C   0  0  0  0  0  0  0  0  0  0  0  0
    6.9878  -17.8248   26.0749 C   0  0  0  0  0  0  0  0  0  0  0  0
    7.1585  -19.3393   26.2874 C   0  0  0  0  0  0  0  0  0  0  0  0
    6.9464  -19.7623   27.7016 C   0  0  0  0  0  0  0  0  0  0  0  0
    7.3128  -21.1709   27.8130 N   0  0  0  0  0  0  0  0  0  0  0  0
    8.1837  -15.1629   25.2234 C   0  0  0  0  0  0  0  0  0  0  0  0
    9.4485  -15.3870   25.2834 O   0  0  0  0  0  0  0  0  0  0  0  0
    7.7096  -14.1098   26.0270 N   0  0  0  0  0  0  0  0  0  0  0  0
    6.3399  -13.6053   26.0735 C   0  0  0  0  0  0  0  0  0  0  0  0
    6.5308  -12.1104   26.3479 C   0  0  0  0  0  0  0  0  0  0  0  0
    7.5753  -12.2162   27.4378 C   0  0  0  0  0  0  0  0  0  0  0  0
    8.4691  -13.3013   26.9583 C   0  0  1  0  0  0  0  0  0  0  0  0
    9.0865  -14.0919   28.0286 C   0  0  0  0  0  0  0  0  0  0  0  0
    8.6902  -15.4042   28.2140 O   0  0  0  0  0  0  0  0  0  0  0  0
    9.9650  -13.6184   28.7853 O   0  0  0  0  0  0  0  0  0  0  0  0
  2  1  1  6
  2  3  1  0
  3  4  1  0
  4  8  1  0
  5  4  2  0
  5  6  1  0
  6  7  1  0
  8  7  2  0
  9  2  1  0
 10  9  2  0
 11  9  1  0
 12 11  1  0
 12 13  1  1
 13 14  1  0
 15 14  1  0
 16 17  1  0
 16 15  1  0
 18 12  1  0
 19 18  2  0
 20 18  1  0
 20 21  1  0
 22 21  1  0
 23 24  1  0
 23 22  1  0
 24 25  1  1
 24 20  1  0
 25 26  1  0
 27 25  2  0
M  END
$$$$
