VHG.pdb
     RDKit          3D

 22 22  0  0  1  0  0  0  0  0999 V2000
   25.6483  -12.6395  -16.5779 C   0  0  0  0  0  0  0  0  0  0  0  0
   25.0463  -13.2690  -15.3688 C   0  0  2  0  0  0  0  0  0  0  0  0
   25.8357  -14.4723  -14.9491 C   0  0  0  0  0  0  0  0  0  0  0  0
   23.5894  -13.6613  -15.5135 C   0  0  2  0  0  0  0  0  0  0  0  0
   23.4364  -14.5409  -16.6761 N   0  0  0  0  0  0  0  0  0  0  0  0
   22.7955  -12.4627  -15.7847 C   0  0  0  0  0  0  0  0  0  0  0  0
   22.6028  -12.0969  -16.9991 O   0  0  0  0  0  0  0  0  0  0  0  0
   22.1903  -11.6303  -14.8031 N   0  0  0  0  0  0  0  0  0  0  0  0
   21.3258  -10.5139  -15.1812 C   0  0  1  0  0  0  0  0  0  0  0  0
   19.9664  -10.7130  -14.5393 C   0  0  0  0  0  0  0  0  0  0  0  0
   19.2334  -11.8567  -15.0884 C   0  0  0  0  0  0  0  0  0  0  0  0
   19.6840  -12.7016  -16.0814 C   0  0  0  0  0  0  0  0  0  0  0  0
   18.7338  -13.6465  -16.3311 N   0  0  0  0  0  0  0  0  0  0  0  0
   17.7000  -13.3885  -15.4973 C   0  0  0  0  0  0  0  0  0  0  0  0
   18.0119  -12.3107  -14.7555 N   0  0  0  0  0  0  0  0  0  0  0  0
   21.9259   -9.2217  -14.8402 C   0  0  0  0  0  0  0  0  0  0  0  0
   22.4147   -9.0482  -13.6961 O   0  0  0  0  0  0  0  0  0  0  0  0
   21.9762   -8.1544  -15.7571 N   0  0  0  0  0  0  0  0  0  0  0  0
   22.5958   -6.8760  -15.4757 C   0  0  0  0  0  0  0  0  0  0  0  0
   21.5835   -5.8161  -15.6950 C   0  0  0  0  0  0  0  0  0  0  0  0
   20.4209   -6.0801  -16.1288 O   0  0  0  0  0  0  0  0  0  0  0  0
   21.8811   -4.4914  -15.4294 O   0  0  0  0  0  0  0  0  0  0  0  0
  2  1  1  6
  2  3  1  0
  4  2  1  0
  4  5  1  6
  6  8  1  0
  6  4  1  0
  7  6  2  0
  9  8  1  0
  9 10  1  1
 10 11  1  0
 11 12  2  0
 11 15  1  0
 12 13  1  0
 13 14  1  0
 15 14  2  0
 16  9  1  0
 17 16  2  0
 18 16  1  0
 19 20  1  0
 19 18  1  0
 20 22  1  0
 21 20  2  0
M  END
$$$$
