VHG.pdb
     RDKit          3D

 22 22  0  0  1  0  0  0  0  0999 V2000
   23.4556  -10.6950  -19.7258 C   0  0  0  0  0  0  0  0  0  0  0  0
   22.6096   -9.8824  -18.8070 C   0  0  2  0  0  0  0  0  0  0  0  0
   23.4500   -8.9148  -18.0293 C   0  0  0  0  0  0  0  0  0  0  0  0
   21.7637  -10.6877  -17.8407 C   0  0  2  0  0  0  0  0  0  0  0  0
   20.8336  -11.5318  -18.5965 N   0  0  0  0  0  0  0  0  0  0  0  0
   20.9483   -9.7731  -17.0413 C   0  0  0  0  0  0  0  0  0  0  0  0
   19.9795   -9.1432  -17.5984 O   0  0  0  0  0  0  0  0  0  0  0  0
   21.1243   -9.5015  -15.6564 N   0  0  0  0  0  0  0  0  0  0  0  0
   20.2022   -8.6312  -14.9291 C   0  0  1  0  0  0  0  0  0  0  0  0
   19.4452   -9.4656  -13.9140 C   0  0  0  0  0  0  0  0  0  0  0  0
   18.3453  -10.2319  -14.5054 C   0  0  0  0  0  0  0  0  0  0  0  0
   17.9020  -10.1320  -15.8079 C   0  0  0  0  0  0  0  0  0  0  0  0
   16.8649  -10.9966  -15.9958 N   0  0  0  0  0  0  0  0  0  0  0  0
   16.6667  -11.6288  -14.8161 C   0  0  0  0  0  0  0  0  0  0  0  0
   17.5623  -11.1609  -13.9283 N   0  0  0  0  0  0  0  0  0  0  0  0
   20.8949   -7.4937  -14.3191 C   0  0  0  0  0  0  0  0  0  0  0  0
   21.7803   -7.7000  -13.4522 O   0  0  0  0  0  0  0  0  0  0  0  0
   20.6024   -6.1624  -14.6718 N   0  0  0  0  0  0  0  0  0  0  0  0
   21.1867   -5.0073  -14.0221 C   0  0  0  0  0  0  0  0  0  0  0  0
   22.3175   -4.5342  -14.8549 C   0  0  0  0  0  0  0  0  0  0  0  0
   22.7874   -5.2319  -15.8046 O   0  0  0  0  0  0  0  0  0  0  0  0
   22.9005   -3.3023  -14.6175 O   0  0  0  0  0  0  0  0  0  0  0  0
  2  1  1  1
  2  3  1  0
  4  2  1  0
  4  5  1  6
  6  8  1  0
  6  4  1  0
  7  6  2  0
  9  8  1  0
  9 10  1  1
 10 11  1  0
 11 12  2  0
 11 15  1  0
 12 13  1  0
 13 14  1  0
 15 14  2  0
 16  9  1  0
 17 16  2  0
 18 16  1  0
 19 20  1  0
 19 18  1  0
 20 22  1  0
 21 20  2  0
M  END
$$$$
