VHG.pdb
     RDKit          3D

 22 22  0  0  1  0  0  0  0  0999 V2000
   17.3321   -9.7550  -18.6707 C   0  0  0  0  0  0  0  0  0  0  0  0
   16.7634   -8.3778  -18.6554 C   0  0  2  0  0  0  0  0  0  0  0  0
   16.0866   -8.0693  -19.9570 C   0  0  0  0  0  0  0  0  0  0  0  0
   17.7618   -7.2798  -18.3468 C   0  0  2  0  0  0  0  0  0  0  0  0
   18.8344   -7.3038  -19.3458 N   0  0  0  0  0  0  0  0  0  0  0  0
   18.3861   -7.5507  -17.0517 C   0  0  0  0  0  0  0  0  0  0  0  0
   17.6638   -7.5450  -15.9915 O   0  0  0  0  0  0  0  0  0  0  0  0
   19.7637   -7.8325  -16.8388 N   0  0  0  0  0  0  0  0  0  0  0  0
   20.3157   -7.9529  -15.4907 C   0  0  1  0  0  0  0  0  0  0  0  0
   20.9387   -9.3274  -15.3418 C   0  0  0  0  0  0  0  0  0  0  0  0
   19.9622  -10.4152  -15.4420 C   0  0  0  0  0  0  0  0  0  0  0  0
   18.9684  -10.6933  -14.5266 C   0  0  0  0  0  0  0  0  0  0  0  0
   18.2562  -11.7745  -14.9532 N   0  0  0  0  0  0  0  0  0  0  0  0
   18.8058  -12.1642  -16.1264 C   0  0  0  0  0  0  0  0  0  0  0  0
   19.8301  -11.3398  -16.4098 N   0  0  0  0  0  0  0  0  0  0  0  0
   21.2575   -6.8720  -15.1902 C   0  0  0  0  0  0  0  0  0  0  0  0
   21.9874   -6.4141  -16.1044 O   0  0  0  0  0  0  0  0  0  0  0  0
   21.3772   -6.3203  -13.9003 N   0  0  0  0  0  0  0  0  0  0  0  0
   22.2869   -5.2452  -13.5624 C   0  0  0  0  0  0  0  0  0  0  0  0
   21.6728   -3.9689  -13.9986 C   0  0  0  0  0  0  0  0  0  0  0  0
   20.5269   -3.9285  -14.5417 O   0  0  0  0  0  0  0  0  0  0  0  0
   22.3401   -2.7698  -13.8238 O   0  0  0  0  0  0  0  0  0  0  0  0
  2  1  1  6
  2  3  1  0
  4  2  1  0
  4  5  1  6
  6  8  1  0
  6  4  1  0
  7  6  2  0
  9  8  1  0
  9 10  1  6
 10 11  1  0
 11 12  2  0
 11 15  1  0
 12 13  1  0
 13 14  1  0
 15 14  2  0
 16  9  1  0
 17 16  2  0
 18 16  1  0
 19 20  1  0
 19 18  1  0
 20 22  1  0
 21 20  2  0
M  END
$$$$
