VHG.pdb
     RDKit          3D

 22 22  0  0  1  0  0  0  0  0999 V2000
   24.6199  -15.1911  -16.5077 C   0  0  0  0  0  0  0  0  0  0  0  0
   25.5328  -14.1955  -17.1370 C   0  0  2  0  0  0  0  0  0  0  0  0
   26.9657  -14.5754  -16.9143 C   0  0  0  0  0  0  0  0  0  0  0  0
   25.3258  -12.7647  -16.6816 C   0  0  2  0  0  0  0  0  0  0  0  0
   25.5236  -12.6830  -15.2315 N   0  0  0  0  0  0  0  0  0  0  0  0
   23.9394  -12.3757  -16.9404 C   0  0  0  0  0  0  0  0  0  0  0  0
   23.5077  -12.3510  -18.1482 O   0  0  0  0  0  0  0  0  0  0  0  0
   22.9834  -12.0102  -15.9530 N   0  0  0  0  0  0  0  0  0  0  0  0
   21.6273  -11.6068  -16.3201 C   0  0  1  0  0  0  0  0  0  0  0  0
   20.6427  -12.3658  -15.4517 C   0  0  0  0  0  0  0  0  0  0  0  0
   20.3312  -13.7011  -15.9681 C   0  0  0  0  0  0  0  0  0  0  0  0
   20.7396  -14.2111  -17.1830 C   0  0  0  0  0  0  0  0  0  0  0  0
   20.2604  -15.4800  -17.3202 N   0  0  0  0  0  0  0  0  0  0  0  0
   19.5590  -15.7546  -16.1963 C   0  0  0  0  0  0  0  0  0  0  0  0
   19.6087  -14.6781  -15.3914 N   0  0  0  0  0  0  0  0  0  0  0  0
   21.4502  -10.1551  -16.2357 C   0  0  0  0  0  0  0  0  0  0  0  0
   20.3857   -9.6354  -16.6540 O   0  0  0  0  0  0  0  0  0  0  0  0
   22.4395   -9.3103  -15.6973 N   0  0  0  0  0  0  0  0  0  0  0  0
   22.2986   -7.8737  -15.5794 C   0  0  0  0  0  0  0  0  0  0  0  0
   21.7517   -7.5741  -14.2350 C   0  0  0  0  0  0  0  0  0  0  0  0
   21.3553   -8.4916  -13.4537 O   0  0  0  0  0  0  0  0  0  0  0  0
   21.6566   -6.2684  -13.7879 O   0  0  0  0  0  0  0  0  0  0  0  0
  2  1  1  1
  2  3  1  0
  4  2  1  0
  4  5  1  1
  6  8  1  0
  6  4  1  0
  7  6  2  0
  9  8  1  0
  9 10  1  1
 10 11  1  0
 11 12  2  0
 11 15  1  0
 12 13  1  0
 13 14  1  0
 15 14  2  0
 16  9  1  0
 17 16  2  0
 18 16  1  0
 19 20  1  0
 19 18  1  0
 20 22  1  0
 21 20  2  0
M  END
$$$$
