VHG.pdb
     RDKit          3D

 22 22  0  0  1  0  0  0  0  0999 V2000
   22.0851  -21.0795  -10.3305 C   0  0  0  0  0  0  0  0  0  0  0  0
   21.1027  -20.1099  -10.8920 C   0  0  2  0  0  0  0  0  0  0  0  0
   19.8065  -20.1740  -10.1415 C   0  0  0  0  0  0  0  0  0  0  0  0
   20.8232  -20.2720  -12.3729 C   0  0  2  0  0  0  0  0  0  0  0  0
   20.4022  -21.6506  -12.6397 N   0  0  0  0  0  0  0  0  0  0  0  0
   22.0626  -20.0578  -13.1202 C   0  0  0  0  0  0  0  0  0  0  0  0
   22.6555  -18.9227  -13.0435 O   0  0  0  0  0  0  0  0  0  0  0  0
   22.7038  -21.0155  -13.9534 N   0  0  0  0  0  0  0  0  0  0  0  0
   23.9482  -20.7026  -14.6534 C   0  0  1  0  0  0  0  0  0  0  0  0
   25.0455  -21.6029  -14.1195 C   0  0  0  0  0  0  0  0  0  0  0  0
   25.3211  -21.3914  -12.6961 C   0  0  0  0  0  0  0  0  0  0  0  0
   24.8047  -22.1357  -11.6557 C   0  0  0  0  0  0  0  0  0  0  0  0
   25.2824  -21.6481  -10.4757 N   0  0  0  0  0  0  0  0  0  0  0  0
   26.0904  -20.6073  -10.7834 C   0  0  0  0  0  0  0  0  0  0  0  0
   26.1056  -20.4628  -12.1205 N   0  0  0  0  0  0  0  0  0  0  0  0
   23.7947  -20.8027  -16.1068 C   0  0  0  0  0  0  0  0  0  0  0  0
   23.0021  -21.6496  -16.5892 O   0  0  0  0  0  0  0  0  0  0  0  0
   24.5103  -19.9761  -16.9938 N   0  0  0  0  0  0  0  0  0  0  0  0
   24.2033  -19.8466  -18.4033 C   0  0  0  0  0  0  0  0  0  0  0  0
   24.8424  -20.9762  -19.1188 C   0  0  0  0  0  0  0  0  0  0  0  0
   25.5440  -21.8418  -18.5123 O   0  0  0  0  0  0  0  0  0  0  0  0
   24.6902  -21.1208  -20.4862 O   0  0  0  0  0  0  0  0  0  0  0  0
  2  1  1  1
  2  3  1  0
  4  2  1  0
  4  5  1  1
  6  8  1  0
  6  4  1  0
  7  6  2  0
  9  8  1  0
  9 10  1  1
 10 11  1  0
 11 12  2  0
 11 15  1  0
 12 13  1  0
 13 14  1  0
 15 14  2  0
 16  9  1  0
 17 16  2  0
 18 16  1  0
 19 20  1  0
 19 18  1  0
 20 22  1  0
 21 20  2  0
M  END
$$$$
