PNS.pdb
     RDKit          3D

 22 22  0  0  1  0  0  0  0  0999 V2000
    9.0899  -14.5364   19.3494 N   0  0  0  0  0  0  0  0  0  0  0  0
    7.8542  -14.7347   18.6569 C   0  0  0  0  0  0  0  0  0  0  0  0
    7.4435  -13.2844   18.3670 C   0  0  0  0  0  0  0  0  0  0  0  0
    7.7798  -12.6004   19.6793 C   0  0  0  0  0  0  0  0  0  0  0  0
    8.8128  -13.5316   20.3174 C   0  0  1  0  0  0  0  0  0  0  0  0
    8.2898  -14.0980   21.5692 C   0  0  0  0  0  0  0  0  0  0  0  0
    7.7539  -13.3580   22.4559 O   0  0  0  0  0  0  0  0  0  0  0  0
    6.3804  -19.1757   24.1349 N   0  0  0  0  0  0  0  0  0  0  0  0
    6.3201  -17.7661   24.0549 C   0  0  0  0  0  0  0  0  0  0  0  0
    5.7735  -17.1344   24.9977 O   0  0  0  0  0  0  0  0  0  0  0  0
    6.9084  -17.1313   22.8598 C   0  0  0  0  0  0  0  0  0  0  0  0
    7.8057  -15.9728   23.1567 C   0  0  2  0  0  0  0  0  0  0  0  0
    8.3412  -15.4714   21.8740 N   0  0  0  0  0  0  0  0  0  0  0  0
    8.9713  -16.4030   23.9608 C   0  0  0  0  0  0  0  0  0  0  0  0
    9.9670  -16.9560   23.4569 O   0  0  0  0  0  0  0  0  0  0  0  0
    9.0589  -15.4650   28.0426 O   0  0  0  0  0  0  0  0  0  0  0  0
   10.2605  -15.7055   27.3978 C   0  0  0  0  0  0  0  0  0  0  0  0
   10.0392  -16.6695   26.2241 C   0  0  2  0  0  0  0  0  0  0  0  0
    8.9928  -16.1928   25.3750 N   0  0  0  0  0  0  0  0  0  0  0  0
    9.8220  -17.9926   26.7826 C   0  0  0  0  0  0  0  0  0  0  0  0
    8.7286  -18.5764   26.6518 O   0  0  0  0  0  0  0  0  0  0  0  0
   10.8273  -18.6334   27.4731 O   0  0  0  0  0  0  0  0  0  0  0  0
  2  1  1  0
  3  2  1  0
  4  3  1  0
  4  5  1  0
  5  1  1  0
  5  6  1  1
  6 13  1  0
  7  6  2  0
  9  8  1  0
 10  9  2  0
 11  9  1  0
 12 11  1  6
 12 13  1  0
 12 14  1  0
 14 19  1  0
 15 14  2  0
 16 17  1  0
 18 20  1  0
 18 17  1  1
 19 18  1  0
 20 22  1  0
 21 20  2  0
M  END
$$$$
