PNS.pdb
     RDKit          3D

 22 22  0  0  1  0  0  0  0  0999 V2000
    7.8512  -14.7490   18.7449 N   0  0  0  0  0  0  0  0  0  0  0  0
    6.7613  -13.8235   18.7801 C   0  0  0  0  0  0  0  0  0  0  0  0
    7.5126  -12.4863   18.8408 C   0  0  0  0  0  0  0  0  0  0  0  0
    8.6188  -12.7989   19.8318 C   0  0  0  0  0  0  0  0  0  0  0  0
    8.7291  -14.3242   19.7805 C   0  0  1  0  0  0  0  0  0  0  0  0
    8.3739  -14.9089   21.0818 C   0  0  0  0  0  0  0  0  0  0  0  0
    7.2185  -15.4008   21.2916 O   0  0  0  0  0  0  0  0  0  0  0  0
   10.6820  -18.0556   25.5151 N   0  0  0  0  0  0  0  0  0  0  0  0
    9.5278  -17.5789   24.8537 C   0  0  0  0  0  0  0  0  0  0  0  0
    8.4033  -17.7934   25.3792 O   0  0  0  0  0  0  0  0  0  0  0  0
    9.7271  -16.8570   23.5823 C   0  0  0  0  0  0  0  0  0  0  0  0
    8.8716  -15.6411   23.4239 C   0  0  2  0  0  0  0  0  0  0  0  0
    9.2659  -14.9674   22.1693 N   0  0  0  0  0  0  0  0  0  0  0  0
    9.1219  -14.6758   24.5175 C   0  0  0  0  0  0  0  0  0  0  0  0
   10.2304  -14.1373   24.6966 O   0  0  0  0  0  0  0  0  0  0  0  0
    5.8423  -13.2605   26.6835 O   0  0  0  0  0  0  0  0  0  0  0  0
    6.9604  -12.4583   26.5296 C   0  0  0  0  0  0  0  0  0  0  0  0
    8.2206  -13.3303   26.4439 C   0  0  2  0  0  0  0  0  0  0  0  0
    8.0749  -14.3221   25.4249 N   0  0  0  0  0  0  0  0  0  0  0  0
    8.4809  -13.8509   27.7747 C   0  0  0  0  0  0  0  0  0  0  0  0
    8.6350  -13.0871   28.7474 O   0  0  0  0  0  0  0  0  0  0  0  0
    8.5633  -15.2092   27.9901 O   0  0  0  0  0  0  0  0  0  0  0  0
  2  1  1  0
  3  2  1  0
  4  3  1  0
  4  5  1  0
  5  1  1  0
  5  6  1  1
  6 13  1  0
  7  6  2  0
  9  8  1  0
 10  9  2  0
 11  9  1  0
 12 11  1  1
 12 13  1  0
 12 14  1  0
 14 19  1  0
 15 14  2  0
 16 17  1  0
 18 20  1  0
 18 17  1  1
 19 18  1  0
 20 22  1  0
 21 20  2  0
M  END
$$$$
