PNS.pdb
     RDKit          3D

 22 22  0  0  1  0  0  0  0  0999 V2000
    9.0812  -13.8111   17.2030 N   0  0  0  0  0  0  0  0  0  0  0  0
    7.8773  -14.3169   16.6195 C   0  0  0  0  0  0  0  0  0  0  0  0
    6.8405  -13.3392   17.1901 C   0  0  0  0  0  0  0  0  0  0  0  0
    7.3001  -13.2083   18.6306 C   0  0  0  0  0  0  0  0  0  0  0  0
    8.7727  -13.6211   18.5786 C   0  0  1  0  0  0  0  0  0  0  0  0
    8.9922  -14.8412   19.3689 C   0  0  0  0  0  0  0  0  0  0  0  0
    8.3072  -15.0831   20.4145 O   0  0  0  0  0  0  0  0  0  0  0  0
   11.1826  -20.4216   19.0838 N   0  0  0  0  0  0  0  0  0  0  0  0
   11.1789  -19.2547   19.8809 C   0  0  0  0  0  0  0  0  0  0  0  0
   11.3099  -19.3791   21.1276 O   0  0  0  0  0  0  0  0  0  0  0  0
   11.0201  -17.9625   19.1865 C   0  0  0  0  0  0  0  0  0  0  0  0
   10.2050  -16.9572   19.9354 C   0  0  2  0  0  0  0  0  0  0  0  0
    9.9553  -15.8123   19.0353 N   0  0  0  0  0  0  0  0  0  0  0  0
   10.9586  -16.4266   21.0933 C   0  0  0  0  0  0  0  0  0  0  0  0
   12.0176  -15.7835   20.9672 O   0  0  0  0  0  0  0  0  0  0  0  0
    9.1423  -16.5228   24.8420 O   0  0  0  0  0  0  0  0  0  0  0  0
   10.1020  -15.5607   24.5759 C   0  0  0  0  0  0  0  0  0  0  0  0
   11.1348  -16.1139   23.5843 C   0  0  2  0  0  0  0  0  0  0  0  0
   10.4844  -16.6400   22.4253 N   0  0  0  0  0  0  0  0  0  0  0  0
   11.9661  -17.0620   24.3054 C   0  0  0  0  0  0  0  0  0  0  0  0
   12.6973  -16.6941   25.2453 O   0  0  0  0  0  0  0  0  0  0  0  0
   11.9629  -18.3963   23.9626 O   0  0  0  0  0  0  0  0  0  0  0  0
  2  1  1  0
  3  2  1  0
  4  3  1  0
  4  5  1  0
  5  1  1  0
  5  6  1  1
  6 13  1  0
  7  6  2  0
  9  8  1  0
 10  9  2  0
 11  9  1  0
 12 11  1  6
 12 13  1  0
 12 14  1  0
 14 19  1  0
 15 14  2  0
 16 17  1  0
 18 20  1  0
 18 17  1  1
 19 18  1  0
 20 22  1  0
 21 20  2  0
M  END
$$$$
