PNS.pdb
     RDKit          3D

 22 22  0  0  1  0  0  0  0  0999 V2000
    8.2370  -14.2052   18.3786 N   0  0  0  0  0  0  0  0  0  0  0  0
    7.0722  -13.7279   19.0576 C   0  0  0  0  0  0  0  0  0  0  0  0
    7.5627  -12.3625   19.5588 C   0  0  0  0  0  0  0  0  0  0  0  0
    8.9617  -12.6962   20.0433 C   0  0  0  0  0  0  0  0  0  0  0  0
    9.3104  -13.9782   19.2840 C   0  0  1  0  0  0  0  0  0  0  0  0
    9.4908  -15.0970   20.2206 C   0  0  0  0  0  0  0  0  0  0  0  0
    8.5372  -15.8986   20.4834 O   0  0  0  0  0  0  0  0  0  0  0  0
   12.5598  -19.5254   21.7879 N   0  0  0  0  0  0  0  0  0  0  0  0
   12.5375  -18.2584   22.4134 C   0  0  0  0  0  0  0  0  0  0  0  0
   12.7818  -18.1940   23.6474 O   0  0  0  0  0  0  0  0  0  0  0  0
   12.2263  -17.0916   21.5654 C   0  0  0  0  0  0  0  0  0  0  0  0
   10.8438  -16.5513   21.7449 C   0  0  2  0  0  0  0  0  0  0  0  0
   10.7053  -15.3596   20.8822 N   0  0  0  0  0  0  0  0  0  0  0  0
   10.6355  -16.0912   23.1360 C   0  0  0  0  0  0  0  0  0  0  0  0
   11.2376  -15.1126   23.6165 O   0  0  0  0  0  0  0  0  0  0  0  0
    7.2585  -17.2135   25.1849 O   0  0  0  0  0  0  0  0  0  0  0  0
    8.0176  -16.1420   25.6244 C   0  0  0  0  0  0  0  0  0  0  0  0
    9.5052  -16.4136   25.3614 C   0  0  2  0  0  0  0  0  0  0  0  0
    9.7148  -16.7709   23.9934 N   0  0  0  0  0  0  0  0  0  0  0  0
    9.9444  -17.4040   26.3289 C   0  0  0  0  0  0  0  0  0  0  0  0
    9.8683  -17.1870   27.5539 O   0  0  0  0  0  0  0  0  0  0  0  0
   10.4576  -18.6116   25.9090 O   0  0  0  0  0  0  0  0  0  0  0  0
  2  1  1  0
  3  2  1  0
  4  3  1  0
  4  5  1  0
  5  1  1  0
  5  6  1  1
  6 13  1  0
  7  6  2  0
  9  8  1  0
 10  9  2  0
 11  9  1  0
 12 11  1  1
 12 13  1  0
 12 14  1  0
 14 19  1  0
 15 14  2  0
 16 17  1  0
 18 20  1  0
 18 17  1  6
 19 18  1  0
 20 22  1  0
 21 20  2  0
M  END
$$$$
