PNS.pdb
     RDKit          3D

 22 22  0  0  1  0  0  0  0  0999 V2000
    8.3219  -14.3712   17.9435 N   0  0  0  0  0  0  0  0  0  0  0  0
    7.0262  -13.9506   18.3794 C   0  0  0  0  0  0  0  0  0  0  0  0
    7.3443  -12.5616   18.9499 C   0  0  0  0  0  0  0  0  0  0  0  0
    8.6377  -12.8246   19.6991 C   0  0  0  0  0  0  0  0  0  0  0  0
    9.1879  -14.0894   19.0363 C   0  0  1  0  0  0  0  0  0  0  0  0
    9.2374  -15.1959   20.0031 C   0  0  0  0  0  0  0  0  0  0  0  0
    8.1727  -15.6925   20.4936 O   0  0  0  0  0  0  0  0  0  0  0  0
   12.2664  -18.3907   18.9025 N   0  0  0  0  0  0  0  0  0  0  0  0
   11.3750  -18.6056   19.9778 C   0  0  0  0  0  0  0  0  0  0  0  0
   10.4826  -19.4854   19.8509 O   0  0  0  0  0  0  0  0  0  0  0  0
   11.5575  -17.7743   21.1832 C   0  0  0  0  0  0  0  0  0  0  0  0
   10.4210  -16.8454   21.4684 C   0  0  2  0  0  0  0  0  0  0  0  0
   10.4401  -15.7762   20.4487 N   0  0  0  0  0  0  0  0  0  0  0  0
   10.6006  -16.1816   22.7788 C   0  0  0  0  0  0  0  0  0  0  0  0
   11.3330  -15.1860   22.9320 O   0  0  0  0  0  0  0  0  0  0  0  0
    7.7246  -15.6653   25.1925 O   0  0  0  0  0  0  0  0  0  0  0  0
    8.9452  -15.1005   25.5217 C   0  0  0  0  0  0  0  0  0  0  0  0
   10.0758  -16.0994   25.2389 C   0  0  2  0  0  0  0  0  0  0  0  0
    9.9235  -16.6730   23.9385 N   0  0  0  0  0  0  0  0  0  0  0  0
   10.0961  -17.0548   26.3328 C   0  0  0  0  0  0  0  0  0  0  0  0
   10.2129  -16.6789   27.5153 O   0  0  0  0  0  0  0  0  0  0  0  0
    9.9859  -18.4053   26.0834 O   0  0  0  0  0  0  0  0  0  0  0  0
  2  1  1  0
  3  2  1  0
  4  3  1  0
  4  5  1  0
  5  1  1  0
  5  6  1  1
  6 13  1  0
  7  6  2  0
  9  8  1  0
 10  9  2  0
 11  9  1  0
 12 11  1  6
 12 13  1  0
 12 14  1  0
 14 19  1  0
 15 14  2  0
 16 17  1  0
 18 20  1  0
 18 17  1  1
 19 18  1  0
 20 22  1  0
 21 20  2  0
M  END
$$$$
