PNS.pdb
     RDKit          3D

 22 22  0  0  1  0  0  0  0  0999 V2000
    8.0671  -14.2064   19.6555 N   0  0  0  0  0  0  0  0  0  0  0  0
    8.4240  -12.8260   19.5427 C   0  0  0  0  0  0  0  0  0  0  0  0
    8.0430  -12.5419   18.0831 C   0  0  0  0  0  0  0  0  0  0  0  0
    8.5524  -13.7885   17.3832 C   0  0  0  0  0  0  0  0  0  0  0  0
    8.6268  -14.8271   18.5044 C   0  0  1  0  0  0  0  0  0  0  0  0
   10.0185  -15.2474   18.7236 C   0  0  0  0  0  0  0  0  0  0  0  0
   10.5942  -16.0634   17.9339 O   0  0  0  0  0  0  0  0  0  0  0  0
   13.7991  -15.7655   17.7808 N   0  0  0  0  0  0  0  0  0  0  0  0
   13.9148  -14.4556   18.2982 C   0  0  0  0  0  0  0  0  0  0  0  0
   14.7099  -13.6564   17.7364 O   0  0  0  0  0  0  0  0  0  0  0  0
   13.0864  -14.1170   19.4714 C   0  0  0  0  0  0  0  0  0  0  0  0
   12.2046  -15.2283   19.9440 C   0  0  2  0  0  0  0  0  0  0  0  0
   10.8014  -14.7886   19.7999 N   0  0  0  0  0  0  0  0  0  0  0  0
   12.4179  -15.4924   21.3846 C   0  0  0  0  0  0  0  0  0  0  0  0
   13.5511  -15.6418   21.8789 O   0  0  0  0  0  0  0  0  0  0  0  0
   10.2930  -16.1409   25.7271 O   0  0  0  0  0  0  0  0  0  0  0  0
   10.1282  -15.7749   24.4019 C   0  0  0  0  0  0  0  0  0  0  0  0
   11.4071  -16.0851   23.6119 C   0  0  2  0  0  0  0  0  0  0  0  0
   11.3039  -15.5868   22.2762 N   0  0  0  0  0  0  0  0  0  0  0  0
   11.6480  -17.5136   23.7174 C   0  0  0  0  0  0  0  0  0  0  0  0
   12.0436  -18.0240   24.7834 O   0  0  0  0  0  0  0  0  0  0  0  0
   11.4425  -18.3390   22.6335 O   0  0  0  0  0  0  0  0  0  0  0  0
  2  1  1  0
  3  2  1  0
  4  3  1  0
  4  5  1  0
  5  1  1  0
  5  6  1  1
  6 13  1  0
  7  6  2  0
  9  8  1  0
 10  9  2  0
 11  9  1  0
 12 11  1  1
 12 13  1  0
 12 14  1  0
 14 19  1  0
 15 14  2  0
 16 17  1  0
 18 20  1  0
 18 17  1  1
 19 18  1  0
 20 22  1  0
 21 20  2  0
M  END
$$$$
