PNS.pdb
     RDKit          3D

 22 22  0  0  1  0  0  0  0  0999 V2000
    8.1338  -15.1276   19.4006 N   0  0  0  0  0  0  0  0  0  0  0  0
    7.0896  -14.1850   19.6591 C   0  0  0  0  0  0  0  0  0  0  0  0
    7.6683  -12.9198   19.0106 C   0  0  0  0  0  0  0  0  0  0  0  0
    9.1189  -12.9827   19.4522 C   0  0  0  0  0  0  0  0  0  0  0  0
    9.3329  -14.4623   19.7788 C   0  0  1  0  0  0  0  0  0  0  0  0
    9.6347  -14.6345   21.2073 C   0  0  0  0  0  0  0  0  0  0  0  0
   10.6365  -14.0612   21.7445 O   0  0  0  0  0  0  0  0  0  0  0  0
    6.5583  -13.2398   24.0671 N   0  0  0  0  0  0  0  0  0  0  0  0
    7.7701  -13.7946   24.5368 C   0  0  0  0  0  0  0  0  0  0  0  0
    8.5892  -13.0380   25.1228 O   0  0  0  0  0  0  0  0  0  0  0  0
    7.9890  -15.2350   24.3036 C   0  0  0  0  0  0  0  0  0  0  0  0
    9.2090  -15.5500   23.4985 C   0  0  2  0  0  0  0  0  0  0  0  0
    8.8549  -15.4289   22.0691 N   0  0  0  0  0  0  0  0  0  0  0  0
    9.6315  -16.9524   23.7108 C   0  0  0  0  0  0  0  0  0  0  0  0
    8.9735  -17.9226   23.2903 O   0  0  0  0  0  0  0  0  0  0  0  0
   13.5304  -17.7826   24.6546 O   0  0  0  0  0  0  0  0  0  0  0  0
   12.7043  -18.7941   24.1945 C   0  0  0  0  0  0  0  0  0  0  0  0
   11.2750  -18.5757   24.7098 C   0  0  2  0  0  0  0  0  0  0  0  0
   10.8368  -17.2459   24.4221 N   0  0  0  0  0  0  0  0  0  0  0  0
   11.2597  -18.9364   26.1167 C   0  0  0  0  0  0  0  0  0  0  0  0
   10.8754  -18.1295   26.9853 O   0  0  0  0  0  0  0  0  0  0  0  0
   11.6727  -20.1867   26.5222 O   0  0  0  0  0  0  0  0  0  0  0  0
  2  1  1  0
  3  2  1  0
  4  3  1  0
  4  5  1  0
  5  1  1  0
  5  6  1  1
  6 13  1  0
  7  6  2  0
  9  8  1  0
 10  9  2  0
 11  9  1  0
 12 11  1  1
 12 13  1  0
 12 14  1  0
 14 19  1  0
 15 14  2  0
 16 17  1  0
 18 20  1  0
 18 17  1  1
 19 18  1  0
 20 22  1  0
 21 20  2  0
M  END
$$$$
