PNS.pdb
     RDKit          3D

 22 22  0  0  1  0  0  0  0  0999 V2000
    8.8518  -14.5140   19.0425 N   0  0  0  0  0  0  0  0  0  0  0  0
    7.5250  -14.3168   18.5461 C   0  0  0  0  0  0  0  0  0  0  0  0
    7.4540  -12.7842   18.4974 C   0  0  0  0  0  0  0  0  0  0  0  0
    8.1216  -12.4027   19.8059 C   0  0  0  0  0  0  0  0  0  0  0  0
    8.9652  -13.6315   20.1523 C   0  0  1  0  0  0  0  0  0  0  0  0
    8.4886  -14.2465   21.3997 C   0  0  0  0  0  0  0  0  0  0  0  0
    8.4558  -13.5893   22.4897 O   0  0  0  0  0  0  0  0  0  0  0  0
    5.1687  -18.9077   23.5514 N   0  0  0  0  0  0  0  0  0  0  0  0
    6.0174  -17.7899   23.7157 C   0  0  0  0  0  0  0  0  0  0  0  0
    6.1044  -17.2650   24.8574 O   0  0  0  0  0  0  0  0  0  0  0  0
    6.7472  -17.3147   22.5245 C   0  0  0  0  0  0  0  0  0  0  0  0
    7.6663  -16.1641   22.7838 C   0  0  2  0  0  0  0  0  0  0  0  0
    8.0425  -15.5793   21.4801 N   0  0  0  0  0  0  0  0  0  0  0  0
    8.9217  -16.6261   23.4168 C   0  0  0  0  0  0  0  0  0  0  0  0
   10.0284  -16.1133   23.1653 O   0  0  0  0  0  0  0  0  0  0  0  0
    9.7939  -16.4828   27.6728 O   0  0  0  0  0  0  0  0  0  0  0  0
    9.0670  -16.5409   26.4957 C   0  0  0  0  0  0  0  0  0  0  0  0
    9.6080  -17.6665   25.6032 C   0  0  2  0  0  0  0  0  0  0  0  0
    8.9045  -17.7012   24.3595 N   0  0  0  0  0  0  0  0  0  0  0  0
    9.5542  -18.8966   26.3736 C   0  0  0  0  0  0  0  0  0  0  0  0
    8.4754  -19.3296   26.8231 O   0  0  0  0  0  0  0  0  0  0  0  0
   10.7029  -19.6147   26.6248 O   0  0  0  0  0  0  0  0  0  0  0  0
  2  1  1  0
  3  2  1  0
  4  3  1  0
  4  5  1  0
  5  1  1  0
  5  6  1  1
  6 13  1  0
  7  6  2  0
  9  8  1  0
 10  9  2  0
 11  9  1  0
 12 11  1  6
 12 13  1  0
 12 14  1  0
 14 19  1  0
 15 14  2  0
 16 17  1  0
 18 20  1  0
 18 17  1  1
 19 18  1  0
 20 22  1  0
 21 20  2  0
M  END
$$$$
