PNS.pdb
     RDKit          3D

 22 22  0  0  1  0  0  0  0  0999 V2000
    8.0028  -14.7798   19.4713 N   0  0  0  0  0  0  0  0  0  0  0  0
    6.8348  -14.0017   19.7469 C   0  0  0  0  0  0  0  0  0  0  0  0
    7.4370  -12.5935   19.8501 C   0  0  0  0  0  0  0  0  0  0  0  0
    8.7005  -12.8562   20.6489 C   0  0  0  0  0  0  0  0  0  0  0  0
    8.9678  -14.3457   20.4221 C   0  0  1  0  0  0  0  0  0  0  0  0
    8.8674  -15.0843   21.6894 C   0  0  0  0  0  0  0  0  0  0  0  0
    7.7418  -15.4721   22.1405 O   0  0  0  0  0  0  0  0  0  0  0  0
   11.3776  -19.4672   24.7748 N   0  0  0  0  0  0  0  0  0  0  0  0
   10.4977  -18.3618   24.7476 C   0  0  0  0  0  0  0  0  0  0  0  0
    9.7127  -18.1955   25.7186 O   0  0  0  0  0  0  0  0  0  0  0  0
   10.5642  -17.4740   23.5709 C   0  0  0  0  0  0  0  0  0  0  0  0
    9.8164  -16.1885   23.7263 C   0  0  2  0  0  0  0  0  0  0  0  0
    9.9846  -15.4108   22.4813 N   0  0  0  0  0  0  0  0  0  0  0  0
   10.3961  -15.3713   24.8155 C   0  0  0  0  0  0  0  0  0  0  0  0
   11.5051  -14.8132   24.7184 O   0  0  0  0  0  0  0  0  0  0  0  0
    8.0189  -13.5360   27.4587 O   0  0  0  0  0  0  0  0  0  0  0  0
    9.3607  -13.1981   27.4055 C   0  0  0  0  0  0  0  0  0  0  0  0
   10.2055  -14.4542   27.1514 C   0  0  2  0  0  0  0  0  0  0  0  0
    9.6852  -15.1918   26.0432 N   0  0  0  0  0  0  0  0  0  0  0  0
   10.2760  -15.1914   28.4010 C   0  0  0  0  0  0  0  0  0  0  0  0
   10.6557  -14.6421   29.4533 O   0  0  0  0  0  0  0  0  0  0  0  0
    9.9222  -16.5220   28.4483 O   0  0  0  0  0  0  0  0  0  0  0  0
  2  1  1  0
  3  2  1  0
  4  3  1  0
  4  5  1  0
  5  1  1  0
  5  6  1  1
  6 13  1  0
  7  6  2  0
  9  8  1  0
 10  9  2  0
 11  9  1  0
 12 11  1  6
 12 13  1  0
 12 14  1  0
 14 19  1  0
 15 14  2  0
 16 17  1  0
 18 20  1  0
 18 17  1  1
 19 18  1  0
 20 22  1  0
 21 20  2  0
M  END
$$$$
