PNS.pdb
     RDKit          3D

 22 22  0  0  1  0  0  0  0  0999 V2000
    9.1342  -14.1367   17.8253 N   0  0  0  0  0  0  0  0  0  0  0  0
    7.7529  -14.2568   17.4740 C   0  0  0  0  0  0  0  0  0  0  0  0
    7.1870  -12.9543   18.0565 C   0  0  0  0  0  0  0  0  0  0  0  0
    7.8970  -12.8812   19.3958 C   0  0  0  0  0  0  0  0  0  0  0  0
    9.1343  -13.7593   19.1968 C   0  0  1  0  0  0  0  0  0  0  0  0
    9.0863  -14.9247   20.0918 C   0  0  0  0  0  0  0  0  0  0  0  0
    8.9222  -14.7874   21.3468 O   0  0  0  0  0  0  0  0  0  0  0  0
    9.0702  -19.6069   22.1596 N   0  0  0  0  0  0  0  0  0  0  0  0
    8.7488  -19.7875   20.7954 C   0  0  0  0  0  0  0  0  0  0  0  0
    8.3640  -20.9250   20.4150 O   0  0  0  0  0  0  0  0  0  0  0  0
    8.8893  -18.6175   19.9074 C   0  0  0  0  0  0  0  0  0  0  0  0
    9.3180  -17.3649   20.6024 C   0  0  2  0  0  0  0  0  0  0  0  0
    9.2153  -16.2509   19.6373 N   0  0  0  0  0  0  0  0  0  0  0  0
   10.7405  -17.4462   21.0027 C   0  0  0  0  0  0  0  0  0  0  0  0
   11.6004  -18.0230   20.3109 O   0  0  0  0  0  0  0  0  0  0  0  0
   14.4943  -15.6786   23.1822 O   0  0  0  0  0  0  0  0  0  0  0  0
   13.1697  -15.5604   22.7964 C   0  0  0  0  0  0  0  0  0  0  0  0
   12.5265  -16.9511   22.7053 C   0  0  2  0  0  0  0  0  0  0  0  0
   11.1839  -16.8513   22.2251 N   0  0  0  0  0  0  0  0  0  0  0  0
   12.6682  -17.5821   24.0059 C   0  0  0  0  0  0  0  0  0  0  0  0
   11.6790  -17.7807   24.7376 O   0  0  0  0  0  0  0  0  0  0  0  0
   13.9077  -17.9768   24.4599 O   0  0  0  0  0  0  0  0  0  0  0  0
  2  1  1  0
  3  2  1  0
  4  3  1  0
  4  5  1  0
  5  1  1  0
  5  6  1  1
  6 13  1  0
  7  6  2  0
  9  8  1  0
 10  9  2  0
 11  9  1  0
 12 11  1  6
 12 13  1  0
 12 14  1  0
 14 19  1  0
 15 14  2  0
 16 17  1  0
 18 20  1  0
 18 17  1  1
 19 18  1  0
 20 22  1  0
 21 20  2  0
M  END
$$$$
