PNS.pdb
     RDKit          3D

 22 22  0  0  1  0  0  0  0  0999 V2000
    8.1068  -14.0129   18.0447 N   0  0  0  0  0  0  0  0  0  0  0  0
    7.2322  -14.2888   19.1422 C   0  0  0  0  0  0  0  0  0  0  0  0
    7.3123  -12.9686   19.9212 C   0  0  0  0  0  0  0  0  0  0  0  0
    8.7964  -12.6589   19.8515 C   0  0  0  0  0  0  0  0  0  0  0  0
    9.2744  -13.4547   18.6350 C   0  0  1  0  0  0  0  0  0  0  0  0
   10.2367  -14.4885   19.0434 C   0  0  0  0  0  0  0  0  0  0  0  0
    9.9020  -15.7154   19.1038 O   0  0  0  0  0  0  0  0  0  0  0  0
   14.9998  -14.0020   17.5527 N   0  0  0  0  0  0  0  0  0  0  0  0
   14.2919  -15.0593   18.1675 C   0  0  0  0  0  0  0  0  0  0  0  0
   14.0573  -16.0968   17.4928 O   0  0  0  0  0  0  0  0  0  0  0  0
   13.8751  -14.8679   19.5700 C   0  0  0  0  0  0  0  0  0  0  0  0
   12.4675  -15.2832   19.8562 C   0  0  2  0  0  0  0  0  0  0  0  0
   11.5711  -14.2048   19.3905 N   0  0  0  0  0  0  0  0  0  0  0  0
   12.2447  -15.4169   21.3132 C   0  0  0  0  0  0  0  0  0  0  0  0
   12.2540  -14.4403   22.0859 O   0  0  0  0  0  0  0  0  0  0  0  0
    9.4182  -17.1484   22.9353 O   0  0  0  0  0  0  0  0  0  0  0  0
   10.5195  -17.7636   23.5063 C   0  0  0  0  0  0  0  0  0  0  0  0
   11.7701  -16.9003   23.2901 C   0  0  2  0  0  0  0  0  0  0  0  0
   12.0060  -16.7014   21.8945 N   0  0  0  0  0  0  0  0  0  0  0  0
   12.8621  -17.5271   24.0143 C   0  0  0  0  0  0  0  0  0  0  0  0
   13.8576  -17.9788   23.4157 O   0  0  0  0  0  0  0  0  0  0  0  0
   12.8191  -17.6356   25.3870 O   0  0  0  0  0  0  0  0  0  0  0  0
  2  1  1  0
  3  2  1  0
  4  3  1  0
  4  5  1  0
  5  1  1  0
  5  6  1  1
  6 13  1  0
  7  6  2  0
  9  8  1  0
 10  9  2  0
 11  9  1  0
 12 11  1  1
 12 13  1  0
 12 14  1  0
 14 19  1  0
 15 14  2  0
 16 17  1  0
 18 20  1  0
 18 17  1  6
 19 18  1  0
 20 22  1  0
 21 20  2  0
M  END
$$$$
