EWK.pdb
     RDKit          3D

 33 34  0  0  1  0  0  0  0  0999 V2000
   28.7652  -21.6180  -15.7070 N   0  0  0  0  0  0  0  0  0  0  0  0
   27.8907  -20.5804  -15.1353 C   0  0  1  0  0  0  0  0  0  0  0  0
   26.9939  -20.1607  -16.2702 C   0  0  0  0  0  0  0  0  0  0  0  0
   27.6079  -19.2124  -17.2521 C   0  0  0  0  0  0  0  0  0  0  0  0
   27.9913  -17.9674  -16.5477 C   0  0  0  0  0  0  0  0  0  0  0  0
   29.0793  -17.9345  -15.9046 O   0  0  0  0  0  0  0  0  0  0  0  0
   27.0292  -21.1871  -14.0757 C   0  0  0  0  0  0  0  0  0  0  0  0
   26.5600  -22.3395  -14.2090 O   0  0  0  0  0  0  0  0  0  0  0  0
   27.2384  -16.8086  -16.5334 O   0  0  0  0  0  0  0  0  0  0  0  0
   26.7019  -20.4981  -12.8785 N   0  0  0  0  0  0  0  0  0  0  0  0
   25.7238  -21.0158  -11.9425 C   0  0  1  0  0  0  0  0  0  0  0  0
   25.8820  -20.3631  -10.5899 C   0  0  0  0  0  0  0  0  0  0  0  0
   27.0732  -20.8248   -9.8697 C   0  0  0  0  0  0  0  0  0  0  0  0
   28.1296  -21.5674  -10.3875 C   0  0  0  0  0  0  0  0  0  0  0  0
   29.0303  -21.7912   -9.4158 N   0  0  0  0  0  0  0  0  0  0  0  0
   28.5678  -21.2073   -8.2957 C   0  0  0  0  0  0  0  0  0  0  0  0
   29.0583  -21.1083   -7.0038 C   0  0  0  0  0  0  0  0  0  0  0  0
   28.3480  -20.4300   -6.0378 C   0  0  0  0  0  0  0  0  0  0  0  0
   27.1415  -19.8273   -6.2934 C   0  0  0  0  0  0  0  0  0  0  0  0
   26.6437  -19.9187   -7.5735 C   0  0  0  0  0  0  0  0  0  0  0  0
   27.3468  -20.5952   -8.5473 C   0  0  0  0  0  0  0  0  0  0  0  0
   24.3449  -20.7528  -12.4137 C   0  0  0  0  0  0  0  0  0  0  0  0
   24.0061  -19.5843  -12.7001 O   0  0  0  0  0  0  0  0  0  0  0  0
   23.3533  -21.7575  -12.5678 N   0  0  0  0  0  0  0  0  0  0  0  0
   22.0597  -21.4839  -13.0717 C   0  0  1  0  0  0  0  0  0  0  0  0
   21.4892  -22.7654  -13.6809 C   0  0  0  0  0  0  0  0  0  0  0  0
   20.1833  -22.4335  -14.3166 C   0  0  0  0  0  0  0  0  0  0  0  0
   19.4159  -23.6362  -14.8207 C   0  0  0  0  0  0  0  0  0  0  0  0
   19.8936  -24.0217  -16.1798 C   0  0  0  0  0  0  0  0  0  0  0  0
   19.0423  -25.0956  -16.7005 N   0  0  0  0  0  0  0  0  0  0  0  0
   21.0890  -20.9519  -12.1323 C   0  0  0  0  0  0  0  0  0  0  0  0
   21.1385  -21.0345  -10.8776 O   0  0  0  0  0  0  0  0  0  0  0  0
   19.9861  -20.2800  -12.6490 O   0  0  0  0  0  0  0  0  0  0  0  0
  2  1  1  6
  2  3  1  0
  3  4  1  0
  4  5  1  0
  5  6  2  0
  7  2  1  0
  7  8  2  0
  9  5  1  0
 10  7  1  0
 11 12  1  1
 11 10  1  0
 12 13  1  0
 13 14  2  0
 13 21  1  0
 14 15  1  0
 15 16  1  0
 16 17  2  0
 18 17  1  0
 19 18  2  0
 20 19  1  0
 21 20  2  0
 21 16  1  0
 22 11  1  0
 23 22  2  0
 24 22  1  0
 25 24  1  0
 25 26  1  1
 26 27  1  0
 27 28  1  0
 28 29  1  0
 30 29  1  0
 31 33  1  0
 31 25  1  0
 32 31  2  0
M  END
$$$$
