EWK.pdb
     RDKit          3D

 33 34  0  0  1  0  0  0  0  0999 V2000
   27.9155  -21.4373  -15.1100 N   0  0  0  0  0  0  0  0  0  0  0  0
   28.0681  -20.3776  -14.0990 C   0  0  1  0  0  0  0  0  0  0  0  0
   27.2713  -19.2158  -14.6319 C   0  0  0  0  0  0  0  0  0  0  0  0
   27.9899  -18.3467  -15.6159 C   0  0  0  0  0  0  0  0  0  0  0  0
   27.3954  -18.5414  -16.9582 C   0  0  0  0  0  0  0  0  0  0  0  0
   26.2644  -18.0354  -17.2094 O   0  0  0  0  0  0  0  0  0  0  0  0
   27.4313  -20.8172  -12.8205 C   0  0  0  0  0  0  0  0  0  0  0  0
   26.4311  -21.5691  -12.8247 O   0  0  0  0  0  0  0  0  0  0  0  0
   27.9891  -19.2499  -17.9856 O   0  0  0  0  0  0  0  0  0  0  0  0
   27.9204  -20.4108  -11.5514 N   0  0  0  0  0  0  0  0  0  0  0  0
   27.2258  -20.7425  -10.3233 C   0  0  1  0  0  0  0  0  0  0  0  0
   27.9688  -20.1988   -9.1264 C   0  0  0  0  0  0  0  0  0  0  0  0
   27.2497  -20.4079   -7.8654 C   0  0  0  0  0  0  0  0  0  0  0  0
   26.0261  -21.0476   -7.6952 C   0  0  0  0  0  0  0  0  0  0  0  0
   25.7007  -21.0390   -6.3915 N   0  0  0  0  0  0  0  0  0  0  0  0
   26.6902  -20.4085   -5.7336 C   0  0  0  0  0  0  0  0  0  0  0  0
   26.9004  -20.1047   -4.3984 C   0  0  0  0  0  0  0  0  0  0  0  0
   28.0370  -19.4322   -4.0064 C   0  0  0  0  0  0  0  0  0  0  0  0
   29.0042  -19.0336   -4.8950 C   0  0  0  0  0  0  0  0  0  0  0  0
   28.8067  -19.3297   -6.2248 C   0  0  0  0  0  0  0  0  0  0  0  0
   27.6727  -20.0024   -6.6273 C   0  0  0  0  0  0  0  0  0  0  0  0
   25.8622  -20.1653  -10.3105 C   0  0  0  0  0  0  0  0  0  0  0  0
   25.7203  -18.9242  -10.3514 O   0  0  0  0  0  0  0  0  0  0  0  0
   24.6730  -20.9391  -10.2532 N   0  0  0  0  0  0  0  0  0  0  0  0
   23.4227  -20.4538  -10.7043 C   0  0  1  0  0  0  0  0  0  0  0  0
   23.2522  -20.8307  -12.1766 C   0  0  0  0  0  0  0  0  0  0  0  0
   21.9903  -20.2107  -12.6694 C   0  0  0  0  0  0  0  0  0  0  0  0
   21.6762  -20.5124  -14.1184 C   0  0  0  0  0  0  0  0  0  0  0  0
   20.2149  -20.3581  -14.3736 C   0  0  0  0  0  0  0  0  0  0  0  0
   19.9621  -20.4951  -15.8110 N   0  0  0  0  0  0  0  0  0  0  0  0
   22.2463  -20.8980   -9.9787 C   0  0  0  0  0  0  0  0  0  0  0  0
   22.0177  -22.0646   -9.5659 O   0  0  0  0  0  0  0  0  0  0  0  0
   21.2606  -19.9567   -9.7013 O   0  0  0  0  0  0  0  0  0  0  0  0
  2  1  1  6
  2  3  1  0
  3  4  1  0
  4  5  1  0
  5  6  2  0
  7  2  1  0
  7  8  2  0
  9  5  1  0
 10  7  1  0
 11 12  1  1
 11 10  1  0
 12 13  1  0
 13 14  2  0
 13 21  1  0
 14 15  1  0
 15 16  1  0
 16 17  2  0
 18 17  1  0
 19 18  2  0
 20 19  1  0
 21 20  2  0
 21 16  1  0
 22 11  1  0
 23 22  2  0
 24 22  1  0
 25 24  1  0
 25 26  1  6
 26 27  1  0
 27 28  1  0
 28 29  1  0
 30 29  1  0
 31 33  1  0
 31 25  1  0
 32 31  2  0
M  END
$$$$
