EWK.pdb
     RDKit          3D

 33 34  0  0  1  0  0  0  0  0999 V2000
   28.7209  -22.7966  -17.1089 N   0  0  0  0  0  0  0  0  0  0  0  0
   28.2652  -21.4789  -16.6353 C   0  0  1  0  0  0  0  0  0  0  0  0
   27.3355  -20.9809  -17.7105 C   0  0  0  0  0  0  0  0  0  0  0  0
   28.0058  -20.4581  -18.9424 C   0  0  0  0  0  0  0  0  0  0  0  0
   27.8097  -21.4245  -20.0472 C   0  0  0  0  0  0  0  0  0  0  0  0
   26.6441  -21.6154  -20.4981 O   0  0  0  0  0  0  0  0  0  0  0  0
   27.4641  -21.6515  -15.3857 C   0  0  0  0  0  0  0  0  0  0  0  0
   26.6447  -22.5902  -15.2707 O   0  0  0  0  0  0  0  0  0  0  0  0
   28.8213  -22.1553  -20.6411 O   0  0  0  0  0  0  0  0  0  0  0  0
   27.5883  -20.7719  -14.2784 N   0  0  0  0  0  0  0  0  0  0  0  0
   26.8938  -21.0138  -13.0294 C   0  0  1  0  0  0  0  0  0  0  0  0
   27.5265  -20.2275  -11.9061 C   0  0  0  0  0  0  0  0  0  0  0  0
   26.8075  -20.3685  -10.6357 C   0  0  0  0  0  0  0  0  0  0  0  0
   25.4288  -20.3724  -10.4496 C   0  0  0  0  0  0  0  0  0  0  0  0
   25.1600  -20.5257   -9.1419 N   0  0  0  0  0  0  0  0  0  0  0  0
   26.3369  -20.6188   -8.4971 C   0  0  0  0  0  0  0  0  0  0  0  0
   26.6798  -20.7832   -7.1650 C   0  0  0  0  0  0  0  0  0  0  0  0
   28.0033  -20.8461   -6.7878 C   0  0  0  0  0  0  0  0  0  0  0  0
   29.0345  -20.7518   -7.6889 C   0  0  0  0  0  0  0  0  0  0  0  0
   28.7063  -20.5882   -9.0157 C   0  0  0  0  0  0  0  0  0  0  0  0
   27.3850  -20.5241   -9.4033 C   0  0  0  0  0  0  0  0  0  0  0  0
   25.4731  -20.6069  -13.1229 C   0  0  0  0  0  0  0  0  0  0  0  0
   25.1908  -19.4207  -13.3979 O   0  0  0  0  0  0  0  0  0  0  0  0
   24.3794  -21.4889  -12.9173 N   0  0  0  0  0  0  0  0  0  0  0  0
   23.0341  -21.0973  -13.1146 C   0  0  1  0  0  0  0  0  0  0  0  0
   22.2654  -22.2711  -13.7228 C   0  0  0  0  0  0  0  0  0  0  0  0
   22.2479  -22.0956  -15.2022 C   0  0  0  0  0  0  0  0  0  0  0  0
   21.6147  -23.2451  -15.9552 C   0  0  0  0  0  0  0  0  0  0  0  0
   21.6717  -22.9945  -17.4243 C   0  0  0  0  0  0  0  0  0  0  0  0
   21.1464  -24.1664  -18.1312 N   0  0  0  0  0  0  0  0  0  0  0  0
   22.3088  -20.6309  -11.9465 C   0  0  0  0  0  0  0  0  0  0  0  0
   22.6705  -20.7440  -10.7465 O   0  0  0  0  0  0  0  0  0  0  0  0
   21.0901  -19.9926  -12.1511 O   0  0  0  0  0  0  0  0  0  0  0  0
  2  1  1  6
  2  3  1  0
  3  4  1  0
  4  5  1  0
  5  6  2  0
  7  2  1  0
  7  8  2  0
  9  5  1  0
 10  7  1  0
 11 12  1  1
 11 10  1  0
 12 13  1  0
 13 14  2  0
 13 21  1  0
 14 15  1  0
 15 16  1  0
 16 17  2  0
 18 17  1  0
 19 18  2  0
 20 19  1  0
 21 20  2  0
 21 16  1  0
 22 11  1  0
 23 22  2  0
 24 22  1  0
 25 24  1  0
 25 26  1  1
 26 27  1  0
 27 28  1  0
 28 29  1  0
 30 29  1  0
 31 33  1  0
 31 25  1  0
 32 31  2  0
M  END
$$$$
