EWK.pdb
     RDKit          3D

 33 34  0  0  1  0  0  0  0  0999 V2000
   28.0456  -21.8450  -15.5580 N   0  0  0  0  0  0  0  0  0  0  0  0
   28.4439  -20.9078  -14.4944 C   0  0  1  0  0  0  0  0  0  0  0  0
   28.0503  -19.5479  -15.0085 C   0  0  0  0  0  0  0  0  0  0  0  0
   27.8650  -19.4548  -16.4908 C   0  0  0  0  0  0  0  0  0  0  0  0
   26.6714  -18.6267  -16.7783 C   0  0  0  0  0  0  0  0  0  0  0  0
   26.8293  -17.4438  -17.1956 O   0  0  0  0  0  0  0  0  0  0  0  0
   27.6374  -21.1803  -13.2662 C   0  0  0  0  0  0  0  0  0  0  0  0
   26.5744  -21.8378  -13.3268 O   0  0  0  0  0  0  0  0  0  0  0  0
   25.3650  -19.0501  -16.6231 O   0  0  0  0  0  0  0  0  0  0  0  0
   28.0287  -20.7143  -11.9837 N   0  0  0  0  0  0  0  0  0  0  0  0
   27.2733  -21.0389  -10.7901 C   0  0  1  0  0  0  0  0  0  0  0  0
   28.0104  -20.5857   -9.5524 C   0  0  0  0  0  0  0  0  0  0  0  0
   27.1961  -20.6815   -8.3365 C   0  0  0  0  0  0  0  0  0  0  0  0
   25.9021  -21.1817   -8.2323 C   0  0  0  0  0  0  0  0  0  0  0  0
   25.4994  -21.1020   -6.9528 N   0  0  0  0  0  0  0  0  0  0  0  0
   26.5088  -20.5629   -6.2457 C   0  0  0  0  0  0  0  0  0  0  0  0
   26.6675  -20.2463   -4.9064 C   0  0  0  0  0  0  0  0  0  0  0  0
   27.8439  -19.6886   -4.4559 C   0  0  0  0  0  0  0  0  0  0  0  0
   28.9019  -19.4207   -5.2884 C   0  0  0  0  0  0  0  0  0  0  0  0
   28.7562  -19.7309   -6.6216 C   0  0  0  0  0  0  0  0  0  0  0  0
   27.5830  -20.2893   -7.0823 C   0  0  0  0  0  0  0  0  0  0  0  0
   25.9511  -20.3722  -10.7993 C   0  0  0  0  0  0  0  0  0  0  0  0
   25.8927  -19.1237  -10.7918 O   0  0  0  0  0  0  0  0  0  0  0  0
   24.7122  -21.0659  -10.8161 N   0  0  0  0  0  0  0  0  0  0  0  0
   23.4844  -20.4306  -11.1181 C   0  0  1  0  0  0  0  0  0  0  0  0
   22.8727  -21.1041  -12.3472 C   0  0  0  0  0  0  0  0  0  0  0  0
   21.6188  -20.3789  -12.6958 C   0  0  0  0  0  0  0  0  0  0  0  0
   20.9279  -20.8972  -13.9381 C   0  0  0  0  0  0  0  0  0  0  0  0
   19.7045  -20.0932  -14.2228 C   0  0  0  0  0  0  0  0  0  0  0  0
   19.0195  -20.6590  -15.3888 N   0  0  0  0  0  0  0  0  0  0  0  0
   22.4844  -20.4026  -10.0659 C   0  0  0  0  0  0  0  0  0  0  0  0
   21.6342  -19.4967   -9.8653 O   0  0  0  0  0  0  0  0  0  0  0  0
   22.4440  -21.4740   -9.1798 O   0  0  0  0  0  0  0  0  0  0  0  0
  2  1  1  6
  2  3  1  0
  3  4  1  0
  4  5  1  0
  5  6  2  0
  7  2  1  0
  7  8  2  0
  9  5  1  0
 10  7  1  0
 11 12  1  1
 11 10  1  0
 12 13  1  0
 13 14  2  0
 13 21  1  0
 14 15  1  0
 15 16  1  0
 16 17  2  0
 18 17  1  0
 19 18  2  0
 20 19  1  0
 21 20  2  0
 21 16  1  0
 22 11  1  0
 23 22  2  0
 24 22  1  0
 25 24  1  0
 25 26  1  6
 26 27  1  0
 27 28  1  0
 28 29  1  0
 30 29  1  0
 31 33  1  0
 31 25  1  0
 32 31  2  0
M  END
$$$$
