EWK.pdb
     RDKit          3D

 33 34  0  0  1  0  0  0  0  0999 V2000
   26.7665  -17.8940  -14.2876 N   0  0  0  0  0  0  0  0  0  0  0  0
   27.3605  -18.8072  -15.2783 C   0  0  1  0  0  0  0  0  0  0  0  0
   28.8400  -18.5311  -15.2218 C   0  0  0  0  0  0  0  0  0  0  0  0
   29.3046  -17.3696  -16.0436 C   0  0  0  0  0  0  0  0  0  0  0  0
   28.9834  -17.6243  -17.4667 C   0  0  0  0  0  0  0  0  0  0  0  0
   28.2386  -16.8108  -18.0845 O   0  0  0  0  0  0  0  0  0  0  0  0
   27.1448  -20.2201  -14.8418 C   0  0  0  0  0  0  0  0  0  0  0  0
   27.6048  -21.1762  -15.5052 O   0  0  0  0  0  0  0  0  0  0  0  0
   29.4413  -18.7064  -18.1943 O   0  0  0  0  0  0  0  0  0  0  0  0
   26.4170  -20.5479  -13.6680 N   0  0  0  0  0  0  0  0  0  0  0  0
   26.1500  -21.9225  -13.2939 C   0  0  1  0  0  0  0  0  0  0  0  0
   26.7238  -22.2255  -11.9303 C   0  0  0  0  0  0  0  0  0  0  0  0
   26.2731  -21.2842  -10.8999 C   0  0  0  0  0  0  0  0  0  0  0  0
   25.1038  -20.5304  -10.9079 C   0  0  0  0  0  0  0  0  0  0  0  0
   25.0474  -19.7907   -9.7874 N   0  0  0  0  0  0  0  0  0  0  0  0
   26.1539  -20.0596   -9.0713 C   0  0  0  0  0  0  0  0  0  0  0  0
   26.6307  -19.6046   -7.8527 C   0  0  0  0  0  0  0  0  0  0  0  0
   27.8281  -20.0691   -7.3545 C   0  0  0  0  0  0  0  0  0  0  0  0
   28.5998  -20.9880   -8.0209 C   0  0  0  0  0  0  0  0  0  0  0  0
   28.1366  -21.4478   -9.2329 C   0  0  0  0  0  0  0  0  0  0  0  0
   26.9396  -20.9891   -9.7401 C   0  0  0  0  0  0  0  0  0  0  0  0
   24.6940  -22.1866  -13.2415 C   0  0  0  0  0  0  0  0  0  0  0  0
   23.9094  -21.2516  -12.9721 O   0  0  0  0  0  0  0  0  0  0  0  0
   24.1085  -23.4580  -13.4809 N   0  0  0  0  0  0  0  0  0  0  0  0
   22.7176  -23.6356  -13.6703 C   0  0  1  0  0  0  0  0  0  0  0  0
   22.3604  -25.0880  -13.3517 C   0  0  0  0  0  0  0  0  0  0  0  0
   20.9420  -25.3131  -13.7483 C   0  0  0  0  0  0  0  0  0  0  0  0
   20.4311  -26.7074  -13.4583 C   0  0  0  0  0  0  0  0  0  0  0  0
   19.0061  -26.8338  -13.8796 C   0  0  0  0  0  0  0  0  0  0  0  0
   18.5744  -28.2232  -13.6998 N   0  0  0  0  0  0  0  0  0  0  0  0
   21.8361  -22.7695  -12.9081 C   0  0  0  0  0  0  0  0  0  0  0  0
   20.8421  -22.1373  -13.3505 O   0  0  0  0  0  0  0  0  0  0  0  0
   22.0981  -22.6081  -11.5517 O   0  0  0  0  0  0  0  0  0  0  0  0
  2  1  1  1
  2  3  1  0
  3  4  1  0
  4  5  1  0
  5  6  2  0
  7  2  1  0
  7  8  2  0
  9  5  1  0
 10  7  1  0
 11 12  1  1
 11 10  1  0
 12 13  1  0
 13 14  2  0
 13 21  1  0
 14 15  1  0
 15 16  1  0
 16 17  2  0
 18 17  1  0
 19 18  2  0
 20 19  1  0
 21 20  2  0
 21 16  1  0
 22 11  1  0
 23 22  2  0
 24 22  1  0
 25 24  1  0
 25 26  1  1
 26 27  1  0
 27 28  1  0
 28 29  1  0
 30 29  1  0
 31 33  1  0
 31 25  1  0
 32 31  2  0
M  END
$$$$
