EWK.pdb
     RDKit          3D

 33 34  0  0  1  0  0  0  0  0999 V2000
   25.2089   -9.5256  -21.5495 N   0  0  0  0  0  0  0  0  0  0  0  0
   25.4340   -8.4033  -20.6232 C   0  0  1  0  0  0  0  0  0  0  0  0
   25.0043   -7.1782  -21.3867 C   0  0  0  0  0  0  0  0  0  0  0  0
   23.5384   -7.0872  -21.6750 C   0  0  0  0  0  0  0  0  0  0  0  0
   23.0376   -5.7682  -21.2248 C   0  0  0  0  0  0  0  0  0  0  0  0
   23.8483   -4.9446  -20.7123 O   0  0  0  0  0  0  0  0  0  0  0  0
   24.5275   -8.5449  -19.4436 C   0  0  0  0  0  0  0  0  0  0  0  0
   23.4360   -9.1494  -19.5393 O   0  0  0  0  0  0  0  0  0  0  0  0
   21.7230   -5.3524  -21.3198 O   0  0  0  0  0  0  0  0  0  0  0  0
   24.8519   -8.0088  -18.1699 N   0  0  0  0  0  0  0  0  0  0  0  0
   23.9841   -8.1871  -17.0228 C   0  0  1  0  0  0  0  0  0  0  0  0
   24.7939   -8.2957  -15.7528 C   0  0  0  0  0  0  0  0  0  0  0  0
   25.4705   -9.5897  -15.6168 C   0  0  0  0  0  0  0  0  0  0  0  0
   26.8424   -9.8201  -15.6031 C   0  0  0  0  0  0  0  0  0  0  0  0
   27.0678  -11.1370  -15.4589 N   0  0  0  0  0  0  0  0  0  0  0  0
   25.8701  -11.7444  -15.3811 C   0  0  0  0  0  0  0  0  0  0  0  0
   25.4832  -13.0661  -15.2310 C   0  0  0  0  0  0  0  0  0  0  0  0
   24.1478  -13.4010  -15.1823 C   0  0  0  0  0  0  0  0  0  0  0  0
   23.1470  -12.4665  -15.2774 C   0  0  0  0  0  0  0  0  0  0  0  0
   23.5189  -11.1496  -15.4267 C   0  0  0  0  0  0  0  0  0  0  0  0
   24.8525  -10.8042  -15.4766 C   0  0  0  0  0  0  0  0  0  0  0  0
   23.0581   -7.0414  -16.8728 C   0  0  0  0  0  0  0  0  0  0  0  0
   23.5202   -5.8814  -16.8166 O   0  0  0  0  0  0  0  0  0  0  0  0
   21.6463   -7.1677  -16.7856 N   0  0  0  0  0  0  0  0  0  0  0  0
   20.7906   -6.0586  -16.5859 C   0  0  1  0  0  0  0  0  0  0  0  0
   19.3680   -6.4594  -16.9789 C   0  0  0  0  0  0  0  0  0  0  0  0
   18.5183   -5.2359  -16.9499 C   0  0  0  0  0  0  0  0  0  0  0  0
   17.1190   -5.4402  -17.4880 C   0  0  0  0  0  0  0  0  0  0  0  0
   16.3856   -4.1423  -17.5274 C   0  0  0  0  0  0  0  0  0  0  0  0
   15.0956   -4.3405  -18.1949 N   0  0  0  0  0  0  0  0  0  0  0  0
   20.7539   -5.4908  -15.2502 C   0  0  0  0  0  0  0  0  0  0  0  0
   20.5908   -4.2780  -14.9567 O   0  0  0  0  0  0  0  0  0  0  0  0
   20.9130   -6.3556  -14.1725 O   0  0  0  0  0  0  0  0  0  0  0  0
  2  1  1  6
  2  3  1  0
  3  4  1  0
  4  5  1  0
  5  6  2  0
  7  2  1  0
  7  8  2  0
  9  5  1  0
 10  7  1  0
 11 12  1  1
 11 10  1  0
 12 13  1  0
 13 14  2  0
 13 21  1  0
 14 15  1  0
 15 16  1  0
 16 17  2  0
 18 17  1  0
 19 18  2  0
 20 19  1  0
 21 20  2  0
 21 16  1  0
 22 11  1  0
 23 22  2  0
 24 22  1  0
 25 24  1  0
 25 26  1  1
 26 27  1  0
 27 28  1  0
 28 29  1  0
 30 29  1  0
 31 33  1  0
 31 25  1  0
 32 31  2  0
M  END
$$$$
