EWK.pdb
     RDKit          3D

 33 34  0  0  1  0  0  0  0  0999 V2000
   26.2061  -24.2573  -14.7619 N   0  0  0  0  0  0  0  0  0  0  0  0
   24.9804  -23.4589  -14.9315 C   0  0  1  0  0  0  0  0  0  0  0  0
   25.1658  -22.7374  -16.2405 C   0  0  0  0  0  0  0  0  0  0  0  0
   26.2560  -21.7120  -16.2555 C   0  0  0  0  0  0  0  0  0  0  0  0
   27.4706  -22.3057  -16.8601 C   0  0  0  0  0  0  0  0  0  0  0  0
   27.3434  -23.2080  -17.7364 O   0  0  0  0  0  0  0  0  0  0  0  0
   23.8089  -24.3749  -15.0793 C   0  0  0  0  0  0  0  0  0  0  0  0
   22.6619  -23.9234  -15.2947 O   0  0  0  0  0  0  0  0  0  0  0  0
   28.7654  -21.9469  -16.5365 O   0  0  0  0  0  0  0  0  0  0  0  0
   23.9334  -25.7857  -14.9844 N   0  0  0  0  0  0  0  0  0  0  0  0
   22.7798  -26.6605  -15.0543 C   0  0  1  0  0  0  0  0  0  0  0  0
   23.1431  -27.9712  -15.7105 C   0  0  0  0  0  0  0  0  0  0  0  0
   22.0032  -28.8868  -15.8252 C   0  0  0  0  0  0  0  0  0  0  0  0
   20.7637  -28.6137  -16.3949 C   0  0  0  0  0  0  0  0  0  0  0  0
   19.9879  -29.7076  -16.3100 N   0  0  0  0  0  0  0  0  0  0  0  0
   20.7082  -30.6658  -15.6998 C   0  0  0  0  0  0  0  0  0  0  0  0
   20.4374  -31.9775  -15.3457 C   0  0  0  0  0  0  0  0  0  0  0  0
   21.3937  -32.7411  -14.7131 C   0  0  0  0  0  0  0  0  0  0  0  0
   22.6408  -32.2579  -14.4044 C   0  0  0  0  0  0  0  0  0  0  0  0
   22.9219  -30.9558  -14.7513 C   0  0  0  0  0  0  0  0  0  0  0  0
   21.9718  -30.1834  -15.3846 C   0  0  0  0  0  0  0  0  0  0  0  0
   22.2567  -26.9607  -13.7019 C   0  0  0  0  0  0  0  0  0  0  0  0
   23.0447  -27.3398  -12.8088 O   0  0  0  0  0  0  0  0  0  0  0  0
   20.8894  -26.8465  -13.3361 N   0  0  0  0  0  0  0  0  0  0  0  0
   20.4144  -27.1707  -12.0433 C   0  0  1  0  0  0  0  0  0  0  0  0
   19.6596  -25.9653  -11.4812 C   0  0  0  0  0  0  0  0  0  0  0  0
   19.3091  -26.2594  -10.0633 C   0  0  0  0  0  0  0  0  0  0  0  0
   18.7151  -25.0858   -9.3154 C   0  0  0  0  0  0  0  0  0  0  0  0
   18.3987  -25.4745   -7.9109 C   0  0  0  0  0  0  0  0  0  0  0  0
   17.7643  -24.3411   -7.2311 N   0  0  0  0  0  0  0  0  0  0  0  0
   19.5592  -28.3388  -11.9327 C   0  0  0  0  0  0  0  0  0  0  0  0
   18.6225  -28.6569  -12.7104 O   0  0  0  0  0  0  0  0  0  0  0  0
   19.7797  -29.2064  -10.8682 O   0  0  0  0  0  0  0  0  0  0  0  0
  2  1  1  6
  2  3  1  0
  3  4  1  0
  4  5  1  0
  5  6  2  0
  7  2  1  0
  7  8  2  0
  9  5  1  0
 10  7  1  0
 11 12  1  1
 11 10  1  0
 12 13  1  0
 13 14  2  0
 13 21  1  0
 14 15  1  0
 15 16  1  0
 16 17  2  0
 18 17  1  0
 19 18  2  0
 20 19  1  0
 21 20  2  0
 21 16  1  0
 22 11  1  0
 23 22  2  0
 24 22  1  0
 25 24  1  0
 25 26  1  6
 26 27  1  0
 27 28  1  0
 28 29  1  0
 30 29  1  0
 31 33  1  0
 31 25  1  0
 32 31  2  0
M  END
$$$$
