EWK.pdb
     RDKit          3D

 33 34  0  0  1  0  0  0  0  0999 V2000
   26.8488  -22.7505  -14.9719 N   0  0  0  0  0  0  0  0  0  0  0  0
   27.0410  -21.4804  -14.2521 C   0  0  1  0  0  0  0  0  0  0  0  0
   26.2241  -20.4732  -15.0181 C   0  0  0  0  0  0  0  0  0  0  0  0
   26.7930  -20.0625  -16.3402 C   0  0  0  0  0  0  0  0  0  0  0  0
   27.9767  -19.2024  -16.1116 C   0  0  0  0  0  0  0  0  0  0  0  0
   29.0814  -19.5243  -16.6352 O   0  0  0  0  0  0  0  0  0  0  0  0
   26.4549  -21.5936  -12.8821 C   0  0  0  0  0  0  0  0  0  0  0  0
   25.3647  -22.1786  -12.6946 O   0  0  0  0  0  0  0  0  0  0  0  0
   27.9743  -18.0475  -15.3525 O   0  0  0  0  0  0  0  0  0  0  0  0
   27.0947  -21.0512  -11.7369 N   0  0  0  0  0  0  0  0  0  0  0  0
   26.4735  -21.0838  -10.4278 C   0  0  1  0  0  0  0  0  0  0  0  0
   27.4599  -20.6783   -9.3588 C   0  0  0  0  0  0  0  0  0  0  0  0
   26.8604  -20.6213   -8.0216 C   0  0  0  0  0  0  0  0  0  0  0  0
   25.5886  -21.0497   -7.6550 C   0  0  0  0  0  0  0  0  0  0  0  0
   25.4104  -20.8310   -6.3411 N   0  0  0  0  0  0  0  0  0  0  0  0
   26.5402  -20.2743   -5.8687 C   0  0  0  0  0  0  0  0  0  0  0  0
   26.9322  -19.8401   -4.6129 C   0  0  0  0  0  0  0  0  0  0  0  0
   28.1837  -19.2968   -4.4217 C   0  0  0  0  0  0  0  0  0  0  0  0
   29.0930  -19.1574   -5.4404 C   0  0  0  0  0  0  0  0  0  0  0  0
   28.7150  -19.5853   -6.6930 C   0  0  0  0  0  0  0  0  0  0  0  0
   27.4651  -20.1304   -6.8947 C   0  0  0  0  0  0  0  0  0  0  0  0
   25.3244  -20.1523  -10.3606 C   0  0  0  0  0  0  0  0  0  0  0  0
   25.4724  -18.9669  -10.7283 O   0  0  0  0  0  0  0  0  0  0  0  0
   24.0328  -20.5168   -9.8966 N   0  0  0  0  0  0  0  0  0  0  0  0
   22.8433  -19.9998  -10.4621 C   0  0  1  0  0  0  0  0  0  0  0  0
   22.7927  -20.3896  -11.9400 C   0  0  0  0  0  0  0  0  0  0  0  0
   21.6455  -19.6755  -12.5675 C   0  0  0  0  0  0  0  0  0  0  0  0
   21.4355  -20.0043  -14.0293 C   0  0  0  0  0  0  0  0  0  0  0  0
   20.2856  -19.2264  -14.5742 C   0  0  0  0  0  0  0  0  0  0  0  0
   20.1702  -19.4852  -16.0125 N   0  0  0  0  0  0  0  0  0  0  0  0
   21.5938  -20.3994   -9.8400 C   0  0  0  0  0  0  0  0  0  0  0  0
   20.6198  -19.6504   -9.5684 O   0  0  0  0  0  0  0  0  0  0  0  0
   21.4362  -21.7394   -9.5021 O   0  0  0  0  0  0  0  0  0  0  0  0
  2  1  1  6
  2  3  1  0
  3  4  1  0
  4  5  1  0
  5  6  2  0
  7  2  1  0
  7  8  2  0
  9  5  1  0
 10  7  1  0
 11 12  1  1
 11 10  1  0
 12 13  1  0
 13 14  2  0
 13 21  1  0
 14 15  1  0
 15 16  1  0
 16 17  2  0
 18 17  1  0
 19 18  2  0
 20 19  1  0
 21 20  2  0
 21 16  1  0
 22 11  1  0
 23 22  2  0
 24 22  1  0
 25 24  1  0
 25 26  1  6
 26 27  1  0
 27 28  1  0
 28 29  1  0
 30 29  1  0
 31 33  1  0
 31 25  1  0
 32 31  2  0
M  END
$$$$
