EWK.pdb
     RDKit          3D

 33 34  0  0  1  0  0  0  0  0999 V2000
   24.0453  -10.8442  -20.9188 N   0  0  0  0  0  0  0  0  0  0  0  0
   23.2607   -9.5981  -20.9070 C   0  0  1  0  0  0  0  0  0  0  0  0
   21.9003   -9.9917  -21.4195 C   0  0  0  0  0  0  0  0  0  0  0  0
   21.8556  -10.4099  -22.8560 C   0  0  0  0  0  0  0  0  0  0  0  0
   21.0158  -11.6233  -22.9809 C   0  0  0  0  0  0  0  0  0  0  0  0
   21.5629  -12.7213  -23.2863 O   0  0  0  0  0  0  0  0  0  0  0  0
   23.0973   -9.1289  -19.4977 C   0  0  0  0  0  0  0  0  0  0  0  0
   22.7413   -9.9176  -18.5937 O   0  0  0  0  0  0  0  0  0  0  0  0
   19.6477  -11.6557  -22.7875 O   0  0  0  0  0  0  0  0  0  0  0  0
   23.3337   -7.7825  -19.1149 N   0  0  0  0  0  0  0  0  0  0  0  0
   23.1231   -7.3269  -17.7552 C   0  0  1  0  0  0  0  0  0  0  0  0
   24.3381   -6.5892  -17.2454 C   0  0  0  0  0  0  0  0  0  0  0  0
   25.4829   -7.4736  -17.0046 C   0  0  0  0  0  0  0  0  0  0  0  0
   26.7245   -7.4256  -17.6302 C   0  0  0  0  0  0  0  0  0  0  0  0
   27.5061   -8.4007  -17.1362 N   0  0  0  0  0  0  0  0  0  0  0  0
   26.7872   -9.0641  -16.2128 C   0  0  0  0  0  0  0  0  0  0  0  0
   27.0633  -10.1434  -15.3893 C   0  0  0  0  0  0  0  0  0  0  0  0
   26.1071  -10.6199  -14.5195 C   0  0  0  0  0  0  0  0  0  0  0  0
   24.8552  -10.0659  -14.4207 C   0  0  0  0  0  0  0  0  0  0  0  0
   24.5689   -8.9927  -15.2339 C   0  0  0  0  0  0  0  0  0  0  0  0
   25.5188   -8.5084  -16.1077 C   0  0  0  0  0  0  0  0  0  0  0  0
   21.9671   -6.4050  -17.6759 C   0  0  0  0  0  0  0  0  0  0  0  0
   21.8495   -5.4931  -18.5225 O   0  0  0  0  0  0  0  0  0  0  0  0
   20.9560   -6.4831  -16.6819 N   0  0  0  0  0  0  0  0  0  0  0  0
   19.8864   -5.5599  -16.6052 C   0  0  1  0  0  0  0  0  0  0  0  0
   18.5776   -6.3363  -16.4548 C   0  0  0  0  0  0  0  0  0  0  0  0
   17.4562   -5.3554  -16.4472 C   0  0  0  0  0  0  0  0  0  0  0  0
   16.1015   -5.9649  -16.1599 C   0  0  0  0  0  0  0  0  0  0  0  0
   15.0332   -4.9315  -16.2828 C   0  0  0  0  0  0  0  0  0  0  0  0
   13.7255   -5.5710  -16.1097 N   0  0  0  0  0  0  0  0  0  0  0  0
   19.9529   -4.5656  -15.5493 C   0  0  0  0  0  0  0  0  0  0  0  0
   20.2008   -4.7795  -14.3343 O   0  0  0  0  0  0  0  0  0  0  0  0
   19.7228   -3.2375  -15.8927 O   0  0  0  0  0  0  0  0  0  0  0  0
  2  1  1  1
  2  3  1  0
  3  4  1  0
  4  5  1  0
  5  6  2  0
  7  2  1  0
  7  8  2  0
  9  5  1  0
 10  7  1  0
 11 12  1  6
 11 10  1  0
 12 13  1  0
 13 14  2  0
 13 21  1  0
 14 15  1  0
 15 16  1  0
 16 17  2  0
 18 17  1  0
 19 18  2  0
 20 19  1  0
 21 20  2  0
 21 16  1  0
 22 11  1  0
 23 22  2  0
 24 22  1  0
 25 24  1  0
 25 26  1  1
 26 27  1  0
 27 28  1  0
 28 29  1  0
 30 29  1  0
 31 33  1  0
 31 25  1  0
 32 31  2  0
M  END
$$$$
