EWK.pdb
     RDKit          3D

 33 34  0  0  1  0  0  0  0  0999 V2000
   31.7726  -35.8631   -5.8606 N   0  0  0  0  0  0  0  0  0  0  0  0
   31.5959  -34.6899   -4.9885 C   0  0  1  0  0  0  0  0  0  0  0  0
   30.1435  -34.7178   -4.5907 C   0  0  0  0  0  0  0  0  0  0  0  0
   29.1846  -34.2532   -5.6418 C   0  0  0  0  0  0  0  0  0  0  0  0
   27.8193  -34.2167   -5.0693 C   0  0  0  0  0  0  0  0  0  0  0  0
   27.6342  -34.6397   -3.8924 O   0  0  0  0  0  0  0  0  0  0  0  0
   32.4104  -34.8673   -3.7482 C   0  0  0  0  0  0  0  0  0  0  0  0
   32.6515  -36.0081   -3.2940 O   0  0  0  0  0  0  0  0  0  0  0  0
   26.7011  -33.7477   -5.7325 O   0  0  0  0  0  0  0  0  0  0  0  0
   32.9462  -33.7667   -3.0296 N   0  0  0  0  0  0  0  0  0  0  0  0
   33.7326  -33.9505   -1.8260 C   0  0  1  0  0  0  0  0  0  0  0  0
   34.5480  -32.7149   -1.5274 C   0  0  0  0  0  0  0  0  0  0  0  0
   35.9787  -32.9988   -1.3751 C   0  0  0  0  0  0  0  0  0  0  0  0
   36.6927  -34.0404   -1.9590 C   0  0  0  0  0  0  0  0  0  0  0  0
   37.9793  -33.9613   -1.5793 N   0  0  0  0  0  0  0  0  0  0  0  0
   38.0951  -32.8940   -0.7689 C   0  0  0  0  0  0  0  0  0  0  0  0
   39.1615  -32.3290   -0.0885 C   0  0  0  0  0  0  0  0  0  0  0  0
   38.9777  -31.2059    0.6877 C   0  0  0  0  0  0  0  0  0  0  0  0
   37.7561  -30.5960    0.8287 C   0  0  0  0  0  0  0  0  0  0  0  0
   36.6887  -31.1481    0.1575 C   0  0  0  0  0  0  0  0  0  0  0  0
   36.8622  -32.2719   -0.6219 C   0  0  0  0  0  0  0  0  0  0  0  0
   32.8627  -34.2125   -0.6567 C   0  0  0  0  0  0  0  0  0  0  0  0
   31.7903  -33.5821   -0.5354 O   0  0  0  0  0  0  0  0  0  0  0  0
   33.1660  -35.1522    0.3638 N   0  0  0  0  0  0  0  0  0  0  0  0
   32.3722  -35.3019    1.5256 C   0  0  1  0  0  0  0  0  0  0  0  0
   32.8633  -36.5249    2.3013 C   0  0  0  0  0  0  0  0  0  0  0  0
   31.9325  -36.7533    3.4420 C   0  0  0  0  0  0  0  0  0  0  0  0
   32.2490  -37.9839    4.2635 C   0  0  0  0  0  0  0  0  0  0  0  0
   31.8130  -39.2137    3.5413 C   0  0  0  0  0  0  0  0  0  0  0  0
   32.1580  -40.3897    4.3456 N   0  0  0  0  0  0  0  0  0  0  0  0
   32.3224  -34.1719    2.4358 C   0  0  0  0  0  0  0  0  0  0  0  0
   33.3071  -33.5855    2.9555 O   0  0  0  0  0  0  0  0  0  0  0  0
   31.0716  -33.6713    2.7815 O   0  0  0  0  0  0  0  0  0  0  0  0
  2  1  1  6
  2  3  1  0
  3  4  1  0
  4  5  1  0
  5  6  2  0
  7  2  1  0
  7  8  2  0
  9  5  1  0
 10  7  1  0
 11 12  1  1
 11 10  1  0
 12 13  1  0
 13 14  2  0
 13 21  1  0
 14 15  1  0
 15 16  1  0
 16 17  2  0
 18 17  1  0
 19 18  2  0
 20 19  1  0
 21 20  2  0
 21 16  1  0
 22 11  1  0
 23 22  2  0
 24 22  1  0
 25 24  1  0
 25 26  1  1
 26 27  1  0
 27 28  1  0
 28 29  1  0
 30 29  1  0
 31 33  1  0
 31 25  1  0
 32 31  2  0
M  END
$$$$
