EWK.pdb
     RDKit          3D

 33 34  0  0  1  0  0  0  0  0999 V2000
   27.6444  -22.1798  -15.2550 N   0  0  0  0  0  0  0  0  0  0  0  0
   27.4376  -20.9239  -14.5146 C   0  0  1  0  0  0  0  0  0  0  0  0
   26.3685  -20.1924  -15.2830 C   0  0  0  0  0  0  0  0  0  0  0  0
   26.8020  -19.6268  -16.5993 C   0  0  0  0  0  0  0  0  0  0  0  0
   27.8896  -18.6480  -16.3708 C   0  0  0  0  0  0  0  0  0  0  0  0
   27.6723  -17.6494  -15.6267 O   0  0  0  0  0  0  0  0  0  0  0  0
   26.8918  -21.2325  -13.1581 C   0  0  0  0  0  0  0  0  0  0  0  0
   25.9262  -22.0155  -13.0155 O   0  0  0  0  0  0  0  0  0  0  0  0
   29.1553  -18.7372  -16.9188 O   0  0  0  0  0  0  0  0  0  0  0  0
   27.4322  -20.6618  -11.9760 N   0  0  0  0  0  0  0  0  0  0  0  0
   26.8225  -20.8732  -10.6782 C   0  0  1  0  0  0  0  0  0  0  0  0
   27.6578  -20.2460   -9.5877 C   0  0  0  0  0  0  0  0  0  0  0  0
   27.0563  -20.3850   -8.2574 C   0  0  0  0  0  0  0  0  0  0  0  0
   25.7942  -20.8872   -7.9572 C   0  0  0  0  0  0  0  0  0  0  0  0
   25.6104  -20.8536   -6.6264 N   0  0  0  0  0  0  0  0  0  0  0  0
   26.7271  -20.3418   -6.0785 C   0  0  0  0  0  0  0  0  0  0  0  0
   27.1087  -20.0743   -4.7738 C   0  0  0  0  0  0  0  0  0  0  0  0
   28.3476  -19.5346   -4.5058 C   0  0  0  0  0  0  0  0  0  0  0  0
   29.2542  -19.2378   -5.4927 C   0  0  0  0  0  0  0  0  0  0  0  0
   28.8866  -19.4991   -6.7933 C   0  0  0  0  0  0  0  0  0  0  0  0
   27.6492  -20.0391   -7.0719 C   0  0  0  0  0  0  0  0  0  0  0  0
   25.4724  -20.2680  -10.6194 C   0  0  0  0  0  0  0  0  0  0  0  0
   25.3594  -19.0277  -10.5134 O   0  0  0  0  0  0  0  0  0  0  0  0
   24.2650  -21.0133  -10.6759 N   0  0  0  0  0  0  0  0  0  0  0  0
   23.0274  -20.4366  -11.0475 C   0  0  1  0  0  0  0  0  0  0  0  0
   22.6686  -20.9103  -12.4566 C   0  0  0  0  0  0  0  0  0  0  0  0
   21.4037  -20.2361  -12.8630 C   0  0  0  0  0  0  0  0  0  0  0  0
   20.8395  -20.7193  -14.1811 C   0  0  0  0  0  0  0  0  0  0  0  0
   19.5905  -19.9750  -14.5128 C   0  0  0  0  0  0  0  0  0  0  0  0
   18.9920  -20.5560  -15.7183 N   0  0  0  0  0  0  0  0  0  0  0  0
   21.8956  -20.6948  -10.1756 C   0  0  0  0  0  0  0  0  0  0  0  0
   21.7766  -21.6517   -9.3671 O   0  0  0  0  0  0  0  0  0  0  0  0
   20.8246  -19.8086  -10.2223 O   0  0  0  0  0  0  0  0  0  0  0  0
  2  1  1  6
  2  3  1  0
  3  4  1  0
  4  5  1  0
  5  6  2  0
  7  2  1  0
  7  8  2  0
  9  5  1  0
 10  7  1  0
 11 12  1  1
 11 10  1  0
 12 13  1  0
 13 14  2  0
 13 21  1  0
 14 15  1  0
 15 16  1  0
 16 17  2  0
 18 17  1  0
 19 18  2  0
 20 19  1  0
 21 20  2  0
 21 16  1  0
 22 11  1  0
 23 22  2  0
 24 22  1  0
 25 24  1  0
 25 26  1  6
 26 27  1  0
 27 28  1  0
 28 29  1  0
 30 29  1  0
 31 33  1  0
 31 25  1  0
 32 31  2  0
M  END
$$$$
