VKL.pdb
     RDKit          3D

 25 24  0  0  1  0  0  0  0  0999 V2000
    8.4888  -12.8640   17.9431 C   0  0  0  0  0  0  0  0  0  0  0  0
    7.7341  -13.4526   19.0954 C   0  0  1  0  0  0  0  0  0  0  0  0
    6.5814  -14.2501   18.5452 C   0  0  0  0  0  0  0  0  0  0  0  0
    8.6781  -14.3078   19.9106 C   0  0  2  0  0  0  0  0  0  0  0  0
    9.2074  -15.3643   19.0845 N   0  0  0  0  0  0  0  0  0  0  0  0
    8.0290  -14.8871   21.1051 C   0  0  0  0  0  0  0  0  0  0  0  0
    7.2972  -14.1991   21.8398 O   0  0  0  0  0  0  0  0  0  0  0  0
    8.2449  -16.2394   21.4128 N   0  0  0  0  0  0  0  0  0  0  0  0
    7.7462  -16.9317   22.5836 C   0  0  1  0  0  0  0  0  0  0  0  0
    8.2460  -18.3329   22.5275 C   0  0  0  0  0  0  0  0  0  0  0  0
    7.2596  -19.2115   21.8181 C   0  0  0  0  0  0  0  0  0  0  0  0
    6.5218  -20.1039   22.7625 C   0  0  0  0  0  0  0  0  0  0  0  0
    5.5530  -21.0232   22.0109 C   0  0  0  0  0  0  0  0  0  0  0  0
    4.8916  -21.8543   22.9705 N   0  0  0  0  0  0  0  0  0  0  0  0
    8.2609  -16.2030   23.7838 C   0  0  0  0  0  0  0  0  0  0  0  0
    9.4918  -16.0139   23.8859 O   0  0  0  0  0  0  0  0  0  0  0  0
    8.1686  -12.2750   27.8685 C   0  0  0  0  0  0  0  0  0  0  0  0
    7.3475  -12.4702   26.6536 C   0  0  2  0  0  0  0  0  0  0  0  0
    6.0585  -11.6295   26.8558 C   0  0  0  0  0  0  0  0  0  0  0  0
    6.9849  -13.8188   26.2121 C   0  0  0  0  0  0  0  0  0  0  0  0
    7.9974  -14.8415   25.8839 C   0  0  2  0  0  0  0  0  0  0  0  0
    7.4373  -15.7194   24.8027 N   0  0  0  0  0  0  0  0  0  0  0  0
    8.3392  -15.7797   26.9569 C   0  0  0  0  0  0  0  0  0  0  0  0
    7.7358  -16.8785   27.1885 O   0  0  0  0  0  0  0  0  0  0  0  0
    9.4118  -15.5067   27.8403 O   0  0  0  0  0  0  0  0  0  0  0  0
  2  1  1  6
  2  4  1  0
  3  2  1  0
  4  5  1  6
  4  6  1  0
  6  8  1  0
  6  7  2  0
  8  9  1  0
  9 10  1  1
 11 10  1  0
 12 11  1  0
 12 13  1  0
 13 14  1  0
 15  9  1  0
 15 22  1  0
 16 15  2  0
 18 17  1  1
 18 20  1  0
 19 18  1  0
 21 20  1  1
 21 22  1  0
 21 23  1  0
 23 25  1  0
 24 23  2  0
M  END
$$$$
