VKL.pdb
     RDKit          3D

 25 24  0  0  1  0  0  0  0  0999 V2000
    8.2628  -12.5185   20.4708 C   0  0  0  0  0  0  0  0  0  0  0  0
    7.7322  -13.4828   19.4547 C   0  0  1  0  0  0  0  0  0  0  0  0
    8.1991  -13.0375   18.0941 C   0  0  0  0  0  0  0  0  0  0  0  0
    8.2236  -14.8714   19.7971 C   0  0  2  0  0  0  0  0  0  0  0  0
    7.8309  -15.7918   18.7591 N   0  0  0  0  0  0  0  0  0  0  0  0
    7.7166  -15.3459   21.1016 C   0  0  0  0  0  0  0  0  0  0  0  0
    6.7450  -14.7989   21.6542 O   0  0  0  0  0  0  0  0  0  0  0  0
    8.3460  -16.4344   21.7252 N   0  0  0  0  0  0  0  0  0  0  0  0
    7.9487  -17.0365   22.9815 C   0  0  1  0  0  0  0  0  0  0  0  0
    8.5152  -18.4126   23.0227 C   0  0  0  0  0  0  0  0  0  0  0  0
    8.1226  -19.1015   24.2952 C   0  0  0  0  0  0  0  0  0  0  0  0
    7.1021  -20.1682   24.0644 C   0  0  0  0  0  0  0  0  0  0  0  0
    6.6045  -20.7529   25.3909 C   0  0  0  0  0  0  0  0  0  0  0  0
    5.6622  -21.7892   25.0958 N   0  0  0  0  0  0  0  0  0  0  0  0
    8.4910  -16.1764   24.0780 C   0  0  0  0  0  0  0  0  0  0  0  0
    9.6929  -15.8377   24.0330 O   0  0  0  0  0  0  0  0  0  0  0  0
    7.8410  -11.7597   25.4352 C   0  0  0  0  0  0  0  0  0  0  0  0
    6.8901  -12.8085   25.8645 C   0  0  2  0  0  0  0  0  0  0  0  0
    5.7171  -12.0754   26.5687 C   0  0  0  0  0  0  0  0  0  0  0  0
    7.3419  -13.9214   26.7026 C   0  0  0  0  0  0  0  0  0  0  0  0
    8.3464  -14.8999   26.2421 C   0  0  2  0  0  0  0  0  0  0  0  0
    7.7242  -15.7281   25.1557 N   0  0  0  0  0  0  0  0  0  0  0  0
    8.7853  -15.8891   27.2307 C   0  0  0  0  0  0  0  0  0  0  0  0
    9.6662  -15.6850   28.1293 O   0  0  0  0  0  0  0  0  0  0  0  0
    8.2287  -17.1911   27.2457 O   0  0  0  0  0  0  0  0  0  0  0  0
  2  1  1  1
  2  4  1  0
  3  2  1  0
  4  5  1  6
  4  6  1  0
  6  8  1  0
  6  7  2  0
  8  9  1  0
  9 10  1  1
 11 10  1  0
 12 11  1  0
 12 13  1  0
 13 14  1  0
 15  9  1  0
 15 22  1  0
 16 15  2  0
 18 17  1  1
 18 20  1  0
 19 18  1  0
 21 20  1  1
 21 22  1  0
 21 23  1  0
 23 25  1  0
 24 23  2  0
M  END
$$$$
