VKL.pdb
     RDKit          3D

 25 24  0  0  1  0  0  0  0  0999 V2000
    8.6052  -12.6995   20.3108 C   0  0  0  0  0  0  0  0  0  0  0  0
    7.9216  -13.3453   19.1449 C   0  0  1  0  0  0  0  0  0  0  0  0
    8.2716  -12.5677   17.9038 C   0  0  0  0  0  0  0  0  0  0  0  0
    8.3679  -14.7875   19.0558 C   0  0  2  0  0  0  0  0  0  0  0  0
    7.7545  -15.4125   17.9103 N   0  0  0  0  0  0  0  0  0  0  0  0
    8.0448  -15.5567   20.2755 C   0  0  0  0  0  0  0  0  0  0  0  0
    6.8682  -15.8341   20.5710 O   0  0  0  0  0  0  0  0  0  0  0  0
    9.0880  -15.9803   21.1135 N   0  0  0  0  0  0  0  0  0  0  0  0
    8.9354  -16.7349   22.3406 C   0  0  1  0  0  0  0  0  0  0  0  0
    9.9929  -17.7826   22.3618 C   0  0  0  0  0  0  0  0  0  0  0  0
    9.5678  -18.9706   21.5518 C   0  0  0  0  0  0  0  0  0  0  0  0
   10.6066  -20.0445   21.5423 C   0  0  0  0  0  0  0  0  0  0  0  0
   10.1540  -21.2435   20.7019 C   0  0  0  0  0  0  0  0  0  0  0  0
   11.1501  -22.2657   20.8105 N   0  0  0  0  0  0  0  0  0  0  0  0
    9.0807  -15.7721   23.4756 C   0  0  0  0  0  0  0  0  0  0  0  0
   10.1332  -15.1044   23.5620 O   0  0  0  0  0  0  0  0  0  0  0  0
    5.5880  -12.3099   27.1826 C   0  0  0  0  0  0  0  0  0  0  0  0
    6.9197  -12.8600   26.8477 C   0  0  2  0  0  0  0  0  0  0  0  0
    7.8280  -11.6437   26.5241 C   0  0  0  0  0  0  0  0  0  0  0  0
    7.0625  -13.8680   25.7947 C   0  0  0  0  0  0  0  0  0  0  0  0
    8.3219  -14.6051   25.5723 C   0  0  2  0  0  0  0  0  0  0  0  0
    8.0993  -15.5767   24.4499 N   0  0  0  0  0  0  0  0  0  0  0  0
    8.7820  -15.4470   26.6803 C   0  0  0  0  0  0  0  0  0  0  0  0
    8.3324  -16.6083   26.9530 O   0  0  0  0  0  0  0  0  0  0  0  0
    9.8022  -14.9975   27.5535 O   0  0  0  0  0  0  0  0  0  0  0  0
  2  1  1  1
  2  4  1  0
  3  2  1  0
  4  5  1  6
  4  6  1  0
  6  8  1  0
  6  7  2  0
  8  9  1  0
  9 10  1  1
 11 10  1  0
 12 11  1  0
 12 13  1  0
 13 14  1  0
 15  9  1  0
 15 22  1  0
 16 15  2  0
 18 17  1  6
 18 20  1  0
 19 18  1  0
 21 20  1  1
 21 22  1  0
 21 23  1  0
 23 25  1  0
 24 23  2  0
M  END
$$$$
