VKL.pdb
     RDKit          3D

 25 24  0  0  1  0  0  0  0  0999 V2000
    9.0937  -12.8659   18.4853 C   0  0  0  0  0  0  0  0  0  0  0  0
    8.5614  -13.4333   19.7653 C   0  0  1  0  0  0  0  0  0  0  0  0
    7.2491  -12.7603   20.0691 C   0  0  0  0  0  0  0  0  0  0  0  0
    8.4091  -14.9298   19.6092 C   0  0  2  0  0  0  0  0  0  0  0  0
    7.6499  -15.2157   18.4173 N   0  0  0  0  0  0  0  0  0  0  0  0
    7.7574  -15.5577   20.7775 C   0  0  0  0  0  0  0  0  0  0  0  0
    6.5309  -15.7670   20.7973 O   0  0  0  0  0  0  0  0  0  0  0  0
    8.5407  -15.9232   21.8832 N   0  0  0  0  0  0  0  0  0  0  0  0
    8.0518  -16.5322   23.1034 C   0  0  1  0  0  0  0  0  0  0  0  0
    8.4703  -17.9609   23.0949 C   0  0  0  0  0  0  0  0  0  0  0  0
    7.9564  -18.6632   24.3159 C   0  0  0  0  0  0  0  0  0  0  0  0
    8.2774  -20.1224   24.3012 C   0  0  0  0  0  0  0  0  0  0  0  0
    7.6252  -20.8434   25.4860 C   0  0  0  0  0  0  0  0  0  0  0  0
    7.9929  -22.2254   25.4242 N   0  0  0  0  0  0  0  0  0  0  0  0
    8.6539  -15.7809   24.2475 C   0  0  0  0  0  0  0  0  0  0  0  0
    9.8959  -15.6507   24.2897 O   0  0  0  0  0  0  0  0  0  0  0  0
    7.6139  -11.4595   25.4020 C   0  0  0  0  0  0  0  0  0  0  0  0
    6.8820  -12.5385   26.1011 C   0  0  2  0  0  0  0  0  0  0  0  0
    5.7748  -11.8455   26.9395 C   0  0  0  0  0  0  0  0  0  0  0  0
    7.6009  -13.4980   26.9423 C   0  0  0  0  0  0  0  0  0  0  0  0
    8.5733  -14.4607   26.3887 C   0  0  2  0  0  0  0  0  0  0  0  0
    7.9006  -15.2132   25.2775 N   0  0  0  0  0  0  0  0  0  0  0  0
    9.0305  -15.5135   27.3001 C   0  0  0  0  0  0  0  0  0  0  0  0
    9.8431  -15.3425   28.2674 O   0  0  0  0  0  0  0  0  0  0  0  0
    8.5735  -16.8457   27.1519 O   0  0  0  0  0  0  0  0  0  0  0  0
  2  1  1  6
  2  4  1  0
  3  2  1  0
  4  5  1  6
  4  6  1  0
  6  8  1  0
  6  7  2  0
  8  9  1  0
  9 10  1  1
 11 10  1  0
 12 11  1  0
 12 13  1  0
 13 14  1  0
 15  9  1  0
 15 22  1  0
 16 15  2  0
 18 17  1  1
 18 20  1  0
 19 18  1  0
 21 20  1  1
 21 22  1  0
 21 23  1  0
 23 25  1  0
 24 23  2  0
M  END
$$$$
