VKL.pdb
     RDKit          3D

 25 24  0  0  1  0  0  0  0  0999 V2000
    6.7440  -13.0886   20.1990 C   0  0  0  0  0  0  0  0  0  0  0  0
    7.8147  -13.7981   19.4283 C   0  0  1  0  0  0  0  0  0  0  0  0
    8.1319  -12.9826   18.2028 C   0  0  0  0  0  0  0  0  0  0  0  0
    9.0226  -13.9744   20.3211 C   0  0  2  0  0  0  0  0  0  0  0  0
   10.0570  -14.6742   19.6007 N   0  0  0  0  0  0  0  0  0  0  0  0
    8.7042  -14.7017   21.5675 C   0  0  0  0  0  0  0  0  0  0  0  0
    7.6734  -14.4487   22.2172 O   0  0  0  0  0  0  0  0  0  0  0  0
    9.5839  -15.6958   22.0232 N   0  0  0  0  0  0  0  0  0  0  0  0
    9.4015  -16.5104   23.2072 C   0  0  1  0  0  0  0  0  0  0  0  0
   10.3892  -17.6227   23.1475 C   0  0  0  0  0  0  0  0  0  0  0  0
    9.9640  -18.6456   22.1370 C   0  0  0  0  0  0  0  0  0  0  0  0
   10.9093  -19.8011   22.0758 C   0  0  0  0  0  0  0  0  0  0  0  0
   10.4297  -20.8544   21.0712 C   0  0  0  0  0  0  0  0  0  0  0  0
   11.3576  -21.9442   21.0906 N   0  0  0  0  0  0  0  0  0  0  0  0
    9.6258  -15.6276   24.3931 C   0  0  0  0  0  0  0  0  0  0  0  0
   10.6303  -14.8845   24.4036 O   0  0  0  0  0  0  0  0  0  0  0  0
    7.4726  -11.8315   25.6704 C   0  0  0  0  0  0  0  0  0  0  0  0
    6.9659  -13.1663   26.0576 C   0  0  2  0  0  0  0  0  0  0  0  0
    5.5339  -12.9472   26.6148 C   0  0  0  0  0  0  0  0  0  0  0  0
    7.7256  -14.0077   26.9851 C   0  0  0  0  0  0  0  0  0  0  0  0
    9.0169  -14.6214   26.6181 C   0  0  2  0  0  0  0  0  0  0  0  0
    8.7698  -15.5873   25.4959 N   0  0  0  0  0  0  0  0  0  0  0  0
    9.6603  -15.4389   27.6506 C   0  0  0  0  0  0  0  0  0  0  0  0
   10.1784  -14.9876   28.7244 O   0  0  0  0  0  0  0  0  0  0  0  0
    9.7470  -16.8452   27.5083 O   0  0  0  0  0  0  0  0  0  0  0  0
  2  1  1  1
  2  4  1  0
  3  2  1  0
  4  5  1  6
  4  6  1  0
  6  8  1  0
  6  7  2  0
  8  9  1  0
  9 10  1  6
 11 10  1  0
 12 11  1  0
 12 13  1  0
 13 14  1  0
 15  9  1  0
 15 22  1  0
 16 15  2  0
 18 17  1  1
 18 20  1  0
 19 18  1  0
 21 20  1  1
 21 22  1  0
 21 23  1  0
 23 25  1  0
 24 23  2  0
M  END
$$$$
