VKL.pdb
     RDKit          3D

 25 24  0  0  1  0  0  0  0  0999 V2000
    8.5117  -12.5827   20.7920 C   0  0  0  0  0  0  0  0  0  0  0  0
    7.9397  -13.1581   19.5329 C   0  0  1  0  0  0  0  0  0  0  0  0
    8.3801  -12.2968   18.3789 C   0  0  0  0  0  0  0  0  0  0  0  0
    8.4159  -14.5864   19.3893 C   0  0  2  0  0  0  0  0  0  0  0  0
    7.9610  -15.1224   18.1305 N   0  0  0  0  0  0  0  0  0  0  0  0
    7.9541  -15.4512   20.4950 C   0  0  0  0  0  0  0  0  0  0  0  0
    6.7582  -15.7782   20.6024 O   0  0  0  0  0  0  0  0  0  0  0  0
    8.8855  -15.9099   21.4394 N   0  0  0  0  0  0  0  0  0  0  0  0
    8.5922  -16.7624   22.5734 C   0  0  1  0  0  0  0  0  0  0  0  0
    9.3702  -18.0206   22.4066 C   0  0  0  0  0  0  0  0  0  0  0  0
    9.0625  -18.9768   23.5198 C   0  0  0  0  0  0  0  0  0  0  0  0
    9.7728  -20.2806   23.3524 C   0  0  0  0  0  0  0  0  0  0  0  0
    9.4369  -21.2435   24.4965 C   0  0  0  0  0  0  0  0  0  0  0  0
   10.0608  -22.5014   24.2184 N   0  0  0  0  0  0  0  0  0  0  0  0
    8.9939  -16.0167   23.8058 C   0  0  0  0  0  0  0  0  0  0  0  0
   10.1578  -15.5683   23.8803 O   0  0  0  0  0  0  0  0  0  0  0  0
    7.8280  -11.8096   25.5295 C   0  0  0  0  0  0  0  0  0  0  0  0
    6.9700  -12.9994   25.7212 C   0  0  2  0  0  0  0  0  0  0  0  0
    5.6368  -12.4855   26.3276 C   0  0  0  0  0  0  0  0  0  0  0  0
    7.4505  -14.1426   26.5005 C   0  0  0  0  0  0  0  0  0  0  0  0
    8.5862  -14.9768   26.0610 C   0  0  2  0  0  0  0  0  0  0  0  0
    8.1353  -15.7925   24.8842 N   0  0  0  0  0  0  0  0  0  0  0  0
    9.0623  -15.9771   27.0207 C   0  0  0  0  0  0  0  0  0  0  0  0
    9.8386  -15.7378   28.0032 O   0  0  0  0  0  0  0  0  0  0  0  0
    8.6680  -17.3324   26.9066 O   0  0  0  0  0  0  0  0  0  0  0  0
  2  1  1  1
  2  4  1  0
  3  2  1  0
  4  5  1  6
  4  6  1  0
  6  8  1  0
  6  7  2  0
  8  9  1  0
  9 10  1  6
 11 10  1  0
 12 11  1  0
 12 13  1  0
 13 14  1  0
 15  9  1  0
 15 22  1  0
 16 15  2  0
 18 17  1  1
 18 20  1  0
 19 18  1  0
 21 20  1  1
 21 22  1  0
 21 23  1  0
 23 25  1  0
 24 23  2  0
M  END
$$$$
