VKL.pdb
     RDKit          3D

 25 24  0  0  1  0  0  0  0  0999 V2000
    9.0394  -12.5663   18.2776 C   0  0  0  0  0  0  0  0  0  0  0  0
    8.6261  -13.1664   19.5864 C   0  0  1  0  0  0  0  0  0  0  0  0
    7.2913  -12.5850   19.9705 C   0  0  0  0  0  0  0  0  0  0  0  0
    8.5683  -14.6702   19.4365 C   0  0  2  0  0  0  0  0  0  0  0  0
    7.7857  -15.0095   18.2741 N   0  0  0  0  0  0  0  0  0  0  0  0
    8.0042  -15.3368   20.6287 C   0  0  0  0  0  0  0  0  0  0  0  0
    6.7745  -15.4363   20.7914 O   0  0  0  0  0  0  0  0  0  0  0  0
    8.8759  -15.8662   21.5930 N   0  0  0  0  0  0  0  0  0  0  0  0
    8.4826  -16.6019   22.7774 C   0  0  1  0  0  0  0  0  0  0  0  0
    9.1298  -17.9411   22.7137 C   0  0  0  0  0  0  0  0  0  0  0  0
    8.3704  -18.8451   21.7895 C   0  0  0  0  0  0  0  0  0  0  0  0
    8.9381  -20.2270   21.7639 C   0  0  0  0  0  0  0  0  0  0  0  0
    8.2024  -21.1077   20.7481 C   0  0  0  0  0  0  0  0  0  0  0  0
    8.9069  -22.3492   20.6414 N   0  0  0  0  0  0  0  0  0  0  0  0
    8.9430  -15.8151   23.9628 C   0  0  0  0  0  0  0  0  0  0  0  0
   10.0867  -15.3124   23.9389 O   0  0  0  0  0  0  0  0  0  0  0  0
    7.6098  -11.8835   25.8978 C   0  0  0  0  0  0  0  0  0  0  0  0
    6.9120  -13.1155   26.3264 C   0  0  2  0  0  0  0  0  0  0  0  0
    5.7410  -12.6616   27.2384 C   0  0  0  0  0  0  0  0  0  0  0  0
    7.6507  -14.1958   26.9840 C   0  0  0  0  0  0  0  0  0  0  0  0
    8.7380  -14.9330   26.3109 C   0  0  2  0  0  0  0  0  0  0  0  0
    8.1610  -15.6098   25.1016 N   0  0  0  0  0  0  0  0  0  0  0  0
    9.3430  -16.0295   27.0725 C   0  0  0  0  0  0  0  0  0  0  0  0
    9.0613  -17.2643   26.9274 O   0  0  0  0  0  0  0  0  0  0  0  0
   10.3229  -15.7678   28.0607 O   0  0  0  0  0  0  0  0  0  0  0  0
  2  1  1  6
  2  4  1  0
  3  2  1  0
  4  5  1  6
  4  6  1  0
  6  8  1  0
  6  7  2  0
  8  9  1  0
  9 10  1  6
 11 10  1  0
 12 11  1  0
 12 13  1  0
 13 14  1  0
 15  9  1  0
 15 22  1  0
 16 15  2  0
 18 17  1  1
 18 20  1  0
 19 18  1  0
 21 20  1  1
 21 22  1  0
 21 23  1  0
 23 25  1  0
 24 23  2  0
M  END
$$$$
