VKL.pdb
     RDKit          3D

 25 24  0  0  1  0  0  0  0  0999 V2000
    8.5229  -12.4655   18.2776 C   0  0  0  0  0  0  0  0  0  0  0  0
    7.8268  -13.0925   19.4464 C   0  0  1  0  0  0  0  0  0  0  0  0
    6.6857  -13.9246   18.9240 C   0  0  0  0  0  0  0  0  0  0  0  0
    8.8261  -13.9221   20.2213 C   0  0  2  0  0  0  0  0  0  0  0  0
    9.3343  -14.9761   19.3790 N   0  0  0  0  0  0  0  0  0  0  0  0
    8.2477  -14.5024   21.4512 C   0  0  0  0  0  0  0  0  0  0  0  0
    7.6539  -13.7920   22.2827 O   0  0  0  0  0  0  0  0  0  0  0  0
    8.3728  -15.8812   21.6814 N   0  0  0  0  0  0  0  0  0  0  0  0
    7.8346  -16.6028   22.8164 C   0  0  1  0  0  0  0  0  0  0  0  0
    8.1390  -18.0467   22.6201 C   0  0  0  0  0  0  0  0  0  0  0  0
    7.1466  -18.6674   21.6830 C   0  0  0  0  0  0  0  0  0  0  0  0
    7.4345  -20.1127   21.4370 C   0  0  0  0  0  0  0  0  0  0  0  0
    7.6944  -20.8558   22.7519 C   0  0  0  0  0  0  0  0  0  0  0  0
    7.7442  -22.2582   22.4693 N   0  0  0  0  0  0  0  0  0  0  0  0
    8.4915  -16.0554   24.0432 C   0  0  0  0  0  0  0  0  0  0  0  0
    9.7204  -15.8312   24.0137 O   0  0  0  0  0  0  0  0  0  0  0  0
    7.8119  -11.8789   25.7345 C   0  0  0  0  0  0  0  0  0  0  0  0
    6.9688  -13.0153   26.1659 C   0  0  2  0  0  0  0  0  0  0  0  0
    5.7718  -12.4035   26.9417 C   0  0  0  0  0  0  0  0  0  0  0  0
    7.5454  -14.1123   26.9466 C   0  0  0  0  0  0  0  0  0  0  0  0
    8.4925  -15.0833   26.3646 C   0  0  2  0  0  0  0  0  0  0  0  0
    7.8037  -15.7794   25.2270 N   0  0  0  0  0  0  0  0  0  0  0  0
    8.9160  -16.1782   27.2423 C   0  0  0  0  0  0  0  0  0  0  0  0
    9.7693  -16.0737   28.1836 O   0  0  0  0  0  0  0  0  0  0  0  0
    8.3751  -17.4778   27.0880 O   0  0  0  0  0  0  0  0  0  0  0  0
  2  1  1  6
  2  4  1  0
  3  2  1  0
  4  5  1  6
  4  6  1  0
  6  8  1  0
  6  7  2  0
  8  9  1  0
  9 10  1  6
 11 10  1  0
 12 11  1  0
 12 13  1  0
 13 14  1  0
 15  9  1  0
 15 22  1  0
 16 15  2  0
 18 17  1  1
 18 20  1  0
 19 18  1  0
 21 20  1  1
 21 22  1  0
 21 23  1  0
 23 25  1  0
 24 23  2  0
M  END
$$$$
