VKL.pdb
     RDKit          3D

 25 24  0  0  1  0  0  0  0  0999 V2000
    9.2621  -12.4873   18.3932 C   0  0  0  0  0  0  0  0  0  0  0  0
    8.8148  -13.1393   19.6655 C   0  0  1  0  0  0  0  0  0  0  0  0
    7.5919  -12.4142   20.1616 C   0  0  0  0  0  0  0  0  0  0  0  0
    8.5367  -14.6006   19.3927 C   0  0  2  0  0  0  0  0  0  0  0  0
    7.5978  -14.7182   18.3048 N   0  0  0  0  0  0  0  0  0  0  0  0
    8.0146  -15.3089   20.5800 C   0  0  0  0  0  0  0  0  0  0  0  0
    6.7926  -15.3774   20.8052 O   0  0  0  0  0  0  0  0  0  0  0  0
    8.9178  -15.9142   21.4675 N   0  0  0  0  0  0  0  0  0  0  0  0
    8.5633  -16.7158   22.6209 C   0  0  1  0  0  0  0  0  0  0  0  0
    9.2937  -18.0088   22.5148 C   0  0  0  0  0  0  0  0  0  0  0  0
    8.6185  -18.9107   21.5254 C   0  0  0  0  0  0  0  0  0  0  0  0
    9.2592  -20.2592   21.4666 C   0  0  0  0  0  0  0  0  0  0  0  0
    8.5404  -21.1691   20.4645 C   0  0  0  0  0  0  0  0  0  0  0  0
    9.2226  -22.4271   20.4353 N   0  0  0  0  0  0  0  0  0  0  0  0
    8.9654  -15.9458   23.8381 C   0  0  0  0  0  0  0  0  0  0  0  0
   10.1129  -15.4531   23.8817 O   0  0  0  0  0  0  0  0  0  0  0  0
    7.2039  -12.0044   25.8339 C   0  0  0  0  0  0  0  0  0  0  0  0
    6.6104  -13.3235   26.1441 C   0  0  2  0  0  0  0  0  0  0  0  0
    5.3509  -13.0456   27.0076 C   0  0  0  0  0  0  0  0  0  0  0  0
    7.4159  -14.3683   26.7801 C   0  0  0  0  0  0  0  0  0  0  0  0
    8.5977  -14.9630   26.1256 C   0  0  2  0  0  0  0  0  0  0  0  0
    8.1247  -15.7456   24.9351 N   0  0  0  0  0  0  0  0  0  0  0  0
    9.3486  -15.9433   26.9152 C   0  0  0  0  0  0  0  0  0  0  0  0
    9.1834  -17.2063   26.8632 O   0  0  0  0  0  0  0  0  0  0  0  0
   10.3495  -15.5238   27.8248 O   0  0  0  0  0  0  0  0  0  0  0  0
  2  1  1  6
  2  4  1  0
  3  2  1  0
  4  5  1  6
  4  6  1  0
  6  8  1  0
  6  7  2  0
  8  9  1  0
  9 10  1  6
 11 10  1  0
 12 11  1  0
 12 13  1  0
 13 14  1  0
 15  9  1  0
 15 22  1  0
 16 15  2  0
 18 17  1  1
 18 20  1  0
 19 18  1  0
 21 20  1  1
 21 22  1  0
 21 23  1  0
 23 25  1  0
 24 23  2  0
M  END
$$$$
