PFM.pdb
     RDKit          3D

 27 28  0  0  1  0  0  0  0  0999 V2000
   27.1336  -20.3825  -16.5281 N   0  0  0  0  0  0  0  0  0  0  0  0
   28.5288  -20.2461  -16.8072 C   0  0  0  0  0  0  0  0  0  0  0  0
   29.1537  -21.3588  -16.0055 C   0  0  0  0  0  0  0  0  0  0  0  0
   28.1732  -22.5057  -16.2826 C   0  0  0  0  0  0  0  0  0  0  0  0
   26.8495  -21.7529  -16.2379 C   0  0  1  0  0  0  0  0  0  0  0  0
   26.2385  -21.9227  -14.8890 C   0  0  0  0  0  0  0  0  0  0  0  0
   25.6041  -22.9744  -14.6281 O   0  0  0  0  0  0  0  0  0  0  0  0
   26.3366  -20.9480  -13.8722 N   0  0  0  0  0  0  0  0  0  0  0  0
   25.6985  -21.0893  -12.5825 C   0  0  1  0  0  0  0  0  0  0  0  0
   26.6862  -20.5930  -11.5699 C   0  0  0  0  0  0  0  0  0  0  0  0
   26.2101  -20.4866  -10.1991 C   0  0  0  0  0  0  0  0  0  0  0  0
   27.1227  -20.4321   -9.1675 C   0  0  0  0  0  0  0  0  0  0  0  0
   26.7243  -20.3274   -7.8486 C   0  0  0  0  0  0  0  0  0  0  0  0
   25.3895  -20.2747   -7.5322 C   0  0  0  0  0  0  0  0  0  0  0  0
   24.4422  -20.3283   -8.5598 C   0  0  0  0  0  0  0  0  0  0  0  0
   24.8753  -20.4320   -9.8555 C   0  0  0  0  0  0  0  0  0  0  0  0
   24.4327  -20.3316  -12.5054 C   0  0  0  0  0  0  0  0  0  0  0  0
   24.3965  -19.1336  -12.8859 O   0  0  0  0  0  0  0  0  0  0  0  0
   21.2979  -22.0333  -16.5644 C   0  0  0  0  0  0  0  0  0  0  0  0
   19.8755  -21.0683  -15.9825 S   0  0  0  0  0  0  0  0  0  0  0  0
   20.2151  -20.5812  -14.2721 C   0  0  0  0  0  0  0  0  0  0  0  0
   21.6109  -20.9110  -13.8453 C   0  0  0  0  0  0  0  0  0  0  0  0
   21.8984  -20.4420  -12.4638 C   0  0  2  0  0  0  0  0  0  0  0  0
   23.2229  -20.8758  -12.0190 N   0  0  0  0  0  0  0  0  0  0  0  0
   20.9197  -20.9850  -11.5111 C   0  0  0  0  0  0  0  0  0  0  0  0
   21.1888  -22.0693  -10.9090 O   0  0  0  0  0  0  0  0  0  0  0  0
   19.7224  -20.3650  -11.2414 O   0  0  0  0  0  0  0  0  0  0  0  0
  1  5  1  0
  1  2  1  0
  2  3  1  0
  4  3  1  0
  5  4  1  0
  5  6  1  1
  7  6  2  0
  8  6  1  0
  9  8  1  0
 10 11  1  0
  9 10  1  1
 11 16  1  0
 11 12  2  0
 12 13  1  0
 13 14  2  0
 15 14  1  0
 16 15  2  0
 17 24  1  0
 17  9  1  0
 18 17  2  0
 20 19  1  0
 21 20  1  0
 22 21  1  0
 23 22  1  6
 23 24  1  0
 25 23  1  0
 26 25  2  0
 27 25  1  0
M  END
$$$$
