PFM.pdb
     RDKit          3D

 27 28  0  0  1  0  0  0  0  0999 V2000
   26.4825  -21.8205  -13.7467 N   0  0  0  0  0  0  0  0  0  0  0  0
   25.4732  -21.4816  -14.7004 C   0  0  0  0  0  0  0  0  0  0  0  0
   24.6464  -20.4487  -13.9789 C   0  0  0  0  0  0  0  0  0  0  0  0
   25.7440  -19.6016  -13.3222 C   0  0  0  0  0  0  0  0  0  0  0  0
   26.7185  -20.6936  -12.8997 C   0  0  1  0  0  0  0  0  0  0  0  0
   26.4922  -21.0184  -11.4627 C   0  0  0  0  0  0  0  0  0  0  0  0
   25.8735  -22.0678  -11.1584 O   0  0  0  0  0  0  0  0  0  0  0  0
   26.9439  -20.1955  -10.4080 N   0  0  0  0  0  0  0  0  0  0  0  0
   26.8080  -20.5566   -9.0146 C   0  0  1  0  0  0  0  0  0  0  0  0
   27.9061  -19.8408   -8.2874 C   0  0  0  0  0  0  0  0  0  0  0  0
   27.8383  -19.8573   -6.8340 C   0  0  0  0  0  0  0  0  0  0  0  0
   27.8273  -18.6646   -6.1430 C   0  0  0  0  0  0  0  0  0  0  0  0
   27.7603  -18.6237   -4.7635 C   0  0  0  0  0  0  0  0  0  0  0  0
   27.7025  -19.7888   -4.0398 C   0  0  0  0  0  0  0  0  0  0  0  0
   27.7124  -21.0131   -4.7160 C   0  0  0  0  0  0  0  0  0  0  0  0
   27.7795  -21.0137   -6.0845 C   0  0  0  0  0  0  0  0  0  0  0  0
   25.4839  -20.1869   -8.4738 C   0  0  0  0  0  0  0  0  0  0  0  0
   24.9613  -19.0891   -8.7948 O   0  0  0  0  0  0  0  0  0  0  0  0
   21.0826  -21.5872  -11.0650 C   0  0  0  0  0  0  0  0  0  0  0  0
   20.0285  -20.8839   -9.7660 S   0  0  0  0  0  0  0  0  0  0  0  0
   21.0425  -20.7212   -8.2750 C   0  0  0  0  0  0  0  0  0  0  0  0
   22.5040  -20.8861   -8.5512 C   0  0  0  0  0  0  0  0  0  0  0  0
   23.3189  -20.8143   -7.3094 C   0  0  2  0  0  0  0  0  0  0  0  0
   24.7411  -21.0058   -7.5940 N   0  0  0  0  0  0  0  0  0  0  0  0
   22.9201  -21.8621   -6.3589 C   0  0  0  0  0  0  0  0  0  0  0  0
   23.4796  -22.9989   -6.4315 O   0  0  0  0  0  0  0  0  0  0  0  0
   21.9658  -21.6617   -5.3895 O   0  0  0  0  0  0  0  0  0  0  0  0
  1  5  1  0
  1  2  1  0
  2  3  1  0
  4  3  1  0
  5  4  1  0
  5  6  1  1
  7  6  2  0
  8  6  1  0
  9  8  1  0
 10 11  1  0
  9 10  1  1
 11 16  1  0
 11 12  2  0
 12 13  1  0
 13 14  2  0
 15 14  1  0
 16 15  2  0
 17 24  1  0
 17  9  1  0
 18 17  2  0
 20 19  1  0
 21 20  1  0
 22 21  1  0
 23 22  1  6
 23 24  1  0
 25 23  1  0
 26 25  2  0
 27 25  1  0
M  END
$$$$
