PFM.pdb
     RDKit          3D

 27 28  0  0  1  0  0  0  0  0999 V2000
   28.3528  -20.8771  -15.1117 N   0  0  0  0  0  0  0  0  0  0  0  0
   28.0830  -20.6366  -16.4947 C   0  0  0  0  0  0  0  0  0  0  0  0
   27.3809  -19.3032  -16.4848 C   0  0  0  0  0  0  0  0  0  0  0  0
   28.2341  -18.5306  -15.4705 C   0  0  0  0  0  0  0  0  0  0  0  0
   28.4941  -19.6229  -14.4410 C   0  0  1  0  0  0  0  0  0  0  0  0
   27.5221  -19.4767  -13.3205 C   0  0  0  0  0  0  0  0  0  0  0  0
   27.3977  -18.3629  -12.7542 O   0  0  0  0  0  0  0  0  0  0  0  0
   26.7204  -20.5414  -12.8540 N   0  0  0  0  0  0  0  0  0  0  0  0
   25.7540  -20.3909  -11.7893 C   0  0  1  0  0  0  0  0  0  0  0  0
   24.5083  -21.0839  -12.2532 C   0  0  0  0  0  0  0  0  0  0  0  0
   23.6378  -20.3263  -13.1395 C   0  0  0  0  0  0  0  0  0  0  0  0
   22.5186  -19.7086  -12.6240 C   0  0  0  0  0  0  0  0  0  0  0  0
   21.6609  -18.9744  -13.4207 C   0  0  0  0  0  0  0  0  0  0  0  0
   21.9090  -18.8425  -14.7644 C   0  0  0  0  0  0  0  0  0  0  0  0
   23.0379  -19.4593  -15.3135 C   0  0  0  0  0  0  0  0  0  0  0  0
   23.8652  -20.1790  -14.4920 C   0  0  0  0  0  0  0  0  0  0  0  0
   26.2385  -20.9646  -10.5171 C   0  0  0  0  0  0  0  0  0  0  0  0
   26.6910  -22.1376  -10.4920 O   0  0  0  0  0  0  0  0  0  0  0  0
   29.5366  -18.6506   -5.5641 C   0  0  0  0  0  0  0  0  0  0  0  0
   28.2385  -19.4426   -4.5736 S   0  0  0  0  0  0  0  0  0  0  0  0
   27.2917  -20.5168   -5.6815 C   0  0  0  0  0  0  0  0  0  0  0  0
   27.1311  -19.9344   -7.0506 C   0  0  0  0  0  0  0  0  0  0  0  0
   26.4956  -20.8921   -7.9942 C   0  0  2  0  0  0  0  0  0  0  0  0
   26.2285  -20.2659   -9.2891 N   0  0  0  0  0  0  0  0  0  0  0  0
   25.2092  -21.3710   -7.4686 C   0  0  0  0  0  0  0  0  0  0  0  0
   24.1367  -20.9590   -8.0077 O   0  0  0  0  0  0  0  0  0  0  0  0
   25.1179  -22.2511   -6.4162 O   0  0  0  0  0  0  0  0  0  0  0  0
  1  5  1  0
  1  2  1  0
  2  3  1  0
  4  3  1  0
  5  4  1  0
  5  6  1  1
  7  6  2  0
  8  6  1  0
  9  8  1  0
 10 11  1  0
  9 10  1  6
 11 16  1  0
 11 12  2  0
 12 13  1  0
 13 14  2  0
 15 14  1  0
 16 15  2  0
 17 24  1  0
 17  9  1  0
 18 17  2  0
 20 19  1  0
 21 20  1  0
 22 21  1  0
 23 22  1  1
 23 24  1  0
 25 23  1  0
 26 25  2  0
 27 25  1  0
M  END
$$$$
