PFM.pdb
     RDKit          3D

 27 28  0  0  1  0  0  0  0  0999 V2000
   25.8381  -22.6512  -17.1403 N   0  0  0  0  0  0  0  0  0  0  0  0
   26.0063  -22.2287  -18.4955 C   0  0  0  0  0  0  0  0  0  0  0  0
   27.3707  -21.5887  -18.4929 C   0  0  0  0  0  0  0  0  0  0  0  0
   28.1612  -22.5880  -17.6386 C   0  0  0  0  0  0  0  0  0  0  0  0
   27.1227  -22.9233  -16.5757 C   0  0  1  0  0  0  0  0  0  0  0  0
   27.3848  -22.0988  -15.3620 C   0  0  0  0  0  0  0  0  0  0  0  0
   28.5352  -22.0917  -14.8587 O   0  0  0  0  0  0  0  0  0  0  0  0
   26.3923  -21.3121  -14.7376 N   0  0  0  0  0  0  0  0  0  0  0  0
   26.6547  -20.4881  -13.5790 C   0  0  1  0  0  0  0  0  0  0  0  0
   26.1214  -19.1255  -13.9047 C   0  0  0  0  0  0  0  0  0  0  0  0
   26.7909  -18.4079  -14.9790 C   0  0  0  0  0  0  0  0  0  0  0  0
   26.0431  -17.8785  -16.0087 C   0  0  0  0  0  0  0  0  0  0  0  0
   26.6282  -17.1855  -17.0512 C   0  0  0  0  0  0  0  0  0  0  0  0
   27.9888  -17.0066  -17.0842 C   0  0  0  0  0  0  0  0  0  0  0  0
   28.7715  -17.5337  -16.0518 C   0  0  0  0  0  0  0  0  0  0  0  0
   28.1555  -18.2149  -15.0350 C   0  0  0  0  0  0  0  0  0  0  0  0
   26.0200  -21.0293  -12.3598 C   0  0  0  0  0  0  0  0  0  0  0  0
   24.8423  -21.4673  -12.4094 O   0  0  0  0  0  0  0  0  0  0  0  0
   28.1550  -18.8059   -6.5239 C   0  0  0  0  0  0  0  0  0  0  0  0
   27.0764  -20.1781   -6.0270 S   0  0  0  0  0  0  0  0  0  0  0  0
   25.9960  -20.5530   -7.4307 C   0  0  0  0  0  0  0  0  0  0  0  0
   26.7137  -20.4929   -8.7424 C   0  0  0  0  0  0  0  0  0  0  0  0
   25.9523  -21.1668   -9.8274 C   0  0  2  0  0  0  0  0  0  0  0  0
   26.6637  -21.0910  -11.1035 N   0  0  0  0  0  0  0  0  0  0  0  0
   24.6413  -20.5310  -10.0213 C   0  0  0  0  0  0  0  0  0  0  0  0
   24.5241  -19.6284  -10.9056 O   0  0  0  0  0  0  0  0  0  0  0  0
   23.5323  -20.8755   -9.2851 O   0  0  0  0  0  0  0  0  0  0  0  0
  1  5  1  0
  1  2  1  0
  2  3  1  0
  4  3  1  0
  5  4  1  0
  5  6  1  1
  7  6  2  0
  8  6  1  0
  9  8  1  0
 10 11  1  0
  9 10  1  6
 11 16  1  0
 11 12  2  0
 12 13  1  0
 13 14  2  0
 15 14  1  0
 16 15  2  0
 17 24  1  0
 17  9  1  0
 18 17  2  0
 20 19  1  0
 21 20  1  0
 22 21  1  0
 23 22  1  1
 23 24  1  0
 25 23  1  0
 26 25  2  0
 27 25  1  0
M  END
$$$$
