PFM.pdb
     RDKit          3D

 27 28  0  0  1  0  0  0  0  0999 V2000
   27.3030  -19.6394  -16.9990 N   0  0  0  0  0  0  0  0  0  0  0  0
   28.5988  -19.0402  -17.0699 C   0  0  0  0  0  0  0  0  0  0  0  0
   29.4295  -19.8997  -16.1521 C   0  0  0  0  0  0  0  0  0  0  0  0
   28.9395  -21.3008  -16.5398 C   0  0  0  0  0  0  0  0  0  0  0  0
   27.4502  -21.0325  -16.7155 C   0  0  1  0  0  0  0  0  0  0  0  0
   26.7344  -21.4270  -15.4690 C   0  0  0  0  0  0  0  0  0  0  0  0
   26.7165  -22.6345  -15.1248 O   0  0  0  0  0  0  0  0  0  0  0  0
   26.0645  -20.5002  -14.6408 N   0  0  0  0  0  0  0  0  0  0  0  0
   25.3204  -20.8905  -13.4643 C   0  0  1  0  0  0  0  0  0  0  0  0
   25.7872  -19.9942  -12.3570 C   0  0  0  0  0  0  0  0  0  0  0  0
   25.1666  -20.1949  -11.0564 C   0  0  0  0  0  0  0  0  0  0  0  0
   25.8722  -20.8365  -10.0611 C   0  0  0  0  0  0  0  0  0  0  0  0
   25.3315  -21.0496   -8.8076 C   0  0  0  0  0  0  0  0  0  0  0  0
   24.0593  -20.6202   -8.5219 C   0  0  0  0  0  0  0  0  0  0  0  0
   23.3211  -19.9664   -9.5138 C   0  0  0  0  0  0  0  0  0  0  0  0
   23.8909  -19.7732  -10.7448 C   0  0  0  0  0  0  0  0  0  0  0  0
   23.8620  -20.7695  -13.6664 C   0  0  0  0  0  0  0  0  0  0  0  0
   23.3768  -19.6901  -14.0915 O   0  0  0  0  0  0  0  0  0  0  0  0
   20.2329  -25.4201  -15.7366 C   0  0  0  0  0  0  0  0  0  0  0  0
   18.8270  -24.4004  -15.2103 S   0  0  0  0  0  0  0  0  0  0  0  0
   19.4991  -22.8747  -14.5043 C   0  0  0  0  0  0  0  0  0  0  0  0
   20.9477  -22.9937  -14.1485 C   0  0  0  0  0  0  0  0  0  0  0  0
   21.5063  -21.7112  -13.6441 C   0  0  2  0  0  0  0  0  0  0  0  0
   22.9464  -21.8140  -13.4076 N   0  0  0  0  0  0  0  0  0  0  0  0
   20.8817  -21.3324  -12.3686 C   0  0  0  0  0  0  0  0  0  0  0  0
   21.2662  -21.9074  -11.3046 O   0  0  0  0  0  0  0  0  0  0  0  0
   19.8973  -20.3767  -12.2784 O   0  0  0  0  0  0  0  0  0  0  0  0
  1  5  1  0
  1  2  1  0
  2  3  1  0
  4  3  1  0
  5  4  1  0
  5  6  1  1
  7  6  2  0
  8  6  1  0
  9  8  1  0
 10 11  1  0
  9 10  1  1
 11 16  1  0
 11 12  2  0
 12 13  1  0
 13 14  2  0
 15 14  1  0
 16 15  2  0
 17 24  1  0
 17  9  1  0
 18 17  2  0
 20 19  1  0
 21 20  1  0
 22 21  1  0
 23 22  1  1
 23 24  1  0
 25 23  1  0
 26 25  2  0
 27 25  1  0
M  END
$$$$
