SCI.pdb
     RDKit          3D

 21 20  0  0  1  0  0  0  0  0999 V2000
   10.4847  -18.4343   21.6993 O   0  0  0  0  0  0  0  0  0  0  0  0
    9.5345  -17.9538   20.7803 C   0  0  0  0  0  0  0  0  0  0  0  0
    9.7260  -16.4568   20.6918 C   0  0  2  0  0  0  0  0  0  0  0  0
   10.9128  -16.0909   19.9791 N   0  0  0  0  0  0  0  0  0  0  0  0
    9.6530  -15.8394   22.0414 C   0  0  0  0  0  0  0  0  0  0  0  0
   10.6203  -15.2473   22.5785 O   0  0  0  0  0  0  0  0  0  0  0  0
    8.4469  -15.9034   22.7874 N   0  0  0  0  0  0  0  0  0  0  0  0
    8.2513  -15.3794   24.0992 C   0  0  1  0  0  0  0  0  0  0  0  0
    6.8142  -15.2530   24.5090 C   0  0  0  0  0  0  0  0  0  0  0  0
    6.6677  -14.4427   26.1064 S   0  0  0  0  0  0  0  0  0  0  0  0
    9.0036  -16.1524   25.1352 C   0  0  0  0  0  0  0  0  0  0  0  0
    9.1953  -17.3834   24.9964 O   0  0  0  0  0  0  0  0  0  0  0  0
   10.5772  -12.9044   29.4626 C   0  0  0  0  0  0  0  0  0  0  0  0
   10.7457  -13.7472   28.1889 C   0  0  0  0  0  0  0  0  0  0  0  0
   10.4537  -15.1740   28.5222 C   0  0  2  0  0  0  0  0  0  0  0  0
   11.4941  -15.6559   29.4939 C   0  0  0  0  0  0  0  0  0  0  0  0
   10.2524  -16.0497   27.3465 C   0  0  2  0  0  0  0  0  0  0  0  0
    9.4907  -15.4586   26.2714 N   0  0  0  0  0  0  0  0  0  0  0  0
    9.7686  -17.4141   27.6273 C   0  0  0  0  0  0  0  0  0  0  0  0
   10.6709  -18.4429   27.8026 O   0  0  0  0  0  0  0  0  0  0  0  0
    8.5550  -17.7183   27.7245 O   0  0  0  0  0  0  0  0  0  0  0  0
  2  1  1  0
  3  2  1  0
  3  4  1  1
  5  3  1  0
  5  6  2  0
  7  5  1  0
  8  7  1  0
  8 11  1  0
  8  9  1  1
 10  9  1  0
 11 18  1  0
 11 12  2  0
 13 14  1  0
 14 15  1  0
 15 16  1  6
 17 15  1  0
 17 18  1  6
 19 20  1  0
 19 17  1  0
 21 19  2  0
M  END
$$$$
