SCI.pdb
     RDKit          3D

 21 20  0  0  1  0  0  0  0  0999 V2000
   10.2268  -15.1359   18.3698 O   0  0  0  0  0  0  0  0  0  0  0  0
    9.5218  -14.6343   19.4786 C   0  0  0  0  0  0  0  0  0  0  0  0
    8.0891  -15.0948   19.3338 C   0  0  2  0  0  0  0  0  0  0  0  0
    7.3381  -14.2903   18.4177 N   0  0  0  0  0  0  0  0  0  0  0  0
    7.4389  -15.2082   20.6650 C   0  0  0  0  0  0  0  0  0  0  0  0
    6.6899  -14.3209   21.1408 O   0  0  0  0  0  0  0  0  0  0  0  0
    7.6532  -16.3618   21.4641 N   0  0  0  0  0  0  0  0  0  0  0  0
    7.0853  -16.6002   22.7502 C   0  0  1  0  0  0  0  0  0  0  0  0
    6.6680  -18.0205   22.9909 C   0  0  0  0  0  0  0  0  0  0  0  0
    6.1375  -18.2577   24.6914 S   0  0  0  0  0  0  0  0  0  0  0  0
    7.9815  -16.1448   23.8576 C   0  0  0  0  0  0  0  0  0  0  0  0
    9.1871  -16.4871   23.8823 O   0  0  0  0  0  0  0  0  0  0  0  0
    6.0149  -11.6615   26.5742 C   0  0  0  0  0  0  0  0  0  0  0  0
    6.8805  -12.6179   25.7393 C   0  0  0  0  0  0  0  0  0  0  0  0
    7.4982  -13.6221   26.6570 C   0  0  2  0  0  0  0  0  0  0  0  0
    8.3523  -12.8903   27.6539 C   0  0  0  0  0  0  0  0  0  0  0  0
    8.1731  -14.7463   25.9712 C   0  0  2  0  0  0  0  0  0  0  0  0
    7.4330  -15.3204   24.8721 N   0  0  0  0  0  0  0  0  0  0  0  0
    8.7083  -15.8108   26.8400 C   0  0  0  0  0  0  0  0  0  0  0  0
   10.0066  -15.7368   27.3007 O   0  0  0  0  0  0  0  0  0  0  0  0
    8.0462  -16.8120   27.2060 O   0  0  0  0  0  0  0  0  0  0  0  0
  2  1  1  0
  3  2  1  0
  3  4  1  6
  5  3  1  0
  5  6  2  0
  7  5  1  0
  8  7  1  0
  8 11  1  0
  8  9  1  1
 10  9  1  0
 11 18  1  0
 11 12  2  0
 13 14  1  0
 14 15  1  0
 15 16  1  6
 17 15  1  0
 17 18  1  6
 19 20  1  0
 19 17  1  0
 21 19  2  0
M  END
$$$$
