SCI.pdb
     RDKit          3D

 21 20  0  0  1  0  0  0  0  0999 V2000
   11.3212  -18.1938   20.9944 O   0  0  0  0  0  0  0  0  0  0  0  0
   10.0722  -18.8182   20.8261 C   0  0  0  0  0  0  0  0  0  0  0  0
    9.0400  -17.7180   20.7287 C   0  0  2  0  0  0  0  0  0  0  0  0
    9.3794  -16.7238   19.7557 N   0  0  0  0  0  0  0  0  0  0  0  0
    8.7642  -17.1392   22.0691 C   0  0  0  0  0  0  0  0  0  0  0  0
    8.9453  -15.9284   22.3444 O   0  0  0  0  0  0  0  0  0  0  0  0
    8.2716  -17.9666   23.1123 N   0  0  0  0  0  0  0  0  0  0  0  0
    7.9727  -17.5417   24.4403 C   0  0  1  0  0  0  0  0  0  0  0  0
    6.8934  -18.3331   25.1170 C   0  0  0  0  0  0  0  0  0  0  0  0
    7.5797  -19.7483   25.9864 S   0  0  0  0  0  0  0  0  0  0  0  0
    9.1891  -17.5043   25.3096 C   0  0  0  0  0  0  0  0  0  0  0  0
   10.1902  -18.2066   25.0340 O   0  0  0  0  0  0  0  0  0  0  0  0
    9.8798  -13.3282   29.4954 C   0  0  0  0  0  0  0  0  0  0  0  0
    9.4998  -14.7184   28.9625 C   0  0  0  0  0  0  0  0  0  0  0  0
   10.4372  -15.0743   27.8548 C   0  0  2  0  0  0  0  0  0  0  0  0
   10.3536  -14.0053   26.8017 C   0  0  0  0  0  0  0  0  0  0  0  0
   10.2897  -16.4562   27.3468 C   0  0  2  0  0  0  0  0  0  0  0  0
    9.1786  -16.6578   26.4467 N   0  0  0  0  0  0  0  0  0  0  0  0
   10.3308  -17.5287   28.3582 C   0  0  0  0  0  0  0  0  0  0  0  0
    9.2327  -18.3427   28.5445 O   0  0  0  0  0  0  0  0  0  0  0  0
   11.3262  -17.7652   29.0848 O   0  0  0  0  0  0  0  0  0  0  0  0
  2  1  1  0
  3  2  1  0
  3  4  1  6
  5  3  1  0
  5  6  2  0
  7  5  1  0
  8  7  1  0
  8 11  1  0
  8  9  1  1
 10  9  1  0
 11 18  1  0
 11 12  2  0
 13 14  1  0
 14 15  1  0
 15 16  1  6
 17 15  1  0
 17 18  1  1
 19 20  1  0
 19 17  1  0
 21 19  2  0
M  END
$$$$
