SCI.pdb
     RDKit          3D

 21 20  0  0  1  0  0  0  0  0999 V2000
   10.9061  -12.9722   19.0617 O   0  0  0  0  0  0  0  0  0  0  0  0
   10.4399  -14.2990   19.0478 C   0  0  0  0  0  0  0  0  0  0  0  0
    8.9434  -14.2372   18.8418 C   0  0  2  0  0  0  0  0  0  0  0  0
    8.5319  -13.0769   18.1106 N   0  0  0  0  0  0  0  0  0  0  0  0
    8.2306  -14.3824   20.1374 C   0  0  0  0  0  0  0  0  0  0  0  0
    7.5370  -13.4683   20.6454 O   0  0  0  0  0  0  0  0  0  0  0  0
    8.3162  -15.5998   20.8627 N   0  0  0  0  0  0  0  0  0  0  0  0
    7.6743  -15.8743   22.1061 C   0  0  1  0  0  0  0  0  0  0  0  0
    7.5477  -17.3331   22.4304 C   0  0  0  0  0  0  0  0  0  0  0  0
    9.1538  -18.0571   22.7848 S   0  0  0  0  0  0  0  0  0  0  0  0
    8.3240  -15.1598   23.2481 C   0  0  0  0  0  0  0  0  0  0  0  0
    9.5309  -14.8268   23.1866 O   0  0  0  0  0  0  0  0  0  0  0  0
    6.4792  -10.9700   27.1130 C   0  0  0  0  0  0  0  0  0  0  0  0
    7.4276  -12.1782   27.0705 C   0  0  0  0  0  0  0  0  0  0  0  0
    6.9344  -13.1320   26.0316 C   0  0  2  0  0  0  0  0  0  0  0  0
    5.6950  -13.8023   26.5543 C   0  0  0  0  0  0  0  0  0  0  0  0
    7.9648  -14.0569   25.5096 C   0  0  2  0  0  0  0  0  0  0  0  0
    7.5419  -14.8715   24.3948 N   0  0  0  0  0  0  0  0  0  0  0  0
    8.6648  -14.8826   26.5110 C   0  0  0  0  0  0  0  0  0  0  0  0
    8.6186  -16.2586   26.4237 O   0  0  0  0  0  0  0  0  0  0  0  0
    9.3244  -14.4094   27.4680 O   0  0  0  0  0  0  0  0  0  0  0  0
  2  1  1  0
  3  2  1  0
  3  4  1  1
  5  3  1  0
  5  6  2  0
  7  5  1  0
  8  7  1  0
  8 11  1  0
  8  9  1  1
 10  9  1  0
 11 18  1  0
 11 12  2  0
 13 14  1  0
 14 15  1  0
 15 16  1  1
 17 15  1  0
 17 18  1  6
 19 20  1  0
 19 17  1  0
 21 19  2  0
M  END
$$$$
