SCI.pdb
     RDKit          3D

 21 20  0  0  1  0  0  0  0  0999 V2000
    5.6723  -16.3674   18.8876 O   0  0  0  0  0  0  0  0  0  0  0  0
    6.9487  -15.7858   18.9910 C   0  0  0  0  0  0  0  0  0  0  0  0
    7.8825  -16.8615   19.4973 C   0  0  2  0  0  0  0  0  0  0  0  0
    7.8937  -18.0242   18.6615 N   0  0  0  0  0  0  0  0  0  0  0  0
    7.5925  -17.1792   20.9195 C   0  0  0  0  0  0  0  0  0  0  0  0
    6.9538  -18.1979   21.2788 O   0  0  0  0  0  0  0  0  0  0  0  0
    8.0445  -16.3108   21.9476 N   0  0  0  0  0  0  0  0  0  0  0  0
    8.3861  -16.7012   23.2759 C   0  0  1  0  0  0  0  0  0  0  0  0
    9.3316  -17.8625   23.3577 C   0  0  0  0  0  0  0  0  0  0  0  0
    9.5619  -18.3884   25.0607 S   0  0  0  0  0  0  0  0  0  0  0  0
    8.9205  -15.5599   24.0813 C   0  0  0  0  0  0  0  0  0  0  0  0
    9.3404  -14.5232   23.5155 O   0  0  0  0  0  0  0  0  0  0  0  0
    6.3035  -12.1187   25.2940 C   0  0  0  0  0  0  0  0  0  0  0  0
    7.5508  -13.0016   25.1333 C   0  0  0  0  0  0  0  0  0  0  0  0
    7.8050  -13.7035   26.4275 C   0  0  2  0  0  0  0  0  0  0  0  0
    7.7766  -12.6848   27.5323 C   0  0  0  0  0  0  0  0  0  0  0  0
    8.9964  -14.5811   26.4256 C   0  0  2  0  0  0  0  0  0  0  0  0
    8.9388  -15.6825   25.4935 N   0  0  0  0  0  0  0  0  0  0  0  0
    9.4608  -15.0497   27.7445 C   0  0  0  0  0  0  0  0  0  0  0  0
    9.2606  -16.3622   28.1192 O   0  0  0  0  0  0  0  0  0  0  0  0
   10.0474  -14.3181   28.5784 O   0  0  0  0  0  0  0  0  0  0  0  0
  2  1  1  0
  3  2  1  0
  3  4  1  6
  5  3  1  0
  5  6  2  0
  7  5  1  0
  8  7  1  0
  8 11  1  0
  8  9  1  6
 10  9  1  0
 11 18  1  0
 11 12  2  0
 13 14  1  0
 14 15  1  0
 15 16  1  1
 17 15  1  0
 17 18  1  6
 19 20  1  0
 19 17  1  0
 21 19  2  0
M  END
$$$$
