SCI.pdb
     RDKit          3D

 21 20  0  0  1  0  0  0  0  0999 V2000
    8.7457  -19.4903   18.8080 O   0  0  0  0  0  0  0  0  0  0  0  0
    8.2670  -18.4712   17.9652 C   0  0  0  0  0  0  0  0  0  0  0  0
    8.3569  -17.1783   18.7437 C   0  0  2  0  0  0  0  0  0  0  0  0
    9.7058  -16.8093   19.0517 N   0  0  0  0  0  0  0  0  0  0  0  0
    7.4867  -17.2305   19.9468 C   0  0  0  0  0  0  0  0  0  0  0  0
    6.3732  -17.8088   19.9640 O   0  0  0  0  0  0  0  0  0  0  0  0
    7.9033  -16.6069   21.1523 N   0  0  0  0  0  0  0  0  0  0  0  0
    7.2357  -16.6967   22.4092 C   0  0  1  0  0  0  0  0  0  0  0  0
    6.8856  -18.0937   22.8276 C   0  0  0  0  0  0  0  0  0  0  0  0
    6.1139  -18.1069   24.4505 S   0  0  0  0  0  0  0  0  0  0  0  0
    7.9974  -16.0198   23.5039 C   0  0  0  0  0  0  0  0  0  0  0  0
    9.2283  -16.2152   23.6379 O   0  0  0  0  0  0  0  0  0  0  0  0
    6.7824  -11.0464   27.0412 C   0  0  0  0  0  0  0  0  0  0  0  0
    7.7805  -12.1472   26.6501 C   0  0  0  0  0  0  0  0  0  0  0  0
    7.1029  -13.0897   25.7095 C   0  0  2  0  0  0  0  0  0  0  0  0
    5.7283  -13.3831   26.2416 C   0  0  0  0  0  0  0  0  0  0  0  0
    7.8998  -14.2866   25.3604 C   0  0  2  0  0  0  0  0  0  0  0  0
    7.2930  -15.1564   24.3803 N   0  0  0  0  0  0  0  0  0  0  0  0
    8.4194  -15.0749   26.4932 C   0  0  0  0  0  0  0  0  0  0  0  0
    9.4703  -14.5913   27.2448 O   0  0  0  0  0  0  0  0  0  0  0  0
    7.9583  -16.1901   26.8374 O   0  0  0  0  0  0  0  0  0  0  0  0
  2  1  1  0
  3  2  1  0
  3  4  1  1
  5  3  1  0
  5  6  2  0
  7  5  1  0
  8  7  1  0
  8 11  1  0
  8  9  1  1
 10  9  1  0
 11 18  1  0
 11 12  2  0
 13 14  1  0
 14 15  1  0
 15 16  1  1
 17 15  1  0
 17 18  1  6
 19 20  1  0
 19 17  1  0
 21 19  2  0
M  END
$$$$
