MSC.pdb
     RDKit          3D

 21 20  0  0  1  0  0  0  0  0999 V2000
   12.1151  -13.3898   -9.8889 C   0  0  0  0  0  0  0  0  0  0  0  0
   11.4683  -13.3218  -11.5705 S   0  0  0  0  0  0  0  0  0  0  0  0
   12.7735  -12.9313  -12.7446 C   0  0  0  0  0  0  0  0  0  0  0  0
   13.8091  -12.0005  -12.1567 C   0  0  0  0  0  0  0  0  0  0  0  0
   14.9622  -11.7457  -13.1027 C   0  0  2  0  0  0  0  0  0  0  0  0
   15.8366  -12.8868  -13.2212 N   0  0  0  0  0  0  0  0  0  0  0  0
   15.6753  -10.5470  -12.5908 C   0  0  0  0  0  0  0  0  0  0  0  0
   16.3515  -10.7034  -11.5426 O   0  0  0  0  0  0  0  0  0  0  0  0
   17.0459   -5.9492  -13.5201 O   0  0  0  0  0  0  0  0  0  0  0  0
   16.4313   -7.1341  -13.8679 C   0  0  0  0  0  0  0  0  0  0  0  0
   16.3153   -8.1118  -12.7331 C   0  0  2  0  0  0  0  0  0  0  0  0
   15.6149   -9.2819  -13.2289 N   0  0  0  0  0  0  0  0  0  0  0  0
   15.6121   -7.4955  -11.5890 C   0  0  0  0  0  0  0  0  0  0  0  0
   14.3547   -7.5064  -11.5991 O   0  0  0  0  0  0  0  0  0  0  0  0
   16.2644   -6.8958  -10.4852 N   0  0  0  0  0  0  0  0  0  0  0  0
   15.5175   -6.3401   -9.3615 C   0  0  1  0  0  0  0  0  0  0  0  0
   16.1368   -6.7467   -8.0428 C   0  0  0  0  0  0  0  0  0  0  0  0
   15.2855   -5.9259   -6.6933 S   0  0  0  0  0  0  0  0  0  0  0  0
   15.5190   -4.8644   -9.5213 C   0  0  0  0  0  0  0  0  0  0  0  0
   14.4439   -4.0808   -9.1060 O   0  0  0  0  0  0  0  0  0  0  0  0
   16.4944   -4.2647  -10.0394 O   0  0  0  0  0  0  0  0  0  0  0  0
  2  1  1  0
  3  4  1  0
  3  2  1  0
  4  5  1  0
  5  7  1  0
  5  6  1  1
  7 12  1  0
  7  8  2  0
  9 10  1  0
 11 10  1  6
 11 13  1  0
 12 11  1  0
 13 15  1  0
 13 14  2  0
 15 16  1  0
 16 19  1  0
 16 17  1  1
 18 17  1  0
 19 20  1  0
 21 19  2  0
M  END
$$$$
