MSC.pdb
     RDKit          3D

 21 20  0  0  1  0  0  0  0  0999 V2000
   30.4720  -21.9601  -11.1841 C   0  0  0  0  0  0  0  0  0  0  0  0
   29.3587  -21.1299  -10.0342 S   0  0  0  0  0  0  0  0  0  0  0  0
   27.8326  -22.0604   -9.8341 C   0  0  0  0  0  0  0  0  0  0  0  0
   26.8157  -21.7238  -10.9004 C   0  0  0  0  0  0  0  0  0  0  0  0
   26.2881  -20.3114  -10.7722 C   0  0  2  0  0  0  0  0  0  0  0  0
   25.1247  -20.2358   -9.9230 N   0  0  0  0  0  0  0  0  0  0  0  0
   26.0044  -19.8367  -12.1511 C   0  0  0  0  0  0  0  0  0  0  0  0
   24.8046  -19.8842  -12.5235 O   0  0  0  0  0  0  0  0  0  0  0  0
   29.0872  -19.2271  -14.9103 O   0  0  0  0  0  0  0  0  0  0  0  0
   28.0138  -18.3616  -14.9479 C   0  0  0  0  0  0  0  0  0  0  0  0
   26.7464  -18.9445  -14.3902 C   0  0  2  0  0  0  0  0  0  0  0  0
   27.0121  -19.3509  -13.0228 N   0  0  0  0  0  0  0  0  0  0  0  0
   26.2892  -20.0782  -15.2203 C   0  0  0  0  0  0  0  0  0  0  0  0
   26.6603  -21.2334  -14.8902 O   0  0  0  0  0  0  0  0  0  0  0  0
   25.4612  -19.9448  -16.3606 N   0  0  0  0  0  0  0  0  0  0  0  0
   24.6418  -21.0495  -16.8476 C   0  0  1  0  0  0  0  0  0  0  0  0
   23.5424  -21.3856  -15.8646 C   0  0  0  0  0  0  0  0  0  0  0  0
   22.5090  -22.6916  -16.5323 S   0  0  0  0  0  0  0  0  0  0  0  0
   24.0803  -20.6344  -18.1574 C   0  0  0  0  0  0  0  0  0  0  0  0
   23.7951  -21.5600  -19.1595 O   0  0  0  0  0  0  0  0  0  0  0  0
   23.8404  -19.4273  -18.4120 O   0  0  0  0  0  0  0  0  0  0  0  0
  2  1  1  0
  3  4  1  0
  3  2  1  0
  4  5  1  0
  5  7  1  0
  5  6  1  1
  7 12  1  0
  7  8  2  0
  9 10  1  0
 11 10  1  6
 11 13  1  0
 12 11  1  0
 13 15  1  0
 13 14  2  0
 15 16  1  0
 16 19  1  0
 16 17  1  1
 18 17  1  0
 19 20  1  0
 21 19  2  0
M  END
$$$$
