MSC.pdb
     RDKit          3D

 21 20  0  0  1  0  0  0  0  0999 V2000
   16.1141  -24.1289   -0.9619 C   0  0  0  0  0  0  0  0  0  0  0  0
   14.9285  -25.4759   -1.1370 S   0  0  0  0  0  0  0  0  0  0  0  0
   15.7004  -26.9165   -1.8878 C   0  0  0  0  0  0  0  0  0  0  0  0
   16.7729  -26.5350   -2.8823 C   0  0  0  0  0  0  0  0  0  0  0  0
   17.5174  -27.7372   -3.4206 C   0  0  2  0  0  0  0  0  0  0  0  0
   18.4182  -28.3051   -2.4475 N   0  0  0  0  0  0  0  0  0  0  0  0
   18.2300  -27.2838   -4.6429 C   0  0  0  0  0  0  0  0  0  0  0  0
   19.4175  -26.9009   -4.4887 O   0  0  0  0  0  0  0  0  0  0  0  0
   16.6927  -28.1153   -8.4209 O   0  0  0  0  0  0  0  0  0  0  0  0
   18.0409  -27.9624   -8.1727 C   0  0  0  0  0  0  0  0  0  0  0  0
   18.3512  -26.9207   -7.1356 C   0  0  2  0  0  0  0  0  0  0  0  0
   17.6287  -27.2723   -5.9273 N   0  0  0  0  0  0  0  0  0  0  0  0
   17.9801  -25.5767   -7.6250 C   0  0  0  0  0  0  0  0  0  0  0  0
   16.8917  -25.0883   -7.2276 O   0  0  0  0  0  0  0  0  0  0  0  0
   18.7721  -24.8071   -8.5104 N   0  0  0  0  0  0  0  0  0  0  0  0
   18.2686  -23.5821   -9.1229 C   0  0  1  0  0  0  0  0  0  0  0  0
   19.3482  -22.8931   -9.9276 C   0  0  0  0  0  0  0  0  0  0  0  0
   18.7105  -21.3632  -10.6148 S   0  0  0  0  0  0  0  0  0  0  0  0
   17.1200  -23.9621   -9.9828 C   0  0  0  0  0  0  0  0  0  0  0  0
   16.0100  -23.1328  -10.1322 O   0  0  0  0  0  0  0  0  0  0  0  0
   17.1064  -25.0507  -10.6106 O   0  0  0  0  0  0  0  0  0  0  0  0
  2  1  1  0
  3  4  1  0
  3  2  1  0
  4  5  1  0
  5  7  1  0
  5  6  1  1
  7 12  1  0
  7  8  2  0
  9 10  1  0
 11 10  1  6
 11 13  1  0
 12 11  1  0
 13 15  1  0
 13 14  2  0
 15 16  1  0
 16 19  1  0
 16 17  1  6
 18 17  1  0
 19 20  1  0
 21 19  2  0
M  END
$$$$
