PTQ.pdb
     RDKit          3D

 24 24  0  0  1  0  0  0  0  0999 V2000
    8.9993  -13.7290   17.6113 N   0  0  0  0  0  0  0  0  0  0  0  0
    7.7818  -13.8689   16.8806 C   0  0  0  0  0  0  0  0  0  0  0  0
    6.8927  -12.8202   17.5674 C   0  0  0  0  0  0  0  0  0  0  0  0
    7.2164  -13.1530   19.0287 C   0  0  0  0  0  0  0  0  0  0  0  0
    8.6671  -13.5799   18.9827 C   0  0  1  0  0  0  0  0  0  0  0  0
    8.9534  -14.7234   19.8463 C   0  0  0  0  0  0  0  0  0  0  0  0
    8.4844  -14.6688   21.0350 O   0  0  0  0  0  0  0  0  0  0  0  0
    9.3684  -18.5966   18.7492 C   0  0  0  0  0  0  0  0  0  0  0  0
   10.4273  -18.2249   19.7980 C   0  0  1  0  0  0  0  0  0  0  0  0
   11.5774  -17.9331   19.0396 O   0  0  0  0  0  0  0  0  0  0  0  0
    9.9703  -16.9530   20.4271 C   0  0  2  0  0  0  0  0  0  0  0  0
    9.6842  -15.8791   19.5279 N   0  0  0  0  0  0  0  0  0  0  0  0
   10.9624  -16.5060   21.4349 C   0  0  0  0  0  0  0  0  0  0  0  0
   11.8363  -15.6346   21.1742 O   0  0  0  0  0  0  0  0  0  0  0  0
   11.6277  -19.5515   27.1333 N   0  0  0  0  0  0  0  0  0  0  0  0
   11.9833  -18.1903   27.3101 C   0  0  0  0  0  0  0  0  0  0  0  0
   11.9406  -17.6999   28.4619 O   0  0  0  0  0  0  0  0  0  0  0  0
   12.4080  -17.3097   26.1854 C   0  0  0  0  0  0  0  0  0  0  0  0
   11.5097  -17.5056   25.0174 C   0  0  0  0  0  0  0  0  0  0  0  0
   11.9005  -16.7926   23.7723 C   0  0  2  0  0  0  0  0  0  0  0  0
   10.9200  -17.0817   22.7279 N   0  0  0  0  0  0  0  0  0  0  0  0
   13.2620  -17.0891   23.2779 C   0  0  0  0  0  0  0  0  0  0  0  0
   14.2509  -16.3676   23.5554 O   0  0  0  0  0  0  0  0  0  0  0  0
   13.4622  -18.1983   22.4826 O   0  0  0  0  0  0  0  0  0  0  0  0
  1  2  1  0
  3  2  1  0
  4  5  1  0
  4  3  1  0
  5  1  1  0
  5  6  1  1
  7  6  2  0
  9  8  1  6
  9 11  1  0
 10  9  1  0
 11 13  1  0
 11 12  1  6
 12  6  1  0
 13 21  1  0
 14 13  2  0
 16 15  1  0
 17 16  2  0
 18 16  1  0
 19 18  1  0
 20 19  1  1
 21 20  1  0
 22 24  1  0
 22 20  1  0
 23 22  2  0
M  END
$$$$
