PTQ.pdb
     RDKit          3D

 24 24  0  0  1  0  0  0  0  0999 V2000
    8.7470  -14.7951   18.2683 N   0  0  0  0  0  0  0  0  0  0  0  0
    7.5970  -14.3384   17.5578 C   0  0  0  0  0  0  0  0  0  0  0  0
    7.6036  -12.8400   17.8996 C   0  0  0  0  0  0  0  0  0  0  0  0
    7.8630  -12.9403   19.4074 C   0  0  0  0  0  0  0  0  0  0  0  0
    8.7577  -14.1537   19.5340 C   0  0  1  0  0  0  0  0  0  0  0  0
    8.4268  -14.9894   20.6861 C   0  0  0  0  0  0  0  0  0  0  0  0
    7.2674  -14.8175   21.1981 O   0  0  0  0  0  0  0  0  0  0  0  0
    9.1886  -18.7796   21.3670 C   0  0  0  0  0  0  0  0  0  0  0  0
    9.5157  -18.0133   22.6574 C   0  0  1  0  0  0  0  0  0  0  0  0
   10.9151  -17.8597   22.6228 O   0  0  0  0  0  0  0  0  0  0  0  0
    8.9119  -16.6585   22.5085 C   0  0  2  0  0  0  0  0  0  0  0  0
    9.2310  -15.9618   21.3017 N   0  0  0  0  0  0  0  0  0  0  0  0
    9.2697  -15.8178   23.6769 C   0  0  0  0  0  0  0  0  0  0  0  0
   10.2008  -14.9682   23.6309 O   0  0  0  0  0  0  0  0  0  0  0  0
    5.7672  -12.1419   25.9643 N   0  0  0  0  0  0  0  0  0  0  0  0
    6.5481  -12.2582   27.1422 C   0  0  0  0  0  0  0  0  0  0  0  0
    6.5022  -11.3373   27.9901 O   0  0  0  0  0  0  0  0  0  0  0  0
    7.4257  -13.4296   27.4217 C   0  0  0  0  0  0  0  0  0  0  0  0
    7.4378  -14.3480   26.2530 C   0  0  0  0  0  0  0  0  0  0  0  0
    8.6951  -15.1137   26.0432 C   0  0  2  0  0  0  0  0  0  0  0  0
    8.5377  -15.9815   24.8780 N   0  0  0  0  0  0  0  0  0  0  0  0
    9.1485  -15.9099   27.2038 C   0  0  0  0  0  0  0  0  0  0  0  0
    9.5115  -15.3806   28.2825 O   0  0  0  0  0  0  0  0  0  0  0  0
    9.1756  -17.2855   27.1065 O   0  0  0  0  0  0  0  0  0  0  0  0
  1  2  1  0
  3  2  1  0
  4  5  1  0
  4  3  1  0
  5  1  1  0
  5  6  1  1
  7  6  2  0
  9  8  1  6
  9 11  1  0
 10  9  1  0
 11 13  1  0
 11 12  1  6
 12  6  1  0
 13 21  1  0
 14 13  2  0
 16 15  1  0
 17 16  2  0
 18 16  1  0
 19 18  1  0
 20 19  1  1
 21 20  1  0
 22 24  1  0
 22 20  1  0
 23 22  2  0
M  END
$$$$
