PTQ.pdb
     RDKit          3D

 24 24  0  0  1  0  0  0  0  0999 V2000
    9.1986  -14.2429   18.3107 N   0  0  0  0  0  0  0  0  0  0  0  0
    8.0319  -14.2709   17.4898 C   0  0  0  0  0  0  0  0  0  0  0  0
    7.3862  -12.9191   17.8329 C   0  0  0  0  0  0  0  0  0  0  0  0
    7.5268  -12.9679   19.3589 C   0  0  0  0  0  0  0  0  0  0  0  0
    8.8285  -13.7088   19.5721 C   0  0  1  0  0  0  0  0  0  0  0  0
    8.7713  -14.6551   20.6842 C   0  0  0  0  0  0  0  0  0  0  0  0
    8.3993  -14.1828   21.8131 O   0  0  0  0  0  0  0  0  0  0  0  0
    8.3295  -18.7236   20.3632 C   0  0  0  0  0  0  0  0  0  0  0  0
    9.2805  -18.3432   21.5079 C   0  0  1  0  0  0  0  0  0  0  0  0
   10.5651  -18.4560   20.9419 O   0  0  0  0  0  0  0  0  0  0  0  0
    9.0414  -16.8998   21.7936 C   0  0  2  0  0  0  0  0  0  0  0  0
    9.0768  -16.0253   20.6633 N   0  0  0  0  0  0  0  0  0  0  0  0
   10.0015  -16.4249   22.8195 C   0  0  0  0  0  0  0  0  0  0  0  0
   11.0348  -15.7678   22.5168 O   0  0  0  0  0  0  0  0  0  0  0  0
    8.4222  -13.4883   27.6450 N   0  0  0  0  0  0  0  0  0  0  0  0
    9.6628  -13.9633   28.1409 C   0  0  0  0  0  0  0  0  0  0  0  0
   10.0549  -13.5692   29.2634 O   0  0  0  0  0  0  0  0  0  0  0  0
   10.5277  -14.9142   27.3870 C   0  0  0  0  0  0  0  0  0  0  0  0
    9.8635  -15.3110   26.1178 C   0  0  0  0  0  0  0  0  0  0  0  0
   10.6024  -16.2912   25.2784 C   0  0  2  0  0  0  0  0  0  0  0  0
    9.7422  -16.7237   24.1791 N   0  0  0  0  0  0  0  0  0  0  0  0
   11.1246  -17.4711   26.0006 C   0  0  0  0  0  0  0  0  0  0  0  0
   12.1312  -17.4116   26.7479 O   0  0  0  0  0  0  0  0  0  0  0  0
   10.4873  -18.6857   25.8543 O   0  0  0  0  0  0  0  0  0  0  0  0
  1  2  1  0
  3  2  1  0
  4  5  1  0
  4  3  1  0
  5  1  1  0
  5  6  1  1
  7  6  2  0
  9  8  1  6
  9 11  1  0
 10  9  1  0
 11 13  1  0
 11 12  1  6
 12  6  1  0
 13 21  1  0
 14 13  2  0
 16 15  1  0
 17 16  2  0
 18 16  1  0
 19 18  1  0
 20 19  1  1
 21 20  1  0
 22 24  1  0
 22 20  1  0
 23 22  2  0
M  END
$$$$
