PTQ.pdb
     RDKit          3D

 24 24  0  0  1  0  0  0  0  0999 V2000
    9.5230  -14.1318   18.6863 N   0  0  0  0  0  0  0  0  0  0  0  0
    8.4993  -14.2469   17.6990 C   0  0  0  0  0  0  0  0  0  0  0  0
    7.6538  -12.9971   17.9906 C   0  0  0  0  0  0  0  0  0  0  0  0
    7.5766  -13.1121   19.5176 C   0  0  0  0  0  0  0  0  0  0  0  0
    8.9129  -13.7119   19.8966 C   0  0  1  0  0  0  0  0  0  0  0  0
    8.8087  -14.7172   20.9520 C   0  0  0  0  0  0  0  0  0  0  0  0
    8.1166  -14.3940   21.9778 O   0  0  0  0  0  0  0  0  0  0  0  0
    8.5586  -18.6662   20.5783 C   0  0  0  0  0  0  0  0  0  0  0  0
    9.5188  -18.3519   21.7353 C   0  0  1  0  0  0  0  0  0  0  0  0
   10.8002  -18.4767   21.1646 O   0  0  0  0  0  0  0  0  0  0  0  0
    9.3164  -16.9142   22.0734 C   0  0  2  0  0  0  0  0  0  0  0  0
    9.3790  -15.9999   20.9763 N   0  0  0  0  0  0  0  0  0  0  0  0
   10.2847  -16.5028   23.1188 C   0  0  0  0  0  0  0  0  0  0  0  0
   11.2124  -15.6804   22.8864 O   0  0  0  0  0  0  0  0  0  0  0  0
    8.6562  -14.6575   28.7841 N   0  0  0  0  0  0  0  0  0  0  0  0
    9.9453  -14.2572   28.3499 C   0  0  0  0  0  0  0  0  0  0  0  0
   10.3360  -13.0957   28.6094 O   0  0  0  0  0  0  0  0  0  0  0  0
   10.8632  -15.1566   27.5954 C   0  0  0  0  0  0  0  0  0  0  0  0
   10.1923  -15.6548   26.3661 C   0  0  0  0  0  0  0  0  0  0  0  0
   10.9656  -16.6339   25.5570 C   0  0  2  0  0  0  0  0  0  0  0  0
   10.1563  -17.0563   24.4158 N   0  0  0  0  0  0  0  0  0  0  0  0
   11.4477  -17.8202   26.2963 C   0  0  0  0  0  0  0  0  0  0  0  0
   12.4467  -17.7801   27.0552 O   0  0  0  0  0  0  0  0  0  0  0  0
   10.7804  -19.0189   26.1535 O   0  0  0  0  0  0  0  0  0  0  0  0
  1  2  1  0
  3  2  1  0
  4  5  1  0
  4  3  1  0
  5  1  1  0
  5  6  1  1
  7  6  2  0
  9  8  1  6
  9 11  1  0
 10  9  1  0
 11 13  1  0
 11 12  1  6
 12  6  1  0
 13 21  1  0
 14 13  2  0
 16 15  1  0
 17 16  2  0
 18 16  1  0
 19 18  1  0
 20 19  1  1
 21 20  1  0
 22 24  1  0
 22 20  1  0
 23 22  2  0
M  END
$$$$
