PTQ.pdb
     RDKit          3D

 24 24  0  0  1  0  0  0  0  0999 V2000
    8.5601  -17.3542   16.4907 N   0  0  0  0  0  0  0  0  0  0  0  0
    9.3662  -18.4642   16.0985 C   0  0  0  0  0  0  0  0  0  0  0  0
    8.5367  -19.6446   16.6280 C   0  0  0  0  0  0  0  0  0  0  0  0
    8.2101  -19.0999   18.0235 C   0  0  0  0  0  0  0  0  0  0  0  0
    8.0792  -17.6091   17.8011 C   0  0  1  0  0  0  0  0  0  0  0  0
    8.6753  -16.8173   18.8750 C   0  0  0  0  0  0  0  0  0  0  0  0
    9.9199  -16.5471   18.7577 O   0  0  0  0  0  0  0  0  0  0  0  0
    7.0029  -13.7581   20.8315 C   0  0  0  0  0  0  0  0  0  0  0  0
    7.7547  -14.6489   21.8319 C   0  0  1  0  0  0  0  0  0  0  0  0
    6.7554  -15.4809   22.3727 O   0  0  0  0  0  0  0  0  0  0  0  0
    8.6680  -15.5097   21.0273 C   0  0  2  0  0  0  0  0  0  0  0  0
    8.0445  -16.3155   20.0245 N   0  0  0  0  0  0  0  0  0  0  0  0
    9.4703  -16.3716   21.9292 C   0  0  0  0  0  0  0  0  0  0  0  0
    9.2538  -17.6092   22.0407 O   0  0  0  0  0  0  0  0  0  0  0  0
   16.2127  -16.0209   24.0473 N   0  0  0  0  0  0  0  0  0  0  0  0
   15.0118  -16.6943   23.7080 C   0  0  0  0  0  0  0  0  0  0  0  0
   15.0105  -17.4658   22.7212 O   0  0  0  0  0  0  0  0  0  0  0  0
   13.7439  -16.5277   24.4730 C   0  0  0  0  0  0  0  0  0  0  0  0
   12.7189  -15.8667   23.6234 C   0  0  0  0  0  0  0  0  0  0  0  0
   11.3885  -16.5293   23.5787 C   0  0  2  0  0  0  0  0  0  0  0  0
   10.5096  -15.7775   22.6854 N   0  0  0  0  0  0  0  0  0  0  0  0
   10.7320  -16.7125   24.8909 C   0  0  0  0  0  0  0  0  0  0  0  0
    9.9457  -15.8620   25.3746 O   0  0  0  0  0  0  0  0  0  0  0  0
   10.9864  -17.8577   25.6163 O   0  0  0  0  0  0  0  0  0  0  0  0
  1  2  1  0
  3  2  1  0
  4  5  1  0
  4  3  1  0
  5  1  1  0
  5  6  1  1
  7  6  2  0
  9  8  1  6
  9 11  1  0
 10  9  1  0
 11 13  1  0
 11 12  1  6
 12  6  1  0
 13 21  1  0
 14 13  2  0
 16 15  1  0
 17 16  2  0
 18 16  1  0
 19 18  1  0
 20 19  1  1
 21 20  1  0
 22 24  1  0
 22 20  1  0
 23 22  2  0
M  END
$$$$
