PTQ.pdb
     RDKit          3D

 24 24  0  0  1  0  0  0  0  0999 V2000
    9.1653  -14.3483   19.5386 N   0  0  0  0  0  0  0  0  0  0  0  0
    8.1805  -14.3916   18.5070 C   0  0  0  0  0  0  0  0  0  0  0  0
    7.5531  -12.9937   18.6265 C   0  0  0  0  0  0  0  0  0  0  0  0
    7.3918  -12.9341   20.1501 C   0  0  0  0  0  0  0  0  0  0  0  0
    8.5860  -13.7075   20.6643 C   0  0  1  0  0  0  0  0  0  0  0  0
    8.2637  -14.5652   21.8026 C   0  0  0  0  0  0  0  0  0  0  0  0
    7.6306  -14.0140   22.7677 O   0  0  0  0  0  0  0  0  0  0  0  0
    6.5504  -17.9722   22.0343 C   0  0  0  0  0  0  0  0  0  0  0  0
    7.8133  -18.0914   22.9005 C   0  0  1  0  0  0  0  0  0  0  0  0
    8.7486  -18.7281   22.0620 O   0  0  0  0  0  0  0  0  0  0  0  0
    8.2962  -16.7010   23.1367 C   0  0  2  0  0  0  0  0  0  0  0  0
    8.5663  -15.9264   21.9659 N   0  0  0  0  0  0  0  0  0  0  0  0
    9.4996  -16.7274   24.0033 C   0  0  0  0  0  0  0  0  0  0  0  0
   10.6605  -16.5489   23.5434 O   0  0  0  0  0  0  0  0  0  0  0  0
    9.0297  -14.3725   29.2591 N   0  0  0  0  0  0  0  0  0  0  0  0
    9.8408  -13.8528   28.2185 C   0  0  0  0  0  0  0  0  0  0  0  0
    9.9838  -12.6117   28.1272 O   0  0  0  0  0  0  0  0  0  0  0  0
   10.5354  -14.7166   27.2225 C   0  0  0  0  0  0  0  0  0  0  0  0
   10.2084  -16.1452   27.4706 C   0  0  0  0  0  0  0  0  0  0  0  0
   10.4426  -17.0713   26.3309 C   0  0  2  0  0  0  0  0  0  0  0  0
    9.3303  -16.9617   25.3895 N   0  0  0  0  0  0  0  0  0  0  0  0
   10.6475  -18.4877   26.7025 C   0  0  0  0  0  0  0  0  0  0  0  0
    9.7630  -19.3623   26.5345 O   0  0  0  0  0  0  0  0  0  0  0  0
   11.8525  -18.8710   27.2536 O   0  0  0  0  0  0  0  0  0  0  0  0
  1  2  1  0
  3  2  1  0
  4  5  1  0
  4  3  1  0
  5  1  1  0
  5  6  1  1
  7  6  2  0
  9  8  1  6
  9 11  1  0
 10  9  1  0
 11 13  1  0
 11 12  1  6
 12  6  1  0
 13 21  1  0
 14 13  2  0
 16 15  1  0
 17 16  2  0
 18 16  1  0
 19 18  1  0
 20 19  1  1
 21 20  1  0
 22 24  1  0
 22 20  1  0
 23 22  2  0
M  END
$$$$
