CIS.pdb
     RDKit          3D

 21 20  0  0  1  0  0  0  0  0999 V2000
   32.2796  -12.1287  -18.0550 N   0  0  0  0  0  0  0  0  0  0  0  0
   33.5201  -11.4199  -18.0987 C   0  0  1  0  0  0  0  0  0  0  0  0
   33.6839  -10.6664  -19.4140 C   0  0  0  0  0  0  0  0  0  0  0  0
   33.6156  -11.8107  -20.8177 S   0  0  0  0  0  0  0  0  0  0  0  0
   33.6857  -10.4926  -16.9441 C   0  0  0  0  0  0  0  0  0  0  0  0
   32.6827  -10.0064  -16.3623 O   0  0  0  0  0  0  0  0  0  0  0  0
   37.1329  -11.6533  -12.9707 C   0  0  0  0  0  0  0  0  0  0  0  0
   35.9410  -11.2330  -13.8128 C   0  0  0  0  0  0  0  0  0  0  0  0
   36.2125   -9.8661  -14.3386 C   0  0  2  0  0  0  0  0  0  0  0  0
   36.3381   -8.9235  -13.1589 C   0  0  0  0  0  0  0  0  0  0  0  0
   35.1328   -9.3268  -15.2332 C   0  0  2  0  0  0  0  0  0  0  0  0
   34.9622  -10.1092  -16.4406 N   0  0  0  0  0  0  0  0  0  0  0  0
   35.3646   -7.9137  -15.6237 C   0  0  0  0  0  0  0  0  0  0  0  0
   36.4228   -7.5575  -16.2076 O   0  0  0  0  0  0  0  0  0  0  0  0
   32.3833   -5.1497  -14.9572 O   0  0  0  0  0  0  0  0  0  0  0  0
   33.2432   -4.8889  -16.0031 C   0  0  0  0  0  0  0  0  0  0  0  0
   34.6234   -5.5040  -15.7523 C   0  0  2  0  0  0  0  0  0  0  0  0
   34.4168   -6.8840  -15.3659 N   0  0  0  0  0  0  0  0  0  0  0  0
   35.3689   -4.7398  -14.7307 C   0  0  0  0  0  0  0  0  0  0  0  0
   35.9095   -3.5015  -15.0002 O   0  0  0  0  0  0  0  0  0  0  0  0
   35.5178   -5.2226  -13.5883 O   0  0  0  0  0  0  0  0  0  0  0  0
  2  1  1  6
  3  2  1  0
  4  3  1  0
  5  2  1  0
  6  5  2  0
  7  8  1  0
  8  9  1  0
  9 11  1  0
  9 10  1  1
 11 13  1  0
 11 12  1  6
 12  5  1  0
 13 18  1  0
 14 13  2  0
 15 16  1  0
 17 19  1  0
 17 16  1  1
 18 17  1  0
 19 21  2  0
 19 20  1  0
M  END
$$$$
