CIS.pdb
     RDKit          3D

 21 20  0  0  1  0  0  0  0  0999 V2000
   17.7571  -11.6331  -18.0164 N   0  0  0  0  0  0  0  0  0  0  0  0
   18.7640  -10.6686  -18.3308 C   0  0  1  0  0  0  0  0  0  0  0  0
   18.1849   -9.4955  -19.1138 C   0  0  0  0  0  0  0  0  0  0  0  0
   17.7814   -9.9961  -20.8081 S   0  0  0  0  0  0  0  0  0  0  0  0
   19.4824  -10.1814  -17.1197 C   0  0  0  0  0  0  0  0  0  0  0  0
   18.8640   -9.9825  -16.0432 O   0  0  0  0  0  0  0  0  0  0  0  0
   23.8060  -12.5727  -15.2653 C   0  0  0  0  0  0  0  0  0  0  0  0
   22.4928  -11.8279  -15.4300 C   0  0  0  0  0  0  0  0  0  0  0  0
   22.8085  -10.3900  -15.6563 C   0  0  2  0  0  0  0  0  0  0  0  0
   23.4916   -9.8560  -14.4137 C   0  0  0  0  0  0  0  0  0  0  0  0
   21.6036   -9.5300  -15.9128 C   0  0  2  0  0  0  0  0  0  0  0  0
   20.8824   -9.9175  -17.1082 N   0  0  0  0  0  0  0  0  0  0  0  0
   21.9406   -8.0884  -16.0198 C   0  0  0  0  0  0  0  0  0  0  0  0
   22.7700   -7.6679  -16.8699 O   0  0  0  0  0  0  0  0  0  0  0  0
   19.4147   -5.1892  -14.7261 O   0  0  0  0  0  0  0  0  0  0  0  0
   20.4370   -4.9265  -15.6132 C   0  0  0  0  0  0  0  0  0  0  0  0
   21.7062   -5.6988  -15.2406 C   0  0  2  0  0  0  0  0  0  0  0  0
   21.3545   -7.1019  -15.1781 N   0  0  0  0  0  0  0  0  0  0  0  0
   22.2758   -5.2049  -13.9698 C   0  0  0  0  0  0  0  0  0  0  0  0
   22.8179   -3.9432  -13.8580 O   0  0  0  0  0  0  0  0  0  0  0  0
   22.2697   -5.9455  -12.9639 O   0  0  0  0  0  0  0  0  0  0  0  0
  2  1  1  1
  3  2  1  0
  4  3  1  0
  5  2  1  0
  6  5  2  0
  7  8  1  0
  8  9  1  0
  9 11  1  0
  9 10  1  1
 11 13  1  0
 11 12  1  6
 12  5  1  0
 13 18  1  0
 14 13  2  0
 15 16  1  0
 17 19  1  0
 17 16  1  1
 18 17  1  0
 19 21  2  0
 19 20  1  0
M  END
$$$$
