CIS.pdb
     RDKit          3D

 21 20  0  0  1  0  0  0  0  0999 V2000
   20.3434  -14.6281  -18.6720 N   0  0  0  0  0  0  0  0  0  0  0  0
   21.0429  -13.4026  -18.9003 C   0  0  1  0  0  0  0  0  0  0  0  0
   20.2711  -12.4899  -19.8467 C   0  0  0  0  0  0  0  0  0  0  0  0
   20.2186  -13.1975  -21.5143 S   0  0  0  0  0  0  0  0  0  0  0  0
   21.3634  -12.6867  -17.6334 C   0  0  0  0  0  0  0  0  0  0  0  0
   20.5222  -12.6240  -16.7011 O   0  0  0  0  0  0  0  0  0  0  0  0
   26.1054  -13.2798  -15.1549 C   0  0  0  0  0  0  0  0  0  0  0  0
   24.6262  -13.1288  -15.4636 C   0  0  0  0  0  0  0  0  0  0  0  0
   24.3559  -11.6849  -15.7097 C   0  0  2  0  0  0  0  0  0  0  0  0
   24.5850  -10.9347  -14.4134 C   0  0  0  0  0  0  0  0  0  0  0  0
   22.9527  -11.3908  -16.1585 C   0  0  2  0  0  0  0  0  0  0  0  0
   22.6146  -12.0440  -17.4068 N   0  0  0  0  0  0  0  0  0  0  0  0
   22.6916   -9.9373  -16.3087 C   0  0  0  0  0  0  0  0  0  0  0  0
   23.5230   -9.1740  -16.8688 O   0  0  0  0  0  0  0  0  0  0  0  0
   18.8925   -8.3091  -15.5928 O   0  0  0  0  0  0  0  0  0  0  0  0
   19.7928   -7.7625  -16.4826 C   0  0  0  0  0  0  0  0  0  0  0  0
   21.2307   -7.9060  -15.9746 C   0  0  2  0  0  0  0  0  0  0  0  0
   21.4994   -9.3218  -15.8347 N   0  0  0  0  0  0  0  0  0  0  0  0
   21.4237   -7.1694  -14.7083 C   0  0  0  0  0  0  0  0  0  0  0  0
   21.3337   -5.7960  -14.6453 O   0  0  0  0  0  0  0  0  0  0  0  0
   21.6759   -7.8018  -13.6609 O   0  0  0  0  0  0  0  0  0  0  0  0
  2  1  1  1
  3  2  1  0
  4  3  1  0
  5  2  1  0
  6  5  2  0
  7  8  1  0
  8  9  1  0
  9 11  1  0
  9 10  1  1
 11 13  1  0
 11 12  1  6
 12  5  1  0
 13 18  1  0
 14 13  2  0
 15 16  1  0
 17 19  1  0
 17 16  1  1
 18 17  1  0
 19 21  2  0
 19 20  1  0
M  END
$$$$
