CIS.pdb
     RDKit          3D

 21 20  0  0  1  0  0  0  0  0999 V2000
   28.7162  -20.5210  -15.1299 N   0  0  0  0  0  0  0  0  0  0  0  0
   27.8679  -19.6837  -14.3411 C   0  0  1  0  0  0  0  0  0  0  0  0
   27.2797  -18.5482  -15.1714 C   0  0  0  0  0  0  0  0  0  0  0  0
   28.5916  -17.4537  -15.7757 S   0  0  0  0  0  0  0  0  0  0  0  0
   26.7831  -20.4495  -13.6650 C   0  0  0  0  0  0  0  0  0  0  0  0
   26.2891  -21.4732  -14.2024 O   0  0  0  0  0  0  0  0  0  0  0  0
   26.3548  -20.3515   -8.1171 C   0  0  0  0  0  0  0  0  0  0  0  0
   26.4187  -20.9621   -9.5061 C   0  0  0  0  0  0  0  0  0  0  0  0
   25.1837  -20.5640  -10.2374 C   0  0  2  0  0  0  0  0  0  0  0  0
   24.0218  -21.3485   -9.6626 C   0  0  0  0  0  0  0  0  0  0  0  0
   25.2280  -20.8409  -11.7133 C   0  0  2  0  0  0  0  0  0  0  0  0
   26.2517  -20.0765  -12.3967 N   0  0  0  0  0  0  0  0  0  0  0  0
   23.9293  -20.5828  -12.3842 C   0  0  0  0  0  0  0  0  0  0  0  0
   23.4551  -19.4190  -12.4742 O   0  0  0  0  0  0  0  0  0  0  0  0
   20.1858  -22.5875  -14.8223 O   0  0  0  0  0  0  0  0  0  0  0  0
   21.4560  -22.6832  -14.2946 C   0  0  0  0  0  0  0  0  0  0  0  0
   21.8536  -21.3936  -13.5700 C   0  0  2  0  0  0  0  0  0  0  0  0
   23.1471  -21.6222  -12.9612 N   0  0  0  0  0  0  0  0  0  0  0  0
   20.8283  -21.0012  -12.5809 C   0  0  0  0  0  0  0  0  0  0  0  0
   19.8307  -20.1013  -12.8861 O   0  0  0  0  0  0  0  0  0  0  0  0
   20.8595  -21.4944  -11.4337 O   0  0  0  0  0  0  0  0  0  0  0  0
  2  1  1  6
  3  2  1  0
  4  3  1  0
  5  2  1  0
  6  5  2  0
  7  8  1  0
  8  9  1  0
  9 11  1  0
  9 10  1  1
 11 13  1  0
 11 12  1  6
 12  5  1  0
 13 18  1  0
 14 13  2  0
 15 16  1  0
 17 19  1  0
 17 16  1  1
 18 17  1  0
 19 21  2  0
 19 20  1  0
M  END
$$$$
