CIS.pdb
     RDKit          3D

 21 20  0  0  1  0  0  0  0  0999 V2000
   19.7921  -26.7236  -10.0838 N   0  0  0  0  0  0  0  0  0  0  0  0
   20.0866  -27.2397  -11.3839 C   0  0  1  0  0  0  0  0  0  0  0  0
   18.9352  -28.0825  -11.9213 C   0  0  0  0  0  0  0  0  0  0  0  0
   18.6965  -29.5613  -10.9013 S   0  0  0  0  0  0  0  0  0  0  0  0
   20.4426  -26.1665  -12.3542 C   0  0  0  0  0  0  0  0  0  0  0  0
   19.8011  -25.0855  -12.3796 O   0  0  0  0  0  0  0  0  0  0  0  0
   25.2495  -25.3676  -12.6674 C   0  0  0  0  0  0  0  0  0  0  0  0
   23.9852  -24.5667  -12.9245 C   0  0  0  0  0  0  0  0  0  0  0  0
   23.4031  -25.0331  -14.2137 C   0  0  2  0  0  0  0  0  0  0  0  0
   23.7014  -23.9893  -15.2707 C   0  0  0  0  0  0  0  0  0  0  0  0
   21.9139  -25.2276  -14.1803 C   0  0  2  0  0  0  0  0  0  0  0  0
   21.5079  -26.2972  -13.2913 N   0  0  0  0  0  0  0  0  0  0  0  0
   21.3405  -25.4960  -15.5229 C   0  0  0  0  0  0  0  0  0  0  0  0
   21.7901  -26.4147  -16.2586 O   0  0  0  0  0  0  0  0  0  0  0  0
   18.5267  -22.9044  -17.0102 O   0  0  0  0  0  0  0  0  0  0  0  0
   18.3997  -24.1964  -17.4747 C   0  0  0  0  0  0  0  0  0  0  0  0
   19.7308  -24.9494  -17.3889 C   0  0  2  0  0  0  0  0  0  0  0  0
   20.2592  -24.7408  -16.0572 N   0  0  0  0  0  0  0  0  0  0  0  0
   20.6654  -24.4998  -18.4414 C   0  0  0  0  0  0  0  0  0  0  0  0
   20.5218  -24.8883  -19.7554 O   0  0  0  0  0  0  0  0  0  0  0  0
   21.6150  -23.7463  -18.1399 O   0  0  0  0  0  0  0  0  0  0  0  0
  2  1  1  1
  3  2  1  0
  4  3  1  0
  5  2  1  0
  6  5  2  0
  7  8  1  0
  8  9  1  0
  9 11  1  0
  9 10  1  6
 11 13  1  0
 11 12  1  1
 12  5  1  0
 13 18  1  0
 14 13  2  0
 15 16  1  0
 17 19  1  0
 17 16  1  1
 18 17  1  0
 19 21  2  0
 19 20  1  0
M  END
$$$$
