CIS.pdb
     RDKit          3D

 21 20  0  0  1  0  0  0  0  0999 V2000
   17.1939  -11.5239  -16.6788 N   0  0  0  0  0  0  0  0  0  0  0  0
   18.0282  -10.4684  -17.1615 C   0  0  1  0  0  0  0  0  0  0  0  0
   17.2001   -9.3165  -17.7201 C   0  0  0  0  0  0  0  0  0  0  0  0
   16.3050   -9.8366  -19.2075 S   0  0  0  0  0  0  0  0  0  0  0  0
   18.9752   -9.9726  -16.1235 C   0  0  0  0  0  0  0  0  0  0  0  0
   18.6003   -9.8198  -14.9331 O   0  0  0  0  0  0  0  0  0  0  0  0
   23.8735  -11.9343  -15.1724 C   0  0  0  0  0  0  0  0  0  0  0  0
   22.4748  -11.3461  -15.1098 C   0  0  0  0  0  0  0  0  0  0  0  0
   22.5743   -9.8955  -15.4331 C   0  0  2  0  0  0  0  0  0  0  0  0
   23.4753   -9.2438  -14.4038 C   0  0  0  0  0  0  0  0  0  0  0  0
   21.2598   -9.1688  -15.4057 C   0  0  2  0  0  0  0  0  0  0  0  0
   20.3327   -9.6487  -16.4103 N   0  0  0  0  0  0  0  0  0  0  0  0
   21.4119   -7.7022  -15.5761 C   0  0  0  0  0  0  0  0  0  0  0  0
   21.9129   -7.2098  -16.6221 O   0  0  0  0  0  0  0  0  0  0  0  0
   18.9753   -4.9409  -15.4815 O   0  0  0  0  0  0  0  0  0  0  0  0
   19.8604   -4.6642  -14.4611 C   0  0  0  0  0  0  0  0  0  0  0  0
   21.2125   -5.3427  -14.7012 C   0  0  2  0  0  0  0  0  0  0  0  0
   21.0060   -6.7706  -14.5798 N   0  0  0  0  0  0  0  0  0  0  0  0
   22.2345   -4.8405  -13.7596 C   0  0  0  0  0  0  0  0  0  0  0  0
   22.8877   -3.6450  -13.9655 O   0  0  0  0  0  0  0  0  0  0  0  0
   22.5203   -5.5124  -12.7460 O   0  0  0  0  0  0  0  0  0  0  0  0
  2  1  1  1
  3  2  1  0
  4  3  1  0
  5  2  1  0
  6  5  2  0
  7  8  1  0
  8  9  1  0
  9 11  1  0
  9 10  1  1
 11 13  1  0
 11 12  1  6
 12  5  1  0
 13 18  1  0
 14 13  2  0
 15 16  1  0
 17 19  1  0
 17 16  1  1
 18 17  1  0
 19 21  2  0
 19 20  1  0
M  END
$$$$
