YIQ.pdb
     RDKit          3D

 30 30  0  0  1  0  0  0  0  0999 V2000
   15.3921  -24.2988  -14.1546 O   0  0  0  0  0  0  0  0  0  0  0  0
   16.6076  -23.6136  -14.2204 C   0  0  0  0  0  0  0  0  0  0  0  0
   17.7286  -24.2323  -13.7086 C   0  0  0  0  0  0  0  0  0  0  0  0
   18.9587  -23.5957  -13.7491 C   0  0  0  0  0  0  0  0  0  0  0  0
   19.0810  -22.3369  -14.3004 C   0  0  0  0  0  0  0  0  0  0  0  0
   20.3892  -21.6346  -14.3550 C   0  0  0  0  0  0  0  0  0  0  0  0
   20.7926  -21.2024  -12.9660 C   0  0  2  0  0  0  0  0  0  0  0  0
   19.8214  -20.2694  -12.4632 N   0  0  0  0  0  0  0  0  0  0  0  0
   22.1713  -20.6511  -12.9319 C   0  0  0  0  0  0  0  0  0  0  0  0
   22.3371  -19.4227  -13.2218 O   0  0  0  0  0  0  0  0  0  0  0  0
   17.9447  -21.7396  -14.8056 C   0  0  0  0  0  0  0  0  0  0  0  0
   16.7125  -22.3606  -14.7726 C   0  0  0  0  0  0  0  0  0  0  0  0
   25.6256  -21.0330   -9.0251 C   0  0  0  0  0  0  0  0  0  0  0  0
   24.8523  -20.6679  -10.2724 C   0  0  0  0  0  0  0  0  0  0  0  0
   25.4953  -21.1504  -11.5242 C   0  0  2  0  0  0  0  0  0  0  0  0
   26.9370  -20.7196  -11.6213 C   0  0  0  0  0  0  0  0  0  0  0  0
   24.6770  -20.8592  -12.7351 C   0  0  2  0  0  0  0  0  0  0  0  0
   23.3101  -21.3918  -12.6010 N   0  0  0  0  0  0  0  0  0  0  0  0
   25.2601  -21.3827  -14.0078 C   0  0  0  0  0  0  0  0  0  0  0  0
   25.3221  -22.6079  -14.2788 O   0  0  0  0  0  0  0  0  0  0  0  0
   23.8584  -18.3331  -17.5102 N   0  0  0  0  0  0  0  0  0  0  0  0
   24.9950  -18.4407  -18.3461 C   0  0  0  0  0  0  0  0  0  0  0  0
   25.2875  -17.4881  -19.0963 O   0  0  0  0  0  0  0  0  0  0  0  0
   25.8022  -19.6621  -18.3155 C   0  0  0  0  0  0  0  0  0  0  0  0
   25.3599  -20.6925  -17.3385 C   0  0  0  0  0  0  0  0  0  0  0  0
   26.3444  -21.0211  -16.2575 C   0  0  2  0  0  0  0  0  0  0  0  0
   25.7868  -20.4958  -14.9998 N   0  0  0  0  0  0  0  0  0  0  0  0
   27.6491  -20.3591  -16.4935 C   0  0  0  0  0  0  0  0  0  0  0  0
   27.8859  -19.2502  -15.9677 O   0  0  0  0  0  0  0  0  0  0  0  0
   28.6420  -20.9272  -17.2890 O   0  0  0  0  0  0  0  0  0  0  0  0
  2  1  1  0
  3  2  2  0
  4  3  1  0
  5 11  1  0
  5  4  2  0
  6  5  1  0
  7  9  1  0
  7  6  1  0
  7  8  1  6
  9 10  2  0
 11 12  2  0
 12  2  1  0
 14 13  1  0
 15 14  1  0
 15 16  1  6
 17 15  1  0
 17 18  1  1
 18  9  1  0
 19 17  1  0
 20 19  2  0
 21 22  1  0
 22 24  1  0
 22 23  2  0
 24 25  1  0
 26 25  1  6
 26 27  1  0
 27 19  1  0
 28 30  1  0
 28 26  1  0
 29 28  2  0
M  END
$$$$
