YIQ.pdb
     RDKit          3D

 30 30  0  0  1  0  0  0  0  0999 V2000
   30.1861  -18.6202  -17.3439 O   0  0  0  0  0  0  0  0  0  0  0  0
   28.9227  -18.3444  -16.8157 C   0  0  0  0  0  0  0  0  0  0  0  0
   27.9474  -17.8847  -17.6752 C   0  0  0  0  0  0  0  0  0  0  0  0
   26.6774  -17.5963  -17.2019 C   0  0  0  0  0  0  0  0  0  0  0  0
   26.3697  -17.7638  -15.8675 C   0  0  0  0  0  0  0  0  0  0  0  0
   25.0153  -17.4610  -15.3369 C   0  0  0  0  0  0  0  0  0  0  0  0
   24.2392  -18.7440  -15.1620 C   0  0  2  0  0  0  0  0  0  0  0  0
   24.4825  -19.5985  -16.2922 N   0  0  0  0  0  0  0  0  0  0  0  0
   22.7908  -18.4947  -14.9478 C   0  0  0  0  0  0  0  0  0  0  0  0
   22.4454  -17.7290  -13.9913 O   0  0  0  0  0  0  0  0  0  0  0  0
   27.3628  -18.2248  -15.0283 C   0  0  0  0  0  0  0  0  0  0  0  0
   28.6324  -18.5165  -15.4845 C   0  0  0  0  0  0  0  0  0  0  0  0
   19.5432  -16.3977  -18.2233 C   0  0  0  0  0  0  0  0  0  0  0  0
   20.1645  -16.9491  -16.9596 C   0  0  0  0  0  0  0  0  0  0  0  0
   19.6024  -18.2657  -16.5550 C   0  0  2  0  0  0  0  0  0  0  0  0
   18.1061  -18.2106  -16.3771 C   0  0  0  0  0  0  0  0  0  0  0  0
   20.3416  -18.8757  -15.4139 C   0  0  2  0  0  0  0  0  0  0  0  0
   21.7706  -19.0462  -15.7288 N   0  0  0  0  0  0  0  0  0  0  0  0
   19.7999  -20.1959  -14.9698 C   0  0  0  0  0  0  0  0  0  0  0  0
   20.5000  -21.2374  -14.9093 O   0  0  0  0  0  0  0  0  0  0  0  0
   20.2151  -22.2967  -10.3842 N   0  0  0  0  0  0  0  0  0  0  0  0
   19.1851  -23.2092  -10.7137 C   0  0  0  0  0  0  0  0  0  0  0  0
   19.0089  -24.2104   -9.9909 O   0  0  0  0  0  0  0  0  0  0  0  0
   18.3499  -22.9630  -11.8909 C   0  0  0  0  0  0  0  0  0  0  0  0
   18.7632  -21.8097  -12.7341 C   0  0  0  0  0  0  0  0  0  0  0  0
   17.9491  -21.5919  -13.9732 C   0  0  2  0  0  0  0  0  0  0  0  0
   18.4294  -20.3409  -14.5839 N   0  0  0  0  0  0  0  0  0  0  0  0
   16.5114  -21.4251  -13.6544 C   0  0  0  0  0  0  0  0  0  0  0  0
   15.7141  -22.3616  -13.8768 O   0  0  0  0  0  0  0  0  0  0  0  0
   15.9989  -20.2505  -13.1075 O   0  0  0  0  0  0  0  0  0  0  0  0
  2  1  1  0
  3  2  2  0
  4  3  1  0
  5 11  1  0
  5  4  2  0
  6  5  1  0
  7  9  1  0
  7  6  1  0
  7  8  1  6
  9 10  2  0
 11 12  2  0
 12  2  1  0
 14 13  1  0
 15 14  1  0
 15 16  1  1
 17 15  1  0
 17 18  1  6
 18  9  1  0
 19 17  1  0
 20 19  2  0
 21 22  1  0
 22 24  1  0
 22 23  2  0
 24 25  1  0
 26 25  1  1
 26 27  1  0
 27 19  1  0
 28 30  1  0
 28 26  1  0
 29 28  2  0
M  END
$$$$
