YIQ.pdb
     RDKit          3D

 30 30  0  0  1  0  0  0  0  0999 V2000
   23.2466  -21.5331  -22.6576 O   0  0  0  0  0  0  0  0  0  0  0  0
   23.3971  -21.7715  -21.2894 C   0  0  0  0  0  0  0  0  0  0  0  0
   23.1300  -23.0400  -20.8196 C   0  0  0  0  0  0  0  0  0  0  0  0
   23.2639  -23.3290  -19.4710 C   0  0  0  0  0  0  0  0  0  0  0  0
   23.6651  -22.3552  -18.5799 C   0  0  0  0  0  0  0  0  0  0  0  0
   23.8155  -22.6412  -17.1297 C   0  0  0  0  0  0  0  0  0  0  0  0
   25.2810  -22.6986  -16.7720 C   0  0  2  0  0  0  0  0  0  0  0  0
   25.8850  -23.8180  -17.4420 N   0  0  0  0  0  0  0  0  0  0  0  0
   25.4953  -22.7409  -15.3029 C   0  0  0  0  0  0  0  0  0  0  0  0
   25.2961  -23.8419  -14.6957 O   0  0  0  0  0  0  0  0  0  0  0  0
   23.9262  -21.0942  -19.0750 C   0  0  0  0  0  0  0  0  0  0  0  0
   23.7976  -20.7909  -20.4153 C   0  0  0  0  0  0  0  0  0  0  0  0
   29.0016  -21.1424  -10.7051 C   0  0  0  0  0  0  0  0  0  0  0  0
   27.5943  -21.4601  -11.1587 C   0  0  0  0  0  0  0  0  0  0  0  0
   27.4035  -21.3138  -12.6268 C   0  0  2  0  0  0  0  0  0  0  0  0
   27.8601  -19.9655  -13.1243 C   0  0  0  0  0  0  0  0  0  0  0  0
   26.0352  -21.7075  -13.0666 C   0  0  2  0  0  0  0  0  0  0  0  0
   25.9038  -21.6479  -14.5326 N   0  0  0  0  0  0  0  0  0  0  0  0
   24.9398  -20.8877  -12.4651 C   0  0  0  0  0  0  0  0  0  0  0  0
   25.1233  -19.7333  -12.0045 O   0  0  0  0  0  0  0  0  0  0  0  0
   22.6207  -18.8767  -16.5374 N   0  0  0  0  0  0  0  0  0  0  0  0
   21.5375  -18.4921  -15.7123 C   0  0  0  0  0  0  0  0  0  0  0  0
   20.6755  -17.7141  -16.1681 O   0  0  0  0  0  0  0  0  0  0  0  0
   21.4491  -19.0110  -14.3459 C   0  0  0  0  0  0  0  0  0  0  0  0
   22.5846  -19.8705  -13.9173 C   0  0  0  0  0  0  0  0  0  0  0  0
   22.4502  -20.4863  -12.5577 C   0  0  2  0  0  0  0  0  0  0  0  0
   23.6015  -21.3879  -12.3830 N   0  0  0  0  0  0  0  0  0  0  0  0
   21.2130  -21.2948  -12.4492 C   0  0  0  0  0  0  0  0  0  0  0  0
   20.2475  -20.8646  -11.7820 O   0  0  0  0  0  0  0  0  0  0  0  0
   21.0742  -22.5351  -13.0689 O   0  0  0  0  0  0  0  0  0  0  0  0
  2  1  1  0
  3  2  2  0
  4  3  1  0
  5 11  1  0
  5  4  2  0
  6  5  1  0
  7  9  1  0
  7  6  1  0
  7  8  1  6
  9 10  2  0
 11 12  2  0
 12  2  1  0
 14 13  1  0
 15 14  1  0
 15 16  1  1
 17 15  1  0
 17 18  1  6
 18  9  1  0
 19 17  1  0
 20 19  2  0
 21 22  1  0
 22 24  1  0
 22 23  2  0
 24 25  1  0
 26 25  1  6
 26 27  1  0
 27 19  1  0
 28 30  1  0
 28 26  1  0
 29 28  2  0
M  END
$$$$
