YIQ.pdb
     RDKit          3D

 30 30  0  0  1  0  0  0  0  0999 V2000
   28.1422  -16.1877  -20.7186 O   0  0  0  0  0  0  0  0  0  0  0  0
   27.4366  -17.0516  -19.8777 C   0  0  0  0  0  0  0  0  0  0  0  0
   27.2839  -16.6882  -18.5563 C   0  0  0  0  0  0  0  0  0  0  0  0
   26.5925  -17.5097  -17.6804 C   0  0  0  0  0  0  0  0  0  0  0  0
   26.0478  -18.7004  -18.1150 C   0  0  0  0  0  0  0  0  0  0  0  0
   25.3026  -19.5976  -17.1946 C   0  0  0  0  0  0  0  0  0  0  0  0
   26.2665  -20.2638  -16.2428 C   0  0  2  0  0  0  0  0  0  0  0  0
   27.0928  -21.1829  -16.9772 N   0  0  0  0  0  0  0  0  0  0  0  0
   25.5667  -20.9203  -15.1091 C   0  0  0  0  0  0  0  0  0  0  0  0
   25.0498  -22.0675  -15.3021 O   0  0  0  0  0  0  0  0  0  0  0  0
   26.2145  -19.0412  -19.4414 C   0  0  0  0  0  0  0  0  0  0  0  0
   26.9004  -18.2337  -20.3261 C   0  0  0  0  0  0  0  0  0  0  0  0
   25.2793  -21.3677   -8.9861 C   0  0  0  0  0  0  0  0  0  0  0  0
   24.5972  -21.5041  -10.3289 C   0  0  0  0  0  0  0  0  0  0  0  0
   25.3633  -20.8825  -11.4424 C   0  0  2  0  0  0  0  0  0  0  0  0
   25.8176  -19.4850  -11.1046 C   0  0  0  0  0  0  0  0  0  0  0  0
   24.6679  -21.0096  -12.7543 C   0  0  2  0  0  0  0  0  0  0  0  0
   25.4341  -20.3630  -13.8336 N   0  0  0  0  0  0  0  0  0  0  0  0
   23.2807  -20.4538  -12.7678 C   0  0  0  0  0  0  0  0  0  0  0  0
   23.0361  -19.2280  -12.8948 O   0  0  0  0  0  0  0  0  0  0  0  0
   19.0525  -21.6792  -16.4688 N   0  0  0  0  0  0  0  0  0  0  0  0
   19.2375  -20.3164  -16.1365 C   0  0  0  0  0  0  0  0  0  0  0  0
   18.9121  -19.4416  -16.9640 O   0  0  0  0  0  0  0  0  0  0  0  0
   19.8049  -19.9599  -14.8345 C   0  0  0  0  0  0  0  0  0  0  0  0
   20.1698  -21.1090  -13.9636 C   0  0  0  0  0  0  0  0  0  0  0  0
   20.7778  -20.7493  -12.6420 C   0  0  2  0  0  0  0  0  0  0  0  0
   22.1403  -21.3080  -12.6340 N   0  0  0  0  0  0  0  0  0  0  0  0
   20.0263  -21.3548  -11.5173 C   0  0  0  0  0  0  0  0  0  0  0  0
   18.9358  -20.8584  -11.1616 O   0  0  0  0  0  0  0  0  0  0  0  0
   20.4884  -22.4730  -10.8263 O   0  0  0  0  0  0  0  0  0  0  0  0
  2  1  1  0
  3  2  2  0
  4  3  1  0
  5 11  1  0
  5  4  2  0
  6  5  1  0
  7  9  1  0
  7  6  1  0
  7  8  1  6
  9 10  2  0
 11 12  2  0
 12  2  1  0
 14 13  1  0
 15 14  1  0
 15 16  1  1
 17 15  1  0
 17 18  1  6
 18  9  1  0
 19 17  1  0
 20 19  2  0
 21 22  1  0
 22 24  1  0
 22 23  2  0
 24 25  1  0
 26 25  1  6
 26 27  1  0
 27 19  1  0
 28 30  1  0
 28 26  1  0
 29 28  2  0
M  END
$$$$
