YIQ.pdb
     RDKit          3D

 30 30  0  0  1  0  0  0  0  0999 V2000
   29.2264  -15.0158  -18.0207 O   0  0  0  0  0  0  0  0  0  0  0  0
   28.4994  -15.9841  -17.3242 C   0  0  0  0  0  0  0  0  0  0  0  0
   28.1067  -17.1155  -18.0076 C   0  0  0  0  0  0  0  0  0  0  0  0
   27.3835  -18.1062  -17.3631 C   0  0  0  0  0  0  0  0  0  0  0  0
   27.0461  -17.9769  -16.0316 C   0  0  0  0  0  0  0  0  0  0  0  0
   26.2714  -19.0257  -15.3193 C   0  0  0  0  0  0  0  0  0  0  0  0
   27.2174  -19.9556  -14.5988 C   0  0  2  0  0  0  0  0  0  0  0  0
   27.9264  -20.7475  -15.5668 N   0  0  0  0  0  0  0  0  0  0  0  0
   26.5170  -20.7935  -13.5922 C   0  0  0  0  0  0  0  0  0  0  0  0
   26.0622  -21.9242  -13.9597 O   0  0  0  0  0  0  0  0  0  0  0  0
   27.4509  -16.8358  -15.3703 C   0  0  0  0  0  0  0  0  0  0  0  0
   28.1715  -15.8401  -15.9984 C   0  0  0  0  0  0  0  0  0  0  0  0
   27.2561  -20.7198   -8.2507 C   0  0  0  0  0  0  0  0  0  0  0  0
   26.7824  -21.2722   -9.5764 C   0  0  0  0  0  0  0  0  0  0  0  0
   25.4539  -20.7464   -9.9907 C   0  0  2  0  0  0  0  0  0  0  0  0
   24.3469  -21.2360   -9.0914 C   0  0  0  0  0  0  0  0  0  0  0  0
   25.1971  -20.9278  -11.4473 C   0  0  2  0  0  0  0  0  0  0  0  0
   26.3200  -20.4254  -12.2578 N   0  0  0  0  0  0  0  0  0  0  0  0
   23.9421  -20.2775  -11.9329 C   0  0  0  0  0  0  0  0  0  0  0  0
   23.9155  -19.1186  -12.4176 O   0  0  0  0  0  0  0  0  0  0  0  0
   22.4642  -22.2627  -16.5609 N   0  0  0  0  0  0  0  0  0  0  0  0
   21.3284  -21.4231  -16.4755 C   0  0  0  0  0  0  0  0  0  0  0  0
   20.5371  -21.3748  -17.4385 O   0  0  0  0  0  0  0  0  0  0  0  0
   21.1044  -20.6303  -15.2649 C   0  0  0  0  0  0  0  0  0  0  0  0
   22.0977  -20.8359  -14.1772 C   0  0  0  0  0  0  0  0  0  0  0  0
   21.5898  -20.6010  -12.7870 C   0  0  2  0  0  0  0  0  0  0  0  0
   22.6842  -20.9569  -11.8680 N   0  0  0  0  0  0  0  0  0  0  0  0
   20.4305  -21.4716  -12.4796 C   0  0  0  0  0  0  0  0  0  0  0  0
   19.2705  -21.0580  -12.6931 O   0  0  0  0  0  0  0  0  0  0  0  0
   20.5776  -22.7538  -11.9543 O   0  0  0  0  0  0  0  0  0  0  0  0
  2  1  1  0
  3  2  2  0
  4  3  1  0
  5 11  1  0
  5  4  2  0
  6  5  1  0
  7  9  1  0
  7  6  1  0
  7  8  1  6
  9 10  2  0
 11 12  2  0
 12  2  1  0
 14 13  1  0
 15 14  1  0
 15 16  1  1
 17 15  1  0
 17 18  1  6
 18  9  1  0
 19 17  1  0
 20 19  2  0
 21 22  1  0
 22 24  1  0
 22 23  2  0
 24 25  1  0
 26 25  1  6
 26 27  1  0
 27 19  1  0
 28 30  1  0
 28 26  1  0
 29 28  2  0
M  END
$$$$
