YIQ.pdb
     RDKit          3D

 30 30  0  0  1  0  0  0  0  0999 V2000
   25.5010  -13.5910  -26.1756 O   0  0  0  0  0  0  0  0  0  0  0  0
   25.2359  -14.3998  -25.0680 C   0  0  0  0  0  0  0  0  0  0  0  0
   24.9601  -13.7826  -23.8662 C   0  0  0  0  0  0  0  0  0  0  0  0
   24.6904  -14.5391  -22.7371 C   0  0  0  0  0  0  0  0  0  0  0  0
   24.6936  -15.9175  -22.7971 C   0  0  0  0  0  0  0  0  0  0  0  0
   24.4076  -16.7496  -21.5999 C   0  0  0  0  0  0  0  0  0  0  0  0
   25.5552  -16.6484  -20.6244 C   0  0  2  0  0  0  0  0  0  0  0  0
   26.7114  -17.2882  -21.1905 N   0  0  0  0  0  0  0  0  0  0  0  0
   25.2040  -17.2006  -19.2911 C   0  0  0  0  0  0  0  0  0  0  0  0
   25.4246  -18.4352  -19.0723 O   0  0  0  0  0  0  0  0  0  0  0  0
   24.9725  -16.5107  -24.0110 C   0  0  0  0  0  0  0  0  0  0  0  0
   25.2430  -15.7710  -25.1445 C   0  0  0  0  0  0  0  0  0  0  0  0
   26.9638  -14.8860  -15.4112 C   0  0  0  0  0  0  0  0  0  0  0  0
   26.3903  -16.1965  -15.9020 C   0  0  0  0  0  0  0  0  0  0  0  0
   24.9058  -16.2536  -15.8243 C   0  0  2  0  0  0  0  0  0  0  0  0
   24.4267  -16.6478  -14.4500 C   0  0  0  0  0  0  0  0  0  0  0  0
   24.3055  -17.0379  -16.9402 C   0  0  2  0  0  0  0  0  0  0  0  0
   24.6435  -16.4545  -18.2499 N   0  0  0  0  0  0  0  0  0  0  0  0
   22.8197  -17.1774  -16.8597 C   0  0  0  0  0  0  0  0  0  0  0  0
   22.0455  -16.1946  -16.7441 O   0  0  0  0  0  0  0  0  0  0  0  0
   18.0516  -19.5573  -14.1620 N   0  0  0  0  0  0  0  0  0  0  0  0
   18.7468  -20.7021  -14.6182 C   0  0  0  0  0  0  0  0  0  0  0  0
   18.2117  -21.8227  -14.4999 O   0  0  0  0  0  0  0  0  0  0  0  0
   20.0745  -20.5513  -15.2169 C   0  0  0  0  0  0  0  0  0  0  0  0
   20.5826  -19.1556  -15.2941 C   0  0  0  0  0  0  0  0  0  0  0  0
   20.7465  -18.6044  -16.6779 C   0  0  2  0  0  0  0  0  0  0  0  0
   22.1936  -18.4633  -16.9114 N   0  0  0  0  0  0  0  0  0  0  0  0
   20.1280  -17.2636  -16.8036 C   0  0  0  0  0  0  0  0  0  0  0  0
   20.8113  -16.2417  -16.5775 O   0  0  0  0  0  0  0  0  0  0  0  0
   18.7951  -17.0869  -17.1696 O   0  0  0  0  0  0  0  0  0  0  0  0
  2  1  1  0
  3  2  2  0
  4  3  1  0
  5 11  1  0
  5  4  2  0
  6  5  1  0
  7  9  1  0
  7  6  1  0
  7  8  1  6
  9 10  2  0
 11 12  2  0
 12  2  1  0
 14 13  1  0
 15 14  1  0
 15 16  1  1
 17 15  1  0
 17 18  1  6
 18  9  1  0
 19 17  1  0
 20 19  2  0
 21 22  1  0
 22 24  1  0
 22 23  2  0
 24 25  1  0
 26 25  1  1
 26 27  1  0
 27 19  1  0
 28 30  1  0
 28 26  1  0
 29 28  2  0
M  END
$$$$
