YIQ.pdb
     RDKit          3D

 30 30  0  0  1  0  0  0  0  0999 V2000
   19.4521  -24.2062   -7.3491 O   0  0  0  0  0  0  0  0  0  0  0  0
   20.2604  -23.3141   -8.0577 C   0  0  0  0  0  0  0  0  0  0  0  0
   20.8481  -22.2792   -7.3614 C   0  0  0  0  0  0  0  0  0  0  0  0
   21.6590  -21.3667   -8.0171 C   0  0  0  0  0  0  0  0  0  0  0  0
   21.8904  -21.4788   -9.3725 C   0  0  0  0  0  0  0  0  0  0  0  0
   22.7558  -20.5126  -10.0972 C   0  0  0  0  0  0  0  0  0  0  0  0
   24.1695  -21.0391  -10.1534 C   0  0  2  0  0  0  0  0  0  0  0  0
   24.7323  -21.0174   -8.8307 N   0  0  0  0  0  0  0  0  0  0  0  0
   25.0035  -20.2942  -11.1309 C   0  0  0  0  0  0  0  0  0  0  0  0
   25.2970  -19.0825  -10.8737 O   0  0  0  0  0  0  0  0  0  0  0  0
   21.2910  -22.5229  -10.0462 C   0  0  0  0  0  0  0  0  0  0  0  0
   20.4808  -23.4397   -9.4074 C   0  0  0  0  0  0  0  0  0  0  0  0
   29.6765  -21.2074  -11.4649 C   0  0  0  0  0  0  0  0  0  0  0  0
   28.2968  -20.6143  -11.6424 C   0  0  0  0  0  0  0  0  0  0  0  0
   27.8228  -20.6417  -13.0523 C   0  0  2  0  0  0  0  0  0  0  0  0
   28.8284  -20.0354  -13.9983 C   0  0  0  0  0  0  0  0  0  0  0  0
   26.4363  -20.1155  -13.1987 C   0  0  2  0  0  0  0  0  0  0  0  0
   25.4936  -20.8339  -12.3240 N   0  0  0  0  0  0  0  0  0  0  0  0
   25.9079  -20.1642  -14.5959 C   0  0  0  0  0  0  0  0  0  0  0  0
   25.6754  -21.2398  -15.2022 O   0  0  0  0  0  0  0  0  0  0  0  0
   23.9842  -15.0003  -17.6777 N   0  0  0  0  0  0  0  0  0  0  0  0
   23.2267  -15.7014  -16.7099 C   0  0  0  0  0  0  0  0  0  0  0  0
   22.2688  -15.1249  -16.1565 O   0  0  0  0  0  0  0  0  0  0  0  0
   23.5794  -17.0830  -16.3772 C   0  0  0  0  0  0  0  0  0  0  0  0
   24.7595  -17.6296  -17.0987 C   0  0  0  0  0  0  0  0  0  0  0  0
   25.1598  -19.0227  -16.7184 C   0  0  2  0  0  0  0  0  0  0  0  0
   25.6357  -18.9638  -15.3259 N   0  0  0  0  0  0  0  0  0  0  0  0
   26.2726  -19.5163  -17.5636 C   0  0  0  0  0  0  0  0  0  0  0  0
   26.0388  -20.3283  -18.4846 O   0  0  0  0  0  0  0  0  0  0  0  0
   27.5916  -19.1085  -17.3751 O   0  0  0  0  0  0  0  0  0  0  0  0
  2  1  1  0
  3  2  2  0
  4  3  1  0
  5 11  1  0
  5  4  2  0
  6  5  1  0
  7  9  1  0
  7  6  1  0
  7  8  1  1
  9 10  2  0
 11 12  2  0
 12  2  1  0
 14 13  1  0
 15 14  1  0
 15 16  1  6
 17 15  1  0
 17 18  1  1
 18  9  1  0
 19 17  1  0
 20 19  2  0
 21 22  1  0
 22 24  1  0
 22 23  2  0
 24 25  1  0
 26 25  1  6
 26 27  1  0
 27 19  1  0
 28 30  1  0
 28 26  1  0
 29 28  2  0
M  END
$$$$
