YIQ.pdb
     RDKit          3D

 30 30  0  0  1  0  0  0  0  0999 V2000
   18.5732   -8.7002  -21.3178 O   0  0  0  0  0  0  0  0  0  0  0  0
   19.3358   -9.8121  -20.9526 C   0  0  0  0  0  0  0  0  0  0  0  0
   19.7713  -10.6557  -21.9527 C   0  0  0  0  0  0  0  0  0  0  0  0
   20.5309  -11.7727  -21.6439 C   0  0  0  0  0  0  0  0  0  0  0  0
   20.8625  -12.0576  -20.3354 C   0  0  0  0  0  0  0  0  0  0  0  0
   21.6757  -13.2493  -19.9800 C   0  0  0  0  0  0  0  0  0  0  0  0
   23.0930  -12.8261  -19.6782 C   0  0  2  0  0  0  0  0  0  0  0  0
   23.6928  -12.3038  -20.8757 N   0  0  0  0  0  0  0  0  0  0  0  0
   23.8905  -13.9303  -19.0861 C   0  0  0  0  0  0  0  0  0  0  0  0
   24.5542  -14.6826  -19.8698 O   0  0  0  0  0  0  0  0  0  0  0  0
   20.4147  -11.1982  -19.3535 C   0  0  0  0  0  0  0  0  0  0  0  0
   19.6573  -10.0817  -19.6450 C   0  0  0  0  0  0  0  0  0  0  0  0
   27.5115  -16.3402  -16.3534 C   0  0  0  0  0  0  0  0  0  0  0  0
   26.4141  -15.9166  -15.4030 C   0  0  0  0  0  0  0  0  0  0  0  0
   25.5385  -14.8485  -15.9559 C   0  0  2  0  0  0  0  0  0  0  0  0
   24.6884  -14.2061  -14.8889 C   0  0  0  0  0  0  0  0  0  0  0  0
   24.7878  -15.2940  -17.1636 C   0  0  2  0  0  0  0  0  0  0  0  0
   23.9648  -14.2048  -17.7171 N   0  0  0  0  0  0  0  0  0  0  0  0
   23.9040  -16.4769  -16.9327 C   0  0  0  0  0  0  0  0  0  0  0  0
   23.0658  -16.5326  -15.9985 O   0  0  0  0  0  0  0  0  0  0  0  0
   20.3463  -19.1756  -16.1081 N   0  0  0  0  0  0  0  0  0  0  0  0
   20.3878  -20.2503  -17.0276 C   0  0  0  0  0  0  0  0  0  0  0  0
   19.7197  -21.2766  -16.7901 O   0  0  0  0  0  0  0  0  0  0  0  0
   21.2101  -20.1387  -18.2340 C   0  0  0  0  0  0  0  0  0  0  0  0
   22.0317  -18.9029  -18.3316 C   0  0  0  0  0  0  0  0  0  0  0  0
   23.2357  -18.8567  -17.4406 C   0  0  2  0  0  0  0  0  0  0  0  0
   23.9709  -17.6270  -17.7817 N   0  0  0  0  0  0  0  0  0  0  0  0
   24.1334  -20.0107  -17.6827 C   0  0  0  0  0  0  0  0  0  0  0  0
   23.7558  -21.1637  -17.3824 O   0  0  0  0  0  0  0  0  0  0  0  0
   25.4020  -19.8663  -18.2405 O   0  0  0  0  0  0  0  0  0  0  0  0
  2  1  1  0
  3  2  2  0
  4  3  1  0
  5 11  1  0
  5  4  2  0
  6  5  1  0
  7  9  1  0
  7  6  1  0
  7  8  1  6
  9 10  2  0
 11 12  2  0
 12  2  1  0
 14 13  1  0
 15 14  1  0
 15 16  1  1
 17 15  1  0
 17 18  1  1
 18  9  1  0
 19 17  1  0
 20 19  2  0
 21 22  1  0
 22 24  1  0
 22 23  2  0
 24 25  1  0
 26 25  1  6
 26 27  1  0
 27 19  1  0
 28 30  1  0
 28 26  1  0
 29 28  2  0
M  END
$$$$
