YIQ.pdb
     RDKit          3D

 30 30  0  0  1  0  0  0  0  0999 V2000
   32.5162   -4.5050  -22.8756 O   0  0  0  0  0  0  0  0  0  0  0  0
   31.4768   -5.2892  -22.3698 C   0  0  0  0  0  0  0  0  0  0  0  0
   30.8021   -6.1135  -23.2454 C   0  0  0  0  0  0  0  0  0  0  0  0
   29.7630   -6.9118  -22.7945 C   0  0  0  0  0  0  0  0  0  0  0  0
   29.3883   -6.8945  -21.4669 C   0  0  0  0  0  0  0  0  0  0  0  0
   28.2775   -7.7413  -20.9603 C   0  0  0  0  0  0  0  0  0  0  0  0
   28.8409   -8.9621  -20.2740 C   0  0  2  0  0  0  0  0  0  0  0  0
   29.5313   -9.7694  -21.2426 N   0  0  0  0  0  0  0  0  0  0  0  0
   27.7946   -9.7269  -19.5487 C   0  0  0  0  0  0  0  0  0  0  0  0
   27.0752  -10.5421  -20.2109 O   0  0  0  0  0  0  0  0  0  0  0  0
   30.0790   -6.0613  -20.6113 C   0  0  0  0  0  0  0  0  0  0  0  0
   31.1161   -5.2604  -21.0451 C   0  0  0  0  0  0  0  0  0  0  0  0
   28.6638  -12.8263  -15.5529 C   0  0  0  0  0  0  0  0  0  0  0  0
   28.0633  -12.0901  -16.7296 C   0  0  0  0  0  0  0  0  0  0  0  0
   26.9922  -11.1342  -16.3395 C   0  0  2  0  0  0  0  0  0  0  0  0
   25.9327  -11.7888  -15.4895 C   0  0  0  0  0  0  0  0  0  0  0  0
   26.4673  -10.3604  -17.4999 C   0  0  2  0  0  0  0  0  0  0  0  0
   27.5411   -9.6142  -18.1783 N   0  0  0  0  0  0  0  0  0  0  0  0
   25.3777   -9.3988  -17.1513 C   0  0  0  0  0  0  0  0  0  0  0  0
   25.5962   -8.2778  -16.6277 O   0  0  0  0  0  0  0  0  0  0  0  0
   20.9370   -7.9644  -12.9803 N   0  0  0  0  0  0  0  0  0  0  0  0
   20.9870   -7.9671  -14.3944 C   0  0  0  0  0  0  0  0  0  0  0  0
   20.0304   -8.4496  -15.0333 O   0  0  0  0  0  0  0  0  0  0  0  0
   22.1545   -7.4068  -15.0779 C   0  0  0  0  0  0  0  0  0  0  0  0
   23.1159   -8.4054  -15.6168 C   0  0  0  0  0  0  0  0  0  0  0  0
   22.9391   -8.7559  -17.0631 C   0  0  2  0  0  0  0  0  0  0  0  0
   24.0045   -9.7144  -17.4021 N   0  0  0  0  0  0  0  0  0  0  0  0
   23.0981   -7.5660  -17.9320 C   0  0  0  0  0  0  0  0  0  0  0  0
   24.1820   -7.3698  -18.5228 O   0  0  0  0  0  0  0  0  0  0  0  0
   22.0754   -6.6394  -18.1244 O   0  0  0  0  0  0  0  0  0  0  0  0
  2  1  1  0
  3  2  2  0
  4  3  1  0
  5 11  1  0
  5  4  2  0
  6  5  1  0
  7  9  1  0
  7  6  1  0
  7  8  1  6
  9 10  2  0
 11 12  2  0
 12  2  1  0
 14 13  1  0
 15 14  1  0
 15 16  1  6
 17 15  1  0
 17 18  1  1
 18  9  1  0
 19 17  1  0
 20 19  2  0
 21 22  1  0
 22 24  1  0
 22 23  2  0
 24 25  1  0
 26 25  1  1
 26 27  1  0
 27 19  1  0
 28 30  1  0
 28 26  1  0
 29 28  2  0
M  END
$$$$
