MAC.pdb
     RDKit          3D

 20 19  0  0  1  0  0  0  0  0999 V2000
   20.2922  -14.2572  -14.3430 C   0  0  0  0  0  0  0  0  0  0  0  0
   21.6101  -15.3399  -14.9970 S   0  0  0  0  0  0  0  0  0  0  0  0
   22.0408  -14.7536  -16.6283 C   0  0  0  0  0  0  0  0  0  0  0  0
   22.2777  -13.2745  -16.7068 C   0  0  0  0  0  0  0  0  0  0  0  0
   22.4718  -12.7673  -18.1092 C   0  0  2  0  0  0  0  0  0  0  0  0
   23.6380  -13.2975  -18.7330 N   0  0  0  0  0  0  0  0  0  0  0  0
   22.4265  -11.2892  -18.0632 C   0  0  0  0  0  0  0  0  0  0  0  0
   23.5228  -10.7096  -17.8079 O   0  0  0  0  0  0  0  0  0  0  0  0
   20.1994   -8.5623  -19.1058 C   0  0  0  0  0  0  0  0  0  0  0  0
   21.4090   -9.0662  -18.3080 C   0  0  2  0  0  0  0  0  0  0  0  0
   21.2943  -10.5066  -18.2747 N   0  0  0  0  0  0  0  0  0  0  0  0
   21.4051   -8.5141  -16.9395 C   0  0  0  0  0  0  0  0  0  0  0  0
   20.9612   -9.1600  -15.9405 O   0  0  0  0  0  0  0  0  0  0  0  0
   21.9134   -7.2093  -16.7056 N   0  0  0  0  0  0  0  0  0  0  0  0
   22.0058   -6.6494  -15.3901 C   0  0  1  0  0  0  0  0  0  0  0  0
   23.0332   -5.5452  -15.2960 C   0  0  0  0  0  0  0  0  0  0  0  0
   23.1143   -4.9363  -13.5949 S   0  0  0  0  0  0  0  0  0  0  0  0
   20.6712   -6.1432  -14.9726 C   0  0  0  0  0  0  0  0  0  0  0  0
   20.1648   -6.3755  -13.6922 O   0  0  0  0  0  0  0  0  0  0  0  0
   19.9643   -5.4862  -15.7795 O   0  0  0  0  0  0  0  0  0  0  0  0
  2  1  1  0
  3  2  1  0
  4  5  1  0
  4  3  1  0
  5  6  1  1
  7 11  1  0
  7  5  1  0
  8  7  2  0
 10  9  1  6
 10 11  1  0
 12 10  1  0
 12 14  1  0
 13 12  2  0
 15 14  1  0
 15 16  1  6
 16 17  1  0
 18 15  1  0
 19 18  1  0
 20 18  2  0
M  END
$$$$
