MAC.pdb
     RDKit          3D

 20 19  0  0  1  0  0  0  0  0999 V2000
   20.2986  -15.7053  -13.6257 C   0  0  0  0  0  0  0  0  0  0  0  0
   20.1651  -16.3894  -15.3141 S   0  0  0  0  0  0  0  0  0  0  0  0
   20.1732  -15.0206  -16.4615 C   0  0  0  0  0  0  0  0  0  0  0  0
   20.3018  -13.6750  -15.8116 C   0  0  0  0  0  0  0  0  0  0  0  0
   20.2479  -12.5275  -16.7823 C   0  0  2  0  0  0  0  0  0  0  0  0
   21.2007  -12.6479  -17.8348 N   0  0  0  0  0  0  0  0  0  0  0  0
   20.3582  -11.2743  -16.0038 C   0  0  0  0  0  0  0  0  0  0  0  0
   19.5104  -11.1227  -15.0757 O   0  0  0  0  0  0  0  0  0  0  0  0
   22.5812   -8.3366  -15.6741 C   0  0  0  0  0  0  0  0  0  0  0  0
   21.2487   -9.0570  -15.4309 C   0  0  2  0  0  0  0  0  0  0  0  0
   21.3031  -10.2726  -16.2111 N   0  0  0  0  0  0  0  0  0  0  0  0
   20.1109   -8.2189  -15.8557 C   0  0  0  0  0  0  0  0  0  0  0  0
   19.7055   -8.1709  -17.0580 O   0  0  0  0  0  0  0  0  0  0  0  0
   19.4257   -7.4250  -14.8986 N   0  0  0  0  0  0  0  0  0  0  0  0
   18.3472   -6.5538  -15.2597 C   0  0  1  0  0  0  0  0  0  0  0  0
   17.2491   -6.5227  -14.2219 C   0  0  0  0  0  0  0  0  0  0  0  0
   16.0280   -5.2657  -14.6693 S   0  0  0  0  0  0  0  0  0  0  0  0
   18.8741   -5.1820  -15.4880 C   0  0  0  0  0  0  0  0  0  0  0  0
   18.4538   -4.4039  -16.5687 O   0  0  0  0  0  0  0  0  0  0  0  0
   19.7214   -4.6913  -14.6982 O   0  0  0  0  0  0  0  0  0  0  0  0
  2  1  1  0
  3  2  1  0
  4  5  1  0
  4  3  1  0
  5  6  1  6
  7 11  1  0
  7  5  1  0
  8  7  2  0
 10  9  1  6
 10 11  1  0
 12 10  1  0
 12 14  1  0
 13 12  2  0
 15 14  1  0
 15 16  1  1
 16 17  1  0
 18 15  1  0
 19 18  1  0
 20 18  2  0
M  END
$$$$
