MAC.pdb
     RDKit          3D

 20 19  0  0  1  0  0  0  0  0999 V2000
   26.4332  -15.2408  -14.7943 C   0  0  0  0  0  0  0  0  0  0  0  0
   26.1191  -14.1769  -16.2456 S   0  0  0  0  0  0  0  0  0  0  0  0
   26.7892  -14.9993  -17.6825 C   0  0  0  0  0  0  0  0  0  0  0  0
   28.2353  -14.6987  -17.9438 C   0  0  0  0  0  0  0  0  0  0  0  0
   28.8031  -15.4397  -19.1229 C   0  0  2  0  0  0  0  0  0  0  0  0
   28.8162  -16.8521  -18.9347 N   0  0  0  0  0  0  0  0  0  0  0  0
   30.1280  -14.8552  -19.4259 C   0  0  0  0  0  0  0  0  0  0  0  0
   31.1142  -15.3814  -18.8313 O   0  0  0  0  0  0  0  0  0  0  0  0
   31.7414  -12.9565  -22.0495 C   0  0  0  0  0  0  0  0  0  0  0  0
   31.7215  -13.3796  -20.5750 C   0  0  2  0  0  0  0  0  0  0  0  0
   30.3653  -13.7943  -20.2961 N   0  0  0  0  0  0  0  0  0  0  0  0
   32.1110  -12.2576  -19.6992 C   0  0  0  0  0  0  0  0  0  0  0  0
   31.2694  -11.4340  -19.2244 O   0  0  0  0  0  0  0  0  0  0  0  0
   33.4769  -12.0712  -19.3598 N   0  0  0  0  0  0  0  0  0  0  0  0
   33.9168  -10.9924  -18.5259 C   0  0  1  0  0  0  0  0  0  0  0  0
   35.3170  -11.1976  -17.9956 C   0  0  0  0  0  0  0  0  0  0  0  0
   35.3920  -12.7477  -17.0669 S   0  0  0  0  0  0  0  0  0  0  0  0
   33.8395   -9.7162  -19.2855 C   0  0  0  0  0  0  0  0  0  0  0  0
   33.2793   -8.5637  -18.7307 O   0  0  0  0  0  0  0  0  0  0  0  0
   34.2850   -9.6525  -20.4602 O   0  0  0  0  0  0  0  0  0  0  0  0
  2  1  1  0
  3  2  1  0
  4  5  1  0
  4  3  1  0
  5  6  1  1
  7 11  1  0
  7  5  1  0
  8  7  2  0
 10  9  1  6
 10 11  1  0
 12 10  1  0
 12 14  1  0
 13 12  2  0
 15 14  1  0
 15 16  1  6
 16 17  1  0
 18 15  1  0
 19 18  1  0
 20 18  2  0
M  END
$$$$
