MAC.pdb
     RDKit          3D

 20 19  0  0  1  0  0  0  0  0999 V2000
   11.7367  -13.3860  -10.4034 C   0  0  0  0  0  0  0  0  0  0  0  0
   11.3367  -12.9831  -12.1396 S   0  0  0  0  0  0  0  0  0  0  0  0
   12.8757  -12.7987  -13.0272 C   0  0  0  0  0  0  0  0  0  0  0  0
   13.6641  -11.5818  -12.6436 C   0  0  0  0  0  0  0  0  0  0  0  0
   15.0096  -11.4986  -13.3102 C   0  0  2  0  0  0  0  0  0  0  0  0
   15.8133  -12.6524  -13.0802 N   0  0  0  0  0  0  0  0  0  0  0  0
   15.6400  -10.2265  -12.8938 C   0  0  0  0  0  0  0  0  0  0  0  0
   16.2876  -10.2597  -11.8064 O   0  0  0  0  0  0  0  0  0  0  0  0
   16.4072   -6.8991  -14.2735 C   0  0  0  0  0  0  0  0  0  0  0  0
   16.2590   -7.8563  -13.0838 C   0  0  2  0  0  0  0  0  0  0  0  0
   15.5754   -9.0238  -13.5926 N   0  0  0  0  0  0  0  0  0  0  0  0
   15.4794   -7.2313  -11.9980 C   0  0  0  0  0  0  0  0  0  0  0  0
   14.2099   -7.2340  -11.9757 O   0  0  0  0  0  0  0  0  0  0  0  0
   16.1545   -6.5947  -10.9234 N   0  0  0  0  0  0  0  0  0  0  0  0
   15.4519   -5.9682   -9.8433 C   0  0  1  0  0  0  0  0  0  0  0  0
   16.1935   -6.0647   -8.5302 C   0  0  0  0  0  0  0  0  0  0  0  0
   16.2563   -7.7913   -7.9952 S   0  0  0  0  0  0  0  0  0  0  0  0
   15.1935   -4.5432  -10.1813 C   0  0  0  0  0  0  0  0  0  0  0  0
   14.1948   -3.8059   -9.5420 O   0  0  0  0  0  0  0  0  0  0  0  0
   15.8819   -3.9685  -11.0635 O   0  0  0  0  0  0  0  0  0  0  0  0
  2  1  1  0
  3  2  1  0
  4  5  1  0
  4  3  1  0
  5  6  1  1
  7 11  1  0
  7  5  1  0
  8  7  2  0
 10  9  1  6
 10 11  1  0
 12 10  1  0
 12 14  1  0
 13 12  2  0
 15 14  1  0
 15 16  1  1
 16 17  1  0
 18 15  1  0
 19 18  1  0
 20 18  2  0
M  END
$$$$
