MAC.pdb
     RDKit          3D

 20 19  0  0  1  0  0  0  0  0999 V2000
   13.2946  -16.4920  -12.7933 C   0  0  0  0  0  0  0  0  0  0  0  0
   12.8149  -15.3386  -14.1259 S   0  0  0  0  0  0  0  0  0  0  0  0
   14.2537  -15.0500  -15.1443 C   0  0  0  0  0  0  0  0  0  0  0  0
   15.2720  -14.1393  -14.5251 C   0  0  0  0  0  0  0  0  0  0  0  0
   16.5251  -13.9892  -15.3429 C   0  0  2  0  0  0  0  0  0  0  0  0
   17.3919  -15.1154  -15.2391 N   0  0  0  0  0  0  0  0  0  0  0  0
   17.1538  -12.7027  -14.9706 C   0  0  0  0  0  0  0  0  0  0  0  0
   17.9636  -12.7434  -13.9982 O   0  0  0  0  0  0  0  0  0  0  0  0
   17.6845   -9.3295  -16.2835 C   0  0  0  0  0  0  0  0  0  0  0  0
   17.5560  -10.2816  -15.0874 C   0  0  2  0  0  0  0  0  0  0  0  0
   16.9263  -11.4793  -15.5955 N   0  0  0  0  0  0  0  0  0  0  0  0
   16.7363   -9.6784  -14.0189 C   0  0  0  0  0  0  0  0  0  0  0  0
   15.4761   -9.8211  -13.9577 O   0  0  0  0  0  0  0  0  0  0  0  0
   17.3600   -8.9023  -13.0067 N   0  0  0  0  0  0  0  0  0  0  0  0
   16.6072   -8.1684  -12.0334 C   0  0  1  0  0  0  0  0  0  0  0  0
   17.3085   -8.0802  -10.6977 C   0  0  0  0  0  0  0  0  0  0  0  0
   17.3159   -9.7076   -9.9086 S   0  0  0  0  0  0  0  0  0  0  0  0
   16.3232   -6.8042  -12.5531 C   0  0  0  0  0  0  0  0  0  0  0  0
   15.3138   -6.0066  -12.0102 O   0  0  0  0  0  0  0  0  0  0  0  0
   16.9988   -6.3382  -13.5064 O   0  0  0  0  0  0  0  0  0  0  0  0
  2  1  1  0
  3  2  1  0
  4  5  1  0
  4  3  1  0
  5  6  1  1
  7 11  1  0
  7  5  1  0
  8  7  2  0
 10  9  1  6
 10 11  1  0
 12 10  1  0
 12 14  1  0
 13 12  2  0
 15 14  1  0
 15 16  1  1
 16 17  1  0
 18 15  1  0
 19 18  1  0
 20 18  2  0
M  END
$$$$
