MAC.pdb
     RDKit          3D

 20 19  0  0  1  0  0  0  0  0999 V2000
   27.7737  -13.0656  -14.5823 C   0  0  0  0  0  0  0  0  0  0  0  0
   27.9818  -12.2125  -16.1840 S   0  0  0  0  0  0  0  0  0  0  0  0
   26.4826  -12.4448  -17.1268 C   0  0  0  0  0  0  0  0  0  0  0  0
   25.4726  -11.3493  -16.9545 C   0  0  0  0  0  0  0  0  0  0  0  0
   24.1984  -11.5763  -17.7204 C   0  0  2  0  0  0  0  0  0  0  0  0
   24.4192  -11.7841  -19.1126 N   0  0  0  0  0  0  0  0  0  0  0  0
   23.2823  -10.4564  -17.4113 C   0  0  0  0  0  0  0  0  0  0  0  0
   23.3377   -9.4636  -18.1950 O   0  0  0  0  0  0  0  0  0  0  0  0
   20.3571   -9.7650  -15.2812 C   0  0  0  0  0  0  0  0  0  0  0  0
   21.4856   -9.2915  -16.2064 C   0  0  2  0  0  0  0  0  0  0  0  0
   22.3847  -10.4143  -16.3475 N   0  0  0  0  0  0  0  0  0  0  0  0
   22.1910   -8.1321  -15.6271 C   0  0  0  0  0  0  0  0  0  0  0  0
   23.1870   -8.2538  -14.8492 O   0  0  0  0  0  0  0  0  0  0  0  0
   21.7563   -6.8167  -15.9379 N   0  0  0  0  0  0  0  0  0  0  0  0
   22.4448   -5.6526  -15.4653 C   0  0  1  0  0  0  0  0  0  0  0  0
   22.3079   -4.4732  -16.4002 C   0  0  0  0  0  0  0  0  0  0  0  0
   23.1296   -3.0314  -15.6812 S   0  0  0  0  0  0  0  0  0  0  0  0
   21.9409   -5.2943  -14.1128 C   0  0  0  0  0  0  0  0  0  0  0  0
   22.7605   -4.6836  -13.1613 O   0  0  0  0  0  0  0  0  0  0  0  0
   20.7480   -5.5394  -13.7979 O   0  0  0  0  0  0  0  0  0  0  0  0
  2  1  1  0
  3  2  1  0
  4  5  1  0
  4  3  1  0
  5  6  1  6
  7 11  1  0
  7  5  1  0
  8  7  2  0
 10  9  1  1
 10 11  1  0
 12 10  1  0
 12 14  1  0
 13 12  2  0
 15 14  1  0
 15 16  1  6
 16 17  1  0
 18 15  1  0
 19 18  1  0
 20 18  2  0
M  END
$$$$
