MAC.pdb
     RDKit          3D

 20 19  0  0  1  0  0  0  0  0999 V2000
   28.0297  -14.6740  -17.7409 C   0  0  0  0  0  0  0  0  0  0  0  0
   26.7262  -15.9383  -17.5425 S   0  0  0  0  0  0  0  0  0  0  0  0
   25.9521  -15.6817  -15.9534 C   0  0  0  0  0  0  0  0  0  0  0  0
   25.5772  -14.2562  -15.6757 C   0  0  0  0  0  0  0  0  0  0  0  0
   24.0931  -14.0130  -15.6642 C   0  0  2  0  0  0  0  0  0  0  0  0
   23.3715  -14.9577  -16.4499 N   0  0  0  0  0  0  0  0  0  0  0  0
   23.8654  -12.6028  -16.0495 C   0  0  0  0  0  0  0  0  0  0  0  0
   24.4328  -11.7328  -15.3256 O   0  0  0  0  0  0  0  0  0  0  0  0
   22.6171  -10.6622  -18.9034 C   0  0  0  0  0  0  0  0  0  0  0  0
   22.9885  -10.7602  -17.4181 C   0  0  2  0  0  0  0  0  0  0  0  0
   23.0917  -12.1716  -17.1240 N   0  0  0  0  0  0  0  0  0  0  0  0
   21.9563  -10.1287  -16.5736 C   0  0  0  0  0  0  0  0  0  0  0  0
   20.8266  -10.6653  -16.3546 O   0  0  0  0  0  0  0  0  0  0  0  0
   22.2141   -8.8695  -15.9705 N   0  0  0  0  0  0  0  0  0  0  0  0
   21.2654   -8.2247  -15.1122 C   0  0  1  0  0  0  0  0  0  0  0  0
   21.9105   -7.5862  -13.9039 C   0  0  0  0  0  0  0  0  0  0  0  0
   22.5972   -8.8720  -12.8332 S   0  0  0  0  0  0  0  0  0  0  0  0
   20.5097   -7.2049  -15.8872 C   0  0  0  0  0  0  0  0  0  0  0  0
   19.3495   -6.6118  -15.3853 O   0  0  0  0  0  0  0  0  0  0  0  0
   20.9097   -6.8537  -17.0269 O   0  0  0  0  0  0  0  0  0  0  0  0
  2  1  1  0
  3  2  1  0
  4  5  1  0
  4  3  1  0
  5  6  1  6
  7 11  1  0
  7  5  1  0
  8  7  2  0
 10  9  1  6
 10 11  1  0
 12 10  1  0
 12 14  1  0
 13 12  2  0
 15 14  1  0
 15 16  1  1
 16 17  1  0
 18 15  1  0
 19 18  1  0
 20 18  2  0
M  END
$$$$
