MAC.pdb
     RDKit          3D

 20 19  0  0  1  0  0  0  0  0999 V2000
   15.5121  -13.8514  -16.5343 C   0  0  0  0  0  0  0  0  0  0  0  0
   16.5788  -12.3784  -16.7051 S   0  0  0  0  0  0  0  0  0  0  0  0
   18.1652  -12.7644  -15.9809 C   0  0  0  0  0  0  0  0  0  0  0  0
   19.1369  -11.6218  -15.9853 C   0  0  0  0  0  0  0  0  0  0  0  0
   19.6729  -11.2896  -17.3506 C   0  0  2  0  0  0  0  0  0  0  0  0
   20.4696  -12.3346  -17.9015 N   0  0  0  0  0  0  0  0  0  0  0  0
   20.3633   -9.9844  -17.2574 C   0  0  0  0  0  0  0  0  0  0  0  0
   21.4817   -9.9909  -16.6640 O   0  0  0  0  0  0  0  0  0  0  0  0
   20.4106   -6.8228  -19.0162 C   0  0  0  0  0  0  0  0  0  0  0  0
   20.7238   -7.6006  -17.7315 C   0  0  2  0  0  0  0  0  0  0  0  0
   19.8856   -8.7777  -17.7621 N   0  0  0  0  0  0  0  0  0  0  0  0
   20.4300   -6.7858  -16.5368 C   0  0  0  0  0  0  0  0  0  0  0  0
   19.2611   -6.6732  -16.0539 O   0  0  0  0  0  0  0  0  0  0  0  0
   21.4812   -6.0902  -15.8835 N   0  0  0  0  0  0  0  0  0  0  0  0
   21.2575   -5.2864  -14.7188 C   0  0  1  0  0  0  0  0  0  0  0  0
   22.3804   -5.3906  -13.7128 C   0  0  0  0  0  0  0  0  0  0  0  0
   22.4793   -7.0852  -13.0886 S   0  0  0  0  0  0  0  0  0  0  0  0
   21.0649   -3.8688  -15.1251 C   0  0  0  0  0  0  0  0  0  0  0  0
   20.3975   -2.9544  -14.3076 O   0  0  0  0  0  0  0  0  0  0  0  0
   21.5073   -3.4630  -16.2305 O   0  0  0  0  0  0  0  0  0  0  0  0
  2  1  1  0
  3  2  1  0
  4  5  1  0
  4  3  1  0
  5  6  1  1
  7 11  1  0
  7  5  1  0
  8  7  2  0
 10  9  1  6
 10 11  1  0
 12 10  1  0
 12 14  1  0
 13 12  2  0
 15 14  1  0
 15 16  1  1
 16 17  1  0
 18 15  1  0
 19 18  1  0
 20 18  2  0
M  END
$$$$
