MAC.pdb
     RDKit          3D

 20 19  0  0  1  0  0  0  0  0999 V2000
   21.6296  -11.7549    7.5750 C   0  0  0  0  0  0  0  0  0  0  0  0
   21.1959  -11.6066    5.8067 S   0  0  0  0  0  0  0  0  0  0  0  0
   19.4322  -11.8437    5.6540 C   0  0  0  0  0  0  0  0  0  0  0  0
   18.9691  -13.2336    5.9758 C   0  0  0  0  0  0  0  0  0  0  0  0
   17.5085  -13.4629    5.7000 C   0  0  2  0  0  0  0  0  0  0  0  0
   16.6612  -12.5973    6.4503 N   0  0  0  0  0  0  0  0  0  0  0  0
   17.2341  -14.9031    5.8984 C   0  0  0  0  0  0  0  0  0  0  0  0
   16.9244  -15.2505    7.0758 O   0  0  0  0  0  0  0  0  0  0  0  0
   16.2406  -17.8307    4.0312 C   0  0  0  0  0  0  0  0  0  0  0  0
   16.9937  -17.2578    5.2388 C   0  0  2  0  0  0  0  0  0  0  0  0
   17.2898  -15.8819    4.9094 N   0  0  0  0  0  0  0  0  0  0  0  0
   18.2381  -18.0102    5.4896 C   0  0  0  0  0  0  0  0  0  0  0  0
   19.2377  -17.9626    4.7082 O   0  0  0  0  0  0  0  0  0  0  0  0
   18.3454  -18.8275    6.6455 N   0  0  0  0  0  0  0  0  0  0  0  0
   19.4961  -19.6417    6.9017 C   0  0  1  0  0  0  0  0  0  0  0  0
   20.2627  -19.2003    8.1270 C   0  0  0  0  0  0  0  0  0  0  0  0
   21.4089  -17.8746    7.6797 S   0  0  0  0  0  0  0  0  0  0  0  0
   19.0764  -21.0612    7.0449 C   0  0  0  0  0  0  0  0  0  0  0  0
   20.0032  -22.1056    7.0390 O   0  0  0  0  0  0  0  0  0  0  0  0
   17.8590  -21.3496    7.1759 O   0  0  0  0  0  0  0  0  0  0  0  0
  2  1  1  0
  3  2  1  0
  4  5  1  0
  4  3  1  0
  5  6  1  1
  7 11  1  0
  7  5  1  0
  8  7  2  0
 10  9  1  6
 10 11  1  0
 12 10  1  0
 12 14  1  0
 13 12  2  0
 15 14  1  0
 15 16  1  1
 16 17  1  0
 18 15  1  0
 19 18  1  0
 20 18  2  0
M  END
$$$$
