MAC.pdb
     RDKit          3D

 20 19  0  0  1  0  0  0  0  0999 V2000
   28.3655  -19.2203   -6.5626 C   0  0  0  0  0  0  0  0  0  0  0  0
   27.1082  -20.5330   -6.7431 S   0  0  0  0  0  0  0  0  0  0  0  0
   27.3623  -21.3201   -8.3263 C   0  0  0  0  0  0  0  0  0  0  0  0
   26.4514  -20.8267   -9.4109 C   0  0  0  0  0  0  0  0  0  0  0  0
   26.7155  -21.4520  -10.7529 C   0  0  2  0  0  0  0  0  0  0  0  0
   28.0619  -21.2819  -11.1872 N   0  0  0  0  0  0  0  0  0  0  0  0
   25.7024  -20.9332  -11.6981 C   0  0  0  0  0  0  0  0  0  0  0  0
   25.8560  -19.7329  -12.0702 O   0  0  0  0  0  0  0  0  0  0  0  0
   23.8978  -21.8103  -14.4610 C   0  0  0  0  0  0  0  0  0  0  0  0
   23.7224  -21.0340  -13.1495 C   0  0  2  0  0  0  0  0  0  0  0  0
   24.6181  -21.6503  -12.1970 N   0  0  0  0  0  0  0  0  0  0  0  0
   22.3276  -21.1104  -12.6740 C   0  0  0  0  0  0  0  0  0  0  0  0
   21.9088  -22.0455  -11.9240 O   0  0  0  0  0  0  0  0  0  0  0  0
   21.3975  -20.1087  -13.0576 N   0  0  0  0  0  0  0  0  0  0  0  0
   20.0106  -20.1780  -12.7047 C   0  0  1  0  0  0  0  0  0  0  0  0
   19.4016  -18.8169  -12.4596 C   0  0  0  0  0  0  0  0  0  0  0  0
   20.1399  -18.0799  -10.9821 S   0  0  0  0  0  0  0  0  0  0  0  0
   19.2620  -20.8879  -13.7758 C   0  0  0  0  0  0  0  0  0  0  0  0
   18.0407  -21.5167  -13.5255 O   0  0  0  0  0  0  0  0  0  0  0  0
   19.7243  -20.9346  -14.9448 O   0  0  0  0  0  0  0  0  0  0  0  0
  2  1  1  0
  3  2  1  0
  4  5  1  0
  4  3  1  0
  5  6  1  6
  7 11  1  0
  7  5  1  0
  8  7  2  0
 10  9  1  6
 10 11  1  0
 12 10  1  0
 12 14  1  0
 13 12  2  0
 15 14  1  0
 15 16  1  6
 16 17  1  0
 18 15  1  0
 19 18  1  0
 20 18  2  0
M  END
$$$$
