HSF.pdb
     RDKit          3D

 28 29  0  0  1  0  0  0  0  0999 V2000
   34.4844  -33.8383  -15.7377 N   0  0  0  0  0  0  0  0  0  0  0  0
   33.9003  -32.6138  -16.1832 C   0  0  1  0  0  0  0  0  0  0  0  0
   34.9040  -31.8662  -17.0280 C   0  0  0  0  0  0  0  0  0  0  0  0
   36.0543  -31.4356  -16.1964 C   0  0  0  0  0  0  0  0  0  0  0  0
   37.3925  -31.7253  -16.3516 C   0  0  0  0  0  0  0  0  0  0  0  0
   38.0646  -31.1171  -15.3595 N   0  0  0  0  0  0  0  0  0  0  0  0
   37.1716  -30.4660  -14.6060 C   0  0  0  0  0  0  0  0  0  0  0  0
   35.9584  -30.6593  -15.1126 N   0  0  0  0  0  0  0  0  0  0  0  0
   32.6457  -32.8315  -16.9619 C   0  0  0  0  0  0  0  0  0  0  0  0
   32.6498  -33.4250  -18.0527 O   0  0  0  0  0  0  0  0  0  0  0  0
   29.0790  -31.0157  -15.6301 O   0  0  0  0  0  0  0  0  0  0  0  0
   28.9584  -32.2774  -16.2354 C   0  0  0  0  0  0  0  0  0  0  0  0
   30.1513  -32.4638  -17.1178 C   0  0  2  0  0  0  0  0  0  0  0  0
   31.4075  -32.3608  -16.4691 N   0  0  0  0  0  0  0  0  0  0  0  0
   30.1299  -31.5812  -18.3086 C   0  0  0  0  0  0  0  0  0  0  0  0
   31.0438  -30.7557  -18.4687 O   0  0  0  0  0  0  0  0  0  0  0  0
   29.0882  -31.6595  -19.2686 N   0  0  0  0  0  0  0  0  0  0  0  0
   29.0353  -30.7615  -20.4099 C   0  0  1  0  0  0  0  0  0  0  0  0
   30.2984  -30.8832  -21.2156 C   0  0  0  0  0  0  0  0  0  0  0  0
   30.3032  -30.1327  -22.4711 C   0  0  0  0  0  0  0  0  0  0  0  0
   30.6969  -28.8161  -22.4984 C   0  0  0  0  0  0  0  0  0  0  0  0
   30.7026  -28.1198  -23.6835 C   0  0  0  0  0  0  0  0  0  0  0  0
   30.3046  -28.7633  -24.8590 C   0  0  0  0  0  0  0  0  0  0  0  0
   29.9086  -30.0957  -24.8170 C   0  0  0  0  0  0  0  0  0  0  0  0
   29.9023  -30.7947  -23.6308 C   0  0  0  0  0  0  0  0  0  0  0  0
   27.8109  -31.0341  -21.1873 C   0  0  0  0  0  0  0  0  0  0  0  0
   27.2843  -32.1954  -21.1658 O   0  0  0  0  0  0  0  0  0  0  0  0
   27.1737  -30.0853  -21.9628 O   0  0  0  0  0  0  0  0  0  0  0  0
  2  9  1  0
  2  1  1  6
  3  2  1  0
  4  3  1  0
  5  4  2  0
  6  7  1  0
  6  5  1  0
  7  8  2  0
  8  4  1  0
  9 10  2  0
 12 11  1  0
 13 12  1  1
 14 13  1  0
 14  9  1  0
 15 13  1  0
 16 15  2  0
 17 15  1  0
 18 17  1  0
 18 19  1  6
 20 19  1  0
 21 20  2  0
 22 21  1  0
 23 24  1  0
 23 22  2  0
 24 25  2  0
 25 20  1  0
 26 18  1  0
 26 28  1  0
 27 26  2  0
M  END
$$$$
