HSF.pdb
     RDKit          3D

 28 29  0  0  1  0  0  0  0  0999 V2000
   16.2797  -14.0140  -18.5815 N   0  0  0  0  0  0  0  0  0  0  0  0
   16.2725  -13.3545  -17.3151 C   0  0  1  0  0  0  0  0  0  0  0  0
   16.8769  -14.2703  -16.2777 C   0  0  0  0  0  0  0  0  0  0  0  0
   16.0176  -15.4639  -16.0849 C   0  0  0  0  0  0  0  0  0  0  0  0
   15.3140  -15.8537  -14.9661 C   0  0  0  0  0  0  0  0  0  0  0  0
   14.6784  -17.0015  -15.2567 N   0  0  0  0  0  0  0  0  0  0  0  0
   14.9767  -17.3197  -16.5213 C   0  0  0  0  0  0  0  0  0  0  0  0
   15.7852  -16.3905  -17.0198 N   0  0  0  0  0  0  0  0  0  0  0  0
   17.0161  -12.0607  -17.3425 C   0  0  0  0  0  0  0  0  0  0  0  0
   18.0622  -11.9233  -17.9977 O   0  0  0  0  0  0  0  0  0  0  0  0
   15.1249   -8.6102  -15.9202 O   0  0  0  0  0  0  0  0  0  0  0  0
   16.1471   -8.5317  -16.8804 C   0  0  0  0  0  0  0  0  0  0  0  0
   17.1046   -9.6465  -16.6037 C   0  0  2  0  0  0  0  0  0  0  0  0
   16.5405  -10.9470  -16.6137 N   0  0  0  0  0  0  0  0  0  0  0  0
   17.8757   -9.4460  -15.3537 C   0  0  0  0  0  0  0  0  0  0  0  0
   17.5802  -10.1079  -14.3453 O   0  0  0  0  0  0  0  0  0  0  0  0
   18.9436   -8.5144  -15.2848 N   0  0  0  0  0  0  0  0  0  0  0  0
   19.6464   -8.2521  -14.0403 C   0  0  1  0  0  0  0  0  0  0  0  0
   21.1300   -8.3517  -14.2597 C   0  0  0  0  0  0  0  0  0  0  0  0
   21.9484   -8.0440  -13.0870 C   0  0  0  0  0  0  0  0  0  0  0  0
   22.3190   -6.7493  -12.8119 C   0  0  0  0  0  0  0  0  0  0  0  0
   23.0844   -6.4688  -11.7051 C   0  0  0  0  0  0  0  0  0  0  0  0
   23.4813   -7.5119  -10.8633 C   0  0  0  0  0  0  0  0  0  0  0  0
   23.0992   -8.8172  -11.1535 C   0  0  0  0  0  0  0  0  0  0  0  0
   22.3325   -9.1000  -12.2616 C   0  0  0  0  0  0  0  0  0  0  0  0
   19.2154   -6.9466  -13.5039 C   0  0  0  0  0  0  0  0  0  0  0  0
   18.8916   -6.0033  -14.2988 O   0  0  0  0  0  0  0  0  0  0  0  0
   19.1354   -6.6664  -12.1538 O   0  0  0  0  0  0  0  0  0  0  0  0
  2  9  1  0
  2  1  1  6
  3  2  1  0
  4  3  1  0
  5  4  2  0
  6  7  1  0
  6  5  1  0
  7  8  2  0
  8  4  1  0
  9 10  2  0
 12 11  1  0
 13 12  1  1
 14 13  1  0
 14  9  1  0
 15 13  1  0
 16 15  2  0
 17 15  1  0
 18 17  1  0
 18 19  1  6
 20 19  1  0
 21 20  2  0
 22 21  1  0
 23 24  1  0
 23 22  2  0
 24 25  2  0
 25 20  1  0
 26 18  1  0
 26 28  1  0
 27 26  2  0
M  END
$$$$
