HSF.pdb
     RDKit          3D

 28 29  0  0  1  0  0  0  0  0999 V2000
   23.4512  -22.5448  -15.9349 N   0  0  0  0  0  0  0  0  0  0  0  0
   23.3975  -22.3381  -14.5230 C   0  0  1  0  0  0  0  0  0  0  0  0
   22.5992  -23.4530  -13.8906 C   0  0  0  0  0  0  0  0  0  0  0  0
   21.1539  -23.2708  -14.1699 C   0  0  0  0  0  0  0  0  0  0  0  0
   20.2885  -22.3200  -13.6740 C   0  0  0  0  0  0  0  0  0  0  0  0
   19.0760  -22.5467  -14.2074 N   0  0  0  0  0  0  0  0  0  0  0  0
   19.1811  -23.6089  -15.0136 C   0  0  0  0  0  0  0  0  0  0  0  0
   20.4361  -24.0448  -14.9898 N   0  0  0  0  0  0  0  0  0  0  0  0
   24.7544  -22.2738  -13.9049 C   0  0  0  0  0  0  0  0  0  0  0  0
   25.5667  -23.2067  -14.0158 O   0  0  0  0  0  0  0  0  0  0  0  0
   26.3209  -18.6221  -12.7591 O   0  0  0  0  0  0  0  0  0  0  0  0
   27.1621  -19.7315  -12.9447 C   0  0  0  0  0  0  0  0  0  0  0  0
   26.3982  -20.9453  -12.5211 C   0  0  2  0  0  0  0  0  0  0  0  0
   25.1517  -21.1343  -13.1692 N   0  0  0  0  0  0  0  0  0  0  0  0
   26.2151  -21.0266  -11.0523 C   0  0  0  0  0  0  0  0  0  0  0  0
   25.0685  -21.1403  -10.5890 O   0  0  0  0  0  0  0  0  0  0  0  0
   27.3213  -20.9772  -10.1652 N   0  0  0  0  0  0  0  0  0  0  0  0
   27.1409  -20.9561   -8.7235 C   0  0  1  0  0  0  0  0  0  0  0  0
   28.4574  -20.6942   -8.0470 C   0  0  0  0  0  0  0  0  0  0  0  0
   28.3713  -20.4378   -6.6095 C   0  0  0  0  0  0  0  0  0  0  0  0
   28.6153  -21.4419   -5.7032 C   0  0  0  0  0  0  0  0  0  0  0  0
   28.5366  -21.1907   -4.3541 C   0  0  0  0  0  0  0  0  0  0  0  0
   28.2064  -19.9057   -3.9137 C   0  0  0  0  0  0  0  0  0  0  0  0
   27.9621  -18.8991   -4.8416 C   0  0  0  0  0  0  0  0  0  0  0  0
   28.0405  -19.1488   -6.1933 C   0  0  0  0  0  0  0  0  0  0  0  0
   26.0944  -19.9746   -8.3782 C   0  0  0  0  0  0  0  0  0  0  0  0
   26.0734  -18.8340   -8.9484 O   0  0  0  0  0  0  0  0  0  0  0  0
   25.1017  -20.2145   -7.4484 O   0  0  0  0  0  0  0  0  0  0  0  0
  2  9  1  0
  2  1  1  6
  3  2  1  0
  4  3  1  0
  5  4  2  0
  6  7  1  0
  6  5  1  0
  7  8  2  0
  8  4  1  0
  9 10  2  0
 12 11  1  0
 13 12  1  1
 14 13  1  0
 14  9  1  0
 15 13  1  0
 16 15  2  0
 17 15  1  0
 18 17  1  0
 18 19  1  1
 20 19  1  0
 21 20  2  0
 22 21  1  0
 23 24  1  0
 23 22  2  0
 24 25  2  0
 25 20  1  0
 26 18  1  0
 26 28  1  0
 27 26  2  0
M  END
$$$$
