HSF.pdb
     RDKit          3D

 28 29  0  0  1  0  0  0  0  0999 V2000
   20.8520  -12.2752  -18.3282 N   0  0  0  0  0  0  0  0  0  0  0  0
   20.1332  -11.3532  -17.5083 C   0  0  1  0  0  0  0  0  0  0  0  0
   20.1373  -11.8523  -16.0831 C   0  0  0  0  0  0  0  0  0  0  0  0
   19.3178  -13.0834  -15.9689 C   0  0  0  0  0  0  0  0  0  0  0  0
   17.9628  -13.2053  -15.7502 C   0  0  0  0  0  0  0  0  0  0  0  0
   17.6650  -14.5155  -15.7221 N   0  0  0  0  0  0  0  0  0  0  0  0
   18.8019  -15.1927  -15.9177 C   0  0  0  0  0  0  0  0  0  0  0  0
   19.7987  -14.3267  -16.0665 N   0  0  0  0  0  0  0  0  0  0  0  0
   20.7054   -9.9759  -17.5637 C   0  0  0  0  0  0  0  0  0  0  0  0
   21.9208   -9.7680  -17.4157 O   0  0  0  0  0  0  0  0  0  0  0  0
   18.1251   -6.8442  -18.5544 O   0  0  0  0  0  0  0  0  0  0  0  0
   19.4733   -6.7137  -18.9262 C   0  0  0  0  0  0  0  0  0  0  0  0
   20.2820   -7.5168  -17.9580 C   0  0  2  0  0  0  0  0  0  0  0  0
   19.8659   -8.8614  -17.7889 N   0  0  0  0  0  0  0  0  0  0  0  0
   20.4099   -6.8630  -16.6337 C   0  0  0  0  0  0  0  0  0  0  0  0
   19.6537   -7.2080  -15.7109 O   0  0  0  0  0  0  0  0  0  0  0  0
   21.3772   -5.8522  -16.3983 N   0  0  0  0  0  0  0  0  0  0  0  0
   21.5190   -5.2222  -15.0965 C   0  0  1  0  0  0  0  0  0  0  0  0
   22.8378   -5.6037  -14.4844 C   0  0  0  0  0  0  0  0  0  0  0  0
   23.0100   -7.0346  -14.2342 C   0  0  0  0  0  0  0  0  0  0  0  0
   22.3630   -7.6451  -13.1864 C   0  0  0  0  0  0  0  0  0  0  0  0
   22.5271   -8.9911  -12.9614 C   0  0  0  0  0  0  0  0  0  0  0  0
   23.3574   -9.7318  -13.8078 C   0  0  0  0  0  0  0  0  0  0  0  0
   24.0058   -9.1014  -14.8642 C   0  0  0  0  0  0  0  0  0  0  0  0
   23.8426   -7.7533  -15.0911 C   0  0  0  0  0  0  0  0  0  0  0  0
   21.3337   -3.7650  -15.2382 C   0  0  0  0  0  0  0  0  0  0  0  0
   21.2028   -3.2460  -16.3957 O   0  0  0  0  0  0  0  0  0  0  0  0
   21.2903   -2.8946  -14.1667 O   0  0  0  0  0  0  0  0  0  0  0  0
  2  9  1  0
  2  1  1  6
  3  2  1  0
  4  3  1  0
  5  4  2  0
  6  7  1  0
  6  5  1  0
  7  8  2  0
  8  4  1  0
  9 10  2  0
 12 11  1  0
 13 12  1  6
 14 13  1  0
 14  9  1  0
 15 13  1  0
 16 15  2  0
 17 15  1  0
 18 17  1  0
 18 19  1  6
 20 19  1  0
 21 20  2  0
 22 21  1  0
 23 24  1  0
 23 22  2  0
 24 25  2  0
 25 20  1  0
 26 18  1  0
 26 28  1  0
 27 26  2  0
M  END
$$$$
