HSF.pdb
     RDKit          3D

 28 29  0  0  1  0  0  0  0  0999 V2000
   21.6804  -13.5719  -19.3294 N   0  0  0  0  0  0  0  0  0  0  0  0
   20.8978  -13.0309  -18.2646 C   0  0  1  0  0  0  0  0  0  0  0  0
   21.2895  -13.7055  -16.9717 C   0  0  0  0  0  0  0  0  0  0  0  0
   21.0626  -15.1682  -17.0675 C   0  0  0  0  0  0  0  0  0  0  0  0
   19.8990  -15.8477  -17.3560 C   0  0  0  0  0  0  0  0  0  0  0  0
   20.1721  -17.1633  -17.3322 N   0  0  0  0  0  0  0  0  0  0  0  0
   21.4695  -17.3016  -17.0373 C   0  0  0  0  0  0  0  0  0  0  0  0
   22.0056  -16.0963  -16.8778 N   0  0  0  0  0  0  0  0  0  0  0  0
   21.0591  -11.5530  -18.1332 C   0  0  0  0  0  0  0  0  0  0  0  0
   22.1695  -11.0329  -17.9359 O   0  0  0  0  0  0  0  0  0  0  0  0
   17.6231   -9.1232  -18.3288 O   0  0  0  0  0  0  0  0  0  0  0  0
   18.8187   -8.5927  -18.8405 C   0  0  0  0  0  0  0  0  0  0  0  0
   19.9468   -9.2848  -18.1443 C   0  0  2  0  0  0  0  0  0  0  0  0
   19.9367  -10.6997  -18.2317 N   0  0  0  0  0  0  0  0  0  0  0  0
   20.0882   -8.8727  -16.7274 C   0  0  0  0  0  0  0  0  0  0  0  0
   19.5781   -9.5732  -15.8378 O   0  0  0  0  0  0  0  0  0  0  0  0
   20.7934   -7.6958  -16.3663 N   0  0  0  0  0  0  0  0  0  0  0  0
   20.8924   -7.2615  -14.9831 C   0  0  1  0  0  0  0  0  0  0  0  0
   22.3372   -7.1177  -14.5942 C   0  0  0  0  0  0  0  0  0  0  0  0
   23.1270   -8.3448  -14.6933 C   0  0  0  0  0  0  0  0  0  0  0  0
   22.9337   -9.3756  -13.8049 C   0  0  0  0  0  0  0  0  0  0  0  0
   23.6773  -10.5271  -13.9083 C   0  0  0  0  0  0  0  0  0  0  0  0
   24.6308  -10.6389  -14.9245 C   0  0  0  0  0  0  0  0  0  0  0  0
   24.8160   -9.5883  -15.8165 C   0  0  0  0  0  0  0  0  0  0  0  0
   24.0720   -8.4342  -15.7146 C   0  0  0  0  0  0  0  0  0  0  0  0
   20.1071   -6.0250  -14.8038 C   0  0  0  0  0  0  0  0  0  0  0  0
   19.6727   -5.3895  -15.8206 O   0  0  0  0  0  0  0  0  0  0  0  0
   19.7991   -5.4903  -13.5682 O   0  0  0  0  0  0  0  0  0  0  0  0
  2  9  1  0
  2  1  1  6
  3  2  1  0
  4  3  1  0
  5  4  2  0
  6  7  1  0
  6  5  1  0
  7  8  2  0
  8  4  1  0
  9 10  2  0
 12 11  1  0
 13 12  1  1
 14 13  1  0
 14  9  1  0
 15 13  1  0
 16 15  2  0
 17 15  1  0
 18 17  1  0
 18 19  1  6
 20 19  1  0
 21 20  2  0
 22 21  1  0
 23 24  1  0
 23 22  2  0
 24 25  2  0
 25 20  1  0
 26 18  1  0
 26 28  1  0
 27 26  2  0
M  END
$$$$
