QMP.pdb
     RDKit          3D

 25 25  0  0  1  0  0  0  0  0999 V2000
   13.6232  -18.0807   19.6954 N   0  0  0  0  0  0  0  0  0  0  0  0
   12.4420  -18.5206   19.0478 C   0  0  0  0  0  0  0  0  0  0  0  0
   12.5505  -19.1772   17.9943 O   0  0  0  0  0  0  0  0  0  0  0  0
   11.1510  -18.1619   19.6806 C   0  0  0  0  0  0  0  0  0  0  0  0
   11.3394  -17.3068   20.9210 C   0  0  0  0  0  0  0  0  0  0  0  0
    9.9811  -17.0952   21.5206 C   0  0  2  0  0  0  0  0  0  0  0  0
    9.0774  -16.6755   20.4794 N   0  0  0  0  0  0  0  0  0  0  0  0
    9.9883  -16.1363   22.6583 C   0  0  0  0  0  0  0  0  0  0  0  0
   11.0698  -15.6045   22.9524 O   0  0  0  0  0  0  0  0  0  0  0  0
    5.7892  -11.7039   27.7251 C   0  0  0  0  0  0  0  0  0  0  0  0
    5.7117  -12.8437   26.3284 S   0  0  0  0  0  0  0  0  0  0  0  0
    7.3086  -13.7679   26.1797 C   0  0  0  0  0  0  0  0  0  0  0  0
    7.3699  -14.4656   24.8692 C   0  0  0  0  0  0  0  0  0  0  0  0
    8.6900  -15.2021   24.6370 C   0  0  2  0  0  0  0  0  0  0  0  0
    8.7943  -15.8488   23.3731 N   0  0  0  0  0  0  0  0  0  0  0  0
    9.1349  -15.8752   25.8196 C   0  0  0  0  0  0  0  0  0  0  0  0
    8.8808  -17.1253   25.9514 O   0  0  0  0  0  0  0  0  0  0  0  0
    9.8661  -15.2993   26.9342 N   0  0  0  0  0  0  0  0  0  0  0  0
    9.9818  -13.8859   27.1850 C   0  0  0  0  0  0  0  0  0  0  0  0
   11.2092  -13.7853   28.0815 C   0  0  0  0  0  0  0  0  0  0  0  0
   11.1754  -15.0541   28.8790 C   0  0  0  0  0  0  0  0  0  0  0  0
   10.5715  -16.0313   27.9446 C   0  0  1  0  0  0  0  0  0  0  0  0
    9.6763  -17.0045   28.6370 C   0  0  0  0  0  0  0  0  0  0  0  0
    8.4564  -16.9994   28.4170 O   0  0  0  0  0  0  0  0  0  0  0  0
   10.2235  -17.9013   29.5174 O   0  0  0  0  0  0  0  0  0  0  0  0
  1  2  1  0
  2  3  2  0
  4  5  1  0
  4  2  1  0
  6  5  1  0
  6  8  1  0
  6  7  1  6
  8  9  2  0
 11 10  1  0
 11 12  1  0
 12 13  1  0
 14 13  1  1
 15  8  1  0
 15 14  1  0
 16 14  1  0
 16 17  2  0
 18 16  1  0
 19 18  1  0
 20 19  1  0
 21 20  1  0
 21 22  1  0
 22 18  1  0
 22 23  1  1
 23 25  1  0
 24 23  2  0
M  END
$$$$
