QMP.pdb
     RDKit          3D

 25 25  0  0  1  0  0  0  0  0999 V2000
    2.7517  -21.9679   22.8198 N   0  0  0  0  0  0  0  0  0  0  0  0
    3.3521  -21.1500   21.8306 C   0  0  0  0  0  0  0  0  0  0  0  0
    2.8924  -21.1823   20.6729 O   0  0  0  0  0  0  0  0  0  0  0  0
    4.4956  -20.3078   22.2533 C   0  0  0  0  0  0  0  0  0  0  0  0
    4.8305  -20.4925   23.7227 C   0  0  0  0  0  0  0  0  0  0  0  0
    6.0627  -19.6832   23.9987 C   0  0  2  0  0  0  0  0  0  0  0  0
    6.4171  -19.8411   25.3865 N   0  0  0  0  0  0  0  0  0  0  0  0
    5.9132  -18.2490   23.6317 C   0  0  0  0  0  0  0  0  0  0  0  0
    5.7348  -17.9797   22.4340 O   0  0  0  0  0  0  0  0  0  0  0  0
    8.2482  -11.7966   27.5286 C   0  0  0  0  0  0  0  0  0  0  0  0
    6.7628  -12.7368   27.1216 S   0  0  0  0  0  0  0  0  0  0  0  0
    7.0459  -13.7285   25.5845 C   0  0  0  0  0  0  0  0  0  0  0  0
    6.5845  -15.1258   25.7911 C   0  0  0  0  0  0  0  0  0  0  0  0
    6.6103  -15.9665   24.5138 C   0  0  2  0  0  0  0  0  0  0  0  0
    5.9742  -17.2352   24.6255 N   0  0  0  0  0  0  0  0  0  0  0  0
    7.8656  -15.8575   23.8343 C   0  0  0  0  0  0  0  0  0  0  0  0
    8.8636  -16.5363   24.2677 O   0  0  0  0  0  0  0  0  0  0  0  0
    8.1652  -15.0425   22.6704 N   0  0  0  0  0  0  0  0  0  0  0  0
    7.2320  -14.1359   22.0528 C   0  0  0  0  0  0  0  0  0  0  0  0
    7.7974  -13.9473   20.6510 C   0  0  0  0  0  0  0  0  0  0  0  0
    9.2801  -14.0503   20.8458 C   0  0  0  0  0  0  0  0  0  0  0  0
    9.4137  -15.0079   21.9672 C   0  0  1  0  0  0  0  0  0  0  0  0
   10.5433  -14.6635   22.8800 C   0  0  0  0  0  0  0  0  0  0  0  0
   10.3192  -14.2887   24.0402 O   0  0  0  0  0  0  0  0  0  0  0  0
   11.8288  -14.7680   22.4160 O   0  0  0  0  0  0  0  0  0  0  0  0
  1  2  1  0
  2  3  2  0
  4  5  1  0
  4  2  1  0
  6  5  1  0
  6  8  1  0
  6  7  1  1
  8  9  2  0
 11 10  1  0
 11 12  1  0
 12 13  1  0
 14 13  1  1
 15  8  1  0
 15 14  1  0
 16 14  1  0
 16 17  2  0
 18 16  1  0
 19 18  1  0
 20 19  1  0
 21 20  1  0
 21 22  1  0
 22 18  1  0
 22 23  1  1
 23 25  1  0
 24 23  2  0
M  END
$$$$
