QMP.pdb
     RDKit          3D

 25 25  0  0  1  0  0  0  0  0999 V2000
    7.5763  -18.3882   19.7356 N   0  0  0  0  0  0  0  0  0  0  0  0
    7.7907  -17.3659   18.7780 C   0  0  0  0  0  0  0  0  0  0  0  0
    7.7897  -17.6725   17.5702 O   0  0  0  0  0  0  0  0  0  0  0  0
    8.0024  -15.9924   19.2920 C   0  0  0  0  0  0  0  0  0  0  0  0
    6.7002  -15.3265   19.6996 C   0  0  0  0  0  0  0  0  0  0  0  0
    7.0557  -14.0123   20.3290 C   0  0  2  0  0  0  0  0  0  0  0  0
    7.7715  -13.2170   19.3637 N   0  0  0  0  0  0  0  0  0  0  0  0
    7.8246  -14.1603   21.5943 C   0  0  0  0  0  0  0  0  0  0  0  0
    9.0626  -14.1346   21.5187 O   0  0  0  0  0  0  0  0  0  0  0  0
    7.3086  -11.2981   27.9286 C   0  0  0  0  0  0  0  0  0  0  0  0
    6.0298  -11.9239   26.8201 S   0  0  0  0  0  0  0  0  0  0  0  0
    6.7979  -12.5225   25.2459 C   0  0  0  0  0  0  0  0  0  0  0  0
    6.9670  -13.9980   25.2939 C   0  0  0  0  0  0  0  0  0  0  0  0
    7.7534  -14.5558   24.1067 C   0  0  2  0  0  0  0  0  0  0  0  0
    7.1541  -14.3241   22.8364 N   0  0  0  0  0  0  0  0  0  0  0  0
    8.3205  -15.8365   24.4029 C   0  0  0  0  0  0  0  0  0  0  0  0
    7.5576  -16.8673   24.3915 O   0  0  0  0  0  0  0  0  0  0  0  0
    9.7051  -16.1286   24.7286 N   0  0  0  0  0  0  0  0  0  0  0  0
   10.7553  -15.1438   24.7647 C   0  0  0  0  0  0  0  0  0  0  0  0
   12.0242  -15.9750   24.6259 C   0  0  0  0  0  0  0  0  0  0  0  0
   11.6867  -17.2622   25.3158 C   0  0  0  0  0  0  0  0  0  0  0  0
   10.2359  -17.4173   25.0636 C   0  0  1  0  0  0  0  0  0  0  0  0
    9.5158  -18.0175   26.2250 C   0  0  0  0  0  0  0  0  0  0  0  0
    8.6806  -17.3531   26.8556 O   0  0  0  0  0  0  0  0  0  0  0  0
    9.7922  -19.3118   26.5820 O   0  0  0  0  0  0  0  0  0  0  0  0
  1  2  1  0
  2  3  2  0
  4  5  1  0
  4  2  1  0
  6  5  1  0
  6  8  1  0
  6  7  1  6
  8  9  2  0
 11 10  1  0
 11 12  1  0
 12 13  1  0
 14 13  1  1
 15  8  1  0
 15 14  1  0
 16 14  1  0
 16 17  2  0
 18 16  1  0
 19 18  1  0
 20 19  1  0
 21 20  1  0
 21 22  1  0
 22 18  1  0
 22 23  1  1
 23 25  1  0
 24 23  2  0
M  END
$$$$
