QMP.pdb
     RDKit          3D

 25 25  0  0  1  0  0  0  0  0999 V2000
    5.4567  -19.5819   20.0204 N   0  0  0  0  0  0  0  0  0  0  0  0
    6.6840  -19.3909   19.3384 C   0  0  0  0  0  0  0  0  0  0  0  0
    7.1381  -20.3300   18.6567 O   0  0  0  0  0  0  0  0  0  0  0  0
    7.3428  -18.0722   19.4893 C   0  0  0  0  0  0  0  0  0  0  0  0
    6.5050  -17.1037   20.3050 C   0  0  0  0  0  0  0  0  0  0  0  0
    7.2526  -15.8043   20.3499 C   0  0  2  0  0  0  0  0  0  0  0  0
    8.1849  -15.7702   19.2515 N   0  0  0  0  0  0  0  0  0  0  0  0
    7.9322  -15.5667   21.6521 C   0  0  0  0  0  0  0  0  0  0  0  0
    9.1610  -15.7322   21.6956 O   0  0  0  0  0  0  0  0  0  0  0  0
    6.0158  -11.3164   26.8160 C   0  0  0  0  0  0  0  0  0  0  0  0
    7.5840  -12.2087   26.7924 S   0  0  0  0  0  0  0  0  0  0  0  0
    7.2875  -13.9944   26.4049 C   0  0  0  0  0  0  0  0  0  0  0  0
    6.7721  -14.1329   25.0182 C   0  0  0  0  0  0  0  0  0  0  0  0
    7.6967  -14.9418   24.1072 C   0  0  2  0  0  0  0  0  0  0  0  0
    7.1904  -15.1654   22.7957 N   0  0  0  0  0  0  0  0  0  0  0  0
    8.3345  -16.0101   24.8154 C   0  0  0  0  0  0  0  0  0  0  0  0
    7.6044  -16.9151   25.3562 O   0  0  0  0  0  0  0  0  0  0  0  0
    9.7603  -16.2068   25.0078 N   0  0  0  0  0  0  0  0  0  0  0  0
   10.7801  -15.3712   24.4284 C   0  0  0  0  0  0  0  0  0  0  0  0
   12.0239  -16.2496   24.4723 C   0  0  0  0  0  0  0  0  0  0  0  0
   11.8366  -17.0743   25.7100 C   0  0  0  0  0  0  0  0  0  0  0  0
   10.3676  -17.2409   25.7930 C   0  0  1  0  0  0  0  0  0  0  0  0
    9.8697  -17.2198   27.1999 C   0  0  0  0  0  0  0  0  0  0  0  0
    9.8452  -18.2616   27.8713 O   0  0  0  0  0  0  0  0  0  0  0  0
    9.4411  -16.0333   27.7359 O   0  0  0  0  0  0  0  0  0  0  0  0
  1  2  1  0
  2  3  2  0
  4  5  1  0
  4  2  1  0
  6  5  1  0
  6  8  1  0
  6  7  1  6
  8  9  2  0
 11 10  1  0
 11 12  1  0
 12 13  1  0
 14 13  1  1
 15  8  1  0
 15 14  1  0
 16 14  1  0
 16 17  2  0
 18 16  1  0
 19 18  1  0
 20 19  1  0
 21 20  1  0
 21 22  1  0
 22 18  1  0
 22 23  1  1
 23 25  1  0
 24 23  2  0
M  END
$$$$
