QMP.pdb
     RDKit          3D

 25 25  0  0  1  0  0  0  0  0999 V2000
   11.8301  -16.2409   18.9596 N   0  0  0  0  0  0  0  0  0  0  0  0
   11.3486  -17.3051   19.7618 C   0  0  0  0  0  0  0  0  0  0  0  0
   11.8982  -18.4192   19.6645 O   0  0  0  0  0  0  0  0  0  0  0  0
   10.2135  -17.0087   20.6670 C   0  0  0  0  0  0  0  0  0  0  0  0
    9.7567  -15.5648   20.5587 C   0  0  0  0  0  0  0  0  0  0  0  0
    8.4153  -15.4761   21.2237 C   0  0  2  0  0  0  0  0  0  0  0  0
    7.5267  -14.7265   20.3720 N   0  0  0  0  0  0  0  0  0  0  0  0
    8.4798  -14.8965   22.5926 C   0  0  0  0  0  0  0  0  0  0  0  0
    8.8674  -13.7230   22.7002 O   0  0  0  0  0  0  0  0  0  0  0  0
    6.1093  -10.9442   26.3025 C   0  0  0  0  0  0  0  0  0  0  0  0
    6.9874  -12.5009   26.5507 S   0  0  0  0  0  0  0  0  0  0  0  0
    6.1938  -13.8391   25.5477 C   0  0  0  0  0  0  0  0  0  0  0  0
    6.8661  -15.1373   25.8130 C   0  0  0  0  0  0  0  0  0  0  0  0
    8.2074  -15.2823   25.0928 C   0  0  2  0  0  0  0  0  0  0  0  0
    8.1084  -15.6687   23.7262 N   0  0  0  0  0  0  0  0  0  0  0  0
    9.1962  -15.8868   25.9332 C   0  0  0  0  0  0  0  0  0  0  0  0
    9.5641  -17.0903   25.6867 O   0  0  0  0  0  0  0  0  0  0  0  0
    9.8618  -15.2868   27.0758 N   0  0  0  0  0  0  0  0  0  0  0  0
    9.6344  -13.9400   27.5322 C   0  0  0  0  0  0  0  0  0  0  0  0
   10.8775  -13.6314   28.3567 C   0  0  0  0  0  0  0  0  0  0  0  0
   11.2508  -14.9558   28.9514 C   0  0  0  0  0  0  0  0  0  0  0  0
   10.8288  -15.9281   27.9174 C   0  0  1  0  0  0  0  0  0  0  0  0
   10.2876  -17.1883   28.5063 C   0  0  0  0  0  0  0  0  0  0  0  0
    9.0755  -17.4397   28.4420 O   0  0  0  0  0  0  0  0  0  0  0  0
   11.1503  -18.0606   29.1176 O   0  0  0  0  0  0  0  0  0  0  0  0
  1  2  1  0
  2  3  2  0
  4  5  1  0
  4  2  1  0
  6  5  1  0
  6  8  1  0
  6  7  1  6
  8  9  2  0
 11 10  1  0
 11 12  1  0
 12 13  1  0
 14 13  1  1
 15  8  1  0
 15 14  1  0
 16 14  1  0
 16 17  2  0
 18 16  1  0
 19 18  1  0
 20 19  1  0
 21 20  1  0
 21 22  1  0
 22 18  1  0
 22 23  1  1
 23 25  1  0
 24 23  2  0
M  END
$$$$
