QMP.pdb
     RDKit          3D

 25 25  0  0  1  0  0  0  0  0999 V2000
    8.8887  -21.8154   25.3397 N   0  0  0  0  0  0  0  0  0  0  0  0
    8.8866  -21.1852   24.0705 C   0  0  0  0  0  0  0  0  0  0  0  0
    9.9074  -21.2727   23.3612 O   0  0  0  0  0  0  0  0  0  0  0  0
    7.6551  -20.4607   23.6779 C   0  0  0  0  0  0  0  0  0  0  0  0
    6.5931  -20.5075   24.7620 C   0  0  0  0  0  0  0  0  0  0  0  0
    5.4377  -19.6801   24.2827 C   0  0  2  0  0  0  0  0  0  0  0  0
    4.7787  -20.3841   23.2118 N   0  0  0  0  0  0  0  0  0  0  0  0
    5.8346  -18.3061   23.8718 C   0  0  0  0  0  0  0  0  0  0  0  0
    5.9777  -18.0900   22.6586 O   0  0  0  0  0  0  0  0  0  0  0  0
    6.9400  -11.0077   26.8347 C   0  0  0  0  0  0  0  0  0  0  0  0
    7.1429  -12.7677   27.1769 S   0  0  0  0  0  0  0  0  0  0  0  0
    7.0503  -13.7314   25.5992 C   0  0  0  0  0  0  0  0  0  0  0  0
    6.7828  -15.1628   25.8950 C   0  0  0  0  0  0  0  0  0  0  0  0
    6.6714  -16.0294   24.6398 C   0  0  2  0  0  0  0  0  0  0  0  0
    6.0389  -17.2885   24.8423 N   0  0  0  0  0  0  0  0  0  0  0  0
    7.8520  -15.9476   23.8343 C   0  0  0  0  0  0  0  0  0  0  0  0
    8.8229  -16.7491   24.0784 O   0  0  0  0  0  0  0  0  0  0  0  0
    8.1005  -15.0353   22.7322 N   0  0  0  0  0  0  0  0  0  0  0  0
    7.2419  -13.9335   22.3816 C   0  0  0  0  0  0  0  0  0  0  0  0
    7.6149  -13.6416   20.9338 C   0  0  0  0  0  0  0  0  0  0  0  0
    9.0746  -13.9755   20.8655 C   0  0  0  0  0  0  0  0  0  0  0  0
    9.2199  -15.0825   21.8381 C   0  0  1  0  0  0  0  0  0  0  0  0
   10.5130  -15.0232   22.5811 C   0  0  0  0  0  0  0  0  0  0  0  0
   10.5278  -14.7623   23.7928 O   0  0  0  0  0  0  0  0  0  0  0  0
   11.6806  -15.2613   21.9036 O   0  0  0  0  0  0  0  0  0  0  0  0
  1  2  1  0
  2  3  2  0
  4  5  1  0
  4  2  1  0
  6  5  1  0
  6  8  1  0
  6  7  1  6
  8  9  2  0
 11 10  1  0
 11 12  1  0
 12 13  1  0
 14 13  1  1
 15  8  1  0
 15 14  1  0
 16 14  1  0
 16 17  2  0
 18 16  1  0
 19 18  1  0
 20 19  1  0
 21 20  1  0
 21 22  1  0
 22 18  1  0
 22 23  1  1
 23 25  1  0
 24 23  2  0
M  END
$$$$
