QMP.pdb
     RDKit          3D

 25 25  0  0  1  0  0  0  0  0999 V2000
    3.9139  -20.7563   20.1821 N   0  0  0  0  0  0  0  0  0  0  0  0
    3.6925  -21.2277   21.5000 C   0  0  0  0  0  0  0  0  0  0  0  0
    2.8263  -22.1051   21.6802 O   0  0  0  0  0  0  0  0  0  0  0  0
    4.5184  -20.6340   22.5776 C   0  0  0  0  0  0  0  0  0  0  0  0
    5.4564  -19.5607   22.0546 C   0  0  0  0  0  0  0  0  0  0  0  0
    6.2132  -19.0247   23.2333 C   0  0  2  0  0  0  0  0  0  0  0  0
    5.9476  -19.8654   24.3733 N   0  0  0  0  0  0  0  0  0  0  0  0
    5.9079  -17.5975   23.5229 C   0  0  0  0  0  0  0  0  0  0  0  0
    4.7277  -17.2308   23.4149 O   0  0  0  0  0  0  0  0  0  0  0  0
    6.3878  -12.3563   26.8572 C   0  0  0  0  0  0  0  0  0  0  0  0
    8.0284  -13.0989   26.7444 S   0  0  0  0  0  0  0  0  0  0  0  0
    7.9765  -14.5759   25.6298 C   0  0  0  0  0  0  0  0  0  0  0  0
    7.1508  -14.2771   24.4311 C   0  0  0  0  0  0  0  0  0  0  0  0
    7.1734  -15.3944   23.3870 C   0  0  2  0  0  0  0  0  0  0  0  0
    6.9385  -16.6982   23.9080 N   0  0  0  0  0  0  0  0  0  0  0  0
    8.2070  -15.1912   22.4175 C   0  0  0  0  0  0  0  0  0  0  0  0
    9.1791  -16.0261   22.3668 O   0  0  0  0  0  0  0  0  0  0  0  0
    8.2989  -14.1162   21.4455 N   0  0  0  0  0  0  0  0  0  0  0  0
    7.4031  -12.9897   21.3945 C   0  0  0  0  0  0  0  0  0  0  0  0
    7.5666  -12.4723   19.9712 C   0  0  0  0  0  0  0  0  0  0  0  0
    9.0004  -12.7648   19.6460 C   0  0  0  0  0  0  0  0  0  0  0  0
    9.2789  -14.0051   20.4055 C   0  0  1  0  0  0  0  0  0  0  0  0
   10.6651  -14.0366   20.9579 C   0  0  0  0  0  0  0  0  0  0  0  0
   10.8813  -13.6878   22.1276 O   0  0  0  0  0  0  0  0  0  0  0  0
   11.6923  -14.4563   20.1531 O   0  0  0  0  0  0  0  0  0  0  0  0
  1  2  1  0
  2  3  2  0
  4  5  1  0
  4  2  1  0
  6  5  1  0
  6  8  1  0
  6  7  1  1
  8  9  2  0
 11 10  1  0
 11 12  1  0
 12 13  1  0
 14 13  1  1
 15  8  1  0
 15 14  1  0
 16 14  1  0
 16 17  2  0
 18 16  1  0
 19 18  1  0
 20 19  1  0
 21 20  1  0
 21 22  1  0
 22 18  1  0
 22 23  1  1
 23 25  1  0
 24 23  2  0
M  END
$$$$
