QMP.pdb
     RDKit          3D

 25 25  0  0  1  0  0  0  0  0999 V2000
    8.7599  -17.1781   16.5579 N   0  0  0  0  0  0  0  0  0  0  0  0
    9.5493  -16.6513   17.6103 C   0  0  0  0  0  0  0  0  0  0  0  0
   10.4741  -15.8666   17.3247 O   0  0  0  0  0  0  0  0  0  0  0  0
    9.2107  -17.0790   18.9880 C   0  0  0  0  0  0  0  0  0  0  0  0
   10.1023  -16.4223   20.0268 C   0  0  0  0  0  0  0  0  0  0  0  0
    9.6420  -16.9044   21.3703 C   0  0  2  0  0  0  0  0  0  0  0  0
    8.2486  -17.2609   21.2802 N   0  0  0  0  0  0  0  0  0  0  0  0
    9.8856  -15.9193   22.4586 C   0  0  0  0  0  0  0  0  0  0  0  0
   11.0376  -15.4762   22.5829 O   0  0  0  0  0  0  0  0  0  0  0  0
    5.1266  -12.7324   26.8173 C   0  0  0  0  0  0  0  0  0  0  0  0
    6.6931  -11.9192   26.4422 S   0  0  0  0  0  0  0  0  0  0  0  0
    8.0214  -13.1871   26.2087 C   0  0  0  0  0  0  0  0  0  0  0  0
    7.8216  -13.8985   24.9195 C   0  0  0  0  0  0  0  0  0  0  0  0
    8.9565  -14.8659   24.5802 C   0  0  2  0  0  0  0  0  0  0  0  0
    8.8297  -15.5095   23.3167 N   0  0  0  0  0  0  0  0  0  0  0  0
    9.3680  -15.6206   25.7249 C   0  0  0  0  0  0  0  0  0  0  0  0
    9.0654  -16.8654   25.7855 O   0  0  0  0  0  0  0  0  0  0  0  0
   10.1137  -15.1364   26.8730 N   0  0  0  0  0  0  0  0  0  0  0  0
   10.3051  -13.7442   27.1878 C   0  0  0  0  0  0  0  0  0  0  0  0
   11.5227  -13.7528   28.1030 C   0  0  0  0  0  0  0  0  0  0  0  0
   11.4056  -15.0512   28.8429 C   0  0  0  0  0  0  0  0  0  0  0  0
   10.7617  -15.9508   27.8587 C   0  0  1  0  0  0  0  0  0  0  0  0
    9.8029  -16.9007   28.4959 C   0  0  0  0  0  0  0  0  0  0  0  0
    8.5840  -16.7849   28.3018 O   0  0  0  0  0  0  0  0  0  0  0  0
   10.2906  -17.9004   29.2970 O   0  0  0  0  0  0  0  0  0  0  0  0
  1  2  1  0
  2  3  2  0
  4  5  1  0
  4  2  1  0
  6  5  1  0
  6  8  1  0
  6  7  1  6
  8  9  2  0
 11 10  1  0
 11 12  1  0
 12 13  1  0
 14 13  1  1
 15  8  1  0
 15 14  1  0
 16 14  1  0
 16 17  2  0
 18 16  1  0
 19 18  1  0
 20 19  1  0
 21 20  1  0
 21 22  1  0
 22 18  1  0
 22 23  1  1
 23 25  1  0
 24 23  2  0
M  END
$$$$
