QMP.pdb
     RDKit          3D

 25 25  0  0  1  0  0  0  0  0999 V2000
    8.7950  -12.9264   19.0685 N   0  0  0  0  0  0  0  0  0  0  0  0
    8.2151  -14.1206   18.5729 C   0  0  0  0  0  0  0  0  0  0  0  0
    7.2469  -14.0328   17.7934 O   0  0  0  0  0  0  0  0  0  0  0  0
    8.8115  -15.3995   19.0250 C   0  0  0  0  0  0  0  0  0  0  0  0
   10.0700  -15.1854   19.8470 C   0  0  0  0  0  0  0  0  0  0  0  0
    9.9765  -16.0903   21.0394 C   0  0  2  0  0  0  0  0  0  0  0  0
    8.8707  -16.9942   20.8471 N   0  0  0  0  0  0  0  0  0  0  0  0
    9.8616  -15.3508   22.3255 C   0  0  0  0  0  0  0  0  0  0  0  0
   10.6865  -14.4505   22.5443 O   0  0  0  0  0  0  0  0  0  0  0  0
    5.9382  -11.5521   27.5612 C   0  0  0  0  0  0  0  0  0  0  0  0
    5.7721  -12.6540   26.1420 S   0  0  0  0  0  0  0  0  0  0  0  0
    7.1332  -13.9086   26.1554 C   0  0  0  0  0  0  0  0  0  0  0  0
    7.2766  -14.5146   24.8063 C   0  0  0  0  0  0  0  0  0  0  0  0
    8.6613  -15.1139   24.5564 C   0  0  2  0  0  0  0  0  0  0  0  0
    8.8406  -15.6733   23.2597 N   0  0  0  0  0  0  0  0  0  0  0  0
    9.1507  -15.8121   25.7064 C   0  0  0  0  0  0  0  0  0  0  0  0
    9.0566  -17.0907   25.7390 O   0  0  0  0  0  0  0  0  0  0  0  0
    9.7638  -15.2336   26.8888 N   0  0  0  0  0  0  0  0  0  0  0  0
    9.6530  -13.8477   27.2646 C   0  0  0  0  0  0  0  0  0  0  0  0
   10.8342  -13.6407   28.2039 C   0  0  0  0  0  0  0  0  0  0  0  0
   10.9856  -14.9664   28.8869 C   0  0  0  0  0  0  0  0  0  0  0  0
   10.5577  -15.9364   27.8532 C   0  0  1  0  0  0  0  0  0  0  0  0
    9.8140  -17.0945   28.4306 C   0  0  0  0  0  0  0  0  0  0  0  0
   10.4099  -17.9507   29.1004 O   0  0  0  0  0  0  0  0  0  0  0  0
    8.4651  -17.1957   28.2090 O   0  0  0  0  0  0  0  0  0  0  0  0
  1  2  1  0
  2  3  2  0
  4  5  1  0
  4  2  1  0
  6  5  1  0
  6  8  1  0
  6  7  1  6
  8  9  2  0
 11 10  1  0
 11 12  1  0
 12 13  1  0
 14 13  1  1
 15  8  1  0
 15 14  1  0
 16 14  1  0
 16 17  2  0
 18 16  1  0
 19 18  1  0
 20 19  1  0
 21 20  1  0
 21 22  1  0
 22 18  1  0
 22 23  1  1
 23 25  1  0
 24 23  2  0
M  END
$$$$
