QMP.pdb
     RDKit          3D

 25 25  0  0  1  0  0  0  0  0999 V2000
    7.4684  -22.6418   24.0813 N   0  0  0  0  0  0  0  0  0  0  0  0
    6.0779  -22.7268   23.8221 C   0  0  0  0  0  0  0  0  0  0  0  0
    5.5684  -23.8542   23.6731 O   0  0  0  0  0  0  0  0  0  0  0  0
    5.3255  -21.4524   23.7469 C   0  0  0  0  0  0  0  0  0  0  0  0
    6.2133  -20.2475   24.0024 C   0  0  0  0  0  0  0  0  0  0  0  0
    5.3320  -19.0346   23.9618 C   0  0  2  0  0  0  0  0  0  0  0  0
    4.2779  -19.2619   23.0059 N   0  0  0  0  0  0  0  0  0  0  0  0
    6.0776  -17.7812   23.6666 C   0  0  0  0  0  0  0  0  0  0  0  0
    6.4330  -17.5888   22.4937 O   0  0  0  0  0  0  0  0  0  0  0  0
    7.4926  -11.6850   26.7762 C   0  0  0  0  0  0  0  0  0  0  0  0
    5.9833  -12.6601   26.9406 S   0  0  0  0  0  0  0  0  0  0  0  0
    5.9809  -14.0323   25.6981 C   0  0  0  0  0  0  0  0  0  0  0  0
    7.2538  -14.7942   25.7826 C   0  0  0  0  0  0  0  0  0  0  0  0
    7.3928  -15.8621   24.6966 C   0  0  2  0  0  0  0  0  0  0  0  0
    6.3654  -16.8475   24.6983 N   0  0  0  0  0  0  0  0  0  0  0  0
    8.7569  -16.2568   24.5148 C   0  0  0  0  0  0  0  0  0  0  0  0
    9.2614  -17.1222   25.3155 O   0  0  0  0  0  0  0  0  0  0  0  0
    9.6794  -15.7822   23.4987 N   0  0  0  0  0  0  0  0  0  0  0  0
    9.3844  -14.7266   22.5645 C   0  0  0  0  0  0  0  0  0  0  0  0
   10.3846  -14.9604   21.4396 C   0  0  0  0  0  0  0  0  0  0  0  0
   11.5871  -15.5180   22.1396 C   0  0  0  0  0  0  0  0  0  0  0  0
   11.0056  -16.2759   23.2710 C   0  0  1  0  0  0  0  0  0  0  0  0
   11.8392  -16.1868   24.5058 C   0  0  0  0  0  0  0  0  0  0  0  0
   11.4109  -15.5991   25.5097 O   0  0  0  0  0  0  0  0  0  0  0  0
   13.0826  -16.7637   24.5118 O   0  0  0  0  0  0  0  0  0  0  0  0
  1  2  1  0
  2  3  2  0
  4  5  1  0
  4  2  1  0
  6  5  1  0
  6  8  1  0
  6  7  1  6
  8  9  2  0
 11 10  1  0
 11 12  1  0
 12 13  1  0
 14 13  1  1
 15  8  1  0
 15 14  1  0
 16 14  1  0
 16 17  2  0
 18 16  1  0
 19 18  1  0
 20 19  1  0
 21 20  1  0
 21 22  1  0
 22 18  1  0
 22 23  1  1
 23 25  1  0
 24 23  2  0
M  END
$$$$
