QMP.pdb
     RDKit          3D

 25 25  0  0  1  0  0  0  0  0999 V2000
    9.0848  -13.7884   17.2264 N   0  0  0  0  0  0  0  0  0  0  0  0
    8.3093  -14.6991   17.9862 C   0  0  0  0  0  0  0  0  0  0  0  0
    7.5119  -15.4457   17.3869 O   0  0  0  0  0  0  0  0  0  0  0  0
    8.5081  -14.6943   19.4546 C   0  0  0  0  0  0  0  0  0  0  0  0
    9.9646  -14.8904   19.8359 C   0  0  0  0  0  0  0  0  0  0  0  0
    9.9921  -15.8399   20.9965 C   0  0  2  0  0  0  0  0  0  0  0  0
    8.9679  -16.8350   20.8029 N   0  0  0  0  0  0  0  0  0  0  0  0
    9.8514  -15.1582   22.3116 C   0  0  0  0  0  0  0  0  0  0  0  0
   10.6351  -14.2299   22.5625 O   0  0  0  0  0  0  0  0  0  0  0  0
    6.1346  -11.6258   27.7702 C   0  0  0  0  0  0  0  0  0  0  0  0
    6.1686  -12.3927   26.1372 S   0  0  0  0  0  0  0  0  0  0  0  0
    7.0933  -13.9945   26.2122 C   0  0  0  0  0  0  0  0  0  0  0  0
    7.2476  -14.5549   24.8447 C   0  0  0  0  0  0  0  0  0  0  0  0
    8.6588  -15.0696   24.5574 C   0  0  2  0  0  0  0  0  0  0  0  0
    8.8524  -15.5647   23.2368 N   0  0  0  0  0  0  0  0  0  0  0  0
    9.1967  -15.7881   25.6727 C   0  0  0  0  0  0  0  0  0  0  0  0
    9.1738  -17.0701   25.6506 O   0  0  0  0  0  0  0  0  0  0  0  0
    9.7881  -15.2274   26.8746 N   0  0  0  0  0  0  0  0  0  0  0  0
    9.7144  -13.8370   27.2425 C   0  0  0  0  0  0  0  0  0  0  0  0
   10.8682  -13.6692   28.2228 C   0  0  0  0  0  0  0  0  0  0  0  0
   10.9468  -14.9967   28.9144 C   0  0  0  0  0  0  0  0  0  0  0  0
   10.5210  -15.9548   27.8687 C   0  0  1  0  0  0  0  0  0  0  0  0
    9.7156  -17.0828   28.4223 C   0  0  0  0  0  0  0  0  0  0  0  0
    8.5006  -17.1590   28.1882 O   0  0  0  0  0  0  0  0  0  0  0  0
   10.3393  -18.0305   29.1916 O   0  0  0  0  0  0  0  0  0  0  0  0
  1  2  1  0
  2  3  2  0
  4  5  1  0
  4  2  1  0
  6  5  1  0
  6  8  1  0
  6  7  1  6
  8  9  2  0
 11 10  1  0
 11 12  1  0
 12 13  1  0
 14 13  1  1
 15  8  1  0
 15 14  1  0
 16 14  1  0
 16 17  2  0
 18 16  1  0
 19 18  1  0
 20 19  1  0
 21 20  1  0
 21 22  1  0
 22 18  1  0
 22 23  1  1
 23 25  1  0
 24 23  2  0
M  END
$$$$
