GCQ.pdb
     RDKit          3D

 20 19  0  0  1  0  0  0  0  0999 V2000
   -2.2040  -21.9009   18.6513 N   0  0  0  0  0  0  0  0  0  0  0  0
   -0.8682  -22.4538   18.7613 C   0  0  0  0  0  0  0  0  0  0  0  0
   -0.5922  -22.7229   20.1810 C   0  0  0  0  0  0  0  0  0  0  0  0
   -0.2406  -21.7873   20.9582 O   0  0  0  0  0  0  0  0  0  0  0  0
   -0.7016  -24.0292   20.7585 N   0  0  0  0  0  0  0  0  0  0  0  0
   -0.2935  -24.2487   22.1049 C   0  0  1  0  0  0  0  0  0  0  0  0
   -1.0104  -25.4436   22.6906 C   0  0  0  0  0  0  0  0  0  0  0  0
   -0.7574  -25.6174   24.4551 S   0  0  0  0  0  0  0  0  0  0  0  0
    1.1703  -24.4573   22.2468 C   0  0  0  0  0  0  0  0  0  0  0  0
    1.7965  -25.1131   21.3757 O   0  0  0  0  0  0  0  0  0  0  0  0
    5.2774  -20.6288   25.0542 N   0  0  0  0  0  0  0  0  0  0  0  0
    6.1277  -21.7207   24.6593 C   0  0  0  0  0  0  0  0  0  0  0  0
    7.3626  -21.6141   24.8358 O   0  0  0  0  0  0  0  0  0  0  0  0
    5.4796  -22.9119   24.0643 C   0  0  0  0  0  0  0  0  0  0  0  0
    4.0005  -22.7947   23.9455 C   0  0  0  0  0  0  0  0  0  0  0  0
    3.3705  -24.0666   23.4409 C   0  0  2  0  0  0  0  0  0  0  0  0
    1.9244  -23.9475   23.3353 N   0  0  0  0  0  0  0  0  0  0  0  0
    3.6499  -25.0905   24.5142 C   0  0  0  0  0  0  0  0  0  0  0  0
    4.7489  -25.6872   24.5824 O   0  0  0  0  0  0  0  0  0  0  0  0
    2.6953  -25.4076   25.4663 O   0  0  0  0  0  0  0  0  0  0  0  0
  1  2  1  0
  3  4  2  0
  3  2  1  0
  5  3  1  0
  6  5  1  0
  7  8  1  0
  6  7  1  6
  9  6  1  0
  9 10  2  0
 11 12  1  0
 12 14  1  0
 13 12  2  0
 14 15  1  0
 16 17  1  0
 16 15  1  1
 17  9  1  0
 18 16  1  0
 19 18  2  0
 20 18  1  0
M  END
$$$$
