GCQ.pdb
     RDKit          3D

 20 19  0  0  1  0  0  0  0  0999 V2000
    8.4345  -12.9918   17.4044 N   0  0  0  0  0  0  0  0  0  0  0  0
    7.9144  -14.1393   18.1221 C   0  0  0  0  0  0  0  0  0  0  0  0
    8.4609  -14.1197   19.4879 C   0  0  0  0  0  0  0  0  0  0  0  0
    9.6959  -13.9229   19.6855 O   0  0  0  0  0  0  0  0  0  0  0  0
    7.6489  -14.3173   20.6513 N   0  0  0  0  0  0  0  0  0  0  0  0
    8.2430  -14.3006   21.9452 C   0  0  1  0  0  0  0  0  0  0  0  0
    7.1854  -14.1530   23.0150 C   0  0  0  0  0  0  0  0  0  0  0  0
    7.8628  -14.1347   24.6728 S   0  0  0  0  0  0  0  0  0  0  0  0
    9.0463  -15.5156   22.2368 C   0  0  0  0  0  0  0  0  0  0  0  0
    8.5633  -16.6543   22.0111 O   0  0  0  0  0  0  0  0  0  0  0  0
   14.6675  -14.4836   21.6908 N   0  0  0  0  0  0  0  0  0  0  0  0
   13.4826  -14.9445   21.0162 C   0  0  0  0  0  0  0  0  0  0  0  0
   12.9588  -14.2063   20.1513 O   0  0  0  0  0  0  0  0  0  0  0  0
   12.9552  -16.2761   21.3927 C   0  0  0  0  0  0  0  0  0  0  0  0
   12.6250  -16.4048   22.8384 C   0  0  0  0  0  0  0  0  0  0  0  0
   11.1558  -16.6490   23.0641 C   0  0  2  0  0  0  0  0  0  0  0  0
   10.3608  -15.4670   22.7690 N   0  0  0  0  0  0  0  0  0  0  0  0
   11.0282  -16.9057   24.5461 C   0  0  0  0  0  0  0  0  0  0  0  0
   11.6171  -17.8622   25.1000 O   0  0  0  0  0  0  0  0  0  0  0  0
   10.2512  -16.0877   25.3495 O   0  0  0  0  0  0  0  0  0  0  0  0
  1  2  1  0
  3  4  2  0
  3  2  1  0
  5  3  1  0
  6  5  1  0
  7  8  1  0
  6  7  1  1
  9  6  1  0
  9 10  2  0
 11 12  1  0
 12 14  1  0
 13 12  2  0
 14 15  1  0
 16 17  1  0
 16 15  1  1
 17  9  1  0
 18 16  1  0
 19 18  2  0
 20 18  1  0
M  END
$$$$
