GCQ.pdb
     RDKit          3D

 20 19  0  0  1  0  0  0  0  0999 V2000
    7.8942  -12.8741   19.5264 N   0  0  0  0  0  0  0  0  0  0  0  0
    7.0778  -13.6128   20.4697 C   0  0  0  0  0  0  0  0  0  0  0  0
    7.7297  -13.5624   21.7875 C   0  0  0  0  0  0  0  0  0  0  0  0
    8.9870  -13.6709   21.8895 O   0  0  0  0  0  0  0  0  0  0  0  0
    6.9998  -13.3913   23.0081 N   0  0  0  0  0  0  0  0  0  0  0  0
    7.6731  -13.4855   24.2593 C   0  0  1  0  0  0  0  0  0  0  0  0
    6.8645  -12.8218   25.3504 C   0  0  0  0  0  0  0  0  0  0  0  0
    7.6792  -12.8541   26.9451 S   0  0  0  0  0  0  0  0  0  0  0  0
    7.9601  -14.8850   24.6662 C   0  0  0  0  0  0  0  0  0  0  0  0
    7.0327  -15.7338   24.6863 O   0  0  0  0  0  0  0  0  0  0  0  0
    9.9202  -18.3512   21.5211 N   0  0  0  0  0  0  0  0  0  0  0  0
   10.9581  -18.1316   22.4936 C   0  0  0  0  0  0  0  0  0  0  0  0
   11.8868  -18.9668   22.5793 O   0  0  0  0  0  0  0  0  0  0  0  0
   10.8592  -16.9191   23.3378 C   0  0  0  0  0  0  0  0  0  0  0  0
   10.8165  -17.2053   24.7980 C   0  0  0  0  0  0  0  0  0  0  0  0
    9.5484  -16.7023   25.4368 C   0  0  2  0  0  0  0  0  0  0  0  0
    9.2524  -15.3333   25.0437 N   0  0  0  0  0  0  0  0  0  0  0  0
    9.8418  -16.6806   26.9174 C   0  0  0  0  0  0  0  0  0  0  0  0
   10.0876  -17.7311   27.5535 O   0  0  0  0  0  0  0  0  0  0  0  0
    9.8495  -15.4918   27.6278 O   0  0  0  0  0  0  0  0  0  0  0  0
  1  2  1  0
  3  4  2  0
  3  2  1  0
  5  3  1  0
  6  5  1  0
  7  8  1  0
  6  7  1  1
  9  6  1  0
  9 10  2  0
 11 12  1  0
 12 14  1  0
 13 12  2  0
 14 15  1  0
 16 17  1  0
 16 15  1  6
 17  9  1  0
 18 16  1  0
 19 18  2  0
 20 18  1  0
M  END
$$$$
