GCQ.pdb
     RDKit          3D

 20 19  0  0  1  0  0  0  0  0999 V2000
    7.4988  -12.9428   19.7156 N   0  0  0  0  0  0  0  0  0  0  0  0
    6.7674  -13.7643   20.6603 C   0  0  0  0  0  0  0  0  0  0  0  0
    7.5469  -13.8466   21.9052 C   0  0  0  0  0  0  0  0  0  0  0  0
    8.8126  -13.8576   21.8741 O   0  0  0  0  0  0  0  0  0  0  0  0
    6.9368  -13.9176   23.1993 N   0  0  0  0  0  0  0  0  0  0  0  0
    7.7388  -14.1499   24.3526 C   0  0  1  0  0  0  0  0  0  0  0  0
    6.9439  -13.8984   25.6135 C   0  0  0  0  0  0  0  0  0  0  0  0
    6.3213  -12.2230   25.7273 S   0  0  0  0  0  0  0  0  0  0  0  0
    8.2975  -15.5250   24.4105 C   0  0  0  0  0  0  0  0  0  0  0  0
    7.5317  -16.5167   24.3050 O   0  0  0  0  0  0  0  0  0  0  0  0
   10.8022  -17.6078   20.4902 N   0  0  0  0  0  0  0  0  0  0  0  0
   11.5914  -17.8321   21.6727 C   0  0  0  0  0  0  0  0  0  0  0  0
   12.1660  -18.9358   21.8105 O   0  0  0  0  0  0  0  0  0  0  0  0
   11.6737  -16.7308   22.6592 C   0  0  0  0  0  0  0  0  0  0  0  0
   11.6321  -17.1881   24.0752 C   0  0  0  0  0  0  0  0  0  0  0  0
   10.2393  -17.1353   24.6466 C   0  0  2  0  0  0  0  0  0  0  0  0
    9.6801  -15.7938   24.5821 N   0  0  0  0  0  0  0  0  0  0  0  0
   10.4065  -17.4719   26.1085 C   0  0  0  0  0  0  0  0  0  0  0  0
   10.1517  -16.6381   27.0076 O   0  0  0  0  0  0  0  0  0  0  0  0
   10.8500  -18.7214   26.5087 O   0  0  0  0  0  0  0  0  0  0  0  0
  1  2  1  0
  3  4  2  0
  3  2  1  0
  5  3  1  0
  6  5  1  0
  7  8  1  0
  6  7  1  1
  9  6  1  0
  9 10  2  0
 11 12  1  0
 12 14  1  0
 13 12  2  0
 14 15  1  0
 16 17  1  0
 16 15  1  6
 17  9  1  0
 18 16  1  0
 19 18  2  0
 20 18  1  0
M  END
$$$$
