GCQ.pdb
     RDKit          3D

 20 19  0  0  1  0  0  0  0  0999 V2000
    7.3011  -15.7864   19.1249 N   0  0  0  0  0  0  0  0  0  0  0  0
    6.4938  -15.6389   20.3202 C   0  0  0  0  0  0  0  0  0  0  0  0
    7.3611  -15.1685   21.4114 C   0  0  0  0  0  0  0  0  0  0  0  0
    8.6135  -15.0807   21.2475 O   0  0  0  0  0  0  0  0  0  0  0  0
    6.8545  -14.7896   22.6966 N   0  0  0  0  0  0  0  0  0  0  0  0
    7.7497  -14.3532   23.7142 C   0  0  1  0  0  0  0  0  0  0  0  0
    6.9878  -13.7398   24.8666 C   0  0  0  0  0  0  0  0  0  0  0  0
    8.0552  -13.1541   26.1802 S   0  0  0  0  0  0  0  0  0  0  0  0
    8.6124  -15.4414   24.2416 C   0  0  0  0  0  0  0  0  0  0  0  0
    8.1123  -16.5644   24.5053 O   0  0  0  0  0  0  0  0  0  0  0  0
   14.8891  -15.7374   23.3819 N   0  0  0  0  0  0  0  0  0  0  0  0
   14.6394  -16.9507   24.1146 C   0  0  0  0  0  0  0  0  0  0  0  0
   15.5961  -17.7286   24.3314 O   0  0  0  0  0  0  0  0  0  0  0  0
   13.2529  -17.2021   24.5696 C   0  0  0  0  0  0  0  0  0  0  0  0
   12.3073  -16.0965   24.2544 C   0  0  0  0  0  0  0  0  0  0  0  0
   10.9087  -16.3954   24.7274 C   0  0  2  0  0  0  0  0  0  0  0  0
   10.0038  -15.2853   24.4718 N   0  0  0  0  0  0  0  0  0  0  0  0
   11.0264  -16.5303   26.2262 C   0  0  0  0  0  0  0  0  0  0  0  0
   10.8132  -15.5621   26.9914 O   0  0  0  0  0  0  0  0  0  0  0  0
   11.3761  -17.7363   26.8106 O   0  0  0  0  0  0  0  0  0  0  0  0
  1  2  1  0
  3  4  2  0
  3  2  1  0
  5  3  1  0
  6  5  1  0
  7  8  1  0
  6  7  1  1
  9  6  1  0
  9 10  2  0
 11 12  1  0
 12 14  1  0
 13 12  2  0
 14 15  1  0
 16 17  1  0
 16 15  1  6
 17  9  1  0
 18 16  1  0
 19 18  2  0
 20 18  1  0
M  END
$$$$
