GCQ.pdb
     RDKit          3D

 20 19  0  0  1  0  0  0  0  0999 V2000
    7.3891  -14.6898   20.0089 N   0  0  0  0  0  0  0  0  0  0  0  0
    6.6415  -15.2693   21.1077 C   0  0  0  0  0  0  0  0  0  0  0  0
    7.4372  -15.1273   22.3369 C   0  0  0  0  0  0  0  0  0  0  0  0
    8.6202  -15.5748   22.3946 O   0  0  0  0  0  0  0  0  0  0  0  0
    6.9350  -14.4891   23.5169 N   0  0  0  0  0  0  0  0  0  0  0  0
    7.6863  -14.5347   24.7255 C   0  0  1  0  0  0  0  0  0  0  0  0
    7.0901  -13.6062   25.7586 C   0  0  0  0  0  0  0  0  0  0  0  0
    7.0833  -11.8920   25.2399 S   0  0  0  0  0  0  0  0  0  0  0  0
    7.7759  -15.8980   25.3085 C   0  0  0  0  0  0  0  0  0  0  0  0
    6.7300  -16.5725   25.4869 O   0  0  0  0  0  0  0  0  0  0  0  0
   10.2471  -20.6258   23.1427 N   0  0  0  0  0  0  0  0  0  0  0  0
   10.9733  -19.3845   23.1986 C   0  0  0  0  0  0  0  0  0  0  0  0
   11.8760  -19.1787   22.3559 O   0  0  0  0  0  0  0  0  0  0  0  0
   10.6009  -18.4213   24.2599 C   0  0  0  0  0  0  0  0  0  0  0  0
    9.4135  -18.8346   25.0568 C   0  0  0  0  0  0  0  0  0  0  0  0
    9.1156  -17.8672   26.1724 C   0  0  2  0  0  0  0  0  0  0  0  0
    9.0038  -16.5007   25.6862 N   0  0  0  0  0  0  0  0  0  0  0  0
   10.3318  -17.9178   27.0651 C   0  0  0  0  0  0  0  0  0  0  0  0
   11.1201  -16.9489   27.1564 O   0  0  0  0  0  0  0  0  0  0  0  0
   10.6200  -19.0438   27.8184 O   0  0  0  0  0  0  0  0  0  0  0  0
  1  2  1  0
  3  4  2  0
  3  2  1  0
  5  3  1  0
  6  5  1  0
  7  8  1  0
  6  7  1  1
  9  6  1  0
  9 10  2  0
 11 12  1  0
 12 14  1  0
 13 12  2  0
 14 15  1  0
 16 17  1  0
 16 15  1  6
 17  9  1  0
 18 16  1  0
 19 18  2  0
 20 18  1  0
M  END
$$$$
