GCQ.pdb
     RDKit          3D

 20 19  0  0  1  0  0  0  0  0999 V2000
    4.1824  -21.5422   22.5644 N   0  0  0  0  0  0  0  0  0  0  0  0
    4.0733  -20.1293   22.8709 C   0  0  0  0  0  0  0  0  0  0  0  0
    5.4063  -19.6302   23.2424 C   0  0  0  0  0  0  0  0  0  0  0  0
    6.3958  -20.4178   23.3037 O   0  0  0  0  0  0  0  0  0  0  0  0
    5.6617  -18.2548   23.5506 N   0  0  0  0  0  0  0  0  0  0  0  0
    6.9524  -17.8533   23.9982 C   0  0  1  0  0  0  0  0  0  0  0  0
    7.1012  -16.3513   23.9160 C   0  0  0  0  0  0  0  0  0  0  0  0
    8.7109  -15.7760   24.4505 S   0  0  0  0  0  0  0  0  0  0  0  0
    7.2507  -18.2842   25.3881 C   0  0  0  0  0  0  0  0  0  0  0  0
    6.4218  -18.0561   26.3057 O   0  0  0  0  0  0  0  0  0  0  0  0
    7.2898  -22.6951   28.2260 N   0  0  0  0  0  0  0  0  0  0  0  0
    8.2517  -22.1704   29.1593 C   0  0  0  0  0  0  0  0  0  0  0  0
    8.1752  -22.5185   30.3595 O   0  0  0  0  0  0  0  0  0  0  0  0
    9.2802  -21.2440   28.6334 C   0  0  0  0  0  0  0  0  0  0  0  0
    9.0450  -20.8215   27.2256 C   0  0  0  0  0  0  0  0  0  0  0  0
    8.7702  -19.3445   27.1161 C   0  0  2  0  0  0  0  0  0  0  0  0
    8.4466  -18.9555   25.7521 N   0  0  0  0  0  0  0  0  0  0  0  0
   10.0799  -18.6792   27.4637 C   0  0  0  0  0  0  0  0  0  0  0  0
   10.9241  -18.3918   26.5845 O   0  0  0  0  0  0  0  0  0  0  0  0
   10.3952  -18.3617   28.7744 O   0  0  0  0  0  0  0  0  0  0  0  0
  1  2  1  0
  3  4  2  0
  3  2  1  0
  5  3  1  0
  6  5  1  0
  7  8  1  0
  6  7  1  1
  9  6  1  0
  9 10  2  0
 11 12  1  0
 12 14  1  0
 13 12  2  0
 14 15  1  0
 16 17  1  0
 16 15  1  6
 17  9  1  0
 18 16  1  0
 19 18  2  0
 20 18  1  0
M  END
$$$$
