GCQ.pdb
     RDKit          3D

 20 19  0  0  1  0  0  0  0  0999 V2000
    8.7526  -17.3347   17.2110 N   0  0  0  0  0  0  0  0  0  0  0  0
    7.8524  -17.1317   18.3294 C   0  0  0  0  0  0  0  0  0  0  0  0
    8.5605  -16.3582   19.3612 C   0  0  0  0  0  0  0  0  0  0  0  0
    9.8009  -16.1274   19.2563 O   0  0  0  0  0  0  0  0  0  0  0  0
    7.9060  -15.8308   20.5210 N   0  0  0  0  0  0  0  0  0  0  0  0
    8.6706  -15.2098   21.5492 C   0  0  1  0  0  0  0  0  0  0  0  0
    7.7796  -14.3897   22.4539 C   0  0  0  0  0  0  0  0  0  0  0  0
    6.4476  -15.3432   23.1780 S   0  0  0  0  0  0  0  0  0  0  0  0
    9.4289  -16.1785   22.3816 C   0  0  0  0  0  0  0  0  0  0  0  0
    9.0360  -17.3695   22.4705 O   0  0  0  0  0  0  0  0  0  0  0  0
   15.8772  -15.7692   24.3503 N   0  0  0  0  0  0  0  0  0  0  0  0
   15.4166  -16.8472   23.5154 C   0  0  0  0  0  0  0  0  0  0  0  0
   16.2083  -17.3399   22.6800 O   0  0  0  0  0  0  0  0  0  0  0  0
   14.0219  -17.3087   23.7014 C   0  0  0  0  0  0  0  0  0  0  0  0
   12.9984  -16.3164   23.2728 C   0  0  0  0  0  0  0  0  0  0  0  0
   11.5962  -16.7986   23.5382 C   0  0  2  0  0  0  0  0  0  0  0  0
   10.6013  -15.8311   23.1017 N   0  0  0  0  0  0  0  0  0  0  0  0
   11.4939  -16.8862   25.0417 C   0  0  0  0  0  0  0  0  0  0  0  0
   10.9179  -15.9999   25.7134 O   0  0  0  0  0  0  0  0  0  0  0  0
   12.0365  -17.9556   25.7345 O   0  0  0  0  0  0  0  0  0  0  0  0
  1  2  1  0
  3  4  2  0
  3  2  1  0
  5  3  1  0
  6  5  1  0
  7  8  1  0
  6  7  1  1
  9  6  1  0
  9 10  2  0
 11 12  1  0
 12 14  1  0
 13 12  2  0
 14 15  1  0
 16 17  1  0
 16 15  1  1
 17  9  1  0
 18 16  1  0
 19 18  2  0
 20 18  1  0
M  END
$$$$
