GCQ.pdb
     RDKit          3D

 20 19  0  0  1  0  0  0  0  0999 V2000
    8.0447  -13.0305   18.9847 N   0  0  0  0  0  0  0  0  0  0  0  0
    7.3176  -13.8756   19.9116 C   0  0  0  0  0  0  0  0  0  0  0  0
    7.7261  -13.5230   21.2802 C   0  0  0  0  0  0  0  0  0  0  0  0
    8.7729  -12.8408   21.4851 O   0  0  0  0  0  0  0  0  0  0  0  0
    6.9827  -13.9202   22.4384 N   0  0  0  0  0  0  0  0  0  0  0  0
    7.4531  -13.5779   23.7380 C   0  0  1  0  0  0  0  0  0  0  0  0
    6.3035  -13.1666   24.6293 C   0  0  0  0  0  0  0  0  0  0  0  0
    6.8180  -12.7669   26.2975 S   0  0  0  0  0  0  0  0  0  0  0  0
    8.1964  -14.6799   24.4010 C   0  0  0  0  0  0  0  0  0  0  0  0
    7.7697  -15.8599   24.3207 O   0  0  0  0  0  0  0  0  0  0  0  0
   10.5967  -14.4916   29.9850 N   0  0  0  0  0  0  0  0  0  0  0  0
   11.0057  -15.8138   29.5901 C   0  0  0  0  0  0  0  0  0  0  0  0
   11.4377  -16.5955   30.4674 O   0  0  0  0  0  0  0  0  0  0  0  0
   10.8868  -16.1672   28.1570 C   0  0  0  0  0  0  0  0  0  0  0  0
   10.3866  -15.0551   27.3034 C   0  0  0  0  0  0  0  0  0  0  0  0
   10.0516  -15.5178   25.9095 C   0  0  2  0  0  0  0  0  0  0  0  0
    9.3909  -14.4755   25.1392 N   0  0  0  0  0  0  0  0  0  0  0  0
    9.0462  -16.6275   26.1001 C   0  0  0  0  0  0  0  0  0  0  0  0
    9.3573  -17.8300   25.9398 O   0  0  0  0  0  0  0  0  0  0  0  0
    7.7375  -16.3531   26.4607 O   0  0  0  0  0  0  0  0  0  0  0  0
  1  2  1  0
  3  4  2  0
  3  2  1  0
  5  3  1  0
  6  5  1  0
  7  8  1  0
  6  7  1  1
  9  6  1  0
  9 10  2  0
 11 12  1  0
 12 14  1  0
 13 12  2  0
 14 15  1  0
 16 17  1  0
 16 15  1  1
 17  9  1  0
 18 16  1  0
 19 18  2  0
 20 18  1  0
M  END
$$$$
