AGI.pdb
     RDKit          3D

 18 17  0  0  1  0  0  0  0  0999 V2000
    6.4756  -19.0892   19.8114 C   0  0  0  0  0  0  0  0  0  0  0  0
    6.7757  -18.6199   21.2329 C   0  0  2  0  0  0  0  0  0  0  0  0
    5.5832  -18.5364   22.0160 N   0  0  0  0  0  0  0  0  0  0  0  0
    7.4782  -17.3148   21.1132 C   0  0  0  0  0  0  0  0  0  0  0  0
    8.5806  -17.2523   20.5123 O   0  0  0  0  0  0  0  0  0  0  0  0
    6.9670  -16.1083   21.6487 N   0  0  0  0  0  0  0  0  0  0  0  0
    7.6721  -14.8497   21.5248 C   0  0  0  0  0  0  0  0  0  0  0  0
    8.3076  -14.4556   22.8085 C   0  0  0  0  0  0  0  0  0  0  0  0
    9.3629  -13.7362   22.7731 O   0  0  0  0  0  0  0  0  0  0  0  0
    5.8758  -11.5845   26.0154 C   0  0  0  0  0  0  0  0  0  0  0  0
    7.0067  -12.3263   25.4176 C   0  0  0  0  0  0  0  0  0  0  0  0
    7.4834  -13.5614   26.0561 C   0  0  2  0  0  0  0  0  0  0  0  0
    7.8870  -13.2898   27.5113 C   0  0  0  0  0  0  0  0  0  0  0  0
    8.4557  -14.3999   25.3486 C   0  0  2  0  0  0  0  0  0  0  0  0
    7.8269  -14.8204   24.0661 N   0  0  0  0  0  0  0  0  0  0  0  0
    9.1027  -15.5243   25.9815 C   0  0  0  0  0  0  0  0  0  0  0  0
    8.7100  -16.8397   25.5993 O   0  0  0  0  0  0  0  0  0  0  0  0
    9.9955  -15.5242   26.8534 O   0  0  0  0  0  0  0  0  0  0  0  0
  2  1  1  6
  3  2  1  0
  4  6  1  0
  4  2  1  0
  5  4  2  0
  7  6  1  0
  8  7  1  0
  8 15  1  0
  9  8  2  0
 11 10  1  0
 11 12  1  0
 12 14  1  0
 12 13  1  1
 14 15  1  6
 14 16  1  0
 16 17  1  0
 18 16  2  0
M  END
$$$$
