AGI.pdb
     RDKit          3D

 18 17  0  0  1  0  0  0  0  0999 V2000
    7.1463  -19.0075   19.2873 C   0  0  0  0  0  0  0  0  0  0  0  0
    8.1634  -18.8803   20.4189 C   0  0  2  0  0  0  0  0  0  0  0  0
    8.4117  -20.1434   21.0396 N   0  0  0  0  0  0  0  0  0  0  0  0
    7.6245  -17.8692   21.3667 C   0  0  0  0  0  0  0  0  0  0  0  0
    7.5771  -16.6595   21.0283 O   0  0  0  0  0  0  0  0  0  0  0  0
    7.1498  -18.1956   22.6597 N   0  0  0  0  0  0  0  0  0  0  0  0
    6.4973  -17.2221   23.5101 C   0  0  0  0  0  0  0  0  0  0  0  0
    7.4875  -16.3717   24.2195 C   0  0  0  0  0  0  0  0  0  0  0  0
    8.7227  -16.4861   23.9135 O   0  0  0  0  0  0  0  0  0  0  0  0
    5.4826  -11.7665   26.2450 C   0  0  0  0  0  0  0  0  0  0  0  0
    6.4732  -12.6640   25.6126 C   0  0  0  0  0  0  0  0  0  0  0  0
    7.3994  -13.4325   26.4564 C   0  0  2  0  0  0  0  0  0  0  0  0
    8.2930  -12.4862   27.2690 C   0  0  0  0  0  0  0  0  0  0  0  0
    8.1484  -14.5442   25.8631 C   0  0  2  0  0  0  0  0  0  0  0  0
    7.1593  -15.4449   25.2091 N   0  0  0  0  0  0  0  0  0  0  0  0
    9.1041  -15.3160   26.6209 C   0  0  0  0  0  0  0  0  0  0  0  0
    8.6345  -16.4288   27.3770 O   0  0  0  0  0  0  0  0  0  0  0  0
   10.3372  -15.1528   26.7223 O   0  0  0  0  0  0  0  0  0  0  0  0
  2  1  1  6
  3  2  1  0
  4  6  1  0
  4  2  1  0
  5  4  2  0
  7  6  1  0
  8  7  1  0
  8 15  1  0
  9  8  2  0
 11 10  1  0
 11 12  1  0
 12 14  1  0
 12 13  1  6
 14 15  1  1
 14 16  1  0
 16 17  1  0
 18 16  2  0
M  END
$$$$
