AGI.pdb
     RDKit          3D

 18 17  0  0  1  0  0  0  0  0999 V2000
   10.5288  -18.1011   20.2882 C   0  0  0  0  0  0  0  0  0  0  0  0
    9.0217  -18.2963   20.1413 C   0  0  2  0  0  0  0  0  0  0  0  0
    8.5076  -17.5598   19.0298 N   0  0  0  0  0  0  0  0  0  0  0  0
    8.4096  -17.8897   21.4340 C   0  0  0  0  0  0  0  0  0  0  0  0
    8.7059  -18.5091   22.4870 O   0  0  0  0  0  0  0  0  0  0  0  0
    7.4902  -16.8199   21.5528 N   0  0  0  0  0  0  0  0  0  0  0  0
    6.8805  -16.4639   22.8169 C   0  0  0  0  0  0  0  0  0  0  0  0
    7.7899  -15.6264   23.6407 C   0  0  0  0  0  0  0  0  0  0  0  0
    8.9746  -15.4088   23.2147 O   0  0  0  0  0  0  0  0  0  0  0  0
    5.9876  -11.6597   27.3754 C   0  0  0  0  0  0  0  0  0  0  0  0
    6.3393  -12.8580   26.5836 C   0  0  0  0  0  0  0  0  0  0  0  0
    7.5738  -12.8645   25.7860 C   0  0  2  0  0  0  0  0  0  0  0  0
    7.3539  -12.1351   24.4541 C   0  0  0  0  0  0  0  0  0  0  0  0
    8.3117  -14.1210   25.6254 C   0  0  2  0  0  0  0  0  0  0  0  0
    7.4368  -15.0535   24.8625 N   0  0  0  0  0  0  0  0  0  0  0  0
    8.9163  -14.8037   26.7442 C   0  0  0  0  0  0  0  0  0  0  0  0
    8.4117  -16.0840   27.1141 O   0  0  0  0  0  0  0  0  0  0  0  0
    9.8574  -14.4297   27.4734 O   0  0  0  0  0  0  0  0  0  0  0  0
  2  1  1  1
  3  2  1  0
  4  6  1  0
  4  2  1  0
  5  4  2  0
  7  6  1  0
  8  7  1  0
  8 15  1  0
  9  8  2  0
 11 10  1  0
 11 12  1  0
 12 14  1  0
 12 13  1  6
 14 15  1  1
 14 16  1  0
 16 17  1  0
 18 16  2  0
M  END
$$$$
