AGI.pdb
     RDKit          3D

 18 17  0  0  1  0  0  0  0  0999 V2000
    5.6126  -19.3021   21.8772 C   0  0  0  0  0  0  0  0  0  0  0  0
    6.2930  -19.0919   23.2277 C   0  0  2  0  0  0  0  0  0  0  0  0
    5.4046  -18.4862   24.1692 N   0  0  0  0  0  0  0  0  0  0  0  0
    7.5070  -18.2722   22.9721 C   0  0  0  0  0  0  0  0  0  0  0  0
    8.6385  -18.7161   23.2927 O   0  0  0  0  0  0  0  0  0  0  0  0
    7.4636  -16.9897   22.3745 N   0  0  0  0  0  0  0  0  0  0  0  0
    8.6624  -16.2242   22.1037 C   0  0  0  0  0  0  0  0  0  0  0  0
    9.0850  -15.4399   23.2926 C   0  0  0  0  0  0  0  0  0  0  0  0
   10.2581  -14.9341   23.3062 O   0  0  0  0  0  0  0  0  0  0  0  0
    5.8412  -12.5266   27.1312 C   0  0  0  0  0  0  0  0  0  0  0  0
    6.4789  -13.5344   26.2571 C   0  0  0  0  0  0  0  0  0  0  0  0
    7.8592  -13.3267   25.7965 C   0  0  2  0  0  0  0  0  0  0  0  0
    7.8823  -12.3885   24.5826 C   0  0  0  0  0  0  0  0  0  0  0  0
    8.7365  -14.4889   25.6274 C   0  0  2  0  0  0  0  0  0  0  0  0
    8.2805  -15.2140   24.4095 N   0  0  0  0  0  0  0  0  0  0  0  0
    8.9898  -15.4210   26.7000 C   0  0  0  0  0  0  0  0  0  0  0  0
    9.7784  -14.9891   27.8055 O   0  0  0  0  0  0  0  0  0  0  0  0
    8.6075  -16.6032   26.8158 O   0  0  0  0  0  0  0  0  0  0  0  0
  2  1  1  6
  3  2  1  0
  4  6  1  0
  4  2  1  0
  5  4  2  0
  7  6  1  0
  8  7  1  0
  8 15  1  0
  9  8  2  0
 11 10  1  0
 11 12  1  0
 12 14  1  0
 12 13  1  6
 14 15  1  6
 14 16  1  0
 16 17  1  0
 18 16  2  0
M  END
$$$$
