AGI.pdb
     RDKit          3D

 18 17  0  0  1  0  0  0  0  0999 V2000
    7.1551  -17.1535   18.6964 C   0  0  0  0  0  0  0  0  0  0  0  0
    7.9795  -17.6656   19.8750 C   0  0  2  0  0  0  0  0  0  0  0  0
    7.9270  -19.0908   19.9665 N   0  0  0  0  0  0  0  0  0  0  0  0
    7.4524  -16.9910   21.0909 C   0  0  0  0  0  0  0  0  0  0  0  0
    7.5290  -15.7404   21.1933 O   0  0  0  0  0  0  0  0  0  0  0  0
    6.8547  -17.6902   22.1668 N   0  0  0  0  0  0  0  0  0  0  0  0
    6.3004  -17.0076   23.3171 C   0  0  0  0  0  0  0  0  0  0  0  0
    7.3605  -16.3343   24.1107 C   0  0  0  0  0  0  0  0  0  0  0  0
    8.5781  -16.4773   23.7507 O   0  0  0  0  0  0  0  0  0  0  0  0
    5.7655  -11.7481   26.2504 C   0  0  0  0  0  0  0  0  0  0  0  0
    6.6150  -12.7965   25.6456 C   0  0  0  0  0  0  0  0  0  0  0  0
    7.5290  -13.5711   26.4971 C   0  0  2  0  0  0  0  0  0  0  0  0
    8.5257  -12.6389   27.1984 C   0  0  0  0  0  0  0  0  0  0  0  0
    8.1690  -14.7707   25.9490 C   0  0  2  0  0  0  0  0  0  0  0  0
    7.1170  -15.5467   25.2360 N   0  0  0  0  0  0  0  0  0  0  0  0
    8.9750  -15.6494   26.7623 C   0  0  0  0  0  0  0  0  0  0  0  0
   10.3881  -15.4653   26.7692 O   0  0  0  0  0  0  0  0  0  0  0  0
    8.6100  -16.5907   27.4957 O   0  0  0  0  0  0  0  0  0  0  0  0
  2  1  1  6
  3  2  1  0
  4  6  1  0
  4  2  1  0
  5  4  2  0
  7  6  1  0
  8  7  1  0
  8 15  1  0
  9  8  2  0
 11 10  1  0
 11 12  1  0
 12 14  1  0
 12 13  1  6
 14 15  1  1
 14 16  1  0
 16 17  1  0
 18 16  2  0
M  END
$$$$
