AGI.pdb
     RDKit          3D

 18 17  0  0  1  0  0  0  0  0999 V2000
    8.0833  -17.6518   18.1437 C   0  0  0  0  0  0  0  0  0  0  0  0
    8.9588  -17.5936   19.3932 C   0  0  2  0  0  0  0  0  0  0  0  0
    9.0704  -18.8776   20.0106 N   0  0  0  0  0  0  0  0  0  0  0  0
    8.3552  -16.5736   20.2913 C   0  0  0  0  0  0  0  0  0  0  0  0
    8.4915  -15.3519   20.0286 O   0  0  0  0  0  0  0  0  0  0  0  0
    7.6179  -16.9044   21.4535 N   0  0  0  0  0  0  0  0  0  0  0  0
    6.9700  -15.8980   22.2683 C   0  0  0  0  0  0  0  0  0  0  0  0
    7.8632  -15.4243   23.3568 C   0  0  0  0  0  0  0  0  0  0  0  0
    9.1116  -15.3020   23.1141 O   0  0  0  0  0  0  0  0  0  0  0  0
    5.6317  -11.6631   26.2570 C   0  0  0  0  0  0  0  0  0  0  0  0
    6.6203  -12.5240   25.5728 C   0  0  0  0  0  0  0  0  0  0  0  0
    7.4421  -13.4536   26.3609 C   0  0  2  0  0  0  0  0  0  0  0  0
    8.2038  -12.6966   27.4569 C   0  0  0  0  0  0  0  0  0  0  0  0
    8.2830  -14.4298   25.6616 C   0  0  2  0  0  0  0  0  0  0  0  0
    7.4291  -15.0993   24.6420 N   0  0  0  0  0  0  0  0  0  0  0  0
    9.0757  -15.4060   26.3701 C   0  0  0  0  0  0  0  0  0  0  0  0
   10.4335  -15.0933   26.6691 O   0  0  0  0  0  0  0  0  0  0  0  0
    8.7416  -16.5357   26.7816 O   0  0  0  0  0  0  0  0  0  0  0  0
  2  1  1  6
  3  2  1  0
  4  6  1  0
  4  2  1  0
  5  4  2  0
  7  6  1  0
  8  7  1  0
  8 15  1  0
  9  8  2  0
 11 10  1  0
 11 12  1  0
 12 14  1  0
 12 13  1  6
 14 15  1  6
 14 16  1  0
 16 17  1  0
 18 16  2  0
M  END
$$$$
