AGI.pdb
     RDKit          3D

 18 17  0  0  1  0  0  0  0  0999 V2000
   10.2412  -84.7984  -22.5724 C   0  0  0  0  0  0  0  0  0  0  0  0
   11.4520  -85.2000  -23.4114 C   0  0  2  0  0  0  0  0  0  0  0  0
   12.6447  -84.5711  -22.9378 N   0  0  0  0  0  0  0  0  0  0  0  0
   11.1337  -84.8439  -24.8196 C   0  0  0  0  0  0  0  0  0  0  0  0
   11.9085  -85.1994  -25.7434 O   0  0  0  0  0  0  0  0  0  0  0  0
    9.9817  -84.1102  -25.1914 N   0  0  0  0  0  0  0  0  0  0  0  0
    9.4293  -84.1674  -26.5286 C   0  0  0  0  0  0  0  0  0  0  0  0
    8.8729  -82.8534  -26.9419 C   0  0  0  0  0  0  0  0  0  0  0  0
    8.0931  -82.2390  -26.1376 O   0  0  0  0  0  0  0  0  0  0  0  0
   12.8889  -80.8684  -30.7367 C   0  0  0  0  0  0  0  0  0  0  0  0
   11.4938  -80.8421  -30.2472 C   0  0  0  0  0  0  0  0  0  0  0  0
   11.1994  -81.2639  -28.8703 C   0  0  2  0  0  0  0  0  0  0  0  0
   11.6004  -82.7303  -28.6629 C   0  0  0  0  0  0  0  0  0  0  0  0
    9.8881  -80.9512  -28.2942 C   0  0  2  0  0  0  0  0  0  0  0  0
    9.1455  -82.2350  -28.1622 N   0  0  0  0  0  0  0  0  0  0  0  0
    9.0305  -79.9312  -28.8486 C   0  0  0  0  0  0  0  0  0  0  0  0
    8.2204  -80.2602  -29.9738 O   0  0  0  0  0  0  0  0  0  0  0  0
    8.8804  -78.7489  -28.4784 O   0  0  0  0  0  0  0  0  0  0  0  0
  2  1  1  1
  3  2  1  0
  4  6  1  0
  4  2  1  0
  5  4  2  0
  7  6  1  0
  8  7  1  0
  8 15  1  0
  9  8  2  0
 11 10  1  0
 11 12  1  0
 12 14  1  0
 12 13  1  6
 14 15  1  6
 14 16  1  0
 16 17  1  0
 18 16  2  0
M  END
$$$$
