SSA.pdb
     RDKit          3D

 18 17  0  0  1  0  0  0  0  0999 V2000
   11.4562  -16.4078   21.6162 O   0  0  0  0  0  0  0  0  0  0  0  0
   10.7409  -17.5468   21.3068 C   0  0  0  0  0  0  0  0  0  0  0  0
    9.3243  -17.1374   20.9019 C   0  0  2  0  0  0  0  0  0  0  0  0
    9.4460  -16.2065   19.8019 N   0  0  0  0  0  0  0  0  0  0  0  0
    8.7577  -16.4134   22.0749 C   0  0  0  0  0  0  0  0  0  0  0  0
    8.5245  -15.1628   21.9998 O   0  0  0  0  0  0  0  0  0  0  0  0
    7.5037  -18.3882   25.5238 O   0  0  0  0  0  0  0  0  0  0  0  0
    6.8739  -17.2294   25.1054 C   0  0  0  0  0  0  0  0  0  0  0  0
    7.8427  -16.3171   24.3627 C   0  0  2  0  0  0  0  0  0  0  0  0
    8.4601  -17.0549   23.2890 N   0  0  0  0  0  0  0  0  0  0  0  0
    8.8773  -15.7973   25.2928 C   0  0  0  0  0  0  0  0  0  0  0  0
   10.0445  -16.2542   25.3385 O   0  0  0  0  0  0  0  0  0  0  0  0
    9.0551  -12.9506   27.8154 C   0  0  0  0  0  0  0  0  0  0  0  0
    9.5517  -14.2048   27.1362 C   0  0  2  0  0  0  0  0  0  0  0  0
    8.5685  -14.7251   26.1959 N   0  0  0  0  0  0  0  0  0  0  0  0
    9.9343  -15.2325   28.1335 C   0  0  0  0  0  0  0  0  0  0  0  0
    9.2741  -16.2885   28.2341 O   0  0  0  0  0  0  0  0  0  0  0  0
   11.0146  -15.0226   28.9463 O   0  0  0  0  0  0  0  0  0  0  0  0
  1  2  1  0
  3  2  1  0
  3  4  1  6
  5  3  1  0
  6  5  2  0
  8  7  1  0
  9  8  1  1
  9 10  1  0
 10  5  1  0
 11  9  1  0
 11 15  1  0
 12 11  2  0
 14 15  1  0
 14 13  1  1
 16 14  1  0
 16 18  1  0
 17 16  2  0
M  END
$$$$
