SSA.pdb
     RDKit          3D

 18 17  0  0  1  0  0  0  0  0999 V2000
   10.2635  -19.5047   16.4743 O   0  0  0  0  0  0  0  0  0  0  0  0
    9.8594  -18.7204   17.5356 C   0  0  0  0  0  0  0  0  0  0  0  0
    8.3581  -18.4605   17.4051 C   0  0  2  0  0  0  0  0  0  0  0  0
    8.1711  -17.6001   16.2579 N   0  0  0  0  0  0  0  0  0  0  0  0
    7.9660  -17.7083   18.6305 C   0  0  0  0  0  0  0  0  0  0  0  0
    8.1473  -16.4483   18.6899 O   0  0  0  0  0  0  0  0  0  0  0  0
    5.9730  -19.4909   21.8675 O   0  0  0  0  0  0  0  0  0  0  0  0
    5.7135  -18.1869   21.4843 C   0  0  0  0  0  0  0  0  0  0  0  0
    6.9494  -17.5402   20.8707 C   0  0  2  0  0  0  0  0  0  0  0  0
    7.3927  -18.3327   19.7510 N   0  0  0  0  0  0  0  0  0  0  0  0
    8.0298  -17.4288   21.8836 C   0  0  0  0  0  0  0  0  0  0  0  0
    8.9510  -18.2730   21.9935 O   0  0  0  0  0  0  0  0  0  0  0  0
    8.9760  -14.8865   24.5588 C   0  0  0  0  0  0  0  0  0  0  0  0
    9.0618  -16.2152   23.8460 C   0  0  2  0  0  0  0  0  0  0  0  0
    8.0575  -16.3214   22.7964 N   0  0  0  0  0  0  0  0  0  0  0  0
    8.9539  -17.3401   24.8053 C   0  0  0  0  0  0  0  0  0  0  0  0
    7.8645  -17.9315   24.9620 O   0  0  0  0  0  0  0  0  0  0  0  0
   10.0522  -17.7312   25.5213 O   0  0  0  0  0  0  0  0  0  0  0  0
  1  2  1  0
  3  2  1  0
  3  4  1  6
  5  3  1  0
  6  5  2  0
  8  7  1  0
  9  8  1  1
  9 10  1  0
 10  5  1  0
 11  9  1  0
 11 15  1  0
 12 11  2  0
 14 15  1  0
 14 13  1  1
 16 14  1  0
 16 18  1  0
 17 16  2  0
M  END
$$$$
