SSA.pdb
     RDKit          3D

 18 17  0  0  1  0  0  0  0  0999 V2000
   -1.4092  -24.6469   29.7711 O   0  0  0  0  0  0  0  0  0  0  0  0
   -1.7299  -25.7953   30.4662 C   0  0  0  0  0  0  0  0  0  0  0  0
   -2.2781  -26.8256   29.4781 C   0  0  2  0  0  0  0  0  0  0  0  0
   -1.4590  -26.7553   28.2884 N   0  0  0  0  0  0  0  0  0  0  0  0
   -3.6543  -26.3688   29.1336 C   0  0  0  0  0  0  0  0  0  0  0  0
   -3.9421  -26.0657   27.9298 O   0  0  0  0  0  0  0  0  0  0  0  0
   -6.7195  -26.5700   31.8780 O   0  0  0  0  0  0  0  0  0  0  0  0
   -7.0115  -26.6941   30.5312 C   0  0  0  0  0  0  0  0  0  0  0  0
   -6.0154  -25.9150   29.6808 C   0  0  2  0  0  0  0  0  0  0  0  0
   -4.6754  -26.2526   30.0917 N   0  0  0  0  0  0  0  0  0  0  0  0
   -6.2464  -24.4550   29.8240 C   0  0  0  0  0  0  0  0  0  0  0  0
   -5.6599  -23.7529   30.6823 O   0  0  0  0  0  0  0  0  0  0  0  0
   -8.1643  -21.8424   27.8317 C   0  0  0  0  0  0  0  0  0  0  0  0
   -7.3500  -22.3337   29.0049 C   0  0  2  0  0  0  0  0  0  0  0  0
   -7.1737  -23.7789   28.9618 N   0  0  0  0  0  0  0  0  0  0  0  0
   -7.9570  -21.9069   30.2881 C   0  0  0  0  0  0  0  0  0  0  0  0
   -8.5781  -22.7289   30.9949 O   0  0  0  0  0  0  0  0  0  0  0  0
   -7.8359  -20.6074   30.6989 O   0  0  0  0  0  0  0  0  0  0  0  0
  1  2  1  0
  3  2  1  0
  3  4  1  6
  5  3  1  0
  6  5  2  0
  8  7  1  0
  9  8  1  1
  9 10  1  0
 10  5  1  0
 11  9  1  0
 11 15  1  0
 12 11  2  0
 14 15  1  0
 14 13  1  6
 16 14  1  0
 16 18  1  0
 17 16  2  0
M  END
$$$$
