SSA.pdb
     RDKit          3D

 18 17  0  0  1  0  0  0  0  0999 V2000
    8.0364  -18.8400   19.7189 O   0  0  0  0  0  0  0  0  0  0  0  0
    7.1052  -17.9157   19.2907 C   0  0  0  0  0  0  0  0  0  0  0  0
    7.8445  -16.6668   18.8090 C   0  0  2  0  0  0  0  0  0  0  0  0
    8.7567  -17.0847   17.7676 N   0  0  0  0  0  0  0  0  0  0  0  0
    8.6420  -16.1897   19.9741 C   0  0  0  0  0  0  0  0  0  0  0  0
    9.9111  -16.3045   19.9673 O   0  0  0  0  0  0  0  0  0  0  0  0
    6.9461  -14.7615   23.5381 O   0  0  0  0  0  0  0  0  0  0  0  0
    8.0478  -14.1125   23.0090 C   0  0  0  0  0  0  0  0  0  0  0  0
    8.8808  -15.0576   22.1517 C   0  0  2  0  0  0  0  0  0  0  0  0
    8.0515  -15.6055   21.1074 N   0  0  0  0  0  0  0  0  0  0  0  0
    9.4462  -16.1480   22.9866 C   0  0  0  0  0  0  0  0  0  0  0  0
    8.8600  -17.2421   23.1676 O   0  0  0  0  0  0  0  0  0  0  0  0
   12.8092  -16.8922   24.5298 C   0  0  0  0  0  0  0  0  0  0  0  0
   11.3081  -17.0353   24.4478 C   0  0  2  0  0  0  0  0  0  0  0  0
   10.7173  -15.9826   23.6327 N   0  0  0  0  0  0  0  0  0  0  0  0
   10.7033  -17.0673   25.8007 C   0  0  0  0  0  0  0  0  0  0  0  0
    9.8689  -16.2006   26.1379 O   0  0  0  0  0  0  0  0  0  0  0  0
   11.0610  -18.0502   26.6827 O   0  0  0  0  0  0  0  0  0  0  0  0
  1  2  1  0
  3  2  1  0
  3  4  1  6
  5  3  1  0
  6  5  2  0
  8  7  1  0
  9  8  1  1
  9 10  1  0
 10  5  1  0
 11  9  1  0
 11 15  1  0
 12 11  2  0
 14 15  1  0
 14 13  1  1
 16 14  1  0
 16 18  1  0
 17 16  2  0
M  END
$$$$
