SSA.pdb
     RDKit          3D

 18 17  0  0  1  0  0  0  0  0999 V2000
    8.5977  -16.2218   15.3182 O   0  0  0  0  0  0  0  0  0  0  0  0
    9.0807  -15.8136   16.5449 C   0  0  0  0  0  0  0  0  0  0  0  0
    8.0899  -14.8197   17.1523 C   0  0  2  0  0  0  0  0  0  0  0  0
    8.2817  -13.5565   16.4750 N   0  0  0  0  0  0  0  0  0  0  0  0
    8.4943  -14.6595   18.5777 C   0  0  0  0  0  0  0  0  0  0  0  0
    9.5985  -14.0927   18.8667 O   0  0  0  0  0  0  0  0  0  0  0  0
    6.1606  -16.0071   21.8069 O   0  0  0  0  0  0  0  0  0  0  0  0
    6.8924  -14.8370   21.9070 C   0  0  0  0  0  0  0  0  0  0  0  0
    8.1199  -14.8797   21.0050 C   0  0  2  0  0  0  0  0  0  0  0  0
    7.7010  -15.1124   19.6453 N   0  0  0  0  0  0  0  0  0  0  0  0
    9.0488  -15.9502   21.4487 C   0  0  0  0  0  0  0  0  0  0  0  0
    9.0361  -17.1076   20.9653 O   0  0  0  0  0  0  0  0  0  0  0  0
   12.3396  -16.1279   23.1316 C   0  0  0  0  0  0  0  0  0  0  0  0
   10.9621  -16.7083   22.9162 C   0  0  2  0  0  0  0  0  0  0  0  0
   10.0193  -15.6900   22.4738 N   0  0  0  0  0  0  0  0  0  0  0  0
   10.4769  -17.3914   24.1389 C   0  0  0  0  0  0  0  0  0  0  0  0
    9.4798  -16.9532   24.7512 O   0  0  0  0  0  0  0  0  0  0  0  0
   11.1242  -18.5061   24.5977 O   0  0  0  0  0  0  0  0  0  0  0  0
  1  2  1  0
  3  2  1  0
  3  4  1  6
  5  3  1  0
  6  5  2  0
  8  7  1  0
  9  8  1  1
  9 10  1  0
 10  5  1  0
 11  9  1  0
 11 15  1  0
 12 11  2  0
 14 15  1  0
 14 13  1  1
 16 14  1  0
 16 18  1  0
 17 16  2  0
M  END
$$$$
