SSA.pdb
     RDKit          3D

 18 17  0  0  1  0  0  0  0  0999 V2000
    9.7891  -16.0570   16.2307 O   0  0  0  0  0  0  0  0  0  0  0  0
    9.6681  -15.1211   17.2378 C   0  0  0  0  0  0  0  0  0  0  0  0
    8.2002  -14.7055   17.3425 C   0  0  2  0  0  0  0  0  0  0  0  0
    8.0644  -13.4388   16.6581 N   0  0  0  0  0  0  0  0  0  0  0  0
    7.9395  -14.4901   18.7940 C   0  0  0  0  0  0  0  0  0  0  0  0
    8.3144  -13.4091   19.3550 O   0  0  0  0  0  0  0  0  0  0  0  0
    5.6945  -17.1563   21.0939 O   0  0  0  0  0  0  0  0  0  0  0  0
    5.6760  -15.7992   21.3632 C   0  0  0  0  0  0  0  0  0  0  0  0
    6.9973  -15.1460   20.9763 C   0  0  2  0  0  0  0  0  0  0  0  0
    7.2855  -15.4414   19.5950 N   0  0  0  0  0  0  0  0  0  0  0  0
    8.0922  -15.6412   21.8489 C   0  0  0  0  0  0  0  0  0  0  0  0
    8.9395  -16.4840   21.4679 O   0  0  0  0  0  0  0  0  0  0  0  0
    9.3025  -14.8746   25.3765 C   0  0  0  0  0  0  0  0  0  0  0  0
    9.2234  -15.6915   24.1088 C   0  0  2  0  0  0  0  0  0  0  0  0
    8.2220  -15.1592   23.1948 N   0  0  0  0  0  0  0  0  0  0  0  0
    8.9651  -17.1192   24.4127 C   0  0  0  0  0  0  0  0  0  0  0  0
    7.8082  -17.5825   24.3234 O   0  0  0  0  0  0  0  0  0  0  0  0
    9.9984  -17.9316   24.7923 O   0  0  0  0  0  0  0  0  0  0  0  0
  1  2  1  0
  3  2  1  0
  3  4  1  6
  5  3  1  0
  6  5  2  0
  8  7  1  0
  9  8  1  1
  9 10  1  0
 10  5  1  0
 11  9  1  0
 11 15  1  0
 12 11  2  0
 14 15  1  0
 14 13  1  1
 16 14  1  0
 16 18  1  0
 17 16  2  0
M  END
$$$$
