HKS.pdb
     RDKit          3D

 26 26  0  0  1  0  0  0  0  0999 V2000
   23.8323  -16.8811  -18.1708 N   0  0  0  0  0  0  0  0  0  0  0  0
   23.6480  -18.0022  -17.2730 C   0  0  1  0  0  0  0  0  0  0  0  0
   22.1864  -18.3747  -17.1710 C   0  0  0  0  0  0  0  0  0  0  0  0
   21.4790  -17.2949  -16.4341 C   0  0  0  0  0  0  0  0  0  0  0  0
   20.8801  -17.3312  -15.2035 C   0  0  0  0  0  0  0  0  0  0  0  0
   20.3465  -16.1304  -14.8924 N   0  0  0  0  0  0  0  0  0  0  0  0
   20.6181  -15.3339  -15.9470 C   0  0  0  0  0  0  0  0  0  0  0  0
   21.3030  -16.0237  -16.8886 N   0  0  0  0  0  0  0  0  0  0  0  0
   24.4976  -19.1077  -17.7048 C   0  0  0  0  0  0  0  0  0  0  0  0
   24.6238  -19.3441  -18.9208 O   0  0  0  0  0  0  0  0  0  0  0  0
   25.2198  -19.9705  -16.8382 N   0  0  0  0  0  0  0  0  0  0  0  0
   26.0254  -21.0072  -17.3329 C   0  0  1  0  0  0  0  0  0  0  0  0
   27.1824  -21.4587  -16.5386 C   0  0  0  0  0  0  0  0  0  0  0  0
   27.9919  -22.5372  -17.1953 C   0  0  0  0  0  0  0  0  0  0  0  0
   29.1289  -23.0975  -16.4272 C   0  0  0  0  0  0  0  0  0  0  0  0
   29.8718  -24.1121  -17.2835 C   0  0  0  0  0  0  0  0  0  0  0  0
   30.9590  -24.7079  -16.5141 N   0  0  0  0  0  0  0  0  0  0  0  0
   25.1310  -22.1368  -17.7059 C   0  0  0  0  0  0  0  0  0  0  0  0
   24.4179  -22.7464  -16.8716 O   0  0  0  0  0  0  0  0  0  0  0  0
   25.0212  -23.3615  -21.6681 O   0  0  0  0  0  0  0  0  0  0  0  0
   23.8814  -23.4612  -20.9004 C   0  0  0  0  0  0  0  0  0  0  0  0
   24.1844  -23.6473  -19.4291 C   0  0  2  0  0  0  0  0  0  0  0  0
   25.0733  -22.5503  -19.0571 N   0  0  0  0  0  0  0  0  0  0  0  0
   24.8177  -24.9263  -19.1285 C   0  0  0  0  0  0  0  0  0  0  0  0
   24.1278  -25.9413  -18.9034 O   0  0  0  0  0  0  0  0  0  0  0  0
   26.1920  -25.0231  -19.0911 O   0  0  0  0  0  0  0  0  0  0  0  0
  2  1  1  6
  2  9  1  0
  2  3  1  0
  3  4  1  0
  4  5  2  0
  5  6  1  0
  7  6  1  0
  8  4  1  0
  8  7  2  0
  9 10  2  0
 11 12  1  0
 11  9  1  0
 12 13  1  1
 13 14  1  0
 14 15  1  0
 15 16  1  0
 16 17  1  0
 18 23  1  0
 18 12  1  0
 19 18  2  0
 20 21  1  0
 22 21  1  6
 22 23  1  0
 24 22  1  0
 24 26  1  0
 25 24  2  0
M  END
$$$$
