HKS.pdb
     RDKit          3D

 26 26  0  0  1  0  0  0  0  0999 V2000
   21.2064  -15.1243  -16.0332 N   0  0  0  0  0  0  0  0  0  0  0  0
   20.2492  -14.0945  -16.3795 C   0  0  1  0  0  0  0  0  0  0  0  0
   19.0763  -14.1079  -15.4256 C   0  0  0  0  0  0  0  0  0  0  0  0
   18.4119  -15.4342  -15.5202 C   0  0  0  0  0  0  0  0  0  0  0  0
   17.5787  -15.9212  -16.4912 C   0  0  0  0  0  0  0  0  0  0  0  0
   17.1872  -17.1808  -16.2021 N   0  0  0  0  0  0  0  0  0  0  0  0
   17.7869  -17.4824  -15.0317 C   0  0  0  0  0  0  0  0  0  0  0  0
   18.5317  -16.4358  -14.6058 N   0  0  0  0  0  0  0  0  0  0  0  0
   20.9312  -12.8055  -16.4389 C   0  0  0  0  0  0  0  0  0  0  0  0
   21.5552  -12.3964  -15.4419 O   0  0  0  0  0  0  0  0  0  0  0  0
   20.9513  -11.9424  -17.5667 N   0  0  0  0  0  0  0  0  0  0  0  0
   21.7551  -10.7930  -17.6015 C   0  0  1  0  0  0  0  0  0  0  0  0
   22.4402  -10.4339  -18.8566 C   0  0  0  0  0  0  0  0  0  0  0  0
   23.2005  -11.5646  -19.4837 C   0  0  0  0  0  0  0  0  0  0  0  0
   24.0458  -11.2467  -20.6589 C   0  0  0  0  0  0  0  0  0  0  0  0
   24.6599  -12.5265  -21.2061 C   0  0  0  0  0  0  0  0  0  0  0  0
   25.4802  -12.2222  -22.3739 N   0  0  0  0  0  0  0  0  0  0  0  0
   20.9516   -9.6622  -17.0624 C   0  0  0  0  0  0  0  0  0  0  0  0
   19.7964   -9.3898  -17.4721 O   0  0  0  0  0  0  0  0  0  0  0  0
   21.2932   -8.4000  -13.2452 O   0  0  0  0  0  0  0  0  0  0  0  0
   20.2472   -8.2257  -14.1249 C   0  0  0  0  0  0  0  0  0  0  0  0
   20.7057   -7.7607  -15.4905 C   0  0  2  0  0  0  0  0  0  0  0  0
   21.5031   -8.8519  -16.0429 N   0  0  0  0  0  0  0  0  0  0  0  0
   21.4977   -6.5367  -15.4463 C   0  0  0  0  0  0  0  0  0  0  0  0
   22.6958   -6.5404  -15.7947 O   0  0  0  0  0  0  0  0  0  0  0  0
   20.9240   -5.3596  -15.0166 O   0  0  0  0  0  0  0  0  0  0  0  0
  2  1  1  1
  2  9  1  0
  2  3  1  0
  3  4  1  0
  4  5  2  0
  5  6  1  0
  7  6  1  0
  8  4  1  0
  8  7  2  0
  9 10  2  0
 11 12  1  0
 11  9  1  0
 12 13  1  6
 13 14  1  0
 14 15  1  0
 15 16  1  0
 16 17  1  0
 18 23  1  0
 18 12  1  0
 19 18  2  0
 20 21  1  0
 22 21  1  1
 22 23  1  0
 24 22  1  0
 24 26  1  0
 25 24  2  0
M  END
$$$$
