HKS.pdb
     RDKit          3D

 26 26  0  0  1  0  0  0  0  0999 V2000
   23.0865  -16.8778  -19.1597 N   0  0  0  0  0  0  0  0  0  0  0  0
   22.9131  -16.6043  -17.7483 C   0  0  1  0  0  0  0  0  0  0  0  0
   21.7733  -15.6367  -17.5242 C   0  0  0  0  0  0  0  0  0  0  0  0
   22.1817  -14.3050  -18.0431 C   0  0  0  0  0  0  0  0  0  0  0  0
   23.2576  -13.5313  -17.6995 C   0  0  0  0  0  0  0  0  0  0  0  0
   23.2706  -12.3826  -18.4092 N   0  0  0  0  0  0  0  0  0  0  0  0
   22.1847  -12.4426  -19.2075 C   0  0  0  0  0  0  0  0  0  0  0  0
   21.5150  -13.5999  -18.9981 N   0  0  0  0  0  0  0  0  0  0  0  0
   22.7504  -17.8652  -17.0314 C   0  0  0  0  0  0  0  0  0  0  0  0
   21.8964  -18.6843  -17.4193 O   0  0  0  0  0  0  0  0  0  0  0  0
   23.5008  -18.2607  -15.8923 N   0  0  0  0  0  0  0  0  0  0  0  0
   23.2878  -19.4955  -15.2611 C   0  0  1  0  0  0  0  0  0  0  0  0
   24.3150  -20.0186  -14.3421 C   0  0  0  0  0  0  0  0  0  0  0  0
   24.0371  -21.4038  -13.8385 C   0  0  0  0  0  0  0  0  0  0  0  0
   24.5310  -22.5368  -14.6566 C   0  0  0  0  0  0  0  0  0  0  0  0
   24.2163  -23.8486  -13.9532 C   0  0  0  0  0  0  0  0  0  0  0  0
   24.6472  -24.9701  -14.7811 N   0  0  0  0  0  0  0  0  0  0  0  0
   21.9422  -19.4534  -14.6266 C   0  0  0  0  0  0  0  0  0  0  0  0
   21.6236  -18.6040  -13.7586 O   0  0  0  0  0  0  0  0  0  0  0  0
   17.3580  -20.1825  -14.8268 O   0  0  0  0  0  0  0  0  0  0  0  0
   18.6374  -20.0909  -15.3300 C   0  0  0  0  0  0  0  0  0  0  0  0
   19.6933  -20.4466  -14.3054 C   0  0  2  0  0  0  0  0  0  0  0  0
   20.9711  -20.4071  -15.0108 N   0  0  0  0  0  0  0  0  0  0  0  0
   19.4948  -21.7614  -13.7061 C   0  0  0  0  0  0  0  0  0  0  0  0
   20.0562  -22.7693  -14.1812 O   0  0  0  0  0  0  0  0  0  0  0  0
   18.6800  -21.9003  -12.6032 O   0  0  0  0  0  0  0  0  0  0  0  0
  2  1  1  6
  2  9  1  0
  2  3  1  0
  3  4  1  0
  4  5  2  0
  5  6  1  0
  7  6  1  0
  8  4  1  0
  8  7  2  0
  9 10  2  0
 11 12  1  0
 11  9  1  0
 12 13  1  1
 13 14  1  0
 14 15  1  0
 15 16  1  0
 16 17  1  0
 18 23  1  0
 18 12  1  0
 19 18  2  0
 20 21  1  0
 22 21  1  6
 22 23  1  0
 24 22  1  0
 24 26  1  0
 25 24  2  0
M  END
$$$$
