HKS.pdb
     RDKit          3D

 26 26  0  0  1  0  0  0  0  0999 V2000
   28.7561  -17.7509  -20.2612 N   0  0  0  0  0  0  0  0  0  0  0  0
   28.9690  -17.9179  -18.8386 C   0  0  1  0  0  0  0  0  0  0  0  0
   29.0500  -16.5765  -18.1460 C   0  0  0  0  0  0  0  0  0  0  0  0
   30.2555  -15.8645  -18.6453 C   0  0  0  0  0  0  0  0  0  0  0  0
   31.5685  -16.2508  -18.6123 C   0  0  0  0  0  0  0  0  0  0  0  0
   32.3604  -15.3127  -19.1747 N   0  0  0  0  0  0  0  0  0  0  0  0
   31.5261  -14.3264  -19.5640 C   0  0  0  0  0  0  0  0  0  0  0  0
   30.2487  -14.6451  -19.2508 N   0  0  0  0  0  0  0  0  0  0  0  0
   27.9291  -18.7866  -18.2963 C   0  0  0  0  0  0  0  0  0  0  0  0
   26.7494  -18.6326  -18.6638 O   0  0  0  0  0  0  0  0  0  0  0  0
   28.1430  -19.8285  -17.3550 N   0  0  0  0  0  0  0  0  0  0  0  0
   27.0921  -20.6399  -16.9016 C   0  0  1  0  0  0  0  0  0  0  0  0
   27.4062  -21.9311  -16.2631 C   0  0  0  0  0  0  0  0  0  0  0  0
   28.3355  -22.7976  -17.0601 C   0  0  0  0  0  0  0  0  0  0  0  0
   28.7796  -24.0687  -16.4406 C   0  0  0  0  0  0  0  0  0  0  0  0
   29.8215  -24.7320  -17.3289 C   0  0  0  0  0  0  0  0  0  0  0  0
   30.3307  -25.9360  -16.6807 N   0  0  0  0  0  0  0  0  0  0  0  0
   26.2056  -19.7994  -16.0515 C   0  0  0  0  0  0  0  0  0  0  0  0
   26.6451  -19.0065  -15.1828 O   0  0  0  0  0  0  0  0  0  0  0  0
   22.9005  -18.1773  -17.3306 O   0  0  0  0  0  0  0  0  0  0  0  0
   23.5546  -17.8686  -16.1579 C   0  0  0  0  0  0  0  0  0  0  0  0
   23.9305  -19.0982  -15.3592 C   0  0  2  0  0  0  0  0  0  0  0  0
   24.8044  -19.8890  -16.2211 N   0  0  0  0  0  0  0  0  0  0  0  0
   22.7786  -19.8946  -14.9513 C   0  0  0  0  0  0  0  0  0  0  0  0
   22.6128  -21.0487  -15.3954 O   0  0  0  0  0  0  0  0  0  0  0  0
   21.8592  -19.3739  -14.0665 O   0  0  0  0  0  0  0  0  0  0  0  0
  2  1  1  6
  2  9  1  0
  2  3  1  0
  3  4  1  0
  4  5  2  0
  5  6  1  0
  7  6  1  0
  8  4  1  0
  8  7  2  0
  9 10  2  0
 11 12  1  0
 11  9  1  0
 12 13  1  1
 13 14  1  0
 14 15  1  0
 15 16  1  0
 16 17  1  0
 18 23  1  0
 18 12  1  0
 19 18  2  0
 20 21  1  0
 22 21  1  6
 22 23  1  0
 24 22  1  0
 24 26  1  0
 25 24  2  0
M  END
$$$$
