HKS.pdb
     RDKit          3D

 26 26  0  0  1  0  0  0  0  0999 V2000
   18.7839  -12.2645  -16.2499 N   0  0  0  0  0  0  0  0  0  0  0  0
   18.2318  -10.9372  -16.0757 C   0  0  1  0  0  0  0  0  0  0  0  0
   17.5379  -10.8147  -14.7381 C   0  0  0  0  0  0  0  0  0  0  0  0
   16.3151  -11.6592  -14.7667 C   0  0  0  0  0  0  0  0  0  0  0  0
   15.5072  -11.9827  -15.8235 C   0  0  0  0  0  0  0  0  0  0  0  0
   14.4919  -12.7797  -15.4269 N   0  0  0  0  0  0  0  0  0  0  0  0
   14.6712  -12.9549  -14.1011 C   0  0  0  0  0  0  0  0  0  0  0  0
   15.7704  -12.2832  -13.6862 N   0  0  0  0  0  0  0  0  0  0  0  0
   19.2874   -9.9486  -16.2720 C   0  0  0  0  0  0  0  0  0  0  0  0
   20.4032  -10.1325  -15.7507 O   0  0  0  0  0  0  0  0  0  0  0  0
   19.1580   -8.7536  -17.0286 N   0  0  0  0  0  0  0  0  0  0  0  0
   20.2359   -7.8734  -17.2074 C   0  0  1  0  0  0  0  0  0  0  0  0
   20.4305   -7.2344  -18.5216 C   0  0  0  0  0  0  0  0  0  0  0  0
   20.8398   -8.1833  -19.6087 C   0  0  0  0  0  0  0  0  0  0  0  0
   21.0104   -7.6245  -20.9708 C   0  0  0  0  0  0  0  0  0  0  0  0
   21.4373   -8.7296  -21.9253 C   0  0  0  0  0  0  0  0  0  0  0  0
   21.5960   -8.1879  -23.2708 N   0  0  0  0  0  0  0  0  0  0  0  0
   20.1935   -6.8758  -16.1038 C   0  0  0  0  0  0  0  0  0  0  0  0
   19.1352   -6.3080  -15.7377 O   0  0  0  0  0  0  0  0  0  0  0  0
   22.1292   -5.4510  -12.0534 O   0  0  0  0  0  0  0  0  0  0  0  0
   22.0232   -6.2714  -13.1552 C   0  0  0  0  0  0  0  0  0  0  0  0
   21.3489   -5.5899  -14.3265 C   0  0  2  0  0  0  0  0  0  0  0  0
   21.3922   -6.5449  -15.4301 N   0  0  0  0  0  0  0  0  0  0  0  0
   21.9974   -4.3439  -14.7193 C   0  0  0  0  0  0  0  0  0  0  0  0
   22.8272   -4.3238  -15.6509 O   0  0  0  0  0  0  0  0  0  0  0  0
   21.6957   -3.1720  -14.0596 O   0  0  0  0  0  0  0  0  0  0  0  0
  2  1  1  1
  2  9  1  0
  2  3  1  0
  3  4  1  0
  4  5  2  0
  5  6  1  0
  7  6  1  0
  8  4  1  0
  8  7  2  0
  9 10  2  0
 11 12  1  0
 11  9  1  0
 12 13  1  6
 13 14  1  0
 14 15  1  0
 15 16  1  0
 16 17  1  0
 18 23  1  0
 18 12  1  0
 19 18  2  0
 20 21  1  0
 22 21  1  1
 22 23  1  0
 24 22  1  0
 24 26  1  0
 25 24  2  0
M  END
$$$$
