HKS.pdb
     RDKit          3D

 26 26  0  0  1  0  0  0  0  0999 V2000
   30.7739  -12.7124  -18.3220 N   0  0  0  0  0  0  0  0  0  0  0  0
   31.7067  -11.7424  -18.8568 C   0  0  1  0  0  0  0  0  0  0  0  0
   30.9771  -10.6535  -19.6102 C   0  0  0  0  0  0  0  0  0  0  0  0
   30.3881  -11.2487  -20.8383 C   0  0  0  0  0  0  0  0  0  0  0  0
   30.6843  -12.4331  -21.4578 C   0  0  0  0  0  0  0  0  0  0  0  0
   29.9169  -12.6073  -22.5551 N   0  0  0  0  0  0  0  0  0  0  0  0
   29.1303  -11.5130  -22.6194 C   0  0  0  0  0  0  0  0  0  0  0  0
   29.4032  -10.6810  -21.5874 N   0  0  0  0  0  0  0  0  0  0  0  0
   32.5446  -11.2350  -17.7748 C   0  0  0  0  0  0  0  0  0  0  0  0
   32.0285  -10.9719  -16.6725 O   0  0  0  0  0  0  0  0  0  0  0  0
   33.9433  -11.0046  -17.8632 N   0  0  0  0  0  0  0  0  0  0  0  0
   34.6861  -10.5460  -16.7649 C   0  0  1  0  0  0  0  0  0  0  0  0
   36.0164  -11.1260  -16.5055 C   0  0  0  0  0  0  0  0  0  0  0  0
   36.6638  -10.6325  -15.2457 C   0  0  0  0  0  0  0  0  0  0  0  0
   37.9610  -11.2398  -14.8646 C   0  0  0  0  0  0  0  0  0  0  0  0
   38.4127  -10.6781  -13.5248 C   0  0  0  0  0  0  0  0  0  0  0  0
   39.6583  -11.3177  -13.1144 N   0  0  0  0  0  0  0  0  0  0  0  0
   34.7308   -9.0602  -16.8373 C   0  0  0  0  0  0  0  0  0  0  0  0
   35.0476   -8.4372  -17.8803 O   0  0  0  0  0  0  0  0  0  0  0  0
   32.0340   -6.7512  -16.2696 O   0  0  0  0  0  0  0  0  0  0  0  0
   32.9997   -6.4189  -15.3447 C   0  0  0  0  0  0  0  0  0  0  0  0
   34.3872   -6.8484  -15.7710 C   0  0  2  0  0  0  0  0  0  0  0  0
   34.4033   -8.3060  -15.6866 N   0  0  0  0  0  0  0  0  0  0  0  0
   35.4451   -6.2886  -14.9374 C   0  0  0  0  0  0  0  0  0  0  0  0
   36.0147   -6.9886  -14.0759 O   0  0  0  0  0  0  0  0  0  0  0  0
   35.8252   -4.9735  -15.0969 O   0  0  0  0  0  0  0  0  0  0  0  0
  2  1  1  1
  2  9  1  0
  2  3  1  0
  3  4  1  0
  4  5  2  0
  5  6  1  0
  7  6  1  0
  8  4  1  0
  8  7  2  0
  9 10  2  0
 11 12  1  0
 11  9  1  0
 12 13  1  6
 13 14  1  0
 14 15  1  0
 15 16  1  0
 16 17  1  0
 18 23  1  0
 18 12  1  0
 19 18  2  0
 20 21  1  0
 22 21  1  1
 22 23  1  0
 24 22  1  0
 24 26  1  0
 25 24  2  0
M  END
$$$$
