HKS.pdb
     RDKit          3D

 26 26  0  0  1  0  0  0  0  0999 V2000
   24.2765  -11.9245  -17.7380 N   0  0  0  0  0  0  0  0  0  0  0  0
   23.0495  -11.3408  -18.2385 C   0  0  1  0  0  0  0  0  0  0  0  0
   21.8978  -12.3106  -18.1018 C   0  0  0  0  0  0  0  0  0  0  0  0
   22.1306  -13.4469  -19.0313 C   0  0  0  0  0  0  0  0  0  0  0  0
   21.8358  -13.5536  -20.3640 C   0  0  0  0  0  0  0  0  0  0  0  0
   22.2115  -14.7581  -20.8451 N   0  0  0  0  0  0  0  0  0  0  0  0
   22.7489  -15.4116  -19.7941 C   0  0  0  0  0  0  0  0  0  0  0  0
   22.7074  -14.6316  -18.6889 N   0  0  0  0  0  0  0  0  0  0  0  0
   22.8151  -10.0665  -17.5666 C   0  0  0  0  0  0  0  0  0  0  0  0
   22.7706  -10.0293  -16.3227 O   0  0  0  0  0  0  0  0  0  0  0  0
   22.6259   -8.8200  -18.2206 N   0  0  0  0  0  0  0  0  0  0  0  0
   22.4892   -7.6231  -17.5015 C   0  0  1  0  0  0  0  0  0  0  0  0
   22.8324   -6.3483  -18.1577 C   0  0  0  0  0  0  0  0  0  0  0  0
   22.6461   -5.1420  -17.2860 C   0  0  0  0  0  0  0  0  0  0  0  0
   22.8561   -3.8136  -17.9090 C   0  0  0  0  0  0  0  0  0  0  0  0
   22.8005   -2.7341  -16.8384 C   0  0  0  0  0  0  0  0  0  0  0  0
   23.2233   -1.4561  -17.4015 N   0  0  0  0  0  0  0  0  0  0  0  0
   21.1198   -7.5988  -16.9193 C   0  0  0  0  0  0  0  0  0  0  0  0
   20.0852   -7.8051  -17.6001 O   0  0  0  0  0  0  0  0  0  0  0  0
   20.1173   -8.7692  -13.2063 O   0  0  0  0  0  0  0  0  0  0  0  0
   19.3301   -8.5494  -14.3155 C   0  0  0  0  0  0  0  0  0  0  0  0
   19.6197   -7.2214  -14.9816 C   0  0  2  0  0  0  0  0  0  0  0  0
   20.9646   -7.3329  -15.5389 N   0  0  0  0  0  0  0  0  0  0  0  0
   19.5522   -6.0898  -14.0639 C   0  0  0  0  0  0  0  0  0  0  0  0
   20.5639   -5.3981  -13.8301 O   0  0  0  0  0  0  0  0  0  0  0  0
   18.3620   -5.7747  -13.4445 O   0  0  0  0  0  0  0  0  0  0  0  0
  2  1  1  1
  2  9  1  0
  2  3  1  0
  3  4  1  0
  4  5  2  0
  5  6  1  0
  7  6  1  0
  8  4  1  0
  8  7  2  0
  9 10  2  0
 11 12  1  0
 11  9  1  0
 12 13  1  6
 13 14  1  0
 14 15  1  0
 15 16  1  0
 16 17  1  0
 18 23  1  0
 18 12  1  0
 19 18  2  0
 20 21  1  0
 22 21  1  1
 22 23  1  0
 24 22  1  0
 24 26  1  0
 25 24  2  0
M  END
$$$$
