HKS.pdb
     RDKit          3D

 26 26  0  0  1  0  0  0  0  0999 V2000
   24.4916  -11.0975  -17.9165 N   0  0  0  0  0  0  0  0  0  0  0  0
   24.3741  -10.5453  -16.5831 C   0  0  1  0  0  0  0  0  0  0  0  0
   25.6346   -9.8068  -16.1940 C   0  0  0  0  0  0  0  0  0  0  0  0
   26.7586  -10.7792  -16.1729 C   0  0  0  0  0  0  0  0  0  0  0  0
   26.7585  -12.0994  -15.8106 C   0  0  0  0  0  0  0  0  0  0  0  0
   27.9929  -12.6327  -15.9349 N   0  0  0  0  0  0  0  0  0  0  0  0
   28.7738  -11.6274  -16.3819 C   0  0  0  0  0  0  0  0  0  0  0  0
   28.0419  -10.4989  -16.5311 N   0  0  0  0  0  0  0  0  0  0  0  0
   23.1737   -9.7184  -16.5099 C   0  0  0  0  0  0  0  0  0  0  0  0
   22.8643   -9.0010  -17.4796 O   0  0  0  0  0  0  0  0  0  0  0  0
   22.2933   -9.6519  -15.3974 N   0  0  0  0  0  0  0  0  0  0  0  0
   21.1009   -8.9140  -15.4436 C   0  0  1  0  0  0  0  0  0  0  0  0
   19.8307   -9.5803  -15.1030 C   0  0  0  0  0  0  0  0  0  0  0  0
   18.6154   -8.7287  -15.3209 C   0  0  0  0  0  0  0  0  0  0  0  0
   17.3144   -9.2695  -14.8609 C   0  0  0  0  0  0  0  0  0  0  0  0
   16.2062   -8.2804  -15.1902 C   0  0  0  0  0  0  0  0  0  0  0  0
   14.9106   -8.8550  -14.8433 N   0  0  0  0  0  0  0  0  0  0  0  0
   21.3072   -7.6706  -14.6522 C   0  0  0  0  0  0  0  0  0  0  0  0
   21.6921   -7.6785  -13.4571 O   0  0  0  0  0  0  0  0  0  0  0  0
   22.7956   -4.3042  -16.0406 O   0  0  0  0  0  0  0  0  0  0  0  0
   22.6065   -4.6919  -14.7320 C   0  0  0  0  0  0  0  0  0  0  0  0
   21.2046   -5.1999  -14.4716 C   0  0  2  0  0  0  0  0  0  0  0  0
   21.0624   -6.4187  -15.2630 N   0  0  0  0  0  0  0  0  0  0  0  0
   20.1674   -4.2426  -14.8391 C   0  0  0  0  0  0  0  0  0  0  0  0
   19.4347   -4.4457  -15.8284 O   0  0  0  0  0  0  0  0  0  0  0  0
   19.9884   -3.0992  -14.0907 O   0  0  0  0  0  0  0  0  0  0  0  0
  2  1  1  6
  2  9  1  0
  2  3  1  0
  3  4  1  0
  4  5  2  0
  5  6  1  0
  7  6  1  0
  8  4  1  0
  8  7  2  0
  9 10  2  0
 11 12  1  0
 11  9  1  0
 12 13  1  1
 13 14  1  0
 14 15  1  0
 15 16  1  0
 16 17  1  0
 18 23  1  0
 18 12  1  0
 19 18  2  0
 20 21  1  0
 22 21  1  6
 22 23  1  0
 24 22  1  0
 24 26  1  0
 25 24  2  0
M  END
$$$$
