HKS.pdb
     RDKit          3D

 26 26  0  0  1  0  0  0  0  0999 V2000
   21.3163  -20.0994  -14.3503 N   0  0  0  0  0  0  0  0  0  0  0  0
   21.7096  -19.6126  -15.6560 C   0  0  1  0  0  0  0  0  0  0  0  0
   21.1727  -18.2196  -15.8946 C   0  0  0  0  0  0  0  0  0  0  0  0
   19.6900  -18.2957  -15.9655 C   0  0  0  0  0  0  0  0  0  0  0  0
   18.8895  -18.7083  -16.9967 C   0  0  0  0  0  0  0  0  0  0  0  0
   17.5854  -18.6254  -16.6565 N   0  0  0  0  0  0  0  0  0  0  0  0
   17.5744  -18.1535  -15.3926 C   0  0  0  0  0  0  0  0  0  0  0  0
   18.8402  -17.9488  -14.9599 N   0  0  0  0  0  0  0  0  0  0  0  0
   23.1606  -19.7029  -15.7850 C   0  0  0  0  0  0  0  0  0  0  0  0
   23.8862  -19.1327  -14.9490 O   0  0  0  0  0  0  0  0  0  0  0  0
   23.8481  -20.4046  -16.8107 N   0  0  0  0  0  0  0  0  0  0  0  0
   25.2495  -20.4344  -16.8723 C   0  0  1  0  0  0  0  0  0  0  0  0
   25.9356  -21.7344  -16.9843 C   0  0  0  0  0  0  0  0  0  0  0  0
   27.4322  -21.6414  -16.9487 C   0  0  0  0  0  0  0  0  0  0  0  0
   28.1958  -22.9034  -17.0936 C   0  0  0  0  0  0  0  0  0  0  0  0
   29.6842  -22.6162  -16.9635 C   0  0  0  0  0  0  0  0  0  0  0  0
   30.4371  -23.8642  -17.0329 N   0  0  0  0  0  0  0  0  0  0  0  0
   25.6760  -19.4859  -17.9369 C   0  0  0  0  0  0  0  0  0  0  0  0
   25.0088  -19.2885  -18.9820 O   0  0  0  0  0  0  0  0  0  0  0  0
   29.6528  -17.2902  -18.7081 O   0  0  0  0  0  0  0  0  0  0  0  0
   28.4014  -16.9932  -18.2140 C   0  0  0  0  0  0  0  0  0  0  0  0
   27.3147  -17.8513  -18.8256 C   0  0  2  0  0  0  0  0  0  0  0  0
   26.8844  -18.7693  -17.7749 N   0  0  0  0  0  0  0  0  0  0  0  0
   27.7627  -18.6032  -19.9924 C   0  0  0  0  0  0  0  0  0  0  0  0
   28.2086  -19.7621  -19.8706 O   0  0  0  0  0  0  0  0  0  0  0  0
   27.6960  -18.0346  -21.2461 O   0  0  0  0  0  0  0  0  0  0  0  0
  2  1  1  1
  2  9  1  0
  2  3  1  0
  3  4  1  0
  4  5  2  0
  5  6  1  0
  7  6  1  0
  8  4  1  0
  8  7  2  0
  9 10  2  0
 11 12  1  0
 11  9  1  0
 12 13  1  6
 13 14  1  0
 14 15  1  0
 15 16  1  0
 16 17  1  0
 18 23  1  0
 18 12  1  0
 19 18  2  0
 20 21  1  0
 22 21  1  1
 22 23  1  0
 24 22  1  0
 24 26  1  0
 25 24  2  0
M  END
$$$$
