HKS.pdb
     RDKit          3D

 26 26  0  0  1  0  0  0  0  0999 V2000
   28.5810  -23.3691  -15.7465 N   0  0  0  0  0  0  0  0  0  0  0  0
   27.2651  -23.3264  -16.3492 C   0  0  1  0  0  0  0  0  0  0  0  0
   26.5553  -24.6512  -16.1851 C   0  0  0  0  0  0  0  0  0  0  0  0
   27.3599  -25.7000  -16.8648 C   0  0  0  0  0  0  0  0  0  0  0  0
   27.9760  -26.8019  -16.3350 C   0  0  0  0  0  0  0  0  0  0  0  0
   28.6095  -27.5078  -17.2962 N   0  0  0  0  0  0  0  0  0  0  0  0
   28.3838  -26.8337  -18.4430 C   0  0  0  0  0  0  0  0  0  0  0  0
   27.6290  -25.7372  -18.1988 N   0  0  0  0  0  0  0  0  0  0  0  0
   26.5203  -22.1993  -15.7969 C   0  0  0  0  0  0  0  0  0  0  0  0
   26.3270  -22.1362  -14.5684 O   0  0  0  0  0  0  0  0  0  0  0  0
   25.9755  -21.1291  -16.5552 N   0  0  0  0  0  0  0  0  0  0  0  0
   25.3355  -20.0416  -15.9419 C   0  0  1  0  0  0  0  0  0  0  0  0
   25.3992  -18.7159  -16.5838 C   0  0  0  0  0  0  0  0  0  0  0  0
   26.7936  -18.2068  -16.7989 C   0  0  0  0  0  0  0  0  0  0  0  0
   27.1981  -17.8988  -18.1912 C   0  0  0  0  0  0  0  0  0  0  0  0
   28.5757  -17.2534  -18.1907 C   0  0  0  0  0  0  0  0  0  0  0  0
   29.0251  -17.0443  -19.5631 N   0  0  0  0  0  0  0  0  0  0  0  0
   23.9355  -20.4494  -15.6442 C   0  0  0  0  0  0  0  0  0  0  0  0
   23.2942  -21.2589  -16.3583 O   0  0  0  0  0  0  0  0  0  0  0  0
   20.5600  -20.5524  -12.2096 O   0  0  0  0  0  0  0  0  0  0  0  0
   21.8057  -20.1896  -12.6734 C   0  0  0  0  0  0  0  0  0  0  0  0
   21.9433  -20.3637  -14.1707 C   0  0  2  0  0  0  0  0  0  0  0  0
   23.2886  -19.9080  -14.5090 N   0  0  0  0  0  0  0  0  0  0  0  0
   20.9546  -19.6084  -14.9318 C   0  0  0  0  0  0  0  0  0  0  0  0
   21.2122  -18.4607  -15.3480 O   0  0  0  0  0  0  0  0  0  0  0  0
   19.7206  -20.1612  -15.1982 O   0  0  0  0  0  0  0  0  0  0  0  0
  2  1  1  1
  2  9  1  0
  2  3  1  0
  3  4  1  0
  4  5  2  0
  5  6  1  0
  7  6  1  0
  8  4  1  0
  8  7  2  0
  9 10  2  0
 11 12  1  0
 11  9  1  0
 12 13  1  6
 13 14  1  0
 14 15  1  0
 15 16  1  0
 16 17  1  0
 18 23  1  0
 18 12  1  0
 19 18  2  0
 20 21  1  0
 22 21  1  1
 22 23  1  0
 24 22  1  0
 24 26  1  0
 25 24  2  0
M  END
$$$$
