AST.pdb
     RDKit          3D

 19 18  0  0  1  0  0  0  0  0999 V2000
    8.3571  -12.3073   19.4911 C   0  0  0  0  0  0  0  0  0  0  0  0
    8.3102  -13.8187   19.4184 C   0  0  2  0  0  0  0  0  0  0  0  0
    7.4481  -14.1846   18.3158 N   0  0  0  0  0  0  0  0  0  0  0  0
    7.8194  -14.3474   20.7095 C   0  0  0  0  0  0  0  0  0  0  0  0
    6.5755  -14.3473   20.8952 O   0  0  0  0  0  0  0  0  0  0  0  0
    9.9067  -16.9529   23.0423 O   0  0  0  0  0  0  0  0  0  0  0  0
    8.5326  -16.9126   23.0154 C   0  0  0  0  0  0  0  0  0  0  0  0
    8.0834  -15.4575   22.9315 C   0  0  2  0  0  0  0  0  0  0  0  0
    8.6390  -14.8473   21.7385 N   0  0  0  0  0  0  0  0  0  0  0  0
    8.5706  -14.6875   24.1126 C   0  0  0  0  0  0  0  0  0  0  0  0
    9.7177  -14.1612   24.1412 O   0  0  0  0  0  0  0  0  0  0  0  0
    7.2157  -11.6169   26.1195 C   0  0  0  0  0  0  0  0  0  0  0  0
    7.2379  -12.8647   26.9374 C   0  0  1  0  0  0  0  0  0  0  0  0
    5.9785  -13.4605   26.9546 O   0  0  0  0  0  0  0  0  0  0  0  0
    8.2580  -13.8705   26.4753 C   0  0  2  0  0  0  0  0  0  0  0  0
    7.7647  -14.5061   25.2718 N   0  0  0  0  0  0  0  0  0  0  0  0
    8.5475  -14.9040   27.4795 C   0  0  0  0  0  0  0  0  0  0  0  0
    9.1490  -14.6071   28.6899 O   0  0  0  0  0  0  0  0  0  0  0  0
    8.2469  -16.0972   27.2486 O   0  0  0  0  0  0  0  0  0  0  0  0
  2  1  1  1
  2  3  1  0
  4  5  2  0
  4  2  1  0
  6  7  1  0
  8  7  1  1
  8  9  1  0
  9  4  1  0
 10  8  1  0
 10 11  2  0
 13 12  1  6
 13 14  1  0
 15 16  1  6
 15 13  1  0
 16 10  1  0
 17 15  1  0
 18 17  1  0
 19 17  2  0
M  END
$$$$
