AST.pdb
     RDKit          3D

 19 18  0  0  1  0  0  0  0  0999 V2000
   12.6672  -18.1290   21.3332 C   0  0  0  0  0  0  0  0  0  0  0  0
   11.2620  -17.8215   20.8612 C   0  0  2  0  0  0  0  0  0  0  0  0
   11.3580  -17.1698   19.5732 N   0  0  0  0  0  0  0  0  0  0  0  0
   10.5916  -16.9709   21.8682 C   0  0  0  0  0  0  0  0  0  0  0  0
   10.7130  -15.7255   21.7413 O   0  0  0  0  0  0  0  0  0  0  0  0
    7.9102  -18.4236   24.6584 O   0  0  0  0  0  0  0  0  0  0  0  0
    7.7297  -17.1648   24.1357 C   0  0  0  0  0  0  0  0  0  0  0  0
    9.0946  -16.5594   23.8250 C   0  0  2  0  0  0  0  0  0  0  0  0
    9.8326  -17.4517   22.9514 N   0  0  0  0  0  0  0  0  0  0  0  0
    9.8873  -16.3791   25.0758 C   0  0  0  0  0  0  0  0  0  0  0  0
   10.9745  -16.9899   25.2725 O   0  0  0  0  0  0  0  0  0  0  0  0
   10.4698  -13.7728   29.2824 C   0  0  0  0  0  0  0  0  0  0  0  0
    9.7192  -14.0932   28.0333 C   0  0  1  0  0  0  0  0  0  0  0  0
    9.7991  -13.0354   27.1299 O   0  0  0  0  0  0  0  0  0  0  0  0
   10.1805  -15.3582   27.3603 C   0  0  2  0  0  0  0  0  0  0  0  0
    9.4574  -15.5066   26.1150 N   0  0  0  0  0  0  0  0  0  0  0  0
    9.9729  -16.5592   28.1818 C   0  0  0  0  0  0  0  0  0  0  0  0
   10.9167  -17.0015   29.0920 O   0  0  0  0  0  0  0  0  0  0  0  0
    8.9130  -17.2157   28.0670 O   0  0  0  0  0  0  0  0  0  0  0  0
  2  1  1  1
  2  3  1  0
  4  5  2  0
  4  2  1  0
  6  7  1  0
  8  7  1  1
  8  9  1  0
  9  4  1  0
 10  8  1  0
 10 11  2  0
 13 12  1  1
 13 14  1  0
 15 16  1  6
 15 13  1  0
 16 10  1  0
 17 15  1  0
 18 17  1  0
 19 17  2  0
M  END
$$$$
