AST.pdb
     RDKit          3D

 19 18  0  0  1  0  0  0  0  0999 V2000
    7.7758  -16.2194   15.0792 C   0  0  0  0  0  0  0  0  0  0  0  0
    8.0194  -14.7252   15.0858 C   0  0  2  0  0  0  0  0  0  0  0  0
    8.6759  -14.3758   13.8449 N   0  0  0  0  0  0  0  0  0  0  0  0
    8.8377  -14.3765   16.2672 C   0  0  0  0  0  0  0  0  0  0  0  0
   10.0867  -14.3682   16.1193 O   0  0  0  0  0  0  0  0  0  0  0  0
    7.3854  -13.8144   20.1387 O   0  0  0  0  0  0  0  0  0  0  0  0
    8.3282  -12.9215   19.6867 C   0  0  0  0  0  0  0  0  0  0  0  0
    9.1774  -13.6001   18.6170 C   0  0  2  0  0  0  0  0  0  0  0  0
    8.3227  -14.0553   17.5370 N   0  0  0  0  0  0  0  0  0  0  0  0
    9.8815  -14.7887   19.1798 C   0  0  0  0  0  0  0  0  0  0  0  0
    9.3692  -15.9422   19.1575 O   0  0  0  0  0  0  0  0  0  0  0  0
   13.0251  -16.2547   18.0675 C   0  0  0  0  0  0  0  0  0  0  0  0
   13.1985  -15.9357   19.5147 C   0  0  1  0  0  0  0  0  0  0  0  0
   13.9189  -14.7535   19.6719 O   0  0  0  0  0  0  0  0  0  0  0  0
   11.8999  -15.8313   20.2689 C   0  0  2  0  0  0  0  0  0  0  0  0
   11.1712  -14.6830   19.7729 N   0  0  0  0  0  0  0  0  0  0  0  0
   12.0836  -15.6924   21.7205 C   0  0  0  0  0  0  0  0  0  0  0  0
   12.5434  -16.7334   22.5079 O   0  0  0  0  0  0  0  0  0  0  0  0
   11.8204  -14.6035   22.2795 O   0  0  0  0  0  0  0  0  0  0  0  0
  2  1  1  6
  2  3  1  0
  4  5  2  0
  4  2  1  0
  6  7  1  0
  8  7  1  1
  8  9  1  0
  9  4  1  0
 10  8  1  0
 10 11  2  0
 13 12  1  6
 13 14  1  0
 15 16  1  6
 15 13  1  0
 16 10  1  0
 17 15  1  0
 18 17  1  0
 19 17  2  0
M  END
$$$$
