AST.pdb
     RDKit          3D

 19 18  0  0  1  0  0  0  0  0999 V2000
    1.0957  -26.3531   30.6479 C   0  0  0  0  0  0  0  0  0  0  0  0
    0.2376  -26.7777   31.8207 C   0  0  2  0  0  0  0  0  0  0  0  0
   -0.5575  -27.9118   31.4028 N   0  0  0  0  0  0  0  0  0  0  0  0
   -0.6002  -25.6343   32.2426 C   0  0  0  0  0  0  0  0  0  0  0  0
   -0.0048  -24.5792   32.5806 O   0  0  0  0  0  0  0  0  0  0  0  0
   -4.7277  -25.6689   32.2094 O   0  0  0  0  0  0  0  0  0  0  0  0
   -4.1141  -24.4401   32.1462 C   0  0  0  0  0  0  0  0  0  0  0  0
   -2.7590  -24.5292   32.8405 C   0  0  2  0  0  0  0  0  0  0  0  0
   -2.0066  -25.6419   32.2928 N   0  0  0  0  0  0  0  0  0  0  0  0
   -2.9319  -24.7654   34.3033 C   0  0  0  0  0  0  0  0  0  0  0  0
   -2.8702  -25.9217   34.8060 O   0  0  0  0  0  0  0  0  0  0  0  0
   -3.3665  -22.6543   38.8092 C   0  0  0  0  0  0  0  0  0  0  0  0
   -3.2322  -22.5697   37.3256 C   0  0  1  0  0  0  0  0  0  0  0  0
   -2.0219  -21.9735   36.9774 O   0  0  0  0  0  0  0  0  0  0  0  0
   -3.3485  -23.9010   36.6328 C   0  0  2  0  0  0  0  0  0  0  0  0
   -3.1760  -23.6958   35.2102 N   0  0  0  0  0  0  0  0  0  0  0  0
   -4.6383  -24.5651   36.8688 C   0  0  0  0  0  0  0  0  0  0  0  0
   -4.8314  -25.4487   37.9162 O   0  0  0  0  0  0  0  0  0  0  0  0
   -5.6049  -24.3354   36.1068 O   0  0  0  0  0  0  0  0  0  0  0  0
  2  1  1  6
  2  3  1  0
  4  5  2  0
  4  2  1  0
  6  7  1  0
  8  7  1  6
  8  9  1  0
  9  4  1  0
 10  8  1  0
 10 11  2  0
 13 12  1  1
 13 14  1  0
 15 16  1  6
 15 13  1  0
 16 10  1  0
 17 15  1  0
 18 17  1  0
 19 17  2  0
M  END
$$$$
