HPC.pdb
     RDKit          3D

 24 25  0  0  1  0  0  0  0  0999 V2000
   11.3283  -14.0248   18.4877 N   0  0  0  0  0  0  0  0  0  0  0  0
   10.0448  -14.1115   19.1444 C   0  0  1  0  0  0  0  0  0  0  0  0
    9.2340  -15.1897   18.4317 C   0  0  0  0  0  0  0  0  0  0  0  0
    9.0376  -14.8610   17.0042 C   0  0  0  0  0  0  0  0  0  0  0  0
    8.5750  -13.6593   16.5384 C   0  0  0  0  0  0  0  0  0  0  0  0
    8.5390  -13.7593   15.2012 N   0  0  0  0  0  0  0  0  0  0  0  0
    8.9647  -14.9813   14.8484 C   0  0  0  0  0  0  0  0  0  0  0  0
    9.2681  -15.6497   15.9592 N   0  0  0  0  0  0  0  0  0  0  0  0
   10.1450  -14.5493   20.5608 C   0  0  0  0  0  0  0  0  0  0  0  0
   11.1917  -15.1601   20.8822 O   0  0  0  0  0  0  0  0  0  0  0  0
    9.1569  -14.3262   21.5492 N   0  0  0  0  0  0  0  0  0  0  0  0
    7.9220  -13.6526   21.3049 C   0  0  0  0  0  0  0  0  0  0  0  0
    7.1090  -13.6992   22.5709 C   0  0  0  0  0  0  0  0  0  0  0  0
    8.1735  -13.9643   23.6168 C   0  0  0  0  0  0  0  0  0  0  0  0
    9.2439  -14.7317   22.9122 C   0  0  1  0  0  0  0  0  0  0  0  0
    9.0957  -16.1988   23.0934 C   0  0  0  0  0  0  0  0  0  0  0  0
    8.4278  -16.8183   22.2280 O   0  0  0  0  0  0  0  0  0  0  0  0
    9.6833  -16.8436   24.1885 N   0  0  0  0  0  0  0  0  0  0  0  0
   10.3898  -18.0864   24.0548 C   0  0  1  0  0  0  0  0  0  0  0  0
   11.4821  -18.0178   23.0126 C   0  0  0  0  0  0  0  0  0  0  0  0
   12.5196  -19.5074   23.0284 S   0  0  0  0  0  0  0  0  0  0  0  0
   11.0069  -18.5130   25.3242 C   0  0  0  0  0  0  0  0  0  0  0  0
   11.7251  -17.6171   26.0785 O   0  0  0  0  0  0  0  0  0  0  0  0
   10.8760  -19.6894   25.7131 O   0  0  0  0  0  0  0  0  0  0  0  0
  2  1  1  6
  3  2  1  0
  4  3  1  0
  5  4  2  0
  6  5  1  0
  7  6  1  0
  7  8  2  0
  8  4  1  0
  9 10  2  0
  9  2  1  0
 11  9  1  0
 12 11  1  0
 13 12  1  0
 14 13  1  0
 14 15  1  0
 15 11  1  0
 16 17  2  0
 15 16  1  6
 18 16  1  0
 19 20  1  6
 19 18  1  0
 20 21  1  0
 22 19  1  0
 23 22  1  0
 24 22  2  0
M  END
$$$$
