HPC.pdb
     RDKit          3D

 24 25  0  0  1  0  0  0  0  0999 V2000
    9.7577  -16.6642   19.9794 N   0  0  0  0  0  0  0  0  0  0  0  0
    9.6620  -17.5560   21.1115 C   0  0  1  0  0  0  0  0  0  0  0  0
   11.0256  -18.2151   21.2960 C   0  0  0  0  0  0  0  0  0  0  0  0
   11.4090  -19.0027   20.1056 C   0  0  0  0  0  0  0  0  0  0  0  0
   10.7039  -20.0705   19.6183 C   0  0  0  0  0  0  0  0  0  0  0  0
   11.3727  -20.5065   18.5403 N   0  0  0  0  0  0  0  0  0  0  0  0
   12.4561  -19.7359   18.3640 C   0  0  0  0  0  0  0  0  0  0  0  0
   12.4707  -18.8171   19.3274 N   0  0  0  0  0  0  0  0  0  0  0  0
    9.3778  -16.8482   22.3867 C   0  0  0  0  0  0  0  0  0  0  0  0
    9.9413  -15.7395   22.5458 O   0  0  0  0  0  0  0  0  0  0  0  0
    8.5306  -17.3338   23.4111 N   0  0  0  0  0  0  0  0  0  0  0  0
    7.9288  -18.6284   23.4017 C   0  0  0  0  0  0  0  0  0  0  0  0
    7.1832  -18.8035   24.6976 C   0  0  0  0  0  0  0  0  0  0  0  0
    6.9940  -17.3682   25.1463 C   0  0  0  0  0  0  0  0  0  0  0  0
    8.1565  -16.6172   24.5842 C   0  0  1  0  0  0  0  0  0  0  0  0
    9.2660  -16.4839   25.5633 C   0  0  0  0  0  0  0  0  0  0  0  0
   10.2669  -17.2254   25.3991 O   0  0  0  0  0  0  0  0  0  0  0  0
    9.1794  -15.5650   26.6161 N   0  0  0  0  0  0  0  0  0  0  0  0
   10.3265  -15.1765   27.3875 C   0  0  1  0  0  0  0  0  0  0  0  0
   10.3321  -13.6991   27.7056 C   0  0  0  0  0  0  0  0  0  0  0  0
    8.6637  -13.0851   28.0731 S   0  0  0  0  0  0  0  0  0  0  0  0
   10.4113  -15.9106   28.6635 C   0  0  0  0  0  0  0  0  0  0  0  0
    9.4063  -16.7711   29.0334 O   0  0  0  0  0  0  0  0  0  0  0  0
   11.3975  -15.7494   29.4076 O   0  0  0  0  0  0  0  0  0  0  0  0
  2  1  1  6
  3  2  1  0
  4  3  1  0
  5  4  2  0
  6  5  1  0
  7  6  1  0
  7  8  2  0
  8  4  1  0
  9 10  2  0
  9  2  1  0
 11  9  1  0
 12 11  1  0
 13 12  1  0
 14 13  1  0
 14 15  1  0
 15 11  1  0
 16 17  2  0
 15 16  1  1
 18 16  1  0
 19 20  1  1
 19 18  1  0
 20 21  1  0
 22 19  1  0
 23 22  1  0
 24 22  2  0
M  END
$$$$
