HPC.pdb
     RDKit          3D

 24 25  0  0  1  0  0  0  0  0999 V2000
   11.3427  -14.0997   19.0475 N   0  0  0  0  0  0  0  0  0  0  0  0
   10.0827  -14.1140   19.7534 C   0  0  1  0  0  0  0  0  0  0  0  0
    9.1760  -15.1252   19.0584 C   0  0  0  0  0  0  0  0  0  0  0  0
    8.9794  -14.7830   17.6340 C   0  0  0  0  0  0  0  0  0  0  0  0
    8.6332  -13.5413   17.1722 C   0  0  0  0  0  0  0  0  0  0  0  0
    8.5536  -13.6419   15.8369 N   0  0  0  0  0  0  0  0  0  0  0  0
    8.8405  -14.9030   15.4815 C   0  0  0  0  0  0  0  0  0  0  0  0
    9.1002  -15.5953   16.5887 N   0  0  0  0  0  0  0  0  0  0  0  0
   10.2088  -14.5808   21.1584 C   0  0  0  0  0  0  0  0  0  0  0  0
   11.2714  -15.1772   21.4538 O   0  0  0  0  0  0  0  0  0  0  0  0
    9.2285  -14.3999   22.1630 N   0  0  0  0  0  0  0  0  0  0  0  0
    7.9431  -13.8242   21.9288 C   0  0  0  0  0  0  0  0  0  0  0  0
    7.1629  -13.8913   23.2143 C   0  0  0  0  0  0  0  0  0  0  0  0
    8.2658  -14.0480   24.2421 C   0  0  0  0  0  0  0  0  0  0  0  0
    9.3737  -14.7572   23.5344 C   0  0  1  0  0  0  0  0  0  0  0  0
    9.3361  -16.2252   23.7604 C   0  0  0  0  0  0  0  0  0  0  0  0
    8.4756  -16.8812   23.1215 O   0  0  0  0  0  0  0  0  0  0  0  0
   10.2301  -16.8312   24.6513 N   0  0  0  0  0  0  0  0  0  0  0  0
   10.3261  -18.2576   24.7855 C   0  0  1  0  0  0  0  0  0  0  0  0
   11.6735  -18.7867   24.3511 C   0  0  0  0  0  0  0  0  0  0  0  0
   13.0353  -17.9066   25.1674 S   0  0  0  0  0  0  0  0  0  0  0  0
   10.0960  -18.7008   26.1729 C   0  0  0  0  0  0  0  0  0  0  0  0
    9.8654  -17.7776   27.1637 O   0  0  0  0  0  0  0  0  0  0  0  0
   10.1108  -19.9162   26.4463 O   0  0  0  0  0  0  0  0  0  0  0  0
  2  1  1  6
  3  2  1  0
  4  3  1  0
  5  4  2  0
  6  5  1  0
  7  6  1  0
  7  8  2  0
  8  4  1  0
  9 10  2  0
  9  2  1  0
 11  9  1  0
 12 11  1  0
 13 12  1  0
 14 13  1  0
 14 15  1  0
 15 11  1  0
 16 17  2  0
 15 16  1  6
 18 16  1  0
 19 20  1  1
 19 18  1  0
 20 21  1  0
 22 19  1  0
 23 22  1  0
 24 22  2  0
M  END
$$$$
