HPC.pdb
     RDKit          3D

 24 25  0  0  1  0  0  0  0  0999 V2000
   12.0235  -14.8935   15.8046 N   0  0  0  0  0  0  0  0  0  0  0  0
   10.6978  -15.0381   16.3595 C   0  0  1  0  0  0  0  0  0  0  0  0
   10.2880  -16.4991   16.2003 C   0  0  0  0  0  0  0  0  0  0  0  0
    9.0149  -16.6242   15.4600 C   0  0  0  0  0  0  0  0  0  0  0  0
    8.7825  -16.1000   14.2166 C   0  0  0  0  0  0  0  0  0  0  0  0
    7.5215  -16.4270   13.8966 N   0  0  0  0  0  0  0  0  0  0  0  0
    6.9888  -17.1303   14.9069 C   0  0  0  0  0  0  0  0  0  0  0  0
    7.9105  -17.2464   15.8606 N   0  0  0  0  0  0  0  0  0  0  0  0
   10.6444  -14.7585   17.8178 C   0  0  0  0  0  0  0  0  0  0  0  0
   11.6619  -15.0679   18.4818 O   0  0  0  0  0  0  0  0  0  0  0  0
    9.5432  -14.1783   18.4914 N   0  0  0  0  0  0  0  0  0  0  0  0
    8.3754  -13.6858   17.8340 C   0  0  0  0  0  0  0  0  0  0  0  0
    7.4018  -13.2372   18.8908 C   0  0  0  0  0  0  0  0  0  0  0  0
    8.3095  -13.0374   20.0881 C   0  0  0  0  0  0  0  0  0  0  0  0
    9.4359  -14.0003   19.9008 C   0  0  1  0  0  0  0  0  0  0  0  0
    9.2142  -15.2740   20.6330 C   0  0  0  0  0  0  0  0  0  0  0  0
    8.4464  -16.1143   20.1008 O   0  0  0  0  0  0  0  0  0  0  0  0
    9.8436  -15.5075   21.8616 N   0  0  0  0  0  0  0  0  0  0  0  0
   10.2286  -16.8244   22.2849 C   0  0  1  0  0  0  0  0  0  0  0  0
   11.5878  -16.8418   22.9453 C   0  0  0  0  0  0  0  0  0  0  0  0
   11.7251  -15.5695   24.2328 S   0  0  0  0  0  0  0  0  0  0  0  0
    9.2614  -17.4070   23.2332 C   0  0  0  0  0  0  0  0  0  0  0  0
    8.1991  -16.6606   23.6824 O   0  0  0  0  0  0  0  0  0  0  0  0
    9.4087  -18.5796   23.6276 O   0  0  0  0  0  0  0  0  0  0  0  0
  2  1  1  1
  3  2  1  0
  4  3  1  0
  5  4  2  0
  6  5  1  0
  7  6  1  0
  7  8  2  0
  8  4  1  0
  9 10  2  0
  9  2  1  0
 11  9  1  0
 12 11  1  0
 13 12  1  0
 14 13  1  0
 14 15  1  0
 15 11  1  0
 16 17  2  0
 15 16  1  1
 18 16  1  0
 19 20  1  1
 19 18  1  0
 20 21  1  0
 22 19  1  0
 23 22  1  0
 24 22  2  0
M  END
$$$$
