HPC.pdb
     RDKit          3D

 24 25  0  0  1  0  0  0  0  0999 V2000
   10.6649  -17.4023   20.0543 N   0  0  0  0  0  0  0  0  0  0  0  0
    9.5318  -17.2492   20.9369 C   0  0  1  0  0  0  0  0  0  0  0  0
    9.3030  -18.5888   21.6303 C   0  0  0  0  0  0  0  0  0  0  0  0
    8.6379  -19.5546   20.7307 C   0  0  0  0  0  0  0  0  0  0  0  0
    7.6390  -19.2374   19.8495 C   0  0  0  0  0  0  0  0  0  0  0  0
    7.3068  -20.3779   19.2261 N   0  0  0  0  0  0  0  0  0  0  0  0
    8.0733  -21.3695   19.7038 C   0  0  0  0  0  0  0  0  0  0  0  0
    8.8859  -20.8564   20.6252 N   0  0  0  0  0  0  0  0  0  0  0  0
    9.7707  -16.2652   22.0243 C   0  0  0  0  0  0  0  0  0  0  0  0
   10.9596  -16.1245   22.3967 O   0  0  0  0  0  0  0  0  0  0  0  0
    8.7650  -15.4931   22.6533 N   0  0  0  0  0  0  0  0  0  0  0  0
    7.3758  -15.5826   22.3366 C   0  0  0  0  0  0  0  0  0  0  0  0
    6.6255  -14.6796   23.2787 C   0  0  0  0  0  0  0  0  0  0  0  0
    7.7172  -13.7372   23.7449 C   0  0  0  0  0  0  0  0  0  0  0  0
    8.9830  -14.5274   23.6777 C   0  0  1  0  0  0  0  0  0  0  0  0
    9.3355  -15.1365   24.9862 C   0  0  0  0  0  0  0  0  0  0  0  0
    9.0199  -16.3400   25.1613 O   0  0  0  0  0  0  0  0  0  0  0  0
    9.9911  -14.3838   25.9680 N   0  0  0  0  0  0  0  0  0  0  0  0
   10.5231  -14.9811   27.1604 C   0  0  1  0  0  0  0  0  0  0  0  0
   11.0660  -13.9530   28.1258 C   0  0  0  0  0  0  0  0  0  0  0  0
   10.4373  -14.2144   29.8087 S   0  0  0  0  0  0  0  0  0  0  0  0
    9.5134  -15.7813   27.8777 C   0  0  0  0  0  0  0  0  0  0  0  0
    9.8978  -16.8639   28.6311 O   0  0  0  0  0  0  0  0  0  0  0  0
    8.3085  -15.4740   27.7998 O   0  0  0  0  0  0  0  0  0  0  0  0
  2  1  1  6
  3  2  1  0
  4  3  1  0
  5  4  2  0
  6  5  1  0
  7  6  1  0
  7  8  2  0
  8  4  1  0
  9 10  2  0
  9  2  1  0
 11  9  1  0
 12 11  1  0
 13 12  1  0
 14 13  1  0
 14 15  1  0
 15 11  1  0
 16 17  2  0
 15 16  1  1
 18 16  1  0
 19 20  1  1
 19 18  1  0
 20 21  1  0
 22 19  1  0
 23 22  1  0
 24 22  2  0
M  END
$$$$
