HPC.pdb
     RDKit          3D

 24 25  0  0  1  0  0  0  0  0999 V2000
    9.9629  -14.6128   21.2427 N   0  0  0  0  0  0  0  0  0  0  0  0
    8.7692  -14.1687   21.9241 C   0  0  1  0  0  0  0  0  0  0  0  0
    7.5697  -14.7292   21.1658 C   0  0  0  0  0  0  0  0  0  0  0  0
    7.6213  -14.3687   19.7334 C   0  0  0  0  0  0  0  0  0  0  0  0
    7.8471  -13.1053   19.2561 C   0  0  0  0  0  0  0  0  0  0  0  0
    7.8170  -13.1944   17.9179 N   0  0  0  0  0  0  0  0  0  0  0  0
    7.5806  -14.4695   17.5758 C   0  0  0  0  0  0  0  0  0  0  0  0
    7.4620  -15.1822   18.6941 N   0  0  0  0  0  0  0  0  0  0  0  0
    8.6583  -14.6990   23.3077 C   0  0  0  0  0  0  0  0  0  0  0  0
    9.2932  -15.7519   23.5530 O   0  0  0  0  0  0  0  0  0  0  0  0
    7.8989  -14.1055   24.3440 N   0  0  0  0  0  0  0  0  0  0  0  0
    6.9156  -13.0921   24.1324 C   0  0  0  0  0  0  0  0  0  0  0  0
    6.2673  -12.7902   25.4570 C   0  0  0  0  0  0  0  0  0  0  0  0
    7.3013  -13.3080   26.4368 C   0  0  0  0  0  0  0  0  0  0  0  0
    7.9995  -14.4228   25.7292 C   0  0  1  0  0  0  0  0  0  0  0  0
    7.4231  -15.7503   26.0654 C   0  0  0  0  0  0  0  0  0  0  0  0
    6.5078  -16.1825   25.3209 O   0  0  0  0  0  0  0  0  0  0  0  0
    7.8943  -16.4719   27.1688 N   0  0  0  0  0  0  0  0  0  0  0  0
    8.4032  -17.8090   27.0466 C   0  0  1  0  0  0  0  0  0  0  0  0
    9.4338  -17.9340   25.9484 C   0  0  0  0  0  0  0  0  0  0  0  0
   10.1871  -19.5854   25.9194 S   0  0  0  0  0  0  0  0  0  0  0  0
    9.0214  -18.2836   28.2984 C   0  0  0  0  0  0  0  0  0  0  0  0
    8.6323  -19.4797   28.8508 O   0  0  0  0  0  0  0  0  0  0  0  0
    9.8990  -17.5971   28.8560 O   0  0  0  0  0  0  0  0  0  0  0  0
  2  1  1  6
  3  2  1  0
  4  3  1  0
  5  4  2  0
  6  5  1  0
  7  6  1  0
  7  8  2  0
  8  4  1  0
  9 10  2  0
  9  2  1  0
 11  9  1  0
 12 11  1  0
 13 12  1  0
 14 13  1  0
 14 15  1  0
 15 11  1  0
 16 17  2  0
 15 16  1  6
 18 16  1  0
 19 20  1  6
 19 18  1  0
 20 21  1  0
 22 19  1  0
 23 22  1  0
 24 22  2  0
M  END
$$$$
