HER.pdb
     RDKit          3D

 31 31  0  0  1  0  0  0  0  0999 V2000
   33.4037   -7.9938  -19.4086 N   0  0  0  0  0  0  0  0  0  0  0  0
   32.6672   -8.8278  -18.4970 C   0  0  1  0  0  0  0  0  0  0  0  0
   31.7355   -8.0306  -17.6122 C   0  0  0  0  0  0  0  0  0  0  0  0
   32.4527   -7.0788  -16.7295 C   0  0  0  0  0  0  0  0  0  0  0  0
   33.8058   -6.8841  -16.5743 C   0  0  0  0  0  0  0  0  0  0  0  0
   34.0375   -5.9212  -15.6674 N   0  0  0  0  0  0  0  0  0  0  0  0
   32.8238   -5.4887  -15.2320 C   0  0  0  0  0  0  0  0  0  0  0  0
   31.8705   -6.1896  -15.8750 N   0  0  0  0  0  0  0  0  0  0  0  0
   31.7875   -9.7453  -19.2922 C   0  0  0  0  0  0  0  0  0  0  0  0
   31.2464   -9.4375  -20.3660 O   0  0  0  0  0  0  0  0  0  0  0  0
   31.5629  -11.0489  -18.7785 N   0  0  0  0  0  0  0  0  0  0  0  0
   30.7675  -12.0271  -19.4917 C   0  0  1  0  0  0  0  0  0  0  0  0
   31.1794  -13.4207  -19.2350 C   0  0  0  0  0  0  0  0  0  0  0  0
   32.4689  -13.9059  -19.7390 C   0  0  0  0  0  0  0  0  0  0  0  0
   32.8549  -15.2915  -19.5705 C   0  0  0  0  0  0  0  0  0  0  0  0
   32.4271  -16.2340  -20.2577 O   0  0  0  0  0  0  0  0  0  0  0  0
   29.3454  -11.6881  -19.4045 C   0  0  0  0  0  0  0  0  0  0  0  0
   28.8212  -11.3177  -18.2948 O   0  0  0  0  0  0  0  0  0  0  0  0
   33.7848  -15.6896  -18.5711 O   0  0  0  0  0  0  0  0  0  0  0  0
   23.8697   -7.5885  -24.8512 N   0  0  0  0  0  0  0  0  0  0  0  0
   23.0264   -7.9595  -23.7802 C   0  0  0  0  0  0  0  0  0  0  0  0
   21.8354   -7.4814  -23.7222 N   0  0  0  0  0  0  0  0  0  0  0  0
   23.4799   -8.8530  -22.7675 N   0  0  0  0  0  0  0  0  0  0  0  0
   24.8453   -9.3114  -22.7954 C   0  0  0  0  0  0  0  0  0  0  0  0
   25.2021  -10.1236  -21.5936 C   0  0  0  0  0  0  0  0  0  0  0  0
   26.5934  -10.5830  -21.5565 C   0  0  0  0  0  0  0  0  0  0  0  0
   27.0257  -11.3342  -20.3605 C   0  0  2  0  0  0  0  0  0  0  0  0
   28.4520  -11.7328  -20.5124 N   0  0  0  0  0  0  0  0  0  0  0  0
   26.2871  -12.5134  -19.9380 C   0  0  0  0  0  0  0  0  0  0  0  0
   25.2232  -12.4390  -19.0566 O   0  0  0  0  0  0  0  0  0  0  0  0
   26.5564  -13.7031  -20.3364 O   0  0  0  0  0  0  0  0  0  0  0  0
  2  1  1  6
  2  9  1  0
  3  2  1  0
  3  4  1  0
  4  5  2  0
  4  8  1  0
  5  6  1  0
  6  7  1  0
  8  7  2  0
  9 10  2  0
 11  9  1  0
 11 12  1  0
 12 17  1  0
 12 13  1  1
 13 14  1  0
 15 19  1  0
 15 14  1  0
 16 15  2  0
 17 18  2  0
 20 21  1  0
 21 22  2  0
 23 21  1  0
 23 24  1  0
 24 25  1  0
 25 26  1  0
 27 26  1  6
 27 29  1  0
 28 27  1  0
 28 17  1  0
 29 31  2  0
 29 30  1  0
M  END
$$$$
