HER.pdb
     RDKit          3D

 31 31  0  0  1  0  0  0  0  0999 V2000
   26.0843  -17.2471  -20.2224 N   0  0  0  0  0  0  0  0  0  0  0  0
   26.2615  -17.4519  -18.8098 C   0  0  1  0  0  0  0  0  0  0  0  0
   27.1682  -16.4143  -18.1871 C   0  0  0  0  0  0  0  0  0  0  0  0
   28.5843  -16.5627  -18.6021 C   0  0  0  0  0  0  0  0  0  0  0  0
   29.4031  -15.6629  -19.2447 C   0  0  0  0  0  0  0  0  0  0  0  0
   30.6203  -16.1959  -19.4386 N   0  0  0  0  0  0  0  0  0  0  0  0
   30.5892  -17.4515  -18.9169 C   0  0  0  0  0  0  0  0  0  0  0  0
   29.3592  -17.6689  -18.4134 N   0  0  0  0  0  0  0  0  0  0  0  0
   24.9335  -17.2907  -18.1327 C   0  0  0  0  0  0  0  0  0  0  0  0
   24.1944  -16.3031  -18.2703 O   0  0  0  0  0  0  0  0  0  0  0  0
   24.4989  -18.3390  -17.2805 N   0  0  0  0  0  0  0  0  0  0  0  0
   23.1607  -18.3715  -16.7268 C   0  0  1  0  0  0  0  0  0  0  0  0
   22.1041  -18.1235  -17.7267 C   0  0  0  0  0  0  0  0  0  0  0  0
   21.8470  -16.7568  -18.1942 C   0  0  0  0  0  0  0  0  0  0  0  0
   21.5425  -16.4961  -19.5858 C   0  0  0  0  0  0  0  0  0  0  0  0
   22.2961  -15.9038  -20.3763 O   0  0  0  0  0  0  0  0  0  0  0  0
   23.0136  -19.5102  -15.8178 C   0  0  0  0  0  0  0  0  0  0  0  0
   23.2718  -20.7041  -16.2069 O   0  0  0  0  0  0  0  0  0  0  0  0
   20.3155  -16.9134  -20.1708 O   0  0  0  0  0  0  0  0  0  0  0  0
   25.7760  -20.1424   -7.7880 N   0  0  0  0  0  0  0  0  0  0  0  0
   26.4677  -20.9139   -8.7483 C   0  0  0  0  0  0  0  0  0  0  0  0
   27.6525  -21.3342   -8.4832 N   0  0  0  0  0  0  0  0  0  0  0  0
   25.8696  -21.2290  -10.0024 N   0  0  0  0  0  0  0  0  0  0  0  0
   24.7052  -20.4961  -10.4290 C   0  0  0  0  0  0  0  0  0  0  0  0
   24.2393  -20.9014  -11.7892 C   0  0  0  0  0  0  0  0  0  0  0  0
   23.0070  -20.2446  -12.2348 C   0  0  0  0  0  0  0  0  0  0  0  0
   22.5068  -20.5882  -13.5814 C   0  0  2  0  0  0  0  0  0  0  0  0
   22.5908  -19.3916  -14.4632 N   0  0  0  0  0  0  0  0  0  0  0  0
   21.1758  -21.1522  -13.7391 C   0  0  0  0  0  0  0  0  0  0  0  0
   20.9325  -22.5091  -13.6205 O   0  0  0  0  0  0  0  0  0  0  0  0
   20.1323  -20.4527  -14.0005 O   0  0  0  0  0  0  0  0  0  0  0  0
  2  1  1  6
  2  9  1  0
  3  2  1  0
  3  4  1  0
  4  5  2  0
  4  8  1  0
  5  6  1  0
  6  7  1  0
  8  7  2  0
  9 10  2  0
 11  9  1  0
 11 12  1  0
 12 17  1  0
 12 13  1  6
 13 14  1  0
 15 19  1  0
 15 14  1  0
 16 15  2  0
 17 18  2  0
 20 21  1  0
 21 22  2  0
 23 21  1  0
 23 24  1  0
 24 25  1  0
 25 26  1  0
 27 26  1  1
 27 29  1  0
 28 27  1  0
 28 17  1  0
 29 31  2  0
 29 30  1  0
M  END
$$$$
