HER.pdb
     RDKit          3D

 31 31  0  0  1  0  0  0  0  0999 V2000
   23.4431  -14.8687  -19.8061 N   0  0  0  0  0  0  0  0  0  0  0  0
   24.1762  -16.0935  -19.6296 C   0  0  1  0  0  0  0  0  0  0  0  0
   25.6051  -15.9835  -20.1119 C   0  0  0  0  0  0  0  0  0  0  0  0
   25.7083  -15.8655  -21.5866 C   0  0  0  0  0  0  0  0  0  0  0  0
   25.9990  -14.7615  -22.3545 C   0  0  0  0  0  0  0  0  0  0  0  0
   25.9905  -15.0846  -23.6579 N   0  0  0  0  0  0  0  0  0  0  0  0
   25.6918  -16.4092  -23.7344 C   0  0  0  0  0  0  0  0  0  0  0  0
   25.5223  -16.8765  -22.4828 N   0  0  0  0  0  0  0  0  0  0  0  0
   24.2636  -16.3917  -18.1628 C   0  0  0  0  0  0  0  0  0  0  0  0
   24.3454  -15.5256  -17.2774 O   0  0  0  0  0  0  0  0  0  0  0  0
   24.2516  -17.7546  -17.7674 N   0  0  0  0  0  0  0  0  0  0  0  0
   24.1609  -18.1481  -16.3763 C   0  0  1  0  0  0  0  0  0  0  0  0
   22.8739  -18.7797  -16.0263 C   0  0  0  0  0  0  0  0  0  0  0  0
   22.6890  -19.3731  -14.6973 C   0  0  0  0  0  0  0  0  0  0  0  0
   21.4553  -20.0496  -14.3546 C   0  0  0  0  0  0  0  0  0  0  0  0
   20.3373  -19.5086  -14.3199 O   0  0  0  0  0  0  0  0  0  0  0  0
   25.4013  -18.7993  -15.9496 C   0  0  0  0  0  0  0  0  0  0  0  0
   25.9939  -19.6504  -16.7032 O   0  0  0  0  0  0  0  0  0  0  0  0
   21.4313  -21.4316  -14.0207 O   0  0  0  0  0  0  0  0  0  0  0  0
   24.5264  -19.9217   -8.6290 N   0  0  0  0  0  0  0  0  0  0  0  0
   25.4929  -20.9486   -8.7138 C   0  0  0  0  0  0  0  0  0  0  0  0
   25.5242  -21.8597   -7.8086 N   0  0  0  0  0  0  0  0  0  0  0  0
   26.4298  -20.9848   -9.7864 N   0  0  0  0  0  0  0  0  0  0  0  0
   26.3629  -19.9750  -10.8116 C   0  0  0  0  0  0  0  0  0  0  0  0
   27.3979  -20.1651  -11.8718 C   0  0  0  0  0  0  0  0  0  0  0  0
   27.4942  -19.0662  -12.8370 C   0  0  0  0  0  0  0  0  0  0  0  0
   27.1877  -19.3770  -14.2481 C   0  0  2  0  0  0  0  0  0  0  0  0
   26.0396  -18.5452  -14.7024 N   0  0  0  0  0  0  0  0  0  0  0  0
   26.9157  -20.7488  -14.6466 C   0  0  0  0  0  0  0  0  0  0  0  0
   27.9208  -21.6141  -15.0406 O   0  0  0  0  0  0  0  0  0  0  0  0
   25.7406  -21.2639  -14.6699 O   0  0  0  0  0  0  0  0  0  0  0  0
  2  1  1  1
  2  9  1  0
  3  2  1  0
  3  4  1  0
  4  5  2  0
  4  8  1  0
  5  6  1  0
  6  7  1  0
  8  7  2  0
  9 10  2  0
 11  9  1  0
 11 12  1  0
 12 17  1  0
 12 13  1  6
 13 14  1  0
 15 19  1  0
 15 14  1  0
 16 15  2  0
 17 18  2  0
 20 21  1  0
 21 22  2  0
 23 21  1  0
 23 24  1  0
 24 25  1  0
 25 26  1  0
 27 26  1  1
 27 29  1  0
 28 27  1  0
 28 17  1  0
 29 31  2  0
 29 30  1  0
M  END
$$$$
