HER.pdb
     RDKit          3D

 31 31  0  0  1  0  0  0  0  0999 V2000
   29.5168  -34.8366  -22.9923 N   0  0  0  0  0  0  0  0  0  0  0  0
   29.2385  -33.4336  -23.1445 C   0  0  1  0  0  0  0  0  0  0  0  0
   27.7561  -33.1359  -23.1285 C   0  0  0  0  0  0  0  0  0  0  0  0
   27.0409  -33.7066  -24.2957 C   0  0  0  0  0  0  0  0  0  0  0  0
   27.0896  -33.3290  -25.6178 C   0  0  0  0  0  0  0  0  0  0  0  0
   26.2829  -34.1088  -26.3556 N   0  0  0  0  0  0  0  0  0  0  0  0
   25.7072  -34.9991  -25.5038 C   0  0  0  0  0  0  0  0  0  0  0  0
   26.1670  -34.7531  -24.2622 N   0  0  0  0  0  0  0  0  0  0  0  0
   29.8133  -32.7016  -21.9690 C   0  0  0  0  0  0  0  0  0  0  0  0
   30.0195  -33.2159  -20.8584 O   0  0  0  0  0  0  0  0  0  0  0  0
   30.1408  -31.3319  -22.1441 N   0  0  0  0  0  0  0  0  0  0  0  0
   30.7792  -30.5572  -21.0998 C   0  0  1  0  0  0  0  0  0  0  0  0
   32.0363  -29.9143  -21.5290 C   0  0  0  0  0  0  0  0  0  0  0  0
   32.8181  -29.1259  -20.5701 C   0  0  0  0  0  0  0  0  0  0  0  0
   34.0695  -28.5122  -20.9633 C   0  0  0  0  0  0  0  0  0  0  0  0
   34.7843  -27.8218  -20.2175 O   0  0  0  0  0  0  0  0  0  0  0  0
   29.7871  -29.7512  -20.3852 C   0  0  0  0  0  0  0  0  0  0  0  0
   28.9082  -29.0683  -21.0213 O   0  0  0  0  0  0  0  0  0  0  0  0
   34.5910  -28.6595  -22.2779 O   0  0  0  0  0  0  0  0  0  0  0  0
   27.1109  -32.5435  -12.9562 N   0  0  0  0  0  0  0  0  0  0  0  0
   26.7023  -33.1660  -14.1567 C   0  0  0  0  0  0  0  0  0  0  0  0
   26.1411  -34.3206  -14.1076 N   0  0  0  0  0  0  0  0  0  0  0  0
   26.9054  -32.5314  -15.4159 N   0  0  0  0  0  0  0  0  0  0  0  0
   27.5421  -31.2399  -15.4569 C   0  0  0  0  0  0  0  0  0  0  0  0
   27.6965  -30.7207  -16.8490 C   0  0  0  0  0  0  0  0  0  0  0  0
   28.3908  -29.4337  -16.9486 C   0  0  0  0  0  0  0  0  0  0  0  0
   28.6235  -28.8942  -18.3038 C   0  0  2  0  0  0  0  0  0  0  0  0
   29.7114  -29.6653  -18.9658 N   0  0  0  0  0  0  0  0  0  0  0  0
   28.9210  -27.4819  -18.4816 C   0  0  0  0  0  0  0  0  0  0  0  0
   30.2160  -27.0135  -18.6150 O   0  0  0  0  0  0  0  0  0  0  0  0
   28.0241  -26.5653  -18.5256 O   0  0  0  0  0  0  0  0  0  0  0  0
  2  1  1  1
  2  9  1  0
  3  2  1  0
  3  4  1  0
  4  5  2  0
  4  8  1  0
  5  6  1  0
  6  7  1  0
  8  7  2  0
  9 10  2  0
 11  9  1  0
 11 12  1  0
 12 17  1  0
 12 13  1  6
 13 14  1  0
 15 19  1  0
 15 14  1  0
 16 15  2  0
 17 18  2  0
 20 21  1  0
 21 22  2  0
 23 21  1  0
 23 24  1  0
 24 25  1  0
 25 26  1  0
 27 26  1  1
 27 29  1  0
 28 27  1  0
 28 17  1  0
 29 31  2  0
 29 30  1  0
M  END
$$$$
