HER.pdb
     RDKit          3D

 31 31  0  0  1  0  0  0  0  0999 V2000
   21.1041  -18.4454  -17.7205 N   0  0  0  0  0  0  0  0  0  0  0  0
   21.8711  -17.9005  -16.6326 C   0  0  1  0  0  0  0  0  0  0  0  0
   21.0038  -17.5027  -15.4595 C   0  0  0  0  0  0  0  0  0  0  0  0
   20.1299  -16.3418  -15.7562 C   0  0  0  0  0  0  0  0  0  0  0  0
   20.1104  -15.5261  -16.8640 C   0  0  0  0  0  0  0  0  0  0  0  0
   19.1609  -14.5854  -16.7339 N   0  0  0  0  0  0  0  0  0  0  0  0
   18.5605  -14.7941  -15.5316 C   0  0  0  0  0  0  0  0  0  0  0  0
   19.1480  -15.8545  -14.9450 N   0  0  0  0  0  0  0  0  0  0  0  0
   22.7916  -18.9651  -16.1156 C   0  0  0  0  0  0  0  0  0  0  0  0
   22.5437  -20.1808  -16.1515 O   0  0  0  0  0  0  0  0  0  0  0  0
   24.0248  -18.5495  -15.5497 N   0  0  0  0  0  0  0  0  0  0  0  0
   24.9978  -19.4995  -15.0507 C   0  0  1  0  0  0  0  0  0  0  0  0
   26.1625  -19.6712  -15.9405 C   0  0  0  0  0  0  0  0  0  0  0  0
   27.2660  -18.7056  -15.8939 C   0  0  0  0  0  0  0  0  0  0  0  0
   28.2272  -18.6281  -16.9743 C   0  0  0  0  0  0  0  0  0  0  0  0
   29.2337  -17.8996  -16.9754 O   0  0  0  0  0  0  0  0  0  0  0  0
   25.2323  -19.2845  -13.6212 C   0  0  0  0  0  0  0  0  0  0  0  0
   25.1884  -18.1080  -13.1139 O   0  0  0  0  0  0  0  0  0  0  0  0
   28.0852  -19.4073  -18.1552 O   0  0  0  0  0  0  0  0  0  0  0  0
   19.2015  -22.5029  -10.4388 N   0  0  0  0  0  0  0  0  0  0  0  0
   19.2571  -21.4576   -9.4901 C   0  0  0  0  0  0  0  0  0  0  0  0
   18.5023  -21.5093   -8.4518 N   0  0  0  0  0  0  0  0  0  0  0  0
   20.1359  -20.3511   -9.6712 N   0  0  0  0  0  0  0  0  0  0  0  0
   20.9709  -20.3021  -10.8440 C   0  0  0  0  0  0  0  0  0  0  0  0
   22.4203  -20.4691  -10.5233 C   0  0  0  0  0  0  0  0  0  0  0  0
   23.3172  -20.3790  -11.6790 C   0  0  0  0  0  0  0  0  0  0  0  0
   24.7690  -20.4406  -11.4145 C   0  0  2  0  0  0  0  0  0  0  0  0
   25.5135  -20.3327  -12.6992 N   0  0  0  0  0  0  0  0  0  0  0  0
   25.3262  -21.5666  -10.6821 C   0  0  0  0  0  0  0  0  0  0  0  0
   25.7757  -22.7094  -11.3194 O   0  0  0  0  0  0  0  0  0  0  0  0
   25.4432  -21.5974   -9.4046 O   0  0  0  0  0  0  0  0  0  0  0  0
  2  1  1  6
  2  9  1  0
  3  2  1  0
  3  4  1  0
  4  5  2  0
  4  8  1  0
  5  6  1  0
  6  7  1  0
  8  7  2  0
  9 10  2  0
 11  9  1  0
 11 12  1  0
 12 17  1  0
 12 13  1  6
 13 14  1  0
 15 19  1  0
 15 14  1  0
 16 15  2  0
 17 18  2  0
 20 21  1  0
 21 22  2  0
 23 21  1  0
 23 24  1  0
 24 25  1  0
 25 26  1  0
 27 26  1  6
 27 29  1  0
 28 27  1  0
 28 17  1  0
 29 31  2  0
 29 30  1  0
M  END
$$$$
