HER.pdb
     RDKit          3D

 31 31  0  0  1  0  0  0  0  0999 V2000
   25.2201  -10.1109  -18.4467 N   0  0  0  0  0  0  0  0  0  0  0  0
   24.9531  -10.3898  -17.0611 C   0  0  1  0  0  0  0  0  0  0  0  0
   25.9762   -9.7638  -16.1404 C   0  0  0  0  0  0  0  0  0  0  0  0
   27.3427  -10.3021  -16.3462 C   0  0  0  0  0  0  0  0  0  0  0  0
   27.8451  -11.5456  -16.0393 C   0  0  0  0  0  0  0  0  0  0  0  0
   29.1392  -11.6251  -16.3890 N   0  0  0  0  0  0  0  0  0  0  0  0
   29.4774  -10.4227  -16.9270 C   0  0  0  0  0  0  0  0  0  0  0  0
   28.3910   -9.6275  -16.8993 N   0  0  0  0  0  0  0  0  0  0  0  0
   23.6394   -9.7681  -16.6925 C   0  0  0  0  0  0  0  0  0  0  0  0
   23.1354   -8.7988  -17.2815 O   0  0  0  0  0  0  0  0  0  0  0  0
   22.9312  -10.3289  -15.5980 N   0  0  0  0  0  0  0  0  0  0  0  0
   21.5168  -10.0896  -15.3971 C   0  0  1  0  0  0  0  0  0  0  0  0
   20.7308  -11.3253  -15.2159 C   0  0  0  0  0  0  0  0  0  0  0  0
   19.3048  -11.2416  -14.8811 C   0  0  0  0  0  0  0  0  0  0  0  0
   18.4986  -12.4398  -14.7743 C   0  0  0  0  0  0  0  0  0  0  0  0
   17.3006  -12.4599  -14.4452 O   0  0  0  0  0  0  0  0  0  0  0  0
   21.3160   -8.9857  -14.4559 C   0  0  0  0  0  0  0  0  0  0  0  0
   22.1077   -8.8119  -13.4626 O   0  0  0  0  0  0  0  0  0  0  0  0
   19.0371  -13.7271  -15.0477 O   0  0  0  0  0  0  0  0  0  0  0  0
   16.0369   -5.8173   -9.4798 N   0  0  0  0  0  0  0  0  0  0  0  0
   16.2886   -4.5313  -10.0079 C   0  0  0  0  0  0  0  0  0  0  0  0
   15.6230   -3.5268   -9.5625 N   0  0  0  0  0  0  0  0  0  0  0  0
   17.2670   -4.3366  -11.0249 N   0  0  0  0  0  0  0  0  0  0  0  0
   17.6183   -5.4399  -11.8818 C   0  0  0  0  0  0  0  0  0  0  0  0
   18.5920   -5.0517  -12.9462 C   0  0  0  0  0  0  0  0  0  0  0  0
   18.9363   -6.1260  -13.8819 C   0  0  0  0  0  0  0  0  0  0  0  0
   19.9558   -7.1017  -13.4456 C   0  0  2  0  0  0  0  0  0  0  0  0
   20.2608   -8.0358  -14.5640 N   0  0  0  0  0  0  0  0  0  0  0  0
   19.7279   -7.9068  -12.2563 C   0  0  0  0  0  0  0  0  0  0  0  0
   20.2813   -7.5822  -11.0305 O   0  0  0  0  0  0  0  0  0  0  0  0
   19.0098   -8.9701  -12.2430 O   0  0  0  0  0  0  0  0  0  0  0  0
  2  1  1  6
  2  9  1  0
  3  2  1  0
  3  4  1  0
  4  5  2  0
  4  8  1  0
  5  6  1  0
  6  7  1  0
  8  7  2  0
  9 10  2  0
 11  9  1  0
 11 12  1  0
 12 17  1  0
 12 13  1  1
 13 14  1  0
 15 19  1  0
 15 14  1  0
 16 15  2  0
 17 18  2  0
 20 21  1  0
 21 22  2  0
 23 21  1  0
 23 24  1  0
 24 25  1  0
 25 26  1  0
 27 26  1  6
 27 29  1  0
 28 27  1  0
 28 17  1  0
 29 31  2  0
 29 30  1  0
M  END
$$$$
