DML.pdb
     RDKit          3D

 25 24  0  0  1  0  0  0  0  0999 V2000
   19.6108  -21.2139  -11.5490 N   0  0  0  0  0  0  0  0  0  0  0  0
   20.2210  -21.3077  -12.8620 C   0  0  1  0  0  0  0  0  0  0  0  0
   19.1979  -20.8083  -13.8682 C   0  0  0  0  0  0  0  0  0  0  0  0
   18.2830  -21.8779  -14.2798 C   0  0  0  0  0  0  0  0  0  0  0  0
   18.4494  -23.0181  -13.7582 O   0  0  0  0  0  0  0  0  0  0  0  0
   21.4536  -20.4782  -12.9384 C   0  0  0  0  0  0  0  0  0  0  0  0
   21.4414  -19.2693  -12.6383 O   0  0  0  0  0  0  0  0  0  0  0  0
   17.2545  -21.7464  -15.1891 O   0  0  0  0  0  0  0  0  0  0  0  0
   29.0363  -21.0554  -11.4395 C   0  0  0  0  0  0  0  0  0  0  0  0
   27.4038  -21.7909  -11.6380 S   0  0  0  0  0  0  0  0  0  0  0  0
   26.2905  -20.6582  -12.5102 C   0  0  0  0  0  0  0  0  0  0  0  0
   24.9354  -21.3135  -12.5854 C   0  0  0  0  0  0  0  0  0  0  0  0
   23.9385  -20.4210  -13.3364 C   0  0  2  0  0  0  0  0  0  0  0  0
   22.6595  -21.0605  -13.3560 N   0  0  0  0  0  0  0  0  0  0  0  0
   24.4314  -20.3068  -14.7337 C   0  0  0  0  0  0  0  0  0  0  0  0
   24.3704  -21.3028  -15.5091 O   0  0  0  0  0  0  0  0  0  0  0  0
   22.9950  -18.4668  -18.3145 C   0  0  0  0  0  0  0  0  0  0  0  0
   23.6368  -17.3998  -17.4131 C   0  0  2  0  0  0  0  0  0  0  0  0
   23.3634  -16.0697  -18.0489 C   0  0  0  0  0  0  0  0  0  0  0  0
   25.0739  -17.6905  -17.1988 C   0  0  0  0  0  0  0  0  0  0  0  0
   25.4102  -19.0313  -16.6446 C   0  0  2  0  0  0  0  0  0  0  0  0
   24.9762  -19.1037  -15.2383 N   0  0  0  0  0  0  0  0  0  0  0  0
   26.8839  -19.2608  -16.6878 C   0  0  0  0  0  0  0  0  0  0  0  0
   27.4827  -19.5871  -17.7292 O   0  0  0  0  0  0  0  0  0  0  0  0
   27.6600  -19.1130  -15.5312 O   0  0  0  0  0  0  0  0  0  0  0  0
  2  1  1  1
  2  3  1  0
  3  4  1  0
  4  5  2  0
  6  2  1  0
  6  7  2  0
  8  4  1  0
  9 10  1  0
 10 11  1  0
 11 12  1  0
 13 12  1  1
 13 14  1  0
 14  6  1  0
 15 22  1  0
 15 13  1  0
 16 15  2  0
 18 20  1  0
 18 17  1  6
 19 18  1  0
 21 22  1  0
 21 20  1  1
 23 21  1  0
 24 23  2  0
 25 23  1  0
M  END
$$$$
