DML.pdb
     RDKit          3D

 25 24  0  0  1  0  0  0  0  0999 V2000
   16.5763  -14.4634  -17.1848 N   0  0  0  0  0  0  0  0  0  0  0  0
   16.1980  -13.1090  -16.8278 C   0  0  1  0  0  0  0  0  0  0  0  0
   15.9358  -13.0968  -15.3313 C   0  0  0  0  0  0  0  0  0  0  0  0
   14.8433  -14.0059  -14.9700 C   0  0  0  0  0  0  0  0  0  0  0  0
   13.7783  -13.9335  -15.6484 O   0  0  0  0  0  0  0  0  0  0  0  0
   17.2825  -12.1465  -17.1602 C   0  0  0  0  0  0  0  0  0  0  0  0
   18.4829  -12.4714  -17.0867 O   0  0  0  0  0  0  0  0  0  0  0  0
   14.8780  -14.9350  -13.9514 O   0  0  0  0  0  0  0  0  0  0  0  0
   16.1804   -5.3691  -18.2717 C   0  0  0  0  0  0  0  0  0  0  0  0
   17.1502   -6.1598  -19.5677 S   0  0  0  0  0  0  0  0  0  0  0  0
   18.1176   -7.5371  -18.8966 C   0  0  0  0  0  0  0  0  0  0  0  0
   17.1508   -8.6091  -18.4635 C   0  0  0  0  0  0  0  0  0  0  0  0
   17.8984   -9.8127  -17.8746 C   0  0  2  0  0  0  0  0  0  0  0  0
   16.9568  -10.8438  -17.5656 N   0  0  0  0  0  0  0  0  0  0  0  0
   18.5268   -9.3516  -16.6094 C   0  0  0  0  0  0  0  0  0  0  0  0
   17.8399   -9.2820  -15.5509 O   0  0  0  0  0  0  0  0  0  0  0  0
   23.5279  -10.2621  -13.5539 C   0  0  0  0  0  0  0  0  0  0  0  0
   22.2981   -9.3439  -13.6411 C   0  0  2  0  0  0  0  0  0  0  0  0
   21.5111   -9.5480  -12.3813 C   0  0  0  0  0  0  0  0  0  0  0  0
   21.5371   -9.6041  -14.8855 C   0  0  0  0  0  0  0  0  0  0  0  0
   20.4848   -8.6138  -15.2462 C   0  0  2  0  0  0  0  0  0  0  0  0
   19.8895   -8.9810  -16.5431 N   0  0  0  0  0  0  0  0  0  0  0  0
   21.0732   -7.2487  -15.3756 C   0  0  0  0  0  0  0  0  0  0  0  0
   21.5219   -6.8097  -16.4506 O   0  0  0  0  0  0  0  0  0  0  0  0
   21.1415   -6.3967  -14.2661 O   0  0  0  0  0  0  0  0  0  0  0  0
  2  1  1  1
  2  3  1  0
  3  4  1  0
  4  5  2  0
  6  2  1  0
  6  7  2  0
  8  4  1  0
  9 10  1  0
 10 11  1  0
 11 12  1  0
 13 12  1  1
 13 14  1  0
 14  6  1  0
 15 22  1  0
 15 13  1  0
 16 15  2  0
 18 20  1  0
 18 17  1  1
 19 18  1  0
 21 22  1  0
 21 20  1  6
 23 21  1  0
 24 23  2  0
 25 23  1  0
M  END
$$$$
