DML.pdb
     RDKit          3D

 25 24  0  0  1  0  0  0  0  0999 V2000
   27.4925  -19.6668  -15.2499 N   0  0  0  0  0  0  0  0  0  0  0  0
   26.9892  -20.9869  -15.5803 C   0  0  1  0  0  0  0  0  0  0  0  0
   28.1925  -21.8586  -15.8974 C   0  0  0  0  0  0  0  0  0  0  0  0
   28.8909  -21.3933  -17.1000 C   0  0  0  0  0  0  0  0  0  0  0  0
   28.5728  -21.9287  -18.2008 O   0  0  0  0  0  0  0  0  0  0  0  0
   26.2281  -21.5683  -14.4421 C   0  0  0  0  0  0  0  0  0  0  0  0
   25.8141  -22.7428  -14.4713 O   0  0  0  0  0  0  0  0  0  0  0  0
   29.8671  -20.4197  -17.1331 O   0  0  0  0  0  0  0  0  0  0  0  0
   27.4900  -20.7678   -8.2438 C   0  0  0  0  0  0  0  0  0  0  0  0
   25.7359  -20.3573   -8.2344 S   0  0  0  0  0  0  0  0  0  0  0  0
   24.9163  -21.0058   -9.7146 C   0  0  0  0  0  0  0  0  0  0  0  0
   25.7328  -20.5894  -10.9111 C   0  0  0  0  0  0  0  0  0  0  0  0
   25.1480  -21.1773  -12.2021 C   0  0  2  0  0  0  0  0  0  0  0  0
   25.9660  -20.7856  -13.3079 N   0  0  0  0  0  0  0  0  0  0  0  0
   23.7995  -20.5774  -12.3757 C   0  0  0  0  0  0  0  0  0  0  0  0
   23.6848  -19.3530  -12.6669 O   0  0  0  0  0  0  0  0  0  0  0  0
   21.2429  -19.5226  -15.6248 C   0  0  0  0  0  0  0  0  0  0  0  0
   21.9340  -20.8742  -15.3830 C   0  0  2  0  0  0  0  0  0  0  0  0
   21.8897  -21.6250  -16.6801 C   0  0  0  0  0  0  0  0  0  0  0  0
   21.3089  -21.5860  -14.2437 C   0  0  0  0  0  0  0  0  0  0  0  0
   21.3850  -20.9186  -12.9144 C   0  0  2  0  0  0  0  0  0  0  0  0
   22.6177  -21.3384  -12.2247 N   0  0  0  0  0  0  0  0  0  0  0  0
   20.2221  -21.3094  -12.0652 C   0  0  0  0  0  0  0  0  0  0  0  0
   19.0907  -20.8091  -12.2042 O   0  0  0  0  0  0  0  0  0  0  0  0
   20.3686  -22.2743  -11.0606 O   0  0  0  0  0  0  0  0  0  0  0  0
  2  1  1  1
  2  3  1  0
  3  4  1  0
  4  5  2  0
  6  2  1  0
  6  7  2  0
  8  4  1  0
  9 10  1  0
 10 11  1  0
 11 12  1  0
 13 12  1  1
 13 14  1  0
 14  6  1  0
 15 22  1  0
 15 13  1  0
 16 15  2  0
 18 20  1  0
 18 17  1  6
 19 18  1  0
 21 22  1  0
 21 20  1  6
 23 21  1  0
 24 23  2  0
 25 23  1  0
M  END
$$$$
