DML.pdb
     RDKit          3D

 25 24  0  0  1  0  0  0  0  0999 V2000
   19.1046  -13.7703  -16.3938 N   0  0  0  0  0  0  0  0  0  0  0  0
   20.1034  -12.7588  -16.6840 C   0  0  1  0  0  0  0  0  0  0  0  0
   20.9279  -13.2664  -17.8550 C   0  0  0  0  0  0  0  0  0  0  0  0
   22.0643  -12.3828  -18.1347 C   0  0  0  0  0  0  0  0  0  0  0  0
   22.6610  -11.8714  -17.1437 O   0  0  0  0  0  0  0  0  0  0  0  0
   19.4640  -11.4632  -17.0382 C   0  0  0  0  0  0  0  0  0  0  0  0
   19.0892  -11.2215  -18.2014 O   0  0  0  0  0  0  0  0  0  0  0  0
   22.5390  -12.0610  -19.3890 O   0  0  0  0  0  0  0  0  0  0  0  0
   14.4639  -11.1424  -14.7938 C   0  0  0  0  0  0  0  0  0  0  0  0
   14.6436   -9.5112  -15.5370 S   0  0  0  0  0  0  0  0  0  0  0  0
   16.1779   -9.4072  -16.4954 C   0  0  0  0  0  0  0  0  0  0  0  0
   17.3100   -9.1815  -15.5265 C   0  0  0  0  0  0  0  0  0  0  0  0
   18.6623   -9.2106  -16.2510 C   0  0  2  0  0  0  0  0  0  0  0  0
   19.2749  -10.4870  -16.0489 N   0  0  0  0  0  0  0  0  0  0  0  0
   19.5134   -8.1717  -15.6149 C   0  0  0  0  0  0  0  0  0  0  0  0
   20.1042   -8.4183  -14.5253 O   0  0  0  0  0  0  0  0  0  0  0  0
   22.6096   -3.0986  -17.1357 C   0  0  0  0  0  0  0  0  0  0  0  0
   22.0627   -3.9490  -15.9778 C   0  0  2  0  0  0  0  0  0  0  0  0
   23.2354   -4.3302  -15.1248 C   0  0  0  0  0  0  0  0  0  0  0  0
   21.2840   -5.0988  -16.4945 C   0  0  0  0  0  0  0  0  0  0  0  0
   20.5056   -5.8831  -15.4959 C   0  0  2  0  0  0  0  0  0  0  0  0
   19.6911   -6.8938  -16.1931 N   0  0  0  0  0  0  0  0  0  0  0  0
   19.5848   -4.9910  -14.7326 C   0  0  0  0  0  0  0  0  0  0  0  0
   18.4457   -4.6957  -15.1387 O   0  0  0  0  0  0  0  0  0  0  0  0
   19.9810   -4.4440  -13.5056 O   0  0  0  0  0  0  0  0  0  0  0  0
  2  1  1  6
  2  3  1  0
  3  4  1  0
  4  5  2  0
  6  2  1  0
  6  7  2  0
  8  4  1  0
  9 10  1  0
 10 11  1  0
 11 12  1  0
 13 12  1  1
 13 14  1  0
 14  6  1  0
 15 22  1  0
 15 13  1  0
 16 15  2  0
 18 20  1  0
 18 17  1  6
 19 18  1  0
 21 22  1  0
 21 20  1  6
 23 21  1  0
 24 23  2  0
 25 23  1  0
M  END
$$$$
