DML.pdb
     RDKit          3D

 25 24  0  0  1  0  0  0  0  0999 V2000
   14.2054  -23.6590    1.0372 N   0  0  0  0  0  0  0  0  0  0  0  0
   15.0927  -23.2068    2.0922 C   0  0  1  0  0  0  0  0  0  0  0  0
   16.4483  -23.8457    1.8420 C   0  0  0  0  0  0  0  0  0  0  0  0
   16.4655  -25.2507    2.2620 C   0  0  0  0  0  0  0  0  0  0  0  0
   15.4005  -25.7238    2.7534 O   0  0  0  0  0  0  0  0  0  0  0  0
   15.2215  -21.7248    2.0828 C   0  0  0  0  0  0  0  0  0  0  0  0
   15.9661  -21.1437    1.2707 O   0  0  0  0  0  0  0  0  0  0  0  0
   17.5464  -26.1020    2.1666 O   0  0  0  0  0  0  0  0  0  0  0  0
   11.0817  -18.1244    5.8470 C   0  0  0  0  0  0  0  0  0  0  0  0
   12.6071  -17.1658    5.8381 S   0  0  0  0  0  0  0  0  0  0  0  0
   13.6228  -17.5882    4.3983 C   0  0  0  0  0  0  0  0  0  0  0  0
   13.7142  -19.0907    4.3256 C   0  0  0  0  0  0  0  0  0  0  0  0
   14.5144  -19.5299    3.0923 C   0  0  2  0  0  0  0  0  0  0  0  0
   14.4934  -20.9571    3.0038 N   0  0  0  0  0  0  0  0  0  0  0  0
   15.9171  -19.0903    3.3107 C   0  0  0  0  0  0  0  0  0  0  0  0
   16.7301  -19.8466    3.9141 O   0  0  0  0  0  0  0  0  0  0  0  0
   19.7042  -14.5613    1.6110 C   0  0  0  0  0  0  0  0  0  0  0  0
   19.6214  -15.9695    2.2219 C   0  0  2  0  0  0  0  0  0  0  0  0
   20.7058  -16.7858    1.5849 C   0  0  0  0  0  0  0  0  0  0  0  0
   18.2597  -16.5310    2.0611 C   0  0  0  0  0  0  0  0  0  0  0  0
   17.7726  -17.4269    3.1466 C   0  0  2  0  0  0  0  0  0  0  0  0
   16.3857  -17.8346    2.8607 N   0  0  0  0  0  0  0  0  0  0  0  0
   17.7861  -16.7154    4.4580 C   0  0  0  0  0  0  0  0  0  0  0  0
   16.8774  -15.9416    4.8119 O   0  0  0  0  0  0  0  0  0  0  0  0
   18.8462  -16.8990    5.3548 O   0  0  0  0  0  0  0  0  0  0  0  0
  2  1  1  6
  2  3  1  0
  3  4  1  0
  4  5  2  0
  6  2  1  0
  6  7  2  0
  8  4  1  0
  9 10  1  0
 10 11  1  0
 11 12  1  0
 13 12  1  1
 13 14  1  0
 14  6  1  0
 15 22  1  0
 15 13  1  0
 16 15  2  0
 18 20  1  0
 18 17  1  6
 19 18  1  0
 21 22  1  0
 21 20  1  6
 23 21  1  0
 24 23  2  0
 25 23  1  0
M  END
$$$$
