DML.pdb
     RDKit          3D

 25 24  0  0  1  0  0  0  0  0999 V2000
   21.5719  -22.3253  -13.6881 N   0  0  0  0  0  0  0  0  0  0  0  0
   21.3514  -20.8917  -13.6555 C   0  0  1  0  0  0  0  0  0  0  0  0
   20.3772  -20.6139  -12.5232 C   0  0  0  0  0  0  0  0  0  0  0  0
   19.2264  -21.5217  -12.5698 C   0  0  0  0  0  0  0  0  0  0  0  0
   18.3197  -21.3560  -11.7038 O   0  0  0  0  0  0  0  0  0  0  0  0
   22.6253  -20.1608  -13.4188 C   0  0  0  0  0  0  0  0  0  0  0  0
   22.6422  -18.9281  -13.2406 O   0  0  0  0  0  0  0  0  0  0  0  0
   19.0482  -22.5429  -13.4794 O   0  0  0  0  0  0  0  0  0  0  0  0
   25.8654  -20.9107   -7.8244 C   0  0  0  0  0  0  0  0  0  0  0  0
   26.3721  -21.4265   -9.4745 S   0  0  0  0  0  0  0  0  0  0  0  0
   25.5598  -20.4170  -10.7410 C   0  0  0  0  0  0  0  0  0  0  0  0
   25.8599  -21.0345  -12.0826 C   0  0  0  0  0  0  0  0  0  0  0  0
   25.1304  -20.2839  -13.2045 C   0  0  2  0  0  0  0  0  0  0  0  0
   23.8378  -20.8656  -13.3942 N   0  0  0  0  0  0  0  0  0  0  0  0
   25.9255  -20.4842  -14.4439 C   0  0  0  0  0  0  0  0  0  0  0  0
   25.6616  -21.4497  -15.2154 O   0  0  0  0  0  0  0  0  0  0  0  0
   24.5244  -17.2874  -18.3254 C   0  0  0  0  0  0  0  0  0  0  0  0
   25.8478  -18.0143  -18.0368 C   0  0  2  0  0  0  0  0  0  0  0  0
   25.9555  -19.1342  -19.0280 C   0  0  0  0  0  0  0  0  0  0  0  0
   25.9115  -18.4441  -16.6203 C   0  0  0  0  0  0  0  0  0  0  0  0
   27.1344  -19.1826  -16.1991 C   0  0  2  0  0  0  0  0  0  0  0  0
   26.9859  -19.6195  -14.7997 N   0  0  0  0  0  0  0  0  0  0  0  0
   28.3343  -18.2999  -16.2849 C   0  0  0  0  0  0  0  0  0  0  0  0
   29.1316  -18.3410  -17.2400 O   0  0  0  0  0  0  0  0  0  0  0  0
   28.6093  -17.3746  -15.2700 O   0  0  0  0  0  0  0  0  0  0  0  0
  2  1  1  1
  2  3  1  0
  3  4  1  0
  4  5  2  0
  6  2  1  0
  6  7  2  0
  8  4  1  0
  9 10  1  0
 10 11  1  0
 11 12  1  0
 13 12  1  1
 13 14  1  0
 14  6  1  0
 15 22  1  0
 15 13  1  0
 16 15  2  0
 18 20  1  0
 18 17  1  1
 19 18  1  0
 21 22  1  0
 21 20  1  1
 23 21  1  0
 24 23  2  0
 25 23  1  0
M  END
$$$$
