DML.pdb
     RDKit          3D

 25 24  0  0  1  0  0  0  0  0999 V2000
   28.2346  -21.3174  -15.5669 N   0  0  0  0  0  0  0  0  0  0  0  0
   27.5216  -20.3422  -14.7634 C   0  0  1  0  0  0  0  0  0  0  0  0
   26.8452  -19.3788  -15.7241 C   0  0  0  0  0  0  0  0  0  0  0  0
   27.8274  -18.6383  -16.5225 C   0  0  0  0  0  0  0  0  0  0  0  0
   28.5591  -17.8036  -15.9162 O   0  0  0  0  0  0  0  0  0  0  0  0
   26.5014  -21.0013  -13.9046 C   0  0  0  0  0  0  0  0  0  0  0  0
   25.9052  -22.0293  -14.2783 O   0  0  0  0  0  0  0  0  0  0  0  0
   28.0216  -18.7745  -17.8811 O   0  0  0  0  0  0  0  0  0  0  0  0
   26.8444  -19.3518   -7.8681 C   0  0  0  0  0  0  0  0  0  0  0  0
   25.8657  -20.8534   -7.6859 S   0  0  0  0  0  0  0  0  0  0  0  0
   25.4758  -21.5666   -9.3053 C   0  0  0  0  0  0  0  0  0  0  0  0
   25.5351  -20.4561  -10.3224 C   0  0  0  0  0  0  0  0  0  0  0  0
   25.2339  -20.9883  -11.7297 C   0  0  2  0  0  0  0  0  0  0  0  0
   26.1973  -20.4616  -12.6460 N   0  0  0  0  0  0  0  0  0  0  0  0
   23.8920  -20.4727  -12.1064 C   0  0  0  0  0  0  0  0  0  0  0  0
   23.6670  -19.2292  -12.0974 O   0  0  0  0  0  0  0  0  0  0  0  0
   21.5574  -19.5236  -15.6951 C   0  0  0  0  0  0  0  0  0  0  0  0
   21.8004  -21.0056  -15.3673 C   0  0  2  0  0  0  0  0  0  0  0  0
   21.4170  -21.7905  -16.5860 C   0  0  0  0  0  0  0  0  0  0  0  0
   21.0741  -21.3958  -14.1361 C   0  0  0  0  0  0  0  0  0  0  0  0
   21.5311  -20.7720  -12.8633 C   0  0  2  0  0  0  0  0  0  0  0  0
   22.8376  -21.3365  -12.4817 N   0  0  0  0  0  0  0  0  0  0  0  0
   20.5635  -21.0571  -11.7638 C   0  0  0  0  0  0  0  0  0  0  0  0
   19.4429  -20.5188  -11.6987 O   0  0  0  0  0  0  0  0  0  0  0  0
   20.8917  -21.9609  -10.7454 O   0  0  0  0  0  0  0  0  0  0  0  0
  2  1  1  6
  2  3  1  0
  3  4  1  0
  4  5  2  0
  6  2  1  0
  6  7  2  0
  8  4  1  0
  9 10  1  0
 10 11  1  0
 11 12  1  0
 13 12  1  1
 13 14  1  0
 14  6  1  0
 15 22  1  0
 15 13  1  0
 16 15  2  0
 18 20  1  0
 18 17  1  6
 19 18  1  0
 21 22  1  0
 21 20  1  6
 23 21  1  0
 24 23  2  0
 25 23  1  0
M  END
$$$$
