AWN.pdb
     RDKit          3D

 28 29  0  0  1  0  0  0  0  0999 V2000
   26.9380  -21.7457  -18.6284 C   0  0  0  0  0  0  0  0  0  0  0  0
   27.9963  -21.8736  -17.5515 C   0  0  2  0  0  0  0  0  0  0  0  0
   28.7724  -23.0591  -17.8223 N   0  0  0  0  0  0  0  0  0  0  0  0
   27.3315  -22.0070  -16.2243 C   0  0  0  0  0  0  0  0  0  0  0  0
   26.8967  -23.1040  -15.8411 O   0  0  0  0  0  0  0  0  0  0  0  0
   27.1569  -20.9254  -15.3389 N   0  0  0  0  0  0  0  0  0  0  0  0
   26.6721  -21.0111  -13.9794 C   0  0  1  0  0  0  0  0  0  0  0  0
   27.2620  -20.0292  -13.0542 C   0  0  0  0  0  0  0  0  0  0  0  0
   26.9273  -20.1795  -11.6268 C   0  0  0  0  0  0  0  0  0  0  0  0
   25.7670  -19.7996  -10.9519 C   0  0  0  0  0  0  0  0  0  0  0  0
   25.8310  -20.0633   -9.6553 N   0  0  0  0  0  0  0  0  0  0  0  0
   27.0474  -20.6358   -9.4076 C   0  0  0  0  0  0  0  0  0  0  0  0
   27.6235  -21.1090   -8.2219 C   0  0  0  0  0  0  0  0  0  0  0  0
   28.8879  -21.6423   -8.3355 C   0  0  0  0  0  0  0  0  0  0  0  0
   29.5843  -21.7291   -9.5156 C   0  0  0  0  0  0  0  0  0  0  0  0
   28.9962  -21.2584  -10.6622 C   0  0  0  0  0  0  0  0  0  0  0  0
   27.7275  -20.7119  -10.6059 C   0  0  0  0  0  0  0  0  0  0  0  0
   25.2018  -20.9444  -14.0815 C   0  0  0  0  0  0  0  0  0  0  0  0
   24.6437  -20.2408  -14.9992 O   0  0  0  0  0  0  0  0  0  0  0  0
   19.9610  -23.5838  -12.5305 N   0  0  0  0  0  0  0  0  0  0  0  0
   20.7562  -22.3934  -12.4643 C   0  0  0  0  0  0  0  0  0  0  0  0
   20.1508  -21.2931  -12.4820 O   0  0  0  0  0  0  0  0  0  0  0  0
   22.2189  -22.3897  -12.3761 C   0  0  0  0  0  0  0  0  0  0  0  0
   22.8281  -21.4390  -13.4324 C   0  0  2  0  0  0  0  0  0  0  0  0
   24.2644  -21.6081  -13.2391 N   0  0  0  0  0  0  0  0  0  0  0  0
   22.4538  -20.0484  -13.1266 C   0  0  0  0  0  0  0  0  0  0  0  0
   22.8822  -19.4849  -12.1020 O   0  0  0  0  0  0  0  0  0  0  0  0
   21.6016  -19.3472  -14.0007 O   0  0  0  0  0  0  0  0  0  0  0  0
  2  3  1  0
  2  1  1  6
  4  2  1  0
  5  4  2  0
  6  4  1  0
  7  6  1  0
  8  9  1  0
  7  8  1  1
  9 10  2  0
 11 10  1  0
 12 11  1  0
 13 12  2  0
 14 13  1  0
 15 14  2  0
 15 16  1  0
 16 17  2  0
 17 12  1  0
 17  9  1  0
 18  7  1  0
 18 19  2  0
 21 20  1  0
 22 21  2  0
 23 21  1  0
 24 23  1  1
 24 25  1  0
 25 18  1  0
 26 24  1  0
 27 26  2  0
 28 26  1  0
M  END
$$$$
