AWN.pdb
     RDKit          3D

 28 29  0  0  1  0  0  0  0  0999 V2000
   17.8455  -12.5472  -19.5650 C   0  0  0  0  0  0  0  0  0  0  0  0
   18.9376  -12.8303  -18.5536 C   0  0  2  0  0  0  0  0  0  0  0  0
   18.7633  -14.1776  -18.0686 N   0  0  0  0  0  0  0  0  0  0  0  0
   18.8139  -11.8731  -17.4178 C   0  0  0  0  0  0  0  0  0  0  0  0
   17.8329  -11.9137  -16.6594 O   0  0  0  0  0  0  0  0  0  0  0  0
   19.7771  -10.8846  -17.1362 N   0  0  0  0  0  0  0  0  0  0  0  0
   19.7605   -9.9804  -16.0079 C   0  0  1  0  0  0  0  0  0  0  0  0
   21.0908   -9.6272  -15.4847 C   0  0  0  0  0  0  0  0  0  0  0  0
   21.1423   -8.5546  -14.4753 C   0  0  0  0  0  0  0  0  0  0  0  0
   20.6656   -8.5586  -13.1642 C   0  0  0  0  0  0  0  0  0  0  0  0
   20.8581   -7.3975  -12.5563 N   0  0  0  0  0  0  0  0  0  0  0  0
   21.4770   -6.5618  -13.4436 C   0  0  0  0  0  0  0  0  0  0  0  0
   21.9107   -5.2360  -13.3185 C   0  0  0  0  0  0  0  0  0  0  0  0
   22.5136   -4.6902  -14.4297 C   0  0  0  0  0  0  0  0  0  0  0  0
   22.7029   -5.3624  -15.6118 C   0  0  0  0  0  0  0  0  0  0  0  0
   22.2689   -6.6603  -15.7069 C   0  0  0  0  0  0  0  0  0  0  0  0
   21.6558   -7.2582  -14.6215 C   0  0  0  0  0  0  0  0  0  0  0  0
   18.9507   -8.8259  -16.4414 C   0  0  0  0  0  0  0  0  0  0  0  0
   19.0673   -8.3582  -17.6315 O   0  0  0  0  0  0  0  0  0  0  0  0
   13.7364   -5.6839  -15.4709 N   0  0  0  0  0  0  0  0  0  0  0  0
   15.0618   -5.9226  -15.9611 C   0  0  0  0  0  0  0  0  0  0  0  0
   15.4928   -5.1550  -16.8569 O   0  0  0  0  0  0  0  0  0  0  0  0
   15.9318   -6.9985  -15.4787 C   0  0  0  0  0  0  0  0  0  0  0  0
   17.3079   -6.9459  -16.1818 C   0  0  2  0  0  0  0  0  0  0  0  0
   17.9917   -8.1231  -15.6569 N   0  0  0  0  0  0  0  0  0  0  0  0
   18.0333   -5.7337  -15.7677 C   0  0  0  0  0  0  0  0  0  0  0  0
   18.4609   -5.6144  -14.6041 O   0  0  0  0  0  0  0  0  0  0  0  0
   18.2461   -4.6969  -16.6961 O   0  0  0  0  0  0  0  0  0  0  0  0
  2  3  1  0
  2  1  1  6
  4  2  1  0
  5  4  2  0
  6  4  1  0
  7  6  1  0
  8  9  1  0
  7  8  1  6
  9 10  2  0
 11 10  1  0
 12 11  1  0
 13 12  2  0
 14 13  1  0
 15 14  2  0
 15 16  1  0
 16 17  2  0
 17 12  1  0
 17  9  1  0
 18  7  1  0
 18 19  2  0
 21 20  1  0
 22 21  2  0
 23 21  1  0
 24 23  1  1
 24 25  1  0
 25 18  1  0
 26 24  1  0
 27 26  2  0
 28 26  1  0
M  END
$$$$
