AWN.pdb
     RDKit          3D

 28 29  0  0  1  0  0  0  0  0999 V2000
   38.2125   -4.6807  -10.9298 C   0  0  0  0  0  0  0  0  0  0  0  0
   38.9110   -5.4770  -12.0133 C   0  0  2  0  0  0  0  0  0  0  0  0
   40.2485   -4.9574  -12.1619 N   0  0  0  0  0  0  0  0  0  0  0  0
   38.1693   -5.3150  -13.2959 C   0  0  0  0  0  0  0  0  0  0  0  0
   38.3735   -4.3328  -14.0259 O   0  0  0  0  0  0  0  0  0  0  0  0
   37.2123   -6.2417  -13.7537 N   0  0  0  0  0  0  0  0  0  0  0  0
   36.4841   -6.1639  -15.0005 C   0  0  1  0  0  0  0  0  0  0  0  0
   35.8433   -7.4226  -15.4168 C   0  0  0  0  0  0  0  0  0  0  0  0
   35.1947   -7.4297  -16.7401 C   0  0  0  0  0  0  0  0  0  0  0  0
   35.7811   -7.4470  -18.0058 C   0  0  0  0  0  0  0  0  0  0  0  0
   34.8807   -7.4141  -18.9769 N   0  0  0  0  0  0  0  0  0  0  0  0
   33.6442   -7.3734  -18.3956 C   0  0  0  0  0  0  0  0  0  0  0  0
   32.3599   -7.3353  -18.9531 C   0  0  0  0  0  0  0  0  0  0  0  0
   31.3135   -7.3070  -18.0585 C   0  0  0  0  0  0  0  0  0  0  0  0
   31.4660   -7.3150  -16.6941 C   0  0  0  0  0  0  0  0  0  0  0  0
   32.7352   -7.3531  -16.1746 C   0  0  0  0  0  0  0  0  0  0  0  0
   33.8231   -7.3821  -17.0272 C   0  0  0  0  0  0  0  0  0  0  0  0
   35.5532   -5.0304  -14.8418 C   0  0  0  0  0  0  0  0  0  0  0  0
   34.8665   -4.8969  -13.7650 O   0  0  0  0  0  0  0  0  0  0  0  0
   32.7858   -0.6064  -15.2585 N   0  0  0  0  0  0  0  0  0  0  0  0
   34.1927   -0.5041  -15.5114 C   0  0  0  0  0  0  0  0  0  0  0  0
   34.6887    0.6490  -15.5561 O   0  0  0  0  0  0  0  0  0  0  0  0
   35.0738   -1.6569  -15.7159 C   0  0  0  0  0  0  0  0  0  0  0  0
   34.2909   -2.9799  -15.5507 C   0  0  2  0  0  0  0  0  0  0  0  0
   35.3082   -3.9976  -15.7917 N   0  0  0  0  0  0  0  0  0  0  0  0
   33.2487   -3.0752  -16.5861 C   0  0  0  0  0  0  0  0  0  0  0  0
   32.0446   -3.1326  -16.2734 O   0  0  0  0  0  0  0  0  0  0  0  0
   33.6160   -3.1027  -17.9449 O   0  0  0  0  0  0  0  0  0  0  0  0
  2  3  1  0
  2  1  1  1
  4  2  1  0
  5  4  2  0
  6  4  1  0
  7  6  1  0
  8  9  1  0
  7  8  1  1
  9 10  2  0
 11 10  1  0
 12 11  1  0
 13 12  2  0
 14 13  1  0
 15 14  2  0
 15 16  1  0
 16 17  2  0
 17 12  1  0
 17  9  1  0
 18  7  1  0
 18 19  2  0
 21 20  1  0
 22 21  2  0
 23 21  1  0
 24 23  1  6
 24 25  1  0
 25 18  1  0
 26 24  1  0
 27 26  2  0
 28 26  1  0
M  END
$$$$
