AWN.pdb
     RDKit          3D

 28 29  0  0  1  0  0  0  0  0999 V2000
   27.6319  -20.2425  -16.0828 C   0  0  0  0  0  0  0  0  0  0  0  0
   28.3160  -21.2473  -15.1782 C   0  0  2  0  0  0  0  0  0  0  0  0
   28.4137  -22.4989  -15.8888 N   0  0  0  0  0  0  0  0  0  0  0  0
   27.4964  -21.4368  -13.9478 C   0  0  0  0  0  0  0  0  0  0  0  0
   26.4840  -22.1536  -13.9654 O   0  0  0  0  0  0  0  0  0  0  0  0
   27.8081  -20.8311  -12.7148 N   0  0  0  0  0  0  0  0  0  0  0  0
   27.0527  -20.9638  -11.4890 C   0  0  1  0  0  0  0  0  0  0  0  0
   27.7256  -20.4311  -10.2925 C   0  0  0  0  0  0  0  0  0  0  0  0
   26.9164  -20.3357   -9.0645 C   0  0  0  0  0  0  0  0  0  0  0  0
   25.5354  -20.4597   -8.9107 C   0  0  0  0  0  0  0  0  0  0  0  0
   25.1517  -20.2802   -7.6556 N   0  0  0  0  0  0  0  0  0  0  0  0
   26.2702  -20.0267   -6.9117 C   0  0  0  0  0  0  0  0  0  0  0  0
   26.4347  -19.7744   -5.5439 C   0  0  0  0  0  0  0  0  0  0  0  0
   27.7276  -19.5635   -5.1196 C   0  0  0  0  0  0  0  0  0  0  0  0
   28.8235  -19.5893   -5.9462 C   0  0  0  0  0  0  0  0  0  0  0  0
   28.6340  -19.8393   -7.2818 C   0  0  0  0  0  0  0  0  0  0  0  0
   27.3562  -20.0575   -7.7626 C   0  0  0  0  0  0  0  0  0  0  0  0
   25.7382  -20.3558  -11.7696 C   0  0  0  0  0  0  0  0  0  0  0  0
   25.6480  -19.1131  -12.0801 O   0  0  0  0  0  0  0  0  0  0  0  0
   24.1716  -20.6888  -15.5866 N   0  0  0  0  0  0  0  0  0  0  0  0
   23.4179  -20.1116  -14.5130 C   0  0  0  0  0  0  0  0  0  0  0  0
   23.2582  -18.8659  -14.5245 O   0  0  0  0  0  0  0  0  0  0  0  0
   22.8290  -20.8859  -13.4171 C   0  0  0  0  0  0  0  0  0  0  0  0
   23.2443  -20.2993  -12.0481 C   0  0  2  0  0  0  0  0  0  0  0  0
   24.4770  -21.0172  -11.7418 N   0  0  0  0  0  0  0  0  0  0  0  0
   22.2250  -20.6239  -11.0367 C   0  0  0  0  0  0  0  0  0  0  0  0
   21.1465  -20.0022  -10.9981 O   0  0  0  0  0  0  0  0  0  0  0  0
   22.4711  -21.6474  -10.1019 O   0  0  0  0  0  0  0  0  0  0  0  0
  2  3  1  0
  2  1  1  6
  4  2  1  0
  5  4  2  0
  6  4  1  0
  7  6  1  0
  8  9  1  0
  7  8  1  1
  9 10  2  0
 11 10  1  0
 12 11  1  0
 13 12  2  0
 14 13  1  0
 15 14  2  0
 15 16  1  0
 16 17  2  0
 17 12  1  0
 17  9  1  0
 18  7  1  0
 18 19  2  0
 21 20  1  0
 22 21  2  0
 23 21  1  0
 24 23  1  6
 24 25  1  0
 25 18  1  0
 26 24  1  0
 27 26  2  0
 28 26  1  0
M  END
$$$$
