AWN.pdb
     RDKit          3D

 28 29  0  0  1  0  0  0  0  0999 V2000
   27.2724  -17.5830  -14.9146 C   0  0  0  0  0  0  0  0  0  0  0  0
   28.0328  -18.8936  -14.9079 C   0  0  2  0  0  0  0  0  0  0  0  0
   28.3535  -19.2345  -16.2725 N   0  0  0  0  0  0  0  0  0  0  0  0
   27.1708  -19.9575  -14.3192 C   0  0  0  0  0  0  0  0  0  0  0  0
   26.3276  -20.5457  -15.0135 O   0  0  0  0  0  0  0  0  0  0  0  0
   27.2535  -20.3562  -12.9707 N   0  0  0  0  0  0  0  0  0  0  0  0
   26.4268  -21.3536  -12.3283 C   0  0  1  0  0  0  0  0  0  0  0  0
   26.9603  -21.8655  -11.0548 C   0  0  0  0  0  0  0  0  0  0  0  0
   26.7472  -21.0262   -9.8623 C   0  0  0  0  0  0  0  0  0  0  0  0
   25.5970  -20.3469   -9.4603 C   0  0  0  0  0  0  0  0  0  0  0  0
   25.7840  -19.6600   -8.3431 N   0  0  0  0  0  0  0  0  0  0  0  0
   27.0783  -19.8537   -7.9483 C   0  0  0  0  0  0  0  0  0  0  0  0
   27.7913  -19.3709   -6.8437 C   0  0  0  0  0  0  0  0  0  0  0  0
   29.1031  -19.7780   -6.7465 C   0  0  0  0  0  0  0  0  0  0  0  0
   29.7216  -20.6065   -7.6499 C   0  0  0  0  0  0  0  0  0  0  0  0
   28.9998  -21.0653   -8.7225 C   0  0  0  0  0  0  0  0  0  0  0  0
   27.6781  -20.6875   -8.8700 C   0  0  0  0  0  0  0  0  0  0  0  0
   25.0860  -20.7467  -12.2267 C   0  0  0  0  0  0  0  0  0  0  0  0
   24.9543  -19.4768  -12.0895 O   0  0  0  0  0  0  0  0  0  0  0  0
   20.4981  -19.4615  -14.0240 N   0  0  0  0  0  0  0  0  0  0  0  0
   21.7215  -19.7109  -14.7275 C   0  0  0  0  0  0  0  0  0  0  0  0
   21.7672  -19.3845  -15.9395 O   0  0  0  0  0  0  0  0  0  0  0  0
   22.9081  -20.3164  -14.1172 C   0  0  0  0  0  0  0  0  0  0  0  0
   22.6141  -20.7500  -12.6625 C   0  0  2  0  0  0  0  0  0  0  0  0
   23.8401  -21.4359  -12.2686 N   0  0  0  0  0  0  0  0  0  0  0  0
   21.4925  -21.7035  -12.6435 C   0  0  0  0  0  0  0  0  0  0  0  0
   21.6156  -22.8404  -13.1366 O   0  0  0  0  0  0  0  0  0  0  0  0
   20.2667  -21.3268  -12.0625 O   0  0  0  0  0  0  0  0  0  0  0  0
  2  3  1  0
  2  1  1  6
  4  2  1  0
  5  4  2  0
  6  4  1  0
  7  6  1  0
  8  9  1  0
  7  8  1  1
  9 10  2  0
 11 10  1  0
 12 11  1  0
 13 12  2  0
 14 13  1  0
 15 14  2  0
 15 16  1  0
 16 17  2  0
 17 12  1  0
 17  9  1  0
 18  7  1  0
 18 19  2  0
 21 20  1  0
 22 21  2  0
 23 21  1  0
 24 23  1  6
 24 25  1  0
 25 18  1  0
 26 24  1  0
 27 26  2  0
 28 26  1  0
M  END
$$$$
