ANN.pdb
     RDKit          3D

 22 21  0  0  1  0  0  0  0  0999 V2000
    9.4023  -19.6846   17.5057 C   0  0  0  0  0  0  0  0  0  0  0  0
    9.6242  -18.3695   16.7906 C   0  0  2  0  0  0  0  0  0  0  0  0
   10.7675  -18.4750   15.9166 N   0  0  0  0  0  0  0  0  0  0  0  0
    9.8352  -17.3358   17.8483 C   0  0  0  0  0  0  0  0  0  0  0  0
   11.0056  -17.1392   18.2526 O   0  0  0  0  0  0  0  0  0  0  0  0
    6.7546  -12.7355   20.7201 N   0  0  0  0  0  0  0  0  0  0  0  0
    7.7820  -13.7016   20.5435 C   0  0  0  0  0  0  0  0  0  0  0  0
    8.7702  -13.6398   21.3200 O   0  0  0  0  0  0  0  0  0  0  0  0
    7.7245  -14.7428   19.5061 C   0  0  0  0  0  0  0  0  0  0  0  0
    8.9396  -15.6067   19.4600 C   0  0  2  0  0  0  0  0  0  0  0  0
    8.7878  -16.5786   18.4070 N   0  0  0  0  0  0  0  0  0  0  0  0
    9.0933  -16.3774   20.7385 C   0  0  0  0  0  0  0  0  0  0  0  0
    8.5508  -17.5130   20.8723 O   0  0  0  0  0  0  0  0  0  0  0  0
   13.2395  -17.7408   24.5666 N   0  0  0  0  0  0  0  0  0  0  0  0
   12.1411  -18.1335   23.7765 C   0  0  0  0  0  0  0  0  0  0  0  0
   11.5897  -19.2286   24.0340 O   0  0  0  0  0  0  0  0  0  0  0  0
   11.6386  -17.3107   22.6854 C   0  0  0  0  0  0  0  0  0  0  0  0
   10.2862  -16.6986   22.9509 C   0  0  2  0  0  0  0  0  0  0  0  0
    9.8359  -15.8865   21.8368 N   0  0  0  0  0  0  0  0  0  0  0  0
   10.2382  -15.9548   24.2251 C   0  0  0  0  0  0  0  0  0  0  0  0
   10.0405  -14.7184   24.2230 O   0  0  0  0  0  0  0  0  0  0  0  0
   10.4062  -16.5795   25.4446 O   0  0  0  0  0  0  0  0  0  0  0  0
  2  1  1  1
  2  4  1  0
  2  3  1  0
  4 11  1  0
  5  4  2  0
  7  6  1  0
  7  8  2  0
  9  7  1  0
 10  9  1  1
 10 12  1  0
 11 10  1  0
 12 19  1  0
 12 13  2  0
 15 14  1  0
 15 17  1  0
 16 15  2  0
 18 17  1  6
 18 20  1  0
 19 18  1  0
 20 22  1  0
 21 20  2  0
M  END
$$$$
