ANN.pdb
     RDKit          3D

 22 21  0  0  1  0  0  0  0  0999 V2000
    7.6938  -13.2467   19.5617 C   0  0  0  0  0  0  0  0  0  0  0  0
    8.0848  -14.4735   20.3568 C   0  0  2  0  0  0  0  0  0  0  0  0
    6.9300  -15.3152   20.5568 N   0  0  0  0  0  0  0  0  0  0  0  0
    8.6397  -13.9850   21.6550 C   0  0  0  0  0  0  0  0  0  0  0  0
    9.7028  -13.3210   21.6269 O   0  0  0  0  0  0  0  0  0  0  0  0
    5.6116  -13.4755   26.5425 N   0  0  0  0  0  0  0  0  0  0  0  0
    6.3425  -13.8164   25.3721 C   0  0  0  0  0  0  0  0  0  0  0  0
    6.0299  -14.8868   24.7894 O   0  0  0  0  0  0  0  0  0  0  0  0
    7.4251  -12.9761   24.8381 C   0  0  0  0  0  0  0  0  0  0  0  0
    8.5083  -13.7529   24.1686 C   0  0  2  0  0  0  0  0  0  0  0  0
    8.0277  -14.2343   22.8983 N   0  0  0  0  0  0  0  0  0  0  0  0
    8.8730  -14.9632   24.9777 C   0  0  0  0  0  0  0  0  0  0  0  0
    9.1370  -14.8551   26.2107 O   0  0  0  0  0  0  0  0  0  0  0  0
    6.2585  -18.3164   23.8447 N   0  0  0  0  0  0  0  0  0  0  0  0
    7.1236  -18.4473   24.9489 C   0  0  0  0  0  0  0  0  0  0  0  0
    6.6281  -18.3856   26.0979 O   0  0  0  0  0  0  0  0  0  0  0  0
    8.5567  -18.6497   24.7902 C   0  0  0  0  0  0  0  0  0  0  0  0
    9.3890  -17.4393   25.1313 C   0  0  2  0  0  0  0  0  0  0  0  0
    8.9394  -16.2595   24.4175 N   0  0  0  0  0  0  0  0  0  0  0  0
   10.8350  -17.6725   24.9476 C   0  0  0  0  0  0  0  0  0  0  0  0
   11.5038  -18.2147   25.8567 O   0  0  0  0  0  0  0  0  0  0  0  0
   11.4942  -17.3095   23.7903 O   0  0  0  0  0  0  0  0  0  0  0  0
  2  1  1  6
  2  4  1  0
  2  3  1  0
  4 11  1  0
  5  4  2  0
  7  6  1  0
  7  8  2  0
  9  7  1  0
 10  9  1  1
 10 12  1  0
 11 10  1  0
 12 19  1  0
 12 13  2  0
 15 14  1  0
 15 17  1  0
 16 15  2  0
 18 17  1  6
 18 20  1  0
 19 18  1  0
 20 22  1  0
 21 20  2  0
M  END
$$$$
