ANN.pdb
     RDKit          3D

 22 21  0  0  1  0  0  0  0  0999 V2000
    7.4766  -12.6500   25.5579 C   0  0  0  0  0  0  0  0  0  0  0  0
    6.5812  -13.5393   24.7226 C   0  0  2  0  0  0  0  0  0  0  0  0
    5.7290  -14.3226   25.5841 N   0  0  0  0  0  0  0  0  0  0  0  0
    7.4808  -14.4068   23.9040 C   0  0  0  0  0  0  0  0  0  0  0  0
    7.8397  -15.5053   24.3902 O   0  0  0  0  0  0  0  0  0  0  0  0
    7.2885  -12.8278   19.1074 N   0  0  0  0  0  0  0  0  0  0  0  0
    7.7250  -14.0682   19.6470 C   0  0  0  0  0  0  0  0  0  0  0  0
    7.0196  -15.0815   19.4050 O   0  0  0  0  0  0  0  0  0  0  0  0
    8.9448  -14.1966   20.4590 C   0  0  0  0  0  0  0  0  0  0  0  0
    8.7253  -14.8949   21.7587 C   0  0  2  0  0  0  0  0  0  0  0  0
    7.9400  -14.0496   22.6218 N   0  0  0  0  0  0  0  0  0  0  0  0
   10.0298  -15.1342   22.4611 C   0  0  0  0  0  0  0  0  0  0  0  0
   10.7976  -14.1663   22.7358 O   0  0  0  0  0  0  0  0  0  0  0  0
   10.4740  -19.1993   23.9979 N   0  0  0  0  0  0  0  0  0  0  0  0
   10.8769  -18.4285   25.1063 C   0  0  0  0  0  0  0  0  0  0  0  0
   10.6939  -18.9010   26.2521 O   0  0  0  0  0  0  0  0  0  0  0  0
   11.4916  -17.1173   24.9554 C   0  0  0  0  0  0  0  0  0  0  0  0
   11.7122  -16.7043   23.5218 C   0  0  2  0  0  0  0  0  0  0  0  0
   10.4605  -16.4250   22.8445 N   0  0  0  0  0  0  0  0  0  0  0  0
   12.5368  -17.6715   22.7712 C   0  0  0  0  0  0  0  0  0  0  0  0
   12.0059  -18.4228   21.9217 O   0  0  0  0  0  0  0  0  0  0  0  0
   13.8979  -17.7845   22.9716 O   0  0  0  0  0  0  0  0  0  0  0  0
  2  1  1  1
  2  4  1  0
  2  3  1  0
  4 11  1  0
  5  4  2  0
  7  6  1  0
  7  8  2  0
  9  7  1  0
 10  9  1  6
 10 12  1  0
 11 10  1  0
 12 19  1  0
 12 13  2  0
 15 14  1  0
 15 17  1  0
 16 15  2  0
 18 17  1  1
 18 20  1  0
 19 18  1  0
 20 22  1  0
 21 20  2  0
M  END
$$$$
