ANN.pdb
     RDKit          3D

 22 21  0  0  1  0  0  0  0  0999 V2000
    8.2454  -16.5266   14.2104 C   0  0  0  0  0  0  0  0  0  0  0  0
    8.1931  -15.0185   14.0959 C   0  0  2  0  0  0  0  0  0  0  0  0
    8.9096  -14.5922   12.9183 N   0  0  0  0  0  0  0  0  0  0  0  0
    8.8098  -14.4716   15.3419 C   0  0  0  0  0  0  0  0  0  0  0  0
   10.0391  -14.2259   15.3301 O   0  0  0  0  0  0  0  0  0  0  0  0
    9.3822  -12.9314   20.3768 N   0  0  0  0  0  0  0  0  0  0  0  0
    8.0070  -12.9575   20.0185 C   0  0  0  0  0  0  0  0  0  0  0  0
    7.1768  -12.6029   20.8948 O   0  0  0  0  0  0  0  0  0  0  0  0
    7.5400  -13.3768   18.6882 C   0  0  0  0  0  0  0  0  0  0  0  0
    8.6442  -13.7623   17.7625 C   0  0  2  0  0  0  0  0  0  0  0  0
    8.0789  -14.2217   16.5191 N   0  0  0  0  0  0  0  0  0  0  0  0
    9.4348  -14.9072   18.3250 C   0  0  0  0  0  0  0  0  0  0  0  0
    9.2066  -16.0926   17.9450 O   0  0  0  0  0  0  0  0  0  0  0  0
   13.9827  -17.0491   17.5692 N   0  0  0  0  0  0  0  0  0  0  0  0
   13.8138  -15.6921   17.9084 C   0  0  0  0  0  0  0  0  0  0  0  0
   14.8378  -15.0114   18.1482 O   0  0  0  0  0  0  0  0  0  0  0  0
   12.4991  -15.0711   17.9854 C   0  0  0  0  0  0  0  0  0  0  0  0
   11.7438  -15.3883   19.2515 C   0  0  2  0  0  0  0  0  0  0  0  0
   10.4539  -14.7260   19.2879 N   0  0  0  0  0  0  0  0  0  0  0  0
   12.5333  -15.1164   20.4688 C   0  0  0  0  0  0  0  0  0  0  0  0
   12.2317  -14.1537   21.2105 O   0  0  0  0  0  0  0  0  0  0  0  0
   13.6135  -15.8960   20.8305 O   0  0  0  0  0  0  0  0  0  0  0  0
  2  1  1  1
  2  4  1  0
  2  3  1  0
  4 11  1  0
  5  4  2  0
  7  6  1  0
  7  8  2  0
  9  7  1  0
 10  9  1  1
 10 12  1  0
 11 10  1  0
 12 19  1  0
 12 13  2  0
 15 14  1  0
 15 17  1  0
 16 15  2  0
 18 17  1  6
 18 20  1  0
 19 18  1  0
 20 22  1  0
 21 20  2  0
M  END
$$$$
