ANN.pdb
     RDKit          3D

 22 21  0  0  1  0  0  0  0  0999 V2000
    2.6567  -18.9577   22.6634 C   0  0  0  0  0  0  0  0  0  0  0  0
    2.9179  -18.4553   21.2600 C   0  0  2  0  0  0  0  0  0  0  0  0
    2.6642  -19.5095   20.3080 N   0  0  0  0  0  0  0  0  0  0  0  0
    4.3439  -18.0119   21.2211 C   0  0  0  0  0  0  0  0  0  0  0  0
    5.2347  -18.8875   21.3289 O   0  0  0  0  0  0  0  0  0  0  0  0
    8.6361  -14.9437   20.8586 N   0  0  0  0  0  0  0  0  0  0  0  0
    7.4796  -14.2482   20.4125 C   0  0  0  0  0  0  0  0  0  0  0  0
    7.6545  -13.1212   19.8812 O   0  0  0  0  0  0  0  0  0  0  0  0
    6.1208  -14.7940   20.5515 C   0  0  0  0  0  0  0  0  0  0  0  0
    6.0894  -16.1890   21.0787 C   0  0  2  0  0  0  0  0  0  0  0  0
    4.7297  -16.6662   21.0701 N   0  0  0  0  0  0  0  0  0  0  0  0
    6.5506  -16.2288   22.5063 C   0  0  0  0  0  0  0  0  0  0  0  0
    5.8341  -15.7364   23.4261 O   0  0  0  0  0  0  0  0  0  0  0  0
    7.3618  -20.1302   26.4404 N   0  0  0  0  0  0  0  0  0  0  0  0
    7.5601  -18.7836   26.0767 C   0  0  0  0  0  0  0  0  0  0  0  0
    8.0645  -18.0111   26.9242 O   0  0  0  0  0  0  0  0  0  0  0  0
    7.1995  -18.2759   24.7606 C   0  0  0  0  0  0  0  0  0  0  0  0
    8.1180  -17.1959   24.2467 C   0  0  2  0  0  0  0  0  0  0  0  0
    7.7827  -16.8057   22.8906 N   0  0  0  0  0  0  0  0  0  0  0  0
    9.5446  -17.5522   24.3770 C   0  0  0  0  0  0  0  0  0  0  0  0
    9.9081  -18.7436   24.2493 O   0  0  0  0  0  0  0  0  0  0  0  0
   10.5148  -16.6061   24.6396 O   0  0  0  0  0  0  0  0  0  0  0  0
  2  1  1  1
  2  4  1  0
  2  3  1  0
  4 11  1  0
  5  4  2  0
  7  6  1  0
  7  8  2  0
  9  7  1  0
 10  9  1  1
 10 12  1  0
 11 10  1  0
 12 19  1  0
 12 13  2  0
 15 14  1  0
 15 17  1  0
 16 15  2  0
 18 17  1  6
 18 20  1  0
 19 18  1  0
 20 22  1  0
 21 20  2  0
M  END
$$$$
