ANN.pdb
     RDKit          3D

 22 21  0  0  1  0  0  0  0  0999 V2000
    7.4803  -12.5901   18.8697 C   0  0  0  0  0  0  0  0  0  0  0  0
    8.6066  -13.5998   18.8250 C   0  0  2  0  0  0  0  0  0  0  0  0
    8.2365  -14.7083   17.9787 N   0  0  0  0  0  0  0  0  0  0  0  0
    8.8452  -14.0396   20.2327 C   0  0  0  0  0  0  0  0  0  0  0  0
    9.2663  -13.1881   21.0509 O   0  0  0  0  0  0  0  0  0  0  0  0
    6.7631  -18.0734   20.4831 N   0  0  0  0  0  0  0  0  0  0  0  0
    7.7012  -17.9649   21.5454 C   0  0  0  0  0  0  0  0  0  0  0  0
    8.4750  -18.9393   21.7321 O   0  0  0  0  0  0  0  0  0  0  0  0
    7.7897  -16.7780   22.4097 C   0  0  0  0  0  0  0  0  0  0  0  0
    8.8733  -15.8320   22.0148 C   0  0  2  0  0  0  0  0  0  0  0  0
    8.6203  -15.3561   20.6784 N   0  0  0  0  0  0  0  0  0  0  0  0
   10.2017  -16.5295   21.9792 C   0  0  0  0  0  0  0  0  0  0  0  0
   10.6098  -17.0785   20.9145 O   0  0  0  0  0  0  0  0  0  0  0  0
   15.5621  -15.2927   23.3449 N   0  0  0  0  0  0  0  0  0  0  0  0
   14.6369  -15.7568   22.3891 C   0  0  0  0  0  0  0  0  0  0  0  0
   15.0801  -16.3384   21.3719 O   0  0  0  0  0  0  0  0  0  0  0  0
   13.2008  -15.5803   22.5521 C   0  0  0  0  0  0  0  0  0  0  0  0
   12.4832  -16.8117   23.0449 C   0  0  2  0  0  0  0  0  0  0  0  0
   11.0486  -16.6083   23.1084 N   0  0  0  0  0  0  0  0  0  0  0  0
   13.0226  -17.3109   24.3251 C   0  0  0  0  0  0  0  0  0  0  0  0
   13.9323  -18.1713   24.3300 O   0  0  0  0  0  0  0  0  0  0  0  0
   12.5553  -16.8588   25.5428 O   0  0  0  0  0  0  0  0  0  0  0  0
  2  1  1  1
  2  4  1  0
  2  3  1  0
  4 11  1  0
  5  4  2  0
  7  6  1  0
  7  8  2  0
  9  7  1  0
 10  9  1  6
 10 12  1  0
 11 10  1  0
 12 19  1  0
 12 13  2  0
 15 14  1  0
 15 17  1  0
 16 15  2  0
 18 17  1  1
 18 20  1  0
 19 18  1  0
 20 22  1  0
 21 20  2  0
M  END
$$$$
