ANN.pdb
     RDKit          3D

 22 21  0  0  1  0  0  0  0  0999 V2000
    7.9620  -12.1672   18.9602 C   0  0  0  0  0  0  0  0  0  0  0  0
    8.6412  -13.5143   18.8404 C   0  0  2  0  0  0  0  0  0  0  0  0
    7.6564  -14.5375   18.5851 N   0  0  0  0  0  0  0  0  0  0  0  0
    9.3569  -13.7506   20.1302 C   0  0  0  0  0  0  0  0  0  0  0  0
   10.2728  -12.9556   20.4482 O   0  0  0  0  0  0  0  0  0  0  0  0
    7.2754  -14.1066   23.1437 N   0  0  0  0  0  0  0  0  0  0  0  0
    7.6430  -15.4424   23.4613 C   0  0  0  0  0  0  0  0  0  0  0  0
    6.8182  -16.1250   24.1223 O   0  0  0  0  0  0  0  0  0  0  0  0
    8.9261  -16.0327   23.0508 C   0  0  0  0  0  0  0  0  0  0  0  0
    9.7610  -15.1226   22.2144 C   0  0  2  0  0  0  0  0  0  0  0  0
    9.0520  -14.8168   20.9978 N   0  0  0  0  0  0  0  0  0  0  0  0
   11.0400  -15.7956   21.8098 C   0  0  0  0  0  0  0  0  0  0  0  0
   11.0550  -16.6213   20.8509 O   0  0  0  0  0  0  0  0  0  0  0  0
   16.1259  -16.3136   20.7944 N   0  0  0  0  0  0  0  0  0  0  0  0
   15.5040  -15.0622   20.6153 C   0  0  0  0  0  0  0  0  0  0  0  0
   16.0896  -14.2070   19.9117 O   0  0  0  0  0  0  0  0  0  0  0  0
   14.2173  -14.7437   21.2178 C   0  0  0  0  0  0  0  0  0  0  0  0
   13.5688  -15.9043   21.9295 C   0  0  2  0  0  0  0  0  0  0  0  0
   12.2685  -15.5481   22.4642 N   0  0  0  0  0  0  0  0  0  0  0  0
   14.4410  -16.4985   22.9616 C   0  0  0  0  0  0  0  0  0  0  0  0
   14.2272  -16.2667   24.1734 O   0  0  0  0  0  0  0  0  0  0  0  0
   15.5053  -17.3163   22.6389 O   0  0  0  0  0  0  0  0  0  0  0  0
  2  1  1  1
  2  4  1  0
  2  3  1  0
  4 11  1  0
  5  4  2  0
  7  6  1  0
  7  8  2  0
  9  7  1  0
 10  9  1  1
 10 12  1  0
 11 10  1  0
 12 19  1  0
 12 13  2  0
 15 14  1  0
 15 17  1  0
 16 15  2  0
 18 17  1  1
 18 20  1  0
 19 18  1  0
 20 22  1  0
 21 20  2  0
M  END
$$$$
