ANN.pdb
     RDKit          3D

 22 21  0  0  1  0  0  0  0  0999 V2000
    6.9535  -18.8151   18.2362 C   0  0  0  0  0  0  0  0  0  0  0  0
    7.1866  -18.5711   19.7114 C   0  0  2  0  0  0  0  0  0  0  0  0
    5.9411  -18.2260   20.3529 N   0  0  0  0  0  0  0  0  0  0  0  0
    8.1815  -17.4610   19.8110 C   0  0  0  0  0  0  0  0  0  0  0  0
    9.3173  -17.6434   19.3125 O   0  0  0  0  0  0  0  0  0  0  0  0
    6.4070  -12.9163   18.8967 N   0  0  0  0  0  0  0  0  0  0  0  0
    7.6766  -13.4960   19.1653 C   0  0  0  0  0  0  0  0  0  0  0  0
    8.4345  -13.7036   18.1826 O   0  0  0  0  0  0  0  0  0  0  0  0
    8.1171  -13.8513   20.5230 C   0  0  0  0  0  0  0  0  0  0  0  0
    8.8459  -15.1508   20.5928 C   0  0  2  0  0  0  0  0  0  0  0  0
    7.9036  -16.2294   20.4343 N   0  0  0  0  0  0  0  0  0  0  0  0
    9.4844  -15.3312   21.9390 C   0  0  0  0  0  0  0  0  0  0  0  0
    8.8204  -15.1260   22.9967 O   0  0  0  0  0  0  0  0  0  0  0  0
   12.4683  -17.0813   25.7980 N   0  0  0  0  0  0  0  0  0  0  0  0
   11.2761  -17.6416   25.2982 C   0  0  0  0  0  0  0  0  0  0  0  0
   10.7357  -18.5619   25.9542 O   0  0  0  0  0  0  0  0  0  0  0  0
   10.6660  -17.1840   24.0579 C   0  0  0  0  0  0  0  0  0  0  0  0
   11.4394  -16.0943   23.3590 C   0  0  2  0  0  0  0  0  0  0  0  0
   10.8316  -15.7311   22.0932 N   0  0  0  0  0  0  0  0  0  0  0  0
   12.8707  -16.4210   23.2052 C   0  0  0  0  0  0  0  0  0  0  0  0
   13.7058  -15.9872   24.0313 O   0  0  0  0  0  0  0  0  0  0  0  0
   13.3364  -17.2012   22.1660 O   0  0  0  0  0  0  0  0  0  0  0  0
  2  1  1  6
  2  4  1  0
  2  3  1  0
  4 11  1  0
  5  4  2  0
  7  6  1  0
  7  8  2  0
  9  7  1  0
 10  9  1  1
 10 12  1  0
 11 10  1  0
 12 19  1  0
 12 13  2  0
 15 14  1  0
 15 17  1  0
 16 15  2  0
 18 17  1  6
 18 20  1  0
 19 18  1  0
 20 22  1  0
 21 20  2  0
M  END
$$$$
