ANN.pdb
     RDKit          3D

 22 21  0  0  1  0  0  0  0  0999 V2000
    8.6309  -15.0448   17.2597 C   0  0  0  0  0  0  0  0  0  0  0  0
    7.9483  -14.0889   18.2139 C   0  0  2  0  0  0  0  0  0  0  0  0
    7.7515  -12.8126   17.5701 N   0  0  0  0  0  0  0  0  0  0  0  0
    8.8355  -13.9695   19.4099 C   0  0  0  0  0  0  0  0  0  0  0  0
    9.7453  -13.1074   19.3829 O   0  0  0  0  0  0  0  0  0  0  0  0
    7.4604  -13.2960   22.8233 N   0  0  0  0  0  0  0  0  0  0  0  0
    7.7742  -14.5815   23.3423 C   0  0  0  0  0  0  0  0  0  0  0  0
    7.0315  -15.0319   24.2526 O   0  0  0  0  0  0  0  0  0  0  0  0
    8.9122  -15.3780   22.8586 C   0  0  0  0  0  0  0  0  0  0  0  0
    9.6010  -14.7789   21.6789 C   0  0  2  0  0  0  0  0  0  0  0  0
    8.6971  -14.7746   20.5567 N   0  0  0  0  0  0  0  0  0  0  0  0
   10.7844  -15.6092   21.2754 C   0  0  0  0  0  0  0  0  0  0  0  0
   10.6210  -16.7695   20.7972 O   0  0  0  0  0  0  0  0  0  0  0  0
   13.3059  -15.3367   18.1949 N   0  0  0  0  0  0  0  0  0  0  0  0
   13.9888  -14.5765   19.1648 C   0  0  0  0  0  0  0  0  0  0  0  0
   14.2675  -13.3857   18.8930 O   0  0  0  0  0  0  0  0  0  0  0  0
   14.3720  -15.1318   20.4550 C   0  0  0  0  0  0  0  0  0  0  0  0
   13.2906  -15.9479   21.1175 C   0  0  2  0  0  0  0  0  0  0  0  0
   12.1148  -15.1490   21.4054 N   0  0  0  0  0  0  0  0  0  0  0  0
   13.7715  -16.6654   22.3145 C   0  0  0  0  0  0  0  0  0  0  0  0
   13.2417  -16.4526   23.4289 O   0  0  0  0  0  0  0  0  0  0  0  0
   14.8032  -17.5806   22.2547 O   0  0  0  0  0  0  0  0  0  0  0  0
  2  1  1  6
  2  4  1  0
  2  3  1  0
  4 11  1  0
  5  4  2  0
  7  6  1  0
  7  8  2  0
  9  7  1  0
 10  9  1  1
 10 12  1  0
 11 10  1  0
 12 19  1  0
 12 13  2  0
 15 14  1  0
 15 17  1  0
 16 15  2  0
 18 17  1  1
 18 20  1  0
 19 18  1  0
 20 22  1  0
 21 20  2  0
M  END
$$$$
