TGD.pdb
     RDKit          3D

 20 19  0  0  1  0  0  0  0  0999 V2000
    8.4588  -12.0064   26.2345 C   0  0  0  0  0  0  0  0  0  0  0  0
    7.2270  -12.6896   26.7648 C   0  0  1  0  0  0  0  0  0  0  0  0
    6.5791  -11.9201   27.7297 O   0  0  0  0  0  0  0  0  0  0  0  0
    6.2270  -13.0121   25.6795 C   0  0  2  0  0  0  0  0  0  0  0  0
    4.9687  -13.3227   26.2936 N   0  0  0  0  0  0  0  0  0  0  0  0
    6.7176  -14.1181   24.8113 C   0  0  0  0  0  0  0  0  0  0  0  0
    6.3604  -15.2741   25.0903 O   0  0  0  0  0  0  0  0  0  0  0  0
    7.5656  -13.8898   23.6952 N   0  0  0  0  0  0  0  0  0  0  0  0
    7.9790  -14.9576   22.8187 C   0  0  0  0  0  0  0  0  0  0  0  0
    8.7879  -15.9770   23.5211 C   0  0  0  0  0  0  0  0  0  0  0  0
    8.3863  -17.1685   23.5237 O   0  0  0  0  0  0  0  0  0  0  0  0
    9.9996  -15.7006   24.1998 N   0  0  0  0  0  0  0  0  0  0  0  0
   10.8008  -16.7472   24.8459 C   0  0  1  0  0  0  0  0  0  0  0  0
   12.2507  -16.3491   24.8949 C   0  0  0  0  0  0  0  0  0  0  0  0
   12.7782  -16.2361   23.5231 C   0  0  0  0  0  0  0  0  0  0  0  0
   12.4490  -17.0558   22.6333 O   0  0  0  0  0  0  0  0  0  0  0  0
   10.2910  -16.8827   26.2223 C   0  0  0  0  0  0  0  0  0  0  0  0
   10.7753  -17.8418   27.0786 O   0  0  0  0  0  0  0  0  0  0  0  0
   13.6519  -15.2273   23.1667 O   0  0  0  0  0  0  0  0  0  0  0  0
    9.3900  -16.1137   26.6480 O   0  0  0  0  0  0  0  0  0  0  0  0
  2  1  1  6
  3  2  1  0
  4  5  1  1
  4  2  1  0
  6  4  1  0
  7  6  2  0
  8  6  1  0
  9  8  1  0
  9 10  1  0
 10 11  2  0
 12 10  1  0
 12 13  1  0
 13 17  1  0
 13 14  1  1
 15 19  1  0
 15 14  1  0
 16 15  2  0
 17 18  1  0
 20 17  2  0
M  END
$$$$
