TGD.pdb
     RDKit          3D

 20 19  0  0  1  0  0  0  0  0999 V2000
    7.3246  -12.0607   19.8235 C   0  0  0  0  0  0  0  0  0  0  0  0
    8.1533  -13.3169   19.8432 C   0  0  1  0  0  0  0  0  0  0  0  0
    7.3641  -14.4629   19.7614 O   0  0  0  0  0  0  0  0  0  0  0  0
    9.1624  -13.3667   18.7203 C   0  0  2  0  0  0  0  0  0  0  0  0
    8.4582  -13.3558   17.4709 N   0  0  0  0  0  0  0  0  0  0  0  0
   10.0533  -14.5525   18.8537 C   0  0  0  0  0  0  0  0  0  0  0  0
   10.1079  -15.3451   17.8994 O   0  0  0  0  0  0  0  0  0  0  0  0
   10.8268  -14.7954   20.0197 N   0  0  0  0  0  0  0  0  0  0  0  0
   11.6631  -15.9625   20.1526 C   0  0  0  0  0  0  0  0  0  0  0  0
   13.1028  -15.6270   20.1126 C   0  0  0  0  0  0  0  0  0  0  0  0
   13.4493  -14.5125   19.6449 O   0  0  0  0  0  0  0  0  0  0  0  0
   14.1317  -16.4851   20.5710 N   0  0  0  0  0  0  0  0  0  0  0  0
   15.5475  -16.0978   20.5614 C   0  0  1  0  0  0  0  0  0  0  0  0
   16.2429  -16.6039   21.7956 C   0  0  0  0  0  0  0  0  0  0  0  0
   16.1801  -15.5788   22.8530 C   0  0  0  0  0  0  0  0  0  0  0  0
   15.9364  -14.3799   22.5788 O   0  0  0  0  0  0  0  0  0  0  0  0
   16.1519  -16.7288   19.3742 C   0  0  0  0  0  0  0  0  0  0  0  0
   15.4553  -17.6273   18.6028 O   0  0  0  0  0  0  0  0  0  0  0  0
   16.3865  -15.8983   24.1810 O   0  0  0  0  0  0  0  0  0  0  0  0
   17.3335  -16.4551   19.0377 O   0  0  0  0  0  0  0  0  0  0  0  0
  2  1  1  6
  3  2  1  0
  4  5  1  6
  4  2  1  0
  6  4  1  0
  7  6  2  0
  8  6  1  0
  9  8  1  0
  9 10  1  0
 10 11  2  0
 12 10  1  0
 12 13  1  0
 13 17  1  0
 13 14  1  1
 15 19  1  0
 15 14  1  0
 16 15  2  0
 17 18  1  0
 20 17  2  0
M  END
$$$$
