TGD.pdb
     RDKit          3D

 20 19  0  0  1  0  0  0  0  0999 V2000
    6.2991  -13.7482   19.6772 C   0  0  0  0  0  0  0  0  0  0  0  0
    7.7605  -13.3911   19.7225 C   0  0  1  0  0  0  0  0  0  0  0  0
    8.3445  -13.7398   20.9391 O   0  0  0  0  0  0  0  0  0  0  0  0
    8.5555  -14.0499   18.6200 C   0  0  2  0  0  0  0  0  0  0  0  0
    8.3577  -15.4683   18.6973 N   0  0  0  0  0  0  0  0  0  0  0  0
    9.9949  -13.6772   18.7021 C   0  0  0  0  0  0  0  0  0  0  0  0
   10.3641  -12.6587   18.0953 O   0  0  0  0  0  0  0  0  0  0  0  0
   10.9372  -14.4403   19.4416 N   0  0  0  0  0  0  0  0  0  0  0  0
   12.3151  -14.0355   19.5710 C   0  0  0  0  0  0  0  0  0  0  0  0
   13.1256  -15.0340   20.3011 C   0  0  0  0  0  0  0  0  0  0  0  0
   12.7247  -16.2252   20.3383 O   0  0  0  0  0  0  0  0  0  0  0  0
   14.3382  -14.7377   20.9697 N   0  0  0  0  0  0  0  0  0  0  0  0
   15.1464  -15.7667   21.6351 C   0  0  1  0  0  0  0  0  0  0  0  0
   16.5366  -15.2573   21.9012 C   0  0  0  0  0  0  0  0  0  0  0  0
   17.2077  -14.9629   20.6222 C   0  0  0  0  0  0  0  0  0  0  0  0
   18.0080  -14.0034   20.5168 O   0  0  0  0  0  0  0  0  0  0  0  0
   14.4859  -16.0598   22.9199 C   0  0  0  0  0  0  0  0  0  0  0  0
   14.8177  -17.1657   23.6646 O   0  0  0  0  0  0  0  0  0  0  0  0
   16.9816  -15.7293   19.4955 O   0  0  0  0  0  0  0  0  0  0  0  0
   13.5928  -15.2942   23.3678 O   0  0  0  0  0  0  0  0  0  0  0  0
  2  1  1  1
  3  2  1  0
  4  5  1  1
  4  2  1  0
  6  4  1  0
  7  6  2  0
  8  6  1  0
  9  8  1  0
  9 10  1  0
 10 11  2  0
 12 10  1  0
 12 13  1  0
 13 17  1  0
 13 14  1  1
 15 19  1  0
 15 14  1  0
 16 15  2  0
 17 18  1  0
 20 17  2  0
M  END
$$$$
