TGD.pdb
     RDKit          3D

 20 19  0  0  1  0  0  0  0  0999 V2000
    6.4874  -17.7579   20.7683 C   0  0  0  0  0  0  0  0  0  0  0  0
    7.5683  -17.3512   19.8032 C   0  0  1  0  0  0  0  0  0  0  0  0
    7.3208  -17.8226   18.5150 O   0  0  0  0  0  0  0  0  0  0  0  0
    7.7446  -15.8531   19.7237 C   0  0  2  0  0  0  0  0  0  0  0  0
    8.4916  -15.5420   18.5396 N   0  0  0  0  0  0  0  0  0  0  0  0
    8.3954  -15.3249   20.9546 C   0  0  0  0  0  0  0  0  0  0  0  0
    9.6257  -15.4556   21.0598 O   0  0  0  0  0  0  0  0  0  0  0  0
    7.6608  -14.6881   21.9899 N   0  0  0  0  0  0  0  0  0  0  0  0
    8.2846  -14.2604   23.2176 C   0  0  0  0  0  0  0  0  0  0  0  0
    8.8243  -15.3957   23.9964 C   0  0  0  0  0  0  0  0  0  0  0  0
    8.0725  -16.3751   24.2344 O   0  0  0  0  0  0  0  0  0  0  0  0
   10.1467  -15.4574   24.4991 N   0  0  0  0  0  0  0  0  0  0  0  0
   10.6169  -16.5526   25.3559 C   0  0  1  0  0  0  0  0  0  0  0  0
    9.6329  -16.8186   26.4622 C   0  0  0  0  0  0  0  0  0  0  0  0
   10.2560  -16.5100   27.7620 C   0  0  0  0  0  0  0  0  0  0  0  0
   10.6432  -15.3492   28.0350 O   0  0  0  0  0  0  0  0  0  0  0  0
   10.7153  -17.7486   24.4999 C   0  0  0  0  0  0  0  0  0  0  0  0
   10.3411  -17.7212   23.1783 O   0  0  0  0  0  0  0  0  0  0  0  0
   10.4366  -17.4838   28.7249 O   0  0  0  0  0  0  0  0  0  0  0  0
   11.1494  -18.8339   24.9669 O   0  0  0  0  0  0  0  0  0  0  0  0
  2  1  1  1
  3  2  1  0
  4  5  1  6
  4  2  1  0
  6  4  1  0
  7  6  2  0
  8  6  1  0
  9  8  1  0
  9 10  1  0
 10 11  2  0
 12 10  1  0
 12 13  1  0
 13 17  1  0
 13 14  1  1
 15 19  1  0
 15 14  1  0
 16 15  2  0
 17 18  1  0
 20 17  2  0
M  END
$$$$
