TGD.pdb
     RDKit          3D

 20 19  0  0  1  0  0  0  0  0999 V2000
    8.3830  -12.3101   19.5618 C   0  0  0  0  0  0  0  0  0  0  0  0
    7.4598  -13.4970   19.4962 C   0  0  1  0  0  0  0  0  0  0  0  0
    6.9443  -13.6858   18.2150 O   0  0  0  0  0  0  0  0  0  0  0  0
    8.1315  -14.7816   19.9206 C   0  0  2  0  0  0  0  0  0  0  0  0
    7.1467  -15.8236   19.9556 N   0  0  0  0  0  0  0  0  0  0  0  0
    8.8231  -14.6169   21.2292 C   0  0  0  0  0  0  0  0  0  0  0  0
    9.9240  -14.0426   21.2331 O   0  0  0  0  0  0  0  0  0  0  0  0
    8.2675  -15.0892   22.4478 N   0  0  0  0  0  0  0  0  0  0  0  0
    8.9770  -14.9922   23.6994 C   0  0  0  0  0  0  0  0  0  0  0  0
    9.6069  -16.2729   24.0865 C   0  0  0  0  0  0  0  0  0  0  0  0
    9.0123  -17.3454   23.8088 O   0  0  0  0  0  0  0  0  0  0  0  0
   10.8499  -16.3765   24.7570 N   0  0  0  0  0  0  0  0  0  0  0  0
   11.4269  -17.6650   25.1588 C   0  0  1  0  0  0  0  0  0  0  0  0
   12.9288  -17.6176   25.0870 C   0  0  0  0  0  0  0  0  0  0  0  0
   13.3447  -17.1493   23.7526 C   0  0  0  0  0  0  0  0  0  0  0  0
   13.8926  -16.0319   23.6003 O   0  0  0  0  0  0  0  0  0  0  0  0
   11.0177  -17.8959   26.5560 C   0  0  0  0  0  0  0  0  0  0  0  0
   11.3092  -19.0700   27.2072 O   0  0  0  0  0  0  0  0  0  0  0  0
   13.1476  -17.9204   22.6236 O   0  0  0  0  0  0  0  0  0  0  0  0
   10.3847  -17.0119   27.1901 O   0  0  0  0  0  0  0  0  0  0  0  0
  2  1  1  6
  3  2  1  0
  4  5  1  1
  4  2  1  0
  6  4  1  0
  7  6  2  0
  8  6  1  0
  9  8  1  0
  9 10  1  0
 10 11  2  0
 12 10  1  0
 12 13  1  0
 13 17  1  0
 13 14  1  1
 15 19  1  0
 15 14  1  0
 16 15  2  0
 17 18  1  0
 20 17  2  0
M  END
$$$$
