TGD.pdb
     RDKit          3D

 20 19  0  0  1  0  0  0  0  0999 V2000
    7.4669  -12.4380   19.4624 C   0  0  0  0  0  0  0  0  0  0  0  0
    7.5882  -13.7503   18.7354 C   0  0  1  0  0  0  0  0  0  0  0  0
    7.9780  -13.5767   17.4085 O   0  0  0  0  0  0  0  0  0  0  0  0
    8.5737  -14.6896   19.3898 C   0  0  2  0  0  0  0  0  0  0  0  0
    8.7446  -15.8357   18.5447 N   0  0  0  0  0  0  0  0  0  0  0  0
    8.1276  -15.0630   20.7607 C   0  0  0  0  0  0  0  0  0  0  0  0
    7.6256  -16.1876   20.9193 O   0  0  0  0  0  0  0  0  0  0  0  0
    8.2591  -14.1846   21.8689 N   0  0  0  0  0  0  0  0  0  0  0  0
    7.8785  -14.5761   23.2036 C   0  0  0  0  0  0  0  0  0  0  0  0
    8.9925  -15.2122   23.9394 C   0  0  0  0  0  0  0  0  0  0  0  0
    8.7648  -15.6961   25.0774 O   0  0  0  0  0  0  0  0  0  0  0  0
   10.3152  -15.3159   23.4444 N   0  0  0  0  0  0  0  0  0  0  0  0
   11.2985  -16.2505   24.0050 C   0  0  1  0  0  0  0  0  0  0  0  0
   10.8441  -17.6722   23.8169 C   0  0  0  0  0  0  0  0  0  0  0  0
   11.8373  -18.5896   24.4041 C   0  0  0  0  0  0  0  0  0  0  0  0
   13.0485  -18.5213   24.0875 O   0  0  0  0  0  0  0  0  0  0  0  0
   12.5537  -16.0427   23.2606 C   0  0  0  0  0  0  0  0  0  0  0  0
   12.5955  -16.1011   21.8885 O   0  0  0  0  0  0  0  0  0  0  0  0
   11.4732  -19.5558   25.3217 O   0  0  0  0  0  0  0  0  0  0  0  0
   13.6272  -15.8048   23.8731 O   0  0  0  0  0  0  0  0  0  0  0  0
  2  1  1  1
  3  2  1  0
  4  5  1  6
  4  2  1  0
  6  4  1  0
  7  6  2  0
  8  6  1  0
  9  8  1  0
  9 10  1  0
 10 11  2  0
 12 10  1  0
 12 13  1  0
 13 17  1  0
 13 14  1  6
 15 19  1  0
 15 14  1  0
 16 15  2  0
 17 18  1  0
 20 17  2  0
M  END
$$$$
