TGD.pdb
     RDKit          3D

 20 19  0  0  1  0  0  0  0  0999 V2000
    8.4637  -13.2867   19.2655 C   0  0  0  0  0  0  0  0  0  0  0  0
    7.5631  -13.6775   20.4063 C   0  0  1  0  0  0  0  0  0  0  0  0
    6.3217  -14.1272   19.9595 O   0  0  0  0  0  0  0  0  0  0  0  0
    8.1617  -14.7562   21.2779 C   0  0  2  0  0  0  0  0  0  0  0  0
    8.0293  -16.0154   20.6042 N   0  0  0  0  0  0  0  0  0  0  0  0
    7.5270  -14.7694   22.6250 C   0  0  0  0  0  0  0  0  0  0  0  0
    6.3110  -15.0125   22.6889 O   0  0  0  0  0  0  0  0  0  0  0  0
    8.2611  -14.5168   23.8141 N   0  0  0  0  0  0  0  0  0  0  0  0
    7.6307  -14.4931   25.1108 C   0  0  0  0  0  0  0  0  0  0  0  0
    7.5078  -15.8447   25.6982 C   0  0  0  0  0  0  0  0  0  0  0  0
    6.3726  -16.3840   25.7376 O   0  0  0  0  0  0  0  0  0  0  0  0
    8.5945  -16.5836   26.2260 N   0  0  0  0  0  0  0  0  0  0  0  0
    8.4216  -17.8858   26.8810 C   0  0  1  0  0  0  0  0  0  0  0  0
    8.1659  -18.9614   25.8608 C   0  0  0  0  0  0  0  0  0  0  0  0
    9.2650  -18.9816   24.8787 C   0  0  0  0  0  0  0  0  0  0  0  0
    9.2269  -18.2664   23.8497 O   0  0  0  0  0  0  0  0  0  0  0  0
    9.6838  -18.1780   27.5841 C   0  0  0  0  0  0  0  0  0  0  0  0
   10.7942  -17.3837   27.4307 O   0  0  0  0  0  0  0  0  0  0  0  0
   10.3743  -19.7859   25.0537 O   0  0  0  0  0  0  0  0  0  0  0  0
    9.7727  -19.1736   28.3491 O   0  0  0  0  0  0  0  0  0  0  0  0
  2  1  1  6
  3  2  1  0
  4  5  1  6
  4  2  1  0
  6  4  1  0
  7  6  2  0
  8  6  1  0
  9  8  1  0
  9 10  1  0
 10 11  2  0
 12 10  1  0
 12 13  1  0
 13 17  1  0
 13 14  1  6
 15 19  1  0
 15 14  1  0
 16 15  2  0
 17 18  1  0
 20 17  2  0
M  END
$$$$
