TGD.pdb
     RDKit          3D

 20 19  0  0  1  0  0  0  0  0999 V2000
    8.1867  -12.4137   18.9549 C   0  0  0  0  0  0  0  0  0  0  0  0
    7.3739  -13.6746   19.0763 C   0  0  1  0  0  0  0  0  0  0  0  0
    6.6319  -13.9291   17.9241 O   0  0  0  0  0  0  0  0  0  0  0  0
    8.2241  -14.8907   19.3592 C   0  0  2  0  0  0  0  0  0  0  0  0
    7.3599  -16.0181   19.5561 N   0  0  0  0  0  0  0  0  0  0  0  0
    9.1197  -14.6577   20.5260 C   0  0  0  0  0  0  0  0  0  0  0  0
   10.1645  -14.0148   20.3338 O   0  0  0  0  0  0  0  0  0  0  0  0
    8.8161  -15.1413   21.8263 N   0  0  0  0  0  0  0  0  0  0  0  0
    9.6982  -14.9267   22.9466 C   0  0  0  0  0  0  0  0  0  0  0  0
   10.5804  -16.0874   23.1948 C   0  0  0  0  0  0  0  0  0  0  0  0
   10.4120  -17.1296   22.5118 O   0  0  0  0  0  0  0  0  0  0  0  0
   11.6155  -16.1066   24.1610 N   0  0  0  0  0  0  0  0  0  0  0  0
   12.4863  -17.2706   24.3641 C   0  0  1  0  0  0  0  0  0  0  0  0
   13.8650  -16.8340   24.7783 C   0  0  0  0  0  0  0  0  0  0  0  0
   14.6108  -16.3664   23.5959 C   0  0  0  0  0  0  0  0  0  0  0  0
   14.7219  -17.0853   22.5746 O   0  0  0  0  0  0  0  0  0  0  0  0
   11.8855  -18.0656   25.4503 C   0  0  0  0  0  0  0  0  0  0  0  0
   12.4116  -19.2755   25.8333 O   0  0  0  0  0  0  0  0  0  0  0  0
   15.2134  -15.1238   23.5677 O   0  0  0  0  0  0  0  0  0  0  0  0
   10.8650  -17.6481   26.0576 O   0  0  0  0  0  0  0  0  0  0  0  0
  2  1  1  6
  3  2  1  0
  4  5  1  1
  4  2  1  0
  6  4  1  0
  7  6  2  0
  8  6  1  0
  9  8  1  0
  9 10  1  0
 10 11  2  0
 12 10  1  0
 12 13  1  0
 13 17  1  0
 13 14  1  1
 15 19  1  0
 15 14  1  0
 16 15  2  0
 17 18  1  0
 20 17  2  0
M  END
$$$$
