TGD.pdb
     RDKit          3D

 20 19  0  0  1  0  0  0  0  0999 V2000
    7.4681  -12.1326   19.8655 C   0  0  0  0  0  0  0  0  0  0  0  0
    8.5380  -13.1850   19.9795 C   0  0  1  0  0  0  0  0  0  0  0  0
    8.0379  -14.3836   20.4857 O   0  0  0  0  0  0  0  0  0  0  0  0
    9.2061  -13.4819   18.6577 C   0  0  2  0  0  0  0  0  0  0  0  0
    8.1917  -13.7780   17.6880 N   0  0  0  0  0  0  0  0  0  0  0  0
   10.1941  -14.5878   18.7940 C   0  0  0  0  0  0  0  0  0  0  0  0
   10.1037  -15.5442   18.0072 O   0  0  0  0  0  0  0  0  0  0  0  0
   11.2163  -14.5772   19.7798 N   0  0  0  0  0  0  0  0  0  0  0  0
   12.2974  -15.5314   19.7698 C   0  0  0  0  0  0  0  0  0  0  0  0
   13.1379  -15.4377   20.9829 C   0  0  0  0  0  0  0  0  0  0  0  0
   13.6936  -14.3414   21.2482 O   0  0  0  0  0  0  0  0  0  0  0  0
   13.3630  -16.5112   21.8786 N   0  0  0  0  0  0  0  0  0  0  0  0
   14.1306  -16.3577   23.1203 C   0  0  1  0  0  0  0  0  0  0  0  0
   13.9101  -17.5370   24.0278 C   0  0  0  0  0  0  0  0  0  0  0  0
   12.4717  -17.6730   24.3198 C   0  0  0  0  0  0  0  0  0  0  0  0
   11.8490  -16.7773   24.9378 O   0  0  0  0  0  0  0  0  0  0  0  0
   15.5527  -16.3040   22.7360 C   0  0  0  0  0  0  0  0  0  0  0  0
   16.5253  -15.9175   23.6261 O   0  0  0  0  0  0  0  0  0  0  0  0
   11.7576  -18.7878   23.9256 O   0  0  0  0  0  0  0  0  0  0  0  0
   15.9110  -16.6146   21.5700 O   0  0  0  0  0  0  0  0  0  0  0  0
  2  1  1  6
  3  2  1  0
  4  5  1  6
  4  2  1  0
  6  4  1  0
  7  6  2  0
  8  6  1  0
  9  8  1  0
  9 10  1  0
 10 11  2  0
 12 10  1  0
 12 13  1  0
 13 17  1  0
 13 14  1  1
 15 19  1  0
 15 14  1  0
 16 15  2  0
 17 18  1  0
 20 17  2  0
M  END
$$$$
