WLY.pdb
     RDKit          3D

 35 37  0  0  1  0  0  0  0  0999 V2000
    5.9526  -17.8204   24.0340 N   0  0  0  0  0  0  0  0  0  0  0  0
    7.1812  -18.4422   23.5264 C   0  0  1  0  0  0  0  0  0  0  0  0
    6.7388  -19.7996   22.9958 C   0  0  0  0  0  0  0  0  0  0  0  0
    6.0977  -20.6166   24.0378 C   0  0  0  0  0  0  0  0  0  0  0  0
    5.1367  -21.5994   23.9156 C   0  0  0  0  0  0  0  0  0  0  0  0
    4.8262  -22.0942   25.1282 N   0  0  0  0  0  0  0  0  0  0  0  0
    5.5627  -21.4614   26.0725 C   0  0  0  0  0  0  0  0  0  0  0  0
    5.6192  -21.5989   27.4537 C   0  0  0  0  0  0  0  0  0  0  0  0
    6.4799  -20.8086   28.1917 C   0  0  0  0  0  0  0  0  0  0  0  0
    7.2770  -19.8856   27.5314 C   0  0  0  0  0  0  0  0  0  0  0  0
    7.2039  -19.7660   26.1546 C   0  0  0  0  0  0  0  0  0  0  0  0
    6.3550  -20.5432   25.4114 C   0  0  0  0  0  0  0  0  0  0  0  0
    7.7204  -17.6575   22.3969 C   0  0  0  0  0  0  0  0  0  0  0  0
    8.4046  -18.2411   21.5222 O   0  0  0  0  0  0  0  0  0  0  0  0
    6.8405  -12.4462   20.4501 C   0  0  0  0  0  0  0  0  0  0  0  0
    7.2128  -13.9679   20.5532 C   0  0  1  0  0  0  0  0  0  0  0  0
    7.8594  -14.2230   19.1949 C   0  0  0  0  0  0  0  0  0  0  0  0
    8.1208  -14.0443   21.7035 C   0  0  0  0  0  0  0  0  0  0  0  0
    8.6494  -15.3372   22.1945 C   0  0  2  0  0  0  0  0  0  0  0  0
    7.4774  -16.2755   22.2925 N   0  0  0  0  0  0  0  0  0  0  0  0
    9.4065  -15.4114   23.4244 C   0  0  0  0  0  0  0  0  0  0  0  0
   10.5487  -14.8123   23.4549 O   0  0  0  0  0  0  0  0  0  0  0  0
    5.6034  -11.1109   26.3838 O   0  0  0  0  0  0  0  0  0  0  0  0
    6.3665  -12.2490   26.5270 C   0  0  0  0  0  0  0  0  0  0  0  0
    7.6707  -12.1483   26.9524 C   0  0  0  0  0  0  0  0  0  0  0  0
    8.4554  -13.2731   27.1037 C   0  0  0  0  0  0  0  0  0  0  0  0
    7.9498  -14.5434   26.8300 C   0  0  0  0  0  0  0  0  0  0  0  0
    8.8259  -15.7100   27.0077 C   0  0  0  0  0  0  0  0  0  0  0  0
    9.8215  -15.8135   25.8299 C   0  0  2  0  0  0  0  0  0  0  0  0
    9.0710  -16.0499   24.6392 N   0  0  0  0  0  0  0  0  0  0  0  0
   10.7596  -16.9040   26.1079 C   0  0  0  0  0  0  0  0  0  0  0  0
   11.6821  -16.9811   27.1183 O   0  0  0  0  0  0  0  0  0  0  0  0
    6.6427  -14.6076   26.4069 C   0  0  0  0  0  0  0  0  0  0  0  0
    5.8406  -13.4916   26.2493 C   0  0  0  0  0  0  0  0  0  0  0  0
   10.7293  -17.9222   25.3182 O   0  0  0  0  0  0  0  0  0  0  0  0
  2  1  1  6
  3  2  1  0
  4  5  2  0
  4  3  1  0
  6  5  1  0
  7 12  2  0
  7  6  1  0
  8  7  1  0
  9 10  1  0
  9  8  2  0
 10 11  2  0
 11 12  1  0
 12  4  1  0
 13  2  1  0
 14 13  2  0
 16 15  1  6
 16 18  1  0
 17 16  1  0
 19 18  1  1
 19 21  1  0
 19 20  1  0
 20 13  1  0
 21 30  1  0
 22 21  2  0
 23 24  1  0
 24 25  2  0
 24 34  1  0
 25 26  1  0
 26 27  2  0
 27 28  1  0
 29 28  1  1
 29 31  1  0
 30 29  1  0
 31 35  2  0
 31 32  1  0
 33 27  1  0
 34 33  2  0
M  END
$$$$
