WLY.pdb
     RDKit          3D

 35 37  0  0  1  0  0  0  0  0999 V2000
    6.3720  -18.1740   23.6300 N   0  0  0  0  0  0  0  0  0  0  0  0
    6.8136  -16.7756   23.6862 C   0  0  1  0  0  0  0  0  0  0  0  0
    7.2445  -16.5623   25.1314 C   0  0  0  0  0  0  0  0  0  0  0  0
    6.5387  -15.4329   25.7563 C   0  0  0  0  0  0  0  0  0  0  0  0
    5.2935  -15.3958   26.3501 C   0  0  0  0  0  0  0  0  0  0  0  0
    5.0314  -14.1526   26.7945 N   0  0  0  0  0  0  0  0  0  0  0  0
    6.0808  -13.3446   26.5110 C   0  0  0  0  0  0  0  0  0  0  0  0
    6.3074  -11.9958   26.7540 C   0  0  0  0  0  0  0  0  0  0  0  0
    7.4926  -11.4110   26.3498 C   0  0  0  0  0  0  0  0  0  0  0  0
    8.4403  -12.1907   25.7037 C   0  0  0  0  0  0  0  0  0  0  0  0
    8.1927  -13.5325   25.4723 C   0  0  0  0  0  0  0  0  0  0  0  0
    7.0221  -14.1244   25.8677 C   0  0  0  0  0  0  0  0  0  0  0  0
    7.9924  -16.5781   22.8181 C   0  0  0  0  0  0  0  0  0  0  0  0
    8.7897  -17.5318   22.6483 O   0  0  0  0  0  0  0  0  0  0  0  0
    8.1254  -12.1853   19.3491 C   0  0  0  0  0  0  0  0  0  0  0  0
    7.9018  -13.5839   20.0264 C   0  0  1  0  0  0  0  0  0  0  0  0
    7.3445  -14.4054   18.8677 C   0  0  0  0  0  0  0  0  0  0  0  0
    9.2357  -13.9814   20.4917 C   0  0  0  0  0  0  0  0  0  0  0  0
    9.4448  -15.1958   21.3123 C   0  0  2  0  0  0  0  0  0  0  0  0
    8.2287  -15.3437   22.1855 N   0  0  0  0  0  0  0  0  0  0  0  0
   10.6259  -15.3433   22.1336 C   0  0  0  0  0  0  0  0  0  0  0  0
   11.3439  -14.2905   22.3348 O   0  0  0  0  0  0  0  0  0  0  0  0
   11.9204  -15.1891   30.3563 O   0  0  0  0  0  0  0  0  0  0  0  0
   11.5268  -15.4135   29.0551 C   0  0  0  0  0  0  0  0  0  0  0  0
   11.5692  -14.3861   28.1415 C   0  0  0  0  0  0  0  0  0  0  0  0
   11.1805  -14.5855   26.8327 C   0  0  0  0  0  0  0  0  0  0  0  0
   10.7338  -15.8330   26.3985 C   0  0  0  0  0  0  0  0  0  0  0  0
   10.3317  -15.9940   24.9939 C   0  0  0  0  0  0  0  0  0  0  0  0
   11.5360  -16.4604   24.1447 C   0  0  2  0  0  0  0  0  0  0  0  0
   11.1228  -16.4977   22.7791 N   0  0  0  0  0  0  0  0  0  0  0  0
   11.9591  -17.7794   24.6219 C   0  0  0  0  0  0  0  0  0  0  0  0
   12.8861  -18.0645   25.5901 O   0  0  0  0  0  0  0  0  0  0  0  0
   10.7041  -16.8373   27.3376 C   0  0  0  0  0  0  0  0  0  0  0  0
   11.0897  -16.6568   28.6539 C   0  0  0  0  0  0  0  0  0  0  0  0
   11.4046  -18.8078   24.0779 O   0  0  0  0  0  0  0  0  0  0  0  0
  2  1  1  1
  3  2  1  0
  4  5  2  0
  4  3  1  0
  6  5  1  0
  7 12  2  0
  7  6  1  0
  8  7  1  0
  9 10  1  0
  9  8  2  0
 10 11  2  0
 11 12  1  0
 12  4  1  0
 13  2  1  0
 14 13  2  0
 16 15  1  6
 16 18  1  0
 17 16  1  0
 19 18  1  1
 19 21  1  0
 19 20  1  0
 20 13  1  0
 21 30  1  0
 22 21  2  0
 23 24  1  0
 24 25  2  0
 24 34  1  0
 25 26  1  0
 26 27  2  0
 27 28  1  0
 29 28  1  1
 29 31  1  0
 30 29  1  0
 31 35  2  0
 31 32  1  0
 33 27  1  0
 34 33  2  0
M  END
$$$$
