WLY.pdb
     RDKit          3D

 35 37  0  0  1  0  0  0  0  0999 V2000
    7.0752  -17.1741   25.6853 N   0  0  0  0  0  0  0  0  0  0  0  0
    7.3477  -15.9886   24.8643 C   0  0  1  0  0  0  0  0  0  0  0  0
    8.6260  -15.3991   25.4458 C   0  0  0  0  0  0  0  0  0  0  0  0
    8.3642  -14.5914   26.6471 C   0  0  0  0  0  0  0  0  0  0  0  0
    8.8433  -14.7475   27.9318 C   0  0  0  0  0  0  0  0  0  0  0  0
    8.3482  -13.7827   28.7291 N   0  0  0  0  0  0  0  0  0  0  0  0
    7.5393  -12.9734   28.0043 C   0  0  0  0  0  0  0  0  0  0  0  0
    6.7985  -11.8499   28.3487 C   0  0  0  0  0  0  0  0  0  0  0  0
    6.0437  -11.2001   27.3905 C   0  0  0  0  0  0  0  0  0  0  0  0
    6.0416  -11.6882   26.0924 C   0  0  0  0  0  0  0  0  0  0  0  0
    6.7874  -12.8092   25.7722 C   0  0  0  0  0  0  0  0  0  0  0  0
    7.5398  -13.4625   26.7125 C   0  0  0  0  0  0  0  0  0  0  0  0
    7.6157  -16.3867   23.4672 C   0  0  0  0  0  0  0  0  0  0  0  0
    8.1941  -17.4777   23.2457 O   0  0  0  0  0  0  0  0  0  0  0  0
    9.0606  -13.9420   18.5906 C   0  0  0  0  0  0  0  0  0  0  0  0
    8.1313  -13.4428   19.7533 C   0  0  1  0  0  0  0  0  0  0  0  0
    7.2803  -12.3941   19.0433 C   0  0  0  0  0  0  0  0  0  0  0  0
    7.4108  -14.6455   20.1867 C   0  0  0  0  0  0  0  0  0  0  0  0
    8.0199  -15.6279   21.1117 C   0  0  2  0  0  0  0  0  0  0  0  0
    7.2329  -15.5634   22.3923 N   0  0  0  0  0  0  0  0  0  0  0  0
    9.4294  -15.5734   21.4307 C   0  0  0  0  0  0  0  0  0  0  0  0
    9.7556  -15.1592   22.6082 O   0  0  0  0  0  0  0  0  0  0  0  0
   14.8495  -21.6463   23.4545 O   0  0  0  0  0  0  0  0  0  0  0  0
   13.8547  -20.7927   23.0300 C   0  0  0  0  0  0  0  0  0  0  0  0
   14.1834  -19.5508   22.5385 C   0  0  0  0  0  0  0  0  0  0  0  0
   13.2057  -18.6781   22.1073 C   0  0  0  0  0  0  0  0  0  0  0  0
   11.8572  -19.0291   22.1570 C   0  0  0  0  0  0  0  0  0  0  0  0
   10.8541  -18.0642   21.6848 C   0  0  0  0  0  0  0  0  0  0  0  0
   11.5501  -16.8074   21.1146 C   0  0  2  0  0  0  0  0  0  0  0  0
   10.5379  -15.9264   20.6290 N   0  0  0  0  0  0  0  0  0  0  0  0
   12.4654  -17.2252   20.0496 C   0  0  0  0  0  0  0  0  0  0  0  0
   12.3533  -16.9872   18.7047 O   0  0  0  0  0  0  0  0  0  0  0  0
   11.5641  -20.2777   22.6538 C   0  0  0  0  0  0  0  0  0  0  0  0
   12.5301  -21.1663   23.0908 C   0  0  0  0  0  0  0  0  0  0  0  0
   13.5070  -17.8989   20.3993 O   0  0  0  0  0  0  0  0  0  0  0  0
  2  1  1  1
  3  2  1  0
  4  5  2  0
  4  3  1  0
  6  5  1  0
  7 12  2  0
  7  6  1  0
  8  7  1  0
  9 10  1  0
  9  8  2  0
 10 11  2  0
 11 12  1  0
 12  4  1  0
 13  2  1  0
 14 13  2  0
 16 15  1  6
 16 18  1  0
 17 16  1  0
 19 18  1  6
 19 21  1  0
 19 20  1  0
 20 13  1  0
 21 30  1  0
 22 21  2  0
 23 24  1  0
 24 25  2  0
 24 34  1  0
 25 26  1  0
 26 27  2  0
 27 28  1  0
 29 28  1  6
 29 31  1  0
 30 29  1  0
 31 35  2  0
 31 32  1  0
 33 27  1  0
 34 33  2  0
M  END
$$$$
