WLY.pdb
     RDKit          3D

 35 37  0  0  1  0  0  0  0  0999 V2000
    7.1383  -18.8106   24.9952 N   0  0  0  0  0  0  0  0  0  0  0  0
    7.1323  -17.3940   24.6118 C   0  0  1  0  0  0  0  0  0  0  0  0
    7.6153  -16.6539   25.8523 C   0  0  0  0  0  0  0  0  0  0  0  0
    6.7956  -15.4668   26.1402 C   0  0  0  0  0  0  0  0  0  0  0  0
    5.4261  -15.3555   26.2691 C   0  0  0  0  0  0  0  0  0  0  0  0
    5.0899  -14.0794   26.5339 N   0  0  0  0  0  0  0  0  0  0  0  0
    6.2117  -13.3221   26.5869 C   0  0  0  0  0  0  0  0  0  0  0  0
    6.4083  -11.9677   26.8249 C   0  0  0  0  0  0  0  0  0  0  0  0
    7.6876  -11.4448   26.8223 C   0  0  0  0  0  0  0  0  0  0  0  0
    8.7588  -12.2914   26.5797 C   0  0  0  0  0  0  0  0  0  0  0  0
    8.5390  -13.6375   26.3450 C   0  0  0  0  0  0  0  0  0  0  0  0
    7.2761  -14.1685   26.3448 C   0  0  0  0  0  0  0  0  0  0  0  0
    8.1032  -17.1563   23.5241 C   0  0  0  0  0  0  0  0  0  0  0  0
    8.8625  -18.0906   23.1713 O   0  0  0  0  0  0  0  0  0  0  0  0
    7.6042  -12.4872   20.4296 C   0  0  0  0  0  0  0  0  0  0  0  0
    7.4671  -13.8897   21.1214 C   0  0  1  0  0  0  0  0  0  0  0  0
    6.4663  -14.5911   20.2079 C   0  0  0  0  0  0  0  0  0  0  0  0
    8.8270  -14.4411   21.1013 C   0  0  0  0  0  0  0  0  0  0  0  0
    9.1540  -15.7323   21.7476 C   0  0  2  0  0  0  0  0  0  0  0  0
    8.1849  -15.9052   22.8854 N   0  0  0  0  0  0  0  0  0  0  0  0
   10.4895  -16.0040   22.2310 C   0  0  0  0  0  0  0  0  0  0  0  0
   11.3882  -16.3029   21.3549 O   0  0  0  0  0  0  0  0  0  0  0  0
    9.7868  -17.7497   29.3158 O   0  0  0  0  0  0  0  0  0  0  0  0
   10.4504  -17.0961   28.3005 C   0  0  0  0  0  0  0  0  0  0  0  0
   11.5666  -17.6672   27.7350 C   0  0  0  0  0  0  0  0  0  0  0  0
   12.2485  -17.0326   26.7171 C   0  0  0  0  0  0  0  0  0  0  0  0
   11.8264  -15.7952   26.2325 C   0  0  0  0  0  0  0  0  0  0  0  0
   12.5867  -15.1608   25.1463 C   0  0  0  0  0  0  0  0  0  0  0  0
   12.3794  -15.9375   23.8261 C   0  0  2  0  0  0  0  0  0  0  0  0
   10.9786  -15.9802   23.5563 N   0  0  0  0  0  0  0  0  0  0  0  0
   12.9452  -17.2799   23.9821 C   0  0  0  0  0  0  0  0  0  0  0  0
   14.2529  -17.6185   24.2130 O   0  0  0  0  0  0  0  0  0  0  0  0
   10.7073  -15.2532   26.8202 C   0  0  0  0  0  0  0  0  0  0  0  0
   10.0106  -15.8740   27.8415 C   0  0  0  0  0  0  0  0  0  0  0  0
   12.1313  -18.2754   23.8948 O   0  0  0  0  0  0  0  0  0  0  0  0
  2  1  1  1
  3  2  1  0
  4  5  2  0
  4  3  1  0
  6  5  1  0
  7 12  2  0
  7  6  1  0
  8  7  1  0
  9 10  1  0
  9  8  2  0
 10 11  2  0
 11 12  1  0
 12  4  1  0
 13  2  1  0
 14 13  2  0
 16 15  1  6
 16 18  1  0
 17 16  1  0
 19 18  1  1
 19 21  1  0
 19 20  1  0
 20 13  1  0
 21 30  1  0
 22 21  2  0
 23 24  1  0
 24 25  2  0
 24 34  1  0
 25 26  1  0
 26 27  2  0
 27 28  1  0
 29 28  1  1
 29 31  1  0
 30 29  1  0
 31 35  2  0
 31 32  1  0
 33 27  1  0
 34 33  2  0
M  END
$$$$
