WLY.pdb
     RDKit          3D

 35 37  0  0  1  0  0  0  0  0999 V2000
    6.9975  -17.5899   25.2493 N   0  0  0  0  0  0  0  0  0  0  0  0
    7.2652  -16.2365   24.7491 C   0  0  1  0  0  0  0  0  0  0  0  0
    8.5099  -15.7837   25.5009 C   0  0  0  0  0  0  0  0  0  0  0  0
    8.1768  -14.9608   26.6738 C   0  0  0  0  0  0  0  0  0  0  0  0
    8.3450  -15.2355   28.0158 C   0  0  0  0  0  0  0  0  0  0  0  0
    7.9013  -14.2034   28.7570 N   0  0  0  0  0  0  0  0  0  0  0  0
    7.4340  -13.2313   27.9377 C   0  0  0  0  0  0  0  0  0  0  0  0
    6.8782  -11.9848   28.1972 C   0  0  0  0  0  0  0  0  0  0  0  0
    6.4782  -11.1758   27.1504 C   0  0  0  0  0  0  0  0  0  0  0  0
    6.6417  -11.6297   25.8502 C   0  0  0  0  0  0  0  0  0  0  0  0
    7.1978  -12.8751   25.6156 C   0  0  0  0  0  0  0  0  0  0  0  0
    7.5984  -13.6868   26.6441 C   0  0  0  0  0  0  0  0  0  0  0  0
    7.5856  -16.2800   23.3077 C   0  0  0  0  0  0  0  0  0  0  0  0
    7.7484  -17.3939   22.7539 O   0  0  0  0  0  0  0  0  0  0  0  0
    7.3875  -14.1494   18.4026 C   0  0  0  0  0  0  0  0  0  0  0  0
    8.5867  -13.5375   19.2100 C   0  0  1  0  0  0  0  0  0  0  0  0
    8.5265  -12.0709   18.7937 C   0  0  0  0  0  0  0  0  0  0  0  0
    8.2550  -13.8042   20.6145 C   0  0  0  0  0  0  0  0  0  0  0  0
    8.3310  -15.1670   21.1879 C   0  0  2  0  0  0  0  0  0  0  0  0
    7.7092  -15.0969   22.5560 N   0  0  0  0  0  0  0  0  0  0  0  0
    9.5955  -15.8614   21.2885 C   0  0  0  0  0  0  0  0  0  0  0  0
    9.7798  -16.8741   20.5108 O   0  0  0  0  0  0  0  0  0  0  0  0
   14.3137  -14.9606   16.3282 O   0  0  0  0  0  0  0  0  0  0  0  0
   14.0297  -15.0203   17.6751 C   0  0  0  0  0  0  0  0  0  0  0  0
   13.0772  -15.8999   18.1344 C   0  0  0  0  0  0  0  0  0  0  0  0
   12.7749  -15.9786   19.4783 C   0  0  0  0  0  0  0  0  0  0  0  0
   13.4254  -15.1696   20.4091 C   0  0  0  0  0  0  0  0  0  0  0  0
   13.0679  -15.2922   21.8295 C   0  0  0  0  0  0  0  0  0  0  0  0
   11.9203  -16.3127   22.0043 C   0  0  2  0  0  0  0  0  0  0  0  0
   10.6990  -15.5845   22.1264 N   0  0  0  0  0  0  0  0  0  0  0  0
   12.1937  -17.1211   23.1953 C   0  0  0  0  0  0  0  0  0  0  0  0
   11.4367  -17.2228   24.3331 O   0  0  0  0  0  0  0  0  0  0  0  0
   14.3717  -14.3020   19.9158 C   0  0  0  0  0  0  0  0  0  0  0  0
   14.6885  -14.2087   18.5724 C   0  0  0  0  0  0  0  0  0  0  0  0
   13.2711  -17.8284   23.1920 O   0  0  0  0  0  0  0  0  0  0  0  0
  2  1  1  1
  3  2  1  0
  4  5  2  0
  4  3  1  0
  6  5  1  0
  7 12  2  0
  7  6  1  0
  8  7  1  0
  9 10  1  0
  9  8  2  0
 10 11  2  0
 11 12  1  0
 12  4  1  0
 13  2  1  0
 14 13  2  0
 16 15  1  6
 16 18  1  0
 17 16  1  0
 19 18  1  1
 19 21  1  0
 19 20  1  0
 20 13  1  0
 21 30  1  0
 22 21  2  0
 23 24  1  0
 24 25  2  0
 24 34  1  0
 25 26  1  0
 26 27  2  0
 27 28  1  0
 29 28  1  1
 29 31  1  0
 30 29  1  0
 31 35  2  0
 31 32  1  0
 33 27  1  0
 34 33  2  0
M  END
$$$$
