WLY.pdb
     RDKit          3D

 35 37  0  0  1  0  0  0  0  0999 V2000
    6.4805  -18.8316   22.6089 N   0  0  0  0  0  0  0  0  0  0  0  0
    7.0746  -17.5299   22.2827 C   0  0  1  0  0  0  0  0  0  0  0  0
    6.4796  -17.1594   20.9305 C   0  0  0  0  0  0  0  0  0  0  0  0
    7.3861  -16.3091   20.1436 C   0  0  0  0  0  0  0  0  0  0  0  0
    8.2065  -16.6436   19.0855 C   0  0  0  0  0  0  0  0  0  0  0  0
    8.8719  -15.5554   18.6558 N   0  0  0  0  0  0  0  0  0  0  0  0
    8.5154  -14.4863   19.4071 C   0  0  0  0  0  0  0  0  0  0  0  0
    8.9066  -13.1538   19.3721 C   0  0  0  0  0  0  0  0  0  0  0  0
    8.3728  -12.2536   20.2747 C   0  0  0  0  0  0  0  0  0  0  0  0
    7.4488  -12.7037   21.2057 C   0  0  0  0  0  0  0  0  0  0  0  0
    7.0739  -14.0358   21.2220 C   0  0  0  0  0  0  0  0  0  0  0  0
    7.5954  -14.9384   20.3329 C   0  0  0  0  0  0  0  0  0  0  0  0
    6.6506  -16.5148   23.2686 C   0  0  0  0  0  0  0  0  0  0  0  0
    5.6686  -15.7808   23.0022 O   0  0  0  0  0  0  0  0  0  0  0  0
    5.5012  -13.2503   26.7608 C   0  0  0  0  0  0  0  0  0  0  0  0
    6.5063  -13.2497   25.5548 C   0  0  1  0  0  0  0  0  0  0  0  0
    7.1393  -11.8669   25.6778 C   0  0  0  0  0  0  0  0  0  0  0  0
    7.4053  -14.3769   25.8284 C   0  0  0  0  0  0  0  0  0  0  0  0
    8.1043  -15.0979   24.7406 C   0  0  2  0  0  0  0  0  0  0  0  0
    7.3297  -16.3633   24.4916 N   0  0  0  0  0  0  0  0  0  0  0  0
    9.5081  -15.4277   24.8500 C   0  0  0  0  0  0  0  0  0  0  0  0
   10.3523  -14.4535   24.7968 O   0  0  0  0  0  0  0  0  0  0  0  0
   10.4144  -14.7245   30.8882 O   0  0  0  0  0  0  0  0  0  0  0  0
   10.7656  -15.4557   29.7746 C   0  0  0  0  0  0  0  0  0  0  0  0
   11.6813  -14.9463   28.8835 C   0  0  0  0  0  0  0  0  0  0  0  0
   12.0495  -15.6591   27.7609 C   0  0  0  0  0  0  0  0  0  0  0  0
   11.5047  -16.9152   27.4972 C   0  0  0  0  0  0  0  0  0  0  0  0
   11.9303  -17.6345   26.2882 C   0  0  0  0  0  0  0  0  0  0  0  0
   11.5346  -16.8358   25.0255 C   0  0  2  0  0  0  0  0  0  0  0  0
   10.1147  -16.6918   25.0233 N   0  0  0  0  0  0  0  0  0  0  0  0
   12.0099  -17.5639   23.8463 C   0  0  0  0  0  0  0  0  0  0  0  0
   13.3001  -17.9033   23.5325 O   0  0  0  0  0  0  0  0  0  0  0  0
   10.5926  -17.3942   28.4085 C   0  0  0  0  0  0  0  0  0  0  0  0
   10.2110  -16.6946   29.5393 C   0  0  0  0  0  0  0  0  0  0  0  0
   11.1235  -17.9387   22.9890 O   0  0  0  0  0  0  0  0  0  0  0  0
  2  1  1  1
  3  2  1  0
  4  5  2  0
  4  3  1  0
  6  5  1  0
  7 12  2  0
  7  6  1  0
  8  7  1  0
  9 10  1  0
  9  8  2  0
 10 11  2  0
 11 12  1  0
 12  4  1  0
 13  2  1  0
 14 13  2  0
 16 15  1  1
 16 18  1  0
 17 16  1  0
 19 18  1  1
 19 21  1  0
 19 20  1  0
 20 13  1  0
 21 30  1  0
 22 21  2  0
 23 24  1  0
 24 25  2  0
 24 34  1  0
 25 26  1  0
 26 27  2  0
 27 28  1  0
 29 28  1  1
 29 31  1  0
 30 29  1  0
 31 35  2  0
 31 32  1  0
 33 27  1  0
 34 33  2  0
M  END
$$$$
