WLY.pdb
     RDKit          3D

 35 37  0  0  1  0  0  0  0  0999 V2000
    7.7352  -19.8571   20.8388 N   0  0  0  0  0  0  0  0  0  0  0  0
    7.2508  -18.6029   21.4270 C   0  0  1  0  0  0  0  0  0  0  0  0
    6.9145  -18.9552   22.8701 C   0  0  0  0  0  0  0  0  0  0  0  0
    5.4812  -19.2336   23.0500 C   0  0  0  0  0  0  0  0  0  0  0  0
    4.8244  -19.7979   24.1245 C   0  0  0  0  0  0  0  0  0  0  0  0
    3.5045  -19.8717   23.8713 N   0  0  0  0  0  0  0  0  0  0  0  0
    3.2553  -19.3655   22.6400 C   0  0  0  0  0  0  0  0  0  0  0  0
    2.0779  -19.2129   21.9186 C   0  0  0  0  0  0  0  0  0  0  0  0
    2.1096  -18.6526   20.6557 C   0  0  0  0  0  0  0  0  0  0  0  0
    3.3282  -18.2505   20.1296 C   0  0  0  0  0  0  0  0  0  0  0  0
    4.4885  -18.4123   20.8664 C   0  0  0  0  0  0  0  0  0  0  0  0
    4.4708  -18.9662   22.1194 C   0  0  0  0  0  0  0  0  0  0  0  0
    8.3301  -17.5942   21.4366 C   0  0  0  0  0  0  0  0  0  0  0  0
    9.5237  -17.9803   21.4442 O   0  0  0  0  0  0  0  0  0  0  0  0
    7.1351  -12.1175   20.8220 C   0  0  0  0  0  0  0  0  0  0  0  0
    7.6001  -13.5876   20.5265 C   0  0  1  0  0  0  0  0  0  0  0  0
    8.1955  -13.4507   19.1284 C   0  0  0  0  0  0  0  0  0  0  0  0
    8.5644  -13.8864   21.5916 C   0  0  0  0  0  0  0  0  0  0  0  0
    9.1318  -15.2420   21.7711 C   0  0  2  0  0  0  0  0  0  0  0  0
    8.0367  -16.2181   21.4375 N   0  0  0  0  0  0  0  0  0  0  0  0
    9.7363  -15.6344   23.0249 C   0  0  0  0  0  0  0  0  0  0  0  0
   11.0147  -15.5003   23.1348 O   0  0  0  0  0  0  0  0  0  0  0  0
    5.8578  -11.3112   26.2274 O   0  0  0  0  0  0  0  0  0  0  0  0
    6.5427  -12.5043   26.3029 C   0  0  0  0  0  0  0  0  0  0  0  0
    7.8780  -12.5061   26.6331 C   0  0  0  0  0  0  0  0  0  0  0  0
    8.5858  -13.6876   26.7152 C   0  0  0  0  0  0  0  0  0  0  0  0
    7.9689  -14.9129   26.4661 C   0  0  0  0  0  0  0  0  0  0  0  0
    8.7666  -16.1433   26.5674 C   0  0  0  0  0  0  0  0  0  0  0  0
    9.8158  -16.1934   25.4335 C   0  0  2  0  0  0  0  0  0  0  0  0
    9.1201  -16.1473   24.1883 N   0  0  0  0  0  0  0  0  0  0  0  0
   10.5965  -17.4250   25.5759 C   0  0  0  0  0  0  0  0  0  0  0  0
   11.4327  -17.7752   26.6036 O   0  0  0  0  0  0  0  0  0  0  0  0
    6.6336  -14.8746   26.1388 C   0  0  0  0  0  0  0  0  0  0  0  0
    5.9073  -13.7005   26.0515 C   0  0  0  0  0  0  0  0  0  0  0  0
   10.4987  -18.2964   24.6313 O   0  0  0  0  0  0  0  0  0  0  0  0
  2  1  1  6
  3  2  1  0
  4  5  2  0
  4  3  1  0
  6  5  1  0
  7 12  2  0
  7  6  1  0
  8  7  1  0
  9 10  1  0
  9  8  2  0
 10 11  2  0
 11 12  1  0
 12  4  1  0
 13  2  1  0
 14 13  2  0
 16 15  1  1
 16 18  1  0
 17 16  1  0
 19 18  1  1
 19 21  1  0
 19 20  1  0
 20 13  1  0
 21 30  1  0
 22 21  2  0
 23 24  1  0
 24 25  2  0
 24 34  1  0
 25 26  1  0
 26 27  2  0
 27 28  1  0
 29 28  1  1
 29 31  1  0
 30 29  1  0
 31 35  2  0
 31 32  1  0
 33 27  1  0
 34 33  2  0
M  END
$$$$
