WLY.pdb
     RDKit          3D

 35 37  0  0  1  0  0  0  0  0999 V2000
    5.2509  -19.0973   23.0669 N   0  0  0  0  0  0  0  0  0  0  0  0
    5.9162  -18.6916   24.3106 C   0  0  1  0  0  0  0  0  0  0  0  0
    7.0075  -19.7323   24.5244 C   0  0  0  0  0  0  0  0  0  0  0  0
    7.0642  -20.1930   25.9203 C   0  0  0  0  0  0  0  0  0  0  0  0
    6.2208  -21.0503   26.5971 C   0  0  0  0  0  0  0  0  0  0  0  0
    6.6386  -21.2008   27.8677 N   0  0  0  0  0  0  0  0  0  0  0  0
    7.7541  -20.4579   28.0638 C   0  0  0  0  0  0  0  0  0  0  0  0
    8.5612  -20.2696   29.1786 C   0  0  0  0  0  0  0  0  0  0  0  0
    9.6633  -19.4392   29.1007 C   0  0  0  0  0  0  0  0  0  0  0  0
    9.9430  -18.8050   27.8995 C   0  0  0  0  0  0  0  0  0  0  0  0
    9.1247  -19.0075   26.8019 C   0  0  0  0  0  0  0  0  0  0  0  0
    8.0294  -19.8280   26.8657 C   0  0  0  0  0  0  0  0  0  0  0  0
    6.5611  -17.3740   24.1372 C   0  0  0  0  0  0  0  0  0  0  0  0
    7.0604  -17.0827   23.0237 O   0  0  0  0  0  0  0  0  0  0  0  0
    7.1881  -12.1528   24.5322 C   0  0  0  0  0  0  0  0  0  0  0  0
    7.1359  -12.7735   25.9732 C   0  0  1  0  0  0  0  0  0  0  0  0
    6.2039  -11.8054   26.6957 C   0  0  0  0  0  0  0  0  0  0  0  0
    6.6002  -14.1245   25.7695 C   0  0  0  0  0  0  0  0  0  0  0  0
    7.3321  -15.1425   24.9820 C   0  0  2  0  0  0  0  0  0  0  0  0
    6.6210  -16.4507   25.1973 N   0  0  0  0  0  0  0  0  0  0  0  0
    8.7508  -15.3494   25.1710 C   0  0  0  0  0  0  0  0  0  0  0  0
    9.2511  -15.0211   26.3139 O   0  0  0  0  0  0  0  0  0  0  0  0
   10.5667  -13.8741   30.6360 O   0  0  0  0  0  0  0  0  0  0  0  0
   10.7285  -14.5661   29.4557 C   0  0  0  0  0  0  0  0  0  0  0  0
   11.0074  -15.9127   29.4857 C   0  0  0  0  0  0  0  0  0  0  0  0
   11.1738  -16.6279   28.3176 C   0  0  0  0  0  0  0  0  0  0  0  0
   11.0642  -16.0073   27.0739 C   0  0  0  0  0  0  0  0  0  0  0  0
   11.2494  -16.8134   25.8589 C   0  0  0  0  0  0  0  0  0  0  0  0
   11.0877  -15.9285   24.6020 C   0  0  2  0  0  0  0  0  0  0  0  0
    9.7001  -15.8837   24.2713 N   0  0  0  0  0  0  0  0  0  0  0  0
   11.8873  -16.5074   23.5193 C   0  0  0  0  0  0  0  0  0  0  0  0
   13.2520  -16.6059   23.4434 O   0  0  0  0  0  0  0  0  0  0  0  0
   10.7847  -14.6606   27.0805 C   0  0  0  0  0  0  0  0  0  0  0  0
   10.6145  -13.9268   28.2408 C   0  0  0  0  0  0  0  0  0  0  0  0
   11.2487  -16.9866   22.5075 O   0  0  0  0  0  0  0  0  0  0  0  0
  2  1  1  6
  3  2  1  0
  4  5  2  0
  4  3  1  0
  6  5  1  0
  7 12  2  0
  7  6  1  0
  8  7  1  0
  9 10  1  0
  9  8  2  0
 10 11  2  0
 11 12  1  0
 12  4  1  0
 13  2  1  0
 14 13  2  0
 16 15  1  6
 16 18  1  0
 17 16  1  0
 19 18  1  1
 19 21  1  0
 19 20  1  0
 20 13  1  0
 21 30  1  0
 22 21  2  0
 23 24  1  0
 24 25  2  0
 24 34  1  0
 25 26  1  0
 26 27  2  0
 27 28  1  0
 29 28  1  1
 29 31  1  0
 30 29  1  0
 31 35  2  0
 31 32  1  0
 33 27  1  0
 34 33  2  0
M  END
$$$$
