WLY.pdb
     RDKit          3D

 35 37  0  0  1  0  0  0  0  0999 V2000
    6.2496  -18.2226   23.9214 N   0  0  0  0  0  0  0  0  0  0  0  0
    6.7114  -16.8411   23.7428 C   0  0  1  0  0  0  0  0  0  0  0  0
    7.4133  -16.4943   25.0493 C   0  0  0  0  0  0  0  0  0  0  0  0
    6.6813  -15.4730   25.8142 C   0  0  0  0  0  0  0  0  0  0  0  0
    5.5139  -15.5891   26.5410 C   0  0  0  0  0  0  0  0  0  0  0  0
    5.1896  -14.4018   27.0855 N   0  0  0  0  0  0  0  0  0  0  0  0
    6.1200  -13.4805   26.7390 C   0  0  0  0  0  0  0  0  0  0  0  0
    6.2464  -12.1296   27.0370 C   0  0  0  0  0  0  0  0  0  0  0  0
    7.3182  -11.4108   26.5426 C   0  0  0  0  0  0  0  0  0  0  0  0
    8.2544  -12.0595   25.7514 C   0  0  0  0  0  0  0  0  0  0  0  0
    8.1081  -13.4061   25.4675 C   0  0  0  0  0  0  0  0  0  0  0  0
    7.0504  -14.1301   25.9513 C   0  0  0  0  0  0  0  0  0  0  0  0
    7.7050  -16.7729   22.6517 C   0  0  0  0  0  0  0  0  0  0  0  0
    8.3017  -17.8208   22.3057 O   0  0  0  0  0  0  0  0  0  0  0  0
    7.9552  -12.2037   19.4502 C   0  0  0  0  0  0  0  0  0  0  0  0
    7.6455  -13.5196   20.2484 C   0  0  1  0  0  0  0  0  0  0  0  0
    6.4818  -14.1009   19.4512 C   0  0  0  0  0  0  0  0  0  0  0  0
    8.8944  -14.2877   20.1845 C   0  0  0  0  0  0  0  0  0  0  0  0
    9.0960  -15.5155   20.9868 C   0  0  2  0  0  0  0  0  0  0  0  0
    7.9868  -15.5568   22.0023 N   0  0  0  0  0  0  0  0  0  0  0  0
   10.3509  -15.7650   21.6607 C   0  0  0  0  0  0  0  0  0  0  0  0
   11.3944  -15.9455   20.9239 O   0  0  0  0  0  0  0  0  0  0  0  0
   16.8515  -17.7499   27.1745 O   0  0  0  0  0  0  0  0  0  0  0  0
   15.6340  -17.3424   26.6747 C   0  0  0  0  0  0  0  0  0  0  0  0
   15.5646  -16.2332   25.8643 C   0  0  0  0  0  0  0  0  0  0  0  0
   14.3574  -15.8051   25.3513 C   0  0  0  0  0  0  0  0  0  0  0  0
   13.1738  -16.4836   25.6391 C   0  0  0  0  0  0  0  0  0  0  0  0
   11.9138  -15.9878   25.0675 C   0  0  0  0  0  0  0  0  0  0  0  0
   11.9208  -16.1602   23.5315 C   0  0  2  0  0  0  0  0  0  0  0  0
   10.6194  -15.8319   23.0462 N   0  0  0  0  0  0  0  0  0  0  0  0
   12.2849  -17.5448   23.2202 C   0  0  0  0  0  0  0  0  0  0  0  0
   13.5260  -18.0379   22.9129 O   0  0  0  0  0  0  0  0  0  0  0  0
   13.2794  -17.5879   26.4521 C   0  0  0  0  0  0  0  0  0  0  0  0
   14.4803  -18.0324   26.9758 C   0  0  0  0  0  0  0  0  0  0  0  0
   11.3380  -18.4191   23.2313 O   0  0  0  0  0  0  0  0  0  0  0  0
  2  1  1  1
  3  2  1  0
  4  5  2  0
  4  3  1  0
  6  5  1  0
  7 12  2  0
  7  6  1  0
  8  7  1  0
  9 10  1  0
  9  8  2  0
 10 11  2  0
 11 12  1  0
 12  4  1  0
 13  2  1  0
 14 13  2  0
 16 15  1  6
 16 18  1  0
 17 16  1  0
 19 18  1  1
 19 21  1  0
 19 20  1  0
 20 13  1  0
 21 30  1  0
 22 21  2  0
 23 24  1  0
 24 25  2  0
 24 34  1  0
 25 26  1  0
 26 27  2  0
 27 28  1  0
 29 28  1  1
 29 31  1  0
 30 29  1  0
 31 35  2  0
 31 32  1  0
 33 27  1  0
 34 33  2  0
M  END
$$$$
