MTI.pdb
     RDKit          3D

 24 23  0  0  1  0  0  0  0  0999 V2000
    8.2095  -11.4679   20.4412 C   0  0  0  0  0  0  0  0  0  0  0  0
    8.0068  -12.0653   18.7263 S   0  0  0  0  0  0  0  0  0  0  0  0
    8.5412  -13.8168   18.6580 C   0  0  0  0  0  0  0  0  0  0  0  0
    8.1079  -14.4869   19.9332 C   0  0  0  0  0  0  0  0  0  0  0  0
    8.5014  -15.9254   19.9986 C   0  0  2  0  0  0  0  0  0  0  0  0
    7.8859  -16.6725   18.9476 N   0  0  0  0  0  0  0  0  0  0  0  0
    8.3125  -16.5298   21.3377 C   0  0  0  0  0  0  0  0  0  0  0  0
    7.1539  -16.8474   21.7108 O   0  0  0  0  0  0  0  0  0  0  0  0
   10.0242  -19.0206   25.1679 C   0  0  0  0  0  0  0  0  0  0  0  0
    9.9672  -18.4712   23.7641 C   0  0  1  0  0  0  0  0  0  0  0  0
    9.3302  -19.4282   22.9371 O   0  0  0  0  0  0  0  0  0  0  0  0
    9.1433  -17.2103   23.6345 C   0  0  2  0  0  0  0  0  0  0  0  0
    9.3828  -16.7737   22.2363 N   0  0  0  0  0  0  0  0  0  0  0  0
    9.5283  -16.1344   24.5512 C   0  0  0  0  0  0  0  0  0  0  0  0
   10.6516  -15.5610   24.3801 O   0  0  0  0  0  0  0  0  0  0  0  0
    6.3049  -12.2188   26.0946 C   0  0  0  0  0  0  0  0  0  0  0  0
    7.5284  -13.0282   25.6661 C   0  0  0  0  0  0  0  0  0  0  0  0
    8.1497  -13.6811   26.8682 C   0  0  2  0  0  0  0  0  0  0  0  0
    8.6201  -12.5625   27.7849 C   0  0  0  0  0  0  0  0  0  0  0  0
    9.2560  -14.6257   26.5352 C   0  0  2  0  0  0  0  0  0  0  0  0
    8.7417  -15.6732   25.6245 N   0  0  0  0  0  0  0  0  0  0  0  0
    9.7208  -15.3043   27.7527 C   0  0  0  0  0  0  0  0  0  0  0  0
    9.1473  -16.2988   28.2362 O   0  0  0  0  0  0  0  0  0  0  0  0
   10.8434  -14.8390   28.4117 O   0  0  0  0  0  0  0  0  0  0  0  0
  1  2  1  0
  2  3  1  0
  4  3  1  0
  5  7  1  0
  5  4  1  0
  5  6  1  6
  7  8  2  0
 10 12  1  0
 10  9  1  1
 11 10  1  0
 12 13  1  6
 13  7  1  0
 14 12  1  0
 15 14  2  0
 16 17  1  0
 17 18  1  0
 18 20  1  0
 18 19  1  1
 20 21  1  6
 20 22  1  0
 21 14  1  0
 22 24  1  0
 23 22  2  0
M  END
$$$$
