MTI.pdb
     RDKit          3D

 24 23  0  0  1  0  0  0  0  0999 V2000
    7.8396  -11.5271   19.7708 C   0  0  0  0  0  0  0  0  0  0  0  0
    7.4684  -12.9650   18.7062 S   0  0  0  0  0  0  0  0  0  0  0  0
    8.5133  -14.3696   19.2476 C   0  0  0  0  0  0  0  0  0  0  0  0
    9.7522  -13.8088   19.8906 C   0  0  0  0  0  0  0  0  0  0  0  0
   10.6089  -14.8577   20.5184 C   0  0  2  0  0  0  0  0  0  0  0  0
   11.0035  -15.8388   19.5575 N   0  0  0  0  0  0  0  0  0  0  0  0
   10.0237  -15.4414   21.7477 C   0  0  0  0  0  0  0  0  0  0  0  0
    9.5338  -14.6768   22.6181 O   0  0  0  0  0  0  0  0  0  0  0  0
    8.6680  -19.3907   21.9206 C   0  0  0  0  0  0  0  0  0  0  0  0
    9.5040  -18.8825   23.0689 C   0  0  1  0  0  0  0  0  0  0  0  0
   10.8635  -19.1619   22.7876 O   0  0  0  0  0  0  0  0  0  0  0  0
    9.4292  -17.3852   23.2633 C   0  0  2  0  0  0  0  0  0  0  0  0
    9.9851  -16.8367   22.0011 N   0  0  0  0  0  0  0  0  0  0  0  0
   10.2074  -16.8785   24.3964 C   0  0  0  0  0  0  0  0  0  0  0  0
   11.3647  -16.3979   24.1744 O   0  0  0  0  0  0  0  0  0  0  0  0
    9.9985  -13.0415   28.7683 C   0  0  0  0  0  0  0  0  0  0  0  0
   10.6461  -14.3886   28.4500 C   0  0  0  0  0  0  0  0  0  0  0  0
    9.9738  -15.0039   27.2555 C   0  0  2  0  0  0  0  0  0  0  0  0
    8.5122  -15.2036   27.6254 C   0  0  0  0  0  0  0  0  0  0  0  0
   10.6071  -16.2750   26.7970 C   0  0  2  0  0  0  0  0  0  0  0  0
    9.7703  -16.8783   25.7353 N   0  0  0  0  0  0  0  0  0  0  0  0
   10.6580  -17.2391   27.9046 C   0  0  0  0  0  0  0  0  0  0  0  0
    9.8442  -18.1741   28.0283 O   0  0  0  0  0  0  0  0  0  0  0  0
   11.6438  -17.1269   28.8672 O   0  0  0  0  0  0  0  0  0  0  0  0
  1  2  1  0
  2  3  1  0
  4  3  1  0
  5  7  1  0
  5  4  1  0
  5  6  1  6
  7  8  2  0
 10 12  1  0
 10  9  1  6
 11 10  1  0
 12 13  1  6
 13  7  1  0
 14 12  1  0
 15 14  2  0
 16 17  1  0
 17 18  1  0
 18 20  1  0
 18 19  1  1
 20 21  1  6
 20 22  1  0
 21 14  1  0
 22 24  1  0
 23 22  2  0
M  END
$$$$
