MTI.pdb
     RDKit          3D

 24 23  0  0  1  0  0  0  0  0999 V2000
   12.2827  -19.4913   25.3239 C   0  0  0  0  0  0  0  0  0  0  0  0
   13.4902  -20.2209   24.1627 S   0  0  0  0  0  0  0  0  0  0  0  0
   13.2719  -19.4249   22.5267 C   0  0  0  0  0  0  0  0  0  0  0  0
   12.2198  -18.3584   22.6633 C   0  0  0  0  0  0  0  0  0  0  0  0
   11.8478  -17.7360   21.3585 C   0  0  2  0  0  0  0  0  0  0  0  0
   13.0008  -17.5408   20.5375 N   0  0  0  0  0  0  0  0  0  0  0  0
   11.0143  -16.5196   21.4998 C   0  0  0  0  0  0  0  0  0  0  0  0
   11.5087  -15.3991   21.2131 O   0  0  0  0  0  0  0  0  0  0  0  0
    8.0790  -15.2783   19.8719 C   0  0  0  0  0  0  0  0  0  0  0  0
    7.7253  -15.3636   21.3360 C   0  0  1  0  0  0  0  0  0  0  0  0
    7.1222  -16.6223   21.5755 O   0  0  0  0  0  0  0  0  0  0  0  0
    8.9219  -15.3050   22.2580 C   0  0  2  0  0  0  0  0  0  0  0  0
    9.6686  -16.5496   21.9477 N   0  0  0  0  0  0  0  0  0  0  0  0
    8.5907  -15.2811   23.6849 C   0  0  0  0  0  0  0  0  0  0  0  0
    9.0470  -16.2050   24.4317 O   0  0  0  0  0  0  0  0  0  0  0  0
    6.7382  -10.6556   26.1005 C   0  0  0  0  0  0  0  0  0  0  0  0
    7.6342  -11.8881   25.9828 C   0  0  0  0  0  0  0  0  0  0  0  0
    6.8153  -13.1307   26.1896 C   0  0  2  0  0  0  0  0  0  0  0  0
    6.4404  -13.1727   27.6628 C   0  0  0  0  0  0  0  0  0  0  0  0
    7.5026  -14.3829   25.7576 C   0  0  2  0  0  0  0  0  0  0  0  0
    7.7957  -14.3002   24.3089 N   0  0  0  0  0  0  0  0  0  0  0  0
    6.6137  -15.5366   25.9516 C   0  0  0  0  0  0  0  0  0  0  0  0
    5.6864  -15.8179   25.1688 O   0  0  0  0  0  0  0  0  0  0  0  0
    6.7923  -16.3644   27.0442 O   0  0  0  0  0  0  0  0  0  0  0  0
  1  2  1  0
  2  3  1  0
  4  3  1  0
  5  7  1  0
  5  4  1  0
  5  6  1  1
  7  8  2  0
 10 12  1  0
 10  9  1  6
 11 10  1  0
 12 13  1  1
 13  7  1  0
 14 12  1  0
 15 14  2  0
 16 17  1  0
 17 18  1  0
 18 20  1  0
 18 19  1  1
 20 21  1  6
 20 22  1  0
 21 14  1  0
 22 24  1  0
 23 22  2  0
M  END
$$$$
