MTI.pdb
     RDKit          3D

 24 23  0  0  1  0  0  0  0  0999 V2000
   13.8738  -18.1986   22.3974 C   0  0  0  0  0  0  0  0  0  0  0  0
   14.4185  -18.7208   20.7332 S   0  0  0  0  0  0  0  0  0  0  0  0
   13.0374  -18.4455   19.5607 C   0  0  0  0  0  0  0  0  0  0  0  0
   11.8425  -17.9813   20.3479 C   0  0  0  0  0  0  0  0  0  0  0  0
   10.6352  -17.7596   19.4984 C   0  0  2  0  0  0  0  0  0  0  0  0
   10.9991  -17.5849   18.1278 N   0  0  0  0  0  0  0  0  0  0  0  0
    9.7403  -16.6953   20.0090 C   0  0  0  0  0  0  0  0  0  0  0  0
    9.6302  -15.6222   19.3621 O   0  0  0  0  0  0  0  0  0  0  0  0
    6.2718  -16.8413   20.1793 C   0  0  0  0  0  0  0  0  0  0  0  0
    6.6902  -16.4551   21.5763 C   0  0  1  0  0  0  0  0  0  0  0  0
    6.8257  -17.6379   22.3433 O   0  0  0  0  0  0  0  0  0  0  0  0
    8.0367  -15.7713   21.6437 C   0  0  2  0  0  0  0  0  0  0  0  0
    8.9892  -16.8219   21.2057 N   0  0  0  0  0  0  0  0  0  0  0  0
    8.4144  -15.3003   22.9786 C   0  0  0  0  0  0  0  0  0  0  0  0
    9.4943  -15.7333   23.4944 O   0  0  0  0  0  0  0  0  0  0  0  0
    7.0663  -10.9382   27.1693 C   0  0  0  0  0  0  0  0  0  0  0  0
    7.7918  -12.2512   26.8773 C   0  0  0  0  0  0  0  0  0  0  0  0
    7.3982  -12.7555   25.5178 C   0  0  2  0  0  0  0  0  0  0  0  0
    5.8965  -12.9931   25.5524 C   0  0  0  0  0  0  0  0  0  0  0  0
    8.1419  -13.9767   25.0906 C   0  0  2  0  0  0  0  0  0  0  0  0
    7.6674  -14.3895   23.7506 N   0  0  0  0  0  0  0  0  0  0  0  0
    7.8551  -15.0868   26.0095 C   0  0  0  0  0  0  0  0  0  0  0  0
    6.9867  -15.9501   25.7805 O   0  0  0  0  0  0  0  0  0  0  0  0
    8.5666  -15.2026   27.1889 O   0  0  0  0  0  0  0  0  0  0  0  0
  1  2  1  0
  2  3  1  0
  4  3  1  0
  5  7  1  0
  5  4  1  0
  5  6  1  6
  7  8  2  0
 10 12  1  0
 10  9  1  6
 11 10  1  0
 12 13  1  1
 13  7  1  0
 14 12  1  0
 15 14  2  0
 16 17  1  0
 17 18  1  0
 18 20  1  0
 18 19  1  1
 20 21  1  6
 20 22  1  0
 21 14  1  0
 22 24  1  0
 23 22  2  0
M  END
$$$$
