MTI.pdb
     RDKit          3D

 24 23  0  0  1  0  0  0  0  0999 V2000
    8.3170  -12.0225   20.5866 C   0  0  0  0  0  0  0  0  0  0  0  0
    7.8763  -12.4436   18.8640 S   0  0  0  0  0  0  0  0  0  0  0  0
    7.8750  -14.2685   18.6978 C   0  0  0  0  0  0  0  0  0  0  0  0
    9.0798  -14.8039   19.4222 C   0  0  0  0  0  0  0  0  0  0  0  0
    9.0637  -16.2900   19.5611 C   0  0  2  0  0  0  0  0  0  0  0  0
    8.2655  -16.8908   18.5396 N   0  0  0  0  0  0  0  0  0  0  0  0
    8.7179  -16.7527   20.9252 C   0  0  0  0  0  0  0  0  0  0  0  0
    7.9125  -17.7089   21.0641 O   0  0  0  0  0  0  0  0  0  0  0  0
    8.7632  -18.9154   22.3615 C   0  0  0  0  0  0  0  0  0  0  0  0
    9.3173  -18.0751   23.4852 C   0  0  1  0  0  0  0  0  0  0  0  0
   10.7266  -18.0288   23.3532 O   0  0  0  0  0  0  0  0  0  0  0  0
    8.8594  -16.6347   23.4540 C   0  0  2  0  0  0  0  0  0  0  0  0
    9.2534  -16.1677   22.1014 N   0  0  0  0  0  0  0  0  0  0  0  0
    9.4821  -15.7757   24.4642 C   0  0  0  0  0  0  0  0  0  0  0  0
   10.2897  -14.8703   24.0799 O   0  0  0  0  0  0  0  0  0  0  0  0
    6.7450  -12.3431   25.9499 C   0  0  0  0  0  0  0  0  0  0  0  0
    8.0106  -13.1555   25.6781 C   0  0  0  0  0  0  0  0  0  0  0  0
    8.4364  -13.8641   26.9327 C   0  0  2  0  0  0  0  0  0  0  0  0
    8.6928  -12.7918   27.9803 C   0  0  0  0  0  0  0  0  0  0  0  0
    9.6211  -14.7528   26.7492 C   0  0  2  0  0  0  0  0  0  0  0  0
    9.2542  -15.8706   25.8508 N   0  0  0  0  0  0  0  0  0  0  0  0
   10.0092  -15.3451   28.0366 C   0  0  0  0  0  0  0  0  0  0  0  0
    9.5199  -16.4053   28.4707 O   0  0  0  0  0  0  0  0  0  0  0  0
   10.9584  -14.7183   28.8220 O   0  0  0  0  0  0  0  0  0  0  0  0
  1  2  1  0
  2  3  1  0
  4  3  1  0
  5  7  1  0
  5  4  1  0
  5  6  1  6
  7  8  2  0
 10 12  1  0
 10  9  1  6
 11 10  1  0
 12 13  1  6
 13  7  1  0
 14 12  1  0
 15 14  2  0
 16 17  1  0
 17 18  1  0
 18 20  1  0
 18 19  1  1
 20 21  1  6
 20 22  1  0
 21 14  1  0
 22 24  1  0
 23 22  2  0
M  END
$$$$
