MTI.pdb
     RDKit          3D

 24 23  0  0  1  0  0  0  0  0999 V2000
    8.1867  -11.7042   20.1803 C   0  0  0  0  0  0  0  0  0  0  0  0
    8.4382  -12.2817   18.4651 S   0  0  0  0  0  0  0  0  0  0  0  0
    8.5412  -14.1112   18.4810 C   0  0  0  0  0  0  0  0  0  0  0  0
    8.3459  -14.5773   19.8978 C   0  0  0  0  0  0  0  0  0  0  0  0
    8.6209  -16.0337   20.0755 C   0  0  2  0  0  0  0  0  0  0  0  0
    7.9895  -16.8025   19.0500 N   0  0  0  0  0  0  0  0  0  0  0  0
    8.3326  -16.5275   21.4420 C   0  0  0  0  0  0  0  0  0  0  0  0
    7.1449  -16.7898   21.7628 O   0  0  0  0  0  0  0  0  0  0  0  0
    9.1040  -19.5329   22.9985 C   0  0  0  0  0  0  0  0  0  0  0  0
    9.6543  -18.4958   23.9458 C   0  0  1  0  0  0  0  0  0  0  0  0
   11.0223  -18.2949   23.6398 O   0  0  0  0  0  0  0  0  0  0  0  0
    9.0043  -17.1378   23.8095 C   0  0  2  0  0  0  0  0  0  0  0  0
    9.3376  -16.7237   22.4237 N   0  0  0  0  0  0  0  0  0  0  0  0
    9.4989  -16.1288   24.7494 C   0  0  0  0  0  0  0  0  0  0  0  0
   10.5248  -15.4476   24.4278 O   0  0  0  0  0  0  0  0  0  0  0  0
    6.7572  -12.2596   26.7964 C   0  0  0  0  0  0  0  0  0  0  0  0
    7.9360  -13.0733   26.2638 C   0  0  0  0  0  0  0  0  0  0  0  0
    8.5319  -13.8888   27.3761 C   0  0  2  0  0  0  0  0  0  0  0  0
    9.1045  -12.9067   28.3862 C   0  0  0  0  0  0  0  0  0  0  0  0
    9.5567  -14.8724   26.9185 C   0  0  2  0  0  0  0  0  0  0  0  0
    8.9202  -15.8448   26.0016 N   0  0  0  0  0  0  0  0  0  0  0  0
   10.0691  -15.6345   28.0655 C   0  0  0  0  0  0  0  0  0  0  0  0
    9.5438  -16.6897   28.4683 O   0  0  0  0  0  0  0  0  0  0  0  0
   11.1838  -15.1826   28.7468 O   0  0  0  0  0  0  0  0  0  0  0  0
  1  2  1  0
  2  3  1  0
  4  3  1  0
  5  7  1  0
  5  4  1  0
  5  6  1  6
  7  8  2  0
 10 12  1  0
 10  9  1  6
 11 10  1  0
 12 13  1  6
 13  7  1  0
 14 12  1  0
 15 14  2  0
 16 17  1  0
 17 18  1  0
 18 20  1  0
 18 19  1  1
 20 21  1  6
 20 22  1  0
 21 14  1  0
 22 24  1  0
 23 22  2  0
M  END
$$$$
