MTI.pdb
     RDKit          3D

 24 23  0  0  1  0  0  0  0  0999 V2000
    8.6558  -11.9012   19.7096 C   0  0  0  0  0  0  0  0  0  0  0  0
    8.3258  -12.4297   17.9919 S   0  0  0  0  0  0  0  0  0  0  0  0
    7.9993  -14.2328   17.9950 C   0  0  0  0  0  0  0  0  0  0  0  0
    9.2239  -14.9278   18.5244 C   0  0  0  0  0  0  0  0  0  0  0  0
    9.0224  -16.3936   18.7225 C   0  0  2  0  0  0  0  0  0  0  0  0
    8.3733  -16.9782   17.5918 N   0  0  0  0  0  0  0  0  0  0  0  0
    8.3760  -16.7328   20.0114 C   0  0  0  0  0  0  0  0  0  0  0  0
    7.4337  -17.5658   20.0260 O   0  0  0  0  0  0  0  0  0  0  0  0
    8.1841  -18.9402   21.4964 C   0  0  0  0  0  0  0  0  0  0  0  0
    8.6718  -18.0703   22.6283 C   0  0  1  0  0  0  0  0  0  0  0  0
   10.0858  -18.0164   22.5708 O   0  0  0  0  0  0  0  0  0  0  0  0
    8.2070  -16.6346   22.5394 C   0  0  2  0  0  0  0  0  0  0  0  0
    8.7674  -16.1608   21.2492 N   0  0  0  0  0  0  0  0  0  0  0  0
    8.6854  -15.7714   23.6221 C   0  0  0  0  0  0  0  0  0  0  0  0
    9.8407  -15.2475   23.5183 O   0  0  0  0  0  0  0  0  0  0  0  0
    6.2139  -11.4355   26.9512 C   0  0  0  0  0  0  0  0  0  0  0  0
    7.4407  -12.3428   26.8650 C   0  0  0  0  0  0  0  0  0  0  0  0
    7.1867  -13.4447   25.8757 C   0  0  2  0  0  0  0  0  0  0  0  0
    5.9797  -14.2210   26.3792 C   0  0  0  0  0  0  0  0  0  0  0  0
    8.3631  -14.3351   25.6519 C   0  0  2  0  0  0  0  0  0  0  0  0
    7.9573  -15.4671   24.7886 N   0  0  0  0  0  0  0  0  0  0  0  0
    8.8106  -14.9071   26.9292 C   0  0  0  0  0  0  0  0  0  0  0  0
    8.5561  -16.0764   27.2753 O   0  0  0  0  0  0  0  0  0  0  0  0
    9.5496  -14.1346   27.8055 O   0  0  0  0  0  0  0  0  0  0  0  0
  1  2  1  0
  2  3  1  0
  4  3  1  0
  5  7  1  0
  5  4  1  0
  5  6  1  6
  7  8  2  0
 10 12  1  0
 10  9  1  6
 11 10  1  0
 12 13  1  6
 13  7  1  0
 14 12  1  0
 15 14  2  0
 16 17  1  0
 17 18  1  0
 18 20  1  0
 18 19  1  1
 20 21  1  6
 20 22  1  0
 21 14  1  0
 22 24  1  0
 23 22  2  0
M  END
$$$$
