MTI.pdb
     RDKit          3D

 24 23  0  0  1  0  0  0  0  0999 V2000
    8.2333  -11.9734   19.7530 C   0  0  0  0  0  0  0  0  0  0  0  0
    8.3667  -12.7103   18.0862 S   0  0  0  0  0  0  0  0  0  0  0  0
    8.4245  -14.5333   18.2636 C   0  0  0  0  0  0  0  0  0  0  0  0
    7.8815  -14.8874   19.6211 C   0  0  0  0  0  0  0  0  0  0  0  0
    7.9559  -16.3489   19.9154 C   0  0  2  0  0  0  0  0  0  0  0  0
    7.3154  -17.1106   18.8901 N   0  0  0  0  0  0  0  0  0  0  0  0
    7.5006  -16.7012   21.2803 C   0  0  0  0  0  0  0  0  0  0  0  0
    6.4336  -17.3518   21.4235 O   0  0  0  0  0  0  0  0  0  0  0  0
    6.7645  -18.7839   22.7668 C   0  0  0  0  0  0  0  0  0  0  0  0
    7.6784  -18.1909   23.8104 C   0  0  1  0  0  0  0  0  0  0  0  0
    9.0040  -18.5993   23.5250 O   0  0  0  0  0  0  0  0  0  0  0  0
    7.7098  -16.6795   23.8071 C   0  0  2  0  0  0  0  0  0  0  0  0
    8.2127  -16.3393   22.4527 N   0  0  0  0  0  0  0  0  0  0  0  0
    8.5921  -16.0864   24.8151 C   0  0  0  0  0  0  0  0  0  0  0  0
    9.8179  -15.9083   24.5227 O   0  0  0  0  0  0  0  0  0  0  0  0
    6.4982  -11.8826   26.9333 C   0  0  0  0  0  0  0  0  0  0  0  0
    7.5128  -12.8468   26.3198 C   0  0  0  0  0  0  0  0  0  0  0  0
    8.1719  -13.6474   27.4072 C   0  0  2  0  0  0  0  0  0  0  0  0
    8.9702  -12.6687   28.2544 C   0  0  0  0  0  0  0  0  0  0  0  0
    9.0234  -14.7633   26.9008 C   0  0  2  0  0  0  0  0  0  0  0  0
    8.1867  -15.6886   26.1038 N   0  0  0  0  0  0  0  0  0  0  0  0
    9.5635  -15.5348   28.0285 C   0  0  0  0  0  0  0  0  0  0  0  0
    8.9984  -16.5429   28.4936 O   0  0  0  0  0  0  0  0  0  0  0  0
   10.7515  -15.1467   28.6191 O   0  0  0  0  0  0  0  0  0  0  0  0
  1  2  1  0
  2  3  1  0
  4  3  1  0
  5  7  1  0
  5  4  1  0
  5  6  1  6
  7  8  2  0
 10 12  1  0
 10  9  1  6
 11 10  1  0
 12 13  1  6
 13  7  1  0
 14 12  1  0
 15 14  2  0
 16 17  1  0
 17 18  1  0
 18 20  1  0
 18 19  1  6
 20 21  1  6
 20 22  1  0
 21 14  1  0
 22 24  1  0
 23 22  2  0
M  END
$$$$
