TIP.pdb
     RDKit          3D

 23 23  0  0  1  0  0  0  0  0999 V2000
    7.7806  -17.7358   22.3829 C   0  0  0  0  0  0  0  0  0  0  0  0
    8.8688  -17.0620   21.5482 C   0  0  1  0  0  0  0  0  0  0  0  0
    8.8988  -17.5401   20.2570 O   0  0  0  0  0  0  0  0  0  0  0  0
    8.5992  -15.5738   21.6173 C   0  0  2  0  0  0  0  0  0  0  0  0
    9.2420  -14.8854   20.5148 N   0  0  0  0  0  0  0  0  0  0  0  0
    9.0062  -14.9978   22.9249 C   0  0  0  0  0  0  0  0  0  0  0  0
   10.2116  -14.6843   23.0902 O   0  0  0  0  0  0  0  0  0  0  0  0
    5.6246  -11.9166   25.6096 C   0  0  0  0  0  0  0  0  0  0  0  0
    6.9007  -12.5807   25.1416 C   0  0  0  0  0  0  0  0  0  0  0  0
    7.2123  -13.8283   25.9029 C   0  0  2  0  0  0  0  0  0  0  0  0
    7.1215  -13.7460   27.3719 C   0  0  0  0  0  0  0  0  0  0  0  0
    8.5092  -14.4074   25.3439 C   0  0  2  0  0  0  0  0  0  0  0  0
    8.0956  -14.7962   23.9679 N   0  0  0  0  0  0  0  0  0  0  0  0
    8.9894  -15.5786   26.0754 C   0  0  0  0  0  0  0  0  0  0  0  0
    8.6430  -16.7152   25.5981 O   0  0  0  0  0  0  0  0  0  0  0  0
    9.7907  -15.5596   27.2390 N   0  0  0  0  0  0  0  0  0  0  0  0
    9.7293  -14.4858   28.2550 C   0  0  0  0  0  0  0  0  0  0  0  0
   11.1600  -14.3409   28.7345 C   0  0  0  0  0  0  0  0  0  0  0  0
   11.9280  -15.4977   28.1075 C   0  0  0  0  0  0  0  0  0  0  0  0
   10.8000  -16.4401   27.7582 C   0  0  1  0  0  0  0  0  0  0  0  0
   10.3287  -17.1646   28.9782 C   0  0  0  0  0  0  0  0  0  0  0  0
    9.2506  -16.8983   29.5119 O   0  0  0  0  0  0  0  0  0  0  0  0
   11.1376  -18.1532   29.5032 O   0  0  0  0  0  0  0  0  0  0  0  0
  2  1  1  1
  2  3  1  0
  4  5  1  6
  4  6  1  0
  4  2  1  0
  6  7  2  0
  9 10  1  0
  9  8  1  0
 10 12  1  0
 10 11  1  1
 12 14  1  0
 12 13  1  6
 13  6  1  0
 14 15  2  0
 14 16  1  0
 16 20  1  0
 16 17  1  0
 17 18  1  0
 19 18  1  0
 20 19  1  0
 21 23  1  0
 20 21  1  1
 22 21  2  0
M  END
$$$$
