TIP.pdb
     RDKit          3D

 23 23  0  0  1  0  0  0  0  0999 V2000
    7.3443  -17.2319   22.4575 C   0  0  0  0  0  0  0  0  0  0  0  0
    8.1564  -16.4762   21.4067 C   0  0  1  0  0  0  0  0  0  0  0  0
    7.8514  -16.8844   20.1272 O   0  0  0  0  0  0  0  0  0  0  0  0
    7.8838  -15.0045   21.6342 C   0  0  2  0  0  0  0  0  0  0  0  0
    8.3535  -14.2172   20.5108 N   0  0  0  0  0  0  0  0  0  0  0  0
    8.4689  -14.5245   22.9127 C   0  0  0  0  0  0  0  0  0  0  0  0
    9.6907  -14.2323   22.9378 O   0  0  0  0  0  0  0  0  0  0  0  0
    5.4545  -11.6253   26.0103 C   0  0  0  0  0  0  0  0  0  0  0  0
    6.6670  -12.2852   25.3916 C   0  0  0  0  0  0  0  0  0  0  0  0
    7.1174  -13.4896   26.1530 C   0  0  2  0  0  0  0  0  0  0  0  0
    7.2801  -13.3281   27.6091 C   0  0  0  0  0  0  0  0  0  0  0  0
    8.3043  -14.0973   25.4102 C   0  0  2  0  0  0  0  0  0  0  0  0
    7.7071  -14.3895   24.0785 N   0  0  0  0  0  0  0  0  0  0  0  0
    8.8061  -15.3285   26.0184 C   0  0  0  0  0  0  0  0  0  0  0  0
    8.3203  -16.4184   25.5540 O   0  0  0  0  0  0  0  0  0  0  0  0
    9.7658  -15.4126   27.0520 N   0  0  0  0  0  0  0  0  0  0  0  0
    9.9351  -14.3769   28.0949 C   0  0  0  0  0  0  0  0  0  0  0  0
   11.4269  -14.3551   28.3632 C   0  0  0  0  0  0  0  0  0  0  0  0
   12.0042  -15.5399   27.5990 C   0  0  0  0  0  0  0  0  0  0  0  0
   10.7679  -16.3835   27.3933 C   0  0  1  0  0  0  0  0  0  0  0  0
   10.4225  -17.1179   28.6490 C   0  0  0  0  0  0  0  0  0  0  0  0
   11.1180  -18.0445   29.0679 O   0  0  0  0  0  0  0  0  0  0  0  0
    9.2913  -16.7315   29.3407 O   0  0  0  0  0  0  0  0  0  0  0  0
  2  1  1  1
  2  3  1  0
  4  5  1  6
  4  6  1  0
  4  2  1  0
  6  7  2  0
  9 10  1  0
  9  8  1  0
 10 12  1  0
 10 11  1  1
 12 14  1  0
 12 13  1  6
 13  6  1  0
 14 15  2  0
 14 16  1  0
 16 20  1  0
 16 17  1  0
 17 18  1  0
 19 18  1  0
 20 19  1  0
 21 23  1  0
 20 21  1  1
 22 21  2  0
M  END
$$$$
