TIP.pdb
     RDKit          3D

 23 23  0  0  1  0  0  0  0  0999 V2000
    7.3195  -17.0804   20.1423 C   0  0  0  0  0  0  0  0  0  0  0  0
    8.0448  -16.6950   21.4308 C   0  0  1  0  0  0  0  0  0  0  0  0
    9.2986  -17.2598   21.5058 O   0  0  0  0  0  0  0  0  0  0  0  0
    8.0794  -15.1817   21.4645 C   0  0  2  0  0  0  0  0  0  0  0  0
    8.8120  -14.6611   20.3266 N   0  0  0  0  0  0  0  0  0  0  0  0
    8.6334  -14.6693   22.7442 C   0  0  0  0  0  0  0  0  0  0  0  0
    9.8431  -14.3315   22.7786 O   0  0  0  0  0  0  0  0  0  0  0  0
    5.5472  -11.8218   26.0207 C   0  0  0  0  0  0  0  0  0  0  0  0
    6.8016  -12.3893   25.3940 C   0  0  0  0  0  0  0  0  0  0  0  0
    7.1886  -13.7100   25.9764 C   0  0  2  0  0  0  0  0  0  0  0  0
    7.2425  -13.7933   27.4471 C   0  0  0  0  0  0  0  0  0  0  0  0
    8.4252  -14.2067   25.2321 C   0  0  2  0  0  0  0  0  0  0  0  0
    7.8555  -14.5529   23.9013 N   0  0  0  0  0  0  0  0  0  0  0  0
    9.0385  -15.3864   25.8400 C   0  0  0  0  0  0  0  0  0  0  0  0
    8.8971  -16.4836   25.1952 O   0  0  0  0  0  0  0  0  0  0  0  0
    9.7627  -15.4138   27.0530 N   0  0  0  0  0  0  0  0  0  0  0  0
    9.5539  -14.4437   28.1503 C   0  0  0  0  0  0  0  0  0  0  0  0
   10.9364  -14.2378   28.7371 C   0  0  0  0  0  0  0  0  0  0  0  0
   11.8308  -15.2736   28.0675 C   0  0  0  0  0  0  0  0  0  0  0  0
   10.8047  -16.2610   27.5627 C   0  0  1  0  0  0  0  0  0  0  0  0
   10.3181  -17.1254   28.6814 C   0  0  0  0  0  0  0  0  0  0  0  0
    9.1879  -16.9951   29.1543 O   0  0  0  0  0  0  0  0  0  0  0  0
   11.1732  -18.0875   29.1819 O   0  0  0  0  0  0  0  0  0  0  0  0
  2  1  1  6
  2  3  1  0
  4  5  1  6
  4  6  1  0
  4  2  1  0
  6  7  2  0
  9 10  1  0
  9  8  1  0
 10 12  1  0
 10 11  1  1
 12 14  1  0
 12 13  1  6
 13  6  1  0
 14 15  2  0
 14 16  1  0
 16 20  1  0
 16 17  1  0
 17 18  1  0
 19 18  1  0
 20 19  1  0
 21 23  1  0
 20 21  1  1
 22 21  2  0
M  END
$$$$
