TIP.pdb
     RDKit          3D

 23 23  0  0  1  0  0  0  0  0999 V2000
    6.1978  -14.3352   18.8103 C   0  0  0  0  0  0  0  0  0  0  0  0
    7.0083  -14.6569   20.0650 C   0  0  1  0  0  0  0  0  0  0  0  0
    8.0924  -15.4595   19.7872 O   0  0  0  0  0  0  0  0  0  0  0  0
    7.4025  -13.3265   20.6708 C   0  0  2  0  0  0  0  0  0  0  0  0
    8.2731  -12.5930   19.7728 N   0  0  0  0  0  0  0  0  0  0  0  0
    8.0231  -13.4909   22.0107 C   0  0  0  0  0  0  0  0  0  0  0  0
    9.2768  -13.4776   22.0939 O   0  0  0  0  0  0  0  0  0  0  0  0
    5.7887  -11.2096   26.1160 C   0  0  0  0  0  0  0  0  0  0  0  0
    6.7498  -11.9187   25.1877 C   0  0  0  0  0  0  0  0  0  0  0  0
    6.8262  -13.3876   25.4518 C   0  0  2  0  0  0  0  0  0  0  0  0
    6.9385  -13.8004   26.8624 C   0  0  0  0  0  0  0  0  0  0  0  0
    7.8566  -13.9831   24.4960 C   0  0  2  0  0  0  0  0  0  0  0  0
    7.2602  -13.6584   23.1715 N   0  0  0  0  0  0  0  0  0  0  0  0
    8.0160  -15.4297   24.6358 C   0  0  0  0  0  0  0  0  0  0  0  0
    6.9951  -16.1363   24.3229 O   0  0  0  0  0  0  0  0  0  0  0  0
    9.1810  -16.0979   25.0748 N   0  0  0  0  0  0  0  0  0  0  0  0
   10.3873  -15.3972   25.5674 C   0  0  0  0  0  0  0  0  0  0  0  0
   11.5415  -16.2550   25.0877 C   0  0  0  0  0  0  0  0  0  0  0  0
   10.9113  -17.5214   24.5219 C   0  0  0  0  0  0  0  0  0  0  0  0
    9.5481  -17.4833   25.1720 C   0  0  1  0  0  0  0  0  0  0  0  0
    9.6357  -17.9345   26.5948 C   0  0  0  0  0  0  0  0  0  0  0  0
    9.6005  -17.1334   27.5301 O   0  0  0  0  0  0  0  0  0  0  0  0
    9.7587  -19.2873   26.8438 O   0  0  0  0  0  0  0  0  0  0  0  0
  2  1  1  6
  2  3  1  0
  4  5  1  6
  4  6  1  0
  4  2  1  0
  6  7  2  0
  9 10  1  0
  9  8  1  0
 10 12  1  0
 10 11  1  1
 12 14  1  0
 12 13  1  6
 13  6  1  0
 14 15  2  0
 14 16  1  0
 16 20  1  0
 16 17  1  0
 17 18  1  0
 19 18  1  0
 20 19  1  0
 21 23  1  0
 20 21  1  1
 22 21  2  0
M  END
$$$$
