TIP.pdb
     RDKit          3D

 23 23  0  0  1  0  0  0  0  0999 V2000
    6.7505  -17.5971   23.1404 C   0  0  0  0  0  0  0  0  0  0  0  0
    7.4845  -17.0895   21.9002 C   0  0  1  0  0  0  0  0  0  0  0  0
    6.9113  -17.5515   20.7362 O   0  0  0  0  0  0  0  0  0  0  0  0
    7.4864  -15.5785   21.9942 C   0  0  2  0  0  0  0  0  0  0  0  0
    7.9019  -14.9878   20.7369 N   0  0  0  0  0  0  0  0  0  0  0  0
    8.3250  -15.0953   23.1215 C   0  0  0  0  0  0  0  0  0  0  0  0
    9.5600  -14.9621   22.9327 O   0  0  0  0  0  0  0  0  0  0  0  0
    6.0632  -11.7531   26.1916 C   0  0  0  0  0  0  0  0  0  0  0  0
    7.0866  -12.6227   25.4954 C   0  0  0  0  0  0  0  0  0  0  0  0
    7.6945  -13.6381   26.4080 C   0  0  2  0  0  0  0  0  0  0  0  0
    8.2466  -13.1373   27.6796 C   0  0  0  0  0  0  0  0  0  0  0  0
    8.6223  -14.5201   25.5766 C   0  0  2  0  0  0  0  0  0  0  0  0
    7.7854  -14.7873   24.3751 N   0  0  0  0  0  0  0  0  0  0  0  0
    8.9770  -15.7773   26.2333 C   0  0  0  0  0  0  0  0  0  0  0  0
    8.0676  -16.6788   26.2408 O   0  0  0  0  0  0  0  0  0  0  0  0
   10.2161  -16.0743   26.8439 N   0  0  0  0  0  0  0  0  0  0  0  0
   11.2234  -15.0468   27.1884 C   0  0  0  0  0  0  0  0  0  0  0  0
   12.5545  -15.7317   26.9498 C   0  0  0  0  0  0  0  0  0  0  0  0
   12.2269  -17.1949   26.6800 C   0  0  0  0  0  0  0  0  0  0  0  0
   10.8399  -17.2959   27.2703 C   0  0  1  0  0  0  0  0  0  0  0  0
   10.9128  -17.3897   28.7607 C   0  0  0  0  0  0  0  0  0  0  0  0
   11.3065  -18.4114   29.3255 O   0  0  0  0  0  0  0  0  0  0  0  0
   10.5242  -16.2920   29.5033 O   0  0  0  0  0  0  0  0  0  0  0  0
  2  1  1  1
  2  3  1  0
  4  5  1  6
  4  6  1  0
  4  2  1  0
  6  7  2  0
  9 10  1  0
  9  8  1  0
 10 12  1  0
 10 11  1  1
 12 14  1  0
 12 13  1  6
 13  6  1  0
 14 15  2  0
 14 16  1  0
 16 20  1  0
 16 17  1  0
 17 18  1  0
 19 18  1  0
 20 19  1  0
 21 23  1  0
 20 21  1  1
 22 21  2  0
M  END
$$$$
