TIP.pdb
     RDKit          3D

 23 23  0  0  1  0  0  0  0  0999 V2000
    8.2920  -19.8759   28.0700 C   0  0  0  0  0  0  0  0  0  0  0  0
    8.1791  -18.9034   26.8969 C   0  0  1  0  0  0  0  0  0  0  0  0
    8.6283  -19.4602   25.7201 O   0  0  0  0  0  0  0  0  0  0  0  0
    6.7264  -18.4823   26.8302 C   0  0  2  0  0  0  0  0  0  0  0  0
    5.8777  -19.6177   26.5254 N   0  0  0  0  0  0  0  0  0  0  0  0
    6.5151  -17.3746   25.8629 C   0  0  0  0  0  0  0  0  0  0  0  0
    5.9164  -17.6270   24.7874 O   0  0  0  0  0  0  0  0  0  0  0  0
    6.4893  -12.2641   27.5138 C   0  0  0  0  0  0  0  0  0  0  0  0
    6.2808  -13.4587   26.6096 C   0  0  0  0  0  0  0  0  0  0  0  0
    7.5091  -13.8166   25.8373 C   0  0  2  0  0  0  0  0  0  0  0  0
    8.1695  -12.7228   25.1022 C   0  0  0  0  0  0  0  0  0  0  0  0
    7.2060  -15.0771   25.0316 C   0  0  2  0  0  0  0  0  0  0  0  0
    6.9590  -16.0712   26.1115 N   0  0  0  0  0  0  0  0  0  0  0  0
    8.3184  -15.5139   24.1894 C   0  0  0  0  0  0  0  0  0  0  0  0
    9.1822  -16.2715   24.7547 O   0  0  0  0  0  0  0  0  0  0  0  0
    8.5121  -15.1791   22.8304 N   0  0  0  0  0  0  0  0  0  0  0  0
    8.0558  -13.9060   22.2304 C   0  0  0  0  0  0  0  0  0  0  0  0
    7.6404  -14.2829   20.8220 C   0  0  0  0  0  0  0  0  0  0  0  0
    8.0852  -15.7272   20.6297 C   0  0  0  0  0  0  0  0  0  0  0  0
    9.1205  -15.8605   21.7219 C   0  0  1  0  0  0  0  0  0  0  0  0
   10.4020  -15.2108   21.3081 C   0  0  0  0  0  0  0  0  0  0  0  0
   10.6777  -14.0566   21.6392 O   0  0  0  0  0  0  0  0  0  0  0  0
   11.2839  -15.9409   20.5359 O   0  0  0  0  0  0  0  0  0  0  0  0
  2  1  1  1
  2  3  1  0
  4  5  1  6
  4  6  1  0
  4  2  1  0
  6  7  2  0
  9 10  1  0
  9  8  1  0
 10 12  1  0
 10 11  1  6
 12 14  1  0
 12 13  1  1
 13  6  1  0
 14 15  2  0
 14 16  1  0
 16 20  1  0
 16 17  1  0
 17 18  1  0
 19 18  1  0
 20 19  1  0
 21 23  1  0
 20 21  1  6
 22 21  2  0
M  END
$$$$
