TIP.pdb
     RDKit          3D

 23 23  0  0  1  0  0  0  0  0999 V2000
    7.7755  -20.2385   26.8935 C   0  0  0  0  0  0  0  0  0  0  0  0
    7.7675  -19.0710   25.9078 C   0  0  1  0  0  0  0  0  0  0  0  0
    8.2464  -19.4378   24.6698 O   0  0  0  0  0  0  0  0  0  0  0  0
    6.3418  -18.5637   25.8592 C   0  0  2  0  0  0  0  0  0  0  0  0
    5.4515  -19.5871   25.3470 N   0  0  0  0  0  0  0  0  0  0  0  0
    6.2282  -17.3069   25.0751 C   0  0  0  0  0  0  0  0  0  0  0  0
    5.7118  -17.3614   23.9309 O   0  0  0  0  0  0  0  0  0  0  0  0
    6.3268  -12.5637   27.5821 C   0  0  0  0  0  0  0  0  0  0  0  0
    6.1326  -13.6070   26.5041 C   0  0  0  0  0  0  0  0  0  0  0  0
    7.3745  -13.8508   25.7095 C   0  0  2  0  0  0  0  0  0  0  0  0
    8.0736  -12.6598   25.1940 C   0  0  0  0  0  0  0  0  0  0  0  0
    7.0706  -14.9432   24.6876 C   0  0  2  0  0  0  0  0  0  0  0  0
    6.6749  -16.0761   25.5682 N   0  0  0  0  0  0  0  0  0  0  0  0
    8.2248  -15.3181   23.8723 C   0  0  0  0  0  0  0  0  0  0  0  0
    9.0252  -16.1693   24.3963 O   0  0  0  0  0  0  0  0  0  0  0  0
    8.5211  -14.8316   22.5792 N   0  0  0  0  0  0  0  0  0  0  0  0
    8.0647  -13.5167   22.0774 C   0  0  0  0  0  0  0  0  0  0  0  0
    7.7892  -13.7521   20.6055 C   0  0  0  0  0  0  0  0  0  0  0  0
    8.3098  -15.1516   20.3035 C   0  0  0  0  0  0  0  0  0  0  0  0
    9.2514  -15.3684   21.4649 C   0  0  1  0  0  0  0  0  0  0  0  0
   10.5352  -14.6358   21.2395 C   0  0  0  0  0  0  0  0  0  0  0  0
   10.7543  -13.5407   21.7596 O   0  0  0  0  0  0  0  0  0  0  0  0
   11.4851  -15.2196   20.4245 O   0  0  0  0  0  0  0  0  0  0  0  0
  2  1  1  1
  2  3  1  0
  4  5  1  6
  4  6  1  0
  4  2  1  0
  6  7  2  0
  9 10  1  0
  9  8  1  0
 10 12  1  0
 10 11  1  6
 12 14  1  0
 12 13  1  1
 13  6  1  0
 14 15  2  0
 14 16  1  0
 16 20  1  0
 16 17  1  0
 17 18  1  0
 19 18  1  0
 20 19  1  0
 21 23  1  0
 20 21  1  6
 22 21  2  0
M  END
$$$$
