TIP.pdb
     RDKit          3D

 23 23  0  0  1  0  0  0  0  0999 V2000
    8.1317  -17.8095   20.3518 C   0  0  0  0  0  0  0  0  0  0  0  0
    8.7281  -17.2515   21.6432 C   0  0  1  0  0  0  0  0  0  0  0  0
    9.9951  -17.7373   21.8784 O   0  0  0  0  0  0  0  0  0  0  0  0
    8.6923  -15.7435   21.5128 C   0  0  2  0  0  0  0  0  0  0  0  0
    9.5306  -15.3047   20.4141 N   0  0  0  0  0  0  0  0  0  0  0  0
    9.0683  -15.0693   22.7822 C   0  0  0  0  0  0  0  0  0  0  0  0
   10.2441  -14.6443   22.9071 O   0  0  0  0  0  0  0  0  0  0  0  0
    5.5674  -12.0843   25.4014 C   0  0  0  0  0  0  0  0  0  0  0  0
    6.8931  -12.6750   24.9746 C   0  0  0  0  0  0  0  0  0  0  0  0
    7.2480  -13.9065   25.7433 C   0  0  2  0  0  0  0  0  0  0  0  0
    7.1503  -13.8200   27.2116 C   0  0  0  0  0  0  0  0  0  0  0  0
    8.5666  -14.4407   25.1905 C   0  0  2  0  0  0  0  0  0  0  0  0
    8.1606  -14.8952   23.8326 N   0  0  0  0  0  0  0  0  0  0  0  0
    9.1096  -15.5620   25.9557 C   0  0  0  0  0  0  0  0  0  0  0  0
    8.9374  -16.7227   25.4431 O   0  0  0  0  0  0  0  0  0  0  0  0
    9.7976  -15.4714   27.1865 N   0  0  0  0  0  0  0  0  0  0  0  0
    9.5116  -14.4397   28.2076 C   0  0  0  0  0  0  0  0  0  0  0  0
   10.8650  -14.1279   28.8151 C   0  0  0  0  0  0  0  0  0  0  0  0
   11.8258  -15.1628   28.2435 C   0  0  0  0  0  0  0  0  0  0  0  0
   10.8620  -16.2306   27.7817 C   0  0  1  0  0  0  0  0  0  0  0  0
   10.3826  -17.0389   28.9445 C   0  0  0  0  0  0  0  0  0  0  0  0
   11.1325  -17.8044   29.5525 O   0  0  0  0  0  0  0  0  0  0  0  0
    9.0628  -16.9087   29.3298 O   0  0  0  0  0  0  0  0  0  0  0  0
  2  1  1  6
  2  3  1  0
  4  5  1  6
  4  6  1  0
  4  2  1  0
  6  7  2  0
  9 10  1  0
  9  8  1  0
 10 12  1  0
 10 11  1  1
 12 14  1  0
 12 13  1  6
 13  6  1  0
 14 15  2  0
 14 16  1  0
 16 20  1  0
 16 17  1  0
 17 18  1  0
 19 18  1  0
 20 19  1  0
 21 23  1  0
 20 21  1  1
 22 21  2  0
M  END
$$$$
