FWR.pdb
     RDKit          3D

 37 39  0  0  1  0  0  0  0  0999 V2000
    7.4575  -16.0703   21.2178 N   0  0  0  0  0  0  0  0  0  0  0  0
    8.6395  -15.2573   21.1459 C   0  0  1  0  0  0  0  0  0  0  0  0
    8.3720  -13.7959   20.8838 C   0  0  0  0  0  0  0  0  0  0  0  0
    7.8895  -13.5474   19.5050 C   0  0  0  0  0  0  0  0  0  0  0  0
    6.8971  -12.6315   19.3085 C   0  0  0  0  0  0  0  0  0  0  0  0
    6.4366  -12.3926   18.0107 C   0  0  0  0  0  0  0  0  0  0  0  0
    7.0042  -13.0940   16.9721 C   0  0  0  0  0  0  0  0  0  0  0  0
    8.0025  -14.0112   17.1966 C   0  0  0  0  0  0  0  0  0  0  0  0
    8.4585  -14.2486   18.4767 C   0  0  0  0  0  0  0  0  0  0  0  0
    9.3865  -15.3526   22.4247 C   0  0  0  0  0  0  0  0  0  0  0  0
   10.3898  -14.6161   22.5741 O   0  0  0  0  0  0  0  0  0  0  0  0
    9.0250  -16.2260   23.4705 N   0  0  0  0  0  0  0  0  0  0  0  0
    9.8033  -16.2720   24.6632 C   0  0  1  0  0  0  0  0  0  0  0  0
    9.0665  -16.2369   25.9490 C   0  0  0  0  0  0  0  0  0  0  0  0
    7.8000  -15.5116   25.9682 C   0  0  0  0  0  0  0  0  0  0  0  0
    6.5384  -15.9701   25.6983 C   0  0  0  0  0  0  0  0  0  0  0  0
    5.6858  -14.9301   25.8400 N   0  0  0  0  0  0  0  0  0  0  0  0
    6.3438  -13.8138   26.1909 C   0  0  0  0  0  0  0  0  0  0  0  0
    5.9884  -12.5223   26.4544 C   0  0  0  0  0  0  0  0  0  0  0  0
    6.9482  -11.5992   26.7960 C   0  0  0  0  0  0  0  0  0  0  0  0
    8.2806  -11.9328   26.8846 C   0  0  0  0  0  0  0  0  0  0  0  0
    8.6400  -13.2337   26.6194 C   0  0  0  0  0  0  0  0  0  0  0  0
    7.6842  -14.1692   26.2753 C   0  0  0  0  0  0  0  0  0  0  0  0
   10.5191  -17.6052   24.6301 C   0  0  0  0  0  0  0  0  0  0  0  0
   10.0878  -18.4909   23.8452 O   0  0  0  0  0  0  0  0  0  0  0  0
   12.3292  -14.2686   19.7621 N   0  0  0  0  0  0  0  0  0  0  0  0
   13.3224  -15.1207   20.3024 C   0  0  0  0  0  0  0  0  0  0  0  0
   14.5517  -14.7498   20.3600 N   0  0  0  0  0  0  0  0  0  0  0  0
   12.9504  -16.4030   20.7815 N   0  0  0  0  0  0  0  0  0  0  0  0
   13.9515  -17.2804   21.3587 C   0  0  0  0  0  0  0  0  0  0  0  0
   13.3464  -18.1392   22.4334 C   0  0  0  0  0  0  0  0  0  0  0  0
   13.4143  -17.5580   23.7912 C   0  0  0  0  0  0  0  0  0  0  0  0
   12.8959  -18.4300   24.8862 C   0  0  2  0  0  0  0  0  0  0  0  0
   11.6316  -17.8998   25.4280 N   0  0  0  0  0  0  0  0  0  0  0  0
   13.8211  -18.5466   26.0279 C   0  0  0  0  0  0  0  0  0  0  0  0
   13.6268  -17.8786   27.0557 O   0  0  0  0  0  0  0  0  0  0  0  0
   14.9011  -19.3932   25.9615 O   0  0  0  0  0  0  0  0  0  0  0  0
  2  1  1  1
  2  3  1  0
  3  4  1  0
  4  5  2  0
  5  6  1  0
  7  6  2  0
  8  7  1  0
  9  4  1  0
  9  8  2  0
 10 11  2  0
 10  2  1  0
 12 10  1  0
 13 12  1  0
 13 14  1  1
 15 16  2  0
 15 14  1  0
 17 16  1  0
 18 23  2  0
 18 17  1  0
 19 18  1  0
 20 19  2  0
 20 21  1  0
 21 22  2  0
 22 23  1  0
 23 15  1  0
 24 25  2  0
 24 13  1  0
 27 26  1  0
 27 28  2  0
 29 30  1  0
 29 27  1  0
 31 30  1  0
 32 31  1  0
 33 34  1  0
 33 32  1  6
 34 24  1  0
 35 33  1  0
 36 35  2  0
 37 35  1  0
M  END
$$$$
