FWR.pdb
     RDKit          3D

 37 39  0  0  1  0  0  0  0  0999 V2000
    8.7108  -16.3239   21.2399 N   0  0  0  0  0  0  0  0  0  0  0  0
    9.5045  -15.2277   21.7211 C   0  0  1  0  0  0  0  0  0  0  0  0
    8.7975  -13.8952   21.7031 C   0  0  0  0  0  0  0  0  0  0  0  0
    8.3193  -13.5266   20.3500 C   0  0  0  0  0  0  0  0  0  0  0  0
    7.0273  -13.8031   20.0089 C   0  0  0  0  0  0  0  0  0  0  0  0
    6.5697  -13.4589   18.7340 C   0  0  0  0  0  0  0  0  0  0  0  0
    7.4442  -12.8499   17.8637 C   0  0  0  0  0  0  0  0  0  0  0  0
    8.7409  -12.5822   18.2317 C   0  0  0  0  0  0  0  0  0  0  0  0
    9.1946  -12.9211   19.4896 C   0  0  0  0  0  0  0  0  0  0  0  0
    9.9220  -15.4934   23.1203 C   0  0  0  0  0  0  0  0  0  0  0  0
   10.8417  -14.7905   23.6013 O   0  0  0  0  0  0  0  0  0  0  0  0
    9.3387  -16.4914   23.9272 N   0  0  0  0  0  0  0  0  0  0  0  0
    9.6523  -16.5604   25.3154 C   0  0  1  0  0  0  0  0  0  0  0  0
    8.5204  -16.4549   26.2668 C   0  0  0  0  0  0  0  0  0  0  0  0
    7.5568  -15.3834   26.0352 C   0  0  0  0  0  0  0  0  0  0  0  0
    6.2969  -15.4553   25.5041 C   0  0  0  0  0  0  0  0  0  0  0  0
    5.7896  -14.2020   25.4823 N   0  0  0  0  0  0  0  0  0  0  0  0
    6.6705  -13.3185   25.9779 C   0  0  0  0  0  0  0  0  0  0  0  0
    6.6782  -11.9687   26.1816 C   0  0  0  0  0  0  0  0  0  0  0  0
    7.7835  -11.3601   26.7274 C   0  0  0  0  0  0  0  0  0  0  0  0
    8.9056  -12.0729   27.0840 C   0  0  0  0  0  0  0  0  0  0  0  0
    8.8992  -13.4330   26.8793 C   0  0  0  0  0  0  0  0  0  0  0  0
    7.7943  -14.0547   26.3316 C   0  0  0  0  0  0  0  0  0  0  0  0
   10.2492  -17.9348   25.5294 C   0  0  0  0  0  0  0  0  0  0  0  0
    9.4781  -18.9298   25.4857 O   0  0  0  0  0  0  0  0  0  0  0  0
   17.4669  -21.8938   23.3738 N   0  0  0  0  0  0  0  0  0  0  0  0
   16.1130  -21.7701   22.9790 C   0  0  0  0  0  0  0  0  0  0  0  0
   15.7417  -22.0729   21.7864 N   0  0  0  0  0  0  0  0  0  0  0  0
   15.1574  -21.3002   23.9162 N   0  0  0  0  0  0  0  0  0  0  0  0
   15.5624  -20.9989   25.2765 C   0  0  0  0  0  0  0  0  0  0  0  0
   14.3610  -20.7384   26.1411 C   0  0  0  0  0  0  0  0  0  0  0  0
   13.6740  -19.4589   25.8638 C   0  0  0  0  0  0  0  0  0  0  0  0
   12.1878  -19.4892   25.9991 C   0  0  2  0  0  0  0  0  0  0  0  0
   11.6109  -18.1514   25.7742 N   0  0  0  0  0  0  0  0  0  0  0  0
   11.7310  -19.9202   27.3327 C   0  0  0  0  0  0  0  0  0  0  0  0
   11.0851  -19.1402   28.0502 O   0  0  0  0  0  0  0  0  0  0  0  0
   12.0167  -21.1844   27.7884 O   0  0  0  0  0  0  0  0  0  0  0  0
  2  1  1  1
  2  3  1  0
  3  4  1  0
  4  5  2  0
  5  6  1  0
  7  6  2  0
  8  7  1  0
  9  4  1  0
  9  8  2  0
 10 11  2  0
 10  2  1  0
 12 10  1  0
 13 12  1  0
 13 14  1  1
 15 16  2  0
 15 14  1  0
 17 16  1  0
 18 23  2  0
 18 17  1  0
 19 18  1  0
 20 19  2  0
 20 21  1  0
 21 22  2  0
 22 23  1  0
 23 15  1  0
 24 25  2  0
 24 13  1  0
 27 26  1  0
 27 28  2  0
 29 30  1  0
 29 27  1  0
 31 30  1  0
 32 31  1  0
 33 34  1  0
 33 32  1  1
 34 24  1  0
 35 33  1  0
 36 35  2  0
 37 35  1  0
M  END
$$$$
