FWR.pdb
     RDKit          3D

 37 39  0  0  1  0  0  0  0  0999 V2000
    8.9664  -16.1179   18.7155 N   0  0  0  0  0  0  0  0  0  0  0  0
    9.8871  -15.1116   19.1661 C   0  0  1  0  0  0  0  0  0  0  0  0
    9.8139  -13.8153   18.3979 C   0  0  0  0  0  0  0  0  0  0  0  0
    9.2237  -13.9890   17.0499 C   0  0  0  0  0  0  0  0  0  0  0  0
    9.9931  -14.5213   16.0565 C   0  0  0  0  0  0  0  0  0  0  0  0
    9.4431  -14.6873   14.7824 C   0  0  0  0  0  0  0  0  0  0  0  0
    8.1377  -14.3055   14.5749 C   0  0  0  0  0  0  0  0  0  0  0  0
    7.3838  -13.7718   15.5923 C   0  0  0  0  0  0  0  0  0  0  0  0
    7.9247  -13.6071   16.8506 C   0  0  0  0  0  0  0  0  0  0  0  0
    9.6240  -14.8009   20.5933 C   0  0  0  0  0  0  0  0  0  0  0  0
    9.7485  -13.6108   20.9669 O   0  0  0  0  0  0  0  0  0  0  0  0
    9.2449  -15.7729   21.5412 N   0  0  0  0  0  0  0  0  0  0  0  0
    8.9610  -15.3882   22.8835 C   0  0  1  0  0  0  0  0  0  0  0  0
    7.5371  -15.1720   23.2344 C   0  0  0  0  0  0  0  0  0  0  0  0
    7.2317  -14.9128   24.6380 C   0  0  0  0  0  0  0  0  0  0  0  0
    6.8711  -15.7958   25.6203 C   0  0  0  0  0  0  0  0  0  0  0  0
    6.6857  -15.0890   26.7581 N   0  0  0  0  0  0  0  0  0  0  0  0
    6.9113  -13.7816   26.5537 C   0  0  0  0  0  0  0  0  0  0  0  0
    6.8697  -12.6587   27.3290 C   0  0  0  0  0  0  0  0  0  0  0  0
    7.1672  -11.4326   26.7830 C   0  0  0  0  0  0  0  0  0  0  0  0
    7.5126  -11.2898   25.4583 C   0  0  0  0  0  0  0  0  0  0  0  0
    7.5550  -12.4203   24.6761 C   0  0  0  0  0  0  0  0  0  0  0  0
    7.2579  -13.6571   25.2142 C   0  0  0  0  0  0  0  0  0  0  0  0
    9.4316  -16.5405   23.7447 C   0  0  0  0  0  0  0  0  0  0  0  0
    9.1645  -17.7118   23.3662 O   0  0  0  0  0  0  0  0  0  0  0  0
   10.6980  -22.3614   22.7866 N   0  0  0  0  0  0  0  0  0  0  0  0
    9.3264  -22.4273   23.1312 C   0  0  0  0  0  0  0  0  0  0  0  0
    8.5867  -23.3941   22.7188 N   0  0  0  0  0  0  0  0  0  0  0  0
    8.7647  -21.4062   23.9398 N   0  0  0  0  0  0  0  0  0  0  0  0
    9.4069  -21.0315   25.1858 C   0  0  0  0  0  0  0  0  0  0  0  0
   10.2968  -19.8372   24.9845 C   0  0  0  0  0  0  0  0  0  0  0  0
    9.9161  -18.6501   25.7794 C   0  0  0  0  0  0  0  0  0  0  0  0
   10.8215  -17.4714   25.6412 C   0  0  2  0  0  0  0  0  0  0  0  0
   10.1447  -16.3670   24.9374 N   0  0  0  0  0  0  0  0  0  0  0  0
   12.0474  -17.7626   24.8761 C   0  0  0  0  0  0  0  0  0  0  0  0
   11.9871  -18.4484   23.8435 O   0  0  0  0  0  0  0  0  0  0  0  0
   13.2610  -17.2780   25.3004 O   0  0  0  0  0  0  0  0  0  0  0  0
  2  1  1  6
  2  3  1  0
  3  4  1  0
  4  5  2  0
  5  6  1  0
  7  6  2  0
  8  7  1  0
  9  4  1  0
  9  8  2  0
 10 11  2  0
 10  2  1  0
 12 10  1  0
 13 12  1  0
 13 14  1  6
 15 16  2  0
 15 14  1  0
 17 16  1  0
 18 23  2  0
 18 17  1  0
 19 18  1  0
 20 19  2  0
 20 21  1  0
 21 22  2  0
 22 23  1  0
 23 15  1  0
 24 25  2  0
 24 13  1  0
 27 26  1  0
 27 28  2  0
 29 30  1  0
 29 27  1  0
 31 30  1  0
 32 31  1  0
 33 34  1  0
 33 32  1  6
 34 24  1  0
 35 33  1  0
 36 35  2  0
 37 35  1  0
M  END
$$$$
