FWR.pdb
     RDKit          3D

 37 39  0  0  1  0  0  0  0  0999 V2000
    8.2878  -16.1814   21.6609 N   0  0  0  0  0  0  0  0  0  0  0  0
    9.1492  -15.0634   21.9278 C   0  0  1  0  0  0  0  0  0  0  0  0
    8.4583  -13.7231   21.8804 C   0  0  0  0  0  0  0  0  0  0  0  0
    7.7700  -13.4866   20.5898 C   0  0  0  0  0  0  0  0  0  0  0  0
    6.4670  -13.8699   20.4572 C   0  0  0  0  0  0  0  0  0  0  0  0
    5.8117  -13.6507   19.2424 C   0  0  0  0  0  0  0  0  0  0  0  0
    6.5086  -13.0526   18.2179 C   0  0  0  0  0  0  0  0  0  0  0  0
    7.8205  -12.6759   18.3769 C   0  0  0  0  0  0  0  0  0  0  0  0
    8.4692  -12.8913   19.5751 C   0  0  0  0  0  0  0  0  0  0  0  0
    9.7491  -15.2096   23.2774 C   0  0  0  0  0  0  0  0  0  0  0  0
   10.5832  -14.3489   23.6446 O   0  0  0  0  0  0  0  0  0  0  0  0
    9.4290  -16.2625   24.1582 N   0  0  0  0  0  0  0  0  0  0  0  0
    9.9502  -16.2671   25.4843 C   0  0  1  0  0  0  0  0  0  0  0  0
    8.9682  -16.3345   26.5928 C   0  0  0  0  0  0  0  0  0  0  0  0
    7.7170  -15.6040   26.4160 C   0  0  0  0  0  0  0  0  0  0  0  0
    6.5144  -16.0540   25.9407 C   0  0  0  0  0  0  0  0  0  0  0  0
    5.6527  -15.0120   25.9551 N   0  0  0  0  0  0  0  0  0  0  0  0
    6.2481  -13.9026   26.4207 C   0  0  0  0  0  0  0  0  0  0  0  0
    5.8580  -12.6126   26.6386 C   0  0  0  0  0  0  0  0  0  0  0  0
    6.7524  -11.6976   27.1414 C   0  0  0  0  0  0  0  0  0  0  0  0
    8.0522  -12.0378   27.4398 C   0  0  0  0  0  0  0  0  0  0  0  0
    8.4465  -13.3372   27.2208 C   0  0  0  0  0  0  0  0  0  0  0  0
    7.5565  -14.2647   26.7161 C   0  0  0  0  0  0  0  0  0  0  0  0
   10.7832  -17.5265   25.5892 C   0  0  0  0  0  0  0  0  0  0  0  0
   10.1849  -18.6348   25.5956 O   0  0  0  0  0  0  0  0  0  0  0  0
   18.0171  -15.4193   22.8771 N   0  0  0  0  0  0  0  0  0  0  0  0
   16.7796  -15.1135   22.2613 C   0  0  0  0  0  0  0  0  0  0  0  0
   16.7051  -14.2326   21.3283 N   0  0  0  0  0  0  0  0  0  0  0  0
   15.6071  -15.7889   22.6872 N   0  0  0  0  0  0  0  0  0  0  0  0
   15.6919  -16.8156   23.7090 C   0  0  0  0  0  0  0  0  0  0  0  0
   14.3369  -17.4074   23.9785 C   0  0  0  0  0  0  0  0  0  0  0  0
   14.3275  -18.4711   25.0054 C   0  0  0  0  0  0  0  0  0  0  0  0
   13.0003  -18.7420   25.6325 C   0  0  2  0  0  0  0  0  0  0  0  0
   12.1806  -17.5177   25.6808 N   0  0  0  0  0  0  0  0  0  0  0  0
   13.0984  -19.2316   27.0195 C   0  0  0  0  0  0  0  0  0  0  0  0
   12.6718  -18.5369   27.9552 O   0  0  0  0  0  0  0  0  0  0  0  0
   13.6611  -20.4568   27.2841 O   0  0  0  0  0  0  0  0  0  0  0  0
  2  1  1  1
  2  3  1  0
  3  4  1  0
  4  5  2  0
  5  6  1  0
  7  6  2  0
  8  7  1  0
  9  4  1  0
  9  8  2  0
 10 11  2  0
 10  2  1  0
 12 10  1  0
 13 12  1  0
 13 14  1  1
 15 16  2  0
 15 14  1  0
 17 16  1  0
 18 23  2  0
 18 17  1  0
 19 18  1  0
 20 19  2  0
 20 21  1  0
 21 22  2  0
 22 23  1  0
 23 15  1  0
 24 25  2  0
 24 13  1  0
 27 26  1  0
 27 28  2  0
 29 30  1  0
 29 27  1  0
 31 30  1  0
 32 31  1  0
 33 34  1  0
 33 32  1  1
 34 24  1  0
 35 33  1  0
 36 35  2  0
 37 35  1  0
M  END
$$$$
