FWR.pdb
     RDKit          3D

 37 39  0  0  1  0  0  0  0  0999 V2000
    7.6848  -16.4081   20.1680 N   0  0  0  0  0  0  0  0  0  0  0  0
    7.4013  -17.3194   21.2415 C   0  0  1  0  0  0  0  0  0  0  0  0
    7.6019  -18.7729   20.8905 C   0  0  0  0  0  0  0  0  0  0  0  0
    6.7292  -19.2115   19.7763 C   0  0  0  0  0  0  0  0  0  0  0  0
    5.4907  -19.7069   20.0642 C   0  0  0  0  0  0  0  0  0  0  0  0
    4.6625  -20.1233   19.0182 C   0  0  0  0  0  0  0  0  0  0  0  0
    5.1290  -20.0178   17.7282 C   0  0  0  0  0  0  0  0  0  0  0  0
    6.3806  -19.5153   17.4648 C   0  0  0  0  0  0  0  0  0  0  0  0
    7.1997  -19.1038   18.4957 C   0  0  0  0  0  0  0  0  0  0  0  0
    8.2798  -17.0134   22.3979 C   0  0  0  0  0  0  0  0  0  0  0  0
    9.4156  -16.5385   22.1618 O   0  0  0  0  0  0  0  0  0  0  0  0
    7.9011  -17.2309   23.7382 N   0  0  0  0  0  0  0  0  0  0  0  0
    8.7845  -16.8714   24.7968 C   0  0  1  0  0  0  0  0  0  0  0  0
    8.1734  -16.2825   26.0121 C   0  0  0  0  0  0  0  0  0  0  0  0
    7.2543  -15.1654   25.8178 C   0  0  0  0  0  0  0  0  0  0  0  0
    5.9110  -15.1886   25.5536 C   0  0  0  0  0  0  0  0  0  0  0  0
    5.4921  -13.9071   25.4496 N   0  0  0  0  0  0  0  0  0  0  0  0
    6.5102  -13.0522   25.6354 C   0  0  0  0  0  0  0  0  0  0  0  0
    6.6462  -11.6939   25.6380 C   0  0  0  0  0  0  0  0  0  0  0  0
    7.8761  -11.1246   25.8691 C   0  0  0  0  0  0  0  0  0  0  0  0
    8.9986  -11.8860   26.1029 C   0  0  0  0  0  0  0  0  0  0  0  0
    8.8629  -13.2548   26.1006 C   0  0  0  0  0  0  0  0  0  0  0  0
    7.6323  -13.8373   25.8695 C   0  0  0  0  0  0  0  0  0  0  0  0
    9.4329  -18.1647   25.2418 C   0  0  0  0  0  0  0  0  0  0  0  0
    8.8785  -19.2484   24.9184 O   0  0  0  0  0  0  0  0  0  0  0  0
   15.4073  -17.8093   20.1779 N   0  0  0  0  0  0  0  0  0  0  0  0
   16.0587  -18.7003   21.0646 C   0  0  0  0  0  0  0  0  0  0  0  0
   17.2460  -19.1270   20.8193 N   0  0  0  0  0  0  0  0  0  0  0  0
   15.3845  -19.1287   22.2368 N   0  0  0  0  0  0  0  0  0  0  0  0
   13.9765  -18.8274   22.4153 C   0  0  0  0  0  0  0  0  0  0  0  0
   13.5126  -19.2541   23.7796 C   0  0  0  0  0  0  0  0  0  0  0  0
   12.2962  -18.5616   24.2561 C   0  0  0  0  0  0  0  0  0  0  0  0
   11.7945  -18.9982   25.5925 C   0  0  2  0  0  0  0  0  0  0  0  0
   10.6132  -18.2131   25.9940 N   0  0  0  0  0  0  0  0  0  0  0  0
   12.7869  -18.8369   26.6705 C   0  0  0  0  0  0  0  0  0  0  0  0
   13.4026  -19.8248   27.1011 O   0  0  0  0  0  0  0  0  0  0  0  0
   13.0357  -17.5954   27.2039 O   0  0  0  0  0  0  0  0  0  0  0  0
  2  1  1  6
  2  3  1  0
  3  4  1  0
  4  5  2  0
  5  6  1  0
  7  6  2  0
  8  7  1  0
  9  4  1  0
  9  8  2  0
 10 11  2  0
 10  2  1  0
 12 10  1  0
 13 12  1  0
 13 14  1  1
 15 16  2  0
 15 14  1  0
 17 16  1  0
 18 23  2  0
 18 17  1  0
 19 18  1  0
 20 19  2  0
 20 21  1  0
 21 22  2  0
 22 23  1  0
 23 15  1  0
 24 25  2  0
 24 13  1  0
 27 26  1  0
 27 28  2  0
 29 30  1  0
 29 27  1  0
 31 30  1  0
 32 31  1  0
 33 34  1  0
 33 32  1  6
 34 24  1  0
 35 33  1  0
 36 35  2  0
 37 35  1  0
M  END
$$$$
