DHC.pdb
     RDKit          3D

 25 25  0  0  1  0  0  0  0  0999 V2000
   18.5911  -11.9700  -17.2251 N   0  0  0  0  0  0  0  0  0  0  0  0
   18.3242  -10.7934  -16.4584 C   0  0  1  0  0  0  0  0  0  0  0  0
   18.0847  -11.0831  -15.0035 C   0  0  0  0  0  0  0  0  0  0  0  0
   16.7828  -11.7833  -14.8808 C   0  0  0  0  0  0  0  0  0  0  0  0
   16.3701  -12.2210  -13.7668 O   0  0  0  0  0  0  0  0  0  0  0  0
   19.4643   -9.8167  -16.5832 C   0  0  0  0  0  0  0  0  0  0  0  0
   20.6219  -10.1031  -16.2413 O   0  0  0  0  0  0  0  0  0  0  0  0
   15.9686  -11.9841  -15.9847 O   0  0  0  0  0  0  0  0  0  0  0  0
   19.2245   -8.5209  -17.1075 N   0  0  0  0  0  0  0  0  0  0  0  0
   20.2741   -7.5389  -17.2626 C   0  0  1  0  0  0  0  0  0  0  0  0
   19.9431   -6.6548  -18.4447 C   0  0  0  0  0  0  0  0  0  0  0  0
   20.2973   -7.3136  -19.7317 C   0  0  0  0  0  0  0  0  0  0  0  0
   21.0516   -8.4585  -19.8131 C   0  0  0  0  0  0  0  0  0  0  0  0
   21.1946   -8.7989  -21.1021 N   0  0  0  0  0  0  0  0  0  0  0  0
   20.5395   -7.8824  -21.8341 C   0  0  0  0  0  0  0  0  0  0  0  0
   19.9869   -6.9676  -20.9893 N   0  0  0  0  0  0  0  0  0  0  0  0
   20.2627   -6.6359  -16.0566 C   0  0  0  0  0  0  0  0  0  0  0  0
   19.1593   -6.2079  -15.6000 O   0  0  0  0  0  0  0  0  0  0  0  0
   21.4468   -6.2421  -15.4061 N   0  0  0  0  0  0  0  0  0  0  0  0
   21.3589   -5.4175  -14.2286 C   0  0  1  0  0  0  0  0  0  0  0  0
   22.0573   -6.0485  -13.0423 C   0  0  0  0  0  0  0  0  0  0  0  0
   21.3618   -7.6689  -12.6381 S   0  0  0  0  0  0  0  0  0  0  0  0
   21.8923   -4.0737  -14.5318 C   0  0  0  0  0  0  0  0  0  0  0  0
   21.6368   -2.9696  -13.7398 O   0  0  0  0  0  0  0  0  0  0  0  0
   22.6071   -3.9299  -15.5513 O   0  0  0  0  0  0  0  0  0  0  0  0
  2  1  1  6
  3  2  1  0
  3  4  1  0
  4  8  1  0
  5  4  2  0
  6  7  2  0
  6  2  1  0
  9  6  1  0
 10 11  1  6
 10  9  1  0
 11 12  1  0
 12 16  1  0
 12 13  2  0
 13 14  1  0
 15 14  1  0
 16 15  2  0
 17 10  1  0
 18 17  2  0
 19 17  1  0
 20 19  1  0
 20 21  1  1
 21 22  1  0
 23 24  1  0
 23 20  1  0
 25 23  2  0
M  END
$$$$
