DHC.pdb
     RDKit          3D

 25 25  0  0  1  0  0  0  0  0999 V2000
   24.6900  -19.4438  -16.7120 N   0  0  0  0  0  0  0  0  0  0  0  0
   25.3015  -18.4124  -17.4903 C   0  0  1  0  0  0  0  0  0  0  0  0
   25.5367  -18.8165  -18.9185 C   0  0  0  0  0  0  0  0  0  0  0  0
   26.4962  -19.9477  -18.9257 C   0  0  0  0  0  0  0  0  0  0  0  0
   26.1149  -21.1391  -18.7307 O   0  0  0  0  0  0  0  0  0  0  0  0
   24.4557  -17.1660  -17.4658 C   0  0  0  0  0  0  0  0  0  0  0  0
   24.7619  -16.1455  -18.1012 O   0  0  0  0  0  0  0  0  0  0  0  0
   27.8490  -19.7405  -19.1468 O   0  0  0  0  0  0  0  0  0  0  0  0
   23.2652  -17.1405  -16.6954 N   0  0  0  0  0  0  0  0  0  0  0  0
   22.4074  -15.9787  -16.6289 C   0  0  1  0  0  0  0  0  0  0  0  0
   21.1891  -16.3196  -15.7994 C   0  0  0  0  0  0  0  0  0  0  0  0
   20.2213  -15.1892  -15.7658 C   0  0  0  0  0  0  0  0  0  0  0  0
   20.3200  -14.0843  -16.5757 C   0  0  0  0  0  0  0  0  0  0  0  0
   19.3043  -13.2512  -16.3070 N   0  0  0  0  0  0  0  0  0  0  0  0
   18.5666  -13.8176  -15.3375 C   0  0  0  0  0  0  0  0  0  0  0  0
   19.1320  -15.0115  -15.0045 N   0  0  0  0  0  0  0  0  0  0  0  0
   23.1313  -14.8956  -15.8722 C   0  0  0  0  0  0  0  0  0  0  0  0
   23.7378  -15.1772  -14.7942 O   0  0  0  0  0  0  0  0  0  0  0  0
   23.1618  -13.5621  -16.3211 N   0  0  0  0  0  0  0  0  0  0  0  0
   23.9474  -12.5964  -15.5970 C   0  0  1  0  0  0  0  0  0  0  0  0
   25.4164  -12.9634  -15.5756 C   0  0  0  0  0  0  0  0  0  0  0  0
   26.4288  -11.6392  -14.8725 S   0  0  0  0  0  0  0  0  0  0  0  0
   23.7226  -11.2540  -16.1712 C   0  0  0  0  0  0  0  0  0  0  0  0
   23.9136  -10.0892  -15.4512 O   0  0  0  0  0  0  0  0  0  0  0  0
   23.3424  -11.1688  -17.3624 O   0  0  0  0  0  0  0  0  0  0  0  0
  2  1  1  1
  3  2  1  0
  3  4  1  0
  4  8  1  0
  5  4  2  0
  6  7  2  0
  6  2  1  0
  9  6  1  0
 10 11  1  1
 10  9  1  0
 11 12  1  0
 12 16  1  0
 12 13  2  0
 13 14  1  0
 15 14  1  0
 16 15  2  0
 17 10  1  0
 18 17  2  0
 19 17  1  0
 20 19  1  0
 20 21  1  6
 21 22  1  0
 23 24  1  0
 23 20  1  0
 25 23  2  0
M  END
$$$$
