DHC.pdb
     RDKit          3D

 25 25  0  0  1  0  0  0  0  0999 V2000
   23.1598  -14.4110  -19.4186 N   0  0  0  0  0  0  0  0  0  0  0  0
   23.3896  -13.0239  -19.6769 C   0  0  1  0  0  0  0  0  0  0  0  0
   22.3980  -12.4344  -20.6400 C   0  0  0  0  0  0  0  0  0  0  0  0
   22.6359  -13.0380  -21.9740 C   0  0  0  0  0  0  0  0  0  0  0  0
   22.4200  -14.2663  -22.1918 O   0  0  0  0  0  0  0  0  0  0  0  0
   23.3524  -12.2383  -18.3920 C   0  0  0  0  0  0  0  0  0  0  0  0
   22.4456  -12.3773  -17.5570 O   0  0  0  0  0  0  0  0  0  0  0  0
   23.1045  -12.2765  -23.0334 O   0  0  0  0  0  0  0  0  0  0  0  0
   24.3811  -11.3034  -18.1108 N   0  0  0  0  0  0  0  0  0  0  0  0
   24.4154  -10.5294  -16.8902 C   0  0  1  0  0  0  0  0  0  0  0  0
   25.8273  -10.0341  -16.6670 C   0  0  0  0  0  0  0  0  0  0  0  0
   26.7340  -11.1426  -16.2612 C   0  0  0  0  0  0  0  0  0  0  0  0
   26.3059  -12.4298  -16.0459 C   0  0  0  0  0  0  0  0  0  0  0  0
   27.3545  -13.1878  -15.6943 N   0  0  0  0  0  0  0  0  0  0  0  0
   28.4383  -12.3940  -15.6853 C   0  0  0  0  0  0  0  0  0  0  0  0
   28.0555  -11.1341  -16.0347 N   0  0  0  0  0  0  0  0  0  0  0  0
   23.5720   -9.2963  -17.0851 C   0  0  0  0  0  0  0  0  0  0  0  0
   23.6778   -8.6228  -18.1548 O   0  0  0  0  0  0  0  0  0  0  0  0
   22.6566   -8.8550  -16.1115 N   0  0  0  0  0  0  0  0  0  0  0  0
   21.8174   -7.7209  -16.4012 C   0  0  1  0  0  0  0  0  0  0  0  0
   20.4226   -8.1402  -16.8158 C   0  0  0  0  0  0  0  0  0  0  0  0
   19.2636   -6.7518  -16.7720 S   0  0  0  0  0  0  0  0  0  0  0  0
   21.7972   -6.8166  -15.2333 C   0  0  0  0  0  0  0  0  0  0  0  0
   22.2233   -7.2055  -13.9768 O   0  0  0  0  0  0  0  0  0  0  0  0
   21.3755   -5.6467  -15.3898 O   0  0  0  0  0  0  0  0  0  0  0  0
  2  1  1  1
  3  2  1  0
  3  4  1  0
  4  8  1  0
  5  4  2  0
  6  7  2  0
  6  2  1  0
  9  6  1  0
 10 11  1  6
 10  9  1  0
 11 12  1  0
 12 16  1  0
 12 13  2  0
 13 14  1  0
 15 14  1  0
 16 15  2  0
 17 10  1  0
 18 17  2  0
 19 17  1  0
 20 19  1  0
 20 21  1  1
 21 22  1  0
 23 24  1  0
 23 20  1  0
 25 23  2  0
M  END
$$$$
