DHC.pdb
     RDKit          3D

 25 25  0  0  1  0  0  0  0  0999 V2000
   22.2651  -11.0436  -19.6163 N   0  0  0  0  0  0  0  0  0  0  0  0
   21.6863  -11.5546  -18.4132 C   0  0  1  0  0  0  0  0  0  0  0  0
   22.2061  -12.9154  -18.0442 C   0  0  0  0  0  0  0  0  0  0  0  0
   21.6875  -13.8912  -19.0338 C   0  0  0  0  0  0  0  0  0  0  0  0
   21.4860  -15.1023  -18.7247 O   0  0  0  0  0  0  0  0  0  0  0  0
   21.9347  -10.6073  -17.2686 C   0  0  0  0  0  0  0  0  0  0  0  0
   21.5617  -10.8546  -16.1116 O   0  0  0  0  0  0  0  0  0  0  0  0
   21.4041  -13.5111  -20.3365 O   0  0  0  0  0  0  0  0  0  0  0  0
   22.6169   -9.3862  -17.5032 N   0  0  0  0  0  0  0  0  0  0  0  0
   22.9823   -8.4826  -16.4356 C   0  0  1  0  0  0  0  0  0  0  0  0
   24.4313   -8.0841  -16.6092 C   0  0  0  0  0  0  0  0  0  0  0  0
   25.3494   -9.1793  -16.1928 C   0  0  0  0  0  0  0  0  0  0  0  0
   24.9137  -10.4000  -15.7385 C   0  0  0  0  0  0  0  0  0  0  0  0
   25.9762  -11.1637  -15.4454 N   0  0  0  0  0  0  0  0  0  0  0  0
   27.0762  -10.4389  -15.7094 C   0  0  0  0  0  0  0  0  0  0  0  0
   26.6894   -9.2165  -16.1698 N   0  0  0  0  0  0  0  0  0  0  0  0
   22.1844   -7.2141  -16.5920 C   0  0  0  0  0  0  0  0  0  0  0  0
   21.9735   -6.7409  -17.7499 O   0  0  0  0  0  0  0  0  0  0  0  0
   21.6553   -6.5224  -15.4865 N   0  0  0  0  0  0  0  0  0  0  0  0
   20.8578   -5.3447  -15.7127 C   0  0  1  0  0  0  0  0  0  0  0  0
   19.4786   -5.4688  -15.0999 C   0  0  0  0  0  0  0  0  0  0  0  0
   18.5963   -3.8895  -15.1073 S   0  0  0  0  0  0  0  0  0  0  0  0
   21.5813   -4.1600  -15.2073 C   0  0  0  0  0  0  0  0  0  0  0  0
   21.6806   -2.9809  -15.9226 O   0  0  0  0  0  0  0  0  0  0  0  0
   22.1281   -4.2281  -14.0816 O   0  0  0  0  0  0  0  0  0  0  0  0
  2  1  1  6
  3  2  1  0
  3  4  1  0
  4  8  1  0
  5  4  2  0
  6  7  2  0
  6  2  1  0
  9  6  1  0
 10 11  1  6
 10  9  1  0
 11 12  1  0
 12 16  1  0
 12 13  2  0
 13 14  1  0
 15 14  1  0
 16 15  2  0
 17 10  1  0
 18 17  2  0
 19 17  1  0
 20 19  1  0
 20 21  1  1
 21 22  1  0
 23 24  1  0
 23 20  1  0
 25 23  2  0
M  END
$$$$
