DHC.pdb
     RDKit          3D

 25 25  0  0  1  0  0  0  0  0999 V2000
   13.9533  -10.2748  -12.2949 N   0  0  0  0  0  0  0  0  0  0  0  0
   15.3275  -10.1406  -11.9244 C   0  0  1  0  0  0  0  0  0  0  0  0
   16.2707  -10.6690  -12.9681 C   0  0  0  0  0  0  0  0  0  0  0  0
   16.1061  -12.1417  -13.0353 C   0  0  0  0  0  0  0  0  0  0  0  0
   15.8553  -12.8267  -12.0006 O   0  0  0  0  0  0  0  0  0  0  0  0
   15.6578   -8.6966  -11.6503 C   0  0  0  0  0  0  0  0  0  0  0  0
   15.3117   -7.7818  -12.4136 O   0  0  0  0  0  0  0  0  0  0  0  0
   16.2213  -12.8230  -14.2372 O   0  0  0  0  0  0  0  0  0  0  0  0
   16.3886   -8.3526  -10.4846 N   0  0  0  0  0  0  0  0  0  0  0  0
   16.6977   -6.9838  -10.1369 C   0  0  1  0  0  0  0  0  0  0  0  0
   16.4871   -6.7996   -8.6502 C   0  0  0  0  0  0  0  0  0  0  0  0
   15.0412   -6.6802   -8.3171 C   0  0  0  0  0  0  0  0  0  0  0  0
   14.0379   -6.8051   -9.2467 C   0  0  0  0  0  0  0  0  0  0  0  0
   12.8537   -6.6473   -8.6380 N   0  0  0  0  0  0  0  0  0  0  0  0
   13.0985   -6.4244   -7.3359 C   0  0  0  0  0  0  0  0  0  0  0  0
   14.4463   -6.4448   -7.1388 N   0  0  0  0  0  0  0  0  0  0  0  0
   18.1670   -6.7522  -10.3768 C   0  0  0  0  0  0  0  0  0  0  0  0
   19.0218   -7.2554   -9.5862 O   0  0  0  0  0  0  0  0  0  0  0  0
   18.6361   -5.9872  -11.4609 N   0  0  0  0  0  0  0  0  0  0  0  0
   20.0373   -6.0257  -11.7918 C   0  0  1  0  0  0  0  0  0  0  0  0
   20.4836   -7.4128  -12.2040 C   0  0  0  0  0  0  0  0  0  0  0  0
   22.2120   -7.4308  -12.7378 S   0  0  0  0  0  0  0  0  0  0  0  0
   20.3203   -5.0217  -12.8378 C   0  0  0  0  0  0  0  0  0  0  0  0
   21.5623   -4.4355  -12.9977 O   0  0  0  0  0  0  0  0  0  0  0  0
   19.3937   -4.6879  -13.6130 O   0  0  0  0  0  0  0  0  0  0  0  0
  2  1  1  6
  3  2  1  0
  3  4  1  0
  4  8  1  0
  5  4  2  0
  6  7  2  0
  6  2  1  0
  9  6  1  0
 10 11  1  1
 10  9  1  0
 11 12  1  0
 12 16  1  0
 12 13  2  0
 13 14  1  0
 15 14  1  0
 16 15  2  0
 17 10  1  0
 18 17  2  0
 19 17  1  0
 20 19  1  0
 20 21  1  6
 21 22  1  0
 23 24  1  0
 23 20  1  0
 25 23  2  0
M  END
$$$$
