DHC.pdb
     RDKit          3D

 25 25  0  0  1  0  0  0  0  0999 V2000
   17.5155  -14.2751  -17.2662 N   0  0  0  0  0  0  0  0  0  0  0  0
   18.8698  -14.7303  -17.2185 C   0  0  1  0  0  0  0  0  0  0  0  0
   19.0942  -15.9877  -18.0102 C   0  0  0  0  0  0  0  0  0  0  0  0
   18.3306  -17.0826  -17.3634 C   0  0  0  0  0  0  0  0  0  0  0  0
   17.1001  -16.9597  -17.0922 O   0  0  0  0  0  0  0  0  0  0  0  0
   19.8009  -13.6593  -17.7237 C   0  0  0  0  0  0  0  0  0  0  0  0
   21.0118  -13.8638  -17.8996 O   0  0  0  0  0  0  0  0  0  0  0  0
   18.9387  -18.2835  -17.0315 O   0  0  0  0  0  0  0  0  0  0  0  0
   19.2933  -12.3671  -18.0133 N   0  0  0  0  0  0  0  0  0  0  0  0
   20.1497  -11.2561  -18.3629 C   0  0  1  0  0  0  0  0  0  0  0  0
   19.3108  -10.1825  -19.0202 C   0  0  0  0  0  0  0  0  0  0  0  0
   20.1271   -8.9827  -19.3523 C   0  0  0  0  0  0  0  0  0  0  0  0
   21.2396   -9.0236  -20.1567 C   0  0  0  0  0  0  0  0  0  0  0  0
   21.7500   -7.7882  -20.2625 N   0  0  0  0  0  0  0  0  0  0  0  0
   20.9727   -6.9693  -19.5345 C   0  0  0  0  0  0  0  0  0  0  0  0
   19.9730   -7.7057  -18.9740 N   0  0  0  0  0  0  0  0  0  0  0  0
   20.6789  -10.6449  -17.0915 C   0  0  0  0  0  0  0  0  0  0  0  0
   19.9514  -10.6225  -16.0525 O   0  0  0  0  0  0  0  0  0  0  0  0
   21.9691  -10.0889  -17.0097 N   0  0  0  0  0  0  0  0  0  0  0  0
   22.4207   -9.5473  -15.7539 C   0  0  1  0  0  0  0  0  0  0  0  0
   23.7741  -10.0970  -15.3544 C   0  0  0  0  0  0  0  0  0  0  0  0
   24.4130   -9.2913  -13.8661 S   0  0  0  0  0  0  0  0  0  0  0  0
   22.4256   -8.0722  -15.8311 C   0  0  0  0  0  0  0  0  0  0  0  0
   22.9758   -7.3790  -16.8934 O   0  0  0  0  0  0  0  0  0  0  0  0
   21.9082   -7.4222  -14.8925 O   0  0  0  0  0  0  0  0  0  0  0  0
  2  1  1  6
  3  2  1  0
  3  4  1  0
  4  8  1  0
  5  4  2  0
  6  7  2  0
  6  2  1  0
  9  6  1  0
 10 11  1  1
 10  9  1  0
 11 12  1  0
 12 16  1  0
 12 13  2  0
 13 14  1  0
 15 14  1  0
 16 15  2  0
 17 10  1  0
 18 17  2  0
 19 17  1  0
 20 19  1  0
 20 21  1  6
 21 22  1  0
 23 24  1  0
 23 20  1  0
 25 23  2  0
M  END
$$$$
