DHC.pdb
     RDKit          3D

 25 25  0  0  1  0  0  0  0  0999 V2000
   15.3610  -12.2828  -14.9477 N   0  0  0  0  0  0  0  0  0  0  0  0
   15.6809  -10.9126  -15.2002 C   0  0  1  0  0  0  0  0  0  0  0  0
   14.8461   -9.9573  -14.3948 C   0  0  0  0  0  0  0  0  0  0  0  0
   13.4351  -10.0975  -14.8305 C   0  0  0  0  0  0  0  0  0  0  0  0
   13.1231  -10.1397  -16.0568 O   0  0  0  0  0  0  0  0  0  0  0  0
   17.1371  -10.6531  -14.9143 C   0  0  0  0  0  0  0  0  0  0  0  0
   17.7060  -11.1081  -13.9101 O   0  0  0  0  0  0  0  0  0  0  0  0
   12.4042  -10.1877  -13.9080 O   0  0  0  0  0  0  0  0  0  0  0  0
   17.8992   -9.8639  -15.8131 N   0  0  0  0  0  0  0  0  0  0  0  0
   19.3301   -9.7029  -15.6846 C   0  0  1  0  0  0  0  0  0  0  0  0
   19.9706   -9.9462  -17.0334 C   0  0  0  0  0  0  0  0  0  0  0  0
   21.4504   -9.7994  -16.9663 C   0  0  0  0  0  0  0  0  0  0  0  0
   22.1771   -9.0468  -17.8561 C   0  0  0  0  0  0  0  0  0  0  0  0
   23.4759   -9.1149  -17.5302 N   0  0  0  0  0  0  0  0  0  0  0  0
   23.5766   -9.9014  -16.4456 C   0  0  0  0  0  0  0  0  0  0  0  0
   22.3285  -10.3228  -16.0987 N   0  0  0  0  0  0  0  0  0  0  0  0
   19.6183   -8.2636  -15.3452 C   0  0  0  0  0  0  0  0  0  0  0  0
   18.9165   -7.3415  -15.8613 O   0  0  0  0  0  0  0  0  0  0  0  0
   20.6520   -7.8957  -14.4639 N   0  0  0  0  0  0  0  0  0  0  0  0
   21.0027   -6.5046  -14.3364 C   0  0  1  0  0  0  0  0  0  0  0  0
   21.9571   -6.2647  -13.1855 C   0  0  0  0  0  0  0  0  0  0  0  0
   22.4241   -4.5220  -13.0529 S   0  0  0  0  0  0  0  0  0  0  0  0
   21.5523   -6.0195  -15.6189 C   0  0  0  0  0  0  0  0  0  0  0  0
   22.4598   -6.7454  -16.3680 O   0  0  0  0  0  0  0  0  0  0  0  0
   21.1790   -4.9014  -16.0450 O   0  0  0  0  0  0  0  0  0  0  0  0
  2  1  1  1
  3  2  1  0
  3  4  1  0
  4  8  1  0
  5  4  2  0
  6  7  2  0
  6  2  1  0
  9  6  1  0
 10 11  1  6
 10  9  1  0
 11 12  1  0
 12 16  1  0
 12 13  2  0
 13 14  1  0
 15 14  1  0
 16 15  2  0
 17 10  1  0
 18 17  2  0
 19 17  1  0
 20 19  1  0
 20 21  1  1
 21 22  1  0
 23 24  1  0
 23 20  1  0
 25 23  2  0
M  END
$$$$
