DHC.pdb
     RDKit          3D

 25 25  0  0  1  0  0  0  0  0999 V2000
   16.6340  -10.8058  -14.6493 N   0  0  0  0  0  0  0  0  0  0  0  0
   17.6091  -11.3827  -15.5211 C   0  0  1  0  0  0  0  0  0  0  0  0
   17.0041  -12.2688  -16.5733 C   0  0  0  0  0  0  0  0  0  0  0  0
   16.4112  -13.4487  -15.8976 C   0  0  0  0  0  0  0  0  0  0  0  0
   16.1776  -13.4497  -14.6533 O   0  0  0  0  0  0  0  0  0  0  0  0
   18.4156  -10.3025  -16.1934 C   0  0  0  0  0  0  0  0  0  0  0  0
   19.2759  -10.5551  -17.0508 O   0  0  0  0  0  0  0  0  0  0  0  0
   16.0907  -14.5963  -16.6063 O   0  0  0  0  0  0  0  0  0  0  0  0
   18.1973   -8.9447  -15.8467 N   0  0  0  0  0  0  0  0  0  0  0  0
   18.9455   -7.8606  -16.4425 C   0  0  1  0  0  0  0  0  0  0  0  0
   17.9817   -6.9371  -17.1543 C   0  0  0  0  0  0  0  0  0  0  0  0
   17.5482   -7.5061  -18.4597 C   0  0  0  0  0  0  0  0  0  0  0  0
   18.3303   -7.4913  -19.5886 C   0  0  0  0  0  0  0  0  0  0  0  0
   17.6617   -8.0759  -20.5932 N   0  0  0  0  0  0  0  0  0  0  0  0
   16.4677   -8.4590  -20.1111 C   0  0  0  0  0  0  0  0  0  0  0  0
   16.3983   -8.1077  -18.7967 N   0  0  0  0  0  0  0  0  0  0  0  0
   19.5596   -7.0423  -15.3365 C   0  0  0  0  0  0  0  0  0  0  0  0
   18.8636   -6.7286  -14.3234 O   0  0  0  0  0  0  0  0  0  0  0  0
   20.8965   -6.6052  -15.3835 N   0  0  0  0  0  0  0  0  0  0  0  0
   21.4353   -5.8756  -14.2648 C   0  0  1  0  0  0  0  0  0  0  0  0
   22.6795   -6.5337  -13.7063 C   0  0  0  0  0  0  0  0  0  0  0  0
   22.3625   -8.2378  -13.1883 S   0  0  0  0  0  0  0  0  0  0  0  0
   21.6851   -4.4766  -14.6680 C   0  0  0  0  0  0  0  0  0  0  0  0
   21.9817   -3.4765  -13.7606 O   0  0  0  0  0  0  0  0  0  0  0  0
   21.6252   -4.1852  -15.8856 O   0  0  0  0  0  0  0  0  0  0  0  0
  2  1  1  6
  3  2  1  0
  3  4  1  0
  4  8  1  0
  5  4  2  0
  6  7  2  0
  6  2  1  0
  9  6  1  0
 10 11  1  1
 10  9  1  0
 11 12  1  0
 12 16  1  0
 12 13  2  0
 13 14  1  0
 15 14  1  0
 16 15  2  0
 17 10  1  0
 18 17  2  0
 19 17  1  0
 20 19  1  0
 20 21  1  6
 21 22  1  0
 23 24  1  0
 23 20  1  0
 25 23  2  0
M  END
$$$$
