IKV.pdb
     RDKit          3D

 25 24  0  0  1  0  0  0  0  0999 V2000
   28.4645  -19.6951   -7.2645 C   0  0  0  0  0  0  0  0  0  0  0  0
   27.6660  -20.7151   -8.0035 C   0  0  0  0  0  0  0  0  0  0  0  0
   26.7518  -20.1423   -9.0641 C   0  0  2  0  0  0  0  0  0  0  0  0
   25.7240  -19.2958   -8.3505 C   0  0  0  0  0  0  0  0  0  0  0  0
   26.1571  -21.2355   -9.8859 C   0  0  2  0  0  0  0  0  0  0  0  0
   27.2131  -22.1228  -10.3221 N   0  0  0  0  0  0  0  0  0  0  0  0
   25.3851  -20.7939  -11.0410 C   0  0  0  0  0  0  0  0  0  0  0  0
   24.4424  -19.9588  -10.9997 O   0  0  0  0  0  0  0  0  0  0  0  0
   25.6804  -21.3147  -12.3258 N   0  0  0  0  0  0  0  0  0  0  0  0
   24.9425  -20.8863  -13.5459 C   0  0  1  0  0  0  0  0  0  0  0  0
   25.4354  -21.6307  -14.7288 C   0  0  0  0  0  0  0  0  0  0  0  0
   24.6888  -21.2275  -15.9697 C   0  0  0  0  0  0  0  0  0  0  0  0
   25.6386  -20.6060  -16.9961 C   0  0  0  0  0  0  0  0  0  0  0  0
   24.7675  -20.1670  -18.1766 C   0  0  0  0  0  0  0  0  0  0  0  0
   25.5791  -19.6470  -19.2461 N   0  0  0  0  0  0  0  0  0  0  0  0
   23.4924  -21.0677  -13.2923 C   0  0  0  0  0  0  0  0  0  0  0  0
   22.9643  -22.0381  -12.7070 O   0  0  0  0  0  0  0  0  0  0  0  0
   19.1341  -18.7490  -12.6976 C   0  0  0  0  0  0  0  0  0  0  0  0
   20.5702  -18.7298  -13.1376 C   0  0  2  0  0  0  0  0  0  0  0  0
   20.7870  -17.8585  -14.3327 C   0  0  0  0  0  0  0  0  0  0  0  0
   21.1425  -20.1189  -13.3267 C   0  0  2  0  0  0  0  0  0  0  0  0
   22.5321  -20.0799  -13.7287 N   0  0  0  0  0  0  0  0  0  0  0  0
   20.3683  -20.7648  -14.4010 C   0  0  0  0  0  0  0  0  0  0  0  0
   19.2354  -21.2236  -14.1537 O   0  0  0  0  0  0  0  0  0  0  0  0
   20.8829  -20.8662  -15.6722 O   0  0  0  0  0  0  0  0  0  0  0  0
  2  1  1  0
  3  2  1  0
  3  4  1  1
  5  3  1  0
  5  6  1  6
  7  5  1  0
  7  8  2  0
  9  7  1  0
 10  9  1  0
 10 11  1  6
 12 11  1  0
 13 12  1  0
 13 14  1  0
 15 14  1  0
 16 22  1  0
 16 10  1  0
 17 16  2  0
 19 18  1  6
 19 21  1  0
 20 19  1  0
 21 23  1  0
 21 22  1  6
 23 25  1  0
 24 23  2  0
M  END
$$$$
