IKV.pdb
     RDKit          3D

 25 24  0  0  1  0  0  0  0  0999 V2000
   21.3127  -20.1384  -18.8093 C   0  0  0  0  0  0  0  0  0  0  0  0
   22.1348  -19.3216  -17.8706 C   0  0  0  0  0  0  0  0  0  0  0  0
   23.0066  -20.1331  -16.9378 C   0  0  2  0  0  0  0  0  0  0  0  0
   22.0932  -21.0717  -16.1850 C   0  0  0  0  0  0  0  0  0  0  0  0
   23.7996  -19.2339  -16.0509 C   0  0  2  0  0  0  0  0  0  0  0  0
   24.6248  -18.3739  -16.8707 N   0  0  0  0  0  0  0  0  0  0  0  0
   24.6329  -19.9116  -15.0652 C   0  0  0  0  0  0  0  0  0  0  0  0
   24.2134  -20.7493  -14.2226 O   0  0  0  0  0  0  0  0  0  0  0  0
   26.0232  -19.6403  -15.0129 N   0  0  0  0  0  0  0  0  0  0  0  0
   26.9071  -20.2195  -13.9642 C   0  0  1  0  0  0  0  0  0  0  0  0
   28.3254  -19.9126  -14.2649 C   0  0  0  0  0  0  0  0  0  0  0  0
   29.2254  -20.3781  -13.1544 C   0  0  0  0  0  0  0  0  0  0  0  0
   30.3290  -21.2891  -13.6965 C   0  0  0  0  0  0  0  0  0  0  0  0
   31.1415  -21.7487  -12.4826 C   0  0  0  0  0  0  0  0  0  0  0  0
   32.1645  -22.6826  -12.8751 N   0  0  0  0  0  0  0  0  0  0  0  0
   26.4548  -19.7062  -12.6482 C   0  0  0  0  0  0  0  0  0  0  0  0
   26.1850  -18.5159  -12.3768 O   0  0  0  0  0  0  0  0  0  0  0  0
   23.4963  -20.8170  -10.6436 C   0  0  0  0  0  0  0  0  0  0  0  0
   24.6642  -20.8769   -9.7007 C   0  0  2  0  0  0  0  0  0  0  0  0
   24.2936  -20.4711   -8.3105 C   0  0  0  0  0  0  0  0  0  0  0  0
   25.8722  -20.1242  -10.2173 C   0  0  2  0  0  0  0  0  0  0  0  0
   26.2842  -20.5955  -11.5220 N   0  0  0  0  0  0  0  0  0  0  0  0
   26.9732  -20.3670   -9.2689 C   0  0  0  0  0  0  0  0  0  0  0  0
   27.8795  -21.1692   -9.5693 O   0  0  0  0  0  0  0  0  0  0  0  0
   27.0106  -19.7179   -8.0572 O   0  0  0  0  0  0  0  0  0  0  0  0
  2  1  1  0
  3  2  1  0
  3  4  1  1
  5  3  1  0
  5  6  1  6
  7  5  1  0
  7  8  2  0
  9  7  1  0
 10  9  1  0
 10 11  1  6
 12 11  1  0
 13 12  1  0
 13 14  1  0
 15 14  1  0
 16 22  1  0
 16 10  1  0
 17 16  2  0
 19 18  1  6
 19 21  1  0
 20 19  1  0
 21 23  1  0
 21 22  1  6
 23 25  1  0
 24 23  2  0
M  END
$$$$
