IKV.pdb
     RDKit          3D

 25 24  0  0  1  0  0  0  0  0999 V2000
   29.2081  -18.1374  -17.7459 C   0  0  0  0  0  0  0  0  0  0  0  0
   29.2107  -19.2296  -16.7305 C   0  0  0  0  0  0  0  0  0  0  0  0
   27.8457  -19.5616  -16.1687 C   0  0  2  0  0  0  0  0  0  0  0  0
   27.3040  -18.2952  -15.5482 C   0  0  0  0  0  0  0  0  0  0  0  0
   27.9387  -20.7018  -15.2120 C   0  0  2  0  0  0  0  0  0  0  0  0
   28.4760  -21.8529  -15.9040 N   0  0  0  0  0  0  0  0  0  0  0  0
   26.6877  -21.0674  -14.5588 C   0  0  0  0  0  0  0  0  0  0  0  0
   25.7682  -21.7436  -15.0927 O   0  0  0  0  0  0  0  0  0  0  0  0
   26.4431  -20.6544  -13.2251 N   0  0  0  0  0  0  0  0  0  0  0  0
   25.1696  -20.9633  -12.5184 C   0  0  1  0  0  0  0  0  0  0  0  0
   25.3339  -20.7639  -11.0591 C   0  0  0  0  0  0  0  0  0  0  0  0
   24.0609  -21.0796  -10.3246 C   0  0  0  0  0  0  0  0  0  0  0  0
   24.2399  -20.8791   -8.8181 C   0  0  0  0  0  0  0  0  0  0  0  0
   22.8727  -21.1494   -8.1834 C   0  0  0  0  0  0  0  0  0  0  0  0
   22.9258  -20.9669   -6.7563 N   0  0  0  0  0  0  0  0  0  0  0  0
   24.0995  -20.1272  -13.1149 C   0  0  0  0  0  0  0  0  0  0  0  0
   24.0861  -18.8782  -13.1678 O   0  0  0  0  0  0  0  0  0  0  0  0
   20.6643  -19.4843  -16.4851 C   0  0  0  0  0  0  0  0  0  0  0  0
   21.7305  -20.2970  -15.8073 C   0  0  2  0  0  0  0  0  0  0  0  0
   21.5510  -21.7649  -16.0252 C   0  0  0  0  0  0  0  0  0  0  0  0
   21.8895  -19.9478  -14.3425 C   0  0  2  0  0  0  0  0  0  0  0  0
   22.9297  -20.7310  -13.7110 N   0  0  0  0  0  0  0  0  0  0  0  0
   20.6103  -20.2587  -13.6808 C   0  0  0  0  0  0  0  0  0  0  0  0
   19.6170  -19.5341  -13.8889 O   0  0  0  0  0  0  0  0  0  0  0  0
   20.5021  -21.3391  -12.8371 O   0  0  0  0  0  0  0  0  0  0  0  0
  2  1  1  0
  3  2  1  0
  3  4  1  1
  5  3  1  0
  5  6  1  6
  7  5  1  0
  7  8  2  0
  9  7  1  0
 10  9  1  0
 10 11  1  1
 12 11  1  0
 13 12  1  0
 13 14  1  0
 15 14  1  0
 16 22  1  0
 16 10  1  0
 17 16  2  0
 19 18  1  1
 19 21  1  0
 20 19  1  0
 21 23  1  0
 21 22  1  1
 23 25  1  0
 24 23  2  0
M  END
$$$$
