IKV.pdb
     RDKit          3D

 25 24  0  0  1  0  0  0  0  0999 V2000
   27.6221  -19.5120   -8.0998 C   0  0  0  0  0  0  0  0  0  0  0  0
   26.6771  -20.2381   -8.9963 C   0  0  0  0  0  0  0  0  0  0  0  0
   25.2274  -19.8396   -8.8278 C   0  0  2  0  0  0  0  0  0  0  0  0
   24.8521  -20.1354   -7.3948 C   0  0  0  0  0  0  0  0  0  0  0  0
   24.3731  -20.5454   -9.8257 C   0  0  2  0  0  0  0  0  0  0  0  0
   24.5646  -21.9721   -9.6826 N   0  0  0  0  0  0  0  0  0  0  0  0
   24.5952  -20.1621  -11.2146 C   0  0  0  0  0  0  0  0  0  0  0  0
   24.4567  -18.9953  -11.6699 O   0  0  0  0  0  0  0  0  0  0  0  0
   24.9975  -21.1396  -12.1590 N   0  0  0  0  0  0  0  0  0  0  0  0
   25.2377  -20.8100  -13.5908 C   0  0  1  0  0  0  0  0  0  0  0  0
   26.4165  -21.5532  -14.0953 C   0  0  0  0  0  0  0  0  0  0  0  0
   26.7465  -21.1489  -15.5051 C   0  0  0  0  0  0  0  0  0  0  0  0
   27.9691  -21.9139  -16.0166 C   0  0  0  0  0  0  0  0  0  0  0  0
   28.2490  -21.3835  -17.4257 C   0  0  0  0  0  0  0  0  0  0  0  0
   29.5131  -21.8698  -17.9139 N   0  0  0  0  0  0  0  0  0  0  0  0
   23.9909  -21.0938  -14.3423 C   0  0  0  0  0  0  0  0  0  0  0  0
   23.2410  -22.0804  -14.1762 O   0  0  0  0  0  0  0  0  0  0  0  0
   21.9307  -17.9460  -16.4047 C   0  0  0  0  0  0  0  0  0  0  0  0
   21.3369  -19.2409  -15.9280 C   0  0  2  0  0  0  0  0  0  0  0  0
   20.7881  -19.1381  -14.5413 C   0  0  0  0  0  0  0  0  0  0  0  0
   22.2836  -20.4119  -16.0869 C   0  0  2  0  0  0  0  0  0  0  0  0
   23.5278  -20.1998  -15.3789 N   0  0  0  0  0  0  0  0  0  0  0  0
   22.5844  -20.5351  -17.5239 C   0  0  0  0  0  0  0  0  0  0  0  0
   23.6892  -20.1518  -17.9572 O   0  0  0  0  0  0  0  0  0  0  0  0
   21.6593  -21.0681  -18.3905 O   0  0  0  0  0  0  0  0  0  0  0  0
  2  1  1  0
  3  2  1  0
  3  4  1  1
  5  3  1  0
  5  6  1  6
  7  5  1  0
  7  8  2  0
  9  7  1  0
 10  9  1  0
 10 11  1  6
 12 11  1  0
 13 12  1  0
 13 14  1  0
 15 14  1  0
 16 22  1  0
 16 10  1  0
 17 16  2  0
 19 18  1  1
 19 21  1  0
 20 19  1  0
 21 23  1  0
 21 22  1  1
 23 25  1  0
 24 23  2  0
M  END
$$$$
