PRI.pdb
     RDKit          3D

 27 27  0  0  1  0  0  0  0  0999 V2000
   21.4419  -29.3166  -11.4038 N   0  0  0  0  0  0  0  0  0  0  0  0
   21.5234  -30.7342  -11.7014 C   0  0  0  0  0  0  0  0  0  0  0  0
   20.4034  -31.3762  -10.9194 C   0  0  0  0  0  0  0  0  0  0  0  0
   19.5239  -30.2203  -10.5179 C   0  0  0  0  0  0  0  0  0  0  0  0
   20.0320  -29.0706  -11.3975 C   0  0  1  0  0  0  0  0  0  0  0  0
   19.6659  -27.8150  -10.6980 C   0  0  0  0  0  0  0  0  0  0  0  0
   20.5023  -27.4164   -9.8184 O   0  0  0  0  0  0  0  0  0  0  0  0
   17.9341  -20.2984  -10.3241 N   0  0  0  0  0  0  0  0  0  0  0  0
   18.0601  -20.8879  -11.6097 C   0  0  0  0  0  0  0  0  0  0  0  0
   18.8682  -20.3480  -12.4745 N   0  0  0  0  0  0  0  0  0  0  0  0
   17.3496  -22.0393  -12.0066 N   0  0  0  0  0  0  0  0  0  0  0  0
   16.3885  -22.6710  -11.1461 C   0  0  0  0  0  0  0  0  0  0  0  0
   17.1678  -23.6082  -10.2135 C   0  0  0  0  0  0  0  0  0  0  0  0
   17.5248  -24.8165  -11.0169 C   0  0  0  0  0  0  0  0  0  0  0  0
   18.2285  -25.8826  -10.2276 C   0  0  2  0  0  0  0  0  0  0  0  0
   18.4837  -27.0761  -10.9537 N   0  0  0  0  0  0  0  0  0  0  0  0
   17.3533  -26.2228   -9.0505 C   0  0  0  0  0  0  0  0  0  0  0  0
   16.2938  -26.8816   -9.1884 O   0  0  0  0  0  0  0  0  0  0  0  0
   19.0326  -20.7044  -13.4195 C   0  0  0  0  0  0  0  0  0  0  0  0
   18.2731  -26.7366   -2.9515 C   0  0  0  0  0  0  0  0  0  0  0  0
   17.3493  -26.7120   -4.1137 C   0  0  2  0  0  0  0  0  0  0  0  0
   17.9080  -26.3027   -5.4221 C   0  0  0  0  0  0  0  0  0  0  0  0
   18.9065  -25.1595   -5.3193 C   0  0  2  0  0  0  0  0  0  0  0  0
   16.9807  -26.2021   -6.5802 N   0  0  0  0  0  0  0  0  0  0  0  0
   17.7465  -25.7858   -7.7794 C   0  0  0  0  0  0  0  0  0  0  0  0
   15.8560  -25.2714   -6.4528 O   0  0  0  0  0  0  0  0  0  0  0  0
   15.7055  -24.0717   -7.1225 O   0  0  0  0  0  0  0  0  0  0  0  0
  1  2  1  0
  3  2  1  0
  4  5  1  0
  4  3  1  0
  5  1  1  0
  5  6  1  1
  7  6  2  0
  9 11  1  0
  9  8  1  0
 10  9  2  0
 12 11  1  0
 13 14  1  0
 13 12  1  0
 15 14  1  6
 15 16  1  0
 16  6  1  0
 17 24  1  0
 17 15  1  0
 18 17  2  0
 20 19  1  0
 20 21  1  0
 21 22  1  6
 23 21  1  0
 23 25  1  0
 23 24  1  1
 25 26  1  0
 27 25  2  0
M  END
$$$$
