PRI.pdb
     RDKit          3D

 27 27  0  0  1  0  0  0  0  0999 V2000
   20.2843  -18.9559  -16.7638 N   0  0  0  0  0  0  0  0  0  0  0  0
   19.1360  -18.5946  -17.5736 C   0  0  0  0  0  0  0  0  0  0  0  0
   18.1629  -19.7393  -17.4282 C   0  0  0  0  0  0  0  0  0  0  0  0
   18.6754  -20.5105  -16.2393 C   0  0  0  0  0  0  0  0  0  0  0  0
   19.6866  -19.5467  -15.6052 C   0  0  1  0  0  0  0  0  0  0  0  0
   20.6327  -20.3841  -14.8284 C   0  0  0  0  0  0  0  0  0  0  0  0
   20.1985  -20.7935  -13.6987 O   0  0  0  0  0  0  0  0  0  0  0  0
   25.9949  -21.7568  -18.8396 N   0  0  0  0  0  0  0  0  0  0  0  0
   26.8192  -22.5794  -18.0271 C   0  0  0  0  0  0  0  0  0  0  0  0
   28.1117  -22.4718  -18.1276 N   0  0  0  0  0  0  0  0  0  0  0  0
   26.3092  -23.5178  -17.1066 N   0  0  0  0  0  0  0  0  0  0  0  0
   24.9002  -23.6504  -16.8614 C   0  0  0  0  0  0  0  0  0  0  0  0
   24.4455  -22.3694  -16.1488 C   0  0  0  0  0  0  0  0  0  0  0  0
   23.3234  -22.7564  -15.2410 C   0  0  0  0  0  0  0  0  0  0  0  0
   22.7338  -21.6033  -14.4811 C   0  0  2  0  0  0  0  0  0  0  0  0
   21.9348  -20.7315  -15.2674 N   0  0  0  0  0  0  0  0  0  0  0  0
   23.8779  -20.8094  -13.9086 C   0  0  0  0  0  0  0  0  0  0  0  0
   24.2665  -19.7406  -14.4398 O   0  0  0  0  0  0  0  0  0  0  0  0
   28.7853  -23.0835  -17.6594 C   0  0  0  0  0  0  0  0  0  0  0  0
   26.4557  -20.1288   -8.3679 C   0  0  0  0  0  0  0  0  0  0  0  0
   26.5139  -19.9250   -9.8375 C   0  0  2  0  0  0  0  0  0  0  0  0
   25.6404  -20.7726  -10.6801 C   0  0  0  0  0  0  0  0  0  0  0  0
   25.6762  -22.2439  -10.2945 C   0  0  2  0  0  0  0  0  0  0  0  0
   25.6258  -20.5252  -12.1463 N   0  0  0  0  0  0  0  0  0  0  0  0
   24.5114  -21.2898  -12.7556 C   0  0  0  0  0  0  0  0  0  0  0  0
   26.8372  -20.8766  -12.8923 O   0  0  0  0  0  0  0  0  0  0  0  0
   27.1186  -22.1014  -13.4676 O   0  0  0  0  0  0  0  0  0  0  0  0
  1  2  1  0
  3  2  1  0
  4  5  1  0
  4  3  1  0
  5  1  1  0
  5  6  1  6
  7  6  2  0
  9 11  1  0
  9  8  1  0
 10  9  2  0
 12 11  1  0
 13 14  1  0
 13 12  1  0
 15 14  1  6
 15 16  1  0
 16  6  1  0
 17 24  1  0
 17 15  1  0
 18 17  2  0
 20 19  1  0
 20 21  1  0
 21 22  1  1
 23 21  1  0
 23 25  1  0
 23 24  1  6
 25 26  1  0
 27 25  2  0
M  END
$$$$
