PRI.pdb
     RDKit          3D

 27 27  0  0  1  0  0  0  0  0999 V2000
   27.8842  -21.7069  -15.9381 N   0  0  0  0  0  0  0  0  0  0  0  0
   28.5694  -21.5086  -17.2015 C   0  0  0  0  0  0  0  0  0  0  0  0
   28.8059  -20.0214  -17.3038 C   0  0  0  0  0  0  0  0  0  0  0  0
   28.5656  -19.5125  -15.9059 C   0  0  0  0  0  0  0  0  0  0  0  0
   28.5547  -20.7942  -15.0629 C   0  0  1  0  0  0  0  0  0  0  0  0
   27.7742  -20.4845  -13.8403 C   0  0  0  0  0  0  0  0  0  0  0  0
   28.3218  -19.6536  -13.0390 O   0  0  0  0  0  0  0  0  0  0  0  0
   21.2813  -21.5298  -15.2654 N   0  0  0  0  0  0  0  0  0  0  0  0
   21.1151  -21.9020  -13.9053 C   0  0  0  0  0  0  0  0  0  0  0  0
   20.6190  -23.0721  -13.6279 N   0  0  0  0  0  0  0  0  0  0  0  0
   21.4615  -21.0642  -12.8254 N   0  0  0  0  0  0  0  0  0  0  0  0
   21.8430  -19.6934  -13.0215 C   0  0  0  0  0  0  0  0  0  0  0  0
   23.2367  -19.5218  -12.4022 C   0  0  0  0  0  0  0  0  0  0  0  0
   24.1862  -20.2978  -13.2560 C   0  0  0  0  0  0  0  0  0  0  0  0
   25.5921  -20.3237  -12.7293 C   0  0  2  0  0  0  0  0  0  0  0  0
   26.5077  -21.0456  -13.5400 N   0  0  0  0  0  0  0  0  0  0  0  0
   25.5518  -20.9704  -11.3702 C   0  0  0  0  0  0  0  0  0  0  0  0
   25.5202  -22.2182  -11.2371 O   0  0  0  0  0  0  0  0  0  0  0  0
   20.5258  -23.4564  -12.6841 C   0  0  0  0  0  0  0  0  0  0  0  0
   28.6745  -19.1666   -7.4059 C   0  0  0  0  0  0  0  0  0  0  0  0
   27.7976  -20.0020   -8.2648 C   0  0  2  0  0  0  0  0  0  0  0  0
   26.3490  -20.0097   -7.9600 C   0  0  0  0  0  0  0  0  0  0  0  0
   26.0454  -20.2276   -6.4852 C   0  0  2  0  0  0  0  0  0  0  0  0
   25.4413  -20.7386   -8.8850 N   0  0  0  0  0  0  0  0  0  0  0  0
   25.5503  -20.1447  -10.2389 C   0  0  0  0  0  0  0  0  0  0  0  0
   24.0163  -20.7541   -8.5437 O   0  0  0  0  0  0  0  0  0  0  0  0
   23.0215  -20.0072   -9.1461 O   0  0  0  0  0  0  0  0  0  0  0  0
  1  2  1  0
  3  2  1  0
  4  5  1  0
  4  3  1  0
  5  1  1  0
  5  6  1  1
  7  6  2  0
  9 11  1  0
  9  8  1  0
 10  9  2  0
 12 11  1  0
 13 14  1  0
 13 12  1  0
 15 14  1  6
 15 16  1  0
 16  6  1  0
 17 24  1  0
 17 15  1  0
 18 17  2  0
 20 19  1  0
 20 21  1  0
 21 22  1  6
 23 21  1  0
 23 25  1  0
 23 24  1  6
 25 26  1  0
 27 25  2  0
M  END
$$$$
