PRI.pdb
     RDKit          3D

 27 27  0  0  1  0  0  0  0  0999 V2000
   27.7129  -21.8866  -15.9051 N   0  0  0  0  0  0  0  0  0  0  0  0
   27.9771  -22.0940  -17.3165 C   0  0  0  0  0  0  0  0  0  0  0  0
   27.7066  -20.7645  -17.9778 C   0  0  0  0  0  0  0  0  0  0  0  0
   27.6635  -19.7851  -16.8333 C   0  0  0  0  0  0  0  0  0  0  0  0
   28.2556  -20.5841  -15.6651 C   0  0  1  0  0  0  0  0  0  0  0  0
   27.7357  -19.9593  -14.4245 C   0  0  0  0  0  0  0  0  0  0  0  0
   28.1613  -18.7780  -14.1886 O   0  0  0  0  0  0  0  0  0  0  0  0
   20.0460  -21.2810  -12.7491 N   0  0  0  0  0  0  0  0  0  0  0  0
   20.6865  -21.7295  -13.9343 C   0  0  0  0  0  0  0  0  0  0  0  0
   20.1624  -22.7171  -14.5992 N   0  0  0  0  0  0  0  0  0  0  0  0
   21.8732  -21.1576  -14.4371 N   0  0  0  0  0  0  0  0  0  0  0  0
   22.5701  -20.1168  -13.7340 C   0  0  0  0  0  0  0  0  0  0  0  0
   24.0006  -20.6176  -13.4923 C   0  0  0  0  0  0  0  0  0  0  0  0
   24.7436  -19.4994  -12.8363 C   0  0  0  0  0  0  0  0  0  0  0  0
   26.1785  -19.8212  -12.5330 C   0  0  2  0  0  0  0  0  0  0  0  0
   26.8304  -20.5891  -13.5341 N   0  0  0  0  0  0  0  0  0  0  0  0
   26.2023  -20.6033  -11.2466 C   0  0  0  0  0  0  0  0  0  0  0  0
   26.1087  -21.8550  -11.2369 O   0  0  0  0  0  0  0  0  0  0  0  0
   20.5357  -23.0930  -15.4747 C   0  0  0  0  0  0  0  0  0  0  0  0
   28.7113  -20.0884   -5.7633 C   0  0  0  0  0  0  0  0  0  0  0  0
   27.4539  -20.4684   -6.4556 C   0  0  2  0  0  0  0  0  0  0  0  0
   27.1954  -19.8655   -7.7826 C   0  0  0  0  0  0  0  0  0  0  0  0
   26.8605  -18.3830   -7.7153 C   0  0  2  0  0  0  0  0  0  0  0  0
   26.3732  -20.6343   -8.7543 N   0  0  0  0  0  0  0  0  0  0  0  0
   26.3327  -19.9009  -10.0419 C   0  0  0  0  0  0  0  0  0  0  0  0
   24.9831  -20.9078   -8.3796 O   0  0  0  0  0  0  0  0  0  0  0  0
   23.8537  -20.4434   -9.0269 O   0  0  0  0  0  0  0  0  0  0  0  0
  1  2  1  0
  3  2  1  0
  4  5  1  0
  4  3  1  0
  5  1  1  0
  5  6  1  1
  7  6  2  0
  9 11  1  0
  9  8  1  0
 10  9  2  0
 12 11  1  0
 13 14  1  0
 13 12  1  0
 15 14  1  6
 15 16  1  0
 16  6  1  0
 17 24  1  0
 17 15  1  0
 18 17  2  0
 20 19  1  0
 20 21  1  0
 21 22  1  6
 23 21  1  0
 23 25  1  0
 23 24  1  1
 25 26  1  0
 27 25  2  0
M  END
$$$$
