PRI.pdb
     RDKit          3D

 27 27  0  0  1  0  0  0  0  0999 V2000
   27.7491  -20.3131  -17.2549 N   0  0  0  0  0  0  0  0  0  0  0  0
   28.7239  -19.8688  -18.2333 C   0  0  0  0  0  0  0  0  0  0  0  0
   28.9174  -18.3952  -17.9704 C   0  0  0  0  0  0  0  0  0  0  0  0
   28.3095  -18.1804  -16.6083 C   0  0  0  0  0  0  0  0  0  0  0  0
   28.1375  -19.6074  -16.0718 C   0  0  1  0  0  0  0  0  0  0  0  0
   27.0602  -19.5450  -15.0543 C   0  0  0  0  0  0  0  0  0  0  0  0
   27.3519  -18.9024  -13.9892 O   0  0  0  0  0  0  0  0  0  0  0  0
   19.8152  -21.9651  -12.6809 N   0  0  0  0  0  0  0  0  0  0  0  0
   20.3419  -22.3336  -13.9470 C   0  0  0  0  0  0  0  0  0  0  0  0
   20.2509  -23.5731  -14.3312 N   0  0  0  0  0  0  0  0  0  0  0  0
   20.9657  -21.4204  -14.8217 N   0  0  0  0  0  0  0  0  0  0  0  0
   20.9400  -20.0042  -14.5834 C   0  0  0  0  0  0  0  0  0  0  0  0
   22.2674  -19.6383  -13.9054 C   0  0  0  0  0  0  0  0  0  0  0  0
   23.3575  -20.0650  -14.8341 C   0  0  0  0  0  0  0  0  0  0  0  0
   24.7391  -19.8114  -14.3036 C   0  0  2  0  0  0  0  0  0  0  0  0
   25.7831  -20.1402  -15.2085 N   0  0  0  0  0  0  0  0  0  0  0  0
   24.9062  -20.6494  -13.0639 C   0  0  0  0  0  0  0  0  0  0  0  0
   25.2059  -21.8666  -13.1292 O   0  0  0  0  0  0  0  0  0  0  0  0
   20.6500  -23.9454  -15.1968 C   0  0  0  0  0  0  0  0  0  0  0  0
   27.4544  -20.1345   -7.6977 C   0  0  0  0  0  0  0  0  0  0  0  0
   26.4351  -20.8349   -8.5194 C   0  0  2  0  0  0  0  0  0  0  0  0
   26.0650  -20.2240   -9.8160 C   0  0  0  0  0  0  0  0  0  0  0  0
   26.0740  -18.7029   -9.7891 C   0  0  2  0  0  0  0  0  0  0  0  0
   24.9287  -20.8152  -10.5711 N   0  0  0  0  0  0  0  0  0  0  0  0
   24.7190  -20.0397  -11.8170 C   0  0  0  0  0  0  0  0  0  0  0  0
   23.6341  -20.8740   -9.8869 O   0  0  0  0  0  0  0  0  0  0  0  0
   23.2740  -21.7612   -8.8901 O   0  0  0  0  0  0  0  0  0  0  0  0
  1  2  1  0
  3  2  1  0
  4  5  1  0
  4  3  1  0
  5  1  1  0
  5  6  1  1
  7  6  2  0
  9 11  1  0
  9  8  1  0
 10  9  2  0
 12 11  1  0
 13 14  1  0
 13 12  1  0
 15 14  1  6
 15 16  1  0
 16  6  1  0
 17 24  1  0
 17 15  1  0
 18 17  2  0
 20 19  1  0
 20 21  1  0
 21 22  1  6
 23 21  1  0
 23 25  1  0
 23 24  1  1
 25 26  1  0
 27 25  2  0
M  END
$$$$
