PRI.pdb
     RDKit          3D

 27 27  0  0  1  0  0  0  0  0999 V2000
   25.4005  -16.2916  -15.0103 N   0  0  0  0  0  0  0  0  0  0  0  0
   24.8549  -15.1255  -15.6792 C   0  0  0  0  0  0  0  0  0  0  0  0
   24.2482  -15.6421  -16.9611 C   0  0  0  0  0  0  0  0  0  0  0  0
   24.1640  -17.1325  -16.7551 C   0  0  0  0  0  0  0  0  0  0  0  0
   24.4058  -17.2928  -15.2487 C   0  0  1  0  0  0  0  0  0  0  0  0
   24.9132  -18.6723  -15.0506 C   0  0  0  0  0  0  0  0  0  0  0  0
   24.0191  -19.5846  -15.0268 O   0  0  0  0  0  0  0  0  0  0  0  0
   28.1464  -24.9126  -17.0581 N   0  0  0  0  0  0  0  0  0  0  0  0
   29.3964  -24.8791  -16.3855 C   0  0  0  0  0  0  0  0  0  0  0  0
   29.9909  -26.0014  -16.1036 N   0  0  0  0  0  0  0  0  0  0  0  0
   30.0371  -23.6834  -16.0010 N   0  0  0  0  0  0  0  0  0  0  0  0
   29.4941  -22.3941  -16.3263 C   0  0  0  0  0  0  0  0  0  0  0  0
   28.2802  -22.1742  -15.4132 C   0  0  0  0  0  0  0  0  0  0  0  0
   27.8845  -20.7408  -15.5601 C   0  0  0  0  0  0  0  0  0  0  0  0
   26.6682  -20.3636  -14.7646 C   0  0  2  0  0  0  0  0  0  0  0  0
   26.2826  -19.0029  -14.8945 N   0  0  0  0  0  0  0  0  0  0  0  0
   26.9770  -20.6315  -13.3155 C   0  0  0  0  0  0  0  0  0  0  0  0
   28.1361  -20.4925  -12.8543 O   0  0  0  0  0  0  0  0  0  0  0  0
   30.9149  -26.0783  -15.6706 C   0  0  0  0  0  0  0  0  0  0  0  0
   27.4923  -19.1628   -8.1805 C   0  0  0  0  0  0  0  0  0  0  0  0
   27.0193  -20.3730   -8.8990 C   0  0  2  0  0  0  0  0  0  0  0  0
   26.7904  -20.2564  -10.3569 C   0  0  0  0  0  0  0  0  0  0  0  0
   26.1949  -18.9180  -10.7676 C   0  0  2  0  0  0  0  0  0  0  0  0
   26.2158  -21.4263  -11.0726 N   0  0  0  0  0  0  0  0  0  0  0  0
   25.9341  -21.0448  -12.4771 C   0  0  0  0  0  0  0  0  0  0  0  0
   24.9776  -21.9942  -10.5323 O   0  0  0  0  0  0  0  0  0  0  0  0
   23.7325  -21.9633  -11.1314 O   0  0  0  0  0  0  0  0  0  0  0  0
  1  2  1  0
  3  2  1  0
  4  5  1  0
  4  3  1  0
  5  1  1  0
  5  6  1  6
  7  6  2  0
  9 11  1  0
  9  8  1  0
 10  9  2  0
 12 11  1  0
 13 14  1  0
 13 12  1  0
 15 14  1  6
 15 16  1  0
 16  6  1  0
 17 24  1  0
 17 15  1  0
 18 17  2  0
 20 19  1  0
 20 21  1  0
 21 22  1  6
 23 21  1  0
 23 25  1  0
 23 24  1  1
 25 26  1  0
 27 25  2  0
M  END
$$$$
