PRI.pdb
     RDKit          3D

 27 27  0  0  1  0  0  0  0  0999 V2000
   28.7270  -19.7640  -17.6806 N   0  0  0  0  0  0  0  0  0  0  0  0
   29.8934  -20.0103  -18.5076 C   0  0  0  0  0  0  0  0  0  0  0  0
   29.5280  -21.1852  -19.3818 C   0  0  0  0  0  0  0  0  0  0  0  0
   28.0308  -21.2926  -19.2488 C   0  0  0  0  0  0  0  0  0  0  0  0
   27.6406  -19.9627  -18.5910 C   0  0  1  0  0  0  0  0  0  0  0  0
   26.3463  -20.1983  -17.9061 C   0  0  0  0  0  0  0  0  0  0  0  0
   25.3511  -20.4120  -18.6783 O   0  0  0  0  0  0  0  0  0  0  0  0
   23.7326  -21.1882  -11.5359 N   0  0  0  0  0  0  0  0  0  0  0  0
   23.2831  -22.4076  -12.1080 C   0  0  0  0  0  0  0  0  0  0  0  0
   22.0331  -22.7429  -11.9761 N   0  0  0  0  0  0  0  0  0  0  0  0
   24.1258  -23.2860  -12.8195 N   0  0  0  0  0  0  0  0  0  0  0  0
   25.4926  -22.9549  -13.1115 C   0  0  0  0  0  0  0  0  0  0  0  0
   25.5361  -22.4678  -14.5663 C   0  0  0  0  0  0  0  0  0  0  0  0
   24.9391  -21.0980  -14.5800 C   0  0  0  0  0  0  0  0  0  0  0  0
   24.8996  -20.4680  -15.9425 C   0  0  2  0  0  0  0  0  0  0  0  0
   26.1776  -20.1959  -16.4988 N   0  0  0  0  0  0  0  0  0  0  0  0
   24.1521  -19.1672  -15.8155 C   0  0  0  0  0  0  0  0  0  0  0  0
   24.6236  -18.1989  -15.1708 O   0  0  0  0  0  0  0  0  0  0  0  0
   21.6070  -23.5765  -12.3892 C   0  0  0  0  0  0  0  0  0  0  0  0
   23.1760  -16.4099  -19.8650 C   0  0  0  0  0  0  0  0  0  0  0  0
   23.2988  -16.9572  -18.4901 C   0  0  2  0  0  0  0  0  0  0  0  0
   22.0477  -17.2006  -17.7372 C   0  0  0  0  0  0  0  0  0  0  0  0
   21.0391  -16.0686  -17.8636 C   0  0  2  0  0  0  0  0  0  0  0  0
   22.1523  -17.7762  -16.3702 N   0  0  0  0  0  0  0  0  0  0  0  0
   22.9028  -19.0528  -16.4380 C   0  0  0  0  0  0  0  0  0  0  0  0
   20.8966  -18.0607  -15.6703 O   0  0  0  0  0  0  0  0  0  0  0  0
   20.1603  -17.1688  -14.9136 O   0  0  0  0  0  0  0  0  0  0  0  0
  1  2  1  0
  3  2  1  0
  4  5  1  0
  4  3  1  0
  5  1  1  0
  5  6  1  1
  7  6  2  0
  9 11  1  0
  9  8  1  0
 10  9  2  0
 12 11  1  0
 13 14  1  0
 13 12  1  0
 15 14  1  1
 15 16  1  0
 16  6  1  0
 17 24  1  0
 17 15  1  0
 18 17  2  0
 20 19  1  0
 20 21  1  0
 21 22  1  6
 23 21  1  0
 23 25  1  0
 23 24  1  1
 25 26  1  0
 27 25  2  0
M  END
$$$$
