PRI.pdb
     RDKit          3D

 27 27  0  0  1  0  0  0  0  0999 V2000
   27.5212  -20.9314  -15.5443 N   0  0  0  0  0  0  0  0  0  0  0  0
   28.1788  -20.5660  -16.7848 C   0  0  0  0  0  0  0  0  0  0  0  0
   28.2968  -19.0616  -16.7517 C   0  0  0  0  0  0  0  0  0  0  0  0
   28.0283  -18.7021  -15.3131 C   0  0  0  0  0  0  0  0  0  0  0  0
   28.1248  -20.0517  -14.5901 C   0  0  1  0  0  0  0  0  0  0  0  0
   27.3319  -19.9167  -13.3439 C   0  0  0  0  0  0  0  0  0  0  0  0
   27.7908  -19.0814  -12.4929 O   0  0  0  0  0  0  0  0  0  0  0  0
   20.5618  -20.6436  -15.8856 N   0  0  0  0  0  0  0  0  0  0  0  0
   21.1360  -21.6855  -15.1106 C   0  0  0  0  0  0  0  0  0  0  0  0
   21.1534  -22.8937  -15.5927 N   0  0  0  0  0  0  0  0  0  0  0  0
   21.6951  -21.4819  -13.8323 N   0  0  0  0  0  0  0  0  0  0  0  0
   21.6889  -20.1927  -13.1989 C   0  0  0  0  0  0  0  0  0  0  0  0
   23.1448  -19.7095  -13.1492 C   0  0  0  0  0  0  0  0  0  0  0  0
   23.8586  -20.5917  -12.1770 C   0  0  0  0  0  0  0  0  0  0  0  0
   25.3082  -20.2447  -11.9954 C   0  0  2  0  0  0  0  0  0  0  0  0
   26.1443  -20.6412  -13.0726 N   0  0  0  0  0  0  0  0  0  0  0  0
   25.7842  -20.9386  -10.7468 C   0  0  0  0  0  0  0  0  0  0  0  0
   26.0790  -22.1587  -10.7451 O   0  0  0  0  0  0  0  0  0  0  0  0
   21.6096  -23.6929  -15.1452 C   0  0  0  0  0  0  0  0  0  0  0  0
   28.7153  -19.7847   -5.5251 C   0  0  0  0  0  0  0  0  0  0  0  0
   27.7160  -20.6010   -6.2598 C   0  0  2  0  0  0  0  0  0  0  0  0
   27.1801  -20.0495   -7.5248 C   0  0  0  0  0  0  0  0  0  0  0  0
   26.8338  -18.5706   -7.4377 C   0  0  2  0  0  0  0  0  0  0  0  0
   26.1946  -20.8644   -8.2835 N   0  0  0  0  0  0  0  0  0  0  0  0
   25.8947  -20.1893   -9.5687 C   0  0  0  0  0  0  0  0  0  0  0  0
   24.9077  -21.1270   -7.6335 O   0  0  0  0  0  0  0  0  0  0  0  0
   23.6951  -20.5456   -7.9526 O   0  0  0  0  0  0  0  0  0  0  0  0
  1  2  1  0
  3  2  1  0
  4  5  1  0
  4  3  1  0
  5  1  1  0
  5  6  1  1
  7  6  2  0
  9 11  1  0
  9  8  1  0
 10  9  2  0
 12 11  1  0
 13 14  1  0
 13 12  1  0
 15 14  1  6
 15 16  1  0
 16  6  1  0
 17 24  1  0
 17 15  1  0
 18 17  2  0
 20 19  1  0
 20 21  1  0
 21 22  1  6
 23 21  1  0
 23 25  1  0
 23 24  1  1
 25 26  1  0
 27 25  2  0
M  END
$$$$
