PRI.pdb
     RDKit          3D

 27 27  0  0  1  0  0  0  0  0999 V2000
   26.9475  -23.1700  -15.7840 N   0  0  0  0  0  0  0  0  0  0  0  0
   27.2557  -23.5271  -17.1560 C   0  0  0  0  0  0  0  0  0  0  0  0
   27.7785  -22.2633  -17.7947 C   0  0  0  0  0  0  0  0  0  0  0  0
   28.0817  -21.3586  -16.6283 C   0  0  0  0  0  0  0  0  0  0  0  0
   28.0330  -22.3091  -15.4250 C   0  0  1  0  0  0  0  0  0  0  0  0
   27.7381  -21.4683  -14.2392 C   0  0  0  0  0  0  0  0  0  0  0  0
   28.6356  -20.6088  -13.9427 O   0  0  0  0  0  0  0  0  0  0  0  0
   22.1633  -23.2265  -13.9498 N   0  0  0  0  0  0  0  0  0  0  0  0
   21.4150  -22.1560  -14.5066 C   0  0  0  0  0  0  0  0  0  0  0  0
   20.2669  -22.4112  -15.0624 N   0  0  0  0  0  0  0  0  0  0  0  0
   21.8519  -20.8154  -14.4908 N   0  0  0  0  0  0  0  0  0  0  0  0
   22.4490  -20.2265  -13.3248 C   0  0  0  0  0  0  0  0  0  0  0  0
   23.7621  -20.9771  -13.0644 C   0  0  0  0  0  0  0  0  0  0  0  0
   24.8217  -19.9400  -12.8784 C   0  0  0  0  0  0  0  0  0  0  0  0
   26.1836  -20.5083  -12.6011 C   0  0  2  0  0  0  0  0  0  0  0  0
   26.5588  -21.5750  -13.4603 N   0  0  0  0  0  0  0  0  0  0  0  0
   26.1778  -21.0208  -11.1853 C   0  0  0  0  0  0  0  0  0  0  0  0
   25.9016  -22.2163  -10.9206 O   0  0  0  0  0  0  0  0  0  0  0  0
   19.6555  -21.7083  -15.4857 C   0  0  0  0  0  0  0  0  0  0  0  0
   29.5268  -21.0762   -8.1072 C   0  0  0  0  0  0  0  0  0  0  0  0
   28.7766  -19.8121   -8.3171 C   0  0  1  0  0  0  0  0  0  0  0  0
   27.3514  -19.7889   -7.9175 C   0  0  0  0  0  0  0  0  0  0  0  0
   27.1450  -19.9212   -6.4160 C   0  0  2  0  0  0  0  0  0  0  0  0
   26.3801  -20.5597   -8.7382 N   0  0  0  0  0  0  0  0  0  0  0  0
   26.4907  -20.1285  -10.1522 C   0  0  0  0  0  0  0  0  0  0  0  0
   24.9654  -20.4500   -8.3723 O   0  0  0  0  0  0  0  0  0  0  0  0
   24.2937  -21.2339   -7.4532 O   0  0  0  0  0  0  0  0  0  0  0  0
  1  2  1  0
  3  2  1  0
  4  5  1  0
  4  3  1  0
  5  1  1  0
  5  6  1  1
  7  6  2  0
  9 11  1  0
  9  8  1  0
 10  9  2  0
 12 11  1  0
 13 14  1  0
 13 12  1  0
 15 14  1  6
 15 16  1  0
 16  6  1  0
 17 24  1  0
 17 15  1  0
 18 17  2  0
 20 19  1  0
 20 21  1  0
 21 22  1  1
 23 21  1  0
 23 25  1  0
 23 24  1  1
 25 26  1  0
 27 25  2  0
M  END
$$$$
