LQL.pdb
     RDKit          3D

 26 25  0  0  1  0  0  0  0  0999 V2000
    9.8780  -13.1481   19.3550 C   0  0  0  0  0  0  0  0  0  0  0  0
    8.4773  -13.3002   18.7905 C   0  0  2  0  0  0  0  0  0  0  0  0
    7.7643  -11.9724   18.8272 C   0  0  0  0  0  0  0  0  0  0  0  0
    7.6969  -14.3732   19.5399 C   0  0  0  0  0  0  0  0  0  0  0  0
    8.5914  -15.5919   19.6179 C   0  0  2  0  0  0  0  0  0  0  0  0
    8.1747  -16.5082   18.5810 N   0  0  0  0  0  0  0  0  0  0  0  0
    8.5247  -16.2610   20.9233 C   0  0  0  0  0  0  0  0  0  0  0  0
    7.4595  -16.7292   21.4120 O   0  0  0  0  0  0  0  0  0  0  0  0
   13.3219  -19.2431   23.5623 N   0  0  0  0  0  0  0  0  0  0  0  0
   12.4291  -19.1554   24.6447 C   0  0  0  0  0  0  0  0  0  0  0  0
   12.7883  -19.7590   25.7130 O   0  0  0  0  0  0  0  0  0  0  0  0
   11.1338  -18.4061   24.5690 C   0  0  0  0  0  0  0  0  0  0  0  0
   11.0485  -17.7989   23.1928 C   0  0  0  0  0  0  0  0  0  0  0  0
    9.7807  -17.0235   22.9799 C   0  0  2  0  0  0  0  0  0  0  0  0
    9.7124  -16.3956   21.6869 N   0  0  0  0  0  0  0  0  0  0  0  0
    9.7608  -15.9433   24.0302 C   0  0  0  0  0  0  0  0  0  0  0  0
   10.5896  -14.9943   23.9739 O   0  0  0  0  0  0  0  0  0  0  0  0
    7.9571  -12.7478   28.0469 C   0  0  0  0  0  0  0  0  0  0  0  0
    7.4401  -12.7674   26.6325 C   0  0  2  0  0  0  0  0  0  0  0  0
    6.1189  -12.1244   26.5352 C   0  0  0  0  0  0  0  0  0  0  0  0
    7.5697  -14.0685   25.9279 C   0  0  0  0  0  0  0  0  0  0  0  0
    8.8149  -14.8402   26.0831 C   0  0  2  0  0  0  0  0  0  0  0  0
    8.8361  -15.9526   25.0910 N   0  0  0  0  0  0  0  0  0  0  0  0
    9.1864  -15.3424   27.4014 C   0  0  0  0  0  0  0  0  0  0  0  0
    9.9643  -14.8297   28.2055 O   0  0  0  0  0  0  0  0  0  0  0  0
    8.5876  -16.5620   27.8125 O   0  0  0  0  0  0  0  0  0  0  0  0
  2  1  1  1
  2  3  1  0
  2  4  1  0
  5  4  1  0
  5  7  1  0
  5  6  1  6
  7 15  1  0
  7  8  2  0
 10  9  1  0
 10 12  1  0
 11 10  2  0
 13 12  1  0
 14 13  1  6
 14 16  1  0
 15 14  1  0
 16 23  1  0
 16 17  2  0
 19 18  1  1
 19 20  1  0
 22 21  1  1
 21 19  1  0
 22 24  1  0
 23 22  1  0
 24 26  1  0
 25 24  2  0
M  END
$$$$
