LQL.pdb
     RDKit          3D

 26 25  0  0  1  0  0  0  0  0999 V2000
    9.4444  -13.1000   19.4542 C   0  0  0  0  0  0  0  0  0  0  0  0
    7.9439  -13.3015   19.3476 C   0  0  2  0  0  0  0  0  0  0  0  0
    7.2466  -11.9649   19.3557 C   0  0  0  0  0  0  0  0  0  0  0  0
    7.4308  -14.2050   20.4622 C   0  0  0  0  0  0  0  0  0  0  0  0
    8.2077  -15.5008   20.3690 C   0  0  2  0  0  0  0  0  0  0  0  0
    7.4947  -16.3750   19.4658 N   0  0  0  0  0  0  0  0  0  0  0  0
    8.3671  -16.1607   21.6710 C   0  0  0  0  0  0  0  0  0  0  0  0
    7.3992  -16.5962   22.3539 O   0  0  0  0  0  0  0  0  0  0  0  0
   12.3824  -20.0500   23.0117 N   0  0  0  0  0  0  0  0  0  0  0  0
   12.1689  -19.6841   24.3522 C   0  0  0  0  0  0  0  0  0  0  0  0
   12.4808  -20.5638   25.2259 O   0  0  0  0  0  0  0  0  0  0  0  0
   11.6118  -18.3514   24.7504 C   0  0  0  0  0  0  0  0  0  0  0  0
   11.3460  -17.5815   23.4829 C   0  0  0  0  0  0  0  0  0  0  0  0
    9.9667  -16.9897   23.4438 C   0  0  2  0  0  0  0  0  0  0  0  0
    9.6721  -16.3245   22.2022 N   0  0  0  0  0  0  0  0  0  0  0  0
    9.9098  -15.9689   24.5505 C   0  0  0  0  0  0  0  0  0  0  0  0
   10.7507  -15.0295   24.5853 O   0  0  0  0  0  0  0  0  0  0  0  0
    8.5704  -12.0192   26.2544 C   0  0  0  0  0  0  0  0  0  0  0  0
    7.4981  -13.0388   25.9737 C   0  0  2  0  0  0  0  0  0  0  0  0
    6.1566  -12.4328   26.0177 C   0  0  0  0  0  0  0  0  0  0  0  0
    7.6407  -14.3258   26.7013 C   0  0  0  0  0  0  0  0  0  0  0  0
    8.9390  -15.0211   26.6684 C   0  0  2  0  0  0  0  0  0  0  0  0
    8.9368  -16.0242   25.5658 N   0  0  0  0  0  0  0  0  0  0  0  0
    9.4584  -15.6260   27.8900 C   0  0  0  0  0  0  0  0  0  0  0  0
    9.7198  -15.0616   28.9519 O   0  0  0  0  0  0  0  0  0  0  0  0
    9.6928  -17.0257   27.8601 O   0  0  0  0  0  0  0  0  0  0  0  0
  2  1  1  1
  2  3  1  0
  2  4  1  0
  5  4  1  0
  5  7  1  0
  5  6  1  6
  7 15  1  0
  7  8  2  0
 10  9  1  0
 10 12  1  0
 11 10  2  0
 13 12  1  0
 14 13  1  6
 14 16  1  0
 15 14  1  0
 16 23  1  0
 16 17  2  0
 19 18  1  1
 19 20  1  0
 22 21  1  1
 21 19  1  0
 22 24  1  0
 23 22  1  0
 24 26  1  0
 25 24  2  0
M  END
$$$$
