LQL.pdb
     RDKit          3D

 26 25  0  0  1  0  0  0  0  0999 V2000
    7.5360  -11.9954   19.9640 C   0  0  0  0  0  0  0  0  0  0  0  0
    8.4830  -13.1807   20.0059 C   0  0  2  0  0  0  0  0  0  0  0  0
    9.8704  -12.7409   19.6131 C   0  0  0  0  0  0  0  0  0  0  0  0
    7.9843  -14.3134   19.1168 C   0  0  0  0  0  0  0  0  0  0  0  0
    8.6543  -15.5804   19.6036 C   0  0  2  0  0  0  0  0  0  0  0  0
    8.2611  -16.6521   18.7176 N   0  0  0  0  0  0  0  0  0  0  0  0
    8.2867  -15.9214   20.9837 C   0  0  0  0  0  0  0  0  0  0  0  0
    7.0936  -15.9879   21.3902 O   0  0  0  0  0  0  0  0  0  0  0  0
   11.7110  -20.0718   23.8799 N   0  0  0  0  0  0  0  0  0  0  0  0
   10.6966  -19.8467   24.8268 C   0  0  0  0  0  0  0  0  0  0  0  0
   10.6417  -20.6820   25.7931 O   0  0  0  0  0  0  0  0  0  0  0  0
    9.7317  -18.7049   24.7260 C   0  0  0  0  0  0  0  0  0  0  0  0
   10.0547  -17.9575   23.4582 C   0  0  0  0  0  0  0  0  0  0  0  0
    9.1070  -16.8225   23.1982 C   0  0  2  0  0  0  0  0  0  0  0  0
    9.3160  -16.1930   21.9211 N   0  0  0  0  0  0  0  0  0  0  0  0
    9.3617  -15.7999   24.2751 C   0  0  0  0  0  0  0  0  0  0  0  0
   10.4371  -15.1410   24.2768 O   0  0  0  0  0  0  0  0  0  0  0  0
    7.7653  -11.8942   25.6436 C   0  0  0  0  0  0  0  0  0  0  0  0
    6.8902  -13.0114   26.1478 C   0  0  2  0  0  0  0  0  0  0  0  0
    5.6251  -12.4957   26.6976 C   0  0  0  0  0  0  0  0  0  0  0  0
    7.5792  -14.0302   26.9806 C   0  0  0  0  0  0  0  0  0  0  0  0
    8.7926  -14.6775   26.4528 C   0  0  2  0  0  0  0  0  0  0  0  0
    8.4288  -15.5470   25.2979 N   0  0  0  0  0  0  0  0  0  0  0  0
    9.6712  -15.4028   27.3639 C   0  0  0  0  0  0  0  0  0  0  0  0
    9.7227  -16.6191   27.5440 O   0  0  0  0  0  0  0  0  0  0  0  0
   10.5734  -14.6251   28.1359 O   0  0  0  0  0  0  0  0  0  0  0  0
  2  1  1  6
  2  3  1  0
  2  4  1  0
  5  4  1  0
  5  7  1  0
  5  6  1  6
  7 15  1  0
  7  8  2  0
 10  9  1  0
 10 12  1  0
 11 10  2  0
 13 12  1  0
 14 13  1  1
 14 16  1  0
 15 14  1  0
 16 23  1  0
 16 17  2  0
 19 18  1  1
 19 20  1  0
 22 21  1  1
 21 19  1  0
 22 24  1  0
 23 22  1  0
 24 26  1  0
 25 24  2  0
M  END
$$$$
