LQL.pdb
     RDKit          3D

 26 25  0  0  1  0  0  0  0  0999 V2000
    7.1931  -12.0792   24.1820 C   0  0  0  0  0  0  0  0  0  0  0  0
    6.3604  -12.8069   25.2215 C   0  0  2  0  0  0  0  0  0  0  0  0
    6.0928  -11.8953   26.3919 C   0  0  0  0  0  0  0  0  0  0  0  0
    7.0395  -14.0974   25.6635 C   0  0  0  0  0  0  0  0  0  0  0  0
    7.1326  -14.9850   24.4409 C   0  0  2  0  0  0  0  0  0  0  0  0
    5.7885  -15.3709   24.0764 N   0  0  0  0  0  0  0  0  0  0  0  0
    7.9447  -16.1861   24.6733 C   0  0  0  0  0  0  0  0  0  0  0  0
    7.6407  -17.0809   25.5099 O   0  0  0  0  0  0  0  0  0  0  0  0
   13.0710  -17.7521   21.1416 N   0  0  0  0  0  0  0  0  0  0  0  0
   12.4892  -16.4999   21.4063 C   0  0  0  0  0  0  0  0  0  0  0  0
   13.1042  -15.4875   20.9253 O   0  0  0  0  0  0  0  0  0  0  0  0
   11.2283  -16.3429   22.2002 C   0  0  0  0  0  0  0  0  0  0  0  0
   11.0625  -17.5913   23.0272 C   0  0  0  0  0  0  0  0  0  0  0  0
   10.0965  -17.4097   24.1620 C   0  0  2  0  0  0  0  0  0  0  0  0
    9.1367  -16.3639   23.9253 N   0  0  0  0  0  0  0  0  0  0  0  0
   10.9198  -17.0303   25.3655 C   0  0  0  0  0  0  0  0  0  0  0  0
   11.9955  -16.3888   25.2165 O   0  0  0  0  0  0  0  0  0  0  0  0
   11.5175  -14.0055   27.4732 C   0  0  0  0  0  0  0  0  0  0  0  0
   10.4664  -14.8718   28.1156 C   0  0  2  0  0  0  0  0  0  0  0  0
    9.5702  -14.0800   28.9750 C   0  0  0  0  0  0  0  0  0  0  0  0
   10.9648  -16.1385   28.7096 C   0  0  0  0  0  0  0  0  0  0  0  0
   11.4711  -17.1930   27.8141 C   0  0  2  0  0  0  0  0  0  0  0  0
   10.5278  -17.3704   26.6737 N   0  0  0  0  0  0  0  0  0  0  0  0
   11.8295  -18.4933   28.3700 C   0  0  0  0  0  0  0  0  0  0  0  0
   12.6978  -18.7353   29.2078 O   0  0  0  0  0  0  0  0  0  0  0  0
   11.0988  -19.6141   27.8959 O   0  0  0  0  0  0  0  0  0  0  0  0
  2  1  1  6
  2  3  1  0
  2  4  1  0
  5  4  1  0
  5  7  1  0
  5  6  1  1
  7 15  1  0
  7  8  2  0
 10  9  1  0
 10 12  1  0
 11 10  2  0
 13 12  1  0
 14 13  1  6
 14 16  1  0
 15 14  1  0
 16 23  1  0
 16 17  2  0
 19 18  1  1
 19 20  1  0
 22 21  1  1
 21 19  1  0
 22 24  1  0
 23 22  1  0
 24 26  1  0
 25 24  2  0
M  END
$$$$
