LQL.pdb
     RDKit          3D

 26 25  0  0  1  0  0  0  0  0999 V2000
    9.2945  -13.9410   19.2456 C   0  0  0  0  0  0  0  0  0  0  0  0
    7.8686  -13.4297   19.3392 C   0  0  2  0  0  0  0  0  0  0  0  0
    7.8626  -12.0315   19.9028 C   0  0  0  0  0  0  0  0  0  0  0  0
    7.0020  -14.3692   20.1690 C   0  0  0  0  0  0  0  0  0  0  0  0
    7.7022  -15.7111   20.1863 C   0  0  2  0  0  0  0  0  0  0  0  0
    6.8639  -16.6518   19.4788 N   0  0  0  0  0  0  0  0  0  0  0  0
    7.9539  -16.2013   21.5473 C   0  0  0  0  0  0  0  0  0  0  0  0
    7.0435  -16.3762   22.4038 O   0  0  0  0  0  0  0  0  0  0  0  0
   10.2561  -21.5570   23.0005 N   0  0  0  0  0  0  0  0  0  0  0  0
   10.8450  -20.3070   23.2599 C   0  0  0  0  0  0  0  0  0  0  0  0
   11.5090  -20.2197   24.3490 O   0  0  0  0  0  0  0  0  0  0  0  0
   10.7132  -19.1396   22.3300 C   0  0  0  0  0  0  0  0  0  0  0  0
   10.8986  -17.8905   23.1519 C   0  0  0  0  0  0  0  0  0  0  0  0
    9.6577  -17.0476   23.2115 C   0  0  2  0  0  0  0  0  0  0  0  0
    9.2857  -16.4982   21.9345 N   0  0  0  0  0  0  0  0  0  0  0  0
    9.9634  -15.9052   24.1452 C   0  0  0  0  0  0  0  0  0  0  0  0
   10.3269  -14.7907   23.6797 O   0  0  0  0  0  0  0  0  0  0  0  0
    8.2665  -12.8033   27.9509 C   0  0  0  0  0  0  0  0  0  0  0  0
    7.8660  -12.9300   26.5046 C   0  0  2  0  0  0  0  0  0  0  0  0
    6.4287  -12.6668   26.3209 C   0  0  0  0  0  0  0  0  0  0  0  0
    8.3891  -14.1309   25.8045 C   0  0  0  0  0  0  0  0  0  0  0  0
    9.5328  -14.8525   26.3885 C   0  0  2  0  0  0  0  0  0  0  0  0
    9.8572  -16.0361   25.5424 N   0  0  0  0  0  0  0  0  0  0  0  0
    9.4917  -15.2420   27.7938 C   0  0  0  0  0  0  0  0  0  0  0  0
    8.7525  -16.0745   28.3182 O   0  0  0  0  0  0  0  0  0  0  0  0
   10.4052  -14.5914   28.6641 O   0  0  0  0  0  0  0  0  0  0  0  0
  2  1  1  1
  2  3  1  0
  2  4  1  0
  5  4  1  0
  5  7  1  0
  5  6  1  6
  7 15  1  0
  7  8  2  0
 10  9  1  0
 10 12  1  0
 11 10  2  0
 13 12  1  0
 14 13  1  6
 14 16  1  0
 15 14  1  0
 16 23  1  0
 16 17  2  0
 19 18  1  1
 19 20  1  0
 22 21  1  6
 21 19  1  0
 22 24  1  0
 23 22  1  0
 24 26  1  0
 25 24  2  0
M  END
$$$$
