LQL.pdb
     RDKit          3D

 26 25  0  0  1  0  0  0  0  0999 V2000
    9.5921  -13.0978   19.5600 C   0  0  0  0  0  0  0  0  0  0  0  0
    8.0840  -13.2426   19.4708 C   0  0  2  0  0  0  0  0  0  0  0  0
    7.4416  -11.8798   19.4184 C   0  0  0  0  0  0  0  0  0  0  0  0
    7.5424  -14.0702   20.6300 C   0  0  0  0  0  0  0  0  0  0  0  0
    8.2887  -15.3871   20.6149 C   0  0  2  0  0  0  0  0  0  0  0  0
    7.5942  -16.2738   19.7096 N   0  0  0  0  0  0  0  0  0  0  0  0
    8.3727  -16.0059   21.9438 C   0  0  0  0  0  0  0  0  0  0  0  0
    7.3620  -16.2970   22.6414 O   0  0  0  0  0  0  0  0  0  0  0  0
   10.4551  -20.4487   24.0067 N   0  0  0  0  0  0  0  0  0  0  0  0
   10.5723  -19.6270   25.1413 C   0  0  0  0  0  0  0  0  0  0  0  0
    9.9409  -20.0203   26.1811 O   0  0  0  0  0  0  0  0  0  0  0  0
   11.3818  -18.3662   25.1495 C   0  0  0  0  0  0  0  0  0  0  0  0
   11.1684  -17.6894   23.8204 C   0  0  0  0  0  0  0  0  0  0  0  0
    9.8683  -16.9416   23.7540 C   0  0  2  0  0  0  0  0  0  0  0  0
    9.6507  -16.2979   22.4854 N   0  0  0  0  0  0  0  0  0  0  0  0
    9.9348  -15.8766   24.8177 C   0  0  0  0  0  0  0  0  0  0  0  0
   10.9917  -15.2058   24.9728 O   0  0  0  0  0  0  0  0  0  0  0  0
    8.2084  -11.9388   25.7228 C   0  0  0  0  0  0  0  0  0  0  0  0
    7.2269  -13.0108   26.1172 C   0  0  2  0  0  0  0  0  0  0  0  0
    5.9018  -12.4417   26.4156 C   0  0  0  0  0  0  0  0  0  0  0  0
    7.7318  -14.0018   27.1016 C   0  0  0  0  0  0  0  0  0  0  0  0
    9.0073  -14.6870   26.8303 C   0  0  2  0  0  0  0  0  0  0  0  0
    8.8432  -15.5961   25.6605 N   0  0  0  0  0  0  0  0  0  0  0  0
    9.6879  -15.3882   27.9135 C   0  0  0  0  0  0  0  0  0  0  0  0
   10.2800  -14.8912   28.8710 O   0  0  0  0  0  0  0  0  0  0  0  0
    9.6710  -16.8068   27.8661 O   0  0  0  0  0  0  0  0  0  0  0  0
  2  1  1  1
  2  3  1  0
  2  4  1  0
  5  4  1  0
  5  7  1  0
  5  6  1  6
  7 15  1  0
  7  8  2  0
 10  9  1  0
 10 12  1  0
 11 10  2  0
 13 12  1  0
 14 13  1  6
 14 16  1  0
 15 14  1  0
 16 23  1  0
 16 17  2  0
 19 18  1  1
 19 20  1  0
 22 21  1  1
 21 19  1  0
 22 24  1  0
 23 22  1  0
 24 26  1  0
 25 24  2  0
M  END
$$$$
