LQL.pdb
     RDKit          3D

 26 25  0  0  1  0  0  0  0  0999 V2000
    9.4066  -13.4427   19.2290 C   0  0  0  0  0  0  0  0  0  0  0  0
    7.9056  -13.3196   19.4175 C   0  0  2  0  0  0  0  0  0  0  0  0
    7.5136  -11.8646   19.4636 C   0  0  0  0  0  0  0  0  0  0  0  0
    7.4467  -14.0607   20.6674 C   0  0  0  0  0  0  0  0  0  0  0  0
    7.9465  -15.4840   20.5415 C   0  0  2  0  0  0  0  0  0  0  0  0
    6.9135  -16.2548   19.8882 N   0  0  0  0  0  0  0  0  0  0  0  0
    8.2663  -16.0890   21.8406 C   0  0  0  0  0  0  0  0  0  0  0  0
    7.3963  -16.5732   22.6162 O   0  0  0  0  0  0  0  0  0  0  0  0
   14.4289  -18.4948   24.0787 N   0  0  0  0  0  0  0  0  0  0  0  0
   13.1165  -18.9901   23.9866 C   0  0  0  0  0  0  0  0  0  0  0  0
   12.9969  -20.1603   23.4857 O   0  0  0  0  0  0  0  0  0  0  0  0
   11.9212  -18.2098   24.4418 C   0  0  0  0  0  0  0  0  0  0  0  0
   11.5020  -17.3255   23.2963 C   0  0  0  0  0  0  0  0  0  0  0  0
   10.0854  -16.8451   23.4243 C   0  0  2  0  0  0  0  0  0  0  0  0
    9.6205  -16.1392   22.2596 N   0  0  0  0  0  0  0  0  0  0  0  0
   10.0623  -15.8939   24.5925 C   0  0  0  0  0  0  0  0  0  0  0  0
   11.0420  -15.1271   24.8004 O   0  0  0  0  0  0  0  0  0  0  0  0
    8.2276  -12.1808   26.1996 C   0  0  0  0  0  0  0  0  0  0  0  0
    7.2843  -13.3495   26.3110 C   0  0  2  0  0  0  0  0  0  0  0  0
    5.9160  -12.9064   26.6274 C   0  0  0  0  0  0  0  0  0  0  0  0
    7.7853  -14.4947   27.1132 C   0  0  0  0  0  0  0  0  0  0  0  0
    9.0879  -15.0893   26.7672 C   0  0  2  0  0  0  0  0  0  0  0  0
    8.9698  -15.8265   25.4770 N   0  0  0  0  0  0  0  0  0  0  0  0
    9.7819  -15.9147   27.7498 C   0  0  0  0  0  0  0  0  0  0  0  0
    9.8658  -17.1423   27.7703 O   0  0  0  0  0  0  0  0  0  0  0  0
   10.4383  -15.2326   28.8076 O   0  0  0  0  0  0  0  0  0  0  0  0
  2  1  1  1
  2  3  1  0
  2  4  1  0
  5  4  1  0
  5  7  1  0
  5  6  1  1
  7 15  1  0
  7  8  2  0
 10  9  1  0
 10 12  1  0
 11 10  2  0
 13 12  1  0
 14 13  1  6
 14 16  1  0
 15 14  1  0
 16 23  1  0
 16 17  2  0
 19 18  1  1
 19 20  1  0
 22 21  1  1
 21 19  1  0
 22 24  1  0
 23 22  1  0
 24 26  1  0
 25 24  2  0
M  END
$$$$
