YIS.pdb
     RDKit          3D

 27 27  0  0  1  0  0  0  0  0999 V2000
   20.3589   -8.1726  -25.7009 O   0  0  0  0  0  0  0  0  0  0  0  0
   20.2701   -7.9892  -24.3213 C   0  0  0  0  0  0  0  0  0  0  0  0
   21.2475   -8.4479  -23.4652 C   0  0  0  0  0  0  0  0  0  0  0  0
   21.1653   -8.2702  -22.1071 C   0  0  0  0  0  0  0  0  0  0  0  0
   20.0958   -7.6209  -21.5298 C   0  0  0  0  0  0  0  0  0  0  0  0
   19.9744   -7.4121  -20.0749 C   0  0  0  0  0  0  0  0  0  0  0  0
   19.9755   -8.7529  -19.3274 C   0  0  2  0  0  0  0  0  0  0  0  0
   18.7479   -9.4139  -19.6337 N   0  0  0  0  0  0  0  0  0  0  0  0
   20.1717   -8.5194  -17.8704 C   0  0  0  0  0  0  0  0  0  0  0  0
   19.1445   -8.3055  -17.1840 O   0  0  0  0  0  0  0  0  0  0  0  0
   19.1048   -7.1542  -22.3810 C   0  0  0  0  0  0  0  0  0  0  0  0
   19.1976   -7.3383  -23.7445 C   0  0  0  0  0  0  0  0  0  0  0  0
   23.1705  -11.5739  -14.6792 C   0  0  0  0  0  0  0  0  0  0  0  0
   22.1675  -10.6440  -15.3038 C   0  0  0  0  0  0  0  0  0  0  0  0
   22.4968   -9.2040  -15.1680 C   0  0  2  0  0  0  0  0  0  0  0  0
   22.7637   -8.9513  -13.6915 C   0  0  0  0  0  0  0  0  0  0  0  0
   21.6442   -8.2222  -15.8452 C   0  0  2  0  0  0  0  0  0  0  0  0
   21.4368   -8.5298  -17.2505 N   0  0  0  0  0  0  0  0  0  0  0  0
   21.8771   -6.7905  -15.5780 C   0  0  0  0  0  0  0  0  0  0  0  0
   22.8400   -6.2220  -16.1242 O   0  0  0  0  0  0  0  0  0  0  0  0
   19.1655   -3.9815  -15.4269 O   0  0  0  0  0  0  0  0  0  0  0  0
   20.0247   -3.8322  -14.3447 C   0  0  0  0  0  0  0  0  0  0  0  0
   21.3079   -4.5860  -14.5144 C   0  0  2  0  0  0  0  0  0  0  0  0
   21.0574   -6.0220  -14.7208 N   0  0  0  0  0  0  0  0  0  0  0  0
   22.2315   -4.3945  -13.3568 C   0  0  0  0  0  0  0  0  0  0  0  0
   22.3121   -5.2974  -12.4857 O   0  0  0  0  0  0  0  0  0  0  0  0
   23.0038   -3.2667  -13.1989 O   0  0  0  0  0  0  0  0  0  0  0  0
  2  3  2  0
  2  1  1  0
  4  3  1  0
  5  4  2  0
  6  5  1  0
  7  9  1  0
  7  6  1  0
  7  8  1  1
  9 18  1  0
 10  9  2  0
 11  5  1  0
 11 12  2  0
 12  2  1  0
 13 14  1  0
 15 17  1  0
 15 14  1  0
 15 16  1  1
 17 18  1  6
 19 20  2  0
 19 17  1  0
 22 21  1  0
 23 24  1  0
 23 22  1  1
 24 19  1  0
 25 23  1  0
 26 25  2  0
 27 25  1  0
M  END
$$$$
