YIS.pdb
     RDKit          3D

 27 27  0  0  1  0  0  0  0  0999 V2000
   19.7342  -23.1547   -6.7808 O   0  0  0  0  0  0  0  0  0  0  0  0
   20.5776  -22.4631   -7.6497 C   0  0  0  0  0  0  0  0  0  0  0  0
   20.4680  -22.5874   -9.0177 C   0  0  0  0  0  0  0  0  0  0  0  0
   21.2952  -21.9093   -9.8771 C   0  0  0  0  0  0  0  0  0  0  0  0
   22.2812  -21.0664   -9.4121 C   0  0  0  0  0  0  0  0  0  0  0  0
   23.1877  -20.3222  -10.3061 C   0  0  0  0  0  0  0  0  0  0  0  0
   24.3480  -21.2121  -10.7735 C   0  0  2  0  0  0  0  0  0  0  0  0
   25.2528  -21.3451   -9.6775 N   0  0  0  0  0  0  0  0  0  0  0  0
   24.9765  -20.6264  -11.9892 C   0  0  0  0  0  0  0  0  0  0  0  0
   25.8035  -19.7006  -11.8135 O   0  0  0  0  0  0  0  0  0  0  0  0
   22.4020  -20.9326   -8.0366 C   0  0  0  0  0  0  0  0  0  0  0  0
   21.5652  -21.6189   -7.1819 C   0  0  0  0  0  0  0  0  0  0  0  0
   28.4349  -21.9296  -16.3897 C   0  0  0  0  0  0  0  0  0  0  0  0
   27.2218  -21.0796  -16.1317 C   0  0  0  0  0  0  0  0  0  0  0  0
   26.4785  -21.4284  -14.8963 C   0  0  2  0  0  0  0  0  0  0  0  0
   26.1791  -22.9184  -14.9691 C   0  0  0  0  0  0  0  0  0  0  0  0
   25.3669  -20.5681  -14.4796 C   0  0  2  0  0  0  0  0  0  0  0  0
   24.6837  -21.0633  -13.2962 N   0  0  0  0  0  0  0  0  0  0  0  0
   24.4570  -20.0483  -15.5176 C   0  0  0  0  0  0  0  0  0  0  0  0
   23.4157  -20.6773  -15.7794 O   0  0  0  0  0  0  0  0  0  0  0  0
   23.7249  -16.1221  -16.4575 O   0  0  0  0  0  0  0  0  0  0  0  0
   23.9799  -16.9295  -17.5598 C   0  0  0  0  0  0  0  0  0  0  0  0
   23.7734  -18.3850  -17.2729 C   0  0  2  0  0  0  0  0  0  0  0  0
   24.7104  -18.8617  -16.2423 N   0  0  0  0  0  0  0  0  0  0  0  0
   23.9013  -19.2252  -18.5009 C   0  0  0  0  0  0  0  0  0  0  0  0
   25.0396  -19.6340  -18.8436 O   0  0  0  0  0  0  0  0  0  0  0  0
   22.8222  -19.5747  -19.2798 O   0  0  0  0  0  0  0  0  0  0  0  0
  2  3  2  0
  2  1  1  0
  4  3  1  0
  5  4  2  0
  6  5  1  0
  7  9  1  0
  7  6  1  0
  7  8  1  1
  9 18  1  0
 10  9  2  0
 11  5  1  0
 11 12  2  0
 12  2  1  0
 13 14  1  0
 15 17  1  0
 15 14  1  0
 15 16  1  6
 17 18  1  1
 19 20  2  0
 19 17  1  0
 22 21  1  0
 23 24  1  0
 23 22  1  6
 24 19  1  0
 25 23  1  0
 26 25  2  0
 27 25  1  0
M  END
$$$$
