YIS.pdb
     RDKit          3D

 27 27  0  0  1  0  0  0  0  0999 V2000
   15.3671  -14.3205  -19.4874 O   0  0  0  0  0  0  0  0  0  0  0  0
   16.2278  -13.5144  -18.7430 C   0  0  0  0  0  0  0  0  0  0  0  0
   15.9948  -13.2411  -17.4126 C   0  0  0  0  0  0  0  0  0  0  0  0
   16.8383  -12.4487  -16.6754 C   0  0  0  0  0  0  0  0  0  0  0  0
   17.9655  -11.8846  -17.2320 C   0  0  0  0  0  0  0  0  0  0  0  0
   18.8939  -11.0285  -16.4703 C   0  0  0  0  0  0  0  0  0  0  0  0
   20.2243  -11.7518  -16.2189 C   0  0  2  0  0  0  0  0  0  0  0  0
   19.9409  -12.9043  -15.4258 N   0  0  0  0  0  0  0  0  0  0  0  0
   21.1936  -10.8201  -15.5798 C   0  0  0  0  0  0  0  0  0  0  0  0
   21.0299  -10.5751  -14.3612 O   0  0  0  0  0  0  0  0  0  0  0  0
   18.2115  -12.1522  -18.5709 C   0  0  0  0  0  0  0  0  0  0  0  0
   17.3571  -12.9499  -19.3024 C   0  0  0  0  0  0  0  0  0  0  0  0
   26.4272  -11.4636  -15.7560 C   0  0  0  0  0  0  0  0  0  0  0  0
   24.9790  -11.1336  -15.5230 C   0  0  0  0  0  0  0  0  0  0  0  0
   24.6064   -9.7362  -15.8529 C   0  0  2  0  0  0  0  0  0  0  0  0
   25.6689   -8.8400  -15.2341 C   0  0  0  0  0  0  0  0  0  0  0  0
   23.2157   -9.3157  -15.6566 C   0  0  2  0  0  0  0  0  0  0  0  0
   22.2606  -10.2191  -16.2763 N   0  0  0  0  0  0  0  0  0  0  0  0
   22.8845   -7.8891  -15.8316 C   0  0  0  0  0  0  0  0  0  0  0  0
   22.7338   -7.4398  -16.9822 O   0  0  0  0  0  0  0  0  0  0  0  0
   20.2481   -5.8385  -13.8553 O   0  0  0  0  0  0  0  0  0  0  0  0
   21.4231   -5.0983  -13.9134 C   0  0  0  0  0  0  0  0  0  0  0  0
   22.3640   -5.5858  -14.9720 C   0  0  2  0  0  0  0  0  0  0  0  0
   22.7317   -6.9937  -14.7488 N   0  0  0  0  0  0  0  0  0  0  0  0
   23.5972   -4.7481  -15.0592 C   0  0  0  0  0  0  0  0  0  0  0  0
   24.6997   -5.2502  -14.7235 O   0  0  0  0  0  0  0  0  0  0  0  0
   23.5815   -3.4425  -15.4932 O   0  0  0  0  0  0  0  0  0  0  0  0
  2  3  2  0
  2  1  1  0
  4  3  1  0
  5  4  2  0
  6  5  1  0
  7  9  1  0
  7  6  1  0
  7  8  1  1
  9 18  1  0
 10  9  2  0
 11  5  1  0
 11 12  2  0
 12  2  1  0
 13 14  1  0
 15 17  1  0
 15 14  1  0
 15 16  1  1
 17 18  1  6
 19 20  2  0
 19 17  1  0
 22 21  1  0
 23 24  1  0
 23 22  1  1
 24 19  1  0
 25 23  1  0
 26 25  2  0
 27 25  1  0
M  END
$$$$
