YIS.pdb
     RDKit          3D

 27 27  0  0  1  0  0  0  0  0999 V2000
   28.6409  -13.8156  -21.4318 O   0  0  0  0  0  0  0  0  0  0  0  0
   27.6961  -14.8203  -21.6381 C   0  0  0  0  0  0  0  0  0  0  0  0
   28.0662  -16.1056  -21.9698 C   0  0  0  0  0  0  0  0  0  0  0  0
   27.1410  -17.0980  -22.1739 C   0  0  0  0  0  0  0  0  0  0  0  0
   25.7894  -16.8570  -22.0568 C   0  0  0  0  0  0  0  0  0  0  0  0
   24.7673  -17.8987  -22.2689 C   0  0  0  0  0  0  0  0  0  0  0  0
   23.9779  -18.1620  -20.9789 C   0  0  2  0  0  0  0  0  0  0  0  0
   24.9070  -18.6148  -19.9943 N   0  0  0  0  0  0  0  0  0  0  0  0
   22.8818  -19.1332  -21.2460 C   0  0  0  0  0  0  0  0  0  0  0  0
   22.0775  -18.8465  -22.1640 O   0  0  0  0  0  0  0  0  0  0  0  0
   25.4036  -15.5668  -21.7232 C   0  0  0  0  0  0  0  0  0  0  0  0
   26.3420  -14.5770  -21.5202 C   0  0  0  0  0  0  0  0  0  0  0  0
   23.0910  -24.2528  -22.3548 C   0  0  0  0  0  0  0  0  0  0  0  0
   22.6516  -22.8242  -22.1914 C   0  0  0  0  0  0  0  0  0  0  0  0
   21.8568  -22.5620  -20.9667 C   0  0  2  0  0  0  0  0  0  0  0  0
   20.6837  -23.5308  -20.9880 C   0  0  0  0  0  0  0  0  0  0  0  0
   21.5385  -21.1734  -20.6206 C   0  0  2  0  0  0  0  0  0  0  0  0
   22.7195  -20.3317  -20.5234 N   0  0  0  0  0  0  0  0  0  0  0  0
   20.5438  -20.9268  -19.5597 C   0  0  0  0  0  0  0  0  0  0  0  0
   19.4146  -21.4401  -19.6582 O   0  0  0  0  0  0  0  0  0  0  0  0
   19.2463  -19.9798  -15.0835 O   0  0  0  0  0  0  0  0  0  0  0  0
   20.2378  -20.1471  -16.0431 C   0  0  0  0  0  0  0  0  0  0  0  0
   19.7588  -19.8477  -17.4304 C   0  0  2  0  0  0  0  0  0  0  0  0
   20.8071  -20.1251  -18.4261 N   0  0  0  0  0  0  0  0  0  0  0  0
   19.2867  -18.4380  -17.5717 C   0  0  0  0  0  0  0  0  0  0  0  0
   18.2333  -18.0864  -16.9825 O   0  0  0  0  0  0  0  0  0  0  0  0
   19.9568  -17.4999  -18.3227 O   0  0  0  0  0  0  0  0  0  0  0  0
  2  3  2  0
  2  1  1  0
  4  3  1  0
  5  4  2  0
  6  5  1  0
  7  9  1  0
  7  6  1  0
  7  8  1  1
  9 18  1  0
 10  9  2  0
 11  5  1  0
 11 12  2  0
 12  2  1  0
 13 14  1  0
 15 17  1  0
 15 14  1  0
 15 16  1  6
 17 18  1  1
 19 20  2  0
 19 17  1  0
 22 21  1  0
 23 24  1  0
 23 22  1  1
 24 19  1  0
 25 23  1  0
 26 25  2  0
 27 25  1  0
M  END
$$$$
