YIS.pdb
     RDKit          3D

 27 27  0  0  1  0  0  0  0  0999 V2000
   24.8690  -24.8693  -23.3668 O   0  0  0  0  0  0  0  0  0  0  0  0
   25.1549  -24.6368  -22.0218 C   0  0  0  0  0  0  0  0  0  0  0  0
   25.8431  -25.5547  -21.2584 C   0  0  0  0  0  0  0  0  0  0  0  0
   26.1270  -25.3311  -19.9348 C   0  0  0  0  0  0  0  0  0  0  0  0
   25.7360  -24.1720  -19.3006 C   0  0  0  0  0  0  0  0  0  0  0  0
   26.0237  -23.8983  -17.8803 C   0  0  0  0  0  0  0  0  0  0  0  0
   27.3033  -23.0634  -17.7320 C   0  0  2  0  0  0  0  0  0  0  0  0
   28.4106  -23.9606  -17.8119 N   0  0  0  0  0  0  0  0  0  0  0  0
   27.2597  -22.2928  -16.4591 C   0  0  0  0  0  0  0  0  0  0  0  0
   27.9781  -22.7055  -15.5181 O   0  0  0  0  0  0  0  0  0  0  0  0
   25.0422  -23.2397  -20.0583 C   0  0  0  0  0  0  0  0  0  0  0  0
   24.7622  -23.4746  -21.3879 C   0  0  0  0  0  0  0  0  0  0  0  0
   26.7394  -16.5079  -14.6037 C   0  0  0  0  0  0  0  0  0  0  0  0
   26.5837  -17.9514  -14.2129 C   0  0  0  0  0  0  0  0  0  0  0  0
   26.5861  -18.9003  -15.3530 C   0  0  2  0  0  0  0  0  0  0  0  0
   25.6124  -18.3505  -16.3848 C   0  0  0  0  0  0  0  0  0  0  0  0
   26.4834  -20.3355  -15.0718 C   0  0  2  0  0  0  0  0  0  0  0  0
   26.4612  -21.1463  -16.2779 N   0  0  0  0  0  0  0  0  0  0  0  0
   25.5286  -20.7798  -14.0391 C   0  0  0  0  0  0  0  0  0  0  0  0
   24.4510  -21.2924  -14.3920 O   0  0  0  0  0  0  0  0  0  0  0  0
   26.3811  -21.8725  -10.0909 O   0  0  0  0  0  0  0  0  0  0  0  0
   25.3173  -20.9964  -10.2715 C   0  0  0  0  0  0  0  0  0  0  0  0
   24.7594  -21.0400  -11.6609 C   0  0  2  0  0  0  0  0  0  0  0  0
   25.7738  -20.6485  -12.6534 N   0  0  0  0  0  0  0  0  0  0  0  0
   23.5478  -20.1798  -11.8090 C   0  0  0  0  0  0  0  0  0  0  0  0
   23.6769  -19.0212  -12.2797 O   0  0  0  0  0  0  0  0  0  0  0  0
   22.2875  -20.6005  -11.4513 O   0  0  0  0  0  0  0  0  0  0  0  0
  2  3  2  0
  2  1  1  0
  4  3  1  0
  5  4  2  0
  6  5  1  0
  7  9  1  0
  7  6  1  0
  7  8  1  1
  9 18  1  0
 10  9  2  0
 11  5  1  0
 11 12  2  0
 12  2  1  0
 13 14  1  0
 15 17  1  0
 15 14  1  0
 15 16  1  6
 17 18  1  6
 19 20  2  0
 19 17  1  0
 22 21  1  0
 23 24  1  0
 23 22  1  1
 24 19  1  0
 25 23  1  0
 26 25  2  0
 27 25  1  0
M  END
$$$$
