YIS.pdb
     RDKit          3D

 27 27  0  0  1  0  0  0  0  0999 V2000
   22.2209  -17.5046  -14.7974 O   0  0  0  0  0  0  0  0  0  0  0  0
   22.3837  -16.1425  -15.0479 C   0  0  0  0  0  0  0  0  0  0  0  0
   23.5428  -15.4775  -14.7113 C   0  0  0  0  0  0  0  0  0  0  0  0
   23.7084  -14.1375  -14.9554 C   0  0  0  0  0  0  0  0  0  0  0  0
   22.7188  -13.3870  -15.5524 C   0  0  0  0  0  0  0  0  0  0  0  0
   22.8621  -11.9457  -15.8298 C   0  0  0  0  0  0  0  0  0  0  0  0
   22.7429  -11.6633  -17.3340 C   0  0  2  0  0  0  0  0  0  0  0  0
   23.8629  -12.2747  -17.9737 N   0  0  0  0  0  0  0  0  0  0  0  0
   22.6591  -10.1955  -17.5679 C   0  0  0  0  0  0  0  0  0  0  0  0
   23.7413   -9.5780  -17.7076 O   0  0  0  0  0  0  0  0  0  0  0  0
   21.5468  -14.0448  -15.8963 C   0  0  0  0  0  0  0  0  0  0  0  0
   21.3910  -15.3920  -15.6462 C   0  0  0  0  0  0  0  0  0  0  0  0
   20.0178   -7.9730  -21.4591 C   0  0  0  0  0  0  0  0  0  0  0  0
   20.9844   -8.2440  -20.3398 C   0  0  0  0  0  0  0  0  0  0  0  0
   20.5714   -7.6952  -19.0250 C   0  0  2  0  0  0  0  0  0  0  0  0
   20.3152   -6.2095  -19.2295 C   0  0  0  0  0  0  0  0  0  0  0  0
   21.3516   -8.0564  -17.8375 C   0  0  2  0  0  0  0  0  0  0  0  0
   21.4398   -9.4932  -17.6363 N   0  0  0  0  0  0  0  0  0  0  0  0
   21.1276   -7.2946  -16.5945 C   0  0  0  0  0  0  0  0  0  0  0  0
   20.1606   -7.5908  -15.8695 O   0  0  0  0  0  0  0  0  0  0  0  0
   22.6692   -3.9468  -13.3663 O   0  0  0  0  0  0  0  0  0  0  0  0
   22.8663   -4.6328  -14.5589 C   0  0  0  0  0  0  0  0  0  0  0  0
   21.7110   -5.5159  -14.9179 C   0  0  2  0  0  0  0  0  0  0  0  0
   21.9605   -6.2305  -16.1806 N   0  0  0  0  0  0  0  0  0  0  0  0
   20.4286   -4.7564  -15.0109 C   0  0  0  0  0  0  0  0  0  0  0  0
   20.1439   -4.1708  -16.0863 O   0  0  0  0  0  0  0  0  0  0  0  0
   19.5381   -4.6677  -13.9658 O   0  0  0  0  0  0  0  0  0  0  0  0
  2  3  2  0
  2  1  1  0
  4  3  1  0
  5  4  2  0
  6  5  1  0
  7  9  1  0
  7  6  1  0
  7  8  1  6
  9 18  1  0
 10  9  2  0
 11  5  1  0
 11 12  2  0
 12  2  1  0
 13 14  1  0
 15 17  1  0
 15 14  1  0
 15 16  1  6
 17 18  1  1
 19 20  2  0
 19 17  1  0
 22 21  1  0
 23 24  1  0
 23 22  1  6
 24 19  1  0
 25 23  1  0
 26 25  2  0
 27 25  1  0
M  END
$$$$
