YIS.pdb
     RDKit          3D

 27 27  0  0  1  0  0  0  0  0999 V2000
   19.3800  -19.9281   -9.3846 O   0  0  0  0  0  0  0  0  0  0  0  0
   20.0642  -19.7289  -10.5833 C   0  0  0  0  0  0  0  0  0  0  0  0
   20.4342  -20.7831  -11.3899 C   0  0  0  0  0  0  0  0  0  0  0  0
   21.1076  -20.5929  -12.5702 C   0  0  0  0  0  0  0  0  0  0  0  0
   21.4485  -19.3321  -13.0092 C   0  0  0  0  0  0  0  0  0  0  0  0
   22.1716  -19.0904  -14.2716 C   0  0  0  0  0  0  0  0  0  0  0  0
   21.2364  -18.4932  -15.3324 C   0  0  2  0  0  0  0  0  0  0  0  0
   20.1788  -19.4281  -15.5447 N   0  0  0  0  0  0  0  0  0  0  0  0
   22.0061  -18.1832  -16.5683 C   0  0  0  0  0  0  0  0  0  0  0  0
   22.0402  -19.0683  -17.4556 O   0  0  0  0  0  0  0  0  0  0  0  0
   21.0816  -18.2621  -12.2060 C   0  0  0  0  0  0  0  0  0  0  0  0
   20.4051  -18.4647  -11.0216 C   0  0  0  0  0  0  0  0  0  0  0  0
   20.6579  -14.2083  -17.9984 C   0  0  0  0  0  0  0  0  0  0  0  0
   21.4016  -15.1738  -18.8791 C   0  0  0  0  0  0  0  0  0  0  0  0
   22.8420  -15.3168  -18.5550 C   0  0  2  0  0  0  0  0  0  0  0  0
   23.6167  -14.7525  -19.7366 C   0  0  0  0  0  0  0  0  0  0  0  0
   23.3184  -16.5985  -18.0260 C   0  0  2  0  0  0  0  0  0  0  0  0
   22.6804  -16.9630  -16.7720 N   0  0  0  0  0  0  0  0  0  0  0  0
   24.7670  -16.8740  -18.0581 C   0  0  0  0  0  0  0  0  0  0  0  0
   25.5025  -16.3443  -17.2054 O   0  0  0  0  0  0  0  0  0  0  0  0
   28.4223  -19.7621  -19.3883 O   0  0  0  0  0  0  0  0  0  0  0  0
   27.0698  -19.4420  -19.3867 C   0  0  0  0  0  0  0  0  0  0  0  0
   26.8082  -18.0307  -18.9583 C   0  0  2  0  0  0  0  0  0  0  0  0
   25.3718  -17.7141  -19.0202 N   0  0  0  0  0  0  0  0  0  0  0  0
   27.5798  -17.0430  -19.7701 C   0  0  0  0  0  0  0  0  0  0  0  0
   27.0943  -16.6347  -20.8554 O   0  0  0  0  0  0  0  0  0  0  0  0
   28.8067  -16.5562  -19.3815 O   0  0  0  0  0  0  0  0  0  0  0  0
  2  3  2  0
  2  1  1  0
  4  3  1  0
  5  4  2  0
  6  5  1  0
  7  9  1  0
  7  6  1  0
  7  8  1  6
  9 18  1  0
 10  9  2  0
 11  5  1  0
 11 12  2  0
 12  2  1  0
 13 14  1  0
 15 17  1  0
 15 14  1  0
 15 16  1  6
 17 18  1  1
 19 20  2  0
 19 17  1  0
 22 21  1  0
 23 24  1  0
 23 22  1  6
 24 19  1  0
 25 23  1  0
 26 25  2  0
 27 25  1  0
M  END
$$$$
