YIS.pdb
     RDKit          3D

 27 27  0  0  1  0  0  0  0  0999 V2000
   20.3495  -27.4088  -23.0475 O   0  0  0  0  0  0  0  0  0  0  0  0
   20.4510  -26.7913  -21.8013 C   0  0  0  0  0  0  0  0  0  0  0  0
   19.7042  -25.6782  -21.4815 C   0  0  0  0  0  0  0  0  0  0  0  0
   19.8001  -25.0666  -20.2570 C   0  0  0  0  0  0  0  0  0  0  0  0
   20.6522  -25.5377  -19.2820 C   0  0  0  0  0  0  0  0  0  0  0  0
   20.7810  -24.9060  -17.9556 C   0  0  0  0  0  0  0  0  0  0  0  0
   21.7428  -23.7108  -18.0095 C   0  0  2  0  0  0  0  0  0  0  0  0
   23.0560  -24.2283  -18.2224 N   0  0  0  0  0  0  0  0  0  0  0  0
   21.6210  -22.9070  -16.7626 C   0  0  0  0  0  0  0  0  0  0  0  0
   22.3105  -23.2704  -15.7805 O   0  0  0  0  0  0  0  0  0  0  0  0
   21.4098  -26.6579  -19.5915 C   0  0  0  0  0  0  0  0  0  0  0  0
   21.3055  -27.2647  -20.8254 C   0  0  0  0  0  0  0  0  0  0  0  0
   22.0768  -17.4087  -14.7925 C   0  0  0  0  0  0  0  0  0  0  0  0
   21.1290  -18.5664  -14.6439 C   0  0  0  0  0  0  0  0  0  0  0  0
   21.2075  -19.5687  -15.7345 C   0  0  2  0  0  0  0  0  0  0  0  0
   20.6571  -18.9009  -16.9859 C   0  0  0  0  0  0  0  0  0  0  0  0
   20.7344  -20.9311  -15.4710 C   0  0  2  0  0  0  0  0  0  0  0  0
   20.7808  -21.7818  -16.6486 N   0  0  0  0  0  0  0  0  0  0  0  0
   19.5142  -21.1038  -14.6605 C   0  0  0  0  0  0  0  0  0  0  0  0
   18.4066  -20.8717  -15.1778 O   0  0  0  0  0  0  0  0  0  0  0  0
   17.4050  -22.5098  -10.4621 O   0  0  0  0  0  0  0  0  0  0  0  0
   18.5638  -22.2868  -11.1964 C   0  0  0  0  0  0  0  0  0  0  0  0
   18.2899  -21.7102  -12.5514 C   0  0  2  0  0  0  0  0  0  0  0  0
   19.5371  -21.5198  -13.3100 N   0  0  0  0  0  0  0  0  0  0  0  0
   17.5423  -20.4197  -12.4742 C   0  0  0  0  0  0  0  0  0  0  0  0
   18.1816  -19.3564  -12.2718 O   0  0  0  0  0  0  0  0  0  0  0  0
   16.1759  -20.3411  -12.6154 O   0  0  0  0  0  0  0  0  0  0  0  0
  2  3  2  0
  2  1  1  0
  4  3  1  0
  5  4  2  0
  6  5  1  0
  7  9  1  0
  7  6  1  0
  7  8  1  1
  9 18  1  0
 10  9  2  0
 11  5  1  0
 11 12  2  0
 12  2  1  0
 13 14  1  0
 15 17  1  0
 15 14  1  0
 15 16  1  6
 17 18  1  6
 19 20  2  0
 19 17  1  0
 22 21  1  0
 23 24  1  0
 23 22  1  1
 24 19  1  0
 25 23  1  0
 26 25  2  0
 27 25  1  0
M  END
$$$$
