WLE.pdb
     RDKit          3D

 32 33  0  0  1  0  0  0  0  0999 V2000
   26.4487  -21.8513  -12.8873 N   0  0  0  0  0  0  0  0  0  0  0  0
   26.3576  -20.7107  -12.0036 C   0  0  1  0  0  0  0  0  0  0  0  0
   25.2317  -19.7907  -12.3484 C   0  0  0  0  0  0  0  0  0  0  0  0
   25.3955  -19.3350  -13.7612 C   0  0  0  0  0  0  0  0  0  0  0  0
   24.4115  -19.1638  -14.7032 C   0  0  0  0  0  0  0  0  0  0  0  0
   24.9975  -18.7402  -15.8532 N   0  0  0  0  0  0  0  0  0  0  0  0
   26.3204  -18.6249  -15.7097 C   0  0  0  0  0  0  0  0  0  0  0  0
   27.3524  -18.2428  -16.5596 C   0  0  0  0  0  0  0  0  0  0  0  0
   28.6513  -18.2199  -16.1351 C   0  0  0  0  0  0  0  0  0  0  0  0
   28.8690  -18.5967  -14.8221 C   0  0  0  0  0  0  0  0  0  0  0  0
   27.8953  -18.9796  -13.9473 C   0  0  0  0  0  0  0  0  0  0  0  0
   26.5832  -19.0002  -14.3847 C   0  0  0  0  0  0  0  0  0  0  0  0
   26.2822  -21.0768  -10.5726 C   0  0  0  0  0  0  0  0  0  0  0  0
   25.9063  -22.2395  -10.2886 O   0  0  0  0  0  0  0  0  0  0  0  0
   28.3214  -21.0378   -5.5574 C   0  0  0  0  0  0  0  0  0  0  0  0
   27.3378  -19.8595   -5.8443 C   0  0  1  0  0  0  0  0  0  0  0  0
   27.8536  -18.7412   -4.9963 C   0  0  0  0  0  0  0  0  0  0  0  0
   27.4029  -19.6605   -7.3158 C   0  0  0  0  0  0  0  0  0  0  0  0
   26.5692  -20.5209   -8.1841 C   0  0  2  0  0  0  0  0  0  0  0  0
   26.6165  -20.1655   -9.5671 N   0  0  0  0  0  0  0  0  0  0  0  0
   25.1523  -20.5404   -7.6746 C   0  0  0  0  0  0  0  0  0  0  0  0
   24.3893  -19.5685   -7.9264 O   0  0  0  0  0  0  0  0  0  0  0  0
   24.6329  -21.6106   -6.9188 N   0  0  0  0  0  0  0  0  0  0  0  0
   23.2368  -21.6742   -6.5438 C   0  0  1  0  0  0  0  0  0  0  0  0
   22.6099  -23.0150   -6.7442 C   0  0  0  0  0  0  0  0  0  0  0  0
   21.1724  -23.0546   -6.2879 C   0  0  0  0  0  0  0  0  0  0  0  0
   20.6211  -24.3995   -6.5620 C   0  0  0  0  0  0  0  0  0  0  0  0
   19.4131  -24.6732   -6.2386 O   0  0  0  0  0  0  0  0  0  0  0  0
   23.0519  -21.1794   -5.1401 C   0  0  0  0  0  0  0  0  0  0  0  0
   21.9129  -20.5506   -4.6802 O   0  0  0  0  0  0  0  0  0  0  0  0
   21.3264  -25.4348   -7.1660 O   0  0  0  0  0  0  0  0  0  0  0  0
   23.9892  -21.3430   -4.3158 O   0  0  0  0  0  0  0  0  0  0  0  0
  2  1  1  6
  3  4  1  0
  3  2  1  0
  4  5  2  0
  6  5  1  0
  7  6  1  0
  8  7  2  0
  9  8  1  0
 10  9  2  0
 10 11  1  0
 11 12  2  0
 12  7  1  0
 12  4  1  0
 13  2  1  0
 13 14  2  0
 16 15  1  6
 16 18  1  0
 17 16  1  0
 19 18  1  1
 19 20  1  0
 19 21  1  0
 20 13  1  0
 21 23  1  0
 21 22  2  0
 23 24  1  0
 24 25  1  1
 24 29  1  0
 26 25  1  0
 27 26  1  0
 28 27  2  0
 29 32  2  0
 29 30  1  0
 31 27  1  0
M  END
$$$$
