WLE.pdb
     RDKit          3D

 32 33  0  0  1  0  0  0  0  0999 V2000
   27.3300  -22.0232  -16.9089 N   0  0  0  0  0  0  0  0  0  0  0  0
   26.9078  -20.9269  -16.0663 C   0  0  1  0  0  0  0  0  0  0  0  0
   26.1054  -19.9006  -16.7982 C   0  0  0  0  0  0  0  0  0  0  0  0
   27.0315  -19.0412  -17.5946 C   0  0  0  0  0  0  0  0  0  0  0  0
   27.3279  -17.7167  -17.3874 C   0  0  0  0  0  0  0  0  0  0  0  0
   28.2126  -17.3280  -18.3421 N   0  0  0  0  0  0  0  0  0  0  0  0
   28.5112  -18.3359  -19.1660 C   0  0  0  0  0  0  0  0  0  0  0  0
   29.3377  -18.4598  -20.2772 C   0  0  0  0  0  0  0  0  0  0  0  0
   29.4521  -19.6441  -20.9497 C   0  0  0  0  0  0  0  0  0  0  0  0
   28.7017  -20.6974  -20.4586 C   0  0  0  0  0  0  0  0  0  0  0  0
   27.8767  -20.6307  -19.3748 C   0  0  0  0  0  0  0  0  0  0  0  0
   27.7664  -19.4284  -18.6998 C   0  0  0  0  0  0  0  0  0  0  0  0
   26.1776  -21.3603  -14.8553 C   0  0  0  0  0  0  0  0  0  0  0  0
   25.3505  -22.2954  -14.9779 O   0  0  0  0  0  0  0  0  0  0  0  0
   25.4781  -22.0963   -9.5885 C   0  0  0  0  0  0  0  0  0  0  0  0
   25.2388  -20.6070   -9.9921 C   0  0  1  0  0  0  0  0  0  0  0  0
   25.6684  -19.8310   -8.7883 C   0  0  0  0  0  0  0  0  0  0  0  0
   26.0431  -20.4144  -11.2270 C   0  0  0  0  0  0  0  0  0  0  0  0
   25.5739  -21.0416  -12.4824 C   0  0  2  0  0  0  0  0  0  0  0  0
   26.3963  -20.7544  -13.6148 N   0  0  0  0  0  0  0  0  0  0  0  0
   24.1401  -20.6595  -12.7393 C   0  0  0  0  0  0  0  0  0  0  0  0
   23.8677  -19.4841  -13.1060 O   0  0  0  0  0  0  0  0  0  0  0  0
   23.0741  -21.5686  -12.5868 N   0  0  0  0  0  0  0  0  0  0  0  0
   21.7010  -21.1841  -12.8327 C   0  0  1  0  0  0  0  0  0  0  0  0
   20.9135  -22.1891  -13.6079 C   0  0  0  0  0  0  0  0  0  0  0  0
   20.0434  -21.5520  -14.6629 C   0  0  0  0  0  0  0  0  0  0  0  0
   19.5175  -22.6110  -15.5517 C   0  0  0  0  0  0  0  0  0  0  0  0
   19.8625  -23.8298  -15.3674 O   0  0  0  0  0  0  0  0  0  0  0  0
   21.0233  -20.8219  -11.5447 C   0  0  0  0  0  0  0  0  0  0  0  0
   21.4993  -21.1572  -10.2937 O   0  0  0  0  0  0  0  0  0  0  0  0
   18.6445  -22.3917  -16.6119 O   0  0  0  0  0  0  0  0  0  0  0  0
   19.9489  -20.1676  -11.5930 O   0  0  0  0  0  0  0  0  0  0  0  0
  2  1  1  6
  3  4  1  0
  3  2  1  0
  4  5  2  0
  6  5  1  0
  7  6  1  0
  8  7  2  0
  9  8  1  0
 10  9  2  0
 10 11  1  0
 11 12  2  0
 12  7  1  0
 12  4  1  0
 13  2  1  0
 13 14  2  0
 16 15  1  1
 16 18  1  0
 17 16  1  0
 19 18  1  1
 19 20  1  0
 19 21  1  0
 20 13  1  0
 21 23  1  0
 21 22  2  0
 23 24  1  0
 24 25  1  1
 24 29  1  0
 26 25  1  0
 27 26  1  0
 28 27  2  0
 29 32  2  0
 29 30  1  0
 31 27  1  0
M  END
$$$$
