WLE.pdb
     RDKit          3D

 32 33  0  0  1  0  0  0  0  0999 V2000
   25.3129  -20.3780  -17.1642 N   0  0  0  0  0  0  0  0  0  0  0  0
   24.1507  -19.9359  -16.4267 C   0  0  1  0  0  0  0  0  0  0  0  0
   22.9326  -19.7970  -17.2810 C   0  0  0  0  0  0  0  0  0  0  0  0
   23.1115  -18.6263  -18.1909 C   0  0  0  0  0  0  0  0  0  0  0  0
   23.5345  -18.6404  -19.4970 C   0  0  0  0  0  0  0  0  0  0  0  0
   23.5564  -17.3590  -19.9471 N   0  0  0  0  0  0  0  0  0  0  0  0
   23.1669  -16.5044  -18.9975 C   0  0  0  0  0  0  0  0  0  0  0  0
   23.0198  -15.1228  -18.9455 C   0  0  0  0  0  0  0  0  0  0  0  0
   22.5949  -14.4953  -17.8082 C   0  0  0  0  0  0  0  0  0  0  0  0
   22.3242  -15.3141  -16.7266 C   0  0  0  0  0  0  0  0  0  0  0  0
   22.4512  -16.6719  -16.7232 C   0  0  0  0  0  0  0  0  0  0  0  0
   22.8820  -17.2993  -17.8783 C   0  0  0  0  0  0  0  0  0  0  0  0
   23.8419  -20.7780  -15.2508 C   0  0  0  0  0  0  0  0  0  0  0  0
   23.8840  -22.0229  -15.3995 O   0  0  0  0  0  0  0  0  0  0  0  0
   25.5957  -20.2936  -10.0459 C   0  0  0  0  0  0  0  0  0  0  0  0
   25.2465  -20.8900  -11.4461 C   0  0  1  0  0  0  0  0  0  0  0  0
   25.6416  -22.3280  -11.3372 C   0  0  0  0  0  0  0  0  0  0  0  0
   23.7976  -20.6121  -11.6264 C   0  0  0  0  0  0  0  0  0  0  0  0
   23.1507  -21.0208  -12.8929 C   0  0  2  0  0  0  0  0  0  0  0  0
   23.5143  -20.2141  -14.0146 N   0  0  0  0  0  0  0  0  0  0  0  0
   21.6561  -21.0618  -12.7128 C   0  0  0  0  0  0  0  0  0  0  0  0
   21.0011  -19.9842  -12.7175 O   0  0  0  0  0  0  0  0  0  0  0  0
   20.9463  -22.2665  -12.5372 N   0  0  0  0  0  0  0  0  0  0  0  0
   19.5223  -22.2838  -12.2812 C   0  0  1  0  0  0  0  0  0  0  0  0
   19.0474  -23.4941  -11.5457 C   0  0  0  0  0  0  0  0  0  0  0  0
   17.5431  -23.5592  -11.4510 C   0  0  0  0  0  0  0  0  0  0  0  0
   17.1249  -24.9780  -11.4598 C   0  0  0  0  0  0  0  0  0  0  0  0
   17.5006  -25.7610  -10.5195 O   0  0  0  0  0  0  0  0  0  0  0  0
   19.1012  -21.0177  -11.5963 C   0  0  0  0  0  0  0  0  0  0  0  0
   17.9947  -20.2727  -11.9494 O   0  0  0  0  0  0  0  0  0  0  0  0
   16.3258  -25.5604  -12.4378 O   0  0  0  0  0  0  0  0  0  0  0  0
   19.7932  -20.5955  -10.6331 O   0  0  0  0  0  0  0  0  0  0  0  0
  2  1  1  6
  3  4  1  0
  3  2  1  0
  4  5  2  0
  6  5  1  0
  7  6  1  0
  8  7  2  0
  9  8  1  0
 10  9  2  0
 10 11  1  0
 11 12  2  0
 12  7  1  0
 12  4  1  0
 13  2  1  0
 13 14  2  0
 16 15  1  1
 16 18  1  0
 17 16  1  0
 19 18  1  1
 19 20  1  0
 19 21  1  0
 20 13  1  0
 21 23  1  0
 21 22  2  0
 23 24  1  0
 24 25  1  1
 24 29  1  0
 26 25  1  0
 27 26  1  0
 28 27  2  0
 29 32  2  0
 29 30  1  0
 31 27  1  0
M  END
$$$$
