WLE.pdb
     RDKit          3D

 32 33  0  0  1  0  0  0  0  0999 V2000
   26.1672  -21.5404  -13.6221 N   0  0  0  0  0  0  0  0  0  0  0  0
   25.3515  -20.7562  -12.7222 C   0  0  1  0  0  0  0  0  0  0  0  0
   23.9018  -20.7683  -13.0843 C   0  0  0  0  0  0  0  0  0  0  0  0
   23.7590  -20.3795  -14.5191 C   0  0  0  0  0  0  0  0  0  0  0  0
   23.4950  -21.2030  -15.5855 C   0  0  0  0  0  0  0  0  0  0  0  0
   23.4507  -20.4390  -16.7078 N   0  0  0  0  0  0  0  0  0  0  0  0
   23.6727  -19.1521  -16.4276 C   0  0  0  0  0  0  0  0  0  0  0  0
   23.7358  -17.9953  -17.1964 C   0  0  0  0  0  0  0  0  0  0  0  0
   23.9904  -16.7780  -16.6297 C   0  0  0  0  0  0  0  0  0  0  0  0
   24.1785  -16.7724  -15.2592 C   0  0  0  0  0  0  0  0  0  0  0  0
   24.1276  -17.8755  -14.4589 C   0  0  0  0  0  0  0  0  0  0  0  0
   23.8696  -19.1038  -15.0404 C   0  0  0  0  0  0  0  0  0  0  0  0
   25.5137  -21.1303  -11.3005 C   0  0  0  0  0  0  0  0  0  0  0  0
   25.2885  -22.3229  -10.9833 O   0  0  0  0  0  0  0  0  0  0  0  0
   28.0580  -20.9267   -6.5609 C   0  0  0  0  0  0  0  0  0  0  0  0
   26.9630  -19.8226   -6.7023 C   0  0  1  0  0  0  0  0  0  0  0  0
   27.4934  -18.6798   -5.8971 C   0  0  0  0  0  0  0  0  0  0  0  0
   26.8356  -19.5996   -8.1663 C   0  0  0  0  0  0  0  0  0  0  0  0
   26.0022  -20.5340   -8.9548 C   0  0  2  0  0  0  0  0  0  0  0  0
   25.9041  -20.1940  -10.3390 N   0  0  0  0  0  0  0  0  0  0  0  0
   24.6394  -20.6576   -8.3262 C   0  0  0  0  0  0  0  0  0  0  0  0
   23.8095  -19.7169   -8.4546 O   0  0  0  0  0  0  0  0  0  0  0  0
   24.2437  -21.7929   -7.5908 N   0  0  0  0  0  0  0  0  0  0  0  0
   22.9304  -21.8958   -6.9923 C   0  0  1  0  0  0  0  0  0  0  0  0
   22.4540  -23.2983   -6.7994 C   0  0  0  0  0  0  0  0  0  0  0  0
   21.0724  -23.3614   -6.1968 C   0  0  0  0  0  0  0  0  0  0  0  0
   20.6615  -24.7783   -6.0911 C   0  0  0  0  0  0  0  0  0  0  0  0
   21.4790  -25.7071   -6.4193 O   0  0  0  0  0  0  0  0  0  0  0  0
   22.8775  -21.1113   -5.7152 C   0  0  0  0  0  0  0  0  0  0  0  0
   23.9405  -20.9638   -4.8478 O   0  0  0  0  0  0  0  0  0  0  0  0
   19.4159  -25.2092   -5.6472 O   0  0  0  0  0  0  0  0  0  0  0  0
   21.7986  -20.5433   -5.4018 O   0  0  0  0  0  0  0  0  0  0  0  0
  2  1  1  6
  3  4  1  0
  3  2  1  0
  4  5  2  0
  6  5  1  0
  7  6  1  0
  8  7  2  0
  9  8  1  0
 10  9  2  0
 10 11  1  0
 11 12  2  0
 12  7  1  0
 12  4  1  0
 13  2  1  0
 13 14  2  0
 16 15  1  6
 16 18  1  0
 17 16  1  0
 19 18  1  1
 19 20  1  0
 19 21  1  0
 20 13  1  0
 21 23  1  0
 21 22  2  0
 23 24  1  0
 24 25  1  1
 24 29  1  0
 26 25  1  0
 27 26  1  0
 28 27  2  0
 29 32  2  0
 29 30  1  0
 31 27  1  0
M  END
$$$$
