WLE.pdb
     RDKit          3D

 32 33  0  0  1  0  0  0  0  0999 V2000
   25.9746  -22.0253  -13.6793 N   0  0  0  0  0  0  0  0  0  0  0  0
   25.7924  -20.9409  -12.7407 C   0  0  1  0  0  0  0  0  0  0  0  0
   24.8847  -19.8696  -13.2521 C   0  0  0  0  0  0  0  0  0  0  0  0
   25.3655  -19.4298  -14.5958 C   0  0  0  0  0  0  0  0  0  0  0  0
   24.6317  -19.3206  -15.7511 C   0  0  0  0  0  0  0  0  0  0  0  0
   25.4597  -18.8885  -16.7375 N   0  0  0  0  0  0  0  0  0  0  0  0
   26.7028  -18.7085  -16.2834 C   0  0  0  0  0  0  0  0  0  0  0  0
   27.8924  -18.2920  -16.8703 C   0  0  0  0  0  0  0  0  0  0  0  0
   29.0484  -18.2009  -16.1469 C   0  0  0  0  0  0  0  0  0  0  0  0
   28.9582  -18.5456  -14.8102 C   0  0  0  0  0  0  0  0  0  0  0  0
   27.8191  -18.9598  -14.1851 C   0  0  0  0  0  0  0  0  0  0  0  0
   26.6535  -19.0494  -14.9244 C   0  0  0  0  0  0  0  0  0  0  0  0
   25.3368  -21.3855  -11.4058 C   0  0  0  0  0  0  0  0  0  0  0  0
   24.7953  -22.5140  -11.3219 O   0  0  0  0  0  0  0  0  0  0  0  0
   27.7344  -19.3323   -6.7769 C   0  0  0  0  0  0  0  0  0  0  0  0
   27.3228  -20.2192   -7.9943 C   0  0  1  0  0  0  0  0  0  0  0  0
   28.1408  -21.4604   -7.8324 C   0  0  0  0  0  0  0  0  0  0  0  0
   25.8499  -20.3747   -7.8700 C   0  0  0  0  0  0  0  0  0  0  0  0
   25.1116  -21.0287   -8.9731 C   0  0  2  0  0  0  0  0  0  0  0  0
   25.5005  -20.5828  -10.2735 N   0  0  0  0  0  0  0  0  0  0  0  0
   23.6294  -20.8666   -8.7620 C   0  0  0  0  0  0  0  0  0  0  0  0
   23.2094  -19.9856   -7.9635 O   0  0  0  0  0  0  0  0  0  0  0  0
   22.6770  -21.6656   -9.4259 N   0  0  0  0  0  0  0  0  0  0  0  0
   21.2552  -21.4775   -9.2343 C   0  0  1  0  0  0  0  0  0  0  0  0
   20.4140  -21.9806  -10.3614 C   0  0  0  0  0  0  0  0  0  0  0  0
   20.3113  -23.4856  -10.3786 C   0  0  0  0  0  0  0  0  0  0  0  0
   18.8825  -23.8673  -10.3514 C   0  0  0  0  0  0  0  0  0  0  0  0
   17.9804  -22.9622  -10.2769 O   0  0  0  0  0  0  0  0  0  0  0  0
   20.8260  -22.0579   -7.9197 C   0  0  0  0  0  0  0  0  0  0  0  0
   19.6081  -21.8104   -7.3201 O   0  0  0  0  0  0  0  0  0  0  0  0
   18.4126  -25.1752  -10.4034 O   0  0  0  0  0  0  0  0  0  0  0  0
   21.6188  -22.8244   -7.3124 O   0  0  0  0  0  0  0  0  0  0  0  0
  2  1  1  6
  3  4  1  0
  3  2  1  0
  4  5  2  0
  6  5  1  0
  7  6  1  0
  8  7  2  0
  9  8  1  0
 10  9  2  0
 10 11  1  0
 11 12  2  0
 12  7  1  0
 12  4  1  0
 13  2  1  0
 13 14  2  0
 16 15  1  1
 16 18  1  0
 17 16  1  0
 19 18  1  1
 19 20  1  0
 19 21  1  0
 20 13  1  0
 21 23  1  0
 21 22  2  0
 23 24  1  0
 24 25  1  6
 24 29  1  0
 26 25  1  0
 27 26  1  0
 28 27  2  0
 29 32  2  0
 29 30  1  0
 31 27  1  0
M  END
$$$$
