WLE.pdb
     RDKit          3D

 32 33  0  0  1  0  0  0  0  0999 V2000
   26.4310  -21.8904  -12.8238 N   0  0  0  0  0  0  0  0  0  0  0  0
   26.4153  -20.7270  -11.9658 C   0  0  1  0  0  0  0  0  0  0  0  0
   25.4014  -19.7092  -12.3770 C   0  0  0  0  0  0  0  0  0  0  0  0
   25.7111  -19.2520  -13.7646 C   0  0  0  0  0  0  0  0  0  0  0  0
   24.8186  -18.9427  -14.7610 C   0  0  0  0  0  0  0  0  0  0  0  0
   25.5254  -18.5746  -15.8611 N   0  0  0  0  0  0  0  0  0  0  0  0
   26.8403  -18.6275  -15.6331 C   0  0  0  0  0  0  0  0  0  0  0  0
   27.9643  -18.3616  -16.4072 C   0  0  0  0  0  0  0  0  0  0  0  0
   29.2260  -18.5082  -15.9027 C   0  0  0  0  0  0  0  0  0  0  0  0
   29.3103  -18.9328  -14.5889 C   0  0  0  0  0  0  0  0  0  0  0  0
   28.2424  -19.2073  -13.7863 C   0  0  0  0  0  0  0  0  0  0  0  0
   26.9688  -19.0565  -14.3045 C   0  0  0  0  0  0  0  0  0  0  0  0
   26.2431  -21.0520  -10.5333 C   0  0  0  0  0  0  0  0  0  0  0  0
   25.6712  -22.1310  -10.2461 O   0  0  0  0  0  0  0  0  0  0  0  0
   28.0357  -21.0922   -5.4394 C   0  0  0  0  0  0  0  0  0  0  0  0
   27.1937  -19.8208   -5.7750 C   0  0  1  0  0  0  0  0  0  0  0  0
   27.7868  -18.7540   -4.9112 C   0  0  0  0  0  0  0  0  0  0  0  0
   27.3420  -19.6439   -7.2433 C   0  0  0  0  0  0  0  0  0  0  0  0
   26.5468  -20.5072   -8.1442 C   0  0  2  0  0  0  0  0  0  0  0  0
   26.6991  -20.1928   -9.5295 N   0  0  0  0  0  0  0  0  0  0  0  0
   25.0981  -20.4759   -7.7343 C   0  0  0  0  0  0  0  0  0  0  0  0
   24.3852  -19.4852   -8.0513 O   0  0  0  0  0  0  0  0  0  0  0  0
   24.4944  -21.5181   -7.0026 N   0  0  0  0  0  0  0  0  0  0  0  0
   23.0996  -21.4743   -6.6198 C   0  0  1  0  0  0  0  0  0  0  0  0
   22.3057  -22.6588   -7.0644 C   0  0  0  0  0  0  0  0  0  0  0  0
   20.8553  -22.5673   -6.6591 C   0  0  0  0  0  0  0  0  0  0  0  0
   20.1262  -23.7210   -7.2292 C   0  0  0  0  0  0  0  0  0  0  0  0
   20.6009  -24.9031   -7.1026 O   0  0  0  0  0  0  0  0  0  0  0  0
   22.9721  -21.2434   -5.1434 C   0  0  0  0  0  0  0  0  0  0  0  0
   21.8333  -20.7689   -4.5253 O   0  0  0  0  0  0  0  0  0  0  0  0
   18.9208  -23.6326   -7.9172 O   0  0  0  0  0  0  0  0  0  0  0  0
   23.9614  -21.4961   -4.4069 O   0  0  0  0  0  0  0  0  0  0  0  0
  2  1  1  6
  3  4  1  0
  3  2  1  0
  4  5  2  0
  6  5  1  0
  7  6  1  0
  8  7  2  0
  9  8  1  0
 10  9  2  0
 10 11  1  0
 11 12  2  0
 12  7  1  0
 12  4  1  0
 13  2  1  0
 13 14  2  0
 16 15  1  1
 16 18  1  0
 17 16  1  0
 19 18  1  1
 19 20  1  0
 19 21  1  0
 20 13  1  0
 21 23  1  0
 21 22  2  0
 23 24  1  0
 24 25  1  1
 24 29  1  0
 26 25  1  0
 27 26  1  0
 28 27  2  0
 29 32  2  0
 29 30  1  0
 31 27  1  0
M  END
$$$$
