WLE.pdb
     RDKit          3D

 32 33  0  0  1  0  0  0  0  0999 V2000
   24.1932   -7.6102  -19.3170 N   0  0  0  0  0  0  0  0  0  0  0  0
   23.5928   -7.4073  -18.0176 C   0  0  1  0  0  0  0  0  0  0  0  0
   24.5134   -6.7468  -17.0434 C   0  0  0  0  0  0  0  0  0  0  0  0
   25.6303   -7.6846  -16.7219 C   0  0  0  0  0  0  0  0  0  0  0  0
   26.9168   -7.6465  -17.1999 C   0  0  0  0  0  0  0  0  0  0  0  0
   27.6007   -8.6852  -16.6535 N   0  0  0  0  0  0  0  0  0  0  0  0
   26.8232   -9.4031  -15.8387 C   0  0  0  0  0  0  0  0  0  0  0  0
   27.0302  -10.5353  -15.0588 C   0  0  0  0  0  0  0  0  0  0  0  0
   26.0250  -11.0729  -14.3048 C   0  0  0  0  0  0  0  0  0  0  0  0
   24.8043  -10.4252  -14.3678 C   0  0  0  0  0  0  0  0  0  0  0  0
   24.5471   -9.3136  -15.1149 C   0  0  0  0  0  0  0  0  0  0  0  0
   25.5699   -8.7758  -15.8752 C   0  0  0  0  0  0  0  0  0  0  0  0
   22.3098   -6.6733  -18.0680 C   0  0  0  0  0  0  0  0  0  0  0  0
   22.2050   -5.7413  -18.9011 O   0  0  0  0  0  0  0  0  0  0  0  0
   17.3839   -6.4044  -18.9761 C   0  0  0  0  0  0  0  0  0  0  0  0
   17.4524   -6.9177  -17.5030 C   0  0  1  0  0  0  0  0  0  0  0  0
   16.3713   -7.9479  -17.4268 C   0  0  0  0  0  0  0  0  0  0  0  0
   18.8463   -7.4057  -17.3355 C   0  0  0  0  0  0  0  0  0  0  0  0
   19.9510   -6.4224  -17.3827 C   0  0  2  0  0  0  0  0  0  0  0  0
   21.2473   -7.0008  -17.2210 N   0  0  0  0  0  0  0  0  0  0  0  0
   19.7097   -5.3342  -16.3702 C   0  0  0  0  0  0  0  0  0  0  0  0
   19.8684   -5.5818  -15.1439 O   0  0  0  0  0  0  0  0  0  0  0  0
   19.3094   -4.0333  -16.7358 N   0  0  0  0  0  0  0  0  0  0  0  0
   19.0359   -3.0122  -15.7479 C   0  0  1  0  0  0  0  0  0  0  0  0
   19.4415   -1.6356  -16.1622 C   0  0  0  0  0  0  0  0  0  0  0  0
   20.9180   -1.3878  -15.9763 C   0  0  0  0  0  0  0  0  0  0  0  0
   21.5148   -1.0519  -17.2873 C   0  0  0  0  0  0  0  0  0  0  0  0
   20.7960   -1.0913  -18.3458 O   0  0  0  0  0  0  0  0  0  0  0  0
   17.5964   -3.0644  -15.3301 C   0  0  0  0  0  0  0  0  0  0  0  0
   17.1162   -2.5813  -14.1300 O   0  0  0  0  0  0  0  0  0  0  0  0
   22.8411   -0.6803  -17.4801 O   0  0  0  0  0  0  0  0  0  0  0  0
   16.7595   -3.5792  -16.1171 O   0  0  0  0  0  0  0  0  0  0  0  0
  2  1  1  6
  3  4  1  0
  3  2  1  0
  4  5  2  0
  6  5  1  0
  7  6  1  0
  8  7  2  0
  9  8  1  0
 10  9  2  0
 10 11  1  0
 11 12  2  0
 12  7  1  0
 12  4  1  0
 13  2  1  0
 13 14  2  0
 16 15  1  6
 16 18  1  0
 17 16  1  0
 19 18  1  1
 19 20  1  0
 19 21  1  0
 20 13  1  0
 21 23  1  0
 21 22  2  0
 23 24  1  0
 24 25  1  6
 24 29  1  0
 26 25  1  0
 27 26  1  0
 28 27  2  0
 29 32  2  0
 29 30  1  0
 31 27  1  0
M  END
$$$$
