WLE.pdb
     RDKit          3D

 32 33  0  0  1  0  0  0  0  0999 V2000
   25.3109  -22.6197  -13.4061 N   0  0  0  0  0  0  0  0  0  0  0  0
   25.5448  -21.9627  -14.6725 C   0  0  1  0  0  0  0  0  0  0  0  0
   25.1560  -22.7999  -15.8476 C   0  0  0  0  0  0  0  0  0  0  0  0
   26.0270  -24.0125  -15.8861 C   0  0  0  0  0  0  0  0  0  0  0  0
   25.6503  -25.3182  -15.6913 C   0  0  0  0  0  0  0  0  0  0  0  0
   26.7555  -26.0987  -15.8118 N   0  0  0  0  0  0  0  0  0  0  0  0
   27.8402  -25.3661  -16.0773 C   0  0  0  0  0  0  0  0  0  0  0  0
   29.1813  -25.6694  -16.2837 C   0  0  0  0  0  0  0  0  0  0  0  0
   30.1002  -24.6908  -16.5405 C   0  0  0  0  0  0  0  0  0  0  0  0
   29.6148  -23.3961  -16.5811 C   0  0  0  0  0  0  0  0  0  0  0  0
   28.3119  -23.0435  -16.3861 C   0  0  0  0  0  0  0  0  0  0  0  0
   27.3882  -24.0398  -16.1266 C   0  0  0  0  0  0  0  0  0  0  0  0
   24.9060  -20.6327  -14.7746 C   0  0  0  0  0  0  0  0  0  0  0  0
   23.8666  -20.4331  -14.1012 O   0  0  0  0  0  0  0  0  0  0  0  0
   27.5603  -17.7813  -15.0719 C   0  0  0  0  0  0  0  0  0  0  0  0
   26.6838  -16.6435  -15.6843 C   0  0  1  0  0  0  0  0  0  0  0  0
   27.6490  -15.8363  -16.4921 C   0  0  0  0  0  0  0  0  0  0  0  0
   25.6165  -17.3509  -16.4391 C   0  0  0  0  0  0  0  0  0  0  0  0
   24.7971  -18.3585  -15.7299 C   0  0  2  0  0  0  0  0  0  0  0  0
   25.4359  -19.6287  -15.5899 N   0  0  0  0  0  0  0  0  0  0  0  0
   23.4575  -18.4936  -16.4044 C   0  0  0  0  0  0  0  0  0  0  0  0
   23.3703  -19.1333  -17.4877 O   0  0  0  0  0  0  0  0  0  0  0  0
   22.2804  -17.9300  -15.8725 N   0  0  0  0  0  0  0  0  0  0  0  0
   20.9928  -18.1093  -16.5079 C   0  0  1  0  0  0  0  0  0  0  0  0
   20.0406  -18.9592  -15.7320 C   0  0  0  0  0  0  0  0  0  0  0  0
   19.3127  -18.1828  -14.6627 C   0  0  0  0  0  0  0  0  0  0  0  0
   19.1502  -19.0460  -13.4726 C   0  0  0  0  0  0  0  0  0  0  0  0
   19.5874  -20.2490  -13.4909 O   0  0  0  0  0  0  0  0  0  0  0  0
   20.3935  -16.7788  -16.8540 C   0  0  0  0  0  0  0  0  0  0  0  0
   19.3827  -16.5964  -17.7755 O   0  0  0  0  0  0  0  0  0  0  0  0
   18.5415  -18.6503  -12.2864 O   0  0  0  0  0  0  0  0  0  0  0  0
   20.8311  -15.7517  -16.2721 O   0  0  0  0  0  0  0  0  0  0  0  0
  2  1  1  1
  3  4  1  0
  3  2  1  0
  4  5  2  0
  6  5  1  0
  7  6  1  0
  8  7  2  0
  9  8  1  0
 10  9  2  0
 10 11  1  0
 11 12  2  0
 12  7  1  0
 12  4  1  0
 13  2  1  0
 13 14  2  0
 16 15  1  6
 16 18  1  0
 17 16  1  0
 19 18  1  6
 19 20  1  0
 19 21  1  0
 20 13  1  0
 21 23  1  0
 21 22  2  0
 23 24  1  0
 24 25  1  1
 24 29  1  0
 26 25  1  0
 27 26  1  0
 28 27  2  0
 29 32  2  0
 29 30  1  0
 31 27  1  0
M  END
$$$$
