WLE.pdb
     RDKit          3D

 32 33  0  0  1  0  0  0  0  0999 V2000
   22.7556  -20.1674  -14.1815 N   0  0  0  0  0  0  0  0  0  0  0  0
   21.7588  -19.9699  -13.1531 C   0  0  1  0  0  0  0  0  0  0  0  0
   20.3706  -19.8627  -13.6956 C   0  0  0  0  0  0  0  0  0  0  0  0
   20.2388  -18.5713  -14.4341 C   0  0  0  0  0  0  0  0  0  0  0  0
   20.4833  -18.3416  -15.7654 C   0  0  0  0  0  0  0  0  0  0  0  0
   20.2405  -17.0293  -16.0186 N   0  0  0  0  0  0  0  0  0  0  0  0
   19.8475  -16.3870  -14.9155 C   0  0  0  0  0  0  0  0  0  0  0  0
   19.4895  -15.0716  -14.6420 C   0  0  0  0  0  0  0  0  0  0  0  0
   19.1227  -14.6814  -13.3845 C   0  0  0  0  0  0  0  0  0  0  0  0
   19.1310  -15.6678  -12.4148 C   0  0  0  0  0  0  0  0  0  0  0  0
   19.4730  -16.9706  -12.6283 C   0  0  0  0  0  0  0  0  0  0  0  0
   19.8431  -17.3575  -13.9037 C   0  0  0  0  0  0  0  0  0  0  0  0
   21.7999  -20.9935  -12.0865 C   0  0  0  0  0  0  0  0  0  0  0  0
   21.5587  -22.1812  -12.4103 O   0  0  0  0  0  0  0  0  0  0  0  0
   24.8527  -19.9251   -7.6011 C   0  0  0  0  0  0  0  0  0  0  0  0
   24.1882  -20.2156   -8.9840 C   0  0  1  0  0  0  0  0  0  0  0  0
   25.3432  -20.5069   -9.8878 C   0  0  0  0  0  0  0  0  0  0  0  0
   23.2489  -21.3381   -8.7255 C   0  0  0  0  0  0  0  0  0  0  0  0
   22.2229  -21.6516   -9.7446 C   0  0  2  0  0  0  0  0  0  0  0  0
   22.0965  -20.6573  -10.7626 N   0  0  0  0  0  0  0  0  0  0  0  0
   20.9009  -21.9159   -9.0737 C   0  0  0  0  0  0  0  0  0  0  0  0
   20.1923  -20.9439   -8.6951 O   0  0  0  0  0  0  0  0  0  0  0  0
   20.4126  -23.2183   -8.8470 N   0  0  0  0  0  0  0  0  0  0  0  0
   19.1643  -23.4565   -8.1551 C   0  0  1  0  0  0  0  0  0  0  0  0
   18.3847  -24.6168   -8.6814 C   0  0  0  0  0  0  0  0  0  0  0  0
   17.0934  -24.8328   -7.9318 C   0  0  0  0  0  0  0  0  0  0  0  0
   16.0483  -25.2512   -8.8913 C   0  0  0  0  0  0  0  0  0  0  0  0
   16.3433  -25.4167  -10.1259 O   0  0  0  0  0  0  0  0  0  0  0  0
   19.4012  -23.5711   -6.6786 C   0  0  0  0  0  0  0  0  0  0  0  0
   20.5944  -23.9681   -6.1103 O   0  0  0  0  0  0  0  0  0  0  0  0
   14.7199  -25.4923   -8.5577 O   0  0  0  0  0  0  0  0  0  0  0  0
   18.4583  -23.2883   -5.8939 O   0  0  0  0  0  0  0  0  0  0  0  0
  2  1  1  6
  3  4  1  0
  3  2  1  0
  4  5  2  0
  6  5  1  0
  7  6  1  0
  8  7  2  0
  9  8  1  0
 10  9  2  0
 10 11  1  0
 11 12  2  0
 12  7  1  0
 12  4  1  0
 13  2  1  0
 13 14  2  0
 16 15  1  1
 16 18  1  0
 17 16  1  0
 19 18  1  1
 19 20  1  0
 19 21  1  0
 20 13  1  0
 21 23  1  0
 21 22  2  0
 23 24  1  0
 24 25  1  6
 24 29  1  0
 26 25  1  0
 27 26  1  0
 28 27  2  0
 29 32  2  0
 29 30  1  0
 31 27  1  0
M  END
$$$$
