WLE.pdb
     RDKit          3D

 32 33  0  0  1  0  0  0  0  0999 V2000
   26.0340  -21.9950  -13.4035 N   0  0  0  0  0  0  0  0  0  0  0  0
   26.1251  -20.8335  -12.5475 C   0  0  1  0  0  0  0  0  0  0  0  0
   25.2154  -19.7244  -12.9660 C   0  0  0  0  0  0  0  0  0  0  0  0
   25.6317  -19.2418  -14.3167 C   0  0  0  0  0  0  0  0  0  0  0  0
   24.8196  -18.8163  -15.3387 C   0  0  0  0  0  0  0  0  0  0  0  0
   25.6091  -18.4686  -16.3880 N   0  0  0  0  0  0  0  0  0  0  0  0
   26.9017  -18.6455  -16.1021 C   0  0  0  0  0  0  0  0  0  0  0  0
   28.0814  -18.4488  -16.8113 C   0  0  0  0  0  0  0  0  0  0  0  0
   29.2992  -18.7253  -16.2561 C   0  0  0  0  0  0  0  0  0  0  0  0
   29.2814  -19.2072  -14.9596 C   0  0  0  0  0  0  0  0  0  0  0  0
   28.1554  -19.4184  -14.2198 C   0  0  0  0  0  0  0  0  0  0  0  0
   26.9267  -19.1361  -14.7890 C   0  0  0  0  0  0  0  0  0  0  0  0
   25.9149  -21.1374  -11.1154 C   0  0  0  0  0  0  0  0  0  0  0  0
   25.3148  -22.2010  -10.8283 O   0  0  0  0  0  0  0  0  0  0  0  0
   27.6934  -21.2213   -6.0393 C   0  0  0  0  0  0  0  0  0  0  0  0
   26.8995  -19.9160   -6.3620 C   0  0  1  0  0  0  0  0  0  0  0  0
   27.5438  -18.8769   -5.5013 C   0  0  0  0  0  0  0  0  0  0  0  0
   27.0392  -19.7401   -7.8312 C   0  0  0  0  0  0  0  0  0  0  0  0
   26.2331  -20.5988   -8.7269 C   0  0  2  0  0  0  0  0  0  0  0  0
   26.3663  -20.2754  -10.1121 N   0  0  0  0  0  0  0  0  0  0  0  0
   24.7900  -20.5721   -8.2974 C   0  0  0  0  0  0  0  0  0  0  0  0
   24.1125  -19.5218   -8.4648 O   0  0  0  0  0  0  0  0  0  0  0  0
   24.1533  -21.6831   -7.7089 N   0  0  0  0  0  0  0  0  0  0  0  0
   22.7647  -21.6420   -7.3041 C   0  0  1  0  0  0  0  0  0  0  0  0
   22.0511  -22.9479   -7.4321 C   0  0  0  0  0  0  0  0  0  0  0  0
   20.6195  -22.8723   -6.9621 C   0  0  0  0  0  0  0  0  0  0  0  0
   19.9658  -24.1758   -7.2102 C   0  0  0  0  0  0  0  0  0  0  0  0
   20.6261  -25.1291   -7.7523 O   0  0  0  0  0  0  0  0  0  0  0  0
   22.6424  -21.0761   -5.9206 C   0  0  0  0  0  0  0  0  0  0  0  0
   21.5532  -20.3617   -5.4653 O   0  0  0  0  0  0  0  0  0  0  0  0
   18.6443  -24.4705   -6.8924 O   0  0  0  0  0  0  0  0  0  0  0  0
   23.5882  -21.2584   -5.1099 O   0  0  0  0  0  0  0  0  0  0  0  0
  2  1  1  6
  3  4  1  0
  3  2  1  0
  4  5  2  0
  6  5  1  0
  7  6  1  0
  8  7  2  0
  9  8  1  0
 10  9  2  0
 10 11  1  0
 11 12  2  0
 12  7  1  0
 12  4  1  0
 13  2  1  0
 13 14  2  0
 16 15  1  1
 16 18  1  0
 17 16  1  0
 19 18  1  1
 19 20  1  0
 19 21  1  0
 20 13  1  0
 21 23  1  0
 21 22  2  0
 23 24  1  0
 24 25  1  1
 24 29  1  0
 26 25  1  0
 27 26  1  0
 28 27  2  0
 29 32  2  0
 29 30  1  0
 31 27  1  0
M  END
$$$$
