MVA.pdb
     RDKit          3D

 21 20  0  0  1  0  0  0  0  0999 V2000
    7.2729  -12.2154   20.6468 C   0  0  0  0  0  0  0  0  0  0  0  0
    7.6224  -12.3282   18.9006 S   0  0  0  0  0  0  0  0  0  0  0  0
    8.3743  -13.8562   18.3632 C   0  0  0  0  0  0  0  0  0  0  0  0
    8.5488  -14.8810   19.4354 C   0  0  0  0  0  0  0  0  0  0  0  0
    9.0805  -16.1593   18.8925 C   0  0  2  0  0  0  0  0  0  0  0  0
    8.1319  -16.7321   17.9617 N   0  0  0  0  0  0  0  0  0  0  0  0
    9.2642  -17.1781   19.9934 C   0  0  0  0  0  0  0  0  0  0  0  0
    8.3393  -17.9675   20.2588 O   0  0  0  0  0  0  0  0  0  0  0  0
   11.8872  -19.7227   20.2247 C   0  0  0  0  0  0  0  0  0  0  0  0
   12.0514  -18.8585   21.4472 C   0  0  1  0  0  0  0  0  0  0  0  0
   13.1891  -17.8979   21.3409 C   0  0  0  0  0  0  0  0  0  0  0  0
   10.7361  -18.1708   21.7799 C   0  0  2  0  0  0  0  0  0  0  0  0
   10.4888  -17.2154   20.7041 N   0  0  0  0  0  0  0  0  0  0  0  0
   10.7964  -17.4748   23.0748 C   0  0  0  0  0  0  0  0  0  0  0  0
   11.5754  -16.4984   23.2103 O   0  0  0  0  0  0  0  0  0  0  0  0
    8.6915  -16.9300   25.9556 C   0  0  0  0  0  0  0  0  0  0  0  0
   10.1197  -17.2293   25.5034 C   0  0  2  0  0  0  0  0  0  0  0  0
   10.0095  -17.8508   24.2004 N   0  0  0  0  0  0  0  0  0  0  0  0
   10.8413  -18.0676   26.4635 C   0  0  0  0  0  0  0  0  0  0  0  0
   11.2136  -19.3611   26.1905 O   0  0  0  0  0  0  0  0  0  0  0  0
   11.1385  -17.5902   27.5930 O   0  0  0  0  0  0  0  0  0  0  0  0
  2  1  1  0
  3  4  1  0
  3  2  1  0
  5  7  1  0
  5  4  1  0
  5  6  1  6
  7  8  2  0
 10  9  1  6
 10 11  1  0
 12 10  1  0
 12 13  1  6
 13  7  1  0
 14 12  1  0
 15 14  2  0
 17 16  1  1
 17 18  1  0
 18 14  1  0
 19 17  1  0
 19 20  1  0
 21 19  2  0
M  END
$$$$
