MVA.pdb
     RDKit          3D

 21 20  0  0  1  0  0  0  0  0999 V2000
    7.7340  -11.3087   27.0411 C   0  0  0  0  0  0  0  0  0  0  0  0
    6.2440  -12.0554   27.6784 S   0  0  0  0  0  0  0  0  0  0  0  0
    5.7272  -13.5585   26.8643 C   0  0  0  0  0  0  0  0  0  0  0  0
    6.7784  -14.2138   26.0302 C   0  0  0  0  0  0  0  0  0  0  0  0
    6.2559  -15.4209   25.3362 C   0  0  2  0  0  0  0  0  0  0  0  0
    5.9720  -16.4607   26.3018 N   0  0  0  0  0  0  0  0  0  0  0  0
    7.2886  -15.9890   24.3905 C   0  0  0  0  0  0  0  0  0  0  0  0
    7.7767  -17.1111   24.6180 O   0  0  0  0  0  0  0  0  0  0  0  0
    9.4959  -15.2481   19.9997 C   0  0  0  0  0  0  0  0  0  0  0  0
    8.5601  -14.7877   21.0863 C   0  0  1  0  0  0  0  0  0  0  0  0
    7.1663  -14.5564   20.6044 C   0  0  0  0  0  0  0  0  0  0  0  0
    8.6184  -15.7469   22.2653 C   0  0  2  0  0  0  0  0  0  0  0  0
    7.6827  -15.2316   23.2604 N   0  0  0  0  0  0  0  0  0  0  0  0
    9.9725  -15.8299   22.8349 C   0  0  0  0  0  0  0  0  0  0  0  0
   10.5048  -14.7931   23.3040 O   0  0  0  0  0  0  0  0  0  0  0  0
   12.2729  -18.6165   23.7671 C   0  0  0  0  0  0  0  0  0  0  0  0
   12.0503  -17.1366   23.4604 C   0  0  2  0  0  0  0  0  0  0  0  0
   10.7253  -17.0375   22.8856 N   0  0  0  0  0  0  0  0  0  0  0  0
   13.0847  -16.5913   22.5784 C   0  0  0  0  0  0  0  0  0  0  0  0
   12.9085  -16.4474   21.2239 O   0  0  0  0  0  0  0  0  0  0  0  0
   14.1889  -16.2351   23.0744 O   0  0  0  0  0  0  0  0  0  0  0  0
  2  1  1  0
  3  4  1  0
  3  2  1  0
  5  7  1  0
  5  4  1  0
  5  6  1  1
  7  8  2  0
 10  9  1  6
 10 11  1  0
 12 10  1  0
 12 13  1  1
 13  7  1  0
 14 12  1  0
 15 14  2  0
 17 16  1  6
 17 18  1  0
 18 14  1  0
 19 17  1  0
 19 20  1  0
 21 19  2  0
M  END
$$$$
