MVA.pdb
     RDKit          3D

 21 20  0  0  1  0  0  0  0  0999 V2000
    7.0402  -11.9293   25.9387 C   0  0  0  0  0  0  0  0  0  0  0  0
    6.4616  -12.6089   27.4838 S   0  0  0  0  0  0  0  0  0  0  0  0
    6.8778  -14.3208   27.7757 C   0  0  0  0  0  0  0  0  0  0  0  0
    7.6073  -14.9889   26.6570 C   0  0  0  0  0  0  0  0  0  0  0  0
    6.6946  -15.8123   25.8199 C   0  0  2  0  0  0  0  0  0  0  0  0
    6.3193  -17.0134   26.5347 N   0  0  0  0  0  0  0  0  0  0  0  0
    7.3858  -16.2680   24.5558 C   0  0  0  0  0  0  0  0  0  0  0  0
    7.7012  -17.4651   24.4270 O   0  0  0  0  0  0  0  0  0  0  0  0
    8.9935  -14.8060   20.0918 C   0  0  0  0  0  0  0  0  0  0  0  0
    8.2051  -14.5463   21.3485 C   0  0  1  0  0  0  0  0  0  0  0  0
    6.7518  -14.3178   21.0955 C   0  0  0  0  0  0  0  0  0  0  0  0
    8.4543  -15.6557   22.3588 C   0  0  2  0  0  0  0  0  0  0  0  0
    7.6625  -15.3217   23.5389 N   0  0  0  0  0  0  0  0  0  0  0  0
    9.8783  -15.7603   22.7143 C   0  0  0  0  0  0  0  0  0  0  0  0
   10.4399  -14.7933   23.2869 O   0  0  0  0  0  0  0  0  0  0  0  0
   12.3113  -18.4997   23.1124 C   0  0  0  0  0  0  0  0  0  0  0  0
   12.0704  -17.0276   22.7828 C   0  0  2  0  0  0  0  0  0  0  0  0
   10.6680  -16.9136   22.4421 N   0  0  0  0  0  0  0  0  0  0  0  0
   12.9468  -16.5485   21.7115 C   0  0  0  0  0  0  0  0  0  0  0  0
   14.2156  -16.0762   21.9423 O   0  0  0  0  0  0  0  0  0  0  0  0
   12.5275  -16.5665   20.5215 O   0  0  0  0  0  0  0  0  0  0  0  0
  2  1  1  0
  3  4  1  0
  3  2  1  0
  5  7  1  0
  5  4  1  0
  5  6  1  1
  7  8  2  0
 10  9  1  6
 10 11  1  0
 12 10  1  0
 12 13  1  1
 13  7  1  0
 14 12  1  0
 15 14  2  0
 17 16  1  6
 17 18  1  0
 18 14  1  0
 19 17  1  0
 19 20  1  0
 21 19  2  0
M  END
$$$$
