MVA.pdb
     RDKit          3D

 21 20  0  0  1  0  0  0  0  0999 V2000
   10.2865  -14.1286   29.4618 C   0  0  0  0  0  0  0  0  0  0  0  0
    9.1850  -13.1703   28.4359 S   0  0  0  0  0  0  0  0  0  0  0  0
    7.9208  -14.1011   27.5848 C   0  0  0  0  0  0  0  0  0  0  0  0
    8.3780  -15.4023   27.0119 C   0  0  0  0  0  0  0  0  0  0  0  0
    7.2940  -16.0790   26.2513 C   0  0  2  0  0  0  0  0  0  0  0  0
    6.9008  -17.2952   26.9298 N   0  0  0  0  0  0  0  0  0  0  0  0
    7.7747  -16.4934   24.8799 C   0  0  0  0  0  0  0  0  0  0  0  0
    7.9692  -17.6985   24.6367 O   0  0  0  0  0  0  0  0  0  0  0  0
    8.5485  -14.8456   20.2648 C   0  0  0  0  0  0  0  0  0  0  0  0
    8.0556  -14.6340   21.6722 C   0  0  1  0  0  0  0  0  0  0  0  0
    6.6028  -14.2983   21.7433 C   0  0  0  0  0  0  0  0  0  0  0  0
    8.4214  -15.8299   22.5379 C   0  0  2  0  0  0  0  0  0  0  0  0
    7.9955  -15.5001   23.8947 N   0  0  0  0  0  0  0  0  0  0  0  0
    9.8673  -16.1017   22.5103 C   0  0  0  0  0  0  0  0  0  0  0  0
   10.6642  -15.2232   22.9243 O   0  0  0  0  0  0  0  0  0  0  0  0
   11.9343  -19.1615   22.0747 C   0  0  0  0  0  0  0  0  0  0  0  0
   11.8354  -17.6370   22.0797 C   0  0  2  0  0  0  0  0  0  0  0  0
   10.4228  -17.3232   22.0338 N   0  0  0  0  0  0  0  0  0  0  0  0
   12.5793  -17.0294   20.9740 C   0  0  0  0  0  0  0  0  0  0  0  0
   13.8906  -16.6365   21.0855 O   0  0  0  0  0  0  0  0  0  0  0  0
   11.9996  -16.8550   19.8669 O   0  0  0  0  0  0  0  0  0  0  0  0
  2  1  1  0
  3  4  1  0
  3  2  1  0
  5  7  1  0
  5  4  1  0
  5  6  1  1
  7  8  2  0
 10  9  1  6
 10 11  1  0
 12 10  1  0
 12 13  1  1
 13  7  1  0
 14 12  1  0
 15 14  2  0
 17 16  1  6
 17 18  1  0
 18 14  1  0
 19 17  1  0
 19 20  1  0
 21 19  2  0
M  END
$$$$
