MVA.pdb
     RDKit          3D

 21 20  0  0  1  0  0  0  0  0999 V2000
    5.9997  -18.5866   24.6575 C   0  0  0  0  0  0  0  0  0  0  0  0
    5.8862  -17.8454   23.0383 S   0  0  0  0  0  0  0  0  0  0  0  0
    7.4346  -17.6513   22.1701 C   0  0  0  0  0  0  0  0  0  0  0  0
    7.4801  -16.5024   21.2173 C   0  0  0  0  0  0  0  0  0  0  0  0
    6.8966  -15.2710   21.8129 C   0  0  2  0  0  0  0  0  0  0  0  0
    6.8219  -14.2274   20.8131 N   0  0  0  0  0  0  0  0  0  0  0  0
    7.7765  -14.7376   22.9196 C   0  0  0  0  0  0  0  0  0  0  0  0
    8.9086  -14.2991   22.6453 O   0  0  0  0  0  0  0  0  0  0  0  0
    7.9488  -12.9119   27.4314 C   0  0  0  0  0  0  0  0  0  0  0  0
    7.2303  -13.3431   26.1799 C   0  0  1  0  0  0  0  0  0  0  0  0
    6.7282  -12.1978   25.3647 C   0  0  0  0  0  0  0  0  0  0  0  0
    8.1068  -14.2916   25.3763 C   0  0  2  0  0  0  0  0  0  0  0  0
    7.2951  -14.7470   24.2516 N   0  0  0  0  0  0  0  0  0  0  0  0
    8.5498  -15.4402   26.1822 C   0  0  0  0  0  0  0  0  0  0  0  0
    7.6910  -16.1456   26.7682 O   0  0  0  0  0  0  0  0  0  0  0  0
   11.6794  -17.4018   26.4197 C   0  0  0  0  0  0  0  0  0  0  0  0
   10.3625  -16.9736   27.0648 C   0  0  2  0  0  0  0  0  0  0  0  0
    9.9179  -15.8031   26.3379 N   0  0  0  0  0  0  0  0  0  0  0  0
   10.5048  -16.7196   28.5002 C   0  0  0  0  0  0  0  0  0  0  0  0
   10.6450  -17.7259   29.4244 O   0  0  0  0  0  0  0  0  0  0  0  0
   10.4998  -15.5283   28.9161 O   0  0  0  0  0  0  0  0  0  0  0  0
  2  1  1  0
  3  4  1  0
  3  2  1  0
  5  7  1  0
  5  4  1  0
  5  6  1  6
  7  8  2  0
 10  9  1  1
 10 11  1  0
 12 10  1  0
 12 13  1  6
 13  7  1  0
 14 12  1  0
 15 14  2  0
 17 16  1  6
 17 18  1  0
 18 14  1  0
 19 17  1  0
 19 20  1  0
 21 19  2  0
M  END
$$$$
