MVA.pdb
     RDKit          3D

 21 20  0  0  1  0  0  0  0  0999 V2000
    6.7383  -10.9340   26.7557 C   0  0  0  0  0  0  0  0  0  0  0  0
    6.5975  -12.3403   27.8449 S   0  0  0  0  0  0  0  0  0  0  0  0
    6.0253  -13.8503   27.0824 C   0  0  0  0  0  0  0  0  0  0  0  0
    6.9697  -14.4512   26.0938 C   0  0  0  0  0  0  0  0  0  0  0  0
    6.4199  -15.6968   25.4955 C   0  0  2  0  0  0  0  0  0  0  0  0
    6.3629  -16.7408   26.4960 N   0  0  0  0  0  0  0  0  0  0  0  0
    7.3203  -16.2102   24.3958 C   0  0  0  0  0  0  0  0  0  0  0  0
    7.6992  -17.3955   24.4171 O   0  0  0  0  0  0  0  0  0  0  0  0
    9.0797  -15.1488   19.8912 C   0  0  0  0  0  0  0  0  0  0  0  0
    8.3269  -14.7386   21.1295 C   0  0  1  0  0  0  0  0  0  0  0  0
    6.8870  -14.4407   20.8719 C   0  0  0  0  0  0  0  0  0  0  0  0
    8.5214  -15.7755   22.2251 C   0  0  2  0  0  0  0  0  0  0  0  0
    7.7169  -15.3304   23.3591 N   0  0  0  0  0  0  0  0  0  0  0  0
    9.9341  -15.8948   22.6191 C   0  0  0  0  0  0  0  0  0  0  0  0
   10.5292  -14.8887   23.0794 O   0  0  0  0  0  0  0  0  0  0  0  0
   12.3268  -18.7632   22.9436 C   0  0  0  0  0  0  0  0  0  0  0  0
   12.0329  -17.2646   22.9861 C   0  0  2  0  0  0  0  0  0  0  0  0
   10.6762  -17.1049   22.5066 N   0  0  0  0  0  0  0  0  0  0  0  0
   12.9974  -16.4879   22.2041 C   0  0  0  0  0  0  0  0  0  0  0  0
   14.0495  -15.8147   22.7753 O   0  0  0  0  0  0  0  0  0  0  0  0
   12.8651  -16.4283   20.9506 O   0  0  0  0  0  0  0  0  0  0  0  0
  2  1  1  0
  3  4  1  0
  3  2  1  0
  5  7  1  0
  5  4  1  0
  5  6  1  1
  7  8  2  0
 10  9  1  6
 10 11  1  0
 12 10  1  0
 12 13  1  1
 13  7  1  0
 14 12  1  0
 15 14  2  0
 17 16  1  6
 17 18  1  0
 18 14  1  0
 19 17  1  0
 19 20  1  0
 21 19  2  0
M  END
$$$$
