MVA.pdb
     RDKit          3D

 21 20  0  0  1  0  0  0  0  0999 V2000
    6.2963  -12.8258   26.8821 C   0  0  0  0  0  0  0  0  0  0  0  0
    8.0584  -12.9591   26.6343 S   0  0  0  0  0  0  0  0  0  0  0  0
    8.6793  -14.6166   26.3976 C   0  0  0  0  0  0  0  0  0  0  0  0
    7.7192  -15.7034   26.7543 C   0  0  0  0  0  0  0  0  0  0  0  0
    6.7207  -15.9305   25.6758 C   0  0  2  0  0  0  0  0  0  0  0  0
    5.8417  -17.0210   26.0395 N   0  0  0  0  0  0  0  0  0  0  0  0
    7.3996  -16.3421   24.3900 C   0  0  0  0  0  0  0  0  0  0  0  0
    7.6791  -17.5401   24.2005 O   0  0  0  0  0  0  0  0  0  0  0  0
    8.6746  -14.6257   19.9037 C   0  0  0  0  0  0  0  0  0  0  0  0
    7.9646  -14.4671   21.2225 C   0  0  1  0  0  0  0  0  0  0  0  0
    6.5168  -14.1345   21.0757 C   0  0  0  0  0  0  0  0  0  0  0  0
    8.1965  -15.6946   22.0902 C   0  0  2  0  0  0  0  0  0  0  0  0
    7.7058  -15.3542   23.4224 N   0  0  0  0  0  0  0  0  0  0  0  0
    9.6207  -16.0593   22.1503 C   0  0  0  0  0  0  0  0  0  0  0  0
   10.1854  -16.4981   21.1173 O   0  0  0  0  0  0  0  0  0  0  0  0
   12.5296  -15.1264   24.0370 C   0  0  0  0  0  0  0  0  0  0  0  0
   11.8039  -16.3150   23.4090 C   0  0  2  0  0  0  0  0  0  0  0  0
   10.4075  -15.9411   23.3313 N   0  0  0  0  0  0  0  0  0  0  0  0
   12.0102  -17.5528   24.1642 C   0  0  0  0  0  0  0  0  0  0  0  0
   13.2226  -18.1953   24.2246 O   0  0  0  0  0  0  0  0  0  0  0  0
   11.0385  -18.0590   24.7901 O   0  0  0  0  0  0  0  0  0  0  0  0
  2  1  1  0
  3  4  1  0
  3  2  1  0
  5  7  1  0
  5  4  1  0
  5  6  1  1
  7  8  2  0
 10  9  1  6
 10 11  1  0
 12 10  1  0
 12 13  1  1
 13  7  1  0
 14 12  1  0
 15 14  2  0
 17 16  1  1
 17 18  1  0
 18 14  1  0
 19 17  1  0
 19 20  1  0
 21 19  2  0
M  END
$$$$
