FFG.pdb
     RDKit          3D

 27 28  0  0  1  0  0  0  0  0999 V2000
   21.3616  -20.6255  -11.9769 N   0  0  0  0  0  0  0  0  0  0  0  0
   22.4634  -21.1250  -12.7653 C   0  0  1  0  0  0  0  0  0  0  0  0
   22.1777  -20.9275  -14.2179 C   0  0  0  0  0  0  0  0  0  0  0  0
   21.1420  -21.9234  -14.6255 C   0  0  0  0  0  0  0  0  0  0  0  0
   21.4823  -23.2481  -14.7994 C   0  0  0  0  0  0  0  0  0  0  0  0
   20.5509  -24.1893  -15.1742 C   0  0  0  0  0  0  0  0  0  0  0  0
   19.2421  -23.8275  -15.3871 C   0  0  0  0  0  0  0  0  0  0  0  0
   18.9250  -22.4969  -15.2071 C   0  0  0  0  0  0  0  0  0  0  0  0
   19.8374  -21.5343  -14.8324 C   0  0  0  0  0  0  0  0  0  0  0  0
   23.7414  -20.4497  -12.4179 C   0  0  0  0  0  0  0  0  0  0  0  0
   23.7819  -19.1869  -12.3261 O   0  0  0  0  0  0  0  0  0  0  0  0
   24.9439  -21.1370  -12.1770 N   0  0  0  0  0  0  0  0  0  0  0  0
   26.1987  -20.4225  -11.9512 C   0  0  1  0  0  0  0  0  0  0  0  0
   26.8827  -21.2243  -10.8502 C   0  0  0  0  0  0  0  0  0  0  0  0
   26.5421  -20.8381   -9.4928 C   0  0  0  0  0  0  0  0  0  0  0  0
   25.3830  -21.3313   -8.8860 C   0  0  0  0  0  0  0  0  0  0  0  0
   25.0298  -20.9907   -7.6120 C   0  0  0  0  0  0  0  0  0  0  0  0
   25.8397  -20.1371   -6.9070 C   0  0  0  0  0  0  0  0  0  0  0  0
   26.9921  -19.6351   -7.4845 C   0  0  0  0  0  0  0  0  0  0  0  0
   27.3521  -19.9742   -8.7650 C   0  0  0  0  0  0  0  0  0  0  0  0
   27.0487  -20.3830  -13.1244 C   0  0  0  0  0  0  0  0  0  0  0  0
   27.3326  -21.4325  -13.7402 O   0  0  0  0  0  0  0  0  0  0  0  0
   27.5662  -19.1550  -13.5916 N   0  0  0  0  0  0  0  0  0  0  0  0
   28.5072  -19.1441  -14.6757 C   0  0  0  0  0  0  0  0  0  0  0  0
   27.8142  -18.7503  -15.9196 C   0  0  0  0  0  0  0  0  0  0  0  0
   28.4135  -18.1032  -16.8233 O   0  0  0  0  0  0  0  0  0  0  0  0
   26.4877  -19.0978  -16.0920 O   0  0  0  0  0  0  0  0  0  0  0  0
  2  1  1  1
  3  2  1  0
  4  3  1  0
  5  4  2  0
  6  5  1  0
  7  6  2  0
  7  8  1  0
  8  9  2  0
  9  4  1  0
 10 11  2  0
 10  2  1  0
 12 10  1  0
 13 12  1  0
 13 14  1  1
 15 14  1  0
 15 16  2  0
 17 16  1  0
 18 17  2  0
 19 20  2  0
 19 18  1  0
 20 15  1  0
 21 13  1  0
 22 21  2  0
 23 21  1  0
 24 23  1  0
 25 24  1  0
 25 27  1  0
 26 25  2  0
M  END
$$$$
