FFG.pdb
     RDKit          3D

 27 28  0  0  1  0  0  0  0  0999 V2000
   26.0386  -22.7261  -19.5915 N   0  0  0  0  0  0  0  0  0  0  0  0
   24.6295  -22.4280  -19.6952 C   0  0  1  0  0  0  0  0  0  0  0  0
   23.8334  -23.5077  -19.0388 C   0  0  0  0  0  0  0  0  0  0  0  0
   22.4297  -23.4183  -19.5411 C   0  0  0  0  0  0  0  0  0  0  0  0
   21.4583  -22.8010  -18.7822 C   0  0  0  0  0  0  0  0  0  0  0  0
   20.1565  -22.7026  -19.2175 C   0  0  0  0  0  0  0  0  0  0  0  0
   19.7880  -23.2237  -20.4348 C   0  0  0  0  0  0  0  0  0  0  0  0
   20.7767  -23.8367  -21.1765 C   0  0  0  0  0  0  0  0  0  0  0  0
   22.0872  -23.9490  -20.7647 C   0  0  0  0  0  0  0  0  0  0  0  0
   24.2949  -21.1203  -19.0719 C   0  0  0  0  0  0  0  0  0  0  0  0
   24.8151  -20.7999  -17.9623 O   0  0  0  0  0  0  0  0  0  0  0  0
   23.4143  -20.1874  -19.6469 N   0  0  0  0  0  0  0  0  0  0  0  0
   23.1528  -18.8957  -19.0151 C   0  0  1  0  0  0  0  0  0  0  0  0
   23.3211  -17.8928  -20.1504 C   0  0  0  0  0  0  0  0  0  0  0  0
   24.6675  -17.7682  -20.6790 C   0  0  0  0  0  0  0  0  0  0  0  0
   25.5554  -16.8314  -20.1413 C   0  0  0  0  0  0  0  0  0  0  0  0
   26.8285  -16.6850  -20.6120 C   0  0  0  0  0  0  0  0  0  0  0  0
   27.2475  -17.4839  -21.6454 C   0  0  0  0  0  0  0  0  0  0  0  0
   26.3885  -18.4185  -22.1949 C   0  0  0  0  0  0  0  0  0  0  0  0
   25.1074  -18.5700  -21.7257 C   0  0  0  0  0  0  0  0  0  0  0  0
   21.8147  -18.7917  -18.4681 C   0  0  0  0  0  0  0  0  0  0  0  0
   21.3839  -17.6982  -18.0435 O   0  0  0  0  0  0  0  0  0  0  0  0
   20.9755  -19.9259  -18.4104 N   0  0  0  0  0  0  0  0  0  0  0  0
   19.6173  -19.7860  -17.9671 C   0  0  0  0  0  0  0  0  0  0  0  0
   19.5244  -20.1815  -16.5466 C   0  0  0  0  0  0  0  0  0  0  0  0
   20.5569  -20.4798  -15.8838 O   0  0  0  0  0  0  0  0  0  0  0  0
   18.2843  -20.2246  -15.9379 O   0  0  0  0  0  0  0  0  0  0  0  0
  2  1  1  1
  3  2  1  0
  4  3  1  0
  5  4  2  0
  6  5  1  0
  7  6  2  0
  7  8  1  0
  8  9  2  0
  9  4  1  0
 10 11  2  0
 10  2  1  0
 12 10  1  0
 13 12  1  0
 13 14  1  6
 15 14  1  0
 15 16  2  0
 17 16  1  0
 18 17  2  0
 19 20  2  0
 19 18  1  0
 20 15  1  0
 21 13  1  0
 22 21  2  0
 23 21  1  0
 24 23  1  0
 25 24  1  0
 25 27  1  0
 26 25  2  0
M  END
$$$$
