FFG.pdb
     RDKit          3D

 27 28  0  0  1  0  0  0  0  0999 V2000
   21.8234  -17.2466  -17.9254 N   0  0  0  0  0  0  0  0  0  0  0  0
   21.0479  -18.4026  -17.5413 C   0  0  1  0  0  0  0  0  0  0  0  0
   21.9600  -19.5073  -17.1191 C   0  0  0  0  0  0  0  0  0  0  0  0
   22.7618  -19.9254  -18.3078 C   0  0  0  0  0  0  0  0  0  0  0  0
   22.1650  -20.6190  -19.3392 C   0  0  0  0  0  0  0  0  0  0  0  0
   22.8768  -21.0177  -20.4475 C   0  0  0  0  0  0  0  0  0  0  0  0
   24.2167  -20.7309  -20.5550 C   0  0  0  0  0  0  0  0  0  0  0  0
   24.7920  -20.0362  -19.5110 C   0  0  0  0  0  0  0  0  0  0  0  0
   24.1031  -19.6252  -18.3904 C   0  0  0  0  0  0  0  0  0  0  0  0
   20.1049  -18.0917  -16.4349 C   0  0  0  0  0  0  0  0  0  0  0  0
   20.4826  -17.3604  -15.4720 O   0  0  0  0  0  0  0  0  0  0  0  0
   18.7832  -18.5680  -16.3825 N   0  0  0  0  0  0  0  0  0  0  0  0
   17.7697  -17.9157  -15.5558 C   0  0  1  0  0  0  0  0  0  0  0  0
   17.6416  -16.5244  -16.1648 C   0  0  0  0  0  0  0  0  0  0  0  0
   16.7629  -15.6112  -15.4566 C   0  0  0  0  0  0  0  0  0  0  0  0
   15.3746  -15.7511  -15.5473 C   0  0  0  0  0  0  0  0  0  0  0  0
   14.5169  -14.9119  -14.8962 C   0  0  0  0  0  0  0  0  0  0  0  0
   15.0362  -13.9002  -14.1293 C   0  0  0  0  0  0  0  0  0  0  0  0
   16.4060  -13.7403  -14.0230 C   0  0  0  0  0  0  0  0  0  0  0  0
   17.2732  -14.5810  -14.6754 C   0  0  0  0  0  0  0  0  0  0  0  0
   16.4852  -18.5857  -15.5980 C   0  0  0  0  0  0  0  0  0  0  0  0
   16.0049  -18.9732  -16.6845 O   0  0  0  0  0  0  0  0  0  0  0  0
   15.7584  -18.8141  -14.4090 N   0  0  0  0  0  0  0  0  0  0  0  0
   16.3554  -19.5664  -13.3420 C   0  0  0  0  0  0  0  0  0  0  0  0
   16.5190  -20.9717  -13.7675 C   0  0  0  0  0  0  0  0  0  0  0  0
   15.6826  -21.5216  -14.5373 O   0  0  0  0  0  0  0  0  0  0  0  0
   17.6070  -21.6922  -13.3124 O   0  0  0  0  0  0  0  0  0  0  0  0
  2  1  1  1
  3  2  1  0
  4  3  1  0
  5  4  2  0
  6  5  1  0
  7  6  2  0
  7  8  1  0
  8  9  2  0
  9  4  1  0
 10 11  2  0
 10  2  1  0
 12 10  1  0
 13 12  1  0
 13 14  1  6
 15 14  1  0
 15 16  2  0
 17 16  1  0
 18 17  2  0
 19 20  2  0
 19 18  1  0
 20 15  1  0
 21 13  1  0
 22 21  2  0
 23 21  1  0
 24 23  1  0
 25 24  1  0
 25 27  1  0
 26 25  2  0
M  END
$$$$
