FFG.pdb
     RDKit          3D

 27 28  0  0  1  0  0  0  0  0999 V2000
   24.9209  -31.6630  -17.9251 N   0  0  0  0  0  0  0  0  0  0  0  0
   25.3157  -30.4024  -18.5084 C   0  0  1  0  0  0  0  0  0  0  0  0
   24.1164  -29.6977  -19.0519 C   0  0  0  0  0  0  0  0  0  0  0  0
   23.7541  -30.3365  -20.3525 C   0  0  0  0  0  0  0  0  0  0  0  0
   22.4709  -30.7918  -20.5692 C   0  0  0  0  0  0  0  0  0  0  0  0
   22.1064  -31.3844  -21.7565 C   0  0  0  0  0  0  0  0  0  0  0  0
   23.0239  -31.5390  -22.7682 C   0  0  0  0  0  0  0  0  0  0  0  0
   24.3012  -31.0760  -22.5287 C   0  0  0  0  0  0  0  0  0  0  0  0
   24.6928  -30.4791  -21.3497 C   0  0  0  0  0  0  0  0  0  0  0  0
   25.9965  -29.5258  -17.5192 C   0  0  0  0  0  0  0  0  0  0  0  0
   25.5931  -29.4988  -16.3187 O   0  0  0  0  0  0  0  0  0  0  0  0
   27.0899  -28.7002  -17.8344 N   0  0  0  0  0  0  0  0  0  0  0  0
   27.7663  -27.9065  -16.8104 C   0  0  1  0  0  0  0  0  0  0  0  0
   29.1279  -28.5766  -16.6689 C   0  0  0  0  0  0  0  0  0  0  0  0
   29.0970  -29.9895  -16.3362 C   0  0  0  0  0  0  0  0  0  0  0  0
   28.8389  -30.4028  -15.0256 C   0  0  0  0  0  0  0  0  0  0  0  0
   28.8021  -31.7217  -14.6749 C   0  0  0  0  0  0  0  0  0  0  0  0
   29.0257  -32.6695  -15.6409 C   0  0  0  0  0  0  0  0  0  0  0  0
   29.2832  -32.2867  -16.9450 C   0  0  0  0  0  0  0  0  0  0  0  0
   29.3215  -30.9622  -17.3034 C   0  0  0  0  0  0  0  0  0  0  0  0
   27.9436  -26.5196  -17.1920 C   0  0  0  0  0  0  0  0  0  0  0  0
   28.8779  -26.1826  -17.9501 O   0  0  0  0  0  0  0  0  0  0  0  0
   27.0589  -25.5279  -16.7147 N   0  0  0  0  0  0  0  0  0  0  0  0
   27.2629  -24.1548  -17.0806 C   0  0  0  0  0  0  0  0  0  0  0  0
   26.2594  -23.3132  -16.3967 C   0  0  0  0  0  0  0  0  0  0  0  0
   25.3612  -23.8273  -15.6731 O   0  0  0  0  0  0  0  0  0  0  0  0
   26.3086  -21.9412  -16.5552 O   0  0  0  0  0  0  0  0  0  0  0  0
  2  1  1  1
  3  2  1  0
  4  3  1  0
  5  4  2  0
  6  5  1  0
  7  6  2  0
  7  8  1  0
  8  9  2  0
  9  4  1  0
 10 11  2  0
 10  2  1  0
 12 10  1  0
 13 12  1  0
 13 14  1  6
 15 14  1  0
 15 16  2  0
 17 16  1  0
 18 17  2  0
 19 20  2  0
 19 18  1  0
 20 15  1  0
 21 13  1  0
 22 21  2  0
 23 21  1  0
 24 23  1  0
 25 24  1  0
 25 27  1  0
 26 25  2  0
M  END
$$$$
