FFG.pdb
     RDKit          3D

 27 28  0  0  1  0  0  0  0  0999 V2000
   28.6235  -20.8677  -14.0668 N   0  0  0  0  0  0  0  0  0  0  0  0
   27.5284  -20.0405  -13.6180 C   0  0  1  0  0  0  0  0  0  0  0  0
   26.6920  -19.6297  -14.7851 C   0  0  0  0  0  0  0  0  0  0  0  0
   27.2229  -18.3327  -15.3013 C   0  0  0  0  0  0  0  0  0  0  0  0
   26.9583  -17.1575  -14.6307 C   0  0  0  0  0  0  0  0  0  0  0  0
   27.4334  -15.9470  -15.0810 C   0  0  0  0  0  0  0  0  0  0  0  0
   28.1928  -15.8787  -16.2246 C   0  0  0  0  0  0  0  0  0  0  0  0
   28.4445  -17.0671  -16.8786 C   0  0  0  0  0  0  0  0  0  0  0  0
   27.9814  -18.2923  -16.4499 C   0  0  0  0  0  0  0  0  0  0  0  0
   26.6761  -20.7448  -12.6241 C   0  0  0  0  0  0  0  0  0  0  0  0
   26.4355  -21.9806  -12.7640 O   0  0  0  0  0  0  0  0  0  0  0  0
   26.1017  -20.1145  -11.5064 N   0  0  0  0  0  0  0  0  0  0  0  0
   25.3160  -20.8640  -10.5283 C   0  0  1  0  0  0  0  0  0  0  0  0
   25.6156  -20.1660   -9.2069 C   0  0  0  0  0  0  0  0  0  0  0  0
   26.9543  -20.3690   -8.6830 C   0  0  0  0  0  0  0  0  0  0  0  0
   27.3803  -19.6809   -7.5427 C   0  0  0  0  0  0  0  0  0  0  0  0
   28.6311  -19.8454   -7.0211 C   0  0  0  0  0  0  0  0  0  0  0  0
   29.4956  -20.7141   -7.6373 C   0  0  0  0  0  0  0  0  0  0  0  0
   29.0986  -21.4071   -8.7667 C   0  0  0  0  0  0  0  0  0  0  0  0
   27.8422  -21.2456   -9.2955 C   0  0  0  0  0  0  0  0  0  0  0  0
   23.8912  -20.8195  -10.7902 C   0  0  0  0  0  0  0  0  0  0  0  0
   23.0742  -21.2251   -9.9362 O   0  0  0  0  0  0  0  0  0  0  0  0
   23.4047  -20.3127  -12.0151 N   0  0  0  0  0  0  0  0  0  0  0  0
   21.9896  -20.2425  -12.2459 C   0  0  0  0  0  0  0  0  0  0  0  0
   21.5613  -21.4282  -13.0162 C   0  0  0  0  0  0  0  0  0  0  0  0
   22.2496  -22.4868  -13.0203 O   0  0  0  0  0  0  0  0  0  0  0  0
   20.3872  -21.3725  -13.7432 O   0  0  0  0  0  0  0  0  0  0  0  0
  2  1  1  6
  3  2  1  0
  4  3  1  0
  5  4  2  0
  6  5  1  0
  7  6  2  0
  7  8  1  0
  8  9  2  0
  9  4  1  0
 10 11  2  0
 10  2  1  0
 12 10  1  0
 13 12  1  0
 13 14  1  1
 15 14  1  0
 15 16  2  0
 17 16  1  0
 18 17  2  0
 19 20  2  0
 19 18  1  0
 20 15  1  0
 21 13  1  0
 22 21  2  0
 23 21  1  0
 24 23  1  0
 25 24  1  0
 25 27  1  0
 26 25  2  0
M  END
$$$$
