FFG.pdb
     RDKit          3D

 27 28  0  0  1  0  0  0  0  0999 V2000
   26.4534  -16.0513  -17.0208 N   0  0  0  0  0  0  0  0  0  0  0  0
   25.5703  -17.1624  -16.7549 C   0  0  1  0  0  0  0  0  0  0  0  0
   25.4894  -18.0446  -17.9572 C   0  0  0  0  0  0  0  0  0  0  0  0
   24.7061  -17.3263  -19.0065 C   0  0  0  0  0  0  0  0  0  0  0  0
   23.3755  -17.0303  -18.7995 C   0  0  0  0  0  0  0  0  0  0  0  0
   22.6273  -16.3695  -19.7468 C   0  0  0  0  0  0  0  0  0  0  0  0
   23.1950  -15.9834  -20.9375 C   0  0  0  0  0  0  0  0  0  0  0  0
   24.5274  -16.2902  -21.1223 C   0  0  0  0  0  0  0  0  0  0  0  0
   25.2994  -16.9506  -20.1910 C   0  0  0  0  0  0  0  0  0  0  0  0
   26.0250  -17.9615  -15.5866 C   0  0  0  0  0  0  0  0  0  0  0  0
   27.2586  -18.0184  -15.3041 O   0  0  0  0  0  0  0  0  0  0  0  0
   25.1539  -18.6797  -14.7490 N   0  0  0  0  0  0  0  0  0  0  0  0
   25.6549  -19.4748  -13.6296 C   0  0  1  0  0  0  0  0  0  0  0  0
   24.8403  -18.9833  -12.4389 C   0  0  0  0  0  0  0  0  0  0  0  0
   25.1623  -19.6001  -11.1647 C   0  0  0  0  0  0  0  0  0  0  0  0
   25.9559  -18.9255  -10.2319 C   0  0  0  0  0  0  0  0  0  0  0  0
   26.2798  -19.4731   -9.0240 C   0  0  0  0  0  0  0  0  0  0  0  0
   25.8103  -20.7252   -8.7183 C   0  0  0  0  0  0  0  0  0  0  0  0
   25.0232  -21.4136   -9.6237 C   0  0  0  0  0  0  0  0  0  0  0  0
   24.6944  -20.8680  -10.8397 C   0  0  0  0  0  0  0  0  0  0  0  0
   25.4481  -20.8983  -13.8067 C   0  0  0  0  0  0  0  0  0  0  0  0
   24.3429  -21.3380  -14.1896 O   0  0  0  0  0  0  0  0  0  0  0  0
   26.4957  -21.8102  -13.5523 N   0  0  0  0  0  0  0  0  0  0  0  0
   27.6777  -21.7835  -14.3666 C   0  0  0  0  0  0  0  0  0  0  0  0
   27.5060  -22.7076  -15.5065 C   0  0  0  0  0  0  0  0  0  0  0  0
   26.3723  -23.1823  -15.7962 O   0  0  0  0  0  0  0  0  0  0  0  0
   28.6077  -23.0555  -16.2650 O   0  0  0  0  0  0  0  0  0  0  0  0
  2  1  1  6
  3  2  1  0
  4  3  1  0
  5  4  2  0
  6  5  1  0
  7  6  2  0
  7  8  1  0
  8  9  2  0
  9  4  1  0
 10 11  2  0
 10  2  1  0
 12 10  1  0
 13 12  1  0
 13 14  1  1
 15 14  1  0
 15 16  2  0
 17 16  1  0
 18 17  2  0
 19 20  2  0
 19 18  1  0
 20 15  1  0
 21 13  1  0
 22 21  2  0
 23 21  1  0
 24 23  1  0
 25 24  1  0
 25 27  1  0
 26 25  2  0
M  END
$$$$
