FFG.pdb
     RDKit          3D

 27 28  0  0  1  0  0  0  0  0999 V2000
   26.4420  -23.3521  -14.3770 N   0  0  0  0  0  0  0  0  0  0  0  0
   26.4908  -22.2282  -13.4717 C   0  0  1  0  0  0  0  0  0  0  0  0
   27.1672  -21.0731  -14.1339 C   0  0  0  0  0  0  0  0  0  0  0  0
   28.3193  -20.6588  -13.2784 C   0  0  0  0  0  0  0  0  0  0  0  0
   29.3032  -21.5673  -12.9508 C   0  0  0  0  0  0  0  0  0  0  0  0
   30.3769  -21.2160  -12.1648 C   0  0  0  0  0  0  0  0  0  0  0  0
   30.4964  -19.9350  -11.6811 C   0  0  0  0  0  0  0  0  0  0  0  0
   29.5001  -19.0436  -12.0220 C   0  0  0  0  0  0  0  0  0  0  0  0
   28.4148  -19.3687  -12.8068 C   0  0  0  0  0  0  0  0  0  0  0  0
   25.1324  -21.8167  -13.0292 C   0  0  0  0  0  0  0  0  0  0  0  0
   24.1256  -22.5119  -13.3571 O   0  0  0  0  0  0  0  0  0  0  0  0
   24.8815  -20.6747  -12.2486 N   0  0  0  0  0  0  0  0  0  0  0  0
   23.6120  -20.4943  -11.5473 C   0  0  1  0  0  0  0  0  0  0  0  0
   23.9301  -19.4569  -10.4770 C   0  0  0  0  0  0  0  0  0  0  0  0
   24.7951  -19.9121   -9.4035 C   0  0  0  0  0  0  0  0  0  0  0  0
   24.5489  -21.1311   -8.7645 C   0  0  0  0  0  0  0  0  0  0  0  0
   25.3397  -21.5919   -7.7515 C   0  0  0  0  0  0  0  0  0  0  0  0
   26.4093  -20.8327   -7.3499 C   0  0  0  0  0  0  0  0  0  0  0  0
   26.6745  -19.6230   -7.9659 C   0  0  0  0  0  0  0  0  0  0  0  0
   25.8828  -19.1548   -8.9848 C   0  0  0  0  0  0  0  0  0  0  0  0
   22.5542  -19.9995  -12.4057 C   0  0  0  0  0  0  0  0  0  0  0  0
   21.3919  -19.8613  -11.9684 O   0  0  0  0  0  0  0  0  0  0  0  0
   22.8233  -19.6623  -13.7503 N   0  0  0  0  0  0  0  0  0  0  0  0
   22.1938  -20.3988  -14.8097 C   0  0  0  0  0  0  0  0  0  0  0  0
   20.8802  -19.7936  -15.1112 C   0  0  0  0  0  0  0  0  0  0  0  0
   20.7188  -18.5414  -15.0904 O   0  0  0  0  0  0  0  0  0  0  0  0
   19.8133  -20.6161  -15.4200 O   0  0  0  0  0  0  0  0  0  0  0  0
  2  1  1  6
  3  2  1  0
  4  3  1  0
  5  4  2  0
  6  5  1  0
  7  6  2  0
  7  8  1  0
  8  9  2  0
  9  4  1  0
 10 11  2  0
 10  2  1  0
 12 10  1  0
 13 12  1  0
 13 14  1  1
 15 14  1  0
 15 16  2  0
 17 16  1  0
 18 17  2  0
 19 20  2  0
 19 18  1  0
 20 15  1  0
 21 13  1  0
 22 21  2  0
 23 21  1  0
 24 23  1  0
 25 24  1  0
 25 27  1  0
 26 25  2  0
M  END
$$$$
