FFG.pdb
     RDKit          3D

 27 28  0  0  1  0  0  0  0  0999 V2000
   27.5322  -21.3179  -17.3867 N   0  0  0  0  0  0  0  0  0  0  0  0
   26.6914  -21.8114  -16.3215 C   0  0  1  0  0  0  0  0  0  0  0  0
   27.5359  -22.2454  -15.1687 C   0  0  0  0  0  0  0  0  0  0  0  0
   28.1771  -23.5455  -15.5283 C   0  0  0  0  0  0  0  0  0  0  0  0
   27.4375  -24.7090  -15.5256 C   0  0  0  0  0  0  0  0  0  0  0  0
   27.9994  -25.9220  -15.8523 C   0  0  0  0  0  0  0  0  0  0  0  0
   29.3283  -26.0046  -16.1936 C   0  0  0  0  0  0  0  0  0  0  0  0
   30.0482  -24.8277  -16.1893 C   0  0  0  0  0  0  0  0  0  0  0  0
   29.5108  -23.6003  -15.8665 C   0  0  0  0  0  0  0  0  0  0  0  0
   25.7215  -20.7824  -15.8624 C   0  0  0  0  0  0  0  0  0  0  0  0
   26.1421  -19.6669  -15.4343 O   0  0  0  0  0  0  0  0  0  0  0  0
   24.3280  -20.9683  -15.8710 N   0  0  0  0  0  0  0  0  0  0  0  0
   23.4187  -19.9433  -15.3625 C   0  0  1  0  0  0  0  0  0  0  0  0
   22.6362  -19.5051  -16.5948 C   0  0  0  0  0  0  0  0  0  0  0  0
   23.4014  -18.7859  -17.5973 C   0  0  0  0  0  0  0  0  0  0  0  0
   23.9046  -19.4539  -18.7179 C   0  0  0  0  0  0  0  0  0  0  0  0
   24.6283  -18.8117  -19.6810 C   0  0  0  0  0  0  0  0  0  0  0  0
   24.8679  -17.4682  -19.5425 C   0  0  0  0  0  0  0  0  0  0  0  0
   24.3811  -16.7841  -18.4432 C   0  0  0  0  0  0  0  0  0  0  0  0
   23.6529  -17.4247  -17.4718 C   0  0  0  0  0  0  0  0  0  0  0  0
   22.5030  -20.4447  -14.3571 C   0  0  0  0  0  0  0  0  0  0  0  0
   22.1018  -21.6274  -14.3950 O   0  0  0  0  0  0  0  0  0  0  0  0
   22.0533  -19.6032  -13.3162 N   0  0  0  0  0  0  0  0  0  0  0  0
   21.1637  -20.1206  -12.3152 C   0  0  0  0  0  0  0  0  0  0  0  0
   19.8227  -20.3108  -12.9053 C   0  0  0  0  0  0  0  0  0  0  0  0
   19.6276  -20.1596  -14.1437 O   0  0  0  0  0  0  0  0  0  0  0  0
   18.7673  -20.6593  -12.0839 O   0  0  0  0  0  0  0  0  0  0  0  0
  2  1  1  6
  3  2  1  0
  4  3  1  0
  5  4  2  0
  6  5  1  0
  7  6  2  0
  7  8  1  0
  8  9  2  0
  9  4  1  0
 10 11  2  0
 10  2  1  0
 12 10  1  0
 13 12  1  0
 13 14  1  6
 15 14  1  0
 15 16  2  0
 17 16  1  0
 18 17  2  0
 19 20  2  0
 19 18  1  0
 20 15  1  0
 21 13  1  0
 22 21  2  0
 23 21  1  0
 24 23  1  0
 25 24  1  0
 25 27  1  0
 26 25  2  0
M  END
$$$$
