FFG.pdb
     RDKit          3D

 27 28  0  0  1  0  0  0  0  0999 V2000
   20.3454  -19.7663  -13.5627 N   0  0  0  0  0  0  0  0  0  0  0  0
   21.1633  -20.6955  -12.8192 C   0  0  1  0  0  0  0  0  0  0  0  0
   20.7551  -22.0966  -13.1367 C   0  0  0  0  0  0  0  0  0  0  0  0
   19.4220  -22.3436  -12.5101 C   0  0  0  0  0  0  0  0  0  0  0  0
   19.3292  -22.6294  -11.1646 C   0  0  0  0  0  0  0  0  0  0  0  0
   18.1158  -22.8614  -10.5582 C   0  0  0  0  0  0  0  0  0  0  0  0
   16.9521  -22.8134  -11.2880 C   0  0  0  0  0  0  0  0  0  0  0  0
   17.0696  -22.5257  -12.6322 C   0  0  0  0  0  0  0  0  0  0  0  0
   18.2713  -22.2894  -13.2644 C   0  0  0  0  0  0  0  0  0  0  0  0
   22.6087  -20.5226  -13.1212 C   0  0  0  0  0  0  0  0  0  0  0  0
   22.9658  -20.0411  -14.2372 O   0  0  0  0  0  0  0  0  0  0  0  0
   23.6369  -20.8670  -12.2265 N   0  0  0  0  0  0  0  0  0  0  0  0
   25.0439  -20.6703  -12.5694 C   0  0  1  0  0  0  0  0  0  0  0  0
   25.7562  -20.7023  -11.2223 C   0  0  0  0  0  0  0  0  0  0  0  0
   27.2056  -20.6420  -11.2807 C   0  0  0  0  0  0  0  0  0  0  0  0
   27.9820  -21.4235  -10.4196 C   0  0  0  0  0  0  0  0  0  0  0  0
   29.3467  -21.3935  -10.4448 C   0  0  0  0  0  0  0  0  0  0  0  0
   29.9735  -20.5696  -11.3447 C   0  0  0  0  0  0  0  0  0  0  0  0
   29.2283  -19.7864  -12.2077 C   0  0  0  0  0  0  0  0  0  0  0  0
   27.8560  -19.8125  -12.1867 C   0  0  0  0  0  0  0  0  0  0  0  0
   25.5716  -21.7152  -13.4241 C   0  0  0  0  0  0  0  0  0  0  0  0
   25.3510  -22.9183  -13.1686 O   0  0  0  0  0  0  0  0  0  0  0  0
   26.3408  -21.3879  -14.5621 N   0  0  0  0  0  0  0  0  0  0  0  0
   26.9103  -22.4346  -15.3627 C   0  0  0  0  0  0  0  0  0  0  0  0
   27.5856  -21.8401  -16.5347 C   0  0  0  0  0  0  0  0  0  0  0  0
   27.0955  -20.8417  -17.1328 O   0  0  0  0  0  0  0  0  0  0  0  0
   28.7728  -22.3898  -16.9802 O   0  0  0  0  0  0  0  0  0  0  0  0
  2  1  1  6
  3  2  1  0
  4  3  1  0
  5  4  2  0
  6  5  1  0
  7  6  2  0
  7  8  1  0
  8  9  2  0
  9  4  1  0
 10 11  2  0
 10  2  1  0
 12 10  1  0
 13 12  1  0
 13 14  1  1
 15 14  1  0
 15 16  2  0
 17 16  1  0
 18 17  2  0
 19 20  2  0
 19 18  1  0
 20 15  1  0
 21 13  1  0
 22 21  2  0
 23 21  1  0
 24 23  1  0
 25 24  1  0
 25 27  1  0
 26 25  2  0
M  END
$$$$
