FFG.pdb
     RDKit          3D

 27 28  0  0  1  0  0  0  0  0999 V2000
   21.1151  -11.1613  -17.8602 N   0  0  0  0  0  0  0  0  0  0  0  0
   20.9311   -9.7295  -17.8942 C   0  0  1  0  0  0  0  0  0  0  0  0
   19.8719   -9.3780  -18.8866 C   0  0  0  0  0  0  0  0  0  0  0  0
   20.5274   -9.1864  -20.2149 C   0  0  0  0  0  0  0  0  0  0  0  0
   20.4868  -10.1887  -21.1607 C   0  0  0  0  0  0  0  0  0  0  0  0
   21.0809  -10.0422  -22.3933 C   0  0  0  0  0  0  0  0  0  0  0  0
   21.7374   -8.8787  -22.7161 C   0  0  0  0  0  0  0  0  0  0  0  0
   21.7650   -7.8900  -21.7542 C   0  0  0  0  0  0  0  0  0  0  0  0
   21.1788   -8.0104  -20.5127 C   0  0  0  0  0  0  0  0  0  0  0  0
   20.5562   -9.1895  -16.5607 C   0  0  0  0  0  0  0  0  0  0  0  0
   19.7155   -9.8091  -15.8439 O   0  0  0  0  0  0  0  0  0  0  0  0
   21.0868   -8.0030  -16.0249 N   0  0  0  0  0  0  0  0  0  0  0  0
   20.6256   -7.4717  -14.7438 C   0  0  1  0  0  0  0  0  0  0  0  0
   21.9121   -7.2398  -13.9601 C   0  0  0  0  0  0  0  0  0  0  0  0
   22.7868   -6.2077  -14.4869 C   0  0  0  0  0  0  0  0  0  0  0  0
   22.5987   -4.8693  -14.1286 C   0  0  0  0  0  0  0  0  0  0  0  0
   23.4004   -3.8716  -14.6036 C   0  0  0  0  0  0  0  0  0  0  0  0
   24.4223   -4.1953  -15.4595 C   0  0  0  0  0  0  0  0  0  0  0  0
   24.6296   -5.5119  -15.8295 C   0  0  0  0  0  0  0  0  0  0  0  0
   23.8267   -6.5191  -15.3551 C   0  0  0  0  0  0  0  0  0  0  0  0
   19.9030   -6.2222  -14.8743 C   0  0  0  0  0  0  0  0  0  0  0  0
   20.1773   -5.4213  -15.7934 O   0  0  0  0  0  0  0  0  0  0  0  0
   18.8739   -5.8929  -13.9651 N   0  0  0  0  0  0  0  0  0  0  0  0
   17.7852   -6.8058  -13.7595 C   0  0  0  0  0  0  0  0  0  0  0  0
   16.7376   -6.5515  -14.7698 C   0  0  0  0  0  0  0  0  0  0  0  0
   16.2286   -5.4040  -14.9068 O   0  0  0  0  0  0  0  0  0  0  0  0
   16.3106   -7.5902  -15.5753 O   0  0  0  0  0  0  0  0  0  0  0  0
  2  1  1  1
  3  2  1  0
  4  3  1  0
  5  4  2  0
  6  5  1  0
  7  6  2  0
  7  8  1  0
  8  9  2  0
  9  4  1  0
 10 11  2  0
 10  2  1  0
 12 10  1  0
 13 12  1  0
 13 14  1  1
 15 14  1  0
 15 16  2  0
 17 16  1  0
 18 17  2  0
 19 20  2  0
 19 18  1  0
 20 15  1  0
 21 13  1  0
 22 21  2  0
 23 21  1  0
 24 23  1  0
 25 24  1  0
 25 27  1  0
 26 25  2  0
M  END
$$$$
