FFG.pdb
     RDKit          3D

 27 28  0  0  1  0  0  0  0  0999 V2000
   28.3681  -23.3897  -11.4364 N   0  0  0  0  0  0  0  0  0  0  0  0
   28.5676  -22.3338  -10.4718 C   0  0  1  0  0  0  0  0  0  0  0  0
   29.4779  -21.2945  -11.0390 C   0  0  0  0  0  0  0  0  0  0  0  0
   30.8856  -21.7206  -10.7793 C   0  0  0  0  0  0  0  0  0  0  0  0
   31.3941  -21.6948   -9.4980 C   0  0  0  0  0  0  0  0  0  0  0  0
   32.6867  -22.0813   -9.2268 C   0  0  0  0  0  0  0  0  0  0  0  0
   33.5130  -22.5079  -10.2389 C   0  0  0  0  0  0  0  0  0  0  0  0
   32.9825  -22.5253  -11.5124 C   0  0  0  0  0  0  0  0  0  0  0  0
   31.6924  -22.1438  -11.8118 C   0  0  0  0  0  0  0  0  0  0  0  0
   27.2830  -21.7000  -10.0737 C   0  0  0  0  0  0  0  0  0  0  0  0
   26.1945  -22.1170  -10.5698 O   0  0  0  0  0  0  0  0  0  0  0  0
   27.1908  -20.6380   -9.1572 N   0  0  0  0  0  0  0  0  0  0  0  0
   25.9112  -20.2470   -8.5692 C   0  0  1  0  0  0  0  0  0  0  0  0
   26.2706  -19.0835   -7.6527 C   0  0  0  0  0  0  0  0  0  0  0  0
   27.0354  -19.4337   -6.4694 C   0  0  0  0  0  0  0  0  0  0  0  0
   28.0393  -18.5825   -5.9976 C   0  0  0  0  0  0  0  0  0  0  0  0
   28.7793  -18.8781   -4.8890 C   0  0  0  0  0  0  0  0  0  0  0  0
   28.5277  -20.0480   -4.2186 C   0  0  0  0  0  0  0  0  0  0  0  0
   27.5399  -20.9073   -4.6648 C   0  0  0  0  0  0  0  0  0  0  0  0
   26.7928  -20.6153   -5.7788 C   0  0  0  0  0  0  0  0  0  0  0  0
   24.9433  -19.8091   -9.5552 C   0  0  0  0  0  0  0  0  0  0  0  0
   25.3163  -19.2492  -10.6081 O   0  0  0  0  0  0  0  0  0  0  0  0
   23.5625  -20.0129   -9.3414 N   0  0  0  0  0  0  0  0  0  0  0  0
   22.6108  -19.4876  -10.2791 C   0  0  0  0  0  0  0  0  0  0  0  0
   22.2455  -20.5427  -11.2466 C   0  0  0  0  0  0  0  0  0  0  0  0
   22.2449  -20.3166  -12.4889 O   0  0  0  0  0  0  0  0  0  0  0  0
   21.8988  -21.7963  -10.7791 O   0  0  0  0  0  0  0  0  0  0  0  0
  2  1  1  6
  3  2  1  0
  4  3  1  0
  5  4  2  0
  6  5  1  0
  7  6  2  0
  7  8  1  0
  8  9  2  0
  9  4  1  0
 10 11  2  0
 10  2  1  0
 12 10  1  0
 13 12  1  0
 13 14  1  1
 15 14  1  0
 15 16  2  0
 17 16  1  0
 18 17  2  0
 19 20  2  0
 19 18  1  0
 20 15  1  0
 21 13  1  0
 22 21  2  0
 23 21  1  0
 24 23  1  0
 25 24  1  0
 25 27  1  0
 26 25  2  0
M  END
$$$$
