KCE.pdb
     RDKit          3D

 25 24  0  0  1  0  0  0  0  0999 V2000
    8.4800  -14.9108   19.9578 N   0  0  0  0  0  0  0  0  0  0  0  0
    8.0682  -15.6312   21.0762 C   0  0  1  0  0  0  0  0  0  0  0  0
    8.2775  -17.0846   21.0456 C   0  0  0  0  0  0  0  0  0  0  0  0
    7.8256  -17.9493   19.9945 C   0  0  0  0  0  0  0  0  0  0  0  0
    6.9995  -19.1104   19.9340 C   0  0  0  0  0  0  0  0  0  0  0  0
    6.5881  -19.9046   18.7851 C   0  0  0  0  0  0  0  0  0  0  0  0
    5.5918  -20.8931   19.0045 N   0  0  0  0  0  0  0  0  0  0  0  0
    8.5389  -15.0240   22.3733 C   0  0  0  0  0  0  0  0  0  0  0  0
    9.7738  -14.9082   22.5615 O   0  0  0  0  0  0  0  0  0  0  0  0
    7.6919  -14.5744   23.3952 N   0  0  0  0  0  0  0  0  0  0  0  0
    8.0963  -14.1666   24.6989 C   0  0  1  0  0  0  0  0  0  0  0  0
    7.0505  -13.4364   25.4817 C   0  0  0  0  0  0  0  0  0  0  0  0
    7.5368  -13.0613   27.1596 S   0  0  0  0  0  0  0  0  0  0  0  0
    8.6568  -15.3268   25.4290 C   0  0  0  0  0  0  0  0  0  0  0  0
    8.0046  -16.3997   25.5300 O   0  0  0  0  0  0  0  0  0  0  0  0
    9.9417  -15.3101   26.0528 N   0  0  0  0  0  0  0  0  0  0  0  0
   10.4767  -16.4103   26.7936 C   0  0  1  0  0  0  0  0  0  0  0  0
   11.9638  -16.5775   26.4656 C   0  0  0  0  0  0  0  0  0  0  0  0
   12.1586  -16.8491   24.9906 C   0  0  0  0  0  0  0  0  0  0  0  0
   13.5208  -16.3627   24.6403 C   0  0  0  0  0  0  0  0  0  0  0  0
   13.9615  -15.2374   24.9906 O   0  0  0  0  0  0  0  0  0  0  0  0
   10.2774  -16.2676   28.2572 C   0  0  0  0  0  0  0  0  0  0  0  0
    9.6718  -15.2531   28.6794 O   0  0  0  0  0  0  0  0  0  0  0  0
   14.4018  -17.1541   23.8838 O   0  0  0  0  0  0  0  0  0  0  0  0
   10.7185  -17.1860   29.1924 O   0  0  0  0  0  0  0  0  0  0  0  0
  2  8  1  0
  2  1  1  6
  3  2  1  0
  4  3  1  0
  5  4  1  0
  6  5  1  0
  6  7  1  0
  8  9  2  0
 10 11  1  0
 10  8  1  0
 12 13  1  0
 11 12  1  1
 14 15  2  0
 14 11  1  0
 16 14  1  0
 17 16  1  0
 17 22  1  0
 17 18  1  1
 19 20  1  0
 19 18  1  0
 20 21  2  0
 22 25  1  0
 23 22  2  0
 24 20  1  0
M  END
$$$$
