KCE.pdb
     RDKit          3D

 25 24  0  0  1  0  0  0  0  0999 V2000
    7.7375  -15.8871   18.6663 N   0  0  0  0  0  0  0  0  0  0  0  0
    9.0386  -15.5134   18.9932 C   0  0  1  0  0  0  0  0  0  0  0  0
    9.8003  -14.7889   17.9676 C   0  0  0  0  0  0  0  0  0  0  0  0
    9.2734  -14.3868   16.6957 C   0  0  0  0  0  0  0  0  0  0  0  0
    7.9669  -14.1258   16.1866 C   0  0  0  0  0  0  0  0  0  0  0  0
    7.5509  -13.6965   14.8589 C   0  0  0  0  0  0  0  0  0  0  0  0
    8.1193  -14.3784   13.7501 N   0  0  0  0  0  0  0  0  0  0  0  0
    9.1379  -14.8462   20.3414 C   0  0  0  0  0  0  0  0  0  0  0  0
   10.1887  -14.2194   20.6183 O   0  0  0  0  0  0  0  0  0  0  0  0
    8.1342  -14.8738   21.3189 N   0  0  0  0  0  0  0  0  0  0  0  0
    8.3334  -14.7797   22.7264 C   0  0  1  0  0  0  0  0  0  0  0  0
    7.0955  -14.4990   23.5190 C   0  0  0  0  0  0  0  0  0  0  0  0
    7.3752  -14.3983   25.2809 S   0  0  0  0  0  0  0  0  0  0  0  0
    9.0642  -15.9760   23.2040 C   0  0  0  0  0  0  0  0  0  0  0  0
    9.0597  -17.0428   22.5343 O   0  0  0  0  0  0  0  0  0  0  0  0
    9.8052  -16.0024   24.4249 N   0  0  0  0  0  0  0  0  0  0  0  0
   10.8661  -16.9249   24.6876 C   0  0  1  0  0  0  0  0  0  0  0  0
   12.1243  -16.4926   23.9281 C   0  0  0  0  0  0  0  0  0  0  0  0
   13.2504  -17.4764   24.1554 C   0  0  0  0  0  0  0  0  0  0  0  0
   14.4277  -16.9633   23.4036 C   0  0  0  0  0  0  0  0  0  0  0  0
   14.4386  -15.8501   22.8171 O   0  0  0  0  0  0  0  0  0  0  0  0
   11.1543  -17.0706   26.1359 C   0  0  0  0  0  0  0  0  0  0  0  0
   10.6676  -16.2275   26.9275 O   0  0  0  0  0  0  0  0  0  0  0  0
   15.6122  -17.7137   23.3095 O   0  0  0  0  0  0  0  0  0  0  0  0
   11.9295  -18.0816   26.6738 O   0  0  0  0  0  0  0  0  0  0  0  0
  2  8  1  0
  2  1  1  6
  3  2  1  0
  4  3  1  0
  5  4  1  0
  6  5  1  0
  6  7  1  0
  8  9  2  0
 10 11  1  0
 10  8  1  0
 12 13  1  0
 11 12  1  1
 14 15  2  0
 14 11  1  0
 16 14  1  0
 17 16  1  0
 17 22  1  0
 17 18  1  6
 19 20  1  0
 19 18  1  0
 20 21  2  0
 22 25  1  0
 23 22  2  0
 24 20  1  0
M  END
$$$$
