HGR.pdb
     RDKit          3D

 26 26  0  0  1  0  0  0  0  0999 V2000
    9.9961  -14.6224   16.7175 N   0  0  0  0  0  0  0  0  0  0  0  0
    8.6157  -14.4011   17.0108 C   0  0  1  0  0  0  0  0  0  0  0  0
    7.6712  -14.8103   15.9469 C   0  0  0  0  0  0  0  0  0  0  0  0
    7.8346  -14.1769   14.6555 C   0  0  0  0  0  0  0  0  0  0  0  0
    7.7179  -12.8436   14.3496 C   0  0  0  0  0  0  0  0  0  0  0  0
    7.9455  -12.6691   13.0377 N   0  0  0  0  0  0  0  0  0  0  0  0
    8.2051  -13.9018   12.5260 C   0  0  0  0  0  0  0  0  0  0  0  0
    8.1365  -14.8149   13.5132 N   0  0  0  0  0  0  0  0  0  0  0  0
    8.2822  -15.1858   18.2473 C   0  0  0  0  0  0  0  0  0  0  0  0
    7.1334  -15.1440   18.7593 O   0  0  0  0  0  0  0  0  0  0  0  0
    9.2425  -16.0086   18.8948 N   0  0  0  0  0  0  0  0  0  0  0  0
    8.8791  -16.7432   20.0918 C   0  0  0  0  0  0  0  0  0  0  0  0
    9.6528  -16.2816   21.2710 C   0  0  0  0  0  0  0  0  0  0  0  0
   10.6583  -15.5437   21.1017 O   0  0  0  0  0  0  0  0  0  0  0  0
    7.2123  -12.1375   27.9135 N   0  0  0  0  0  0  0  0  0  0  0  0
    6.6316  -11.9937   26.6073 C   0  0  0  0  0  0  0  0  0  0  0  0
    5.8972  -11.0033   26.2928 N   0  0  0  0  0  0  0  0  0  0  0  0
    6.9018  -13.0053   25.6521 N   0  0  0  0  0  0  0  0  0  0  0  0
    7.9919  -13.9626   25.8338 C   0  0  0  0  0  0  0  0  0  0  0  0
    8.0038  -14.9870   24.7320 C   0  0  0  0  0  0  0  0  0  0  0  0
    9.0550  -16.0375   24.9596 C   0  0  0  0  0  0  0  0  0  0  0  0
    9.9953  -16.1421   23.7634 C   0  0  2  0  0  0  0  0  0  0  0  0
    9.3163  -16.6317   22.5987 N   0  0  0  0  0  0  0  0  0  0  0  0
   11.1415  -17.0429   24.0700 C   0  0  0  0  0  0  0  0  0  0  0  0
   12.2736  -16.6198   24.7536 O   0  0  0  0  0  0  0  0  0  0  0  0
   11.1124  -18.2512   23.7052 O   0  0  0  0  0  0  0  0  0  0  0  0
  2  1  1  6
  3  2  1  0
  4  8  1  0
  4  3  1  0
  5  4  2  0
  6  5  1  0
  6  7  1  0
  7  8  2  0
  9  2  1  0
 10  9  2  0
 11  9  1  0
 12 11  1  0
 13 23  1  0
 13 12  1  0
 14 13  2  0
 16 15  1  0
 17 16  2  0
 18 16  1  0
 19 18  1  0
 20 19  1  0
 21 20  1  0
 22 21  1  1
 22 23  1  0
 24 25  1  0
 24 22  1  0
 26 24  2  0
M  END
$$$$
