HGR.pdb
     RDKit          3D

 26 26  0  0  1  0  0  0  0  0999 V2000
   13.0784  -19.6547   18.0969 N   0  0  0  0  0  0  0  0  0  0  0  0
   12.4042  -18.4159   17.8706 C   0  0  1  0  0  0  0  0  0  0  0  0
   11.3314  -18.4585   16.8514 C   0  0  0  0  0  0  0  0  0  0  0  0
   11.7409  -18.7295   15.4896 C   0  0  0  0  0  0  0  0  0  0  0  0
   11.3170  -19.7443   14.6678 C   0  0  0  0  0  0  0  0  0  0  0  0
   11.9395  -19.6429   13.4822 N   0  0  0  0  0  0  0  0  0  0  0  0
   12.7549  -18.5581   13.5686 C   0  0  0  0  0  0  0  0  0  0  0  0
   12.6306  -18.0064   14.7905 N   0  0  0  0  0  0  0  0  0  0  0  0
   11.7848  -17.9912   19.1713 C   0  0  0  0  0  0  0  0  0  0  0  0
   11.2550  -18.8275   19.9482 O   0  0  0  0  0  0  0  0  0  0  0  0
   11.7673  -16.6322   19.5850 N   0  0  0  0  0  0  0  0  0  0  0  0
   10.8927  -16.2136   20.6641 C   0  0  0  0  0  0  0  0  0  0  0  0
   11.5609  -16.3299   21.9840 C   0  0  0  0  0  0  0  0  0  0  0  0
   12.4644  -17.1910   22.1470 O   0  0  0  0  0  0  0  0  0  0  0  0
    6.3005  -13.9503   19.7785 N   0  0  0  0  0  0  0  0  0  0  0  0
    7.3282  -13.0562   20.2349 C   0  0  0  0  0  0  0  0  0  0  0  0
    7.7984  -12.1273   19.5033 N   0  0  0  0  0  0  0  0  0  0  0  0
    7.8196  -13.2363   21.5521 N   0  0  0  0  0  0  0  0  0  0  0  0
    8.2753  -14.5405   22.0309 C   0  0  0  0  0  0  0  0  0  0  0  0
    8.6212  -14.4907   23.4943 C   0  0  0  0  0  0  0  0  0  0  0  0
    8.9947  -15.8470   24.0247 C   0  0  0  0  0  0  0  0  0  0  0  0
   10.5006  -15.9575   24.2393 C   0  0  2  0  0  0  0  0  0  0  0  0
   11.2323  -15.5116   23.0890 N   0  0  0  0  0  0  0  0  0  0  0  0
   10.8887  -17.3629   24.5450 C   0  0  0  0  0  0  0  0  0  0  0  0
   11.9910  -17.6905   25.3232 O   0  0  0  0  0  0  0  0  0  0  0  0
   10.2046  -18.3218   24.0906 O   0  0  0  0  0  0  0  0  0  0  0  0
  2  1  1  1
  3  2  1  0
  4  8  1  0
  4  3  1  0
  5  4  2  0
  6  5  1  0
  6  7  1  0
  7  8  2  0
  9  2  1  0
 10  9  2  0
 11  9  1  0
 12 11  1  0
 13 23  1  0
 13 12  1  0
 14 13  2  0
 16 15  1  0
 17 16  2  0
 18 16  1  0
 19 18  1  0
 20 19  1  0
 21 20  1  0
 22 21  1  6
 22 23  1  0
 24 25  1  0
 24 22  1  0
 26 24  2  0
M  END
$$$$
