HGR.pdb
     RDKit          3D

 26 26  0  0  1  0  0  0  0  0999 V2000
    8.6939  -17.2287   17.7431 N   0  0  0  0  0  0  0  0  0  0  0  0
    9.8077  -16.3361   17.6857 C   0  0  1  0  0  0  0  0  0  0  0  0
    9.7778  -15.2263   18.6650 C   0  0  0  0  0  0  0  0  0  0  0  0
    8.6595  -14.3115   18.5749 C   0  0  0  0  0  0  0  0  0  0  0  0
    7.6163  -14.3405   17.6829 C   0  0  0  0  0  0  0  0  0  0  0  0
    6.7887  -13.3137   17.9363 N   0  0  0  0  0  0  0  0  0  0  0  0
    7.3217  -12.6431   18.9923 C   0  0  0  0  0  0  0  0  0  0  0  0
    8.4586  -13.2534   19.3768 N   0  0  0  0  0  0  0  0  0  0  0  0
   11.0493  -17.1413   17.9423 C   0  0  0  0  0  0  0  0  0  0  0  0
   12.1950  -16.6566   17.7524 O   0  0  0  0  0  0  0  0  0  0  0  0
   10.9903  -18.4817   18.4095 N   0  0  0  0  0  0  0  0  0  0  0  0
   12.2153  -19.2222   18.6453 C   0  0  0  0  0  0  0  0  0  0  0  0
   12.7127  -19.0271   20.0297 C   0  0  0  0  0  0  0  0  0  0  0  0
   12.8541  -17.8596   20.4782 O   0  0  0  0  0  0  0  0  0  0  0  0
    9.5715  -24.8233   23.0991 N   0  0  0  0  0  0  0  0  0  0  0  0
    9.3843  -23.6086   22.3550 C   0  0  0  0  0  0  0  0  0  0  0  0
    8.4583  -23.4728   21.4929 N   0  0  0  0  0  0  0  0  0  0  0  0
   10.2769  -22.5373   22.6090 N   0  0  0  0  0  0  0  0  0  0  0  0
   11.4025  -22.6768   23.5316 C   0  0  0  0  0  0  0  0  0  0  0  0
   12.0816  -21.3544   23.7630 C   0  0  0  0  0  0  0  0  0  0  0  0
   13.3842  -21.2594   23.0182 C   0  0  0  0  0  0  0  0  0  0  0  0
   13.4811  -19.9479   22.2458 C   0  0  2  0  0  0  0  0  0  0  0  0
   13.0427  -20.1004   20.8886 N   0  0  0  0  0  0  0  0  0  0  0  0
   14.8800  -19.4359   22.2480 C   0  0  0  0  0  0  0  0  0  0  0  0
   15.4358  -18.7598   23.3258 O   0  0  0  0  0  0  0  0  0  0  0  0
   15.6191  -19.6088   21.2391 O   0  0  0  0  0  0  0  0  0  0  0  0
  2  1  1  1
  3  2  1  0
  4  8  1  0
  4  3  1  0
  5  4  2  0
  6  5  1  0
  6  7  1  0
  7  8  2  0
  9  2  1  0
 10  9  2  0
 11  9  1  0
 12 11  1  0
 13 23  1  0
 13 12  1  0
 14 13  2  0
 16 15  1  0
 17 16  2  0
 18 16  1  0
 19 18  1  0
 20 19  1  0
 21 20  1  0
 22 21  1  6
 22 23  1  0
 24 25  1  0
 24 22  1  0
 26 24  2  0
M  END
$$$$
