HGR.pdb
     RDKit          3D

 26 26  0  0  1  0  0  0  0  0999 V2000
    9.9185  -16.6219   19.0757 N   0  0  0  0  0  0  0  0  0  0  0  0
    9.8297  -15.9147   20.3135 C   0  0  1  0  0  0  0  0  0  0  0  0
    8.5520  -15.2034   20.5435 C   0  0  0  0  0  0  0  0  0  0  0  0
    8.1431  -14.2587   19.5257 C   0  0  0  0  0  0  0  0  0  0  0  0
    8.3576  -12.9029   19.4986 C   0  0  0  0  0  0  0  0  0  0  0  0
    7.8188  -12.3918   18.3798 N   0  0  0  0  0  0  0  0  0  0  0  0
    7.2664  -13.4370   17.7080 C   0  0  0  0  0  0  0  0  0  0  0  0
    7.4661  -14.5694   18.4084 N   0  0  0  0  0  0  0  0  0  0  0  0
   10.0047  -16.9136   21.4214 C   0  0  0  0  0  0  0  0  0  0  0  0
    9.7405  -18.1322   21.2521 O   0  0  0  0  0  0  0  0  0  0  0  0
   10.4745  -16.5327   22.7070 N   0  0  0  0  0  0  0  0  0  0  0  0
   11.2533  -17.4648   23.5001 C   0  0  0  0  0  0  0  0  0  0  0  0
   10.6835  -17.6326   24.8601 C   0  0  0  0  0  0  0  0  0  0  0  0
   10.5326  -16.6235   25.5970 O   0  0  0  0  0  0  0  0  0  0  0  0
    5.4960  -23.9991   25.4450 N   0  0  0  0  0  0  0  0  0  0  0  0
    5.1441  -22.7872   24.7584 C   0  0  0  0  0  0  0  0  0  0  0  0
    4.1363  -22.7094   23.9853 N   0  0  0  0  0  0  0  0  0  0  0  0
    5.9653  -21.6509   24.9665 N   0  0  0  0  0  0  0  0  0  0  0  0
    7.1151  -21.6883   25.8687 C   0  0  0  0  0  0  0  0  0  0  0  0
    7.8178  -20.3586   25.9078 C   0  0  0  0  0  0  0  0  0  0  0  0
    9.0045  -20.3826   26.8306 C   0  0  0  0  0  0  0  0  0  0  0  0
    9.8137  -19.0948   26.7186 C   0  0  2  0  0  0  0  0  0  0  0  0
   10.2938  -18.8868   25.3831 N   0  0  0  0  0  0  0  0  0  0  0  0
   10.9745  -19.1177   27.6521 C   0  0  0  0  0  0  0  0  0  0  0  0
   12.2909  -19.2049   27.2194 O   0  0  0  0  0  0  0  0  0  0  0  0
   10.7856  -19.0567   28.8990 O   0  0  0  0  0  0  0  0  0  0  0  0
  2  1  1  6
  3  2  1  0
  4  8  1  0
  4  3  1  0
  5  4  2  0
  6  5  1  0
  6  7  1  0
  7  8  2  0
  9  2  1  0
 10  9  2  0
 11  9  1  0
 12 11  1  0
 13 23  1  0
 13 12  1  0
 14 13  2  0
 16 15  1  0
 17 16  2  0
 18 16  1  0
 19 18  1  0
 20 19  1  0
 21 20  1  0
 22 21  1  6
 22 23  1  0
 24 25  1  0
 24 22  1  0
 26 24  2  0
M  END
$$$$
