HGR.pdb
     RDKit          3D

 26 26  0  0  1  0  0  0  0  0999 V2000
    8.8022  -18.0106   27.3894 N   0  0  0  0  0  0  0  0  0  0  0  0
    7.6809  -17.1375   27.5334 C   0  0  1  0  0  0  0  0  0  0  0  0
    7.8723  -16.0156   28.4800 C   0  0  0  0  0  0  0  0  0  0  0  0
    9.2279  -15.5390   28.6555 C   0  0  0  0  0  0  0  0  0  0  0  0
    9.7897  -14.3911   28.1537 C   0  0  0  0  0  0  0  0  0  0  0  0
   11.0715  -14.3172   28.5473 N   0  0  0  0  0  0  0  0  0  0  0  0
   11.3069  -15.4262   29.2981 C   0  0  0  0  0  0  0  0  0  0  0  0
   10.1834  -16.1655   29.3609 N   0  0  0  0  0  0  0  0  0  0  0  0
    7.3838  -16.5525   26.1824 C   0  0  0  0  0  0  0  0  0  0  0  0
    6.6347  -15.5496   26.0534 O   0  0  0  0  0  0  0  0  0  0  0  0
    7.9314  -17.1001   24.9913 N   0  0  0  0  0  0  0  0  0  0  0  0
    8.2862  -16.2276   23.8879 C   0  0  0  0  0  0  0  0  0  0  0  0
    9.3013  -16.8519   23.0035 C   0  0  0  0  0  0  0  0  0  0  0  0
    9.0604  -17.9692   22.4767 O   0  0  0  0  0  0  0  0  0  0  0  0
    7.6271  -13.5140   19.7233 N   0  0  0  0  0  0  0  0  0  0  0  0
    8.5426  -12.7596   18.9129 C   0  0  0  0  0  0  0  0  0  0  0  0
    8.3845  -11.5185   18.6807 N   0  0  0  0  0  0  0  0  0  0  0  0
    9.6544  -13.4459   18.3637 N   0  0  0  0  0  0  0  0  0  0  0  0
    9.8964  -14.8613   18.6387 C   0  0  0  0  0  0  0  0  0  0  0  0
   10.4480  -15.0583   20.0245 C   0  0  0  0  0  0  0  0  0  0  0  0
   10.7834  -16.4995   20.2908 C   0  0  0  0  0  0  0  0  0  0  0  0
   11.4270  -16.6694   21.6630 C   0  0  2  0  0  0  0  0  0  0  0  0
   10.5471  -16.2492   22.7149 N   0  0  0  0  0  0  0  0  0  0  0  0
   12.6941  -15.8911   21.7519 C   0  0  0  0  0  0  0  0  0  0  0  0
   13.7888  -16.1329   20.9327 O   0  0  0  0  0  0  0  0  0  0  0  0
   12.8090  -14.9631   22.6002 O   0  0  0  0  0  0  0  0  0  0  0  0
  2  1  1  6
  3  2  1  0
  4  8  1  0
  4  3  1  0
  5  4  2  0
  6  5  1  0
  6  7  1  0
  7  8  2  0
  9  2  1  0
 10  9  2  0
 11  9  1  0
 12 11  1  0
 13 23  1  0
 13 12  1  0
 14 13  2  0
 16 15  1  0
 17 16  2  0
 18 16  1  0
 19 18  1  0
 20 19  1  0
 21 20  1  0
 22 21  1  6
 22 23  1  0
 24 25  1  0
 24 22  1  0
 26 24  2  0
M  END
$$$$
