HGR.pdb
     RDKit          3D

 26 26  0  0  1  0  0  0  0  0999 V2000
   10.6697  -19.5560   18.2051 N   0  0  0  0  0  0  0  0  0  0  0  0
   11.6731  -18.5501   18.0570 C   0  0  1  0  0  0  0  0  0  0  0  0
   12.0730  -18.2585   16.6618 C   0  0  0  0  0  0  0  0  0  0  0  0
   12.7338  -19.3251   15.9399 C   0  0  0  0  0  0  0  0  0  0  0  0
   13.8815  -19.9937   16.2875 C   0  0  0  0  0  0  0  0  0  0  0  0
   14.1600  -20.9124   15.3486 N   0  0  0  0  0  0  0  0  0  0  0  0
   13.1791  -20.8135   14.4121 C   0  0  0  0  0  0  0  0  0  0  0  0
   12.3147  -19.8475   14.7760 N   0  0  0  0  0  0  0  0  0  0  0  0
   11.1367  -17.2813   18.6555 C   0  0  0  0  0  0  0  0  0  0  0  0
   11.8390  -16.2390   18.7184 O   0  0  0  0  0  0  0  0  0  0  0  0
    9.8177  -17.1972   19.1765 N   0  0  0  0  0  0  0  0  0  0  0  0
    9.3785  -15.9884   19.8476 C   0  0  0  0  0  0  0  0  0  0  0  0
    9.4501  -16.1271   21.3233 C   0  0  0  0  0  0  0  0  0  0  0  0
    9.3596  -17.2699   21.8430 O   0  0  0  0  0  0  0  0  0  0  0  0
    4.9810  -12.3289   26.6145 N   0  0  0  0  0  0  0  0  0  0  0  0
    6.3335  -12.1382   27.0603 C   0  0  0  0  0  0  0  0  0  0  0  0
    6.8095  -10.9874   27.3215 N   0  0  0  0  0  0  0  0  0  0  0  0
    7.1466  -13.2899   27.2064 N   0  0  0  0  0  0  0  0  0  0  0  0
    6.9925  -14.4551   26.3368 C   0  0  0  0  0  0  0  0  0  0  0  0
    8.3082  -14.8543   25.7260 C   0  0  0  0  0  0  0  0  0  0  0  0
    8.2799  -14.7520   24.2263 C   0  0  0  0  0  0  0  0  0  0  0  0
    9.6328  -15.1183   23.6251 C   0  0  2  0  0  0  0  0  0  0  0  0
    9.6174  -15.0258   22.1938 N   0  0  0  0  0  0  0  0  0  0  0  0
   10.0279  -16.5002   24.0166 C   0  0  0  0  0  0  0  0  0  0  0  0
   11.1231  -16.7728   24.8255 O   0  0  0  0  0  0  0  0  0  0  0  0
    9.3568  -17.4896   23.6108 O   0  0  0  0  0  0  0  0  0  0  0  0
  2  1  1  6
  3  2  1  0
  4  8  1  0
  4  3  1  0
  5  4  2  0
  6  5  1  0
  6  7  1  0
  7  8  2  0
  9  2  1  0
 10  9  2  0
 11  9  1  0
 12 11  1  0
 13 23  1  0
 13 12  1  0
 14 13  2  0
 16 15  1  0
 17 16  2  0
 18 16  1  0
 19 18  1  0
 20 19  1  0
 21 20  1  0
 22 21  1  6
 22 23  1  0
 24 25  1  0
 24 22  1  0
 26 24  2  0
M  END
$$$$
