HGR.pdb
     RDKit          3D

 26 26  0  0  1  0  0  0  0  0999 V2000
    8.3898  -16.9720   19.6309 N   0  0  0  0  0  0  0  0  0  0  0  0
    9.1732  -16.1989   20.5414 C   0  0  1  0  0  0  0  0  0  0  0  0
    8.5471  -14.9379   20.9992 C   0  0  0  0  0  0  0  0  0  0  0  0
    8.2526  -13.9526   19.9803 C   0  0  0  0  0  0  0  0  0  0  0  0
    8.5821  -13.9930   18.6481 C   0  0  0  0  0  0  0  0  0  0  0  0
    8.1248  -12.8835   18.0454 N   0  0  0  0  0  0  0  0  0  0  0  0
    7.5075  -12.1498   19.0095 C   0  0  0  0  0  0  0  0  0  0  0  0
    7.5879  -12.8038   20.1837 N   0  0  0  0  0  0  0  0  0  0  0  0
    9.4329  -17.0483   21.7525 C   0  0  0  0  0  0  0  0  0  0  0  0
    8.6028  -17.9128   22.1362 O   0  0  0  0  0  0  0  0  0  0  0  0
   10.6219  -16.9175   22.5191 N   0  0  0  0  0  0  0  0  0  0  0  0
   10.9059  -17.8609   23.5839 C   0  0  0  0  0  0  0  0  0  0  0  0
   10.1209  -17.5568   24.8059 C   0  0  0  0  0  0  0  0  0  0  0  0
    9.8200  -16.3630   25.0676 O   0  0  0  0  0  0  0  0  0  0  0  0
    4.4719  -23.1888   27.1802 N   0  0  0  0  0  0  0  0  0  0  0  0
    5.8040  -23.6926   26.9914 C   0  0  0  0  0  0  0  0  0  0  0  0
    6.0640  -24.9378   26.9586 N   0  0  0  0  0  0  0  0  0  0  0  0
    6.8493  -22.7476   26.8385 N   0  0  0  0  0  0  0  0  0  0  0  0
    6.6068  -21.3096   26.9431 C   0  0  0  0  0  0  0  0  0  0  0  0
    7.8994  -20.5397   26.9401 C   0  0  0  0  0  0  0  0  0  0  0  0
    7.6640  -19.0559   26.9978 C   0  0  0  0  0  0  0  0  0  0  0  0
    8.9798  -18.2878   26.9302 C   0  0  2  0  0  0  0  0  0  0  0  0
    9.6842  -18.5528   25.7092 N   0  0  0  0  0  0  0  0  0  0  0  0
    9.8570  -18.6407   28.0814 C   0  0  0  0  0  0  0  0  0  0  0  0
    9.5383  -18.3317   29.3971 O   0  0  0  0  0  0  0  0  0  0  0  0
   10.9460  -19.2484   27.8848 O   0  0  0  0  0  0  0  0  0  0  0  0
  2  1  1  6
  3  2  1  0
  4  8  1  0
  4  3  1  0
  5  4  2  0
  6  5  1  0
  6  7  1  0
  7  8  2  0
  9  2  1  0
 10  9  2  0
 11  9  1  0
 12 11  1  0
 13 23  1  0
 13 12  1  0
 14 13  2  0
 16 15  1  0
 17 16  2  0
 18 16  1  0
 19 18  1  0
 20 19  1  0
 21 20  1  0
 22 21  1  6
 22 23  1  0
 24 25  1  0
 24 22  1  0
 26 24  2  0
M  END
$$$$
