HGR.pdb
     RDKit          3D

 26 26  0  0  1  0  0  0  0  0999 V2000
   10.2673  -18.4123   17.0256 N   0  0  0  0  0  0  0  0  0  0  0  0
    9.5376  -17.2259   16.7086 C   0  0  1  0  0  0  0  0  0  0  0  0
    8.4978  -17.3842   15.6668 C   0  0  0  0  0  0  0  0  0  0  0  0
    8.9629  -17.5459   14.3054 C   0  0  0  0  0  0  0  0  0  0  0  0
   10.2589  -17.6441   13.8632 C   0  0  0  0  0  0  0  0  0  0  0  0
   10.2613  -17.7845   12.5277 N   0  0  0  0  0  0  0  0  0  0  0  0
    8.9585  -17.7734   12.1384 C   0  0  0  0  0  0  0  0  0  0  0  0
    8.1733  -17.6281   13.2224 N   0  0  0  0  0  0  0  0  0  0  0  0
    8.8606  -16.7591   17.9654 C   0  0  0  0  0  0  0  0  0  0  0  0
    8.1920  -15.6934   17.9919 O   0  0  0  0  0  0  0  0  0  0  0  0
    8.9421  -17.4944   19.1783 N   0  0  0  0  0  0  0  0  0  0  0  0
    8.3212  -16.9774   20.3831 C   0  0  0  0  0  0  0  0  0  0  0  0
    9.3338  -16.4925   21.3536 C   0  0  0  0  0  0  0  0  0  0  0  0
   10.5455  -16.4514   21.0157 O   0  0  0  0  0  0  0  0  0  0  0  0
    9.7390  -15.7523   30.1552 N   0  0  0  0  0  0  0  0  0  0  0  0
   10.6602  -14.7485   29.6994 C   0  0  0  0  0  0  0  0  0  0  0  0
   11.2625  -13.9624   30.4984 N   0  0  0  0  0  0  0  0  0  0  0  0
   10.8894  -14.6508   28.3041 N   0  0  0  0  0  0  0  0  0  0  0  0
    9.8863  -15.0754   27.3288 C   0  0  0  0  0  0  0  0  0  0  0  0
   10.2960  -14.7002   25.9306 C   0  0  0  0  0  0  0  0  0  0  0  0
    9.2830  -15.1486   24.9141 C   0  0  0  0  0  0  0  0  0  0  0  0
    9.9618  -15.6128   23.6297 C   0  0  2  0  0  0  0  0  0  0  0  0
    9.0061  -16.0664   22.6611 N   0  0  0  0  0  0  0  0  0  0  0  0
   10.9262  -16.7131   23.9101 C   0  0  0  0  0  0  0  0  0  0  0  0
   12.2736  -16.4914   24.1615 O   0  0  0  0  0  0  0  0  0  0  0  0
   10.5314  -17.9121   23.9270 O   0  0  0  0  0  0  0  0  0  0  0  0
  2  1  1  1
  3  2  1  0
  4  8  1  0
  4  3  1  0
  5  4  2  0
  6  5  1  0
  6  7  1  0
  7  8  2  0
  9  2  1  0
 10  9  2  0
 11  9  1  0
 12 11  1  0
 13 23  1  0
 13 12  1  0
 14 13  2  0
 16 15  1  0
 17 16  2  0
 18 16  1  0
 19 18  1  0
 20 19  1  0
 21 20  1  0
 22 21  1  1
 22 23  1  0
 24 25  1  0
 24 22  1  0
 26 24  2  0
M  END
$$$$
