HGR.pdb
     RDKit          3D

 26 26  0  0  1  0  0  0  0  0999 V2000
   10.5508  -16.4191   17.6782 N   0  0  0  0  0  0  0  0  0  0  0  0
   11.4060  -15.5086   16.9853 C   0  0  1  0  0  0  0  0  0  0  0  0
   10.7243  -14.3489   16.3672 C   0  0  0  0  0  0  0  0  0  0  0  0
    9.7019  -14.6447   15.3860 C   0  0  0  0  0  0  0  0  0  0  0  0
    8.3400  -14.5546   15.5340 C   0  0  0  0  0  0  0  0  0  0  0  0
    7.7451  -14.9187   14.3864 N   0  0  0  0  0  0  0  0  0  0  0  0
    8.7441  -15.2368   13.5206 C   0  0  0  0  0  0  0  0  0  0  0  0
    9.9315  -15.0687   14.1327 N   0  0  0  0  0  0  0  0  0  0  0  0
   12.4045  -14.9801   17.9749 C   0  0  0  0  0  0  0  0  0  0  0  0
   12.2772  -13.8376   18.4869 O   0  0  0  0  0  0  0  0  0  0  0  0
   13.5347  -15.7405   18.3785 N   0  0  0  0  0  0  0  0  0  0  0  0
   14.4752  -15.1897   19.3360 C   0  0  0  0  0  0  0  0  0  0  0  0
   14.0135  -15.3913   20.7318 C   0  0  0  0  0  0  0  0  0  0  0  0
   14.7543  -15.0382   21.6862 O   0  0  0  0  0  0  0  0  0  0  0  0
    6.9883  -12.9868   22.8735 N   0  0  0  0  0  0  0  0  0  0  0  0
    7.4695  -12.7381   21.5429 C   0  0  0  0  0  0  0  0  0  0  0  0
    7.2583  -11.6400   20.9355 N   0  0  0  0  0  0  0  0  0  0  0  0
    8.2035  -13.7693   20.9051 N   0  0  0  0  0  0  0  0  0  0  0  0
    8.7077  -14.9248   21.6456 C   0  0  0  0  0  0  0  0  0  0  0  0
   10.2079  -14.8883   21.7525 C   0  0  0  0  0  0  0  0  0  0  0  0
   10.7475  -16.1141   22.4356 C   0  0  0  0  0  0  0  0  0  0  0  0
   12.2717  -16.1421   22.3906 C   0  0  2  0  0  0  0  0  0  0  0  0
   12.7642  -15.9688   21.0546 N   0  0  0  0  0  0  0  0  0  0  0  0
   12.7926  -17.4270   22.9356 C   0  0  0  0  0  0  0  0  0  0  0  0
   13.4759  -18.3549   22.1611 O   0  0  0  0  0  0  0  0  0  0  0  0
   12.6209  -17.7144   24.1529 O   0  0  0  0  0  0  0  0  0  0  0  0
  2  1  1  1
  3  2  1  0
  4  8  1  0
  4  3  1  0
  5  4  2  0
  6  5  1  0
  6  7  1  0
  7  8  2  0
  9  2  1  0
 10  9  2  0
 11  9  1  0
 12 11  1  0
 13 23  1  0
 13 12  1  0
 14 13  2  0
 16 15  1  0
 17 16  2  0
 18 16  1  0
 19 18  1  0
 20 19  1  0
 21 20  1  0
 22 21  1  6
 22 23  1  0
 24 25  1  0
 24 22  1  0
 26 24  2  0
M  END
$$$$
