DPW.pdb
     RDKit          3D

 30 32  0  0  1  0  0  0  0  0999 V2000
   28.8007  -22.4276  -17.5189 N   0  0  0  0  0  0  0  0  0  0  0  0
   27.7386  -21.7236  -16.8655 C   0  0  1  0  0  0  0  0  0  0  0  0
   26.4472  -22.4656  -17.1044 C   0  0  0  0  0  0  0  0  0  0  0  0
   25.3215  -21.5272  -16.9736 C   0  0  0  0  0  0  0  0  0  0  0  0
   25.5176  -20.3254  -16.6988 O   0  0  0  0  0  0  0  0  0  0  0  0
   27.9841  -21.5220  -15.4163 C   0  0  0  0  0  0  0  0  0  0  0  0
   28.6103  -22.4825  -14.8522 O   0  0  0  0  0  0  0  0  0  0  0  0
   24.0330  -21.9749  -17.1556 O   0  0  0  0  0  0  0  0  0  0  0  0
   27.5861  -20.3922  -14.6696 N   0  0  0  0  0  0  0  0  0  0  0  0
   26.7319  -19.2919  -15.0329 C   0  0  0  0  0  0  0  0  0  0  0  0
   27.0623  -18.1450  -14.0742 C   0  0  0  0  0  0  0  0  0  0  0  0
   28.3530  -18.6510  -13.4123 C   0  0  0  0  0  0  0  0  0  0  0  0
   27.9956  -20.1197  -13.3101 C   0  0  1  0  0  0  0  0  0  0  0  0
   26.8450  -20.2581  -12.3624 C   0  0  0  0  0  0  0  0  0  0  0  0
   25.6424  -20.1653  -12.7538 O   0  0  0  0  0  0  0  0  0  0  0  0
   27.1035  -20.5003  -10.9869 N   0  0  0  0  0  0  0  0  0  0  0  0
   26.2018  -21.3204  -10.1711 C   0  0  1  0  0  0  0  0  0  0  0  0
   26.9593  -21.5337   -8.8532 C   0  0  0  0  0  0  0  0  0  0  0  0
   26.9919  -20.3055   -8.0428 C   0  0  0  0  0  0  0  0  0  0  0  0
   26.3787  -19.0987   -8.3066 C   0  0  0  0  0  0  0  0  0  0  0  0
   26.6694  -18.2474   -7.3067 N   0  0  0  0  0  0  0  0  0  0  0  0
   27.4538  -18.8601   -6.3971 C   0  0  0  0  0  0  0  0  0  0  0  0
   28.0269  -18.4782   -5.2227 C   0  0  0  0  0  0  0  0  0  0  0  0
   28.8003  -19.3468   -4.4886 C   0  0  0  0  0  0  0  0  0  0  0  0
   29.0280  -20.6419   -4.9111 C   0  0  0  0  0  0  0  0  0  0  0  0
   28.4418  -21.0220   -6.1058 C   0  0  0  0  0  0  0  0  0  0  0  0
   27.6609  -20.1605   -6.8568 C   0  0  0  0  0  0  0  0  0  0  0  0
   24.9753  -20.5465   -9.8538 C   0  0  0  0  0  0  0  0  0  0  0  0
   24.8542  -19.3275  -10.0644 O   0  0  0  0  0  0  0  0  0  0  0  0
   23.8993  -21.2106   -9.2907 O   0  0  0  0  0  0  0  0  0  0  0  0
  2  1  1  1
  2  6  1  0
  3  2  1  0
  4  8  1  0
  4  3  1  0
  5  4  2  0
  6  7  2  0
  9  6  1  0
  9 13  1  0
 10  9  1  0
 11 10  1  0
 11 12  1  0
 12 13  1  0
 13 14  1  1
 14 15  2  0
 16 14  1  0
 17 16  1  0
 17 28  1  0
 17 18  1  1
 19 18  1  0
 20 19  2  0
 21 22  1  0
 21 20  1  0
 22 27  2  0
 23 24  2  0
 23 22  1  0
 24 25  1  0
 25 26  2  0
 27 26  1  0
 27 19  1  0
 28 29  2  0
 28 30  1  0
M  END
$$$$
