DPW.pdb
     RDKit          3D

 30 32  0  0  1  0  0  0  0  0999 V2000
   25.7068  -17.8676  -18.9019 N   0  0  0  0  0  0  0  0  0  0  0  0
   26.2378  -18.2812  -17.6381 C   0  0  1  0  0  0  0  0  0  0  0  0
   25.4903  -17.5648  -16.5411 C   0  0  0  0  0  0  0  0  0  0  0  0
   25.6823  -16.1142  -16.6955 C   0  0  0  0  0  0  0  0  0  0  0  0
   24.7773  -15.3116  -16.3869 O   0  0  0  0  0  0  0  0  0  0  0  0
   26.1962  -19.7519  -17.4468 C   0  0  0  0  0  0  0  0  0  0  0  0
   25.5489  -20.3801  -18.3519 O   0  0  0  0  0  0  0  0  0  0  0  0
   26.8733  -15.6301  -17.1862 O   0  0  0  0  0  0  0  0  0  0  0  0
   26.7978  -20.4544  -16.3805 N   0  0  0  0  0  0  0  0  0  0  0  0
   27.4479  -19.9636  -15.1936 C   0  0  0  0  0  0  0  0  0  0  0  0
   28.3385  -21.0980  -14.6802 C   0  0  0  0  0  0  0  0  0  0  0  0
   28.3191  -22.0738  -15.8665 C   0  0  0  0  0  0  0  0  0  0  0  0
   26.8739  -21.8950  -16.2847 C   0  0  1  0  0  0  0  0  0  0  0  0
   25.9995  -22.4090  -15.1836 C   0  0  0  0  0  0  0  0  0  0  0  0
   25.9786  -23.6362  -14.8648 O   0  0  0  0  0  0  0  0  0  0  0  0
   25.1698  -21.5003  -14.4741 N   0  0  0  0  0  0  0  0  0  0  0  0
   24.2228  -21.9639  -13.4546 C   0  0  1  0  0  0  0  0  0  0  0  0
   25.1053  -22.5685  -12.3537 C   0  0  0  0  0  0  0  0  0  0  0  0
   25.7448  -21.5236  -11.5380 C   0  0  0  0  0  0  0  0  0  0  0  0
   25.1417  -20.6355  -10.6722 C   0  0  0  0  0  0  0  0  0  0  0  0
   26.0947  -19.8534  -10.1344 N   0  0  0  0  0  0  0  0  0  0  0  0
   27.3025  -20.2024  -10.6218 C   0  0  0  0  0  0  0  0  0  0  0  0
   28.5736  -19.7562  -10.4253 C   0  0  0  0  0  0  0  0  0  0  0  0
   29.6403  -20.3238  -11.0821 C   0  0  0  0  0  0  0  0  0  0  0  0
   29.4675  -21.3695  -11.9678 C   0  0  0  0  0  0  0  0  0  0  0  0
   28.1722  -21.8170  -12.1617 C   0  0  0  0  0  0  0  0  0  0  0  0
   27.0877  -21.2570  -11.5089 C   0  0  0  0  0  0  0  0  0  0  0  0
   23.5177  -20.7988  -12.8635 C   0  0  0  0  0  0  0  0  0  0  0  0
   23.8926  -19.6218  -13.0020 O   0  0  0  0  0  0  0  0  0  0  0  0
   22.3766  -21.0250  -12.1135 O   0  0  0  0  0  0  0  0  0  0  0  0
  2  1  1  6
  2  6  1  0
  3  2  1  0
  4  8  1  0
  4  3  1  0
  5  4  2  0
  6  7  2  0
  9  6  1  0
  9 13  1  0
 10  9  1  0
 11 10  1  0
 11 12  1  0
 12 13  1  0
 13 14  1  1
 14 15  2  0
 16 14  1  0
 17 16  1  0
 17 28  1  0
 17 18  1  1
 19 18  1  0
 20 19  2  0
 21 22  1  0
 21 20  1  0
 22 27  2  0
 23 24  2  0
 23 22  1  0
 24 25  1  0
 25 26  2  0
 27 26  1  0
 27 19  1  0
 28 29  2  0
 28 30  1  0
M  END
$$$$
