DPW.pdb
     RDKit          3D

 30 32  0  0  1  0  0  0  0  0999 V2000
   26.2247  -19.3774  -15.9629 N   0  0  0  0  0  0  0  0  0  0  0  0
   26.8958  -19.0815  -14.7331 C   0  0  1  0  0  0  0  0  0  0  0  0
   26.1818  -17.9388  -14.0548 C   0  0  0  0  0  0  0  0  0  0  0  0
   26.1992  -16.7654  -14.9424 C   0  0  0  0  0  0  0  0  0  0  0  0
   25.1661  -16.0912  -15.1337 O   0  0  0  0  0  0  0  0  0  0  0  0
   27.0038  -20.2579  -13.8356 C   0  0  0  0  0  0  0  0  0  0  0  0
   26.2287  -21.2257  -14.1444 O   0  0  0  0  0  0  0  0  0  0  0  0
   27.3672  -16.4015  -15.5726 O   0  0  0  0  0  0  0  0  0  0  0  0
   27.8664  -20.3602  -12.7229 N   0  0  0  0  0  0  0  0  0  0  0  0
   28.6676  -19.3565  -12.0728 C   0  0  0  0  0  0  0  0  0  0  0  0
   29.7571  -20.1003  -11.2959 C   0  0  0  0  0  0  0  0  0  0  0  0
   29.6249  -21.5248  -11.8557 C   0  0  0  0  0  0  0  0  0  0  0  0
   28.1164  -21.5790  -11.9864 C   0  0  1  0  0  0  0  0  0  0  0  0
   27.5236  -21.5104  -10.6135 C   0  0  0  0  0  0  0  0  0  0  0  0
   28.0600  -22.0950   -9.6242 O   0  0  0  0  0  0  0  0  0  0  0  0
   26.3279  -20.7712  -10.4095 N   0  0  0  0  0  0  0  0  0  0  0  0
   25.1731  -21.3577   -9.7213 C   0  0  1  0  0  0  0  0  0  0  0  0
   25.6446  -21.5544   -8.2738 C   0  0  0  0  0  0  0  0  0  0  0  0
   26.2915  -20.3423   -7.7459 C   0  0  0  0  0  0  0  0  0  0  0  0
   26.2486  -19.0643   -8.2625 C   0  0  0  0  0  0  0  0  0  0  0  0
   26.9787  -18.2607   -7.4686 N   0  0  0  0  0  0  0  0  0  0  0  0
   27.4980  -18.9737   -6.4487 C   0  0  0  0  0  0  0  0  0  0  0  0
   28.2910  -18.6732   -5.3838 C   0  0  0  0  0  0  0  0  0  0  0  0
   28.6711  -19.6381   -4.4803 C   0  0  0  0  0  0  0  0  0  0  0  0
   28.2647  -20.9513   -4.6150 C   0  0  0  0  0  0  0  0  0  0  0  0
   27.4587  -21.2482   -5.7003 C   0  0  0  0  0  0  0  0  0  0  0  0
   27.0673  -20.2894   -6.6186 C   0  0  0  0  0  0  0  0  0  0  0  0
   24.0597  -20.3760   -9.6922 C   0  0  0  0  0  0  0  0  0  0  0  0
   24.1320  -19.2353  -10.1806 O   0  0  0  0  0  0  0  0  0  0  0  0
   22.8689  -20.7417   -9.0889 O   0  0  0  0  0  0  0  0  0  0  0  0
  2  1  1  6
  2  6  1  0
  3  2  1  0
  4  8  1  0
  4  3  1  0
  5  4  2  0
  6  7  2  0
  9  6  1  0
  9 13  1  0
 10  9  1  0
 11 10  1  0
 11 12  1  0
 12 13  1  0
 13 14  1  1
 14 15  2  0
 16 14  1  0
 17 16  1  0
 17 28  1  0
 17 18  1  1
 19 18  1  0
 20 19  2  0
 21 22  1  0
 21 20  1  0
 22 27  2  0
 23 24  2  0
 23 22  1  0
 24 25  1  0
 25 26  2  0
 27 26  1  0
 27 19  1  0
 28 29  2  0
 28 30  1  0
M  END
$$$$
