DPW.pdb
     RDKit          3D

 30 32  0  0  1  0  0  0  0  0999 V2000
   25.6389  -17.7196  -18.6479 N   0  0  0  0  0  0  0  0  0  0  0  0
   26.1524  -17.9984  -17.3407 C   0  0  1  0  0  0  0  0  0  0  0  0
   25.3809  -17.1826  -16.3334 C   0  0  0  0  0  0  0  0  0  0  0  0
   25.8023  -15.7761  -16.4285 C   0  0  0  0  0  0  0  0  0  0  0  0
   26.8421  -15.4588  -17.0422 O   0  0  0  0  0  0  0  0  0  0  0  0
   26.1202  -19.4426  -17.0026 C   0  0  0  0  0  0  0  0  0  0  0  0
   25.4647  -20.1606  -17.8318 O   0  0  0  0  0  0  0  0  0  0  0  0
   25.0440  -14.7930  -15.8349 O   0  0  0  0  0  0  0  0  0  0  0  0
   26.7384  -20.0327  -15.8791 N   0  0  0  0  0  0  0  0  0  0  0  0
   27.4782  -19.4294  -14.8017 C   0  0  0  0  0  0  0  0  0  0  0  0
   28.3304  -20.5386  -14.1796 C   0  0  0  0  0  0  0  0  0  0  0  0
   28.1922  -21.6611  -15.2193 C   0  0  0  0  0  0  0  0  0  0  0  0
   26.7387  -21.4495  -15.5909 C   0  0  1  0  0  0  0  0  0  0  0  0
   25.8979  -21.7557  -14.3908 C   0  0  0  0  0  0  0  0  0  0  0  0
   26.3487  -21.6370  -13.2114 O   0  0  0  0  0  0  0  0  0  0  0  0
   24.5583  -22.1909  -14.5741 N   0  0  0  0  0  0  0  0  0  0  0  0
   23.4750  -21.7224  -13.7035 C   0  0  1  0  0  0  0  0  0  0  0  0
   23.9817  -20.3875  -13.1401 C   0  0  0  0  0  0  0  0  0  0  0  0
   24.5397  -20.5478  -11.7877 C   0  0  0  0  0  0  0  0  0  0  0  0
   25.8646  -20.6743  -11.4262 C   0  0  0  0  0  0  0  0  0  0  0  0
   25.9297  -20.7993  -10.0886 N   0  0  0  0  0  0  0  0  0  0  0  0
   24.6882  -20.7585   -9.5640 C   0  0  0  0  0  0  0  0  0  0  0  0
   24.1851  -20.8365   -8.3014 C   0  0  0  0  0  0  0  0  0  0  0  0
   22.8324  -20.7619   -8.0646 C   0  0  0  0  0  0  0  0  0  0  0  0
   21.9279  -20.6048   -9.0966 C   0  0  0  0  0  0  0  0  0  0  0  0
   22.4476  -20.5263  -10.3770 C   0  0  0  0  0  0  0  0  0  0  0  0
   23.8060  -20.5997  -10.6326 C   0  0  0  0  0  0  0  0  0  0  0  0
   22.2717  -21.4268  -14.5213 C   0  0  0  0  0  0  0  0  0  0  0  0
   21.1111  -21.4545  -14.0771 O   0  0  0  0  0  0  0  0  0  0  0  0
   22.4406  -21.1010  -15.8559 O   0  0  0  0  0  0  0  0  0  0  0  0
  2  1  1  6
  2  6  1  0
  3  2  1  0
  4  8  1  0
  4  3  1  0
  5  4  2  0
  6  7  2  0
  9  6  1  0
  9 13  1  0
 10  9  1  0
 11 10  1  0
 11 12  1  0
 12 13  1  0
 13 14  1  1
 14 15  2  0
 16 14  1  0
 17 16  1  0
 17 28  1  0
 17 18  1  6
 19 18  1  0
 20 19  2  0
 21 22  1  0
 21 20  1  0
 22 27  2  0
 23 24  2  0
 23 22  1  0
 24 25  1  0
 25 26  2  0
 27 26  1  0
 27 19  1  0
 28 29  2  0
 28 30  1  0
M  END
$$$$
