DPW.pdb
     RDKit          3D

 30 32  0  0  1  0  0  0  0  0999 V2000
   24.3901  -19.2591  -16.4286 N   0  0  0  0  0  0  0  0  0  0  0  0
   25.1581  -18.9617  -15.2572 C   0  0  1  0  0  0  0  0  0  0  0  0
   24.2557  -18.3098  -14.2393 C   0  0  0  0  0  0  0  0  0  0  0  0
   23.5142  -17.2148  -14.8843 C   0  0  0  0  0  0  0  0  0  0  0  0
   24.1074  -16.3541  -15.5669 O   0  0  0  0  0  0  0  0  0  0  0  0
   25.8353  -20.1544  -14.6914 C   0  0  0  0  0  0  0  0  0  0  0  0
   25.3729  -21.2687  -15.1127 O   0  0  0  0  0  0  0  0  0  0  0  0
   22.1485  -17.1332  -14.7367 O   0  0  0  0  0  0  0  0  0  0  0  0
   26.9009  -20.1268  -13.7661 N   0  0  0  0  0  0  0  0  0  0  0  0
   27.5210  -19.0141  -13.0957 C   0  0  0  0  0  0  0  0  0  0  0  0
   28.9029  -19.4906  -12.6410 C   0  0  0  0  0  0  0  0  0  0  0  0
   29.0435  -20.8176  -13.4022 C   0  0  0  0  0  0  0  0  0  0  0  0
   27.6098  -21.2951  -13.2940 C   0  0  1  0  0  0  0  0  0  0  0  0
   27.3110  -21.5607  -11.8514 C   0  0  0  0  0  0  0  0  0  0  0  0
   28.1438  -22.1431  -11.0929 O   0  0  0  0  0  0  0  0  0  0  0  0
   26.0618  -21.1504  -11.3140 N   0  0  0  0  0  0  0  0  0  0  0  0
   25.7504  -21.3127   -9.8900 C   0  0  1  0  0  0  0  0  0  0  0  0
   26.7630  -20.4132   -9.1678 C   0  0  0  0  0  0  0  0  0  0  0  0
   26.5340  -20.3990   -7.7140 C   0  0  0  0  0  0  0  0  0  0  0  0
   25.3767  -20.7164   -7.0345 C   0  0  0  0  0  0  0  0  0  0  0  0
   25.6037  -20.5684   -5.7170 N   0  0  0  0  0  0  0  0  0  0  0  0
   26.8738  -20.1639   -5.5139 C   0  0  0  0  0  0  0  0  0  0  0  0
   27.6143  -19.8697   -4.4100 C   0  0  0  0  0  0  0  0  0  0  0  0
   28.9262  -19.4704   -4.5145 C   0  0  0  0  0  0  0  0  0  0  0  0
   29.5475  -19.3512   -5.7423 C   0  0  0  0  0  0  0  0  0  0  0  0
   28.7877  -19.6521   -6.8593 C   0  0  0  0  0  0  0  0  0  0  0  0
   27.4664  -20.0552   -6.7718 C   0  0  0  0  0  0  0  0  0  0  0  0
   24.3985  -20.7665   -9.6106 C   0  0  0  0  0  0  0  0  0  0  0  0
   23.8992  -19.8099  -10.2276 O   0  0  0  0  0  0  0  0  0  0  0  0
   23.6425  -21.3484   -8.6078 O   0  0  0  0  0  0  0  0  0  0  0  0
  2  1  1  6
  2  6  1  0
  3  2  1  0
  4  8  1  0
  4  3  1  0
  5  4  2  0
  6  7  2  0
  9  6  1  0
  9 13  1  0
 10  9  1  0
 11 10  1  0
 11 12  1  0
 12 13  1  0
 13 14  1  1
 14 15  2  0
 16 14  1  0
 17 16  1  0
 17 28  1  0
 17 18  1  1
 19 18  1  0
 20 19  2  0
 21 22  1  0
 21 20  1  0
 22 27  2  0
 23 24  2  0
 23 22  1  0
 24 25  1  0
 25 26  2  0
 27 26  1  0
 27 19  1  0
 28 29  2  0
 28 30  1  0
M  END
$$$$
