DPW.pdb
     RDKit          3D

 30 32  0  0  1  0  0  0  0  0999 V2000
   25.5094  -19.2742  -19.6863 N   0  0  0  0  0  0  0  0  0  0  0  0
   26.2077  -19.3858  -18.4411 C   0  0  1  0  0  0  0  0  0  0  0  0
   25.9174  -18.1598  -17.6117 C   0  0  0  0  0  0  0  0  0  0  0  0
   26.3771  -16.9663  -18.3392 C   0  0  0  0  0  0  0  0  0  0  0  0
   25.6495  -15.9567  -18.4389 O   0  0  0  0  0  0  0  0  0  0  0  0
   25.8753  -20.6280  -17.7011 C   0  0  0  0  0  0  0  0  0  0  0  0
   24.7683  -21.1641  -18.0474 O   0  0  0  0  0  0  0  0  0  0  0  0
   27.6248  -16.9572  -18.9195 O   0  0  0  0  0  0  0  0  0  0  0  0
   26.6695  -21.2158  -16.6930 N   0  0  0  0  0  0  0  0  0  0  0  0
   27.8993  -20.7635  -16.0969 C   0  0  0  0  0  0  0  0  0  0  0  0
   28.5615  -21.9935  -15.4707 C   0  0  0  0  0  0  0  0  0  0  0  0
   27.7255  -23.1371  -16.0652 C   0  0  0  0  0  0  0  0  0  0  0  0
   26.3673  -22.4664  -16.0334 C   0  0  1  0  0  0  0  0  0  0  0  0
   25.9872  -22.2432  -14.6028 C   0  0  0  0  0  0  0  0  0  0  0  0
   26.4115  -22.9951  -13.6738 O   0  0  0  0  0  0  0  0  0  0  0  0
   25.1285  -21.1609  -14.2730 N   0  0  0  0  0  0  0  0  0  0  0  0
   24.2027  -21.2363  -13.1380 C   0  0  1  0  0  0  0  0  0  0  0  0
   25.0131  -20.7158  -11.9429 C   0  0  0  0  0  0  0  0  0  0  0  0
   26.3494  -20.2560  -12.3541 C   0  0  0  0  0  0  0  0  0  0  0  0
   26.6639  -19.2730  -13.2689 C   0  0  0  0  0  0  0  0  0  0  0  0
   28.0033  -19.1752  -13.3432 N   0  0  0  0  0  0  0  0  0  0  0  0
   28.5746  -20.0639  -12.5053 C   0  0  0  0  0  0  0  0  0  0  0  0
   29.8593  -20.3846  -12.1893 C   0  0  0  0  0  0  0  0  0  0  0  0
   30.1458  -21.3656  -11.2689 C   0  0  0  0  0  0  0  0  0  0  0  0
   29.1434  -22.0661  -10.6268 C   0  0  0  0  0  0  0  0  0  0  0  0
   27.8403  -21.7338  -10.9539 C   0  0  0  0  0  0  0  0  0  0  0  0
   27.5347  -20.7495  -11.8778 C   0  0  0  0  0  0  0  0  0  0  0  0
   23.0764  -20.2928  -13.3509 C   0  0  0  0  0  0  0  0  0  0  0  0
   22.9960  -19.5213  -14.3221 O   0  0  0  0  0  0  0  0  0  0  0  0
   22.0521  -20.2623  -12.4204 O   0  0  0  0  0  0  0  0  0  0  0  0
  2  1  1  6
  2  6  1  0
  3  2  1  0
  4  8  1  0
  4  3  1  0
  5  4  2  0
  6  7  2  0
  9  6  1  0
  9 13  1  0
 10  9  1  0
 11 10  1  0
 11 12  1  0
 12 13  1  0
 13 14  1  1
 14 15  2  0
 16 14  1  0
 17 16  1  0
 17 28  1  0
 17 18  1  1
 19 18  1  0
 20 19  2  0
 21 22  1  0
 21 20  1  0
 22 27  2  0
 23 24  2  0
 23 22  1  0
 24 25  1  0
 25 26  2  0
 27 26  1  0
 27 19  1  0
 28 29  2  0
 28 30  1  0
M  END
$$$$
