DPW.pdb
     RDKit          3D

 30 32  0  0  1  0  0  0  0  0999 V2000
   24.0438  -18.3838  -16.9568 N   0  0  0  0  0  0  0  0  0  0  0  0
   24.9066  -18.2829  -15.8184 C   0  0  1  0  0  0  0  0  0  0  0  0
   24.0886  -17.8479  -14.6280 C   0  0  0  0  0  0  0  0  0  0  0  0
   23.3768  -16.6040  -14.9615 C   0  0  0  0  0  0  0  0  0  0  0  0
   23.9938  -15.6092  -15.3952 O   0  0  0  0  0  0  0  0  0  0  0  0
   25.6416  -19.5405  -15.5366 C   0  0  0  0  0  0  0  0  0  0  0  0
   25.1869  -20.5629  -16.1536 O   0  0  0  0  0  0  0  0  0  0  0  0
   22.0128  -16.5307  -14.7951 O   0  0  0  0  0  0  0  0  0  0  0  0
   26.7516  -19.6621  -14.6731 N   0  0  0  0  0  0  0  0  0  0  0  0
   27.2963  -18.7284  -13.7225 C   0  0  0  0  0  0  0  0  0  0  0  0
   28.7430  -19.1577  -13.4654 C   0  0  0  0  0  0  0  0  0  0  0  0
   28.9700  -20.1835  -14.5863 C   0  0  0  0  0  0  0  0  0  0  0  0
   27.5997  -20.8297  -14.5844 C   0  0  1  0  0  0  0  0  0  0  0  0
   27.4140  -21.5327  -13.2758 C   0  0  0  0  0  0  0  0  0  0  0  0
   28.2128  -22.4361  -12.8836 O   0  0  0  0  0  0  0  0  0  0  0  0
   26.3144  -21.1808  -12.4483 N   0  0  0  0  0  0  0  0  0  0  0  0
   26.1019  -21.8189  -11.1450 C   0  0  1  0  0  0  0  0  0  0  0  0
   27.3154  -21.3965  -10.3053 C   0  0  0  0  0  0  0  0  0  0  0  0
   26.9060  -20.7047   -9.0724 C   0  0  0  0  0  0  0  0  0  0  0  0
   25.6443  -20.2729   -8.7210 C   0  0  0  0  0  0  0  0  0  0  0  0
   25.7167  -19.6898   -7.5111 N   0  0  0  0  0  0  0  0  0  0  0  0
   26.9869  -19.7270   -7.0602 C   0  0  0  0  0  0  0  0  0  0  0  0
   27.6086  -19.2949   -5.9287 C   0  0  0  0  0  0  0  0  0  0  0  0
   28.9586  -19.4779   -5.7401 C   0  0  0  0  0  0  0  0  0  0  0  0
   29.7400  -20.1070   -6.6895 C   0  0  0  0  0  0  0  0  0  0  0  0
   29.1002  -20.5431   -7.8367 C   0  0  0  0  0  0  0  0  0  0  0  0
   27.7428  -20.3669   -8.0423 C   0  0  0  0  0  0  0  0  0  0  0  0
   24.8966  -21.2413  -10.4986 C   0  0  0  0  0  0  0  0  0  0  0  0
   24.4333  -21.6432   -9.4175 O   0  0  0  0  0  0  0  0  0  0  0  0
   24.2438  -20.1954  -11.1276 O   0  0  0  0  0  0  0  0  0  0  0  0
  2  1  1  6
  2  6  1  0
  3  2  1  0
  4  8  1  0
  4  3  1  0
  5  4  2  0
  6  7  2  0
  9  6  1  0
  9 13  1  0
 10  9  1  0
 11 10  1  0
 11 12  1  0
 12 13  1  0
 13 14  1  1
 14 15  2  0
 16 14  1  0
 17 16  1  0
 17 28  1  0
 17 18  1  1
 19 18  1  0
 20 19  2  0
 21 22  1  0
 21 20  1  0
 22 27  2  0
 23 24  2  0
 23 22  1  0
 24 25  1  0
 25 26  2  0
 27 26  1  0
 27 19  1  0
 28 29  2  0
 28 30  1  0
M  END
$$$$
