DPW.pdb
     RDKit          3D

 30 32  0  0  1  0  0  0  0  0999 V2000
   27.8301  -22.4599  -17.2535 N   0  0  0  0  0  0  0  0  0  0  0  0
   26.9968  -21.4875  -16.6127 C   0  0  1  0  0  0  0  0  0  0  0  0
   25.5748  -21.9907  -16.6168 C   0  0  0  0  0  0  0  0  0  0  0  0
   25.0099  -21.8268  -17.9655 C   0  0  0  0  0  0  0  0  0  0  0  0
   24.7066  -20.6965  -18.4002 O   0  0  0  0  0  0  0  0  0  0  0  0
   27.4470  -21.1558  -15.2385 C   0  0  0  0  0  0  0  0  0  0  0  0
   28.2553  -22.0061  -14.7321 O   0  0  0  0  0  0  0  0  0  0  0  0
   24.8111  -22.9306  -18.7628 O   0  0  0  0  0  0  0  0  0  0  0  0
   27.0533  -20.0177  -14.5022 N   0  0  0  0  0  0  0  0  0  0  0  0
   26.1064  -18.9829  -14.8263 C   0  0  0  0  0  0  0  0  0  0  0  0
   26.4551  -17.7785  -13.9480 C   0  0  0  0  0  0  0  0  0  0  0  0
   27.8283  -18.1834  -13.3907 C   0  0  0  0  0  0  0  0  0  0  0  0
   27.5685  -19.6636  -13.1985 C   0  0  1  0  0  0  0  0  0  0  0  0
   26.5193  -19.8229  -12.1427 C   0  0  0  0  0  0  0  0  0  0  0  0
   25.2886  -19.6455  -12.3917 O   0  0  0  0  0  0  0  0  0  0  0  0
   26.9091  -20.1828  -10.8250 N   0  0  0  0  0  0  0  0  0  0  0  0
   26.2190  -21.2448  -10.0855 C   0  0  1  0  0  0  0  0  0  0  0  0
   27.1464  -21.5581   -8.9032 C   0  0  0  0  0  0  0  0  0  0  0  0
   27.2489  -20.4175   -7.9787 C   0  0  0  0  0  0  0  0  0  0  0  0
   26.6589  -19.1764   -8.0942 C   0  0  0  0  0  0  0  0  0  0  0  0
   27.0167  -18.4355   -7.0302 N   0  0  0  0  0  0  0  0  0  0  0  0
   27.8227  -19.1538   -6.2223 C   0  0  0  0  0  0  0  0  0  0  0  0
   28.4572  -18.9039   -5.0440 C   0  0  0  0  0  0  0  0  0  0  0  0
   29.2373  -19.8591   -4.4352 C   0  0  0  0  0  0  0  0  0  0  0  0
   29.4098  -21.1109   -4.9927 C   0  0  0  0  0  0  0  0  0  0  0  0
   28.7615  -21.3567   -6.1905 C   0  0  0  0  0  0  0  0  0  0  0  0
   27.9729  -20.4067   -6.8164 C   0  0  0  0  0  0  0  0  0  0  0  0
   24.9510  -20.7163   -9.5225 C   0  0  0  0  0  0  0  0  0  0  0  0
   24.5805  -19.5361   -9.6441 O   0  0  0  0  0  0  0  0  0  0  0  0
   24.1271  -21.5786   -8.8201 O   0  0  0  0  0  0  0  0  0  0  0  0
  2  1  1  1
  2  6  1  0
  3  2  1  0
  4  8  1  0
  4  3  1  0
  5  4  2  0
  6  7  2  0
  9  6  1  0
  9 13  1  0
 10  9  1  0
 11 10  1  0
 11 12  1  0
 12 13  1  0
 13 14  1  1
 14 15  2  0
 16 14  1  0
 17 16  1  0
 17 28  1  0
 17 18  1  1
 19 18  1  0
 20 19  2  0
 21 22  1  0
 21 20  1  0
 22 27  2  0
 23 24  2  0
 23 22  1  0
 24 25  1  0
 25 26  2  0
 27 26  1  0
 27 19  1  0
 28 29  2  0
 28 30  1  0
M  END
$$$$
