DPW.pdb
     RDKit          3D

 30 32  0  0  1  0  0  0  0  0999 V2000
   24.2652  -21.8406  -16.7229 N   0  0  0  0  0  0  0  0  0  0  0  0
   24.8355  -20.7500  -15.9908 C   0  0  1  0  0  0  0  0  0  0  0  0
   23.7226  -19.8421  -15.5296 C   0  0  0  0  0  0  0  0  0  0  0  0
   23.1175  -19.1888  -16.7009 C   0  0  0  0  0  0  0  0  0  0  0  0
   23.8305  -18.6846  -17.5930 O   0  0  0  0  0  0  0  0  0  0  0  0
   25.6752  -21.1947  -14.8514 C   0  0  0  0  0  0  0  0  0  0  0  0
   25.5460  -22.4313  -14.5562 O   0  0  0  0  0  0  0  0  0  0  0  0
   21.7478  -19.1298  -16.8198 O   0  0  0  0  0  0  0  0  0  0  0  0
   26.5580  -20.3733  -14.1176 N   0  0  0  0  0  0  0  0  0  0  0  0
   26.8751  -18.9778  -14.2734 C   0  0  0  0  0  0  0  0  0  0  0  0
   28.2229  -18.7544  -13.5828 C   0  0  0  0  0  0  0  0  0  0  0  0
   28.6956  -20.1963  -13.3429 C   0  0  0  0  0  0  0  0  0  0  0  0
   27.3583  -20.8201  -12.9995 C   0  0  1  0  0  0  0  0  0  0  0  0
   26.8754  -20.2186  -11.7165 C   0  0  0  0  0  0  0  0  0  0  0  0
   26.2651  -19.1073  -11.6876 O   0  0  0  0  0  0  0  0  0  0  0  0
   27.1049  -20.9086  -10.4963 N   0  0  0  0  0  0  0  0  0  0  0  0
   26.0065  -21.5328   -9.7513 C   0  0  1  0  0  0  0  0  0  0  0  0
   26.5914  -21.8091   -8.3593 C   0  0  0  0  0  0  0  0  0  0  0  0
   26.9641  -20.5623   -7.6717 C   0  0  0  0  0  0  0  0  0  0  0  0
   26.7026  -19.2663   -8.0641 C   0  0  0  0  0  0  0  0  0  0  0  0
   27.2217  -18.4317   -7.1460 N   0  0  0  0  0  0  0  0  0  0  0  0
   27.8148  -19.1418   -6.1651 C   0  0  0  0  0  0  0  0  0  0  0  0
   28.4784  -18.8162   -5.0219 C   0  0  0  0  0  0  0  0  0  0  0  0
   28.9897  -19.7856   -4.1909 C   0  0  0  0  0  0  0  0  0  0  0  0
   28.8517  -21.1289   -4.4807 C   0  0  0  0  0  0  0  0  0  0  0  0
   28.1758  -21.4513   -5.6446 C   0  0  0  0  0  0  0  0  0  0  0  0
   27.6552  -20.4883   -6.4917 C   0  0  0  0  0  0  0  0  0  0  0  0
   24.9028  -20.5549   -9.5790 C   0  0  0  0  0  0  0  0  0  0  0  0
   23.8340  -20.8148   -9.0002 O   0  0  0  0  0  0  0  0  0  0  0  0
   25.0629  -19.2780  -10.0885 O   0  0  0  0  0  0  0  0  0  0  0  0
  2  1  1  1
  2  6  1  0
  3  2  1  0
  4  8  1  0
  4  3  1  0
  5  4  2  0
  6  7  2  0
  9  6  1  0
  9 13  1  0
 10  9  1  0
 11 10  1  0
 11 12  1  0
 12 13  1  0
 13 14  1  1
 14 15  2  0
 16 14  1  0
 17 16  1  0
 17 28  1  0
 17 18  1  1
 19 18  1  0
 20 19  2  0
 21 22  1  0
 21 20  1  0
 22 27  2  0
 23 24  2  0
 23 22  1  0
 24 25  1  0
 25 26  2  0
 27 26  1  0
 27 19  1  0
 28 29  2  0
 28 30  1  0
M  END
$$$$
