EWH.pdb
     RDKit          3D

 34 36  0  0  1  0  0  0  0  0999 V2000
   10.0085  -18.5442   20.2720 N   0  0  0  0  0  0  0  0  0  0  0  0
   11.2655  -18.0229   20.8525 C   0  0  1  0  0  0  0  0  0  0  0  0
   11.9344  -17.2207   19.7229 C   0  0  0  0  0  0  0  0  0  0  0  0
   10.9352  -17.2284   18.5582 C   0  0  0  0  0  0  0  0  0  0  0  0
   11.5370  -16.5385   17.4200 C   0  0  0  0  0  0  0  0  0  0  0  0
   10.9208  -15.6507   16.8044 O   0  0  0  0  0  0  0  0  0  0  0  0
   10.9012  -17.1719   21.9811 C   0  0  0  0  0  0  0  0  0  0  0  0
   11.8161  -16.5914   22.6606 O   0  0  0  0  0  0  0  0  0  0  0  0
   12.8129  -16.8769   17.0206 O   0  0  0  0  0  0  0  0  0  0  0  0
    9.5940  -16.9021   22.4279 N   0  0  0  0  0  0  0  0  0  0  0  0
    9.2768  -16.2349   23.6953 C   0  0  1  0  0  0  0  0  0  0  0  0
    7.9936  -15.5512   23.4549 C   0  0  0  0  0  0  0  0  0  0  0  0
    7.2080  -15.0996   24.5825 C   0  0  0  0  0  0  0  0  0  0  0  0
    6.3283  -15.7077   25.4260 C   0  0  0  0  0  0  0  0  0  0  0  0
    5.8661  -14.8303   26.3381 N   0  0  0  0  0  0  0  0  0  0  0  0
    6.4346  -13.6557   26.0994 C   0  0  0  0  0  0  0  0  0  0  0  0
    6.3314  -12.4132   26.7240 C   0  0  0  0  0  0  0  0  0  0  0  0
    7.0398  -11.3126   26.2930 C   0  0  0  0  0  0  0  0  0  0  0  0
    7.8945  -11.4272   25.1960 C   0  0  0  0  0  0  0  0  0  0  0  0
    7.9822  -12.6506   24.5987 C   0  0  0  0  0  0  0  0  0  0  0  0
    7.2647  -13.7701   25.0334 C   0  0  0  0  0  0  0  0  0  0  0  0
    9.2870  -17.2567   24.7642 C   0  0  0  0  0  0  0  0  0  0  0  0
    8.6265  -18.3237   24.5822 O   0  0  0  0  0  0  0  0  0  0  0  0
   10.0069  -17.0664   25.9608 N   0  0  0  0  0  0  0  0  0  0  0  0
   10.1151  -18.0848   27.0113 C   0  0  1  0  0  0  0  0  0  0  0  0
   11.0681  -19.1534   26.6261 C   0  0  0  0  0  0  0  0  0  0  0  0
   10.5598  -20.1831   25.7216 C   0  0  0  0  0  0  0  0  0  0  0  0
    9.2489  -20.2809   25.2892 C   0  0  0  0  0  0  0  0  0  0  0  0
    9.1383  -21.3497   24.4855 N   0  0  0  0  0  0  0  0  0  0  0  0
   10.3668  -21.9212   24.4097 C   0  0  0  0  0  0  0  0  0  0  0  0
   11.2021  -21.1981   25.1633 N   0  0  0  0  0  0  0  0  0  0  0  0
   10.3942  -17.3877   28.2757 C   0  0  0  0  0  0  0  0  0  0  0  0
   10.3845  -18.0384   29.5147 O   0  0  0  0  0  0  0  0  0  0  0  0
   10.6579  -16.1712   28.2955 O   0  0  0  0  0  0  0  0  0  0  0  0
  2  1  1  6
  2  3  1  0
  3  4  1  0
  5  4  1  0
  5  9  1  0
  6  5  2  0
  7  2  1  0
  8  7  2  0
 10  7  1  0
 11 12  1  6
 11 10  1  0
 12 13  1  0
 13 14  2  0
 13 21  1  0
 14 15  1  0
 15 16  1  0
 16 17  2  0
 18 17  1  0
 19 18  2  0
 20 21  2  0
 20 19  1  0
 21 16  1  0
 22 23  2  0
 22 11  1  0
 24 22  1  0
 25 32  1  0
 25 24  1  0
 25 26  1  6
 27 28  2  0
 27 26  1  0
 29 28  1  0
 30 31  2  0
 30 29  1  0
 31 27  1  0
 32 33  1  0
 34 32  2  0
M  END
$$$$
