EWH.pdb
     RDKit          3D

 34 36  0  0  1  0  0  0  0  0999 V2000
    9.8362  -16.5390   18.2147 N   0  0  0  0  0  0  0  0  0  0  0  0
   10.3153  -17.4110   19.3097 C   0  0  1  0  0  0  0  0  0  0  0  0
   11.8035  -17.6608   19.0105 C   0  0  0  0  0  0  0  0  0  0  0  0
   11.8334  -18.5651   17.7711 C   0  0  0  0  0  0  0  0  0  0  0  0
   12.8848  -19.5641   17.9451 C   0  0  0  0  0  0  0  0  0  0  0  0
   13.5649  -19.6103   18.9853 O   0  0  0  0  0  0  0  0  0  0  0  0
   10.1274  -16.6801   20.5592 C   0  0  0  0  0  0  0  0  0  0  0  0
   10.7741  -15.5959   20.7645 O   0  0  0  0  0  0  0  0  0  0  0  0
   13.1275  -20.4741   16.9376 O   0  0  0  0  0  0  0  0  0  0  0  0
    9.2728  -17.0489   21.6150 N   0  0  0  0  0  0  0  0  0  0  0  0
    9.1243  -16.2878   22.8603 C   0  0  1  0  0  0  0  0  0  0  0  0
    7.7052  -15.8920   22.8976 C   0  0  0  0  0  0  0  0  0  0  0  0
    7.1280  -15.4365   24.1435 C   0  0  0  0  0  0  0  0  0  0  0  0
    6.3611  -16.0269   25.1018 C   0  0  0  0  0  0  0  0  0  0  0  0
    6.0908  -15.1550   26.0928 N   0  0  0  0  0  0  0  0  0  0  0  0
    6.6730  -14.0015   25.7920 C   0  0  0  0  0  0  0  0  0  0  0  0
    6.7302  -12.7736   26.4503 C   0  0  0  0  0  0  0  0  0  0  0  0
    7.4169  -11.6951   25.9362 C   0  0  0  0  0  0  0  0  0  0  0  0
    8.0837  -11.8181   24.7166 C   0  0  0  0  0  0  0  0  0  0  0  0
    8.0164  -13.0271   24.0881 C   0  0  0  0  0  0  0  0  0  0  0  0
    7.3203  -14.1241   24.6069 C   0  0  0  0  0  0  0  0  0  0  0  0
    9.5995  -17.1368   23.9738 C   0  0  0  0  0  0  0  0  0  0  0  0
    8.8138  -18.0190   24.4347 O   0  0  0  0  0  0  0  0  0  0  0  0
   10.8892  -16.9836   24.5210 N   0  0  0  0  0  0  0  0  0  0  0  0
   11.1378  -16.6643   25.9312 C   0  0  1  0  0  0  0  0  0  0  0  0
   10.5513  -15.3522   26.2955 C   0  0  0  0  0  0  0  0  0  0  0  0
   10.7802  -14.8952   27.6649 C   0  0  0  0  0  0  0  0  0  0  0  0
   11.4200  -15.6288   28.6485 C   0  0  0  0  0  0  0  0  0  0  0  0
   11.4376  -14.9091   29.7809 N   0  0  0  0  0  0  0  0  0  0  0  0
   10.8162  -13.7322   29.5158 C   0  0  0  0  0  0  0  0  0  0  0  0
   10.4311  -13.7518   28.2352 N   0  0  0  0  0  0  0  0  0  0  0  0
   10.6988  -17.8185   26.7297 C   0  0  0  0  0  0  0  0  0  0  0  0
   10.2728  -19.0192   26.1504 O   0  0  0  0  0  0  0  0  0  0  0  0
   10.6912  -17.7751   27.9738 O   0  0  0  0  0  0  0  0  0  0  0  0
  2  1  1  6
  2  3  1  0
  3  4  1  0
  5  4  1  0
  5  9  1  0
  6  5  2  0
  7  2  1  0
  8  7  2  0
 10  7  1  0
 11 12  1  1
 11 10  1  0
 12 13  1  0
 13 14  2  0
 13 21  1  0
 14 15  1  0
 15 16  1  0
 16 17  2  0
 18 17  1  0
 19 18  2  0
 20 21  2  0
 20 19  1  0
 21 16  1  0
 22 23  2  0
 22 11  1  0
 24 22  1  0
 25 32  1  0
 25 24  1  0
 25 26  1  1
 27 28  2  0
 27 26  1  0
 29 28  1  0
 30 31  2  0
 30 29  1  0
 31 27  1  0
 32 33  1  0
 34 32  2  0
M  END
$$$$
