EWH.pdb
     RDKit          3D

 34 36  0  0  1  0  0  0  0  0999 V2000
    9.1535  -18.3759   19.2773 N   0  0  0  0  0  0  0  0  0  0  0  0
   10.0718  -17.2173   19.2214 C   0  0  1  0  0  0  0  0  0  0  0  0
    9.6843  -16.4512   17.9448 C   0  0  0  0  0  0  0  0  0  0  0  0
    9.5969  -17.5075   16.8352 C   0  0  0  0  0  0  0  0  0  0  0  0
    9.4717  -16.8267   15.5489 C   0  0  0  0  0  0  0  0  0  0  0  0
    8.9624  -17.3935   14.5659 O   0  0  0  0  0  0  0  0  0  0  0  0
    9.8400  -16.4225   20.4236 C   0  0  0  0  0  0  0  0  0  0  0  0
   10.4974  -15.3408   20.6068 O   0  0  0  0  0  0  0  0  0  0  0  0
    9.9255  -15.5306   15.4218 O   0  0  0  0  0  0  0  0  0  0  0  0
    8.9297  -16.7239   21.4540 N   0  0  0  0  0  0  0  0  0  0  0  0
    9.0145  -16.1813   22.8143 C   0  0  1  0  0  0  0  0  0  0  0  0
    7.7428  -16.5604   23.4554 C   0  0  0  0  0  0  0  0  0  0  0  0
    7.2250  -15.7521   24.5376 C   0  0  0  0  0  0  0  0  0  0  0  0
    6.6344  -16.0368   25.7314 C   0  0  0  0  0  0  0  0  0  0  0  0
    6.3403  -14.9015   26.3947 N   0  0  0  0  0  0  0  0  0  0  0  0
    6.7325  -13.8784   25.6469 C   0  0  0  0  0  0  0  0  0  0  0  0
    6.6836  -12.4977   25.8364 C   0  0  0  0  0  0  0  0  0  0  0  0
    7.1696  -11.6096   24.9015 C   0  0  0  0  0  0  0  0  0  0  0  0
    7.7335  -12.0906   23.7193 C   0  0  0  0  0  0  0  0  0  0  0  0
    7.7727  -13.4441   23.5524 C   0  0  0  0  0  0  0  0  0  0  0  0
    7.2803  -14.3487   24.4992 C   0  0  0  0  0  0  0  0  0  0  0  0
   10.2477  -16.7063   23.4391 C   0  0  0  0  0  0  0  0  0  0  0  0
   10.8169  -17.7033   22.9008 O   0  0  0  0  0  0  0  0  0  0  0  0
   10.7906  -16.1257   24.6030 N   0  0  0  0  0  0  0  0  0  0  0  0
   11.0989  -16.8863   25.8191 C   0  0  1  0  0  0  0  0  0  0  0  0
   10.0112  -16.7625   26.8192 C   0  0  0  0  0  0  0  0  0  0  0  0
    9.9539  -15.5071   27.5657 C   0  0  0  0  0  0  0  0  0  0  0  0
   10.9001  -14.4998   27.4957 C   0  0  0  0  0  0  0  0  0  0  0  0
   10.5360  -13.5076   28.3225 N   0  0  0  0  0  0  0  0  0  0  0  0
    9.3711  -13.8833   28.9084 C   0  0  0  0  0  0  0  0  0  0  0  0
    9.0448  -15.0905   28.4342 N   0  0  0  0  0  0  0  0  0  0  0  0
   11.4534  -18.2529   25.4078 C   0  0  0  0  0  0  0  0  0  0  0  0
   12.6589  -18.8626   25.7733 O   0  0  0  0  0  0  0  0  0  0  0  0
   10.6817  -18.9355   24.7090 O   0  0  0  0  0  0  0  0  0  0  0  0
  2  1  1  1
  2  3  1  0
  3  4  1  0
  5  4  1  0
  5  9  1  0
  6  5  2  0
  7  2  1  0
  8  7  2  0
 10  7  1  0
 11 12  1  1
 11 10  1  0
 12 13  1  0
 13 14  2  0
 13 21  1  0
 14 15  1  0
 15 16  1  0
 16 17  2  0
 18 17  1  0
 19 18  2  0
 20 21  2  0
 20 19  1  0
 21 16  1  0
 22 23  2  0
 22 11  1  0
 24 22  1  0
 25 32  1  0
 25 24  1  0
 25 26  1  1
 27 28  2  0
 27 26  1  0
 29 28  1  0
 30 31  2  0
 30 29  1  0
 31 27  1  0
 32 33  1  0
 34 32  2  0
M  END
$$$$
