EWH.pdb
     RDKit          3D

 34 36  0  0  1  0  0  0  0  0999 V2000
   10.1489  -15.8848   18.0132 N   0  0  0  0  0  0  0  0  0  0  0  0
    9.6213  -16.8514   19.0012 C   0  0  1  0  0  0  0  0  0  0  0  0
   10.6047  -18.0343   18.9796 C   0  0  0  0  0  0  0  0  0  0  0  0
   10.5554  -18.5913   17.5505 C   0  0  0  0  0  0  0  0  0  0  0  0
   11.2294  -19.8870   17.5291 C   0  0  0  0  0  0  0  0  0  0  0  0
   11.4785  -20.4669   16.4574 O   0  0  0  0  0  0  0  0  0  0  0  0
    9.6063  -16.1809   20.2977 C   0  0  0  0  0  0  0  0  0  0  0  0
   10.6274  -15.5116   20.6788 O   0  0  0  0  0  0  0  0  0  0  0  0
   11.5976  -20.4785   18.7193 O   0  0  0  0  0  0  0  0  0  0  0  0
    8.5439  -16.1851   21.2210 N   0  0  0  0  0  0  0  0  0  0  0  0
    8.6329  -15.6479   22.5832 C   0  0  1  0  0  0  0  0  0  0  0  0
    7.2441  -15.3261   22.9569 C   0  0  0  0  0  0  0  0  0  0  0  0
    6.9329  -15.0215   24.3365 C   0  0  0  0  0  0  0  0  0  0  0  0
    6.4838  -15.7596   25.3895 C   0  0  0  0  0  0  0  0  0  0  0  0
    6.3632  -14.9890   26.4881 N   0  0  0  0  0  0  0  0  0  0  0  0
    6.7287  -13.7556   26.1639 C   0  0  0  0  0  0  0  0  0  0  0  0
    6.8068  -12.5715   26.8962 C   0  0  0  0  0  0  0  0  0  0  0  0
    7.2308  -11.3865   26.3348 C   0  0  0  0  0  0  0  0  0  0  0  0
    7.5986  -11.3521   24.9893 C   0  0  0  0  0  0  0  0  0  0  0  0
    7.5159  -12.5205   24.2899 C   0  0  0  0  0  0  0  0  0  0  0  0
    7.0860  -13.7252   24.8562 C   0  0  0  0  0  0  0  0  0  0  0  0
    9.3250  -16.6481   23.4242 C   0  0  0  0  0  0  0  0  0  0  0  0
    9.0438  -17.8730   23.2557 O   0  0  0  0  0  0  0  0  0  0  0  0
   10.2755  -16.2677   24.3927 N   0  0  0  0  0  0  0  0  0  0  0  0
   11.0477  -17.2272   25.1899 C   0  0  1  0  0  0  0  0  0  0  0  0
   12.5019  -17.0872   24.9367 C   0  0  0  0  0  0  0  0  0  0  0  0
   13.3834  -17.9640   25.7054 C   0  0  0  0  0  0  0  0  0  0  0  0
   12.9588  -19.0112   26.5043 C   0  0  0  0  0  0  0  0  0  0  0  0
   14.0320  -19.5857   27.0689 N   0  0  0  0  0  0  0  0  0  0  0  0
   15.1238  -18.9094   26.6308 C   0  0  0  0  0  0  0  0  0  0  0  0
   14.7033  -17.9392   25.8120 N   0  0  0  0  0  0  0  0  0  0  0  0
   10.6137  -17.0905   26.5883 C   0  0  0  0  0  0  0  0  0  0  0  0
   11.0636  -17.9405   27.6050 O   0  0  0  0  0  0  0  0  0  0  0  0
    9.8179  -16.1966   26.9309 O   0  0  0  0  0  0  0  0  0  0  0  0
  2  1  1  6
  2  3  1  0
  3  4  1  0
  5  4  1  0
  5  9  1  0
  6  5  2  0
  7  2  1  0
  8  7  2  0
 10  7  1  0
 11 12  1  1
 11 10  1  0
 12 13  1  0
 13 14  2  0
 13 21  1  0
 14 15  1  0
 15 16  1  0
 16 17  2  0
 18 17  1  0
 19 18  2  0
 20 21  2  0
 20 19  1  0
 21 16  1  0
 22 23  2  0
 22 11  1  0
 24 22  1  0
 25 32  1  0
 25 24  1  0
 25 26  1  1
 27 28  2  0
 27 26  1  0
 29 28  1  0
 30 31  2  0
 30 29  1  0
 31 27  1  0
 32 33  1  0
 34 32  2  0
M  END
$$$$
