EWH.pdb
     RDKit          3D

 34 36  0  0  1  0  0  0  0  0999 V2000
    9.7898  -15.9611   19.9572 N   0  0  0  0  0  0  0  0  0  0  0  0
   10.2585  -17.0681   20.8196 C   0  0  1  0  0  0  0  0  0  0  0  0
   11.6690  -17.4123   20.3108 C   0  0  0  0  0  0  0  0  0  0  0  0
   11.4786  -17.9482   18.8855 C   0  0  0  0  0  0  0  0  0  0  0  0
   12.7719  -18.3997   18.3781 C   0  0  0  0  0  0  0  0  0  0  0  0
   13.7368  -18.5808   19.1416 O   0  0  0  0  0  0  0  0  0  0  0  0
   10.2824  -16.5686   22.1910 C   0  0  0  0  0  0  0  0  0  0  0  0
   11.0304  -15.5761   22.4927 O   0  0  0  0  0  0  0  0  0  0  0  0
   12.9259  -18.6308   17.0272 O   0  0  0  0  0  0  0  0  0  0  0  0
    9.5385  -17.0779   23.2719 N   0  0  0  0  0  0  0  0  0  0  0  0
    9.5609  -16.5151   24.6265 C   0  0  1  0  0  0  0  0  0  0  0  0
    8.1518  -16.2155   24.9376 C   0  0  0  0  0  0  0  0  0  0  0  0
    7.5645  -14.9850   24.4542 C   0  0  0  0  0  0  0  0  0  0  0  0
    7.0722  -14.5816   23.2500 C   0  0  0  0  0  0  0  0  0  0  0  0
    6.6195  -13.3149   23.3261 N   0  0  0  0  0  0  0  0  0  0  0  0
    6.8108  -12.8867   24.5670 C   0  0  0  0  0  0  0  0  0  0  0  0
    6.5303  -11.6770   25.2015 C   0  0  0  0  0  0  0  0  0  0  0  0
    6.8198  -11.4599   26.5312 C   0  0  0  0  0  0  0  0  0  0  0  0
    7.4136  -12.4739   27.2836 C   0  0  0  0  0  0  0  0  0  0  0  0
    7.6798  -13.6499   26.6454 C   0  0  0  0  0  0  0  0  0  0  0  0
    7.3874  -13.8741   25.2959 C   0  0  0  0  0  0  0  0  0  0  0  0
   10.2378  -17.4859   25.5131 C   0  0  0  0  0  0  0  0  0  0  0  0
   10.4724  -18.6483   25.0639 O   0  0  0  0  0  0  0  0  0  0  0  0
   10.6196  -17.1451   26.8262 N   0  0  0  0  0  0  0  0  0  0  0  0
   11.3029  -18.0706   27.7367 C   0  0  1  0  0  0  0  0  0  0  0  0
   12.4055  -17.3940   28.4612 C   0  0  0  0  0  0  0  0  0  0  0  0
   13.0165  -18.1403   29.5595 C   0  0  0  0  0  0  0  0  0  0  0  0
   12.3235  -18.7053   30.6156 C   0  0  0  0  0  0  0  0  0  0  0  0
   13.2012  -19.2966   31.4406 N   0  0  0  0  0  0  0  0  0  0  0  0
   14.4363  -19.1084   30.9110 C   0  0  0  0  0  0  0  0  0  0  0  0
   14.2946  -18.4096   29.7795 N   0  0  0  0  0  0  0  0  0  0  0  0
   10.2741  -18.7126   28.5685 C   0  0  0  0  0  0  0  0  0  0  0  0
   10.5089  -19.8930   29.2828 O   0  0  0  0  0  0  0  0  0  0  0  0
    9.1347  -18.2226   28.6756 O   0  0  0  0  0  0  0  0  0  0  0  0
  2  1  1  6
  2  3  1  0
  3  4  1  0
  5  4  1  0
  5  9  1  0
  6  5  2  0
  7  2  1  0
  8  7  2  0
 10  7  1  0
 11 12  1  1
 11 10  1  0
 12 13  1  0
 13 14  2  0
 13 21  1  0
 14 15  1  0
 15 16  1  0
 16 17  2  0
 18 17  1  0
 19 18  2  0
 20 21  2  0
 20 19  1  0
 21 16  1  0
 22 23  2  0
 22 11  1  0
 24 22  1  0
 25 32  1  0
 25 24  1  0
 25 26  1  1
 27 28  2  0
 27 26  1  0
 29 28  1  0
 30 31  2  0
 30 29  1  0
 31 27  1  0
 32 33  1  0
 34 32  2  0
M  END
$$$$
