EWH.pdb
     RDKit          3D

 34 36  0  0  1  0  0  0  0  0999 V2000
    7.4219  -15.5890   20.1256 N   0  0  0  0  0  0  0  0  0  0  0  0
    8.6268  -16.4334   20.2814 C   0  0  1  0  0  0  0  0  0  0  0  0
    9.5853  -15.9862   19.1643 C   0  0  0  0  0  0  0  0  0  0  0  0
   10.3058  -17.2587   18.6991 C   0  0  0  0  0  0  0  0  0  0  0  0
    9.7067  -17.7040   17.4435 C   0  0  0  0  0  0  0  0  0  0  0  0
    8.9618  -16.9578   16.7839 O   0  0  0  0  0  0  0  0  0  0  0  0
    9.1750  -16.1653   21.6074 C   0  0  0  0  0  0  0  0  0  0  0  0
   10.1209  -15.3154   21.7440 O   0  0  0  0  0  0  0  0  0  0  0  0
    9.9727  -18.9753   16.9798 O   0  0  0  0  0  0  0  0  0  0  0  0
    8.7602  -16.7630   22.8124 N   0  0  0  0  0  0  0  0  0  0  0  0
    9.3224  -16.4416   24.1287 C   0  0  1  0  0  0  0  0  0  0  0  0
    8.1567  -16.3296   25.0234 C   0  0  0  0  0  0  0  0  0  0  0  0
    7.2194  -15.2438   24.8352 C   0  0  0  0  0  0  0  0  0  0  0  0
    6.0874  -15.0899   24.0936 C   0  0  0  0  0  0  0  0  0  0  0  0
    5.5648  -13.8622   24.2800 N   0  0  0  0  0  0  0  0  0  0  0  0
    6.3433  -13.2126   25.1355 C   0  0  0  0  0  0  0  0  0  0  0  0
    6.2797  -11.9321   25.6841 C   0  0  0  0  0  0  0  0  0  0  0  0
    7.2201  -11.4679   26.5781 C   0  0  0  0  0  0  0  0  0  0  0  0
    8.2785  -12.2937   26.9587 C   0  0  0  0  0  0  0  0  0  0  0  0
    8.3231  -13.5427   26.4116 C   0  0  0  0  0  0  0  0  0  0  0  0
    7.3704  -14.0174   25.5039 C   0  0  0  0  0  0  0  0  0  0  0  0
   10.3141  -17.4846   24.4687 C   0  0  0  0  0  0  0  0  0  0  0  0
    9.9450  -18.6974   24.4393 O   0  0  0  0  0  0  0  0  0  0  0  0
   11.6395  -17.1572   24.8184 N   0  0  0  0  0  0  0  0  0  0  0  0
   12.6146  -18.1395   25.3051 C   0  0  1  0  0  0  0  0  0  0  0  0
   13.9999  -17.7322   24.9683 C   0  0  0  0  0  0  0  0  0  0  0  0
   14.2700  -17.4472   23.5602 C   0  0  0  0  0  0  0  0  0  0  0  0
   13.5015  -17.8946   22.4999 C   0  0  0  0  0  0  0  0  0  0  0  0
   14.0501  -17.4587   21.3555 N   0  0  0  0  0  0  0  0  0  0  0  0
   15.1533  -16.7424   21.6888 C   0  0  0  0  0  0  0  0  0  0  0  0
   15.2608  -16.7525   23.0219 N   0  0  0  0  0  0  0  0  0  0  0  0
   12.3325  -18.3742   26.7291 C   0  0  0  0  0  0  0  0  0  0  0  0
   11.2911  -17.7317   27.4083 O   0  0  0  0  0  0  0  0  0  0  0  0
   13.0175  -19.1693   27.3986 O   0  0  0  0  0  0  0  0  0  0  0  0
  2  1  1  6
  2  3  1  0
  3  4  1  0
  5  4  1  0
  5  9  1  0
  6  5  2  0
  7  2  1  0
  8  7  2  0
 10  7  1  0
 11 12  1  1
 11 10  1  0
 12 13  1  0
 13 14  2  0
 13 21  1  0
 14 15  1  0
 15 16  1  0
 16 17  2  0
 18 17  1  0
 19 18  2  0
 20 21  2  0
 20 19  1  0
 21 16  1  0
 22 23  2  0
 22 11  1  0
 24 22  1  0
 25 32  1  0
 25 24  1  0
 25 26  1  1
 27 28  2  0
 27 26  1  0
 29 28  1  0
 30 31  2  0
 30 29  1  0
 31 27  1  0
 32 33  1  0
 34 32  2  0
M  END
$$$$
