EWH.pdb
     RDKit          3D

 34 36  0  0  1  0  0  0  0  0999 V2000
   10.6020  -16.9793   18.7898 N   0  0  0  0  0  0  0  0  0  0  0  0
   11.0817  -17.6728   20.0054 C   0  0  1  0  0  0  0  0  0  0  0  0
   12.6025  -17.8138   19.8211 C   0  0  0  0  0  0  0  0  0  0  0  0
   12.8620  -19.3144   19.6320 C   0  0  0  0  0  0  0  0  0  0  0  0
   13.1964  -19.5592   18.2313 C   0  0  0  0  0  0  0  0  0  0  0  0
   12.3095  -19.6741   17.3669 O   0  0  0  0  0  0  0  0  0  0  0  0
   10.7489  -16.8260   21.1469 C   0  0  0  0  0  0  0  0  0  0  0  0
   11.5504  -15.8948   21.5024 O   0  0  0  0  0  0  0  0  0  0  0  0
   14.5203  -19.6638   17.8596 O   0  0  0  0  0  0  0  0  0  0  0  0
    9.5891  -16.9201   21.9389 N   0  0  0  0  0  0  0  0  0  0  0  0
    9.2636  -16.0036   23.0371 C   0  0  1  0  0  0  0  0  0  0  0  0
    7.8208  -15.7384   22.8966 C   0  0  0  0  0  0  0  0  0  0  0  0
    7.3338  -14.3814   23.0151 C   0  0  0  0  0  0  0  0  0  0  0  0
    7.0221  -13.4069   22.1160 C   0  0  0  0  0  0  0  0  0  0  0  0
    6.5918  -12.2993   22.7511 N   0  0  0  0  0  0  0  0  0  0  0  0
    6.6192  -12.5399   24.0554 C   0  0  0  0  0  0  0  0  0  0  0  0
    6.2809  -11.7659   25.1649 C   0  0  0  0  0  0  0  0  0  0  0  0
    6.3885  -12.2419   26.4537 C   0  0  0  0  0  0  0  0  0  0  0  0
    6.8494  -13.5402   26.6746 C   0  0  0  0  0  0  0  0  0  0  0  0
    7.1748  -14.2819   25.5767 C   0  0  0  0  0  0  0  0  0  0  0  0
    7.0670  -13.8022   24.2670 C   0  0  0  0  0  0  0  0  0  0  0  0
    9.6957  -16.6354   24.3023 C   0  0  0  0  0  0  0  0  0  0  0  0
    9.6016  -17.8955   24.4078 O   0  0  0  0  0  0  0  0  0  0  0  0
   10.2017  -15.8722   25.3736 N   0  0  0  0  0  0  0  0  0  0  0  0
   10.6926  -16.4594   26.6253 C   0  0  1  0  0  0  0  0  0  0  0  0
   11.3509  -15.4380   27.4749 C   0  0  0  0  0  0  0  0  0  0  0  0
   11.6772  -15.8410   28.8416 C   0  0  0  0  0  0  0  0  0  0  0  0
   10.8058  -15.7806   29.9149 C   0  0  0  0  0  0  0  0  0  0  0  0
   11.4438  -16.2124   31.0135 N   0  0  0  0  0  0  0  0  0  0  0  0
   12.7052  -16.5434   30.6385 C   0  0  0  0  0  0  0  0  0  0  0  0
   12.8172  -16.3096   29.3265 N   0  0  0  0  0  0  0  0  0  0  0  0
    9.5750  -17.1938   27.2371 C   0  0  0  0  0  0  0  0  0  0  0  0
    9.7592  -18.3602   27.9882 O   0  0  0  0  0  0  0  0  0  0  0  0
    8.4007  -16.7997   27.1124 O   0  0  0  0  0  0  0  0  0  0  0  0
  2  1  1  6
  2  3  1  0
  3  4  1  0
  5  4  1  0
  5  9  1  0
  6  5  2  0
  7  2  1  0
  8  7  2  0
 10  7  1  0
 11 12  1  1
 11 10  1  0
 12 13  1  0
 13 14  2  0
 13 21  1  0
 14 15  1  0
 15 16  1  0
 16 17  2  0
 18 17  1  0
 19 18  2  0
 20 21  2  0
 20 19  1  0
 21 16  1  0
 22 23  2  0
 22 11  1  0
 24 22  1  0
 25 32  1  0
 25 24  1  0
 25 26  1  1
 27 28  2  0
 27 26  1  0
 29 28  1  0
 30 31  2  0
 30 29  1  0
 31 27  1  0
 32 33  1  0
 34 32  2  0
M  END
$$$$
