EWH.pdb
     RDKit          3D

 34 36  0  0  1  0  0  0  0  0999 V2000
   11.2162  -15.7366   18.7586 N   0  0  0  0  0  0  0  0  0  0  0  0
   10.2425  -16.5966   19.4666 C   0  0  1  0  0  0  0  0  0  0  0  0
   10.8505  -18.0095   19.4384 C   0  0  0  0  0  0  0  0  0  0  0  0
   11.6402  -18.0973   18.1255 C   0  0  0  0  0  0  0  0  0  0  0  0
   12.1554  -19.4562   17.9786 C   0  0  0  0  0  0  0  0  0  0  0  0
   13.3105  -19.7501   18.3338 O   0  0  0  0  0  0  0  0  0  0  0  0
   10.1217  -16.0842   20.8281 C   0  0  0  0  0  0  0  0  0  0  0  0
   11.1424  -15.5780   21.4094 O   0  0  0  0  0  0  0  0  0  0  0  0
   11.3458  -20.4324   17.4368 O   0  0  0  0  0  0  0  0  0  0  0  0
    8.9528  -16.0813   21.6122 N   0  0  0  0  0  0  0  0  0  0  0  0
    8.8871  -15.5899   22.9928 C   0  0  1  0  0  0  0  0  0  0  0  0
    7.4695  -15.2495   23.2086 C   0  0  0  0  0  0  0  0  0  0  0  0
    7.0179  -14.9002   24.5378 C   0  0  0  0  0  0  0  0  0  0  0  0
    6.4410  -15.5992   25.5545 C   0  0  0  0  0  0  0  0  0  0  0  0
    6.2198  -14.7958   26.6132 N   0  0  0  0  0  0  0  0  0  0  0  0
    6.6461  -13.5795   26.2989 C   0  0  0  0  0  0  0  0  0  0  0  0
    6.6715  -12.3770   27.0046 C   0  0  0  0  0  0  0  0  0  0  0  0
    7.1805  -11.2170   26.4621 C   0  0  0  0  0  0  0  0  0  0  0  0
    7.6924  -11.2277   25.1641 C   0  0  0  0  0  0  0  0  0  0  0  0
    7.6592  -12.4134   24.4903 C   0  0  0  0  0  0  0  0  0  0  0  0
    7.1433  -13.5930   25.0375 C   0  0  0  0  0  0  0  0  0  0  0  0
    9.4547  -16.6314   23.8758 C   0  0  0  0  0  0  0  0  0  0  0  0
    9.3625  -17.8429   23.5127 O   0  0  0  0  0  0  0  0  0  0  0  0
   10.0856  -16.3043   25.0928 N   0  0  0  0  0  0  0  0  0  0  0  0
   10.7760  -17.2861   25.9366 C   0  0  1  0  0  0  0  0  0  0  0  0
   12.2416  -17.2472   25.7152 C   0  0  0  0  0  0  0  0  0  0  0  0
   12.7428  -17.9728   24.5496 C   0  0  0  0  0  0  0  0  0  0  0  0
   11.9603  -18.7108   23.6790 C   0  0  0  0  0  0  0  0  0  0  0  0
   12.7517  -19.2504   22.7392 N   0  0  0  0  0  0  0  0  0  0  0  0
   14.0212  -18.8567   23.0121 C   0  0  0  0  0  0  0  0  0  0  0  0
   13.9857  -18.0891   24.1067 N   0  0  0  0  0  0  0  0  0  0  0  0
   10.3201  -17.0789   27.3192 C   0  0  0  0  0  0  0  0  0  0  0  0
   10.6353  -17.9617   28.3584 O   0  0  0  0  0  0  0  0  0  0  0  0
    9.6266  -16.0921   27.6274 O   0  0  0  0  0  0  0  0  0  0  0  0
  2  1  1  6
  2  3  1  0
  3  4  1  0
  5  4  1  0
  5  9  1  0
  6  5  2  0
  7  2  1  0
  8  7  2  0
 10  7  1  0
 11 12  1  1
 11 10  1  0
 12 13  1  0
 13 14  2  0
 13 21  1  0
 14 15  1  0
 15 16  1  0
 16 17  2  0
 18 17  1  0
 19 18  2  0
 20 21  2  0
 20 19  1  0
 21 16  1  0
 22 23  2  0
 22 11  1  0
 24 22  1  0
 25 32  1  0
 25 24  1  0
 25 26  1  1
 27 28  2  0
 27 26  1  0
 29 28  1  0
 30 31  2  0
 30 29  1  0
 31 27  1  0
 32 33  1  0
 34 32  2  0
M  END
$$$$
