EWH.pdb
     RDKit          3D

 34 36  0  0  1  0  0  0  0  0999 V2000
    7.1991  -18.0179   18.2460 N   0  0  0  0  0  0  0  0  0  0  0  0
    6.7295  -18.2791   19.6244 C   0  0  1  0  0  0  0  0  0  0  0  0
    6.9572  -19.7831   19.8546 C   0  0  0  0  0  0  0  0  0  0  0  0
    6.5724  -20.0439   21.3170 C   0  0  0  0  0  0  0  0  0  0  0  0
    6.7761  -21.4604   21.6097 C   0  0  0  0  0  0  0  0  0  0  0  0
    5.8326  -22.1872   21.9680 O   0  0  0  0  0  0  0  0  0  0  0  0
    7.5424  -17.4630   20.5209 C   0  0  0  0  0  0  0  0  0  0  0  0
    8.8025  -17.3662   20.3247 O   0  0  0  0  0  0  0  0  0  0  0  0
    8.0380  -22.0028   21.4855 O   0  0  0  0  0  0  0  0  0  0  0  0
    7.0752  -16.7330   21.6300 N   0  0  0  0  0  0  0  0  0  0  0  0
    7.9208  -15.8781   22.4703 C   0  0  1  0  0  0  0  0  0  0  0  0
    7.0573  -14.7467   22.8527 C   0  0  0  0  0  0  0  0  0  0  0  0
    7.6047  -13.6768   23.6580 C   0  0  0  0  0  0  0  0  0  0  0  0
    8.5815  -12.7487   23.4593 C   0  0  0  0  0  0  0  0  0  0  0  0
    8.7026  -11.9528   24.5396 N   0  0  0  0  0  0  0  0  0  0  0  0
    7.8153  -12.3511   25.4418 C   0  0  0  0  0  0  0  0  0  0  0  0
    7.4989  -11.8930   26.7203 C   0  0  0  0  0  0  0  0  0  0  0  0
    6.5116  -12.4742   27.4861 C   0  0  0  0  0  0  0  0  0  0  0  0
    5.7937  -13.5588   26.9808 C   0  0  0  0  0  0  0  0  0  0  0  0
    6.1175  -13.9921   25.7283 C   0  0  0  0  0  0  0  0  0  0  0  0
    7.1190  -13.4046   24.9480 C   0  0  0  0  0  0  0  0  0  0  0  0
    8.4494  -16.7048   23.5766 C   0  0  0  0  0  0  0  0  0  0  0  0
    7.6771  -17.5553   24.1135 O   0  0  0  0  0  0  0  0  0  0  0  0
    9.7746  -16.5647   24.0352 N   0  0  0  0  0  0  0  0  0  0  0  0
   10.3949  -17.4709   25.0080 C   0  0  1  0  0  0  0  0  0  0  0  0
   11.6677  -18.0260   24.4881 C   0  0  0  0  0  0  0  0  0  0  0  0
   12.4186  -18.8916   25.3956 C   0  0  0  0  0  0  0  0  0  0  0  0
   13.2309  -18.4469   26.4238 C   0  0  0  0  0  0  0  0  0  0  0  0
   13.7721  -19.5107   27.0370 N   0  0  0  0  0  0  0  0  0  0  0  0
   13.3060  -20.6166   26.4037 C   0  0  0  0  0  0  0  0  0  0  0  0
   12.4939  -20.2137   25.4204 N   0  0  0  0  0  0  0  0  0  0  0  0
   10.4715  -16.7567   26.2912 C   0  0  0  0  0  0  0  0  0  0  0  0
   10.4767  -17.4183   27.5244 O   0  0  0  0  0  0  0  0  0  0  0  0
   10.5391  -15.5143   26.3334 O   0  0  0  0  0  0  0  0  0  0  0  0
  2  1  1  6
  2  3  1  0
  3  4  1  0
  5  4  1  0
  5  9  1  0
  6  5  2  0
  7  2  1  0
  8  7  2  0
 10  7  1  0
 11 12  1  1
 11 10  1  0
 12 13  1  0
 13 14  2  0
 13 21  1  0
 14 15  1  0
 15 16  1  0
 16 17  2  0
 18 17  1  0
 19 18  2  0
 20 21  2  0
 20 19  1  0
 21 16  1  0
 22 23  2  0
 22 11  1  0
 24 22  1  0
 25 32  1  0
 25 24  1  0
 25 26  1  6
 27 28  2  0
 27 26  1  0
 29 28  1  0
 30 31  2  0
 30 29  1  0
 31 27  1  0
 32 33  1  0
 34 32  2  0
M  END
$$$$
