PYC.pdb
     RDKit          3D

 26 27  0  0  1  0  0  0  0  0999 V2000
   27.7687  -21.3661  -15.6844 N   0  0  0  0  0  0  0  0  0  0  0  0
   28.4796  -21.4074  -16.9530 C   0  0  0  0  0  0  0  0  0  0  0  0
   28.9140  -20.0098  -17.2645 C   0  0  0  0  0  0  0  0  0  0  0  0
   28.3956  -19.1988  -16.0688 C   0  0  0  0  0  0  0  0  0  0  0  0
   28.4007  -20.2777  -15.0054 C   0  0  1  0  0  0  0  0  0  0  0  0
   27.6849  -19.8607  -13.7773 C   0  0  0  0  0  0  0  0  0  0  0  0
   28.0263  -18.8495  -13.1245 O   0  0  0  0  0  0  0  0  0  0  0  0
   23.6385  -16.7410  -17.2620 O   0  0  0  0  0  0  0  0  0  0  0  0
   23.7737  -17.6131  -16.1721 C   0  0  0  0  0  0  0  0  0  0  0  0
   24.0565  -17.1059  -14.9209 C   0  0  0  0  0  0  0  0  0  0  0  0
   24.1895  -17.9695  -13.8459 C   0  0  0  0  0  0  0  0  0  0  0  0
   24.0482  -19.3202  -13.9865 C   0  0  0  0  0  0  0  0  0  0  0  0
   24.1899  -20.2630  -12.8311 C   0  0  0  0  0  0  0  0  0  0  0  0
   25.6140  -20.2599  -12.3554 C   0  0  2  0  0  0  0  0  0  0  0  0
   26.5816  -20.6318  -13.3317 N   0  0  0  0  0  0  0  0  0  0  0  0
   25.8012  -21.0181  -11.0736 C   0  0  0  0  0  0  0  0  0  0  0  0
   25.8323  -22.2638  -10.9941 O   0  0  0  0  0  0  0  0  0  0  0  0
   23.7648  -19.8032  -15.2510 C   0  0  0  0  0  0  0  0  0  0  0  0
   23.6276  -18.9712  -16.3338 C   0  0  0  0  0  0  0  0  0  0  0  0
   25.9590  -20.3073   -9.8342 N   0  0  0  0  0  0  0  0  0  0  0  0
   25.8192  -20.9428   -8.5448 C   0  0  1  0  0  0  0  0  0  0  0  0
   26.5451  -20.0953   -7.5132 C   0  0  0  0  0  0  0  0  0  0  0  0
   28.2869  -19.9555   -7.9989 S   0  0  0  0  0  0  0  0  0  0  0  0
   24.4008  -21.0116   -8.1215 C   0  0  0  0  0  0  0  0  0  0  0  0
   24.1055  -21.6567   -6.9296 O   0  0  0  0  0  0  0  0  0  0  0  0
   23.4623  -20.5179   -8.7847 O   0  0  0  0  0  0  0  0  0  0  0  0
  1  2  1  0
  3  2  1  0
  4  5  1  0
  4  3  1  0
  5  1  1  0
  5  6  1  1
  7  6  2  0
  8  9  1  0
  9 19  2  0
 10  9  1  0
 10 11  2  0
 11 12  1  0
 12 18  2  0
 12 13  1  0
 14 13  1  6
 14 16  1  0
 14 15  1  0
 15  6  1  0
 16 17  2  0
 19 18  1  0
 20 21  1  0
 20 16  1  0
 21 22  1  1
 23 22  1  0
 24 25  1  0
 24 21  1  0
 26 24  2  0
M  END
$$$$
