PYC.pdb
     RDKit          3D

 26 27  0  0  1  0  0  0  0  0999 V2000
   27.4748  -20.1944  -16.5966 N   0  0  0  0  0  0  0  0  0  0  0  0
   28.3107  -21.2959  -17.0487 C   0  0  0  0  0  0  0  0  0  0  0  0
   27.8643  -22.5220  -16.3164 C   0  0  0  0  0  0  0  0  0  0  0  0
   26.7158  -22.0138  -15.4339 C   0  0  0  0  0  0  0  0  0  0  0  0
   26.2431  -20.8461  -16.2754 C   0  0  1  0  0  0  0  0  0  0  0  0
   25.2940  -19.9741  -15.5451 C   0  0  0  0  0  0  0  0  0  0  0  0
   25.6598  -19.2524  -14.5908 O   0  0  0  0  0  0  0  0  0  0  0  0
   18.2115  -15.4343  -13.2894 O   0  0  0  0  0  0  0  0  0  0  0  0
   19.1437  -16.1806  -14.0247 C   0  0  0  0  0  0  0  0  0  0  0  0
   20.4426  -15.7307  -14.1396 C   0  0  0  0  0  0  0  0  0  0  0  0
   21.3616  -16.4698  -14.8665 C   0  0  0  0  0  0  0  0  0  0  0  0
   21.0194  -17.6410  -15.4792 C   0  0  0  0  0  0  0  0  0  0  0  0
   22.0049  -18.4480  -16.2676 C   0  0  0  0  0  0  0  0  0  0  0  0
   22.8688  -19.2387  -15.3280 C   0  0  2  0  0  0  0  0  0  0  0  0
   23.9328  -19.9592  -15.9415 N   0  0  0  0  0  0  0  0  0  0  0  0
   22.0735  -20.1094  -14.3994 C   0  0  0  0  0  0  0  0  0  0  0  0
   21.6375  -21.2401  -14.7002 O   0  0  0  0  0  0  0  0  0  0  0  0
   19.7111  -18.0700  -15.3487 C   0  0  0  0  0  0  0  0  0  0  0  0
   18.7798  -17.3584  -14.6348 C   0  0  0  0  0  0  0  0  0  0  0  0
   21.7706  -19.6547  -13.0700 N   0  0  0  0  0  0  0  0  0  0  0  0
   21.0819  -20.4746  -12.1007 C   0  0  1  0  0  0  0  0  0  0  0  0
   21.6053  -20.1216  -10.7183 C   0  0  0  0  0  0  0  0  0  0  0  0
   20.5038  -18.8849   -9.9791 S   0  0  0  0  0  0  0  0  0  0  0  0
   19.6258  -20.2002  -12.0905 C   0  0  0  0  0  0  0  0  0  0  0  0
   18.7812  -21.1744  -11.5790 O   0  0  0  0  0  0  0  0  0  0  0  0
   19.1250  -19.1373  -12.5192 O   0  0  0  0  0  0  0  0  0  0  0  0
  1  2  1  0
  3  2  1  0
  4  5  1  0
  4  3  1  0
  5  1  1  0
  5  6  1  1
  7  6  2  0
  8  9  1  0
  9 19  2  0
 10  9  1  0
 10 11  2  0
 11 12  1  0
 12 18  2  0
 12 13  1  0
 14 13  1  6
 14 16  1  0
 14 15  1  0
 15  6  1  0
 16 17  2  0
 19 18  1  0
 20 21  1  0
 20 16  1  0
 21 22  1  1
 23 22  1  0
 24 25  1  0
 24 21  1  0
 26 24  2  0
M  END
$$$$
