PYC.pdb
     RDKit          3D

 26 27  0  0  1  0  0  0  0  0999 V2000
   14.9070  -23.7406   -5.2537 N   0  0  0  0  0  0  0  0  0  0  0  0
   14.4368  -24.0501   -6.5952 C   0  0  0  0  0  0  0  0  0  0  0  0
   14.8398  -25.4600   -6.8930 C   0  0  0  0  0  0  0  0  0  0  0  0
   15.5597  -25.9047   -5.6124 C   0  0  0  0  0  0  0  0  0  0  0  0
   14.8636  -25.0138   -4.6041 C   0  0  1  0  0  0  0  0  0  0  0  0
   15.5397  -25.0205   -3.2860 C   0  0  0  0  0  0  0  0  0  0  0  0
   16.3312  -24.1137   -2.9446 O   0  0  0  0  0  0  0  0  0  0  0  0
   13.3551  -20.7379    0.6758 O   0  0  0  0  0  0  0  0  0  0  0  0
   13.7375  -22.0781    0.5202 C   0  0  0  0  0  0  0  0  0  0  0  0
   14.8825  -22.5389    1.1363 C   0  0  0  0  0  0  0  0  0  0  0  0
   15.2581  -23.8633    0.9810 C   0  0  0  0  0  0  0  0  0  0  0  0
   14.5239  -24.7359    0.2302 C   0  0  0  0  0  0  0  0  0  0  0  0
   14.9208  -26.1698    0.0556 C   0  0  0  0  0  0  0  0  0  0  0  0
   15.8652  -26.2891   -1.1056 C   0  0  2  0  0  0  0  0  0  0  0  0
   15.2802  -26.0865   -2.3879 N   0  0  0  0  0  0  0  0  0  0  0  0
   16.6842  -27.5461   -1.0630 C   0  0  0  0  0  0  0  0  0  0  0  0
   16.2245  -28.6895   -1.2642 O   0  0  0  0  0  0  0  0  0  0  0  0
   13.3807  -24.2490   -0.3768 C   0  0  0  0  0  0  0  0  0  0  0  0
   12.9846  -22.9421   -0.2404 C   0  0  0  0  0  0  0  0  0  0  0  0
   18.0911  -27.4784   -0.7765 N   0  0  0  0  0  0  0  0  0  0  0  0
   18.9465  -28.6422   -0.7773 C   0  0  1  0  0  0  0  0  0  0  0  0
   20.3811  -28.1806   -0.9736 C   0  0  0  0  0  0  0  0  0  0  0  0
   20.5001  -27.3160   -2.5634 S   0  0  0  0  0  0  0  0  0  0  0  0
   18.8994  -29.3546    0.5211 C   0  0  0  0  0  0  0  0  0  0  0  0
   19.5537  -30.5735    0.6214 O   0  0  0  0  0  0  0  0  0  0  0  0
   18.3006  -28.9109    1.5257 O   0  0  0  0  0  0  0  0  0  0  0  0
  1  2  1  0
  3  2  1  0
  4  5  1  0
  4  3  1  0
  5  1  1  0
  5  6  1  1
  7  6  2  0
  8  9  1  0
  9 19  2  0
 10  9  1  0
 10 11  2  0
 11 12  1  0
 12 18  2  0
 12 13  1  0
 14 13  1  1
 14 16  1  0
 14 15  1  0
 15  6  1  0
 16 17  2  0
 19 18  1  0
 20 21  1  0
 20 16  1  0
 21 22  1  1
 23 22  1  0
 24 25  1  0
 24 21  1  0
 26 24  2  0
M  END
$$$$
