PYC.pdb
     RDKit          3D

 26 27  0  0  1  0  0  0  0  0999 V2000
   27.8550  -21.1877  -15.2334 N   0  0  0  0  0  0  0  0  0  0  0  0
   28.5224  -21.1007  -16.5231 C   0  0  0  0  0  0  0  0  0  0  0  0
   28.2490  -19.7365  -17.0737 C   0  0  0  0  0  0  0  0  0  0  0  0
   27.3881  -19.0777  -15.9870 C   0  0  0  0  0  0  0  0  0  0  0  0
   27.8849  -19.8344  -14.7723 C   0  0  1  0  0  0  0  0  0  0  0  0
   27.0359  -19.6045  -13.5802 C   0  0  0  0  0  0  0  0  0  0  0  0
   26.7767  -18.4530  -13.1656 O   0  0  0  0  0  0  0  0  0  0  0  0
   21.4634  -18.7815  -16.3588 O   0  0  0  0  0  0  0  0  0  0  0  0
   22.1529  -19.4440  -15.3329 C   0  0  0  0  0  0  0  0  0  0  0  0
   21.9810  -19.0442  -14.0239 C   0  0  0  0  0  0  0  0  0  0  0  0
   22.6632  -19.7002  -13.0123 C   0  0  0  0  0  0  0  0  0  0  0  0
   23.5088  -20.7403  -13.2719 C   0  0  0  0  0  0  0  0  0  0  0  0
   24.2514  -21.4565  -12.1859 C   0  0  0  0  0  0  0  0  0  0  0  0
   25.5143  -20.7096  -11.8675 C   0  0  2  0  0  0  0  0  0  0  0  0
   26.5034  -20.7238  -12.8918 N   0  0  0  0  0  0  0  0  0  0  0  0
   26.0924  -21.0852  -10.5343 C   0  0  0  0  0  0  0  0  0  0  0  0
   26.6412  -22.1802  -10.2916 O   0  0  0  0  0  0  0  0  0  0  0  0
   23.6636  -21.1215  -14.5923 C   0  0  0  0  0  0  0  0  0  0  0  0
   23.0006  -20.4898  -15.6145 C   0  0  0  0  0  0  0  0  0  0  0  0
   26.0339  -20.1575   -9.4379 N   0  0  0  0  0  0  0  0  0  0  0  0
   26.1148  -20.5725   -8.0569 C   0  0  1  0  0  0  0  0  0  0  0  0
   26.4495  -19.3552   -7.2110 C   0  0  0  0  0  0  0  0  0  0  0  0
   28.1373  -18.8210   -7.6053 S   0  0  0  0  0  0  0  0  0  0  0  0
   24.8163  -21.0913   -7.5663 C   0  0  0  0  0  0  0  0  0  0  0  0
   24.7672  -21.6233   -6.2863 O   0  0  0  0  0  0  0  0  0  0  0  0
   23.7681  -21.0722   -8.2485 O   0  0  0  0  0  0  0  0  0  0  0  0
  1  2  1  0
  3  2  1  0
  4  5  1  0
  4  3  1  0
  5  1  1  0
  5  6  1  1
  7  6  2  0
  8  9  1  0
  9 19  2  0
 10  9  1  0
 10 11  2  0
 11 12  1  0
 12 18  2  0
 12 13  1  0
 14 13  1  6
 14 16  1  0
 14 15  1  0
 15  6  1  0
 16 17  2  0
 19 18  1  0
 20 21  1  0
 20 16  1  0
 21 22  1  1
 23 22  1  0
 24 25  1  0
 24 21  1  0
 26 24  2  0
M  END
$$$$
