PYC.pdb
     RDKit          3D

 26 27  0  0  1  0  0  0  0  0999 V2000
   13.5192  -21.7737   -5.2072 N   0  0  0  0  0  0  0  0  0  0  0  0
   14.0877  -22.0040   -6.5264 C   0  0  0  0  0  0  0  0  0  0  0  0
   12.9480  -22.0947   -7.4916 C   0  0  0  0  0  0  0  0  0  0  0  0
   11.7114  -21.8895   -6.6058 C   0  0  0  0  0  0  0  0  0  0  0  0
   12.3222  -21.0495   -5.5030 C   0  0  1  0  0  0  0  0  0  0  0  0
   11.4201  -20.9106   -4.3362 C   0  0  0  0  0  0  0  0  0  0  0  0
   10.2700  -20.4299   -4.4435 O   0  0  0  0  0  0  0  0  0  0  0  0
    7.8455  -26.2651   -4.0220 O   0  0  0  0  0  0  0  0  0  0  0  0
    8.6468  -25.3659   -3.3037 C   0  0  0  0  0  0  0  0  0  0  0  0
    8.0564  -24.4353   -2.4741 C   0  0  0  0  0  0  0  0  0  0  0  0
    8.8502  -23.5481   -1.7656 C   0  0  0  0  0  0  0  0  0  0  0  0
   10.2119  -23.5655   -1.8631 C   0  0  0  0  0  0  0  0  0  0  0  0
   11.0797  -22.6109   -1.1017 C   0  0  0  0  0  0  0  0  0  0  0  0
   11.1508  -21.3042   -1.8378 C   0  0  2  0  0  0  0  0  0  0  0  0
   11.8762  -21.3355   -3.0627 N   0  0  0  0  0  0  0  0  0  0  0  0
   11.5903  -20.1665   -0.9629 C   0  0  0  0  0  0  0  0  0  0  0  0
   12.7738  -19.9612   -0.6218 O   0  0  0  0  0  0  0  0  0  0  0  0
   10.7789  -24.5080   -2.7014 C   0  0  0  0  0  0  0  0  0  0  0  0
   10.0173  -25.3990   -3.4152 C   0  0  0  0  0  0  0  0  0  0  0  0
   10.6227  -19.2286   -0.4627 N   0  0  0  0  0  0  0  0  0  0  0  0
   10.9766  -18.1232    0.3968 C   0  0  1  0  0  0  0  0  0  0  0  0
   10.4002  -16.8501   -0.2004 C   0  0  0  0  0  0  0  0  0  0  0  0
   10.8954  -15.4469    0.8365 S   0  0  0  0  0  0  0  0  0  0  0  0
   10.3833  -18.2702    1.7466 C   0  0  0  0  0  0  0  0  0  0  0  0
    9.1280  -18.8513    1.8485 O   0  0  0  0  0  0  0  0  0  0  0  0
   10.9581  -17.8968    2.7929 O   0  0  0  0  0  0  0  0  0  0  0  0
  1  2  1  0
  3  2  1  0
  4  5  1  0
  4  3  1  0
  5  1  1  0
  5  6  1  1
  7  6  2  0
  8  9  1  0
  9 19  2  0
 10  9  1  0
 10 11  2  0
 11 12  1  0
 12 18  2  0
 12 13  1  0
 14 13  1  1
 14 16  1  0
 14 15  1  0
 15  6  1  0
 16 17  2  0
 19 18  1  0
 20 21  1  0
 20 16  1  0
 21 22  1  6
 23 22  1  0
 24 25  1  0
 24 21  1  0
 26 24  2  0
M  END
$$$$
