PYC.pdb
     RDKit          3D

 26 27  0  0  1  0  0  0  0  0999 V2000
   24.4497  -11.1706  -15.6143 N   0  0  0  0  0  0  0  0  0  0  0  0
   25.3310  -12.2426  -16.0510 C   0  0  0  0  0  0  0  0  0  0  0  0
   24.8293  -12.7174  -17.3783 C   0  0  0  0  0  0  0  0  0  0  0  0
   23.6113  -11.8213  -17.6420 C   0  0  0  0  0  0  0  0  0  0  0  0
   24.0183  -10.5955  -16.8505 C   0  0  1  0  0  0  0  0  0  0  0  0
   22.9032   -9.6337  -16.6896 C   0  0  0  0  0  0  0  0  0  0  0  0
   22.3666   -9.0736  -17.6712 O   0  0  0  0  0  0  0  0  0  0  0  0
   17.4468  -13.0479  -17.1560 O   0  0  0  0  0  0  0  0  0  0  0  0
   18.1469  -12.0818  -16.4189 C   0  0  0  0  0  0  0  0  0  0  0  0
   19.1447  -12.4738  -15.5509 C   0  0  0  0  0  0  0  0  0  0  0  0
   19.8347  -11.5175  -14.8239 C   0  0  0  0  0  0  0  0  0  0  0  0
   19.5560  -10.1860  -14.9402 C   0  0  0  0  0  0  0  0  0  0  0  0
   20.2958   -9.1437  -14.1590 C   0  0  0  0  0  0  0  0  0  0  0  0
   21.3343   -8.5054  -15.0357 C   0  0  2  0  0  0  0  0  0  0  0  0
   22.4327   -9.3418  -15.3843 N   0  0  0  0  0  0  0  0  0  0  0  0
   21.7946   -7.1739  -14.5180 C   0  0  0  0  0  0  0  0  0  0  0  0
   22.7588   -7.0197  -13.7398 O   0  0  0  0  0  0  0  0  0  0  0  0
   18.5514   -9.8193  -15.8171 C   0  0  0  0  0  0  0  0  0  0  0  0
   17.8515  -10.7448  -16.5498 C   0  0  0  0  0  0  0  0  0  0  0  0
   21.1129   -5.9728  -14.9162 N   0  0  0  0  0  0  0  0  0  0  0  0
   21.5828   -4.6533  -14.5639 C   0  0  1  0  0  0  0  0  0  0  0  0
   22.8475   -4.3688  -15.3571 C   0  0  0  0  0  0  0  0  0  0  0  0
   23.3879   -2.6748  -14.9997 S   0  0  0  0  0  0  0  0  0  0  0  0
   20.6004   -3.6076  -14.9341 C   0  0  0  0  0  0  0  0  0  0  0  0
   20.5594   -2.4503  -14.1706 O   0  0  0  0  0  0  0  0  0  0  0  0
   19.8106   -3.7187  -15.8976 O   0  0  0  0  0  0  0  0  0  0  0  0
  1  2  1  0
  3  2  1  0
  4  5  1  0
  4  3  1  0
  5  1  1  0
  5  6  1  1
  7  6  2  0
  8  9  1  0
  9 19  2  0
 10  9  1  0
 10 11  2  0
 11 12  1  0
 12 18  2  0
 12 13  1  0
 14 13  1  1
 14 16  1  0
 14 15  1  0
 15  6  1  0
 16 17  2  0
 19 18  1  0
 20 21  1  0
 20 16  1  0
 21 22  1  6
 23 22  1  0
 24 25  1  0
 24 21  1  0
 26 24  2  0
M  END
$$$$
