PYC.pdb
     RDKit          3D

 26 27  0  0  1  0  0  0  0  0999 V2000
   27.7753  -20.8309  -15.6186 N   0  0  0  0  0  0  0  0  0  0  0  0
   28.3531  -20.5783  -16.9297 C   0  0  0  0  0  0  0  0  0  0  0  0
   28.2105  -19.1141  -17.2034 C   0  0  0  0  0  0  0  0  0  0  0  0
   27.5183  -18.5799  -15.9418 C   0  0  0  0  0  0  0  0  0  0  0  0
   28.0049  -19.5981  -14.9313 C   0  0  1  0  0  0  0  0  0  0  0  0
   27.2795  -19.5036  -13.6432 C   0  0  0  0  0  0  0  0  0  0  0  0
   27.2277  -18.4375  -12.9905 O   0  0  0  0  0  0  0  0  0  0  0  0
   21.3817  -18.7622  -16.2140 O   0  0  0  0  0  0  0  0  0  0  0  0
   22.1425  -19.4335  -15.2458 C   0  0  0  0  0  0  0  0  0  0  0  0
   22.0576  -19.0515  -13.9231 C   0  0  0  0  0  0  0  0  0  0  0  0
   22.8101  -19.7162  -12.9687 C   0  0  0  0  0  0  0  0  0  0  0  0
   23.6416  -20.7477  -13.2985 C   0  0  0  0  0  0  0  0  0  0  0  0
   24.4597  -21.4733  -12.2747 C   0  0  0  0  0  0  0  0  0  0  0  0
   25.7353  -20.7203  -12.0293 C   0  0  2  0  0  0  0  0  0  0  0  0
   26.6261  -20.6562  -13.1383 N   0  0  0  0  0  0  0  0  0  0  0  0
   26.4390  -21.1596  -10.7784 C   0  0  0  0  0  0  0  0  0  0  0  0
   26.9704  -22.2797  -10.6296 O   0  0  0  0  0  0  0  0  0  0  0  0
   23.7085  -21.1112  -14.6312 C   0  0  0  0  0  0  0  0  0  0  0  0
   22.9746  -20.4706  -15.5979 C   0  0  0  0  0  0  0  0  0  0  0  0
   26.5323  -20.2680   -9.6548 N   0  0  0  0  0  0  0  0  0  0  0  0
   26.3611  -20.7088   -8.2902 C   0  0  1  0  0  0  0  0  0  0  0  0
   26.9585  -19.6572   -7.3699 C   0  0  0  0  0  0  0  0  0  0  0  0
   28.7665  -19.7777   -7.4476 S   0  0  0  0  0  0  0  0  0  0  0  0
   24.9284  -20.8283   -7.9312 C   0  0  0  0  0  0  0  0  0  0  0  0
   24.6071  -21.3924   -6.7055 O   0  0  0  0  0  0  0  0  0  0  0  0
   24.0001  -20.4464   -8.6775 O   0  0  0  0  0  0  0  0  0  0  0  0
  1  2  1  0
  3  2  1  0
  4  5  1  0
  4  3  1  0
  5  1  1  0
  5  6  1  1
  7  6  2  0
  8  9  1  0
  9 19  2  0
 10  9  1  0
 10 11  2  0
 11 12  1  0
 12 18  2  0
 12 13  1  0
 14 13  1  6
 14 16  1  0
 14 15  1  0
 15  6  1  0
 16 17  2  0
 19 18  1  0
 20 21  1  0
 20 16  1  0
 21 22  1  1
 23 22  1  0
 24 25  1  0
 24 21  1  0
 26 24  2  0
M  END
$$$$
