PYC.pdb
     RDKit          3D

 26 27  0  0  1  0  0  0  0  0999 V2000
   23.6565  -12.1094  -15.7244 N   0  0  0  0  0  0  0  0  0  0  0  0
   24.4141  -13.3496  -15.7922 C   0  0  0  0  0  0  0  0  0  0  0  0
   25.0395  -13.4145  -17.1500 C   0  0  0  0  0  0  0  0  0  0  0  0
   24.5754  -12.1141  -17.8205 C   0  0  0  0  0  0  0  0  0  0  0  0
   24.3916  -11.2443  -16.5939 C   0  0  1  0  0  0  0  0  0  0  0  0
   23.6796   -9.9820  -16.9008 C   0  0  0  0  0  0  0  0  0  0  0  0
   24.1533   -9.1297  -17.6845 O   0  0  0  0  0  0  0  0  0  0  0  0
   20.5743  -10.7034  -22.4707 O   0  0  0  0  0  0  0  0  0  0  0  0
   20.4782  -10.2955  -21.1323 C   0  0  0  0  0  0  0  0  0  0  0  0
   20.2847   -8.9625  -20.8355 C   0  0  0  0  0  0  0  0  0  0  0  0
   20.1902   -8.5621  -19.5126 C   0  0  0  0  0  0  0  0  0  0  0  0
   20.2833   -9.4537  -18.4828 C   0  0  0  0  0  0  0  0  0  0  0  0
   20.1826   -9.0318  -17.0490 C   0  0  0  0  0  0  0  0  0  0  0  0
   21.5435   -8.6479  -16.5442 C   0  0  2  0  0  0  0  0  0  0  0  0
   22.4254   -9.7359  -16.2869 N   0  0  0  0  0  0  0  0  0  0  0  0
   21.4873   -7.6949  -15.3860 C   0  0  0  0  0  0  0  0  0  0  0  0
   21.4522   -8.0480  -14.1888 O   0  0  0  0  0  0  0  0  0  0  0  0
   20.4773  -10.7841  -18.8072 C   0  0  0  0  0  0  0  0  0  0  0  0
   20.5746  -11.2090  -20.1085 C   0  0  0  0  0  0  0  0  0  0  0  0
   21.4712   -6.2771  -15.6215 N   0  0  0  0  0  0  0  0  0  0  0  0
   21.3853   -5.3078  -14.5542 C   0  0  1  0  0  0  0  0  0  0  0  0
   22.5258   -4.3165  -14.7160 C   0  0  0  0  0  0  0  0  0  0  0  0
   22.3372   -3.0074  -13.4751 S   0  0  0  0  0  0  0  0  0  0  0  0
   20.1270   -4.5285  -14.6251 C   0  0  0  0  0  0  0  0  0  0  0  0
   19.4952   -4.1986  -13.4352 O   0  0  0  0  0  0  0  0  0  0  0  0
   19.6105   -4.1562  -15.7017 O   0  0  0  0  0  0  0  0  0  0  0  0
  1  2  1  0
  3  2  1  0
  4  5  1  0
  4  3  1  0
  5  1  1  0
  5  6  1  6
  7  6  2  0
  8  9  1  0
  9 19  2  0
 10  9  1  0
 10 11  2  0
 11 12  1  0
 12 18  2  0
 12 13  1  0
 14 13  1  1
 14 16  1  0
 14 15  1  0
 15  6  1  0
 16 17  2  0
 19 18  1  0
 20 21  1  0
 20 16  1  0
 21 22  1  6
 23 22  1  0
 24 25  1  0
 24 21  1  0
 26 24  2  0
M  END
$$$$
