MAD.pdb
     RDKit          3D

 22 21  0  0  1  0  0  0  0  0999 V2000
    8.8458  -12.3420   27.8506 C   0  0  0  0  0  0  0  0  0  0  0  0
    7.4348  -11.8856   26.8220 S   0  0  0  0  0  0  0  0  0  0  0  0
    6.5064  -13.3575   26.3085 C   0  0  0  0  0  0  0  0  0  0  0  0
    7.4262  -14.1997   25.4547 C   0  0  0  0  0  0  0  0  0  0  0  0
    6.6268  -15.3797   24.9358 C   0  0  2  0  0  0  0  0  0  0  0  0
    6.2784  -16.2321   26.0412 N   0  0  0  0  0  0  0  0  0  0  0  0
    7.4723  -16.0936   23.9635 C   0  0  0  0  0  0  0  0  0  0  0  0
    7.7026  -17.3274   24.1277 O   0  0  0  0  0  0  0  0  0  0  0  0
    9.0054  -15.3107   20.6403 C   0  0  0  0  0  0  0  0  0  0  0  0
    8.7550  -16.2659   21.8152 C   0  0  2  0  0  0  0  0  0  0  0  0
    8.0672  -15.4905   22.8232 N   0  0  0  0  0  0  0  0  0  0  0  0
   10.0850  -16.6608   22.3211 C   0  0  0  0  0  0  0  0  0  0  0  0
   10.8092  -17.4666   21.6426 O   0  0  0  0  0  0  0  0  0  0  0  0
   10.6433  -16.2086   23.5315 N   0  0  0  0  0  0  0  0  0  0  0  0
   11.9016  -16.6863   24.0109 C   0  0  1  0  0  0  0  0  0  0  0  0
   12.9937  -15.6540   23.9731 C   0  0  0  0  0  0  0  0  0  0  0  0
   13.7389  -15.6469   22.6957 C   0  0  0  0  0  0  0  0  0  0  0  0
   13.3777  -16.4927   21.8355 O   0  0  0  0  0  0  0  0  0  0  0  0
   11.7788  -17.2799   25.3896 C   0  0  0  0  0  0  0  0  0  0  0  0
   10.7050  -17.2177   26.0411 O   0  0  0  0  0  0  0  0  0  0  0  0
   14.7701  -14.8089   22.3829 O   0  0  0  0  0  0  0  0  0  0  0  0
   12.8497  -17.9198   25.9943 O   0  0  0  0  0  0  0  0  0  0  0  0
  2  1  1  0
  3  2  1  0
  4  3  1  0
  4  5  1  0
  5  6  1  1
  7  5  1  0
  7  8  2  0
 10  9  1  6
 10 11  1  0
 10 12  1  0
 11  7  1  0
 12 14  1  0
 13 12  2  0
 14 15  1  0
 15 16  1  1
 15 19  1  0
 16 17  1  0
 17 18  2  0
 19 22  1  0
 20 19  2  0
 21 17  1  0
M  END
$$$$
