MAD.pdb
     RDKit          3D

 22 21  0  0  1  0  0  0  0  0999 V2000
    8.0559  -13.1779   27.8096 C   0  0  0  0  0  0  0  0  0  0  0  0
    6.7820  -12.4354   26.7688 S   0  0  0  0  0  0  0  0  0  0  0  0
    6.1878  -13.6204   25.5300 C   0  0  0  0  0  0  0  0  0  0  0  0
    7.2575  -14.6745   25.3600 C   0  0  0  0  0  0  0  0  0  0  0  0
    6.9440  -15.4545   24.0974 C   0  0  2  0  0  0  0  0  0  0  0  0
    5.6756  -16.1143   24.2570 N   0  0  0  0  0  0  0  0  0  0  0  0
    8.0279  -16.4325   23.9011 C   0  0  0  0  0  0  0  0  0  0  0  0
    7.9756  -17.5470   24.4992 O   0  0  0  0  0  0  0  0  0  0  0  0
   11.1982  -16.6324   21.9072 C   0  0  0  0  0  0  0  0  0  0  0  0
   10.2003  -17.2116   22.9192 C   0  0  2  0  0  0  0  0  0  0  0  0
    9.1600  -16.2188   23.0701 N   0  0  0  0  0  0  0  0  0  0  0  0
   10.9340  -17.3526   24.1931 C   0  0  0  0  0  0  0  0  0  0  0  0
   11.1107  -16.3309   24.9408 O   0  0  0  0  0  0  0  0  0  0  0  0
   11.4750  -18.5608   24.6711 N   0  0  0  0  0  0  0  0  0  0  0  0
   12.2894  -18.6150   25.8437 C   0  0  1  0  0  0  0  0  0  0  0  0
   13.4257  -17.6308   25.8359 C   0  0  0  0  0  0  0  0  0  0  0  0
   14.6040  -18.1137   25.0838 C   0  0  0  0  0  0  0  0  0  0  0  0
   15.1100  -17.3048   24.2620 O   0  0  0  0  0  0  0  0  0  0  0  0
   11.4661  -18.4663   27.0961 C   0  0  0  0  0  0  0  0  0  0  0  0
   10.3521  -17.8829   27.0875 O   0  0  0  0  0  0  0  0  0  0  0  0
   15.1751  -19.3472   25.2097 O   0  0  0  0  0  0  0  0  0  0  0  0
   11.9078  -18.9692   28.3102 O   0  0  0  0  0  0  0  0  0  0  0  0
  2  1  1  0
  3  2  1  0
  4  3  1  0
  4  5  1  0
  5  6  1  1
  7  5  1  0
  7  8  2  0
 10  9  1  6
 10 11  1  0
 10 12  1  0
 11  7  1  0
 12 14  1  0
 13 12  2  0
 14 15  1  0
 15 16  1  6
 15 19  1  0
 16 17  1  0
 17 18  2  0
 19 22  1  0
 20 19  2  0
 21 17  1  0
M  END
$$$$
