MAD.pdb
     RDKit          3D

 22 21  0  0  1  0  0  0  0  0999 V2000
    6.2852  -13.0011   27.4298 C   0  0  0  0  0  0  0  0  0  0  0  0
    7.3036  -11.8813   26.4469 S   0  0  0  0  0  0  0  0  0  0  0  0
    7.2297  -12.3171   24.6873 C   0  0  0  0  0  0  0  0  0  0  0  0
    7.6661  -13.7582   24.5575 C   0  0  0  0  0  0  0  0  0  0  0  0
    7.6221  -14.1260   23.0866 C   0  0  2  0  0  0  0  0  0  0  0  0
    6.2651  -14.0262   22.6191 N   0  0  0  0  0  0  0  0  0  0  0  0
    8.1249  -15.5047   22.9601 C   0  0  0  0  0  0  0  0  0  0  0  0
    7.4737  -16.4548   23.4852 O   0  0  0  0  0  0  0  0  0  0  0  0
   10.3094  -17.3459   20.6959 C   0  0  0  0  0  0  0  0  0  0  0  0
    9.7217  -17.2419   22.1099 C   0  0  2  0  0  0  0  0  0  0  0  0
    9.3169  -15.8639   22.2759 N   0  0  0  0  0  0  0  0  0  0  0  0
   10.8254  -17.5460   23.0427 C   0  0  0  0  0  0  0  0  0  0  0  0
   11.3188  -18.7247   23.0803 O   0  0  0  0  0  0  0  0  0  0  0  0
   11.4012  -16.6140   23.9264 N   0  0  0  0  0  0  0  0  0  0  0  0
   12.4397  -16.9758   24.8384 C   0  0  1  0  0  0  0  0  0  0  0  0
   13.6007  -16.0209   24.8412 C   0  0  0  0  0  0  0  0  0  0  0  0
   14.3176  -15.9781   23.5484 C   0  0  0  0  0  0  0  0  0  0  0  0
   15.0943  -15.0023   23.3743 O   0  0  0  0  0  0  0  0  0  0  0  0
   11.9074  -17.1695   26.2339 C   0  0  0  0  0  0  0  0  0  0  0  0
   12.6285  -17.6266   27.1572 O   0  0  0  0  0  0  0  0  0  0  0  0
   14.2040  -16.8988   22.5470 O   0  0  0  0  0  0  0  0  0  0  0  0
   10.5969  -16.8496   26.5538 O   0  0  0  0  0  0  0  0  0  0  0  0
  2  1  1  0
  3  2  1  0
  4  3  1  0
  4  5  1  0
  5  6  1  1
  7  5  1  0
  7  8  2  0
 10  9  1  6
 10 11  1  0
 10 12  1  0
 11  7  1  0
 12 14  1  0
 13 12  2  0
 14 15  1  0
 15 16  1  1
 15 19  1  0
 16 17  1  0
 17 18  2  0
 19 22  1  0
 20 19  2  0
 21 17  1  0
M  END
$$$$
