MAD.pdb
     RDKit          3D

 22 21  0  0  1  0  0  0  0  0999 V2000
    7.0117  -10.9999   28.0478 C   0  0  0  0  0  0  0  0  0  0  0  0
    6.7419  -11.9130   26.5146 S   0  0  0  0  0  0  0  0  0  0  0  0
    6.3855  -13.6589   26.8562 C   0  0  0  0  0  0  0  0  0  0  0  0
    6.1054  -14.3327   25.5328 C   0  0  0  0  0  0  0  0  0  0  0  0
    7.4007  -14.9521   25.0438 C   0  0  2  0  0  0  0  0  0  0  0  0
    8.4836  -14.0417   25.3056 N   0  0  0  0  0  0  0  0  0  0  0  0
    7.2552  -15.1993   23.5990 C   0  0  0  0  0  0  0  0  0  0  0  0
    6.3723  -16.0103   23.1927 O   0  0  0  0  0  0  0  0  0  0  0  0
    8.3457  -13.6291   20.4323 C   0  0  0  0  0  0  0  0  0  0  0  0
    7.8797  -14.8791   21.1912 C   0  0  2  0  0  0  0  0  0  0  0  0
    8.0496  -14.5823   22.5959 N   0  0  0  0  0  0  0  0  0  0  0  0
    8.7992  -15.9679   20.8039 C   0  0  0  0  0  0  0  0  0  0  0  0
    8.8392  -16.3637   19.5890 O   0  0  0  0  0  0  0  0  0  0  0  0
    9.6671  -16.6312   21.6916 N   0  0  0  0  0  0  0  0  0  0  0  0
   10.4592  -17.7483   21.2842 C   0  0  1  0  0  0  0  0  0  0  0  0
   11.7584  -17.3623   20.6341 C   0  0  0  0  0  0  0  0  0  0  0  0
   12.5835  -16.4690   21.4758 C   0  0  0  0  0  0  0  0  0  0  0  0
   12.1007  -16.1570   22.5963 O   0  0  0  0  0  0  0  0  0  0  0  0
   10.6984  -18.7019   22.4251 C   0  0  0  0  0  0  0  0  0  0  0  0
   11.3019  -19.7924   22.2576 O   0  0  0  0  0  0  0  0  0  0  0  0
   13.8064  -15.9656   21.1376 O   0  0  0  0  0  0  0  0  0  0  0  0
   10.2602  -18.4117   23.7081 O   0  0  0  0  0  0  0  0  0  0  0  0
  2  1  1  0
  3  2  1  0
  4  3  1  0
  4  5  1  0
  5  6  1  6
  7  5  1  0
  7  8  2  0
 10  9  1  6
 10 11  1  0
 10 12  1  0
 11  7  1  0
 12 14  1  0
 13 12  2  0
 14 15  1  0
 15 16  1  1
 15 19  1  0
 16 17  1  0
 17 18  2  0
 19 22  1  0
 20 19  2  0
 21 17  1  0
M  END
$$$$
