MAD.pdb
     RDKit          3D

 22 21  0  0  1  0  0  0  0  0999 V2000
    8.9450  -12.0805   20.1212 C   0  0  0  0  0  0  0  0  0  0  0  0
    7.5522  -12.4199   19.0247 S   0  0  0  0  0  0  0  0  0  0  0  0
    7.7444  -14.0327   18.2161 C   0  0  0  0  0  0  0  0  0  0  0  0
    8.6775  -14.8604   19.0696 C   0  0  0  0  0  0  0  0  0  0  0  0
    8.9076  -16.1809   18.3595 C   0  0  2  0  0  0  0  0  0  0  0  0
    7.6482  -16.8617   18.2167 N   0  0  0  0  0  0  0  0  0  0  0  0
    9.8438  -16.9675   19.1808 C   0  0  0  0  0  0  0  0  0  0  0  0
    9.4339  -17.4994   20.2539 O   0  0  0  0  0  0  0  0  0  0  0  0
   13.2497  -18.4131   18.7990 C   0  0  0  0  0  0  0  0  0  0  0  0
   12.0837  -17.9723   19.6943 C   0  0  2  0  0  0  0  0  0  0  0  0
   11.2096  -17.1833   18.8553 N   0  0  0  0  0  0  0  0  0  0  0  0
   12.6668  -17.1119   20.7434 C   0  0  0  0  0  0  0  0  0  0  0  0
   12.8400  -15.8654   20.5191 O   0  0  0  0  0  0  0  0  0  0  0  0
   13.0624  -17.5646   22.0160 N   0  0  0  0  0  0  0  0  0  0  0  0
   13.5099  -16.6677   23.0341 C   0  0  1  0  0  0  0  0  0  0  0  0
   13.2321  -17.1516   24.4300 C   0  0  0  0  0  0  0  0  0  0  0  0
   11.8061  -17.0431   24.8066 C   0  0  0  0  0  0  0  0  0  0  0  0
   11.0610  -16.4316   23.9963 O   0  0  0  0  0  0  0  0  0  0  0  0
   14.9679  -16.3278   22.8698 C   0  0  0  0  0  0  0  0  0  0  0  0
   15.7455  -17.0615   22.2076 O   0  0  0  0  0  0  0  0  0  0  0  0
   11.2452  -17.5461   25.9450 O   0  0  0  0  0  0  0  0  0  0  0  0
   15.5093  -15.1884   23.4449 O   0  0  0  0  0  0  0  0  0  0  0  0
  2  1  1  0
  3  2  1  0
  4  3  1  0
  4  5  1  0
  5  6  1  1
  7  5  1  0
  7  8  2  0
 10  9  1  6
 10 11  1  0
 10 12  1  0
 11  7  1  0
 12 14  1  0
 13 12  2  0
 14 15  1  0
 15 16  1  1
 15 19  1  0
 16 17  1  0
 17 18  2  0
 19 22  1  0
 20 19  2  0
 21 17  1  0
M  END
$$$$
