MAD.pdb
     RDKit          3D

 22 21  0  0  1  0  0  0  0  0999 V2000
    8.8765  -11.7611   20.1558 C   0  0  0  0  0  0  0  0  0  0  0  0
    7.6350  -12.4791   19.0602 S   0  0  0  0  0  0  0  0  0  0  0  0
    7.2700  -14.1926   19.5322 C   0  0  0  0  0  0  0  0  0  0  0  0
    7.9951  -14.4708   20.8287 C   0  0  0  0  0  0  0  0  0  0  0  0
    7.6882  -15.8996   21.2349 C   0  0  2  0  0  0  0  0  0  0  0  0
    6.2634  -16.0556   21.3592 N   0  0  0  0  0  0  0  0  0  0  0  0
    8.3615  -16.1483   22.5212 C   0  0  0  0  0  0  0  0  0  0  0  0
    7.7571  -15.8818   23.6011 O   0  0  0  0  0  0  0  0  0  0  0  0
    9.4770  -18.1395   24.5226 C   0  0  0  0  0  0  0  0  0  0  0  0
   10.2647  -16.9583   23.9397 C   0  0  2  0  0  0  0  0  0  0  0  0
    9.6730  -16.6786   22.6505 N   0  0  0  0  0  0  0  0  0  0  0  0
   11.6501  -17.4340   23.7521 C   0  0  0  0  0  0  0  0  0  0  0  0
   12.3454  -17.7813   24.7670 O   0  0  0  0  0  0  0  0  0  0  0  0
   12.2935  -17.5413   22.5048 N   0  0  0  0  0  0  0  0  0  0  0  0
   13.6087  -17.0290   22.2839 C   0  0  1  0  0  0  0  0  0  0  0  0
   13.6418  -15.8069   21.4091 C   0  0  0  0  0  0  0  0  0  0  0  0
   15.0152  -15.3724   21.0743 C   0  0  0  0  0  0  0  0  0  0  0  0
   15.8930  -16.2748   21.0438 O   0  0  0  0  0  0  0  0  0  0  0  0
   14.3276  -16.7728   23.5823 C   0  0  0  0  0  0  0  0  0  0  0  0
   15.3371  -17.4421   23.9204 O   0  0  0  0  0  0  0  0  0  0  0  0
   15.3978  -14.0909   20.8006 O   0  0  0  0  0  0  0  0  0  0  0  0
   13.9012  -15.7851   24.4569 O   0  0  0  0  0  0  0  0  0  0  0  0
  2  1  1  0
  3  2  1  0
  4  3  1  0
  4  5  1  0
  5  6  1  1
  7  5  1  0
  7  8  2  0
 10  9  1  6
 10 11  1  0
 10 12  1  0
 11  7  1  0
 12 14  1  0
 13 12  2  0
 14 15  1  0
 15 16  1  1
 15 19  1  0
 16 17  1  0
 17 18  2  0
 19 22  1  0
 20 19  2  0
 21 17  1  0
M  END
$$$$
