MAD.pdb
     RDKit          3D

 22 21  0  0  1  0  0  0  0  0999 V2000
    7.7644  -12.0394   28.2666 C   0  0  0  0  0  0  0  0  0  0  0  0
    6.3015  -11.6464   27.2854 S   0  0  0  0  0  0  0  0  0  0  0  0
    5.6288  -13.1383   26.5021 C   0  0  0  0  0  0  0  0  0  0  0  0
    6.7504  -13.7887   25.7255 C   0  0  0  0  0  0  0  0  0  0  0  0
    6.1855  -15.0139   25.0323 C   0  0  2  0  0  0  0  0  0  0  0  0
    5.8932  -16.0181   26.0201 N   0  0  0  0  0  0  0  0  0  0  0  0
    7.2018  -15.4904   24.0784 C   0  0  0  0  0  0  0  0  0  0  0  0
    7.9859  -16.4238   24.4199 O   0  0  0  0  0  0  0  0  0  0  0  0
    8.3050  -14.6463   20.5972 C   0  0  0  0  0  0  0  0  0  0  0  0
    8.2784  -15.5801   21.8150 C   0  0  2  0  0  0  0  0  0  0  0  0
    7.3774  -14.9713   22.7679 N   0  0  0  0  0  0  0  0  0  0  0  0
    9.6484  -15.5838   22.3665 C   0  0  0  0  0  0  0  0  0  0  0  0
    9.9496  -14.7928   23.3245 O   0  0  0  0  0  0  0  0  0  0  0  0
   10.6886  -16.4149   21.9101 N   0  0  0  0  0  0  0  0  0  0  0  0
   11.8710  -16.6409   22.6794 C   0  0  1  0  0  0  0  0  0  0  0  0
   11.8186  -17.8898   23.5146 C   0  0  0  0  0  0  0  0  0  0  0  0
   11.9767  -17.6253   24.9610 C   0  0  0  0  0  0  0  0  0  0  0  0
   12.2207  -16.4333   25.2858 O   0  0  0  0  0  0  0  0  0  0  0  0
   13.1038  -16.6314   21.8143 C   0  0  0  0  0  0  0  0  0  0  0  0
   13.0303  -16.7005   20.5608 O   0  0  0  0  0  0  0  0  0  0  0  0
   11.8803  -18.5575   25.9536 O   0  0  0  0  0  0  0  0  0  0  0  0
   14.3710  -16.5457   22.3702 O   0  0  0  0  0  0  0  0  0  0  0  0
  2  1  1  0
  3  2  1  0
  4  3  1  0
  4  5  1  0
  5  6  1  1
  7  5  1  0
  7  8  2  0
 10  9  1  6
 10 11  1  0
 10 12  1  0
 11  7  1  0
 12 14  1  0
 13 12  2  0
 14 15  1  0
 15 16  1  6
 15 19  1  0
 16 17  1  0
 17 18  2  0
 19 22  1  0
 20 19  2  0
 21 17  1  0
M  END
$$$$
