MAD.pdb
     RDKit          3D

 22 21  0  0  1  0  0  0  0  0999 V2000
    8.1621  -11.8417   26.8677 C   0  0  0  0  0  0  0  0  0  0  0  0
    6.3578  -11.8821   26.8658 S   0  0  0  0  0  0  0  0  0  0  0  0
    5.7441  -13.2978   25.9112 C   0  0  0  0  0  0  0  0  0  0  0  0
    6.9326  -14.1693   25.5763 C   0  0  0  0  0  0  0  0  0  0  0  0
    6.4510  -15.2797   24.6621 C   0  0  2  0  0  0  0  0  0  0  0  0
    5.5897  -16.1592   25.4067 N   0  0  0  0  0  0  0  0  0  0  0  0
    7.6409  -15.9958   24.1711 C   0  0  0  0  0  0  0  0  0  0  0  0
    8.0761  -16.9942   24.8163 O   0  0  0  0  0  0  0  0  0  0  0  0
    9.9211  -15.7702   21.2013 C   0  0  0  0  0  0  0  0  0  0  0  0
    9.3886  -16.4974   22.4436 C   0  0  2  0  0  0  0  0  0  0  0  0
    8.3600  -15.6454   22.9972 N   0  0  0  0  0  0  0  0  0  0  0  0
   10.5180  -16.5841   23.3911 C   0  0  0  0  0  0  0  0  0  0  0  0
   10.9440  -15.5270   23.9701 O   0  0  0  0  0  0  0  0  0  0  0  0
   11.1897  -17.7757   23.7228 N   0  0  0  0  0  0  0  0  0  0  0  0
   12.2764  -17.8001   24.6501 C   0  0  1  0  0  0  0  0  0  0  0  0
   12.4185  -19.1067   25.3797 C   0  0  0  0  0  0  0  0  0  0  0  0
   13.5981  -19.1462   26.2708 C   0  0  0  0  0  0  0  0  0  0  0  0
   14.7235  -19.1021   25.7073 O   0  0  0  0  0  0  0  0  0  0  0  0
   13.5747  -17.4155   23.9907 C   0  0  0  0  0  0  0  0  0  0  0  0
   13.7511  -17.5508   22.7530 O   0  0  0  0  0  0  0  0  0  0  0  0
   13.5616  -19.2255   27.6331 O   0  0  0  0  0  0  0  0  0  0  0  0
   14.6282  -16.8958   24.7271 O   0  0  0  0  0  0  0  0  0  0  0  0
  2  1  1  0
  3  2  1  0
  4  3  1  0
  4  5  1  0
  5  6  1  1
  7  5  1  0
  7  8  2  0
 10  9  1  6
 10 11  1  0
 10 12  1  0
 11  7  1  0
 12 14  1  0
 13 12  2  0
 14 15  1  0
 15 16  1  6
 15 19  1  0
 16 17  1  0
 17 18  2  0
 19 22  1  0
 20 19  2  0
 21 17  1  0
M  END
$$$$
