MAD.pdb
     RDKit          3D

 22 21  0  0  1  0  0  0  0  0999 V2000
    8.8802  -11.8644   19.3368 C   0  0  0  0  0  0  0  0  0  0  0  0
    7.2203  -12.5716   19.3774 S   0  0  0  0  0  0  0  0  0  0  0  0
    7.2796  -14.3725   19.1650 C   0  0  0  0  0  0  0  0  0  0  0  0
    8.5085  -14.8747   19.8872 C   0  0  0  0  0  0  0  0  0  0  0  0
    8.5626  -16.3813   19.7190 C   0  0  2  0  0  0  0  0  0  0  0  0
    7.2492  -16.8625   19.3822 N   0  0  0  0  0  0  0  0  0  0  0  0
    9.0237  -16.9527   20.9960 C   0  0  0  0  0  0  0  0  0  0  0  0
    8.1714  -17.3576   21.8398 O   0  0  0  0  0  0  0  0  0  0  0  0
   10.3058  -19.3809   22.0160 C   0  0  0  0  0  0  0  0  0  0  0  0
   10.8120  -17.9885   22.4170 C   0  0  2  0  0  0  0  0  0  0  0  0
   10.3881  -17.0897   21.3669 N   0  0  0  0  0  0  0  0  0  0  0  0
   12.2865  -18.0694   22.4297 C   0  0  0  0  0  0  0  0  0  0  0  0
   12.8709  -18.8893   23.2174 O   0  0  0  0  0  0  0  0  0  0  0  0
   13.1339  -17.2919   21.6182 N   0  0  0  0  0  0  0  0  0  0  0  0
   14.1237  -16.4223   22.1707 C   0  0  1  0  0  0  0  0  0  0  0  0
   14.0202  -15.0035   21.6848 C   0  0  0  0  0  0  0  0  0  0  0  0
   14.2935  -14.8663   20.2379 C   0  0  0  0  0  0  0  0  0  0  0  0
   13.6540  -15.6373   19.4747 O   0  0  0  0  0  0  0  0  0  0  0  0
   14.1235  -16.4700   23.6760 C   0  0  0  0  0  0  0  0  0  0  0  0
   15.1366  -16.8373   24.3243 O   0  0  0  0  0  0  0  0  0  0  0  0
   15.1703  -13.9837   19.6759 O   0  0  0  0  0  0  0  0  0  0  0  0
   13.0016  -16.1091   24.4062 O   0  0  0  0  0  0  0  0  0  0  0  0
  2  1  1  0
  3  2  1  0
  4  3  1  0
  4  5  1  0
  5  6  1  1
  7  5  1  0
  7  8  2  0
 10  9  1  6
 10 11  1  0
 10 12  1  0
 11  7  1  0
 12 14  1  0
 13 12  2  0
 14 15  1  0
 15 16  1  1
 15 19  1  0
 16 17  1  0
 17 18  2  0
 19 22  1  0
 20 19  2  0
 21 17  1  0
M  END
$$$$
