MAD.pdb
     RDKit          3D

 22 21  0  0  1  0  0  0  0  0999 V2000
    8.2927  -12.2285   28.1283 C   0  0  0  0  0  0  0  0  0  0  0  0
    6.9484  -11.7716   27.0141 S   0  0  0  0  0  0  0  0  0  0  0  0
    6.0832  -13.2460   26.4065 C   0  0  0  0  0  0  0  0  0  0  0  0
    7.0187  -13.9644   25.4615 C   0  0  0  0  0  0  0  0  0  0  0  0
    6.2827  -15.1689   24.9061 C   0  0  2  0  0  0  0  0  0  0  0  0
    6.2127  -16.1848   25.9224 N   0  0  0  0  0  0  0  0  0  0  0  0
    7.0358  -15.6452   23.7332 C   0  0  0  0  0  0  0  0  0  0  0  0
    7.6026  -16.7763   23.7756 O   0  0  0  0  0  0  0  0  0  0  0  0
    7.8021  -14.3833   20.2851 C   0  0  0  0  0  0  0  0  0  0  0  0
    7.8842  -15.4549   21.3807 C   0  0  2  0  0  0  0  0  0  0  0  0
    7.1810  -14.9156   22.5231 N   0  0  0  0  0  0  0  0  0  0  0  0
    9.3160  -15.6044   21.7102 C   0  0  0  0  0  0  0  0  0  0  0  0
   10.1762  -14.8270   21.1717 O   0  0  0  0  0  0  0  0  0  0  0  0
    9.8326  -16.5654   22.5993 N   0  0  0  0  0  0  0  0  0  0  0  0
   11.2367  -16.7856   22.7451 C   0  0  1  0  0  0  0  0  0  0  0  0
   11.5850  -17.7638   23.8321 C   0  0  0  0  0  0  0  0  0  0  0  0
   11.3393  -17.2313   25.1898 C   0  0  0  0  0  0  0  0  0  0  0  0
   10.9753  -16.0277   25.2585 O   0  0  0  0  0  0  0  0  0  0  0  0
   11.8710  -17.1922   21.4410 C   0  0  0  0  0  0  0  0  0  0  0  0
   11.2191  -17.7948   20.5502 O   0  0  0  0  0  0  0  0  0  0  0  0
   11.4743  -17.9317   26.3536 O   0  0  0  0  0  0  0  0  0  0  0  0
   13.2029  -16.9161   21.1729 O   0  0  0  0  0  0  0  0  0  0  0  0
  2  1  1  0
  3  2  1  0
  4  3  1  0
  4  5  1  0
  5  6  1  1
  7  5  1  0
  7  8  2  0
 10  9  1  6
 10 11  1  0
 10 12  1  0
 11  7  1  0
 12 14  1  0
 13 12  2  0
 14 15  1  0
 15 16  1  1
 15 19  1  0
 16 17  1  0
 17 18  2  0
 19 22  1  0
 20 19  2  0
 21 17  1  0
M  END
$$$$
