EKH.pdb
     RDKit          3D

 29 29  0  0  1  0  0  0  0  0999 V2000
    9.6957  -19.6795   16.8106 N   0  0  0  0  0  0  0  0  0  0  0  0
   10.2423  -20.1078   18.0895 C   0  0  1  0  0  0  0  0  0  0  0  0
   11.6827  -19.7659   18.1153 C   0  0  0  0  0  0  0  0  0  0  0  0
   12.0335  -18.9092   16.9341 C   0  0  0  0  0  0  0  0  0  0  0  0
   13.0454  -17.8839   17.1771 C   0  0  0  0  0  0  0  0  0  0  0  0
   14.2146  -18.1475   17.4903 O   0  0  0  0  0  0  0  0  0  0  0  0
    9.4706  -19.4659   19.1962 C   0  0  0  0  0  0  0  0  0  0  0  0
    8.6393  -18.5522   18.9652 O   0  0  0  0  0  0  0  0  0  0  0  0
   12.7322  -16.5120   17.0640 O   0  0  0  0  0  0  0  0  0  0  0  0
    9.6776  -19.8896   20.5100 N   0  0  0  0  0  0  0  0  0  0  0  0
    8.8304  -19.5006   21.6543 C   0  0  1  0  0  0  0  0  0  0  0  0
    8.7067  -20.6631   22.5956 C   0  0  0  0  0  0  0  0  0  0  0  0
    7.7176  -20.3153   23.6579 C   0  0  0  0  0  0  0  0  0  0  0  0
    7.3951  -21.4544   24.6036 C   0  0  0  0  0  0  0  0  0  0  0  0
    6.3636  -21.0080   25.5940 C   0  0  0  0  0  0  0  0  0  0  0  0
    6.0036  -22.1233   26.4796 N   0  0  0  0  0  0  0  0  0  0  0  0
    9.3427  -18.2746   22.2603 C   0  0  0  0  0  0  0  0  0  0  0  0
   10.6043  -18.1891   22.4892 O   0  0  0  0  0  0  0  0  0  0  0  0
    8.6060  -17.1274   22.6324 N   0  0  0  0  0  0  0  0  0  0  0  0
    9.2941  -15.9346   23.2130 C   0  0  1  0  0  0  0  0  0  0  0  0
    8.3377  -14.8079   22.9884 C   0  0  0  0  0  0  0  0  0  0  0  0
    8.2796  -14.3763   21.5926 C   0  0  0  0  0  0  0  0  0  0  0  0
    9.0691  -14.8894   20.5529 C   0  0  0  0  0  0  0  0  0  0  0  0
    8.7303  -14.2510   19.4372 N   0  0  0  0  0  0  0  0  0  0  0  0
    7.7582  -13.3449   19.6923 C   0  0  0  0  0  0  0  0  0  0  0  0
    7.5190  -13.4537   20.9937 N   0  0  0  0  0  0  0  0  0  0  0  0
    9.5651  -16.2054   24.6319 C   0  0  0  0  0  0  0  0  0  0  0  0
    9.1671  -17.2509   25.1648 O   0  0  0  0  0  0  0  0  0  0  0  0
   10.2860  -15.2613   25.3852 O   0  0  0  0  0  0  0  0  0  0  0  0
  2  1  1  6
  3  2  1  0
  4  3  1  0
  5  4  1  0
  6  5  2  0
  7  2  1  0
  7  8  2  0
  9  5  1  0
 10  7  1  0
 11 10  1  0
 11 12  1  1
 13 12  1  0
 13 14  1  0
 14 15  1  0
 16 15  1  0
 17 11  1  0
 18 17  2  0
 19 17  1  0
 20 27  1  0
 20 19  1  0
 21 22  1  0
 20 21  1  1
 22 23  2  0
 23 24  1  0
 25 24  1  0
 26 22  1  0
 26 25  2  0
 27 29  1  0
 28 27  2  0
M  END
$$$$
