EKH.pdb
     RDKit          3D

 29 29  0  0  1  0  0  0  0  0999 V2000
    8.8663  -17.7736   14.9180 N   0  0  0  0  0  0  0  0  0  0  0  0
    9.5776  -18.4744   15.9766 C   0  0  1  0  0  0  0  0  0  0  0  0
   11.0067  -18.0939   15.9048 C   0  0  0  0  0  0  0  0  0  0  0  0
   11.3749  -17.7245   14.4976 C   0  0  0  0  0  0  0  0  0  0  0  0
   12.7500  -17.2708   14.3040 C   0  0  0  0  0  0  0  0  0  0  0  0
   13.2738  -16.3844   14.9929 O   0  0  0  0  0  0  0  0  0  0  0  0
    8.9520  -18.1460   17.2931 C   0  0  0  0  0  0  0  0  0  0  0  0
    8.3917  -17.0384   17.4892 O   0  0  0  0  0  0  0  0  0  0  0  0
   13.5668  -17.8339   13.2996 O   0  0  0  0  0  0  0  0  0  0  0  0
    8.9914  -19.0873   18.3232 N   0  0  0  0  0  0  0  0  0  0  0  0
    8.3858  -18.8912   19.6548 C   0  0  1  0  0  0  0  0  0  0  0  0
    8.1225  -20.2300   20.2800 C   0  0  0  0  0  0  0  0  0  0  0  0
    7.4905  -20.0182   21.6156 C   0  0  0  0  0  0  0  0  0  0  0  0
    7.2407  -21.2938   22.3942 C   0  0  0  0  0  0  0  0  0  0  0  0
    6.6691  -20.9584   23.7376 C   0  0  0  0  0  0  0  0  0  0  0  0
    6.5933  -22.1689   24.5664 N   0  0  0  0  0  0  0  0  0  0  0  0
    9.2175  -17.9957   20.4542 C   0  0  0  0  0  0  0  0  0  0  0  0
   10.4883  -18.1863   20.4586 O   0  0  0  0  0  0  0  0  0  0  0  0
    8.7913  -16.9037   21.2437 N   0  0  0  0  0  0  0  0  0  0  0  0
    9.7846  -16.0470   21.9598 C   0  0  1  0  0  0  0  0  0  0  0  0
    9.0898  -14.7343   22.1287 C   0  0  0  0  0  0  0  0  0  0  0  0
    8.8888  -14.0265   20.8652 C   0  0  0  0  0  0  0  0  0  0  0  0
    9.3726  -14.4450   19.6169 C   0  0  0  0  0  0  0  0  0  0  0  0
    8.9896  -13.5468   18.7147 N   0  0  0  0  0  0  0  0  0  0  0  0
    8.2789  -12.5600   19.3082 C   0  0  0  0  0  0  0  0  0  0  0  0
    8.2431  -12.8871   20.5944 N   0  0  0  0  0  0  0  0  0  0  0  0
   10.1260  -16.7025   23.2301 C   0  0  0  0  0  0  0  0  0  0  0  0
    9.5418  -17.7351   23.5875 O   0  0  0  0  0  0  0  0  0  0  0  0
   11.1294  -16.1441   24.0425 O   0  0  0  0  0  0  0  0  0  0  0  0
  2  1  1  6
  3  2  1  0
  4  3  1  0
  5  4  1  0
  6  5  2  0
  7  2  1  0
  7  8  2  0
  9  5  1  0
 10  7  1  0
 11 10  1  0
 11 12  1  1
 13 12  1  0
 13 14  1  0
 14 15  1  0
 16 15  1  0
 17 11  1  0
 18 17  2  0
 19 17  1  0
 20 27  1  0
 20 19  1  0
 21 22  1  0
 20 21  1  1
 22 23  2  0
 23 24  1  0
 25 24  1  0
 26 22  1  0
 26 25  2  0
 27 29  1  0
 28 27  2  0
M  END
$$$$
