EKH.pdb
     RDKit          3D

 29 29  0  0  1  0  0  0  0  0999 V2000
   10.5560  -18.7731   19.7909 N   0  0  0  0  0  0  0  0  0  0  0  0
   11.6320  -18.3464   20.6728 C   0  0  1  0  0  0  0  0  0  0  0  0
   12.8576  -18.1765   19.8594 C   0  0  0  0  0  0  0  0  0  0  0  0
   12.5201  -18.2211   18.3978 C   0  0  0  0  0  0  0  0  0  0  0  0
   13.6496  -18.0632   17.4848 C   0  0  0  0  0  0  0  0  0  0  0  0
   14.2601  -16.9949   17.3416 O   0  0  0  0  0  0  0  0  0  0  0  0
   11.2237  -17.0956   21.3806 C   0  0  0  0  0  0  0  0  0  0  0  0
   12.0454  -16.4391   22.0683 O   0  0  0  0  0  0  0  0  0  0  0  0
   14.1101  -19.1455   16.7040 O   0  0  0  0  0  0  0  0  0  0  0  0
    9.9053  -16.6491   21.2753 N   0  0  0  0  0  0  0  0  0  0  0  0
    9.3559  -15.4928   22.0099 C   0  0  1  0  0  0  0  0  0  0  0  0
    8.0644  -15.0705   21.3724 C   0  0  0  0  0  0  0  0  0  0  0  0
    8.3613  -14.4888   20.0302 C   0  0  0  0  0  0  0  0  0  0  0  0
    7.1448  -13.9548   19.3017 C   0  0  0  0  0  0  0  0  0  0  0  0
    7.5702  -13.3162   18.0151 C   0  0  0  0  0  0  0  0  0  0  0  0
    6.3983  -12.7793   17.3106 N   0  0  0  0  0  0  0  0  0  0  0  0
    9.2621  -15.8051   23.4335 C   0  0  0  0  0  0  0  0  0  0  0  0
    8.9642  -17.0075   23.7752 O   0  0  0  0  0  0  0  0  0  0  0  0
    9.4721  -14.9274   24.5211 N   0  0  0  0  0  0  0  0  0  0  0  0
    9.4713  -15.4394   25.9251 C   0  0  1  0  0  0  0  0  0  0  0  0
    9.8320  -14.2494   26.7549 C   0  0  0  0  0  0  0  0  0  0  0  0
    9.8806  -14.5435   28.1863 C   0  0  0  0  0  0  0  0  0  0  0  0
    9.6179  -15.7938   28.7654 C   0  0  0  0  0  0  0  0  0  0  0  0
    9.7615  -15.6666   30.0808 N   0  0  0  0  0  0  0  0  0  0  0  0
   10.1054  -14.3959   30.3941 C   0  0  0  0  0  0  0  0  0  0  0  0
   10.1655  -13.7586   29.2309 N   0  0  0  0  0  0  0  0  0  0  0  0
    8.1361  -15.9800   26.2166 C   0  0  0  0  0  0  0  0  0  0  0  0
    7.1287  -15.5100   25.6693 O   0  0  0  0  0  0  0  0  0  0  0  0
    8.0106  -17.0438   27.1283 O   0  0  0  0  0  0  0  0  0  0  0  0
  2  1  1  6
  3  2  1  0
  4  3  1  0
  5  4  1  0
  6  5  2  0
  7  2  1  0
  7  8  2  0
  9  5  1  0
 10  7  1  0
 11 10  1  0
 11 12  1  6
 13 12  1  0
 13 14  1  0
 14 15  1  0
 16 15  1  0
 17 11  1  0
 18 17  2  0
 19 17  1  0
 20 27  1  0
 20 19  1  0
 21 22  1  0
 20 21  1  1
 22 23  2  0
 23 24  1  0
 25 24  1  0
 26 22  1  0
 26 25  2  0
 27 29  1  0
 28 27  2  0
M  END
$$$$
