EKH.pdb
     RDKit          3D

 29 29  0  0  1  0  0  0  0  0999 V2000
   12.5247  -15.2869   13.9250 N   0  0  0  0  0  0  0  0  0  0  0  0
   12.1344  -16.1627   15.0197 C   0  0  1  0  0  0  0  0  0  0  0  0
   12.8520  -17.4483   14.8625 C   0  0  0  0  0  0  0  0  0  0  0  0
   14.3341  -17.2289   14.9490 C   0  0  0  0  0  0  0  0  0  0  0  0
   15.1557  -18.4341   14.8684 C   0  0  0  0  0  0  0  0  0  0  0  0
   14.6793  -19.5718   14.7535 O   0  0  0  0  0  0  0  0  0  0  0  0
   12.4258  -15.4874   16.3203 C   0  0  0  0  0  0  0  0  0  0  0  0
   13.5049  -14.8708   16.5061 O   0  0  0  0  0  0  0  0  0  0  0  0
   16.5645  -18.3584   14.9186 O   0  0  0  0  0  0  0  0  0  0  0  0
   11.4814  -15.5431   17.3468 N   0  0  0  0  0  0  0  0  0  0  0  0
   11.5820  -14.7920   18.6133 C   0  0  1  0  0  0  0  0  0  0  0  0
   10.2256  -14.7143   19.2510 C   0  0  0  0  0  0  0  0  0  0  0  0
    9.3543  -13.8355   18.4165 C   0  0  0  0  0  0  0  0  0  0  0  0
    7.9320  -13.7089   18.9234 C   0  0  0  0  0  0  0  0  0  0  0  0
    7.1568  -12.7977   18.0218 C   0  0  0  0  0  0  0  0  0  0  0  0
    5.8029  -12.5978   18.5553 N   0  0  0  0  0  0  0  0  0  0  0  0
   12.6223  -15.3739   19.4571 C   0  0  0  0  0  0  0  0  0  0  0  0
   12.7418  -16.6531   19.4822 O   0  0  0  0  0  0  0  0  0  0  0  0
   13.5519  -14.6877   20.2709 N   0  0  0  0  0  0  0  0  0  0  0  0
   14.5160  -15.4411   21.1289 C   0  0  1  0  0  0  0  0  0  0  0  0
   15.5150  -14.4142   21.5557 C   0  0  0  0  0  0  0  0  0  0  0  0
   16.5946  -14.9700   22.3702 C   0  0  0  0  0  0  0  0  0  0  0  0
   16.7984  -16.3347   22.6224 C   0  0  0  0  0  0  0  0  0  0  0  0
   17.8721  -16.4450   23.3983 N   0  0  0  0  0  0  0  0  0  0  0  0
   18.3833  -15.2214   23.6679 C   0  0  0  0  0  0  0  0  0  0  0  0
   17.5882  -14.3685   23.0331 N   0  0  0  0  0  0  0  0  0  0  0  0
   13.7691  -16.0382   22.2449 C   0  0  0  0  0  0  0  0  0  0  0  0
   12.6699  -15.5810   22.5883 O   0  0  0  0  0  0  0  0  0  0  0  0
   14.3162  -17.1416   22.9244 O   0  0  0  0  0  0  0  0  0  0  0  0
  2  1  1  6
  3  2  1  0
  4  3  1  0
  5  4  1  0
  6  5  2  0
  7  2  1  0
  7  8  2  0
  9  5  1  0
 10  7  1  0
 11 10  1  0
 11 12  1  1
 13 12  1  0
 13 14  1  0
 14 15  1  0
 16 15  1  0
 17 11  1  0
 18 17  2  0
 19 17  1  0
 20 27  1  0
 20 19  1  0
 21 22  1  0
 20 21  1  1
 22 23  2  0
 23 24  1  0
 25 24  1  0
 26 22  1  0
 26 25  2  0
 27 29  1  0
 28 27  2  0
M  END
$$$$
