PVG.pdb
     RDKit          3D

 19 19  0  0  1  0  0  0  0  0999 V2000
   27.3039  -19.2884  -15.0959 N   0  0  0  0  0  0  0  0  0  0  0  0
   28.6522  -18.9382  -14.7980 C   0  0  0  0  0  0  0  0  0  0  0  0
   29.5321  -20.1144  -15.0685 C   0  0  0  0  0  0  0  0  0  0  0  0
   28.5946  -21.2686  -15.2928 C   0  0  0  0  0  0  0  0  0  0  0  0
   27.2036  -20.6922  -15.2892 C   0  0  1  0  0  0  0  0  0  0  0  0
   26.3565  -21.2722  -14.2166 C   0  0  0  0  0  0  0  0  0  0  0  0
   26.1744  -22.5167  -14.1694 O   0  0  0  0  0  0  0  0  0  0  0  0
   26.6860  -20.8388  -10.5168 C   0  0  0  0  0  0  0  0  0  0  0  0
   25.2978  -20.3441  -10.9184 C   0  0  2  0  0  0  0  0  0  0  0  0
   24.3446  -20.8101   -9.8610 C   0  0  0  0  0  0  0  0  0  0  0  0
   24.8946  -20.9289  -12.2585 C   0  0  2  0  0  0  0  0  0  0  0  0
   25.7906  -20.3705  -13.2892 N   0  0  0  0  0  0  0  0  0  0  0  0
   23.5092  -20.4804  -12.5507 C   0  0  0  0  0  0  0  0  0  0  0  0
   23.3039  -19.2166  -12.4951 O   0  0  0  0  0  0  0  0  0  0  0  0
   22.4204  -21.2976  -12.8813 N   0  0  0  0  0  0  0  0  0  0  0  0
   21.1002  -20.6595  -13.0362 C   0  0  0  0  0  0  0  0  0  0  0  0
   20.0478  -21.5062  -12.4323 C   0  0  0  0  0  0  0  0  0  0  0  0
   18.7446  -20.9901  -12.4287 O   0  0  0  0  0  0  0  0  0  0  0  0
   20.2872  -22.6293  -11.9438 O   0  0  0  0  0  0  0  0  0  0  0  0
  1  2  1  0
  3  2  1  0
  4  5  1  0
  4  3  1  0
  5  1  1  0
  6 12  1  0
  5  6  1  1
  7  6  2  0
  9  8  1  1
  9 11  1  0
 10  9  1  0
 11 12  1  6
 11 13  1  0
 13 15  1  0
 14 13  2  0
 15 16  1  0
 17 16  1  0
 17 18  1  0
 19 17  2  0
M  END
$$$$
