PVG.pdb
     RDKit          3D

 19 19  0  0  1  0  0  0  0  0999 V2000
   23.9521  -11.7626  -15.1551 N   0  0  0  0  0  0  0  0  0  0  0  0
   23.3091  -13.0224  -15.3242 C   0  0  0  0  0  0  0  0  0  0  0  0
   23.5797  -13.5261  -16.7040 C   0  0  0  0  0  0  0  0  0  0  0  0
   24.2016  -12.3682  -17.4347 C   0  0  0  0  0  0  0  0  0  0  0  0
   24.4036  -11.2809  -16.4128 C   0  0  1  0  0  0  0  0  0  0  0  0
   23.6608  -10.0416  -16.7549 C   0  0  0  0  0  0  0  0  0  0  0  0
   23.8737   -9.4701  -17.8559 O   0  0  0  0  0  0  0  0  0  0  0  0
   20.2034   -9.7734  -17.2359 C   0  0  0  0  0  0  0  0  0  0  0  0
   20.4881   -8.7355  -16.1520 C   0  0  2  0  0  0  0  0  0  0  0  0
   19.6636   -7.5275  -16.4758 C   0  0  0  0  0  0  0  0  0  0  0  0
   21.9578   -8.3613  -16.1503 C   0  0  2  0  0  0  0  0  0  0  0  0
   22.7358   -9.5652  -15.8005 N   0  0  0  0  0  0  0  0  0  0  0  0
   22.1659   -7.3451  -15.0873 C   0  0  0  0  0  0  0  0  0  0  0  0
   21.7676   -7.6699  -13.9134 O   0  0  0  0  0  0  0  0  0  0  0  0
   22.7528   -6.0827  -15.2439 N   0  0  0  0  0  0  0  0  0  0  0  0
   22.8890   -5.2316  -14.0476 C   0  0  0  0  0  0  0  0  0  0  0  0
   21.7869   -4.2459  -13.9918 C   0  0  0  0  0  0  0  0  0  0  0  0
   21.8391   -3.2955  -12.9628 O   0  0  0  0  0  0  0  0  0  0  0  0
   20.8462   -4.2429  -14.8117 O   0  0  0  0  0  0  0  0  0  0  0  0
  1  2  1  0
  3  2  1  0
  4  5  1  0
  4  3  1  0
  5  1  1  0
  6 12  1  0
  5  6  1  6
  7  6  2  0
  9  8  1  6
  9 11  1  0
 10  9  1  0
 11 12  1  1
 11 13  1  0
 13 15  1  0
 14 13  2  0
 15 16  1  0
 17 16  1  0
 17 18  1  0
 19 17  2  0
M  END
$$$$
