PVG.pdb
     RDKit          3D

 19 19  0  0  1  0  0  0  0  0999 V2000
   19.1291  -12.9527  -17.5033 N   0  0  0  0  0  0  0  0  0  0  0  0
   19.1109  -13.9492  -16.4856 C   0  0  0  0  0  0  0  0  0  0  0  0
   18.5003  -13.3728  -15.2503 C   0  0  0  0  0  0  0  0  0  0  0  0
   18.3980  -11.8952  -15.5101 C   0  0  0  0  0  0  0  0  0  0  0  0
   18.8171  -11.6860  -16.9411 C   0  0  1  0  0  0  0  0  0  0  0  0
   20.0004  -10.7968  -17.0571 C   0  0  0  0  0  0  0  0  0  0  0  0
   21.1361  -11.2943  -17.2737 O   0  0  0  0  0  0  0  0  0  0  0  0
   19.2608   -6.8640  -17.8979 C   0  0  0  0  0  0  0  0  0  0  0  0
   20.6245   -7.5057  -18.1459 C   0  0  2  0  0  0  0  0  0  0  0  0
   20.5457   -8.2027  -19.4695 C   0  0  0  0  0  0  0  0  0  0  0  0
   20.9402   -8.5151  -17.0588 C   0  0  2  0  0  0  0  0  0  0  0  0
   19.7762   -9.4102  -16.9140 N   0  0  0  0  0  0  0  0  0  0  0  0
   21.1185   -7.7704  -15.7862 C   0  0  0  0  0  0  0  0  0  0  0  0
   20.0427   -7.4170  -15.1863 O   0  0  0  0  0  0  0  0  0  0  0  0
   22.3362   -7.4258  -15.1853 N   0  0  0  0  0  0  0  0  0  0  0  0
   22.2920   -6.6763  -13.9163 C   0  0  0  0  0  0  0  0  0  0  0  0
   22.2905   -5.2205  -14.1808 C   0  0  0  0  0  0  0  0  0  0  0  0
   22.4055   -4.3750  -13.0688 O   0  0  0  0  0  0  0  0  0  0  0  0
   22.1926   -4.7468  -15.3311 O   0  0  0  0  0  0  0  0  0  0  0  0
  1  2  1  0
  3  2  1  0
  4  5  1  0
  4  3  1  0
  5  1  1  0
  6 12  1  0
  5  6  1  1
  7  6  2  0
  9  8  1  1
  9 11  1  0
 10  9  1  0
 11 12  1  1
 11 13  1  0
 13 15  1  0
 14 13  2  0
 15 16  1  0
 17 16  1  0
 17 18  1  0
 19 17  2  0
M  END
$$$$
