PVG.pdb
     RDKit          3D

 19 19  0  0  1  0  0  0  0  0999 V2000
   28.3987  -20.4804  -15.3933 N   0  0  0  0  0  0  0  0  0  0  0  0
   28.0408  -19.9359  -16.6601 C   0  0  0  0  0  0  0  0  0  0  0  0
   27.4758  -18.5679  -16.4601 C   0  0  0  0  0  0  0  0  0  0  0  0
   27.2734  -18.4346  -14.9760 C   0  0  0  0  0  0  0  0  0  0  0  0
   27.8633  -19.6728  -14.3546 C   0  0  1  0  0  0  0  0  0  0  0  0
   26.8558  -20.4577  -13.5975 C   0  0  0  0  0  0  0  0  0  0  0  0
   26.5481  -21.6156  -13.9834 O   0  0  0  0  0  0  0  0  0  0  0  0
   27.0222  -20.6999   -9.6857 C   0  0  0  0  0  0  0  0  0  0  0  0
   25.6416  -20.2534  -10.1628 C   0  0  2  0  0  0  0  0  0  0  0  0
   24.6352  -20.9289   -9.2827 C   0  0  0  0  0  0  0  0  0  0  0  0
   25.4182  -20.6720  -11.6034 C   0  0  2  0  0  0  0  0  0  0  0  0
   26.2876  -19.8434  -12.4604 N   0  0  0  0  0  0  0  0  0  0  0  0
   24.0040  -20.3765  -11.9475 C   0  0  0  0  0  0  0  0  0  0  0  0
   23.7290  -19.1483  -12.1887 O   0  0  0  0  0  0  0  0  0  0  0  0
   22.9564  -21.3024  -12.0363 N   0  0  0  0  0  0  0  0  0  0  0  0
   21.6035  -20.7890  -12.3190 C   0  0  0  0  0  0  0  0  0  0  0  0
   21.2160  -21.1052  -13.7116 C   0  0  0  0  0  0  0  0  0  0  0  0
   19.9109  -20.7696  -14.0974 O   0  0  0  0  0  0  0  0  0  0  0  0
   21.9982  -21.6447  -14.5205 O   0  0  0  0  0  0  0  0  0  0  0  0
  1  2  1  0
  3  2  1  0
  4  5  1  0
  4  3  1  0
  5  1  1  0
  6 12  1  0
  5  6  1  6
  7  6  2  0
  9  8  1  1
  9 11  1  0
 10  9  1  0
 11 12  1  6
 11 13  1  0
 13 15  1  0
 14 13  2  0
 15 16  1  0
 17 16  1  0
 17 18  1  0
 19 17  2  0
M  END
$$$$
