PVG.pdb
     RDKit          3D

 19 19  0  0  1  0  0  0  0  0999 V2000
   18.8123  -13.6350  -18.2683 N   0  0  0  0  0  0  0  0  0  0  0  0
   17.6486  -13.4366  -19.0656 C   0  0  0  0  0  0  0  0  0  0  0  0
   17.8839  -12.2905  -19.9941 C   0  0  0  0  0  0  0  0  0  0  0  0
   19.1587  -11.6497  -19.5191 C   0  0  0  0  0  0  0  0  0  0  0  0
   19.6949  -12.5328  -18.4236 C   0  0  1  0  0  0  0  0  0  0  0  0
   19.8114  -11.8159  -17.1287 C   0  0  0  0  0  0  0  0  0  0  0  0
   18.9666  -12.0274  -16.2200 O   0  0  0  0  0  0  0  0  0  0  0  0
   22.8392  -11.9374  -15.1429 C   0  0  0  0  0  0  0  0  0  0  0  0
   22.5048  -10.4505  -15.2455 C   0  0  2  0  0  0  0  0  0  0  0  0
   22.6994   -9.8634  -13.8813 C   0  0  0  0  0  0  0  0  0  0  0  0
   21.0639  -10.2606  -15.6791 C   0  0  2  0  0  0  0  0  0  0  0  0
   20.8905  -10.9161  -16.9895 N   0  0  0  0  0  0  0  0  0  0  0  0
   20.8300   -8.8039  -15.8505 C   0  0  0  0  0  0  0  0  0  0  0  0
   21.5927   -8.2071  -16.6897 O   0  0  0  0  0  0  0  0  0  0  0  0
   19.8640   -8.0314  -15.1928 N   0  0  0  0  0  0  0  0  0  0  0  0
   19.6997   -6.6276  -15.6127 C   0  0  0  0  0  0  0  0  0  0  0  0
   20.5200   -5.7384  -14.7608 C   0  0  0  0  0  0  0  0  0  0  0  0
   20.5349   -4.3775  -15.0961 O   0  0  0  0  0  0  0  0  0  0  0  0
   21.1749   -6.1592  -13.7855 O   0  0  0  0  0  0  0  0  0  0  0  0
  1  2  1  0
  3  2  1  0
  4  5  1  0
  4  3  1  0
  5  1  1  0
  6 12  1  0
  5  6  1  1
  7  6  2  0
  9  8  1  1
  9 11  1  0
 10  9  1  0
 11 12  1  6
 11 13  1  0
 13 15  1  0
 14 13  2  0
 15 16  1  0
 17 16  1  0
 17 18  1  0
 19 17  2  0
M  END
$$$$
