PVG.pdb
     RDKit          3D

 19 19  0  0  1  0  0  0  0  0999 V2000
   18.1976  -14.4337  -17.5009 N   0  0  0  0  0  0  0  0  0  0  0  0
   16.8055  -14.3354  -17.7865 C   0  0  0  0  0  0  0  0  0  0  0  0
   16.5709  -13.1498  -18.6642 C   0  0  0  0  0  0  0  0  0  0  0  0
   17.8712  -12.3946  -18.6676 C   0  0  0  0  0  0  0  0  0  0  0  0
   18.8574  -13.2444  -17.9109 C   0  0  1  0  0  0  0  0  0  0  0  0
   19.3979  -12.5501  -16.7150 C   0  0  0  0  0  0  0  0  0  0  0  0
   18.8824  -12.7590  -15.5859 O   0  0  0  0  0  0  0  0  0  0  0  0
   22.9502  -12.5828  -15.6418 C   0  0  0  0  0  0  0  0  0  0  0  0
   22.5430  -11.1163  -15.7705 C   0  0  2  0  0  0  0  0  0  0  0  0
   23.1365  -10.3933  -14.6005 C   0  0  0  0  0  0  0  0  0  0  0  0
   21.0327  -10.9813  -15.7376 C   0  0  2  0  0  0  0  0  0  0  0  0
   20.4859  -11.6740  -16.9200 N   0  0  0  0  0  0  0  0  0  0  0  0
   20.7039   -9.5372  -15.8482 C   0  0  0  0  0  0  0  0  0  0  0  0
   21.0942   -8.9523  -16.9196 O   0  0  0  0  0  0  0  0  0  0  0  0
   20.0124   -8.7648  -14.9059 N   0  0  0  0  0  0  0  0  0  0  0  0
   19.7168   -7.3612  -15.2471 C   0  0  0  0  0  0  0  0  0  0  0  0
   20.7696   -6.4707  -14.7105 C   0  0  0  0  0  0  0  0  0  0  0  0
   20.3417   -5.3071  -14.0566 O   0  0  0  0  0  0  0  0  0  0  0  0
   21.9861   -6.7245  -14.8237 O   0  0  0  0  0  0  0  0  0  0  0  0
  1  2  1  0
  3  2  1  0
  4  5  1  0
  4  3  1  0
  5  1  1  0
  6 12  1  0
  5  6  1  1
  7  6  2  0
  9  8  1  1
  9 11  1  0
 10  9  1  0
 11 12  1  6
 11 13  1  0
 13 15  1  0
 14 13  2  0
 15 16  1  0
 17 16  1  0
 17 18  1  0
 19 17  2  0
M  END
$$$$
