PVG.pdb
     RDKit          3D

 19 19  0  0  1  0  0  0  0  0999 V2000
   22.0344  -12.5346  -19.8519 N   0  0  0  0  0  0  0  0  0  0  0  0
   21.7682  -12.1925  -21.2088 C   0  0  0  0  0  0  0  0  0  0  0  0
   22.5828  -10.9964  -21.5784 C   0  0  0  0  0  0  0  0  0  0  0  0
   23.1504  -10.4865  -20.2826 C   0  0  0  0  0  0  0  0  0  0  0  0
   22.7646  -11.4886  -19.2270 C   0  0  1  0  0  0  0  0  0  0  0  0
   21.9319  -10.8858  -18.1558 C   0  0  0  0  0  0  0  0  0  0  0  0
   20.6840  -11.0495  -18.1686 O   0  0  0  0  0  0  0  0  0  0  0  0
   21.5910   -9.7662  -13.5386 C   0  0  0  0  0  0  0  0  0  0  0  0
   22.2704  -10.3587  -14.7716 C   0  0  2  0  0  0  0  0  0  0  0  0
   23.7446  -10.1579  -14.5976 C   0  0  0  0  0  0  0  0  0  0  0  0
   21.8056   -9.6449  -16.0265 C   0  0  2  0  0  0  0  0  0  0  0  0
   22.6062  -10.1456  -17.1604 N   0  0  0  0  0  0  0  0  0  0  0  0
   22.0901   -8.1971  -15.8566 C   0  0  0  0  0  0  0  0  0  0  0  0
   23.3109   -7.8417  -16.0160 O   0  0  0  0  0  0  0  0  0  0  0  0
   21.1609   -7.1955  -15.5466 N   0  0  0  0  0  0  0  0  0  0  0  0
   21.6548   -5.8125  -15.4155 C   0  0  0  0  0  0  0  0  0  0  0  0
   21.7550   -5.4372  -13.9878 C   0  0  0  0  0  0  0  0  0  0  0  0
   22.1897   -4.1351  -13.7044 O   0  0  0  0  0  0  0  0  0  0  0  0
   21.4710   -6.2268  -13.0642 O   0  0  0  0  0  0  0  0  0  0  0  0
  1  2  1  0
  3  2  1  0
  4  5  1  0
  4  3  1  0
  5  1  1  0
  6 12  1  0
  5  6  1  1
  7  6  2  0
  9  8  1  1
  9 11  1  0
 10  9  1  0
 11 12  1  6
 11 13  1  0
 13 15  1  0
 14 13  2  0
 15 16  1  0
 17 16  1  0
 17 18  1  0
 19 17  2  0
M  END
$$$$
