PVG.pdb
     RDKit          3D

 19 19  0  0  1  0  0  0  0  0999 V2000
   19.2088  -13.7770  -16.3298 N   0  0  0  0  0  0  0  0  0  0  0  0
   18.0698  -14.2326  -15.6057 C   0  0  0  0  0  0  0  0  0  0  0  0
   16.9421  -13.2770  -15.8201 C   0  0  0  0  0  0  0  0  0  0  0  0
   17.5556  -12.0849  -16.5010 C   0  0  0  0  0  0  0  0  0  0  0  0
   18.9875  -12.4510  -16.7889 C   0  0  1  0  0  0  0  0  0  0  0  0
   19.9478  -11.5374  -16.1200 C   0  0  0  0  0  0  0  0  0  0  0  0
   20.4958  -11.8879  -15.0425 O   0  0  0  0  0  0  0  0  0  0  0  0
   22.9868  -10.1690  -17.6834 C   0  0  0  0  0  0  0  0  0  0  0  0
   22.1742   -8.9729  -17.1915 C   0  0  2  0  0  0  0  0  0  0  0  0
   23.1467   -7.9923  -16.6115 C   0  0  0  0  0  0  0  0  0  0  0  0
   21.1902   -9.4053  -16.1215 C   0  0  2  0  0  0  0  0  0  0  0  0
   20.1960  -10.2975  -16.7481 N   0  0  0  0  0  0  0  0  0  0  0  0
   20.4872   -8.1910  -15.6343 C   0  0  0  0  0  0  0  0  0  0  0  0
   19.7339   -7.5984  -16.4850 O   0  0  0  0  0  0  0  0  0  0  0  0
   20.5655   -7.6418  -14.3479 N   0  0  0  0  0  0  0  0  0  0  0  0
   19.7902   -6.4185  -14.0713 C   0  0  0  0  0  0  0  0  0  0  0  0
   20.5955   -5.2186  -14.3894 C   0  0  0  0  0  0  0  0  0  0  0  0
   19.9485   -3.9788  -14.2951 O   0  0  0  0  0  0  0  0  0  0  0  0
   21.7949   -5.2847  -14.7275 O   0  0  0  0  0  0  0  0  0  0  0  0
  1  2  1  0
  3  2  1  0
  4  5  1  0
  4  3  1  0
  5  1  1  0
  6 12  1  0
  5  6  1  1
  7  6  2  0
  9  8  1  1
  9 11  1  0
 10  9  1  0
 11 12  1  6
 11 13  1  0
 13 15  1  0
 14 13  2  0
 15 16  1  0
 17 16  1  0
 17 18  1  0
 19 17  2  0
M  END
$$$$
