PVG.pdb
     RDKit          3D

 19 19  0  0  1  0  0  0  0  0999 V2000
   19.5040  -13.6775  -18.4267 N   0  0  0  0  0  0  0  0  0  0  0  0
   18.3618  -13.4625  -19.2502 C   0  0  0  0  0  0  0  0  0  0  0  0
   18.5913  -12.2525  -20.0953 C   0  0  0  0  0  0  0  0  0  0  0  0
   19.8287  -11.6063  -19.5361 C   0  0  0  0  0  0  0  0  0  0  0  0
   20.3559  -12.5420  -18.4807 C   0  0  1  0  0  0  0  0  0  0  0  0
   20.4065  -11.9069  -17.1396 C   0  0  0  0  0  0  0  0  0  0  0  0
   19.4598  -12.0836  -16.3292 O   0  0  0  0  0  0  0  0  0  0  0  0
   22.9356  -12.5525  -14.7497 C   0  0  0  0  0  0  0  0  0  0  0  0
   22.9337  -11.0294  -14.8648 C   0  0  2  0  0  0  0  0  0  0  0  0
   23.0524  -10.4855  -13.4742 C   0  0  0  0  0  0  0  0  0  0  0  0
   21.6384  -10.5472  -15.4895 C   0  0  2  0  0  0  0  0  0  0  0  0
   21.5427  -11.1222  -16.8449 N   0  0  0  0  0  0  0  0  0  0  0  0
   21.7171   -9.0692  -15.6131 C   0  0  0  0  0  0  0  0  0  0  0  0
   22.6939   -8.6144  -16.3067 O   0  0  0  0  0  0  0  0  0  0  0  0
   20.8331   -8.1374  -15.0537 N   0  0  0  0  0  0  0  0  0  0  0  0
   21.0981   -6.7064  -15.2900 C   0  0  0  0  0  0  0  0  0  0  0  0
   21.5544   -6.0567  -14.0413 C   0  0  0  0  0  0  0  0  0  0  0  0
   21.9149   -4.7049  -14.1263 O   0  0  0  0  0  0  0  0  0  0  0  0
   21.6226   -6.6649  -12.9538 O   0  0  0  0  0  0  0  0  0  0  0  0
  1  2  1  0
  3  2  1  0
  4  5  1  0
  4  3  1  0
  5  1  1  0
  6 12  1  0
  5  6  1  1
  7  6  2  0
  9  8  1  1
  9 11  1  0
 10  9  1  0
 11 12  1  6
 11 13  1  0
 13 15  1  0
 14 13  2  0
 15 16  1  0
 17 16  1  0
 17 18  1  0
 19 17  2  0
M  END
$$$$
