PVG.pdb
     RDKit          3D

 19 19  0  0  1  0  0  0  0  0999 V2000
   26.4101  -13.1739  -17.0276 N   0  0  0  0  0  0  0  0  0  0  0  0
   27.8204  -13.0304  -17.1674 C   0  0  0  0  0  0  0  0  0  0  0  0
   28.3462  -12.2393  -16.0148 C   0  0  0  0  0  0  0  0  0  0  0  0
   27.1295  -11.6942  -15.3192 C   0  0  0  0  0  0  0  0  0  0  0  0
   25.9379  -12.3074  -16.0058 C   0  0  1  0  0  0  0  0  0  0  0  0
   25.0468  -11.2840  -16.6082 C   0  0  0  0  0  0  0  0  0  0  0  0
   24.9936  -11.1616  -17.8598 O   0  0  0  0  0  0  0  0  0  0  0  0
   21.7635  -11.4012  -16.9757 C   0  0  0  0  0  0  0  0  0  0  0  0
   21.9282  -10.1478  -16.1184 C   0  0  2  0  0  0  0  0  0  0  0  0
   20.8953   -9.1650  -16.5779 C   0  0  0  0  0  0  0  0  0  0  0  0
   23.3117   -9.5555  -16.3068 C   0  0  2  0  0  0  0  0  0  0  0  0
   24.2923  -10.4882  -15.7190 N   0  0  0  0  0  0  0  0  0  0  0  0
   23.3663   -8.2801  -15.5476 C   0  0  0  0  0  0  0  0  0  0  0  0
   23.2543   -8.3784  -14.2748 O   0  0  0  0  0  0  0  0  0  0  0  0
   23.5307   -6.9966  -16.0844 N   0  0  0  0  0  0  0  0  0  0  0  0
   23.6130   -5.8616  -15.1468 C   0  0  0  0  0  0  0  0  0  0  0  0
   22.2654   -5.3029  -14.8992 C   0  0  0  0  0  0  0  0  0  0  0  0
   22.1705   -4.2765  -13.9494 O   0  0  0  0  0  0  0  0  0  0  0  0
   21.2487   -5.7113  -15.4964 O   0  0  0  0  0  0  0  0  0  0  0  0
  1  2  1  0
  3  2  1  0
  4  5  1  0
  4  3  1  0
  5  1  1  0
  6 12  1  0
  5  6  1  6
  7  6  2  0
  9  8  1  6
  9 11  1  0
 10  9  1  0
 11 12  1  1
 11 13  1  0
 13 15  1  0
 14 13  2  0
 15 16  1  0
 17 16  1  0
 17 18  1  0
 19 17  2  0
M  END
$$$$
