PVG.pdb
     RDKit          3D

 19 19  0  0  1  0  0  0  0  0999 V2000
   19.6652  -20.5293  -10.1100 N   0  0  0  0  0  0  0  0  0  0  0  0
   18.8495  -21.0142  -11.1723 C   0  0  0  0  0  0  0  0  0  0  0  0
   19.2698  -22.4065  -11.5127 C   0  0  0  0  0  0  0  0  0  0  0  0
   20.5582  -22.6256  -10.7689 C   0  0  0  0  0  0  0  0  0  0  0  0
   20.7642  -21.4068   -9.9090 C   0  0  1  0  0  0  0  0  0  0  0  0
   22.0239  -20.6927  -10.2368 C   0  0  0  0  0  0  0  0  0  0  0  0
   21.9778  -19.5093  -10.6633 O   0  0  0  0  0  0  0  0  0  0  0  0
   24.6892  -20.1791   -7.8082 C   0  0  0  0  0  0  0  0  0  0  0  0
   25.3492  -20.8432   -9.0151 C   0  0  2  0  0  0  0  0  0  0  0  0
   26.6702  -20.1668   -9.2184 C   0  0  0  0  0  0  0  0  0  0  0  0
   24.4913  -20.6639  -10.2530 C   0  0  2  0  0  0  0  0  0  0  0  0
   23.2302  -21.4012  -10.0460 N   0  0  0  0  0  0  0  0  0  0  0  0
   25.2109  -21.2803  -11.3967 C   0  0  0  0  0  0  0  0  0  0  0  0
   25.6976  -22.4478  -11.1911 O   0  0  0  0  0  0  0  0  0  0  0  0
   25.4018  -20.7150  -12.6642 N   0  0  0  0  0  0  0  0  0  0  0  0
   26.1891  -21.4790  -13.6493 C   0  0  0  0  0  0  0  0  0  0  0  0
   26.1632  -20.7998  -14.9637 C   0  0  0  0  0  0  0  0  0  0  0  0
   25.1876  -21.2241  -15.8763 O   0  0  0  0  0  0  0  0  0  0  0  0
   26.9625  -19.8904  -15.2658 O   0  0  0  0  0  0  0  0  0  0  0  0
  1  2  1  0
  3  2  1  0
  4  5  1  0
  4  3  1  0
  5  1  1  0
  6 12  1  0
  5  6  1  6
  7  6  2  0
  9  8  1  1
  9 11  1  0
 10  9  1  0
 11 12  1  1
 11 13  1  0
 13 15  1  0
 14 13  2  0
 15 16  1  0
 17 16  1  0
 17 18  1  0
 19 17  2  0
M  END
$$$$
