AKQ.pdb
     RDKit          3D

 24 23  0  0  1  0  0  0  0  0999 V2000
   27.7964  -18.4722  -15.2190 C   0  0  0  0  0  0  0  0  0  0  0  0
   27.2576  -19.8722  -15.0558 C   0  0  2  0  0  0  0  0  0  0  0  0
   28.1549  -20.7970  -15.7183 N   0  0  0  0  0  0  0  0  0  0  0  0
   25.9039  -20.0379  -15.5816 C   0  0  0  0  0  0  0  0  0  0  0  0
   25.6258  -20.3815  -16.7582 O   0  0  0  0  0  0  0  0  0  0  0  0
   24.8079  -19.7962  -14.7094 N   0  0  0  0  0  0  0  0  0  0  0  0
   23.4350  -19.8414  -15.1288 C   0  0  1  0  0  0  0  0  0  0  0  0
   22.6212  -20.3525  -13.9476 C   0  0  0  0  0  0  0  0  0  0  0  0
   21.3874  -21.0436  -14.5195 C   0  0  0  0  0  0  0  0  0  0  0  0
   20.4946  -21.4113  -13.3358 C   0  0  0  0  0  0  0  0  0  0  0  0
   19.2399  -22.0274  -13.9041 C   0  0  0  0  0  0  0  0  0  0  0  0
   18.3143  -22.3113  -12.8328 N   0  0  0  0  0  0  0  0  0  0  0  0
   22.9021  -18.5313  -15.5276 C   0  0  0  0  0  0  0  0  0  0  0  0
   22.9538  -17.5889  -14.6996 O   0  0  0  0  0  0  0  0  0  0  0  0
   24.7231  -14.9796  -19.8152 N   0  0  0  0  0  0  0  0  0  0  0  0
   23.4901  -14.3671  -19.5055 C   0  0  0  0  0  0  0  0  0  0  0  0
   23.2356  -13.2419  -19.9927 O   0  0  0  0  0  0  0  0  0  0  0  0
   22.5139  -15.0329  -18.6343 C   0  0  0  0  0  0  0  0  0  0  0  0
   22.8794  -16.3800  -18.1262 C   0  0  0  0  0  0  0  0  0  0  0  0
   21.8871  -16.9895  -17.2232 C   0  0  2  0  0  0  0  0  0  0  0  0
   22.3499  -18.3202  -16.7871 N   0  0  0  0  0  0  0  0  0  0  0  0
   20.5078  -17.0902  -17.5988 C   0  0  0  0  0  0  0  0  0  0  0  0
   19.9140  -18.1421  -17.9772 O   0  0  0  0  0  0  0  0  0  0  0  0
   19.6953  -15.9361  -17.5589 O   0  0  0  0  0  0  0  0  0  0  0  0
  2  1  1  6
  2  4  1  0
  2  3  1  0
  4  5  2  0
  6  7  1  0
  6  4  1  0
  7  8  1  1
  8  9  1  0
 10  9  1  0
 11 10  1  0
 12 11  1  0
 13  7  1  0
 13 14  2  0
 15 16  1  0
 16 17  2  0
 18 19  1  0
 18 16  1  0
 20 19  1  6
 20 21  1  0
 20 22  1  0
 21 13  1  0
 22 24  1  0
 23 22  2  0
M  END
$$$$
