AKQ.pdb
     RDKit          3D

 24 23  0  0  1  0  0  0  0  0999 V2000
   14.5044  -10.6115  -14.5650 C   0  0  0  0  0  0  0  0  0  0  0  0
   15.2817  -11.5199  -15.4856 C   0  0  2  0  0  0  0  0  0  0  0  0
   14.9653  -12.8956  -15.1591 N   0  0  0  0  0  0  0  0  0  0  0  0
   16.7276  -11.3175  -15.4154 C   0  0  0  0  0  0  0  0  0  0  0  0
   17.4079  -11.3460  -14.3590 O   0  0  0  0  0  0  0  0  0  0  0  0
   17.4326  -11.0686  -16.6243 N   0  0  0  0  0  0  0  0  0  0  0  0
   18.8547  -10.8780  -16.6887 C   0  0  1  0  0  0  0  0  0  0  0  0
   19.3295  -11.4806  -18.0041 C   0  0  0  0  0  0  0  0  0  0  0  0
   19.8274  -12.8895  -17.6973 C   0  0  0  0  0  0  0  0  0  0  0  0
   20.2772  -13.5009  -19.0229 C   0  0  0  0  0  0  0  0  0  0  0  0
   20.7133  -14.9156  -18.7308 C   0  0  0  0  0  0  0  0  0  0  0  0
   21.2202  -15.5229  -19.9388 N   0  0  0  0  0  0  0  0  0  0  0  0
   19.2574   -9.4652  -16.6532 C   0  0  0  0  0  0  0  0  0  0  0  0
   18.5356   -8.6239  -17.2429 O   0  0  0  0  0  0  0  0  0  0  0  0
   22.4173   -6.8401  -11.8746 N   0  0  0  0  0  0  0  0  0  0  0  0
   22.2165   -5.7783  -12.7821 C   0  0  0  0  0  0  0  0  0  0  0  0
   22.5583   -4.6221  -12.4439 O   0  0  0  0  0  0  0  0  0  0  0  0
   21.6245   -6.0167  -14.1043 C   0  0  0  0  0  0  0  0  0  0  0  0
   21.1763   -7.4022  -14.3971 C   0  0  0  0  0  0  0  0  0  0  0  0
   20.7147   -7.6227  -15.7791 C   0  0  2  0  0  0  0  0  0  0  0  0
   20.4065   -9.0498  -15.9878 N   0  0  0  0  0  0  0  0  0  0  0  0
   21.4785   -7.1557  -16.8980 C   0  0  0  0  0  0  0  0  0  0  0  0
   22.3389   -7.8236  -17.5431 O   0  0  0  0  0  0  0  0  0  0  0  0
   21.2886   -5.8354  -17.3609 O   0  0  0  0  0  0  0  0  0  0  0  0
  2  1  1  1
  2  4  1  0
  2  3  1  0
  4  5  2  0
  6  7  1  0
  6  4  1  0
  7  8  1  6
  8  9  1  0
 10  9  1  0
 11 10  1  0
 12 11  1  0
 13  7  1  0
 13 14  2  0
 15 16  1  0
 16 17  2  0
 18 19  1  0
 18 16  1  0
 20 19  1  1
 20 21  1  0
 20 22  1  0
 21 13  1  0
 22 24  1  0
 23 22  2  0
M  END
$$$$
