AKQ.pdb
     RDKit          3D

 24 23  0  0  1  0  0  0  0  0999 V2000
   26.9108  -18.8864  -16.2661 C   0  0  0  0  0  0  0  0  0  0  0  0
   26.3510  -20.1931  -15.7601 C   0  0  2  0  0  0  0  0  0  0  0  0
   26.8676  -21.2701  -16.5801 N   0  0  0  0  0  0  0  0  0  0  0  0
   24.8899  -20.2354  -15.7555 C   0  0  0  0  0  0  0  0  0  0  0  0
   24.1704  -20.3640  -16.7780 O   0  0  0  0  0  0  0  0  0  0  0  0
   24.2165  -20.1240  -14.5087 N   0  0  0  0  0  0  0  0  0  0  0  0
   22.7868  -20.1479  -14.3742 C   0  0  1  0  0  0  0  0  0  0  0  0
   22.4739  -20.0517  -12.8870 C   0  0  0  0  0  0  0  0  0  0  0  0
   20.9715  -20.2644  -12.7308 C   0  0  0  0  0  0  0  0  0  0  0  0
   20.7067  -21.7514  -12.9587 C   0  0  0  0  0  0  0  0  0  0  0  0
   19.2263  -21.9707  -12.7651 C   0  0  0  0  0  0  0  0  0  0  0  0
   18.9199  -23.3711  -12.9376 N   0  0  0  0  0  0  0  0  0  0  0  0
   22.1161  -19.0365  -15.0627 C   0  0  0  0  0  0  0  0  0  0  0  0
   22.4636  -17.8633  -14.7808 O   0  0  0  0  0  0  0  0  0  0  0  0
   22.0025  -17.3482  -20.6482 N   0  0  0  0  0  0  0  0  0  0  0  0
   20.8799  -16.6356  -20.1754 C   0  0  0  0  0  0  0  0  0  0  0  0
   20.3382  -15.7939  -20.9279 O   0  0  0  0  0  0  0  0  0  0  0  0
   20.3453  -16.8753  -18.8292 C   0  0  0  0  0  0  0  0  0  0  0  0
   21.0080  -17.9333  -18.0244 C   0  0  0  0  0  0  0  0  0  0  0  0
   20.4273  -18.1465  -16.6869 C   0  0  2  0  0  0  0  0  0  0  0  0
   21.1183  -19.2577  -16.0066 N   0  0  0  0  0  0  0  0  0  0  0  0
   19.0151  -18.3158  -16.5115 C   0  0  0  0  0  0  0  0  0  0  0  0
   18.1362  -17.4129  -16.6324 O   0  0  0  0  0  0  0  0  0  0  0  0
   18.5093  -19.5896  -16.1721 O   0  0  0  0  0  0  0  0  0  0  0  0
  2  1  1  6
  2  4  1  0
  2  3  1  0
  4  5  2  0
  6  7  1  0
  6  4  1  0
  7  8  1  1
  8  9  1  0
 10  9  1  0
 11 10  1  0
 12 11  1  0
 13  7  1  0
 13 14  2  0
 15 16  1  0
 16 17  2  0
 18 19  1  0
 18 16  1  0
 20 19  1  6
 20 21  1  0
 20 22  1  0
 21 13  1  0
 22 24  1  0
 23 22  2  0
M  END
$$$$
