RDH.pdb
     RDKit          3D

 30 30  0  0  1  0  0  0  0  0999 V2000
   27.2961  -17.8782  -19.2047 N   0  0  0  0  0  0  0  0  0  0  0  0
   26.2426  -16.9324  -19.3799 C   0  0  0  0  0  0  0  0  0  0  0  0
   25.9074  -16.5770  -20.5602 N   0  0  0  0  0  0  0  0  0  0  0  0
   25.5691  -16.3898  -18.2271 N   0  0  0  0  0  0  0  0  0  0  0  0
   26.3620  -16.1042  -17.0597 C   0  0  0  0  0  0  0  0  0  0  0  0
   26.0632  -17.1721  -16.0308 C   0  0  0  0  0  0  0  0  0  0  0  0
   27.2743  -17.4965  -15.1949 C   0  0  0  0  0  0  0  0  0  0  0  0
   27.6556  -18.9530  -15.3323 C   0  0  2  0  0  0  0  0  0  0  0  0
   27.7540  -19.3643  -16.7068 N   0  0  0  0  0  0  0  0  0  0  0  0
   26.7184  -19.8479  -14.6236 C   0  0  0  0  0  0  0  0  0  0  0  0
   26.0533  -20.7230  -15.2603 O   0  0  0  0  0  0  0  0  0  0  0  0
   25.2222  -15.8212  -20.7389 N   0  0  0  0  0  0  0  0  0  0  0  0
   26.5635  -19.7276  -13.2336 C   0  0  2  0  0  0  0  0  0  0  0  0
   25.6672  -20.6663  -12.4923 C   0  0  0  0  0  0  0  0  0  0  0  0
   26.0968  -20.5719  -11.0673 C   0  0  0  0  0  0  0  0  0  0  0  0
   25.4074  -21.3575  -10.0868 O   0  0  0  0  0  0  0  0  0  0  0  0
   25.0865  -21.1190   -8.9095 C   0  0  0  0  0  0  0  0  0  0  0  0
   24.3301  -20.0884  -12.6706 O   0  0  0  0  0  0  0  0  0  0  0  0
   24.1294  -18.8453  -12.4848 O   0  0  0  0  0  0  0  0  0  0  0  0
   25.0013  -22.6620  -10.5134 N   0  0  0  0  0  0  0  0  0  0  0  0
   23.2202  -20.8343  -13.0504 C   0  0  2  0  0  0  0  0  0  0  0  0
   21.8533  -20.2377  -13.0590 C   0  0  0  0  0  0  0  0  0  0  0  0
   21.2887  -20.6704  -14.3938 C   0  0  0  0  0  0  0  0  0  0  0  0
   21.6863  -19.8007  -15.5216 C   0  0  0  0  0  0  0  0  0  0  0  0
   22.2073  -18.5229  -15.3322 N   0  0  0  0  0  0  0  0  0  0  0  0
   22.4616  -18.0102  -16.5315 C   0  0  0  0  0  0  0  0  0  0  0  0
   22.1154  -18.9262  -17.4370 N   0  0  0  0  0  0  0  0  0  0  0  0
   21.6386  -20.0289  -16.8350 C   0  0  0  0  0  0  0  0  0  0  0  0
   21.1511  -20.8276  -11.9079 O   0  0  0  0  0  0  0  0  0  0  0  0
   19.9078  -20.3694  -11.5373 O   0  0  0  0  0  0  0  0  0  0  0  0
  1  2  1  0
  2  3  2  0
  4  2  1  0
  5  4  1  0
  6  5  1  0
  7  6  1  0
  8 10  1  0
  8  7  1  0
  8  9  1  6
 10 11  2  0
 12 13  1  0
 12 10  1  0
 13 14  1  1
 15 19  1  0
 15 14  1  0
 16 15  2  0
 17 13  1  0
 18 17  2  0
 20 17  1  0
 21 20  1  0
 21 22  1  6
 23 22  1  0
 24 23  2  0
 25 24  1  0
 26 25  1  0
 26 27  2  0
 27 23  1  0
 28 21  1  0
 28 29  1  0
 30 28  2  0
M  END
$$$$
