RDH.pdb
     RDKit          3D

 30 30  0  0  1  0  0  0  0  0999 V2000
   25.0362  -23.6057  -14.5714 N   0  0  0  0  0  0  0  0  0  0  0  0
   26.0637  -23.7226  -15.5541 C   0  0  0  0  0  0  0  0  0  0  0  0
   26.2233  -24.8319  -16.1672 N   0  0  0  0  0  0  0  0  0  0  0  0
   26.9080  -22.5913  -15.8446 N   0  0  0  0  0  0  0  0  0  0  0  0
   26.7415  -21.4068  -15.0431 C   0  0  0  0  0  0  0  0  0  0  0  0
   27.6882  -20.3552  -15.5780 C   0  0  0  0  0  0  0  0  0  0  0  0
   27.5503  -20.1864  -17.0690 C   0  0  0  0  0  0  0  0  0  0  0  0
   27.1796  -18.7641  -17.4233 C   0  0  2  0  0  0  0  0  0  0  0  0
   28.2217  -17.8298  -17.0928 N   0  0  0  0  0  0  0  0  0  0  0  0
   25.9210  -18.3353  -16.7802 C   0  0  0  0  0  0  0  0  0  0  0  0
   25.9290  -17.4484  -15.8708 O   0  0  0  0  0  0  0  0  0  0  0  0
   27.0173  -25.0016  -16.8101 N   0  0  0  0  0  0  0  0  0  0  0  0
   24.7067  -18.9149  -17.1799 C   0  0  2  0  0  0  0  0  0  0  0  0
   23.4158  -18.4306  -16.6029 C   0  0  0  0  0  0  0  0  0  0  0  0
   22.4579  -18.4193  -17.7458 C   0  0  0  0  0  0  0  0  0  0  0  0
   21.4729  -17.3802  -17.8086 O   0  0  0  0  0  0  0  0  0  0  0  0
   21.2326  -16.4191  -17.0573 C   0  0  0  0  0  0  0  0  0  0  0  0
   23.0537  -19.4700  -15.6324 O   0  0  0  0  0  0  0  0  0  0  0  0
   23.5060  -20.6541  -15.7492 O   0  0  0  0  0  0  0  0  0  0  0  0
   20.5887  -17.4331  -18.9329 N   0  0  0  0  0  0  0  0  0  0  0  0
   22.2198  -19.2415  -14.5439 C   0  0  1  0  0  0  0  0  0  0  0  0
   21.9388  -20.3137  -13.5460 C   0  0  0  0  0  0  0  0  0  0  0  0
   22.6220  -19.8152  -12.2920 C   0  0  0  0  0  0  0  0  0  0  0  0
   23.8766  -20.5286  -11.9705 C   0  0  0  0  0  0  0  0  0  0  0  0
   24.3590  -21.5792  -12.7475 N   0  0  0  0  0  0  0  0  0  0  0  0
   25.4937  -21.9985  -12.1975 C   0  0  0  0  0  0  0  0  0  0  0  0
   25.7159  -21.2440  -11.1205 N   0  0  0  0  0  0  0  0  0  0  0  0
   24.7348  -20.3387  -10.9672 C   0  0  0  0  0  0  0  0  0  0  0  0
   20.4732  -20.3773  -13.4277 O   0  0  0  0  0  0  0  0  0  0  0  0
   19.8641  -21.4746  -12.8638 O   0  0  0  0  0  0  0  0  0  0  0  0
  1  2  1  0
  2  3  2  0
  4  2  1  0
  5  4  1  0
  6  5  1  0
  7  6  1  0
  8 10  1  0
  8  7  1  0
  8  9  1  1
 10 11  2  0
 12 13  1  0
 12 10  1  0
 13 14  1  6
 15 19  1  0
 15 14  1  0
 16 15  2  0
 17 13  1  0
 18 17  2  0
 20 17  1  0
 21 20  1  0
 21 22  1  6
 23 22  1  0
 24 23  2  0
 25 24  1  0
 26 25  1  0
 26 27  2  0
 27 23  1  0
 28 21  1  0
 28 29  1  0
 30 28  2  0
M  END
$$$$
