RDH.pdb
     RDKit          3D

 30 30  0  0  1  0  0  0  0  0999 V2000
   21.4404  -21.6272   -7.3956 N   0  0  0  0  0  0  0  0  0  0  0  0
   21.2388  -20.9628   -8.6418 C   0  0  0  0  0  0  0  0  0  0  0  0
   20.0909  -21.0100   -9.2004 N   0  0  0  0  0  0  0  0  0  0  0  0
   22.3287  -20.2467   -9.2554 N   0  0  0  0  0  0  0  0  0  0  0  0
   23.6142  -20.8935   -9.3020 C   0  0  0  0  0  0  0  0  0  0  0  0
   24.6035  -19.9050   -9.8787 C   0  0  0  0  0  0  0  0  0  0  0  0
   25.8517  -20.5887  -10.3739 C   0  0  0  0  0  0  0  0  0  0  0  0
   25.5572  -21.4513  -11.5801 C   0  0  2  0  0  0  0  0  0  0  0  0
   26.4612  -22.5645  -11.6889 N   0  0  0  0  0  0  0  0  0  0  0  0
   25.5812  -20.6813  -12.8402 C   0  0  0  0  0  0  0  0  0  0  0  0
   26.3223  -19.6564  -12.9578 O   0  0  0  0  0  0  0  0  0  0  0  0
   19.8940  -20.5450  -10.1046 N   0  0  0  0  0  0  0  0  0  0  0  0
   24.7766  -21.0886  -13.9159 C   0  0  2  0  0  0  0  0  0  0  0  0
   24.8873  -20.4039  -15.2399 C   0  0  0  0  0  0  0  0  0  0  0  0
   25.0763  -21.5014  -16.2317 C   0  0  0  0  0  0  0  0  0  0  0  0
   26.3487  -21.6343  -16.8775 O   0  0  0  0  0  0  0  0  0  0  0  0
   27.5096  -21.6260  -16.4321 C   0  0  0  0  0  0  0  0  0  0  0  0
   23.5775  -19.7658  -15.4152 O   0  0  0  0  0  0  0  0  0  0  0  0
   22.5297  -20.2836  -14.9111 O   0  0  0  0  0  0  0  0  0  0  0  0
   26.3065  -21.8101  -18.2974 N   0  0  0  0  0  0  0  0  0  0  0  0
   23.3932  -18.5811  -16.1187 C   0  0  2  0  0  0  0  0  0  0  0  0
   22.0468  -17.9493  -16.2307 C   0  0  0  0  0  0  0  0  0  0  0  0
   22.3390  -16.6080  -16.8657 C   0  0  0  0  0  0  0  0  0  0  0  0
   21.1380  -15.7715  -17.0760 C   0  0  0  0  0  0  0  0  0  0  0  0
   19.8797  -16.1389  -16.6049 N   0  0  0  0  0  0  0  0  0  0  0  0
   19.0248  -15.1830  -16.9532 C   0  0  0  0  0  0  0  0  0  0  0  0
   19.7155  -14.2539  -17.6152 N   0  0  0  0  0  0  0  0  0  0  0  0
   21.0114  -14.5990  -17.6993 C   0  0  0  0  0  0  0  0  0  0  0  0
   21.2548  -18.8433  -17.0906 O   0  0  0  0  0  0  0  0  0  0  0  0
   19.9006  -18.9851  -16.8929 O   0  0  0  0  0  0  0  0  0  0  0  0
  1  2  1  0
  2  3  2  0
  4  2  1  0
  5  4  1  0
  6  5  1  0
  7  6  1  0
  8 10  1  0
  8  7  1  0
  8  9  1  6
 10 11  2  0
 12 13  1  0
 12 10  1  0
 13 14  1  1
 15 19  1  0
 15 14  1  0
 16 15  2  0
 17 13  1  0
 18 17  2  0
 20 17  1  0
 21 20  1  0
 21 22  1  1
 23 22  1  0
 24 23  2  0
 25 24  1  0
 26 25  1  0
 26 27  2  0
 27 23  1  0
 28 21  1  0
 28 29  1  0
 30 28  2  0
M  END
$$$$
