RDH.pdb
     RDKit          3D

 30 30  0  0  1  0  0  0  0  0999 V2000
   13.4862  -14.1193  -15.4524 N   0  0  0  0  0  0  0  0  0  0  0  0
   12.4994  -13.2076  -15.9319 C   0  0  0  0  0  0  0  0  0  0  0  0
   11.2984  -13.3011  -15.5068 N   0  0  0  0  0  0  0  0  0  0  0  0
   12.8666  -12.1932  -16.8875 N   0  0  0  0  0  0  0  0  0  0  0  0
   14.2546  -12.0899  -17.2560 C   0  0  0  0  0  0  0  0  0  0  0  0
   14.9821  -11.4132  -16.1153 C   0  0  0  0  0  0  0  0  0  0  0  0
   16.4293  -11.1587  -16.4489 C   0  0  0  0  0  0  0  0  0  0  0  0
   17.1145  -10.3870  -15.3440 C   0  0  2  0  0  0  0  0  0  0  0  0
   16.1835   -9.6419  -14.5400 N   0  0  0  0  0  0  0  0  0  0  0  0
   18.1525   -9.4712  -15.8592 C   0  0  0  0  0  0  0  0  0  0  0  0
   18.9878   -9.8656  -16.7312 O   0  0  0  0  0  0  0  0  0  0  0  0
   10.5477  -12.6591  -15.8182 N   0  0  0  0  0  0  0  0  0  0  0  0
   18.2138   -8.1537  -15.3789 C   0  0  1  0  0  0  0  0  0  0  0  0
   19.1134   -7.1553  -16.0331 C   0  0  0  0  0  0  0  0  0  0  0  0
   18.6590   -5.8291  -15.5245 C   0  0  0  0  0  0  0  0  0  0  0  0
   17.5083   -5.2196  -16.1229 O   0  0  0  0  0  0  0  0  0  0  0  0
   16.9373   -5.4153  -17.2100 C   0  0  0  0  0  0  0  0  0  0  0  0
   20.4434   -7.4847  -15.5077 O   0  0  0  0  0  0  0  0  0  0  0  0
   20.6412   -7.5819  -14.2541 O   0  0  0  0  0  0  0  0  0  0  0  0
   16.8797   -4.1924  -15.3494 N   0  0  0  0  0  0  0  0  0  0  0  0
   21.5494   -7.7138  -16.3182 C   0  0  2  0  0  0  0  0  0  0  0  0
   22.8954   -7.9793  -15.7332 C   0  0  0  0  0  0  0  0  0  0  0  0
   23.2472   -9.3501  -16.2670 C   0  0  0  0  0  0  0  0  0  0  0  0
   24.6578   -9.7342  -16.0457 C   0  0  0  0  0  0  0  0  0  0  0  0
   25.0683  -10.4601  -14.9302 N   0  0  0  0  0  0  0  0  0  0  0  0
   26.3811  -10.6414  -15.0288 C   0  0  0  0  0  0  0  0  0  0  0  0
   26.7796  -10.0547  -16.1582 N   0  0  0  0  0  0  0  0  0  0  0  0
   25.7363   -9.4942  -16.7930 C   0  0  0  0  0  0  0  0  0  0  0  0
   23.7712   -6.9113  -16.2414 O   0  0  0  0  0  0  0  0  0  0  0  0
   23.3208   -6.0355  -17.2023 O   0  0  0  0  0  0  0  0  0  0  0  0
  1  2  1  0
  2  3  2  0
  4  2  1  0
  5  4  1  0
  6  5  1  0
  7  6  1  0
  8 10  1  0
  8  7  1  0
  8  9  1  6
 10 11  2  0
 12 13  1  0
 12 10  1  0
 13 14  1  6
 15 19  1  0
 15 14  1  0
 16 15  2  0
 17 13  1  0
 18 17  2  0
 20 17  1  0
 21 20  1  0
 21 22  1  6
 23 22  1  0
 24 23  2  0
 25 24  1  0
 26 25  1  0
 26 27  2  0
 27 23  1  0
 28 21  1  0
 28 29  1  0
 30 28  2  0
M  END
$$$$
