RDH.pdb
     RDKit          3D

 30 30  0  0  1  0  0  0  0  0999 V2000
   15.9583  -14.9480  -18.6459 N   0  0  0  0  0  0  0  0  0  0  0  0
   15.1280  -14.0668  -17.8914 C   0  0  0  0  0  0  0  0  0  0  0  0
   13.9181  -13.8784  -18.2552 N   0  0  0  0  0  0  0  0  0  0  0  0
   15.6611  -13.4009  -16.7297 N   0  0  0  0  0  0  0  0  0  0  0  0
   16.8088  -12.5507  -16.9117 C   0  0  0  0  0  0  0  0  0  0  0  0
   17.8206  -12.9134  -15.8472 C   0  0  0  0  0  0  0  0  0  0  0  0
   19.0644  -12.0688  -15.9484 C   0  0  0  0  0  0  0  0  0  0  0  0
   20.0507  -12.6681  -16.9251 C   0  0  2  0  0  0  0  0  0  0  0  0
   20.5546  -13.9398  -16.4811 N   0  0  0  0  0  0  0  0  0  0  0  0
   21.1866  -11.7653  -17.2009 C   0  0  0  0  0  0  0  0  0  0  0  0
   22.2814  -11.8918  -16.5693 O   0  0  0  0  0  0  0  0  0  0  0  0
   13.2669  -13.2723  -17.7249 N   0  0  0  0  0  0  0  0  0  0  0  0
   21.0518  -10.7592  -18.1705 C   0  0  2  0  0  0  0  0  0  0  0  0
   22.1731   -9.8042  -18.4248 C   0  0  0  0  0  0  0  0  0  0  0  0
   22.2639   -9.6960  -19.9094 C   0  0  0  0  0  0  0  0  0  0  0  0
   23.2132   -8.7845  -20.4766 O   0  0  0  0  0  0  0  0  0  0  0  0
   24.0461   -8.0232  -19.9543 C   0  0  0  0  0  0  0  0  0  0  0  0
   21.6994   -8.5441  -17.8406 O   0  0  0  0  0  0  0  0  0  0  0  0
   20.4980   -8.1598  -18.0110 O   0  0  0  0  0  0  0  0  0  0  0  0
   23.2279   -8.7169  -21.9062 N   0  0  0  0  0  0  0  0  0  0  0  0
   22.5038   -7.7069  -17.0760 C   0  0  2  0  0  0  0  0  0  0  0  0
   21.9964   -6.4002  -16.5665 C   0  0  0  0  0  0  0  0  0  0  0  0
   23.0722   -5.9575  -15.5999 C   0  0  0  0  0  0  0  0  0  0  0  0
   22.8551   -4.6057  -15.0416 C   0  0  0  0  0  0  0  0  0  0  0  0
   21.7586   -4.2952  -14.2408 N   0  0  0  0  0  0  0  0  0  0  0  0
   21.8560   -3.0133  -13.9043 C   0  0  0  0  0  0  0  0  0  0  0  0
   22.9664   -2.5374  -14.4693 N   0  0  0  0  0  0  0  0  0  0  0  0
   23.5901   -3.4999  -15.1695 C   0  0  0  0  0  0  0  0  0  0  0  0
   21.8760   -5.5292  -17.7467 O   0  0  0  0  0  0  0  0  0  0  0  0
   22.8519   -5.5266  -18.7165 O   0  0  0  0  0  0  0  0  0  0  0  0
  1  2  1  0
  2  3  2  0
  4  2  1  0
  5  4  1  0
  6  5  1  0
  7  6  1  0
  8 10  1  0
  8  7  1  0
  8  9  1  1
 10 11  2  0
 12 13  1  0
 12 10  1  0
 13 14  1  6
 15 19  1  0
 15 14  1  0
 16 15  2  0
 17 13  1  0
 18 17  2  0
 20 17  1  0
 21 20  1  0
 21 22  1  1
 23 22  1  0
 24 23  2  0
 25 24  1  0
 26 25  1  0
 26 27  2  0
 27 23  1  0
 28 21  1  0
 28 29  1  0
 30 28  2  0
M  END
$$$$
