RDH.pdb
     RDKit          3D

 30 30  0  0  1  0  0  0  0  0999 V2000
   27.7253  -17.4943  -19.4995 N   0  0  0  0  0  0  0  0  0  0  0  0
   26.6596  -16.9531  -18.7208 C   0  0  0  0  0  0  0  0  0  0  0  0
   25.5785  -16.5943  -19.2989 N   0  0  0  0  0  0  0  0  0  0  0  0
   26.8130  -16.8176  -17.2941 N   0  0  0  0  0  0  0  0  0  0  0  0
   27.7036  -17.7304  -16.6257 C   0  0  0  0  0  0  0  0  0  0  0  0
   26.9474  -19.0197  -16.3926 C   0  0  0  0  0  0  0  0  0  0  0  0
   27.7978  -20.2274  -16.6910 C   0  0  0  0  0  0  0  0  0  0  0  0
   28.0274  -21.0521  -15.4448 C   0  0  2  0  0  0  0  0  0  0  0  0
   28.7528  -22.2635  -15.7179 N   0  0  0  0  0  0  0  0  0  0  0  0
   26.7662  -21.3869  -14.7529 C   0  0  0  0  0  0  0  0  0  0  0  0
   25.9902  -22.2784  -15.2182 O   0  0  0  0  0  0  0  0  0  0  0  0
   24.7815  -16.1840  -18.7804 N   0  0  0  0  0  0  0  0  0  0  0  0
   26.4249  -20.7118  -13.5704 C   0  0  2  0  0  0  0  0  0  0  0  0
   25.2105  -21.1145  -12.7978 C   0  0  0  0  0  0  0  0  0  0  0  0
   25.5317  -20.8011  -11.3756 C   0  0  0  0  0  0  0  0  0  0  0  0
   24.5223  -21.0091  -10.3798 O   0  0  0  0  0  0  0  0  0  0  0  0
   23.3446  -21.3995  -10.4617 C   0  0  0  0  0  0  0  0  0  0  0  0
   24.1617  -20.2206  -13.3021 O   0  0  0  0  0  0  0  0  0  0  0  0
   24.3049  -18.9569  -13.2509 O   0  0  0  0  0  0  0  0  0  0  0  0
   24.9135  -20.7224   -9.0331 N   0  0  0  0  0  0  0  0  0  0  0  0
   22.9736  -20.6765  -13.8616 C   0  0  2  0  0  0  0  0  0  0  0  0
   21.8987  -19.7283  -14.2738 C   0  0  0  0  0  0  0  0  0  0  0  0
   21.4474  -20.2681  -15.6127 C   0  0  0  0  0  0  0  0  0  0  0  0
   20.3107  -19.5294  -16.2030 C   0  0  0  0  0  0  0  0  0  0  0  0
   19.7900  -18.3736  -15.6258 N   0  0  0  0  0  0  0  0  0  0  0  0
   18.7879  -17.9570  -16.3926 C   0  0  0  0  0  0  0  0  0  0  0  0
   18.6823  -18.8141  -17.4090 N   0  0  0  0  0  0  0  0  0  0  0  0
   19.6077  -19.7831  -17.3079 C   0  0  0  0  0  0  0  0  0  0  0  0
   20.8651  -19.8154  -13.2296 O   0  0  0  0  0  0  0  0  0  0  0  0
   20.0896  -18.7219  -12.9202 O   0  0  0  0  0  0  0  0  0  0  0  0
  1  2  1  0
  2  3  2  0
  4  2  1  0
  5  4  1  0
  6  5  1  0
  7  6  1  0
  8 10  1  0
  8  7  1  0
  8  9  1  6
 10 11  2  0
 12 13  1  0
 12 10  1  0
 13 14  1  1
 15 19  1  0
 15 14  1  0
 16 15  2  0
 17 13  1  0
 18 17  2  0
 20 17  1  0
 21 20  1  0
 21 22  1  1
 23 22  1  0
 24 23  2  0
 25 24  1  0
 26 25  1  0
 26 27  2  0
 27 23  1  0
 28 21  1  0
 28 29  1  0
 30 28  2  0
M  END
$$$$
