RDH.pdb
     RDKit          3D

 30 30  0  0  1  0  0  0  0  0999 V2000
   28.4493  -28.1149  -16.3732 N   0  0  0  0  0  0  0  0  0  0  0  0
   28.7960  -26.8497  -16.9337 C   0  0  0  0  0  0  0  0  0  0  0  0
   29.7778  -26.7708  -17.7472 N   0  0  0  0  0  0  0  0  0  0  0  0
   28.0370  -25.6774  -16.5780 N   0  0  0  0  0  0  0  0  0  0  0  0
   28.4187  -24.4243  -17.1757 C   0  0  0  0  0  0  0  0  0  0  0  0
   27.9866  -23.3190  -16.2376 C   0  0  0  0  0  0  0  0  0  0  0  0
   26.4888  -23.1551  -16.2204 C   0  0  0  0  0  0  0  0  0  0  0  0
   26.0591  -21.9914  -17.0847 C   0  0  2  0  0  0  0  0  0  0  0  0
   27.1795  -21.2775  -17.6354 N   0  0  0  0  0  0  0  0  0  0  0  0
   25.1891  -21.0441  -16.3587 C   0  0  0  0  0  0  0  0  0  0  0  0
   25.6777  -20.2437  -15.5019 O   0  0  0  0  0  0  0  0  0  0  0  0
   30.0965  -25.8702  -18.1469 N   0  0  0  0  0  0  0  0  0  0  0  0
   23.8100  -21.0307  -16.6202 C   0  0  1  0  0  0  0  0  0  0  0  0
   22.9148  -20.0825  -15.8898 C   0  0  0  0  0  0  0  0  0  0  0  0
   23.2993  -18.7275  -16.3799 C   0  0  0  0  0  0  0  0  0  0  0  0
   23.0764  -17.5978  -15.5268 O   0  0  0  0  0  0  0  0  0  0  0  0
   23.4083  -16.4039  -15.6282 C   0  0  0  0  0  0  0  0  0  0  0  0
   21.5701  -20.4407  -16.3556 O   0  0  0  0  0  0  0  0  0  0  0  0
   21.3616  -20.7319  -17.5771 O   0  0  0  0  0  0  0  0  0  0  0  0
   22.3382  -17.8629  -14.3295 N   0  0  0  0  0  0  0  0  0  0  0  0
   20.4607  -20.4923  -15.5195 C   0  0  2  0  0  0  0  0  0  0  0  0
   19.8148  -21.7905  -15.1705 C   0  0  0  0  0  0  0  0  0  0  0  0
   20.9133  -22.5508  -14.4613 C   0  0  0  0  0  0  0  0  0  0  0  0
   20.4683  -23.8299  -13.8678 C   0  0  0  0  0  0  0  0  0  0  0  0
   19.1433  -24.2563  -13.9187 N   0  0  0  0  0  0  0  0  0  0  0  0
   19.0750  -25.4320  -13.3030 C   0  0  0  0  0  0  0  0  0  0  0  0
   20.3045  -25.7326  -12.8826 N   0  0  0  0  0  0  0  0  0  0  0  0
   21.1698  -24.7617  -13.2205 C   0  0  0  0  0  0  0  0  0  0  0  0
   18.6801  -21.4516  -14.2967 O   0  0  0  0  0  0  0  0  0  0  0  0
   17.5283  -22.2037  -14.3228 O   0  0  0  0  0  0  0  0  0  0  0  0
  1  2  1  0
  2  3  2  0
  4  2  1  0
  5  4  1  0
  6  5  1  0
  7  6  1  0
  8 10  1  0
  8  7  1  0
  8  9  1  1
 10 11  2  0
 12 13  1  0
 12 10  1  0
 13 14  1  1
 15 19  1  0
 15 14  1  0
 16 15  2  0
 17 13  1  0
 18 17  2  0
 20 17  1  0
 21 20  1  0
 21 22  1  6
 23 22  1  0
 24 23  2  0
 25 24  1  0
 26 25  1  0
 26 27  2  0
 27 23  1  0
 28 21  1  0
 28 29  1  0
 30 28  2  0
M  END
$$$$
