RDH.pdb
     RDKit          3D

 30 30  0  0  1  0  0  0  0  0999 V2000
   27.2911  -20.1519  -11.0261 N   0  0  0  0  0  0  0  0  0  0  0  0
   27.0975  -21.3256  -11.8135 C   0  0  0  0  0  0  0  0  0  0  0  0
   26.8215  -22.4311  -11.2359 N   0  0  0  0  0  0  0  0  0  0  0  0
   27.2143  -21.2521  -13.2481 N   0  0  0  0  0  0  0  0  0  0  0  0
   27.4628  -19.9613  -13.8355 C   0  0  0  0  0  0  0  0  0  0  0  0
   27.5382  -20.1474  -15.3349 C   0  0  0  0  0  0  0  0  0  0  0  0
   26.7241  -19.1124  -16.0675 C   0  0  0  0  0  0  0  0  0  0  0  0
   25.6321  -18.5538  -15.1836 C   0  0  2  0  0  0  0  0  0  0  0  0
   25.5613  -19.2245  -13.9134 N   0  0  0  0  0  0  0  0  0  0  0  0
   24.3059  -18.6010  -15.8322 C   0  0  0  0  0  0  0  0  0  0  0  0
   24.1201  -18.0564  -16.9646 O   0  0  0  0  0  0  0  0  0  0  0  0
   26.7197  -23.3198  -11.7577 N   0  0  0  0  0  0  0  0  0  0  0  0
   23.2432  -19.2544  -15.1885 C   0  0  1  0  0  0  0  0  0  0  0  0
   21.8885  -19.2887  -15.8190 C   0  0  0  0  0  0  0  0  0  0  0  0
   21.2446  -20.5263  -15.2920 C   0  0  0  0  0  0  0  0  0  0  0  0
   19.9038  -20.8305  -15.6963 O   0  0  0  0  0  0  0  0  0  0  0  0
   19.1139  -20.2444  -16.4570 C   0  0  0  0  0  0  0  0  0  0  0  0
   21.2248  -18.0921  -15.2888 O   0  0  0  0  0  0  0  0  0  0  0  0
   21.3312  -17.7810  -14.0591 O   0  0  0  0  0  0  0  0  0  0  0  0
   19.3446  -22.0235  -15.1370 N   0  0  0  0  0  0  0  0  0  0  0  0
   20.4593  -17.2340  -16.0699 C   0  0  2  0  0  0  0  0  0  0  0  0
   19.7080  -16.0979  -15.4623 C   0  0  0  0  0  0  0  0  0  0  0  0
   19.5899  -15.1063  -16.5984 C   0  0  0  0  0  0  0  0  0  0  0  0
   18.7646  -13.9226  -16.2756 C   0  0  0  0  0  0  0  0  0  0  0  0
   17.5145  -13.7042  -16.8497 N   0  0  0  0  0  0  0  0  0  0  0  0
   17.0376  -12.5668  -16.3551 C   0  0  0  0  0  0  0  0  0  0  0  0
   17.9487  -12.0897  -15.5060 N   0  0  0  0  0  0  0  0  0  0  0  0
   19.0127  -12.9082  -15.4457 C   0  0  0  0  0  0  0  0  0  0  0  0
   18.4144  -16.6552  -15.0356 O   0  0  0  0  0  0  0  0  0  0  0  0
   17.6680  -16.0268  -14.0656 O   0  0  0  0  0  0  0  0  0  0  0  0
  1  2  1  0
  2  3  2  0
  4  2  1  0
  5  4  1  0
  6  5  1  0
  7  6  1  0
  8 10  1  0
  8  7  1  0
  8  9  1  1
 10 11  2  0
 12 13  1  0
 12 10  1  0
 13 14  1  6
 15 19  1  0
 15 14  1  0
 16 15  2  0
 17 13  1  0
 18 17  2  0
 20 17  1  0
 21 20  1  0
 21 22  1  6
 23 22  1  0
 24 23  2  0
 25 24  1  0
 26 25  1  0
 26 27  2  0
 27 23  1  0
 28 21  1  0
 28 29  1  0
 30 28  2  0
M  END
$$$$
