RDH.pdb
     RDKit          3D

 30 30  0  0  1  0  0  0  0  0999 V2000
   27.8048  -25.2976  -16.0594 N   0  0  0  0  0  0  0  0  0  0  0  0
   28.7014  -24.4312  -16.7526 C   0  0  0  0  0  0  0  0  0  0  0  0
   29.5851  -24.9315  -17.5275 N   0  0  0  0  0  0  0  0  0  0  0  0
   28.6006  -23.0048  -16.5726 N   0  0  0  0  0  0  0  0  0  0  0  0
   27.4757  -22.5005  -15.8288 C   0  0  0  0  0  0  0  0  0  0  0  0
   27.5703  -20.9907  -15.8231 C   0  0  0  0  0  0  0  0  0  0  0  0
   26.3637  -20.3582  -15.1791 C   0  0  0  0  0  0  0  0  0  0  0  0
   25.0836  -20.8874  -15.7851 C   0  0  2  0  0  0  0  0  0  0  0  0
   25.0217  -20.6706  -17.2055 N   0  0  0  0  0  0  0  0  0  0  0  0
   23.8815  -20.3077  -15.1525 C   0  0  0  0  0  0  0  0  0  0  0  0
   23.7793  -20.2521  -13.8876 O   0  0  0  0  0  0  0  0  0  0  0  0
   30.2890  -24.3494  -18.0157 N   0  0  0  0  0  0  0  0  0  0  0  0
   22.8441  -19.8143  -15.9594 C   0  0  1  0  0  0  0  0  0  0  0  0
   21.6439  -19.1777  -15.3363 C   0  0  0  0  0  0  0  0  0  0  0  0
   21.3482  -17.9884  -16.1860 C   0  0  0  0  0  0  0  0  0  0  0  0
   21.8989  -16.7198  -15.8105 O   0  0  0  0  0  0  0  0  0  0  0  0
   21.9316  -16.1194  -14.7221 C   0  0  0  0  0  0  0  0  0  0  0  0
   20.5941  -20.1928  -15.4807 O   0  0  0  0  0  0  0  0  0  0  0  0
   20.5143  -20.8997  -16.5362 O   0  0  0  0  0  0  0  0  0  0  0  0
   22.5349  -15.9858  -16.8619 N   0  0  0  0  0  0  0  0  0  0  0  0
   19.6425  -20.4521  -14.5009 C   0  0  1  0  0  0  0  0  0  0  0  0
   18.5552  -21.4484  -14.7230 C   0  0  0  0  0  0  0  0  0  0  0  0
   18.6529  -22.3516  -13.5137 C   0  0  0  0  0  0  0  0  0  0  0  0
   19.6935  -23.3956  -13.6295 C   0  0  0  0  0  0  0  0  0  0  0  0
   20.4472  -23.5743  -14.7871 N   0  0  0  0  0  0  0  0  0  0  0  0
   21.2865  -24.5813  -14.5695 C   0  0  0  0  0  0  0  0  0  0  0  0
   21.0703  -25.0177  -13.3279 N   0  0  0  0  0  0  0  0  0  0  0  0
   20.0977  -24.3022  -12.7383 C   0  0  0  0  0  0  0  0  0  0  0  0
   17.3053  -20.6731  -14.7745 O   0  0  0  0  0  0  0  0  0  0  0  0
   16.1355  -21.2596  -15.1993 O   0  0  0  0  0  0  0  0  0  0  0  0
  1  2  1  0
  2  3  2  0
  4  2  1  0
  5  4  1  0
  6  5  1  0
  7  6  1  0
  8 10  1  0
  8  7  1  0
  8  9  1  6
 10 11  2  0
 12 13  1  0
 12 10  1  0
 13 14  1  1
 15 19  1  0
 15 14  1  0
 16 15  2  0
 17 13  1  0
 18 17  2  0
 20 17  1  0
 21 20  1  0
 21 22  1  6
 23 22  1  0
 24 23  2  0
 25 24  1  0
 26 25  1  0
 26 27  2  0
 27 23  1  0
 28 21  1  0
 28 29  1  0
 30 28  2  0
M  END
$$$$
