RDH.pdb
     RDKit          3D

 30 30  0  0  1  0  0  0  0  0999 V2000
   18.1939  -28.7891   -3.7829 N   0  0  0  0  0  0  0  0  0  0  0  0
   17.3650  -28.0285   -2.9058 C   0  0  0  0  0  0  0  0  0  0  0  0
   17.0465  -28.5110   -1.7667 N   0  0  0  0  0  0  0  0  0  0  0  0
   16.8974  -26.7273   -3.3124 N   0  0  0  0  0  0  0  0  0  0  0  0
   16.5589  -26.5394   -4.6992 C   0  0  0  0  0  0  0  0  0  0  0  0
   17.8126  -26.7748   -5.5124 C   0  0  0  0  0  0  0  0  0  0  0  0
   17.5692  -26.5699   -6.9853 C   0  0  0  0  0  0  0  0  0  0  0  0
   18.2690  -25.3260   -7.4843 C   0  0  2  0  0  0  0  0  0  0  0  0
   19.0457  -24.6871   -6.4564 N   0  0  0  0  0  0  0  0  0  0  0  0
   17.3272  -24.3455   -8.0614 C   0  0  0  0  0  0  0  0  0  0  0  0
   17.4284  -23.1103   -7.7831 O   0  0  0  0  0  0  0  0  0  0  0  0
   16.4188  -28.0146   -1.1094 N   0  0  0  0  0  0  0  0  0  0  0  0
   16.3121  -24.7859   -8.9252 C   0  0  2  0  0  0  0  0  0  0  0  0
   15.4271  -23.7967   -9.6125 C   0  0  0  0  0  0  0  0  0  0  0  0
   14.9680  -24.4818  -10.8550 C   0  0  0  0  0  0  0  0  0  0  0  0
   14.0760  -23.7865  -11.7351 O   0  0  0  0  0  0  0  0  0  0  0  0
   13.8070  -22.5788  -11.8587 C   0  0  0  0  0  0  0  0  0  0  0  0
   14.3111  -23.6155   -8.6770 O   0  0  0  0  0  0  0  0  0  0  0  0
   13.8108  -24.6111   -8.0616 O   0  0  0  0  0  0  0  0  0  0  0  0
   13.3465  -24.6083  -12.6523 N   0  0  0  0  0  0  0  0  0  0  0  0
   13.7408  -22.3786   -8.3989 C   0  0  1  0  0  0  0  0  0  0  0  0
   12.5446  -22.2591   -7.5162 C   0  0  0  0  0  0  0  0  0  0  0  0
   13.0684  -21.5062   -6.3135 C   0  0  0  0  0  0  0  0  0  0  0  0
   13.4783  -22.3797   -5.1930 C   0  0  0  0  0  0  0  0  0  0  0  0
   14.6821  -23.0803   -5.1936 N   0  0  0  0  0  0  0  0  0  0  0  0
   14.7509  -23.7631   -4.0556 C   0  0  0  0  0  0  0  0  0  0  0  0
   13.6378  -23.5033   -3.3684 N   0  0  0  0  0  0  0  0  0  0  0  0
   12.8476  -22.6577   -4.0510 C   0  0  0  0  0  0  0  0  0  0  0  0
   11.5482  -21.5026   -8.2914 O   0  0  0  0  0  0  0  0  0  0  0  0
   10.3056  -21.2376   -7.7634 O   0  0  0  0  0  0  0  0  0  0  0  0
  1  2  1  0
  2  3  2  0
  4  2  1  0
  5  4  1  0
  6  5  1  0
  7  6  1  0
  8 10  1  0
  8  7  1  0
  8  9  1  1
 10 11  2  0
 12 13  1  0
 12 10  1  0
 13 14  1  6
 15 19  1  0
 15 14  1  0
 16 15  2  0
 17 13  1  0
 18 17  2  0
 20 17  1  0
 21 20  1  0
 21 22  1  6
 23 22  1  0
 24 23  2  0
 25 24  1  0
 26 25  1  0
 26 27  2  0
 27 23  1  0
 28 21  1  0
 28 29  1  0
 30 28  2  0
M  END
$$$$
