RDH.pdb
     RDKit          3D

 30 30  0  0  1  0  0  0  0  0999 V2000
   18.0605  -21.2132  -13.0928 N   0  0  0  0  0  0  0  0  0  0  0  0
   19.2300  -21.1351  -12.2796 C   0  0  0  0  0  0  0  0  0  0  0  0
   19.2103  -20.4256  -11.2175 N   0  0  0  0  0  0  0  0  0  0  0  0
   20.4178  -21.8556  -12.6633 N   0  0  0  0  0  0  0  0  0  0  0  0
   20.8310  -21.7827  -14.0406 C   0  0  0  0  0  0  0  0  0  0  0  0
   22.0504  -22.6635  -14.2001 C   0  0  0  0  0  0  0  0  0  0  0  0
   22.5453  -22.6795  -15.6233 C   0  0  0  0  0  0  0  0  0  0  0  0
   24.0227  -22.3652  -15.6890 C   0  0  2  0  0  0  0  0  0  0  0  0
   24.7970  -23.1942  -14.8050 N   0  0  0  0  0  0  0  0  0  0  0  0
   24.3080  -20.9456  -15.3977 C   0  0  0  0  0  0  0  0  0  0  0  0
   24.9262  -20.6143  -14.3386 O   0  0  0  0  0  0  0  0  0  0  0  0
   20.0449  -20.3020  -10.6169 N   0  0  0  0  0  0  0  0  0  0  0  0
   23.8909  -19.9559  -16.3016 C   0  0  2  0  0  0  0  0  0  0  0  0
   24.2939  -18.5313  -16.0962 C   0  0  0  0  0  0  0  0  0  0  0  0
   24.9129  -18.1115  -17.3865 C   0  0  0  0  0  0  0  0  0  0  0  0
   25.3231  -16.7472  -17.5416 O   0  0  0  0  0  0  0  0  0  0  0  0
   25.1156  -15.9163  -18.4431 C   0  0  0  0  0  0  0  0  0  0  0  0
   23.0206  -17.8345  -15.8806 O   0  0  0  0  0  0  0  0  0  0  0  0
   22.0409  -18.0106  -16.6739 O   0  0  0  0  0  0  0  0  0  0  0  0
   26.1200  -16.2160  -16.4779 N   0  0  0  0  0  0  0  0  0  0  0  0
   22.7972  -16.9621  -14.8215 C   0  0  1  0  0  0  0  0  0  0  0  0
   21.5230  -16.1958  -14.7061 C   0  0  0  0  0  0  0  0  0  0  0  0
   21.5091  -15.3454  -15.9568 C   0  0  0  0  0  0  0  0  0  0  0  0
   22.5134  -14.2602  -15.9534 C   0  0  0  0  0  0  0  0  0  0  0  0
   23.3780  -14.0456  -14.8827 N   0  0  0  0  0  0  0  0  0  0  0  0
   24.1485  -13.0072  -15.1894 C   0  0  0  0  0  0  0  0  0  0  0  0
   23.7843  -12.5863  -16.4014 N   0  0  0  0  0  0  0  0  0  0  0  0
   22.7840  -13.3430  -16.8834 C   0  0  0  0  0  0  0  0  0  0  0  0
   20.4508  -17.2034  -14.6719 O   0  0  0  0  0  0  0  0  0  0  0  0
   19.5033  -17.1828  -13.6745 O   0  0  0  0  0  0  0  0  0  0  0  0
  1  2  1  0
  2  3  2  0
  4  2  1  0
  5  4  1  0
  6  5  1  0
  7  6  1  0
  8 10  1  0
  8  7  1  0
  8  9  1  1
 10 11  2  0
 12 13  1  0
 12 10  1  0
 13 14  1  6
 15 19  1  0
 15 14  1  0
 16 15  2  0
 17 13  1  0
 18 17  2  0
 20 17  1  0
 21 20  1  0
 21 22  1  1
 23 22  1  0
 24 23  2  0
 25 24  1  0
 26 25  1  0
 26 27  2  0
 27 23  1  0
 28 21  1  0
 28 29  1  0
 30 28  2  0
M  END
$$$$
