RWQ.pdb
     RDKit          3D

 35 36  0  0  1  0  0  0  0  0999 V2000
    7.1347  -14.8184   16.1665 N   0  0  0  0  0  0  0  0  0  0  0  0
    7.6390  -13.5042   15.9493 C   0  0  0  0  0  0  0  0  0  0  0  0
    7.9872  -13.1559   14.7627 N   0  0  0  0  0  0  0  0  0  0  0  0
    7.7612  -12.5831   17.0071 N   0  0  0  0  0  0  0  0  0  0  0  0
    7.2546  -12.9062   18.3167 C   0  0  0  0  0  0  0  0  0  0  0  0
    7.5756  -14.3654   18.6485 C   0  0  0  0  0  0  0  0  0  0  0  0
    8.0324  -14.4332   20.0664 C   0  0  0  0  0  0  0  0  0  0  0  0
    8.3856  -15.8176   20.5488 C   0  0  2  0  0  0  0  0  0  0  0  0
    7.2733  -16.7023   20.6949 N   0  0  0  0  0  0  0  0  0  0  0  0
    9.1792  -15.6416   21.8075 C   0  0  0  0  0  0  0  0  0  0  0  0
   10.2131  -14.9461   21.7653 O   0  0  0  0  0  0  0  0  0  0  0  0
    8.3661  -12.2170   14.5248 N   0  0  0  0  0  0  0  0  0  0  0  0
    8.7055  -16.2805   22.9781 C   0  0  1  0  0  0  0  0  0  0  0  0
    9.4107  -16.0388   24.2029 C   0  0  0  0  0  0  0  0  0  0  0  0
    8.6254  -16.2030   25.4481 C   0  0  0  0  0  0  0  0  0  0  0  0
    7.5293  -15.2519   25.6388 C   0  0  0  0  0  0  0  0  0  0  0  0
    6.1833  -15.5139   25.6026 N   0  0  0  0  0  0  0  0  0  0  0  0
    5.4650  -14.3998   25.8295 C   0  0  0  0  0  0  0  0  0  0  0  0
    6.3434  -13.3938   26.0163 C   0  0  0  0  0  0  0  0  0  0  0  0
    6.0935  -12.0593   26.2772 C   0  0  0  0  0  0  0  0  0  0  0  0
    7.1720  -11.2216   26.4262 C   0  0  0  0  0  0  0  0  0  0  0  0
    8.4561  -11.7125   26.3156 C   0  0  0  0  0  0  0  0  0  0  0  0
    8.6861  -13.0450   26.0546 C   0  0  0  0  0  0  0  0  0  0  0  0
    7.6368  -13.9001   25.9021 C   0  0  0  0  0  0  0  0  0  0  0  0
   10.5297  -17.0650   24.2588 O   0  0  0  0  0  0  0  0  0  0  0  0
   10.3362  -18.2414   23.8552 N   0  0  0  0  0  0  0  0  0  0  0  0
   16.2420  -16.1711   22.6756 C   0  0  0  0  0  0  0  0  0  0  0  0
   16.4589  -17.4235   23.3128 O   0  0  0  0  0  0  0  0  0  0  0  0
   17.6006  -17.9239   23.2918 C   0  0  0  0  0  0  0  0  0  0  0  0
   15.2950  -18.0812   23.9796 C   0  0  0  0  0  0  0  0  0  0  0  0
   14.0794  -17.1952   23.9433 C   0  0  1  0  0  0  0  0  0  0  0  0
   12.8912  -17.7356   24.6668 N   0  0  0  0  0  0  0  0  0  0  0  0
   11.8132  -16.7630   24.7510 C   0  0  0  0  0  0  0  0  0  0  0  0
   13.1957  -18.2632   26.0204 O   0  0  0  0  0  0  0  0  0  0  0  0
   12.7379  -17.8210   27.0956 O   0  0  0  0  0  0  0  0  0  0  0  0
  2  1  1  0
  3  2  2  0
  4  2  1  0
  5  4  1  0
  6  5  1  0
  7  6  1  0
  8 10  1  0
  8  7  1  0
  8  9  1  1
 10 11  2  0
 10 12  1  0
 12 13  1  0
 13 24  1  0
 13 14  1  1
 15 16  2  0
 15 14  1  0
 17 16  1  0
 18 23  2  0
 18 17  1  0
 19 18  1  0
 20 21  1  0
 20 19  2  0
 21 22  2  0
 22 23  1  0
 23 15  1  0
 24 25  2  0
 24 32  1  0
 27 29  1  0
 27 26  1  0
 28 27  2  0
 31 30  1  6
 30 29  1  0
 31 33  1  0
 32 31  1  0
 33 34  2  0
 33 35  1  0
M  END
$$$$
