RWQ.pdb
     RDKit          3D

 35 36  0  0  1  0  0  0  0  0999 V2000
    9.2683  -15.1775   15.2378 N   0  0  0  0  0  0  0  0  0  0  0  0
    8.3402  -14.4292   16.0171 C   0  0  0  0  0  0  0  0  0  0  0  0
    7.0991  -14.4321   15.6851 N   0  0  0  0  0  0  0  0  0  0  0  0
    8.7565  -13.6903   17.1409 N   0  0  0  0  0  0  0  0  0  0  0  0
    7.7872  -13.0344   17.9814 C   0  0  0  0  0  0  0  0  0  0  0  0
    7.1132  -14.0636   18.8917 C   0  0  0  0  0  0  0  0  0  0  0  0
    7.8735  -14.1239   20.1731 C   0  0  0  0  0  0  0  0  0  0  0  0
    8.2599  -15.5142   20.6114 C   0  0  2  0  0  0  0  0  0  0  0  0
    7.1622  -16.4097   20.7970 N   0  0  0  0  0  0  0  0  0  0  0  0
    9.1148  -15.3550   21.8316 C   0  0  0  0  0  0  0  0  0  0  0  0
   10.1098  -14.6064   21.7660 O   0  0  0  0  0  0  0  0  0  0  0  0
    6.7451  -14.7993   14.7787 N   0  0  0  0  0  0  0  0  0  0  0  0
    8.7404  -16.0694   22.9945 C   0  0  1  0  0  0  0  0  0  0  0  0
    9.4715  -15.8122   24.2008 C   0  0  0  0  0  0  0  0  0  0  0  0
    8.7133  -15.9620   25.4645 C   0  0  0  0  0  0  0  0  0  0  0  0
    7.5446  -15.0933   25.6118 C   0  0  0  0  0  0  0  0  0  0  0  0
    6.2235  -15.4542   25.5358 N   0  0  0  0  0  0  0  0  0  0  0  0
    5.4181  -14.3948   25.7296 C   0  0  0  0  0  0  0  0  0  0  0  0
    6.2136  -13.3254   25.9347 C   0  0  0  0  0  0  0  0  0  0  0  0
    5.8578  -12.0111   26.1753 C   0  0  0  0  0  0  0  0  0  0  0  0
    6.8664  -11.0950   26.3503 C   0  0  0  0  0  0  0  0  0  0  0  0
    8.1860  -11.4905   26.2848 C   0  0  0  0  0  0  0  0  0  0  0  0
    8.5219  -12.8041   26.0434 C   0  0  0  0  0  0  0  0  0  0  0  0
    7.5437  -13.7354   25.8659 C   0  0  0  0  0  0  0  0  0  0  0  0
   10.5928  -16.8365   24.2450 O   0  0  0  0  0  0  0  0  0  0  0  0
   10.4049  -18.0057   23.8186 N   0  0  0  0  0  0  0  0  0  0  0  0
   16.5373  -15.8078   23.3043 C   0  0  0  0  0  0  0  0  0  0  0  0
   16.6718  -17.1062   23.8681 O   0  0  0  0  0  0  0  0  0  0  0  0
   17.8082  -17.6096   23.9649 C   0  0  0  0  0  0  0  0  0  0  0  0
   15.4313  -17.8066   24.3180 C   0  0  0  0  0  0  0  0  0  0  0  0
   14.2387  -16.8917   24.2497 C   0  0  1  0  0  0  0  0  0  0  0  0
   12.9492  -17.5145   24.6697 N   0  0  0  0  0  0  0  0  0  0  0  0
   11.8722  -16.5404   24.7511 C   0  0  0  0  0  0  0  0  0  0  0  0
   13.0313  -18.2766   25.9409 O   0  0  0  0  0  0  0  0  0  0  0  0
   12.5445  -17.9233   27.0360 O   0  0  0  0  0  0  0  0  0  0  0  0
  2  1  1  0
  3  2  2  0
  4  2  1  0
  5  4  1  0
  6  5  1  0
  7  6  1  0
  8 10  1  0
  8  7  1  0
  8  9  1  1
 10 11  2  0
 10 12  1  0
 12 13  1  0
 13 24  1  0
 13 14  1  6
 15 16  2  0
 15 14  1  0
 17 16  1  0
 18 23  2  0
 18 17  1  0
 19 18  1  0
 20 21  1  0
 20 19  2  0
 21 22  2  0
 22 23  1  0
 23 15  1  0
 24 25  2  0
 24 32  1  0
 27 29  1  0
 27 26  1  0
 28 27  2  0
 31 30  1  6
 30 29  1  0
 31 33  1  0
 32 31  1  0
 33 34  2  0
 33 35  1  0
M  END
$$$$
