RWQ.pdb
     RDKit          3D

 35 36  0  0  1  0  0  0  0  0999 V2000
    9.4994  -13.6681   16.3223 N   0  0  0  0  0  0  0  0  0  0  0  0
    8.1315  -13.8802   15.9871 C   0  0  0  0  0  0  0  0  0  0  0  0
    7.8430  -14.5154   14.9082 N   0  0  0  0  0  0  0  0  0  0  0  0
    7.0938  -13.4094   16.8141 N   0  0  0  0  0  0  0  0  0  0  0  0
    7.2050  -13.5036   18.2476 C   0  0  0  0  0  0  0  0  0  0  0  0
    8.3714  -14.4235   18.6153 C   0  0  0  0  0  0  0  0  0  0  0  0
    8.4988  -14.4466   20.1008 C   0  0  0  0  0  0  0  0  0  0  0  0
    8.6876  -15.8195   20.6956 C   0  0  2  0  0  0  0  0  0  0  0  0
    7.5016  -16.6138   20.7556 N   0  0  0  0  0  0  0  0  0  0  0  0
    9.3425  -15.6209   22.0285 C   0  0  0  0  0  0  0  0  0  0  0  0
   10.4059  -14.9716   22.0769 O   0  0  0  0  0  0  0  0  0  0  0  0
    6.8704  -14.7154   14.5990 N   0  0  0  0  0  0  0  0  0  0  0  0
    8.7115  -16.1868   23.1619 C   0  0  1  0  0  0  0  0  0  0  0  0
    9.3015  -15.9435   24.4459 C   0  0  0  0  0  0  0  0  0  0  0  0
    8.3930  -16.0571   25.6104 C   0  0  0  0  0  0  0  0  0  0  0  0
    7.3069  -15.0777   25.6677 C   0  0  0  0  0  0  0  0  0  0  0  0
    5.9641  -15.3129   25.5153 N   0  0  0  0  0  0  0  0  0  0  0  0
    5.2546  -14.1770   25.6385 C   0  0  0  0  0  0  0  0  0  0  0  0
    6.1358  -13.1836   25.8733 C   0  0  0  0  0  0  0  0  0  0  0  0
    5.8946  -11.8360   26.0666 C   0  0  0  0  0  0  0  0  0  0  0  0
    6.9744  -11.0161   26.2878 C   0  0  0  0  0  0  0  0  0  0  0  0
    8.2512  -11.5370   26.3128 C   0  0  0  0  0  0  0  0  0  0  0  0
    8.4726  -12.8821   26.1175 C   0  0  0  0  0  0  0  0  0  0  0  0
    7.4217  -13.7201   25.8960 C   0  0  0  0  0  0  0  0  0  0  0  0
   10.3740  -17.0040   24.6289 O   0  0  0  0  0  0  0  0  0  0  0  0
   10.1310  -18.2092   24.3594 N   0  0  0  0  0  0  0  0  0  0  0  0
   15.1052  -16.3765   21.8558 C   0  0  0  0  0  0  0  0  0  0  0  0
   15.7936  -17.3064   22.6824 O   0  0  0  0  0  0  0  0  0  0  0  0
   16.8680  -17.7945   22.2802 C   0  0  0  0  0  0  0  0  0  0  0  0
   15.1863  -17.6541   24.0022 C   0  0  0  0  0  0  0  0  0  0  0  0
   13.9660  -16.8166   24.2734 C   0  0  1  0  0  0  0  0  0  0  0  0
   12.7904  -17.5757   24.7922 N   0  0  0  0  0  0  0  0  0  0  0  0
   11.6670  -16.7035   25.0963 C   0  0  0  0  0  0  0  0  0  0  0  0
   13.0931  -18.4299   25.9678 O   0  0  0  0  0  0  0  0  0  0  0  0
   13.5133  -19.6058   25.9262 O   0  0  0  0  0  0  0  0  0  0  0  0
  2  1  1  0
  3  2  2  0
  4  2  1  0
  5  4  1  0
  6  5  1  0
  7  6  1  0
  8 10  1  0
  8  7  1  0
  8  9  1  1
 10 11  2  0
 10 12  1  0
 12 13  1  0
 13 24  1  0
 13 14  1  6
 15 16  2  0
 15 14  1  0
 17 16  1  0
 18 23  2  0
 18 17  1  0
 19 18  1  0
 20 21  1  0
 20 19  2  0
 21 22  2  0
 22 23  1  0
 23 15  1  0
 24 25  2  0
 24 32  1  0
 27 29  1  0
 27 26  1  0
 28 27  2  0
 31 30  1  6
 30 29  1  0
 31 33  1  0
 32 31  1  0
 33 34  2  0
 33 35  1  0
M  END
$$$$
