RWQ.pdb
     RDKit          3D

 35 36  0  0  1  0  0  0  0  0999 V2000
    7.7538  -12.6405   18.0819 N   0  0  0  0  0  0  0  0  0  0  0  0
    8.3329  -13.6765   17.2946 C   0  0  0  0  0  0  0  0  0  0  0  0
    8.2922  -13.5859   16.0137 N   0  0  0  0  0  0  0  0  0  0  0  0
    8.9479  -14.7932   17.8924 N   0  0  0  0  0  0  0  0  0  0  0  0
    8.1627  -15.7478   18.6329 C   0  0  0  0  0  0  0  0  0  0  0  0
    8.0164  -15.2813   20.0831 C   0  0  0  0  0  0  0  0  0  0  0  0
    9.3362  -15.4358   20.7597 C   0  0  0  0  0  0  0  0  0  0  0  0
    9.5063  -16.7261   21.5215 C   0  0  2  0  0  0  0  0  0  0  0  0
    8.4536  -17.6740   21.3354 N   0  0  0  0  0  0  0  0  0  0  0  0
    9.7259  -16.3498   22.9550 C   0  0  0  0  0  0  0  0  0  0  0  0
   10.5310  -15.4330   23.2118 O   0  0  0  0  0  0  0  0  0  0  0  0
    8.6654  -14.3141   15.3716 N   0  0  0  0  0  0  0  0  0  0  0  0
    9.0021  -17.0629   23.9402 C   0  0  1  0  0  0  0  0  0  0  0  0
    9.2485  -16.7391   25.3152 C   0  0  0  0  0  0  0  0  0  0  0  0
    8.0516  -16.4560   26.1406 C   0  0  0  0  0  0  0  0  0  0  0  0
    7.2727  -15.2802   25.7491 C   0  0  0  0  0  0  0  0  0  0  0  0
    6.1248  -15.2535   24.9987 N   0  0  0  0  0  0  0  0  0  0  0  0
    5.6753  -13.9956   24.8425 C   0  0  0  0  0  0  0  0  0  0  0  0
    6.5336  -13.1850   25.4943 C   0  0  0  0  0  0  0  0  0  0  0  0
    6.5024  -11.8085   25.6211 C   0  0  0  0  0  0  0  0  0  0  0  0
    7.5056  -11.2077   26.3420 C   0  0  0  0  0  0  0  0  0  0  0  0
    8.5042  -11.9679   26.9140 C   0  0  0  0  0  0  0  0  0  0  0  0
    8.5195  -13.3382   26.7766 C   0  0  0  0  0  0  0  0  0  0  0  0
    7.5380  -13.9625   26.0677 C   0  0  0  0  0  0  0  0  0  0  0  0
    9.9165  -17.9594   25.9261 O   0  0  0  0  0  0  0  0  0  0  0  0
    9.4203  -19.1049   25.7656 N   0  0  0  0  0  0  0  0  0  0  0  0
   15.7686  -19.4685   26.7541 C   0  0  0  0  0  0  0  0  0  0  0  0
   15.0462  -19.0064   25.6200 O   0  0  0  0  0  0  0  0  0  0  0  0
   15.6700  -18.7265   24.5775 C   0  0  0  0  0  0  0  0  0  0  0  0
   13.5626  -18.8779   25.7390 C   0  0  0  0  0  0  0  0  0  0  0  0
   13.1015  -19.2059   27.1332 C   0  0  2  0  0  0  0  0  0  0  0  0
   11.6345  -19.0501   27.3585 N   0  0  0  0  0  0  0  0  0  0  0  0
   11.0991  -17.8776   26.6848 C   0  0  0  0  0  0  0  0  0  0  0  0
   11.2414  -19.0276   28.7897 O   0  0  0  0  0  0  0  0  0  0  0  0
   10.6205  -18.1062   29.3613 O   0  0  0  0  0  0  0  0  0  0  0  0
  2  1  1  0
  3  2  2  0
  4  2  1  0
  5  4  1  0
  6  5  1  0
  7  6  1  0
  8 10  1  0
  8  7  1  0
  8  9  1  1
 10 11  2  0
 10 12  1  0
 12 13  1  0
 13 24  1  0
 13 14  1  1
 15 16  2  0
 15 14  1  0
 17 16  1  0
 18 23  2  0
 18 17  1  0
 19 18  1  0
 20 21  1  0
 20 19  2  0
 21 22  2  0
 22 23  1  0
 23 15  1  0
 24 25  2  0
 24 32  1  0
 27 29  1  0
 27 26  1  0
 28 27  2  0
 31 30  1  6
 30 29  1  0
 31 33  1  0
 32 31  1  0
 33 34  2  0
 33 35  1  0
M  END
$$$$
