KTE.pdb
     RDKit          3D

 26 25  0  0  1  0  0  0  0  0999 V2000
   15.0694  -11.2423  -17.3957 N   0  0  0  0  0  0  0  0  0  0  0  0
   15.9221  -10.6791  -16.4137 C   0  0  1  0  0  0  0  0  0  0  0  0
   17.0800  -11.5697  -16.0782 C   0  0  0  0  0  0  0  0  0  0  0  0
   16.8068  -13.0220  -16.0917 C   0  0  0  0  0  0  0  0  0  0  0  0
   17.9022  -13.9473  -15.6716 C   0  0  0  0  0  0  0  0  0  0  0  0
   17.5272  -15.3927  -15.5946 C   0  0  0  0  0  0  0  0  0  0  0  0
   18.5779  -16.3123  -15.3120 N   0  0  0  0  0  0  0  0  0  0  0  0
   16.4736   -9.3398  -16.7629 C   0  0  0  0  0  0  0  0  0  0  0  0
   16.9706   -9.1835  -17.9086 O   0  0  0  0  0  0  0  0  0  0  0  0
   14.8131   -6.2629  -17.5885 C   0  0  0  0  0  0  0  0  0  0  0  0
   15.7574   -5.9237  -16.4489 C   0  0  1  0  0  0  0  0  0  0  0  0
   15.0754   -5.8025  -15.2393 O   0  0  0  0  0  0  0  0  0  0  0  0
   16.9039   -6.9105  -16.3537 C   0  0  2  0  0  0  0  0  0  0  0  0
   16.4933   -8.2094  -15.9209 N   0  0  0  0  0  0  0  0  0  0  0  0
   17.8664   -6.3561  -15.3735 C   0  0  0  0  0  0  0  0  0  0  0  0
   18.1403   -7.0405  -14.3580 O   0  0  0  0  0  0  0  0  0  0  0  0
   18.4983   -5.1121  -15.4997 N   0  0  0  0  0  0  0  0  0  0  0  0
   19.6581   -4.6891  -14.6907 C   0  0  1  0  0  0  0  0  0  0  0  0
   20.7570   -5.6811  -14.7713 C   0  0  0  0  0  0  0  0  0  0  0  0
   21.9590   -5.2275  -14.0078 C   0  0  0  0  0  0  0  0  0  0  0  0
   23.0661   -6.2336  -14.0771 C   0  0  0  0  0  0  0  0  0  0  0  0
   23.2664   -6.9536  -13.0759 O   0  0  0  0  0  0  0  0  0  0  0  0
   20.0427   -3.3492  -15.1661 C   0  0  0  0  0  0  0  0  0  0  0  0
   20.7346   -2.4971  -14.3108 O   0  0  0  0  0  0  0  0  0  0  0  0
   23.8576   -6.3850  -15.1965 O   0  0  0  0  0  0  0  0  0  0  0  0
   19.7964   -2.8904  -16.3066 O   0  0  0  0  0  0  0  0  0  0  0  0
  2  1  1  6
  3  2  1  0
  3  4  1  0
  5  4  1  0
  5  6  1  0
  7  6  1  0
  8  9  2  0
  8  2  1  0
 11 10  1  6
 11 13  1  0
 12 11  1  0
 13 14  1  1
 14  8  1  0
 15 17  1  0
 15 13  1  0
 16 15  2  0
 18 19  1  6
 18 17  1  0
 19 20  1  0
 20 21  1  0
 21 25  1  0
 22 21  2  0
 23 18  1  0
 24 23  1  0
 26 23  2  0
M  END
$$$$
