KTE.pdb
     RDKit          3D

 26 25  0  0  1  0  0  0  0  0999 V2000
   28.9205  -20.0308  -14.4201 N   0  0  0  0  0  0  0  0  0  0  0  0
   27.9622  -19.9929  -15.4635 C   0  0  1  0  0  0  0  0  0  0  0  0
   27.5596  -21.3609  -15.9248 C   0  0  0  0  0  0  0  0  0  0  0  0
   28.6575  -22.2458  -16.3674 C   0  0  0  0  0  0  0  0  0  0  0  0
   28.2984  -23.5746  -16.9486 C   0  0  0  0  0  0  0  0  0  0  0  0
   29.4549  -24.4517  -17.3074 C   0  0  0  0  0  0  0  0  0  0  0  0
   29.1440  -25.7590  -17.7808 N   0  0  0  0  0  0  0  0  0  0  0  0
   26.7155  -19.2456  -15.1364 C   0  0  0  0  0  0  0  0  0  0  0  0
   26.4605  -19.0192  -13.9249 O   0  0  0  0  0  0  0  0  0  0  0  0
   25.8870  -15.7114  -15.7743 C   0  0  0  0  0  0  0  0  0  0  0  0
   24.7519  -16.5403  -16.3487 C   0  0  1  0  0  0  0  0  0  0  0  0
   24.8270  -16.6157  -17.7386 O   0  0  0  0  0  0  0  0  0  0  0  0
   24.6786  -17.9140  -15.7125 C   0  0  2  0  0  0  0  0  0  0  0  0
   25.7765  -18.7575  -16.0676 N   0  0  0  0  0  0  0  0  0  0  0  0
   23.4189  -18.5369  -16.1813 C   0  0  0  0  0  0  0  0  0  0  0  0
   23.4916  -19.4518  -17.0371 O   0  0  0  0  0  0  0  0  0  0  0  0
   22.1415  -18.1751  -15.7342 N   0  0  0  0  0  0  0  0  0  0  0  0
   20.8934  -18.8142  -16.1951 C   0  0  1  0  0  0  0  0  0  0  0  0
   20.1478  -19.4115  -15.0613 C   0  0  0  0  0  0  0  0  0  0  0  0
   18.8397  -19.9802  -15.5073 C   0  0  0  0  0  0  0  0  0  0  0  0
   18.0371  -20.4871  -14.3490 C   0  0  0  0  0  0  0  0  0  0  0  0
   18.5280  -20.3797  -13.2051 O   0  0  0  0  0  0  0  0  0  0  0  0
   20.1303  -17.7840  -16.9201 C   0  0  0  0  0  0  0  0  0  0  0  0
   19.3797  -18.1513  -18.0328 O   0  0  0  0  0  0  0  0  0  0  0  0
   16.7922  -21.0594  -14.5070 O   0  0  0  0  0  0  0  0  0  0  0  0
   20.0932  -16.5678  -16.6179 O   0  0  0  0  0  0  0  0  0  0  0  0
  2  1  1  1
  3  2  1  0
  3  4  1  0
  5  4  1  0
  5  6  1  0
  7  6  1  0
  8  9  2  0
  8  2  1  0
 11 10  1  1
 11 13  1  0
 12 11  1  0
 13 14  1  6
 14  8  1  0
 15 17  1  0
 15 13  1  0
 16 15  2  0
 18 19  1  1
 18 17  1  0
 19 20  1  0
 20 21  1  0
 21 25  1  0
 22 21  2  0
 23 18  1  0
 24 23  1  0
 26 23  2  0
M  END
$$$$
