KTE.pdb
     RDKit          3D

 26 25  0  0  1  0  0  0  0  0999 V2000
   18.8909  -15.2651  -16.3793 N   0  0  0  0  0  0  0  0  0  0  0  0
   18.4647  -13.9207  -16.5197 C   0  0  1  0  0  0  0  0  0  0  0  0
   17.3717  -13.5606  -15.5595 C   0  0  0  0  0  0  0  0  0  0  0  0
   16.2652  -14.5331  -15.4413 C   0  0  0  0  0  0  0  0  0  0  0  0
   15.1602  -14.2277  -14.4831 C   0  0  0  0  0  0  0  0  0  0  0  0
   13.9871  -15.1531  -14.5402 C   0  0  0  0  0  0  0  0  0  0  0  0
   12.8882  -14.8468  -13.6868 N   0  0  0  0  0  0  0  0  0  0  0  0
   19.5456  -12.9065  -16.3689 C   0  0  0  0  0  0  0  0  0  0  0  0
   20.5076  -13.1745  -15.6028 O   0  0  0  0  0  0  0  0  0  0  0  0
   22.0451  -11.7154  -18.8099 C   0  0  0  0  0  0  0  0  0  0  0  0
   21.3739  -10.4779  -18.2409 C   0  0  1  0  0  0  0  0  0  0  0  0
   20.4863   -9.9123  -19.1550 O   0  0  0  0  0  0  0  0  0  0  0  0
   20.7085  -10.7592  -16.9086 C   0  0  2  0  0  0  0  0  0  0  0  0
   19.5981  -11.6534  -17.0123 N   0  0  0  0  0  0  0  0  0  0  0  0
   20.2340   -9.4580  -16.3831 C   0  0  0  0  0  0  0  0  0  0  0  0
   19.0066   -9.2042  -16.4458 O   0  0  0  0  0  0  0  0  0  0  0  0
   21.0639   -8.4819  -15.8163 N   0  0  0  0  0  0  0  0  0  0  0  0
   20.5737   -7.2151  -15.2388 C   0  0  1  0  0  0  0  0  0  0  0  0
   21.6224   -6.5582  -14.4222 C   0  0  0  0  0  0  0  0  0  0  0  0
   21.1503   -5.2487  -13.8782 C   0  0  0  0  0  0  0  0  0  0  0  0
   22.2355   -4.5429  -13.1254 C   0  0  0  0  0  0  0  0  0  0  0  0
   23.3193   -5.1422  -12.9614 O   0  0  0  0  0  0  0  0  0  0  0  0
   20.1037   -6.3884  -16.3635 C   0  0  0  0  0  0  0  0  0  0  0  0
   20.7109   -6.5252  -17.6080 O   0  0  0  0  0  0  0  0  0  0  0  0
   22.0746   -3.2710  -12.6165 O   0  0  0  0  0  0  0  0  0  0  0  0
   19.1774   -5.5458  -16.3014 O   0  0  0  0  0  0  0  0  0  0  0  0
  2  1  1  1
  3  2  1  0
  3  4  1  0
  5  4  1  0
  5  6  1  0
  7  6  1  0
  8  9  2  0
  8  2  1  0
 11 10  1  6
 11 13  1  0
 12 11  1  0
 13 14  1  6
 14  8  1  0
 15 17  1  0
 15 13  1  0
 16 15  2  0
 18 19  1  6
 18 17  1  0
 19 20  1  0
 20 21  1  0
 21 25  1  0
 22 21  2  0
 23 18  1  0
 24 23  1  0
 26 23  2  0
M  END
$$$$
