KTE.pdb
     RDKit          3D

 26 25  0  0  1  0  0  0  0  0999 V2000
   21.5204  -13.6036  -18.6307 N   0  0  0  0  0  0  0  0  0  0  0  0
   21.5222  -12.2028  -18.8463 C   0  0  1  0  0  0  0  0  0  0  0  0
   20.3728  -11.7499  -19.6948 C   0  0  0  0  0  0  0  0  0  0  0  0
   19.7084  -12.7963  -20.4997 C   0  0  0  0  0  0  0  0  0  0  0  0
   18.5359  -12.4006  -21.3370 C   0  0  0  0  0  0  0  0  0  0  0  0
   17.8716  -13.5160  -22.0790 C   0  0  0  0  0  0  0  0  0  0  0  0
   16.6608  -13.1999  -22.7599 N   0  0  0  0  0  0  0  0  0  0  0  0
   21.5119  -11.3820  -17.6030 C   0  0  0  0  0  0  0  0  0  0  0  0
   20.8002  -11.7719  -16.6409 O   0  0  0  0  0  0  0  0  0  0  0  0
   24.0135  -11.1529  -15.1309 C   0  0  0  0  0  0  0  0  0  0  0  0
   23.7222   -9.7083  -15.4965 C   0  0  1  0  0  0  0  0  0  0  0  0
   24.7246   -9.1737  -16.3043 O   0  0  0  0  0  0  0  0  0  0  0  0
   22.3502   -9.5502  -16.1211 C   0  0  2  0  0  0  0  0  0  0  0  0
   22.2348  -10.1900  -17.3941 N   0  0  0  0  0  0  0  0  0  0  0  0
   22.1201   -8.0963  -16.2879 C   0  0  0  0  0  0  0  0  0  0  0  0
   21.7416   -7.6800  -17.4096 O   0  0  0  0  0  0  0  0  0  0  0  0
   22.2961   -7.1446  -15.2750 N   0  0  0  0  0  0  0  0  0  0  0  0
   21.7705   -5.7667  -15.3361 C   0  0  1  0  0  0  0  0  0  0  0  0
   20.3200   -5.7606  -15.6432 C   0  0  0  0  0  0  0  0  0  0  0  0
   19.7708   -4.3707  -15.6569 C   0  0  0  0  0  0  0  0  0  0  0  0
   18.3343   -4.3514  -16.0797 C   0  0  0  0  0  0  0  0  0  0  0  0
   17.4953   -4.8903  -15.3269 O   0  0  0  0  0  0  0  0  0  0  0  0
   22.0997   -5.1282  -14.0504 C   0  0  0  0  0  0  0  0  0  0  0  0
   22.3480   -3.7595  -14.0150 O   0  0  0  0  0  0  0  0  0  0  0  0
   17.9186   -3.7652  -17.2569 O   0  0  0  0  0  0  0  0  0  0  0  0
   22.1795   -5.7228  -12.9495 O   0  0  0  0  0  0  0  0  0  0  0  0
  2  1  1  1
  3  2  1  0
  3  4  1  0
  5  4  1  0
  5  6  1  0
  7  6  1  0
  8  9  2  0
  8  2  1  0
 11 10  1  6
 11 13  1  0
 12 11  1  0
 13 14  1  6
 14  8  1  0
 15 17  1  0
 15 13  1  0
 16 15  2  0
 18 19  1  1
 18 17  1  0
 19 20  1  0
 20 21  1  0
 21 25  1  0
 22 21  2  0
 23 18  1  0
 24 23  1  0
 26 23  2  0
M  END
$$$$
