KTE.pdb
     RDKit          3D

 26 25  0  0  1  0  0  0  0  0999 V2000
   27.9271  -22.5982  -16.2822 N   0  0  0  0  0  0  0  0  0  0  0  0
   27.2907  -21.4562  -15.7350 C   0  0  1  0  0  0  0  0  0  0  0  0
   26.7538  -20.5362  -16.7894 C   0  0  0  0  0  0  0  0  0  0  0  0
   27.6313  -20.3035  -17.9556 C   0  0  0  0  0  0  0  0  0  0  0  0
   28.8395  -19.4451  -17.7660 C   0  0  0  0  0  0  0  0  0  0  0  0
   29.6458  -19.1907  -18.9993 C   0  0  0  0  0  0  0  0  0  0  0  0
   30.8299  -18.4146  -18.8409 N   0  0  0  0  0  0  0  0  0  0  0  0
   26.1763  -21.7565  -14.7929 C   0  0  0  0  0  0  0  0  0  0  0  0
   25.2452  -22.5022  -15.1942 O   0  0  0  0  0  0  0  0  0  0  0  0
   25.6318  -19.8404  -10.9323 C   0  0  0  0  0  0  0  0  0  0  0  0
   25.2231  -21.2850  -11.1598 C   0  0  1  0  0  0  0  0  0  0  0  0
   24.1475  -21.6451  -10.3496 O   0  0  0  0  0  0  0  0  0  0  0  0
   24.9475  -21.5695  -12.6228 C   0  0  2  0  0  0  0  0  0  0  0  0
   26.0605  -21.2794  -13.4715 N   0  0  0  0  0  0  0  0  0  0  0  0
   23.8031  -20.7155  -13.0174 C   0  0  0  0  0  0  0  0  0  0  0  0
   24.0373  -19.5335  -13.3676 O   0  0  0  0  0  0  0  0  0  0  0  0
   22.4668  -21.1362  -13.0278 N   0  0  0  0  0  0  0  0  0  0  0  0
   21.3342  -20.2785  -13.4279 C   0  0  1  0  0  0  0  0  0  0  0  0
   20.8016  -20.6790  -14.7524 C   0  0  0  0  0  0  0  0  0  0  0  0
   19.6846  -19.7850  -15.1846 C   0  0  0  0  0  0  0  0  0  0  0  0
   19.0883  -20.2383  -16.4814 C   0  0  0  0  0  0  0  0  0  0  0  0
   17.9817  -19.7634  -16.8145 O   0  0  0  0  0  0  0  0  0  0  0  0
   20.3369  -20.3588  -12.3470 C   0  0  0  0  0  0  0  0  0  0  0  0
   19.2759  -19.4586  -12.3328 O   0  0  0  0  0  0  0  0  0  0  0  0
   19.7158  -21.1500  -17.3044 O   0  0  0  0  0  0  0  0  0  0  0  0
   20.3561  -21.1897  -11.4084 O   0  0  0  0  0  0  0  0  0  0  0  0
  2  1  1  6
  3  2  1  0
  3  4  1  0
  5  4  1  0
  5  6  1  0
  7  6  1  0
  8  9  2  0
  8  2  1  0
 11 10  1  6
 11 13  1  0
 12 11  1  0
 13 14  1  6
 14  8  1  0
 15 17  1  0
 15 13  1  0
 16 15  2  0
 18 19  1  6
 18 17  1  0
 19 20  1  0
 20 21  1  0
 21 25  1  0
 22 21  2  0
 23 18  1  0
 24 23  1  0
 26 23  2  0
M  END
$$$$
