KTE.pdb
     RDKit          3D

 26 25  0  0  1  0  0  0  0  0999 V2000
   28.5820  -23.6234  -15.7220 N   0  0  0  0  0  0  0  0  0  0  0  0
   27.4916  -23.1925  -16.5183 C   0  0  1  0  0  0  0  0  0  0  0  0
   26.5055  -24.2891  -16.7854 C   0  0  0  0  0  0  0  0  0  0  0  0
   26.9987  -25.4218  -17.5966 C   0  0  0  0  0  0  0  0  0  0  0  0
   28.4156  -25.3838  -18.0690 C   0  0  0  0  0  0  0  0  0  0  0  0
   28.8456  -26.5484  -18.9025 C   0  0  0  0  0  0  0  0  0  0  0  0
   28.5768  -27.8452  -18.3774 N   0  0  0  0  0  0  0  0  0  0  0  0
   26.7351  -22.0352  -15.9632 C   0  0  0  0  0  0  0  0  0  0  0  0
   26.8433  -21.7909  -14.7333 O   0  0  0  0  0  0  0  0  0  0  0  0
   27.3241  -18.4934  -16.2625 C   0  0  0  0  0  0  0  0  0  0  0  0
   25.8910  -18.7120  -16.7142 C   0  0  1  0  0  0  0  0  0  0  0  0
   25.7808  -18.6671  -18.1030 O   0  0  0  0  0  0  0  0  0  0  0  0
   25.3082  -19.9892  -16.1430 C   0  0  2  0  0  0  0  0  0  0  0  0
   25.8950  -21.1705  -16.6938 N   0  0  0  0  0  0  0  0  0  0  0  0
   23.8603  -19.9773  -16.4562 C   0  0  0  0  0  0  0  0  0  0  0  0
   23.4450  -20.7264  -17.3733 O   0  0  0  0  0  0  0  0  0  0  0  0
   22.9133  -19.1831  -15.7967 N   0  0  0  0  0  0  0  0  0  0  0  0
   21.4806  -19.1419  -16.1493 C   0  0  1  0  0  0  0  0  0  0  0  0
   20.6292  -19.3603  -14.9553 C   0  0  0  0  0  0  0  0  0  0  0  0
   19.1773  -19.2535  -15.2931 C   0  0  0  0  0  0  0  0  0  0  0  0
   18.3163  -19.4328  -14.0811 C   0  0  0  0  0  0  0  0  0  0  0  0
   18.5148  -20.4374  -13.3654 O   0  0  0  0  0  0  0  0  0  0  0  0
   21.2419  -17.8474  -16.8099 C   0  0  0  0  0  0  0  0  0  0  0  0
   20.1356  -17.7023  -17.6413 O   0  0  0  0  0  0  0  0  0  0  0  0
   17.3269  -18.5349  -13.7385 O   0  0  0  0  0  0  0  0  0  0  0  0
   21.9665  -16.8314  -16.6887 O   0  0  0  0  0  0  0  0  0  0  0  0
  2  1  1  1
  3  2  1  0
  3  4  1  0
  5  4  1  0
  5  6  1  0
  7  6  1  0
  8  9  2  0
  8  2  1  0
 11 10  1  6
 11 13  1  0
 12 11  1  0
 13 14  1  6
 14  8  1  0
 15 17  1  0
 15 13  1  0
 16 15  2  0
 18 19  1  1
 18 17  1  0
 19 20  1  0
 20 21  1  0
 21 25  1  0
 22 21  2  0
 23 18  1  0
 24 23  1  0
 26 23  2  0
M  END
$$$$
