KTE.pdb
     RDKit          3D

 26 25  0  0  1  0  0  0  0  0999 V2000
   14.0308  -22.9613   -9.1634 N   0  0  0  0  0  0  0  0  0  0  0  0
   14.4781  -22.8015   -7.8281 C   0  0  1  0  0  0  0  0  0  0  0  0
   13.3871  -22.3466   -6.9066 C   0  0  0  0  0  0  0  0  0  0  0  0
   12.5583  -21.2215   -7.3877 C   0  0  0  0  0  0  0  0  0  0  0  0
   11.4828  -20.7056   -6.4879 C   0  0  0  0  0  0  0  0  0  0  0  0
   10.5847  -19.6719   -7.0884 C   0  0  0  0  0  0  0  0  0  0  0  0
    9.4855  -19.2386   -6.2923 N   0  0  0  0  0  0  0  0  0  0  0  0
   15.0928  -24.0187   -7.2280 C   0  0  0  0  0  0  0  0  0  0  0  0
   14.5843  -25.1367   -7.5028 O   0  0  0  0  0  0  0  0  0  0  0  0
   18.6824  -25.2103   -7.6790 C   0  0  0  0  0  0  0  0  0  0  0  0
   18.3541  -25.2309   -6.1966 C   0  0  1  0  0  0  0  0  0  0  0  0
   18.9818  -24.1863   -5.5199 O   0  0  0  0  0  0  0  0  0  0  0  0
   16.8587  -25.2447   -5.9502 C   0  0  2  0  0  0  0  0  0  0  0  0
   16.2090  -24.0418   -6.3674 N   0  0  0  0  0  0  0  0  0  0  0  0
   16.6661  -25.4175   -4.4916 C   0  0  0  0  0  0  0  0  0  0  0  0
   16.0518  -24.5214   -3.8635 O   0  0  0  0  0  0  0  0  0  0  0  0
   17.1244  -26.5186   -3.7566 N   0  0  0  0  0  0  0  0  0  0  0  0
   16.9763  -26.6548   -2.2943 C   0  0  1  0  0  0  0  0  0  0  0  0
   15.5475  -26.6493   -1.8984 C   0  0  0  0  0  0  0  0  0  0  0  0
   15.3894  -26.8208   -0.4223 C   0  0  0  0  0  0  0  0  0  0  0  0
   15.4216  -25.5043    0.2907 C   0  0  0  0  0  0  0  0  0  0  0  0
   14.6086  -24.6253   -0.0662 O   0  0  0  0  0  0  0  0  0  0  0  0
   17.6864  -27.8859   -1.9075 C   0  0  0  0  0  0  0  0  0  0  0  0
   18.0832  -28.0545   -0.5845 O   0  0  0  0  0  0  0  0  0  0  0  0
   16.3087  -25.2394    1.3131 O   0  0  0  0  0  0  0  0  0  0  0  0
   17.9759  -28.8260   -2.6849 O   0  0  0  0  0  0  0  0  0  0  0  0
  2  1  1  6
  3  2  1  0
  3  4  1  0
  5  4  1  0
  5  6  1  0
  7  6  1  0
  8  9  2  0
  8  2  1  0
 11 10  1  6
 11 13  1  0
 12 11  1  0
 13 14  1  1
 14  8  1  0
 15 17  1  0
 15 13  1  0
 16 15  2  0
 18 19  1  6
 18 17  1  0
 19 20  1  0
 20 21  1  0
 21 25  1  0
 22 21  2  0
 23 18  1  0
 24 23  1  0
 26 23  2  0
M  END
$$$$
