KTE.pdb
     RDKit          3D

 26 25  0  0  1  0  0  0  0  0999 V2000
   19.2851  -16.1785  -18.2191 N   0  0  0  0  0  0  0  0  0  0  0  0
   19.1896  -15.3020  -17.1095 C   0  0  1  0  0  0  0  0  0  0  0  0
   20.0615  -15.7247  -15.9660 C   0  0  0  0  0  0  0  0  0  0  0  0
   19.9249  -17.1304  -15.5308 C   0  0  0  0  0  0  0  0  0  0  0  0
   20.6444  -17.5560  -14.2923 C   0  0  0  0  0  0  0  0  0  0  0  0
   20.4418  -18.9818  -13.8904 C   0  0  0  0  0  0  0  0  0  0  0  0
   19.7199  -19.2102  -12.6835 N   0  0  0  0  0  0  0  0  0  0  0  0
   19.5070  -13.8782  -17.4123 C   0  0  0  0  0  0  0  0  0  0  0  0
   20.4018  -13.6384  -18.2643 O   0  0  0  0  0  0  0  0  0  0  0  0
   17.8801  -11.1753  -19.2654 C   0  0  0  0  0  0  0  0  0  0  0  0
   18.1126  -10.6595  -17.8564 C   0  0  1  0  0  0  0  0  0  0  0  0
   16.9373  -10.6733  -17.1070 O   0  0  0  0  0  0  0  0  0  0  0  0
   19.2339  -11.4051  -17.1607 C   0  0  2  0  0  0  0  0  0  0  0  0
   18.8918  -12.7524  -16.8281 N   0  0  0  0  0  0  0  0  0  0  0  0
   19.5354  -10.6612  -15.9155 C   0  0  0  0  0  0  0  0  0  0  0  0
   19.1639  -11.1559  -14.8237 O   0  0  0  0  0  0  0  0  0  0  0  0
   20.2111   -9.4349  -15.8687 N   0  0  0  0  0  0  0  0  0  0  0  0
   20.4748   -8.6843  -14.6254 C   0  0  1  0  0  0  0  0  0  0  0  0
   21.4252   -7.5716  -14.8637 C   0  0  0  0  0  0  0  0  0  0  0  0
   21.7299   -6.8339  -13.6002 C   0  0  0  0  0  0  0  0  0  0  0  0
   22.5948   -5.6385  -13.8564 C   0  0  0  0  0  0  0  0  0  0  0  0
   23.3125   -5.6437  -14.8790 O   0  0  0  0  0  0  0  0  0  0  0  0
   19.1683   -8.2388  -14.1119 C   0  0  0  0  0  0  0  0  0  0  0  0
   18.9728   -8.1495  -12.7371 O   0  0  0  0  0  0  0  0  0  0  0  0
   22.6207   -4.5503  -13.0094 O   0  0  0  0  0  0  0  0  0  0  0  0
   18.1843   -7.9225  -14.8216 O   0  0  0  0  0  0  0  0  0  0  0  0
  2  1  1  6
  3  2  1  0
  3  4  1  0
  5  4  1  0
  5  6  1  0
  7  6  1  0
  8  9  2  0
  8  2  1  0
 11 10  1  6
 11 13  1  0
 12 11  1  0
 13 14  1  1
 14  8  1  0
 15 17  1  0
 15 13  1  0
 16 15  2  0
 18 19  1  6
 18 17  1  0
 19 20  1  0
 20 21  1  0
 21 25  1  0
 22 21  2  0
 23 18  1  0
 24 23  1  0
 26 23  2  0
M  END
$$$$
