ISI.pdb
     RDKit          3D

 23 22  0  0  1  0  0  0  0  0999 V2000
   15.5541  -20.0150    4.1576 C   0  0  0  0  0  0  0  0  0  0  0  0
   16.0237  -18.8543    3.3069 C   0  0  0  0  0  0  0  0  0  0  0  0
   16.9328  -17.9288    4.0828 C   0  0  2  0  0  0  0  0  0  0  0  0
   16.2999  -17.4242    5.3396 C   0  0  0  0  0  0  0  0  0  0  0  0
   17.4354  -16.7795    3.2403 C   0  0  2  0  0  0  0  0  0  0  0  0
   18.1864  -17.4058    2.1407 N   0  0  0  0  0  0  0  0  0  0  0  0
   18.3890  -15.9071    4.0147 C   0  0  0  0  0  0  0  0  0  0  0  0
   19.5534  -16.2854    4.2840 O   0  0  0  0  0  0  0  0  0  0  0  0
   17.4142  -12.1459    5.6423 O   0  0  0  0  0  0  0  0  0  0  0  0
   18.5367  -12.3323    4.8417 C   0  0  0  0  0  0  0  0  0  0  0  0
   19.0072  -13.7724    5.0764 C   0  0  2  0  0  0  0  0  0  0  0  0
   18.0073  -14.6212    4.4708 N   0  0  0  0  0  0  0  0  0  0  0  0
   19.1252  -14.0762    6.5030 C   0  0  0  0  0  0  0  0  0  0  0  0
   18.2036  -14.6343    7.1119 O   0  0  0  0  0  0  0  0  0  0  0  0
   23.2057  -16.6066    8.3599 C   0  0  0  0  0  0  0  0  0  0  0  0
   21.7676  -16.0913    8.2136 C   0  0  0  0  0  0  0  0  0  0  0  0
   21.7450  -14.7267    8.8195 C   0  0  2  0  0  0  0  0  0  0  0  0
   22.0634  -14.8642   10.2933 C   0  0  0  0  0  0  0  0  0  0  0  0
   20.4427  -13.9897    8.6364 C   0  0  2  0  0  0  0  0  0  0  0  0
   20.3058  -13.7342    7.2170 N   0  0  0  0  0  0  0  0  0  0  0  0
   20.3839  -12.7207    9.3683 C   0  0  0  0  0  0  0  0  0  0  0  0
   19.7235  -12.6643   10.5837 O   0  0  0  0  0  0  0  0  0  0  0  0
   20.9038  -11.6515    8.9607 O   0  0  0  0  0  0  0  0  0  0  0  0
  1  2  1  0
  3  2  1  0
  3  4  1  1
  5  6  1  6
  5  3  1  0
  7  8  2  0
  7  5  1  0
  9 10  1  0
 11 10  1  1
 11 13  1  0
 11 12  1  0
 12  7  1  0
 13 20  1  0
 14 13  2  0
 16 15  1  0
 17 19  1  0
 17 18  1  1
 17 16  1  0
 19 20  1  6
 21 19  1  0
 21 22  1  0
 23 21  2  0
M  END
$$$$
