ISI.pdb
     RDKit          3D

 23 22  0  0  1  0  0  0  0  0999 V2000
   21.9287  -16.9035  -18.0523 C   0  0  0  0  0  0  0  0  0  0  0  0
   23.1061  -17.7655  -18.4546 C   0  0  0  0  0  0  0  0  0  0  0  0
   23.5577  -18.6545  -17.3184 C   0  0  2  0  0  0  0  0  0  0  0  0
   23.7718  -17.8968  -16.0477 C   0  0  0  0  0  0  0  0  0  0  0  0
   24.7869  -19.4586  -17.6732 C   0  0  2  0  0  0  0  0  0  0  0  0
   24.3534  -20.3782  -18.7370 N   0  0  0  0  0  0  0  0  0  0  0  0
   25.2557  -20.2883  -16.5061 C   0  0  0  0  0  0  0  0  0  0  0  0
   24.5004  -21.1155  -15.9434 O   0  0  0  0  0  0  0  0  0  0  0  0
   28.7371  -22.1303  -15.8367 O   0  0  0  0  0  0  0  0  0  0  0  0
   28.4776  -21.1083  -14.9290 C   0  0  0  0  0  0  0  0  0  0  0  0
   26.9530  -20.9659  -14.8548 C   0  0  2  0  0  0  0  0  0  0  0  0
   26.5721  -20.1668  -15.9966 N   0  0  0  0  0  0  0  0  0  0  0  0
   26.5317  -20.3062  -13.6185 C   0  0  0  0  0  0  0  0  0  0  0  0
   26.6949  -19.0897  -13.4601 O   0  0  0  0  0  0  0  0  0  0  0  0
   21.8117  -20.5547  -11.7900 C   0  0  0  0  0  0  0  0  0  0  0  0
   23.2390  -20.0929  -12.1133 C   0  0  0  0  0  0  0  0  0  0  0  0
   24.1234  -20.6972  -11.0730 C   0  0  2  0  0  0  0  0  0  0  0  0
   23.7036  -20.1480   -9.7259 C   0  0  0  0  0  0  0  0  0  0  0  0
   25.5948  -20.4566  -11.2958 C   0  0  2  0  0  0  0  0  0  0  0  0
   25.9250  -21.0547  -12.5734 N   0  0  0  0  0  0  0  0  0  0  0  0
   26.4446  -21.0370  -10.2515 C   0  0  0  0  0  0  0  0  0  0  0  0
   26.7788  -20.2772   -9.1437 O   0  0  0  0  0  0  0  0  0  0  0  0
   26.9038  -22.2063  -10.2907 O   0  0  0  0  0  0  0  0  0  0  0  0
  1  2  1  0
  3  2  1  0
  3  4  1  1
  5  6  1  6
  5  3  1  0
  7  8  2  0
  7  5  1  0
  9 10  1  0
 11 10  1  1
 11 13  1  0
 11 12  1  0
 12  7  1  0
 13 20  1  0
 14 13  2  0
 16 15  1  0
 17 19  1  0
 17 18  1  1
 17 16  1  0
 19 20  1  6
 21 19  1  0
 21 22  1  0
 23 21  2  0
M  END
$$$$
