ISI.pdb
     RDKit          3D

 23 22  0  0  1  0  0  0  0  0999 V2000
   22.8473  -20.9682   -7.6120 C   0  0  0  0  0  0  0  0  0  0  0  0
   24.2298  -21.2395   -8.1655 C   0  0  0  0  0  0  0  0  0  0  0  0
   24.3773  -20.7126   -9.5747 C   0  0  2  0  0  0  0  0  0  0  0  0
   23.3257  -21.2399  -10.4971 C   0  0  0  0  0  0  0  0  0  0  0  0
   25.7563  -20.9636  -10.1393 C   0  0  2  0  0  0  0  0  0  0  0  0
   26.6803  -20.2785   -9.2215 N   0  0  0  0  0  0  0  0  0  0  0  0
   25.9124  -20.3422  -11.5030 C   0  0  0  0  0  0  0  0  0  0  0  0
   25.9737  -19.0994  -11.6549 O   0  0  0  0  0  0  0  0  0  0  0  0
   26.8630  -22.5200  -14.8006 O   0  0  0  0  0  0  0  0  0  0  0  0
   27.1916  -21.1700  -14.7274 C   0  0  0  0  0  0  0  0  0  0  0  0
   26.0566  -20.4847  -13.9577 C   0  0  2  0  0  0  0  0  0  0  0  0
   25.9965  -21.1393  -12.6712 N   0  0  0  0  0  0  0  0  0  0  0  0
   24.7748  -20.6217  -14.6501 C   0  0  0  0  0  0  0  0  0  0  0  0
   23.8172  -21.1877  -14.1077 O   0  0  0  0  0  0  0  0  0  0  0  0
   20.4467  -17.7992  -15.4304 C   0  0  0  0  0  0  0  0  0  0  0  0
   21.1396  -18.7705  -16.3955 C   0  0  0  0  0  0  0  0  0  0  0  0
   22.5044  -19.0142  -15.8408 C   0  0  2  0  0  0  0  0  0  0  0  0
   23.2411  -17.6916  -15.8138 C   0  0  0  0  0  0  0  0  0  0  0  0
   23.3069  -20.0399  -16.6000 C   0  0  2  0  0  0  0  0  0  0  0  0
   24.6068  -20.1047  -15.9635 N   0  0  0  0  0  0  0  0  0  0  0  0
   23.4747  -19.7139  -18.0195 C   0  0  0  0  0  0  0  0  0  0  0  0
   22.5707  -20.2080  -18.9442 O   0  0  0  0  0  0  0  0  0  0  0  0
   24.4053  -18.9990  -18.4695 O   0  0  0  0  0  0  0  0  0  0  0  0
  1  2  1  0
  3  2  1  0
  3  4  1  6
  5  6  1  1
  5  3  1  0
  7  8  2  0
  7  5  1  0
  9 10  1  0
 11 10  1  6
 11 13  1  0
 11 12  1  0
 12  7  1  0
 13 20  1  0
 14 13  2  0
 16 15  1  0
 17 19  1  0
 17 18  1  6
 17 16  1  0
 19 20  1  1
 21 19  1  0
 21 22  1  0
 23 21  2  0
M  END
$$$$
