ISI.pdb
     RDKit          3D

 23 22  0  0  1  0  0  0  0  0999 V2000
   14.9271  -14.7988  -16.7424 C   0  0  0  0  0  0  0  0  0  0  0  0
   15.9152  -14.6269  -17.8762 C   0  0  0  0  0  0  0  0  0  0  0  0
   16.9486  -13.5708  -17.5572 C   0  0  2  0  0  0  0  0  0  0  0  0
   16.3333  -12.2759  -17.1336 C   0  0  0  0  0  0  0  0  0  0  0  0
   17.9169  -13.3533  -18.6967 C   0  0  2  0  0  0  0  0  0  0  0  0
   18.5896  -14.6485  -18.8847 N   0  0  0  0  0  0  0  0  0  0  0  0
   18.9666  -12.3338  -18.3380 C   0  0  0  0  0  0  0  0  0  0  0  0
   19.8773  -12.5907  -17.5159 O   0  0  0  0  0  0  0  0  0  0  0  0
   18.7246   -8.4276  -19.4976 O   0  0  0  0  0  0  0  0  0  0  0  0
   19.9757   -9.0163  -19.6525 C   0  0  0  0  0  0  0  0  0  0  0  0
   20.0595  -10.1442  -18.6177 C   0  0  2  0  0  0  0  0  0  0  0  0
   18.9667  -11.0406  -18.9168 N   0  0  0  0  0  0  0  0  0  0  0  0
   19.9305   -9.6349  -17.2519 C   0  0  0  0  0  0  0  0  0  0  0  0
   18.8372   -9.6422  -16.6719 O   0  0  0  0  0  0  0  0  0  0  0  0
   23.5908  -11.0225  -13.8328 C   0  0  0  0  0  0  0  0  0  0  0  0
   22.2502  -10.6622  -14.4869 C   0  0  0  0  0  0  0  0  0  0  0  0
   22.1547   -9.1723  -14.4598 C   0  0  2  0  0  0  0  0  0  0  0  0
   22.1069   -8.7331  -13.0116 C   0  0  0  0  0  0  0  0  0  0  0  0
   20.9727   -8.6141  -15.2107 C   0  0  2  0  0  0  0  0  0  0  0  0
   21.0637   -9.1207  -16.5649 N   0  0  0  0  0  0  0  0  0  0  0  0
   20.9402   -7.1486  -15.2393 C   0  0  0  0  0  0  0  0  0  0  0  0
   21.6277   -6.4705  -16.2312 O   0  0  0  0  0  0  0  0  0  0  0  0
   20.3163   -6.4447  -14.4058 O   0  0  0  0  0  0  0  0  0  0  0  0
  1  2  1  0
  3  2  1  0
  3  4  1  6
  5  6  1  1
  5  3  1  0
  7  8  2  0
  7  5  1  0
  9 10  1  0
 11 10  1  6
 11 13  1  0
 11 12  1  0
 12  7  1  0
 13 20  1  0
 14 13  2  0
 16 15  1  0
 17 19  1  0
 17 18  1  1
 17 16  1  0
 19 20  1  6
 21 19  1  0
 21 22  1  0
 23 21  2  0
M  END
$$$$
