ISI.pdb
     RDKit          3D

 23 22  0  0  1  0  0  0  0  0999 V2000
   30.5823  -21.3835  -12.7537 C   0  0  0  0  0  0  0  0  0  0  0  0
   29.0821  -21.4925  -12.9243 C   0  0  0  0  0  0  0  0  0  0  0  0
   28.5646  -20.4980  -13.9383 C   0  0  2  0  0  0  0  0  0  0  0  0
   29.0469  -19.1076  -13.6757 C   0  0  0  0  0  0  0  0  0  0  0  0
   27.0582  -20.5270  -14.0527 C   0  0  2  0  0  0  0  0  0  0  0  0
   26.7374  -19.6183  -15.1648 N   0  0  0  0  0  0  0  0  0  0  0  0
   26.4026  -19.9860  -12.8086 C   0  0  0  0  0  0  0  0  0  0  0  0
   26.2902  -18.7537  -12.6089 O   0  0  0  0  0  0  0  0  0  0  0  0
   23.1201  -19.8284   -9.7792 O   0  0  0  0  0  0  0  0  0  0  0  0
   23.7438  -20.4315  -10.8668 C   0  0  0  0  0  0  0  0  0  0  0  0
   25.2530  -20.2722  -10.6492 C   0  0  2  0  0  0  0  0  0  0  0  0
   25.8858  -20.8504  -11.8121 N   0  0  0  0  0  0  0  0  0  0  0  0
   25.7002  -20.9635   -9.4395 C   0  0  0  0  0  0  0  0  0  0  0  0
   25.9718  -22.1707   -9.4615 O   0  0  0  0  0  0  0  0  0  0  0  0
   29.0154  -18.6197   -5.8850 C   0  0  0  0  0  0  0  0  0  0  0  0
   28.3706  -19.7048   -6.7578 C   0  0  0  0  0  0  0  0  0  0  0  0
   27.0174  -19.9610   -6.1810 C   0  0  2  0  0  0  0  0  0  0  0  0
   27.2008  -20.4711   -4.7671 C   0  0  0  0  0  0  0  0  0  0  0  0
   26.1784  -20.9281   -6.9768 C   0  0  2  0  0  0  0  0  0  0  0  0
   25.8309  -20.2572   -8.2129 N   0  0  0  0  0  0  0  0  0  0  0  0
   24.9534  -21.3420   -6.2856 C   0  0  0  0  0  0  0  0  0  0  0  0
   24.9919  -22.4173   -5.4146 O   0  0  0  0  0  0  0  0  0  0  0  0
   23.8409  -20.7755   -6.4307 O   0  0  0  0  0  0  0  0  0  0  0  0
  1  2  1  0
  3  2  1  0
  3  4  1  1
  5  6  1  6
  5  3  1  0
  7  8  2  0
  7  5  1  0
  9 10  1  0
 11 10  1  6
 11 13  1  0
 11 12  1  0
 12  7  1  0
 13 20  1  0
 14 13  2  0
 16 15  1  0
 17 19  1  0
 17 18  1  1
 17 16  1  0
 19 20  1  6
 21 19  1  0
 21 22  1  0
 23 21  2  0
M  END
$$$$
