ISI.pdb
     RDKit          3D

 23 22  0  0  1  0  0  0  0  0999 V2000
   21.0911  -16.0178  -17.2114 C   0  0  0  0  0  0  0  0  0  0  0  0
   22.2054  -14.9933  -17.2288 C   0  0  0  0  0  0  0  0  0  0  0  0
   21.7866  -13.7055  -16.5570 C   0  0  2  0  0  0  0  0  0  0  0  0
   20.4510  -13.2230  -17.0242 C   0  0  0  0  0  0  0  0  0  0  0  0
   22.8265  -12.6189  -16.7016 C   0  0  2  0  0  0  0  0  0  0  0  0
   24.0450  -13.1653  -16.0837 N   0  0  0  0  0  0  0  0  0  0  0  0
   22.4356  -11.3800  -15.9382 C   0  0  0  0  0  0  0  0  0  0  0  0
   22.1575  -11.4221  -14.7167 O   0  0  0  0  0  0  0  0  0  0  0  0
   23.0299   -7.7949  -17.5062 O   0  0  0  0  0  0  0  0  0  0  0  0
   22.9207   -7.8462  -16.1201 C   0  0  0  0  0  0  0  0  0  0  0  0
   21.9314   -8.9730  -15.8007 C   0  0  2  0  0  0  0  0  0  0  0  0
   22.3664  -10.1147  -16.5718 N   0  0  0  0  0  0  0  0  0  0  0  0
   20.5626   -8.6108  -16.1702 C   0  0  0  0  0  0  0  0  0  0  0  0
   20.1005   -8.9190  -17.2761 O   0  0  0  0  0  0  0  0  0  0  0  0
   16.2397  -10.4760  -14.7642 C   0  0  0  0  0  0  0  0  0  0  0  0
   17.2017   -9.6646  -15.6424 C   0  0  0  0  0  0  0  0  0  0  0  0
   17.4376   -8.3745  -14.9287 C   0  0  2  0  0  0  0  0  0  0  0  0
   16.1001   -7.6879  -14.7495 C   0  0  0  0  0  0  0  0  0  0  0  0
   18.4060   -7.4511  -15.6231 C   0  0  2  0  0  0  0  0  0  0  0  0
   19.7365   -7.8956  -15.2610 N   0  0  0  0  0  0  0  0  0  0  0  0
   18.2422   -6.0441  -15.2451 C   0  0  0  0  0  0  0  0  0  0  0  0
   17.5219   -5.1960  -16.0687 O   0  0  0  0  0  0  0  0  0  0  0  0
   18.7215   -5.5388  -14.1989 O   0  0  0  0  0  0  0  0  0  0  0  0
  1  2  1  0
  3  2  1  0
  3  4  1  6
  5  6  1  1
  5  3  1  0
  7  8  2  0
  7  5  1  0
  9 10  1  0
 11 10  1  6
 11 13  1  0
 11 12  1  0
 12  7  1  0
 13 20  1  0
 14 13  2  0
 16 15  1  0
 17 19  1  0
 17 18  1  6
 17 16  1  0
 19 20  1  1
 21 19  1  0
 21 22  1  0
 23 21  2  0
M  END
$$$$
