ISI.pdb
     RDKit          3D

 23 22  0  0  1  0  0  0  0  0999 V2000
   25.0884  -21.4046   -8.8425 C   0  0  0  0  0  0  0  0  0  0  0  0
   23.8381  -21.1478   -9.6562 C   0  0  0  0  0  0  0  0  0  0  0  0
   24.1655  -20.8736  -11.1063 C   0  0  2  0  0  0  0  0  0  0  0  0
   25.2256  -19.8321  -11.2678 C   0  0  0  0  0  0  0  0  0  0  0  0
   22.9391  -20.5157  -11.9133 C   0  0  2  0  0  0  0  0  0  0  0  0
   22.0242  -21.6569  -11.7527 N   0  0  0  0  0  0  0  0  0  0  0  0
   23.2650  -20.3858  -13.3786 C   0  0  0  0  0  0  0  0  0  0  0  0
   24.1766  -21.0618  -13.9107 O   0  0  0  0  0  0  0  0  0  0  0  0
   21.7890  -19.3794  -17.7123 O   0  0  0  0  0  0  0  0  0  0  0  0
   21.5174  -19.3091  -16.3495 C   0  0  0  0  0  0  0  0  0  0  0  0
   22.8605  -19.4655  -15.6272 C   0  0  2  0  0  0  0  0  0  0  0  0
   22.5525  -19.4922  -14.2159 N   0  0  0  0  0  0  0  0  0  0  0  0
   23.7649  -18.3534  -15.9218 C   0  0  0  0  0  0  0  0  0  0  0  0
   23.6722  -17.2807  -15.3117 O   0  0  0  0  0  0  0  0  0  0  0  0
   28.8307  -18.3266  -15.5854 C   0  0  0  0  0  0  0  0  0  0  0  0
   27.3593  -17.8937  -15.6386 C   0  0  0  0  0  0  0  0  0  0  0  0
   27.0159  -17.7438  -17.0840 C   0  0  2  0  0  0  0  0  0  0  0  0
   27.9452  -16.7077  -17.6804 C   0  0  0  0  0  0  0  0  0  0  0  0
   25.5803  -17.3637  -17.3429 C   0  0  2  0  0  0  0  0  0  0  0  0
   24.7699  -18.4869  -16.9181 N   0  0  0  0  0  0  0  0  0  0  0  0
   25.3015  -17.0661  -18.7512 C   0  0  0  0  0  0  0  0  0  0  0  0
   25.2192  -15.7482  -19.1665 O   0  0  0  0  0  0  0  0  0  0  0  0
   25.1271  -17.9452  -19.6323 O   0  0  0  0  0  0  0  0  0  0  0  0
  1  2  1  0
  3  2  1  0
  3  4  1  1
  5  6  1  6
  5  3  1  0
  7  8  2  0
  7  5  1  0
  9 10  1  0
 11 10  1  6
 11 13  1  0
 11 12  1  0
 12  7  1  0
 13 20  1  0
 14 13  2  0
 16 15  1  0
 17 19  1  0
 17 18  1  1
 17 16  1  0
 19 20  1  6
 21 19  1  0
 21 22  1  0
 23 21  2  0
M  END
$$$$
