GDW.pdb
     RDKit          3D

 27 28  0  0  1  0  0  0  0  0999 V2000
    6.0663  -15.4955   19.9816 N   0  0  0  0  0  0  0  0  0  0  0  0
    7.1086  -14.8352   20.7460 C   0  0  0  0  0  0  0  0  0  0  0  0
    8.0309  -15.8543   21.2986 C   0  0  0  0  0  0  0  0  0  0  0  0
    7.5980  -16.7079   22.1437 O   0  0  0  0  0  0  0  0  0  0  0  0
    9.4024  -15.9383   20.9331 N   0  0  0  0  0  0  0  0  0  0  0  0
   10.2882  -16.8730   21.5986 C   0  0  1  0  0  0  0  0  0  0  0  0
   11.4917  -17.0272   20.6845 C   0  0  0  0  0  0  0  0  0  0  0  0
   11.1153  -18.0042   19.6457 C   0  0  0  0  0  0  0  0  0  0  0  0
   11.4733  -17.8062   18.4668 O   0  0  0  0  0  0  0  0  0  0  0  0
   10.6750  -16.3960   22.9446 C   0  0  0  0  0  0  0  0  0  0  0  0
   11.5119  -15.4920   23.0805 O   0  0  0  0  0  0  0  0  0  0  0  0
   10.3775  -19.1228   19.9703 O   0  0  0  0  0  0  0  0  0  0  0  0
   10.0903  -16.9700   24.0924 N   0  0  0  0  0  0  0  0  0  0  0  0
   10.3103  -16.4942   25.4457 C   0  0  1  0  0  0  0  0  0  0  0  0
    9.7862  -15.0847   25.5052 C   0  0  0  0  0  0  0  0  0  0  0  0
    8.3480  -14.9778   25.6744 C   0  0  0  0  0  0  0  0  0  0  0  0
    7.4181  -15.9870   25.5733 C   0  0  0  0  0  0  0  0  0  0  0  0
    6.1801  -15.5011   25.7945 N   0  0  0  0  0  0  0  0  0  0  0  0
    6.3102  -14.1609   26.0418 C   0  0  0  0  0  0  0  0  0  0  0  0
    5.3760  -13.1916   26.3264 C   0  0  0  0  0  0  0  0  0  0  0  0
    5.7283  -11.8860   26.5452 C   0  0  0  0  0  0  0  0  0  0  0  0
    7.0659  -11.5520   26.4737 C   0  0  0  0  0  0  0  0  0  0  0  0
    8.0222  -12.5028   26.1902 C   0  0  0  0  0  0  0  0  0  0  0  0
    7.6596  -13.8184   25.9705 C   0  0  0  0  0  0  0  0  0  0  0  0
    9.6402  -17.4094   26.3647 C   0  0  0  0  0  0  0  0  0  0  0  0
    8.8301  -18.3114   25.9465 O   0  0  0  0  0  0  0  0  0  0  0  0
    9.8710  -17.3190   27.7256 O   0  0  0  0  0  0  0  0  0  0  0  0
  1  2  1  0
  3  2  1  0
  3  4  2  0
  5  3  1  0
  6  5  1  0
  6 10  1  0
  6  7  1  6
  8  7  1  0
  9  8  2  0
 10 11  2  0
 10 13  1  0
 12  8  1  0
 13 14  1  0
 14 25  1  0
 14 15  1  6
 16 17  2  0
 16 15  1  0
 18 17  1  0
 19 24  2  0
 19 18  1  0
 20 19  1  0
 21 22  1  0
 21 20  2  0
 22 23  2  0
 23 24  1  0
 24 16  1  0
 25 26  2  0
 25 27  1  0
M  END
$$$$
