GDW.pdb
     RDKit          3D

 27 28  0  0  1  0  0  0  0  0999 V2000
    7.9204  -14.1875   18.8066 N   0  0  0  0  0  0  0  0  0  0  0  0
    7.1198  -14.5918   19.9478 C   0  0  0  0  0  0  0  0  0  0  0  0
    7.9056  -15.5205   20.7929 C   0  0  0  0  0  0  0  0  0  0  0  0
    7.3927  -15.9892   21.8641 O   0  0  0  0  0  0  0  0  0  0  0  0
    9.2291  -15.9293   20.4721 N   0  0  0  0  0  0  0  0  0  0  0  0
    9.9420  -16.8597   21.3249 C   0  0  1  0  0  0  0  0  0  0  0  0
   11.1189  -17.3578   20.5035 C   0  0  0  0  0  0  0  0  0  0  0  0
   10.5638  -18.2182   19.4420 C   0  0  0  0  0  0  0  0  0  0  0  0
    9.9141  -19.2346   19.7611 O   0  0  0  0  0  0  0  0  0  0  0  0
   10.3798  -16.2207   22.5854 C   0  0  0  0  0  0  0  0  0  0  0  0
   11.1172  -15.2247   22.5684 O   0  0  0  0  0  0  0  0  0  0  0  0
   10.7589  -17.9058   18.1133 O   0  0  0  0  0  0  0  0  0  0  0  0
    9.9584  -16.7433   23.8257 N   0  0  0  0  0  0  0  0  0  0  0  0
   10.2815  -16.1543   25.1121 C   0  0  1  0  0  0  0  0  0  0  0  0
    9.7273  -14.7550   25.1049 C   0  0  0  0  0  0  0  0  0  0  0  0
    8.3460  -14.6464   25.5393 C   0  0  0  0  0  0  0  0  0  0  0  0
    7.3825  -15.6283   25.5119 C   0  0  0  0  0  0  0  0  0  0  0  0
    6.2189  -15.1502   25.9971 N   0  0  0  0  0  0  0  0  0  0  0  0
    6.4320  -13.8428   26.3427 C   0  0  0  0  0  0  0  0  0  0  0  0
    5.5934  -12.8941   26.8812 C   0  0  0  0  0  0  0  0  0  0  0  0
    6.0189  -11.6212   27.1558 C   0  0  0  0  0  0  0  0  0  0  0  0
    7.3322  -11.2995   26.8769 C   0  0  0  0  0  0  0  0  0  0  0  0
    8.1932  -12.2303   26.3373 C   0  0  0  0  0  0  0  0  0  0  0  0
    7.7571  -13.5128   26.0628 C   0  0  0  0  0  0  0  0  0  0  0  0
    9.7176  -17.0042   26.1565 C   0  0  0  0  0  0  0  0  0  0  0  0
    9.8955  -16.7506   27.4010 O   0  0  0  0  0  0  0  0  0  0  0  0
    8.9686  -18.1166   25.8171 O   0  0  0  0  0  0  0  0  0  0  0  0
  1  2  1  0
  3  2  1  0
  3  4  2  0
  5  3  1  0
  6  5  1  0
  6 10  1  0
  6  7  1  6
  8  7  1  0
  9  8  2  0
 10 11  2  0
 10 13  1  0
 12  8  1  0
 13 14  1  0
 14 25  1  0
 14 15  1  6
 16 17  2  0
 16 15  1  0
 18 17  1  0
 19 24  2  0
 19 18  1  0
 20 19  1  0
 21 22  1  0
 21 20  2  0
 22 23  2  0
 23 24  1  0
 24 16  1  0
 25 26  2  0
 25 27  1  0
M  END
$$$$
