GDW.pdb
     RDKit          3D

 27 28  0  0  1  0  0  0  0  0999 V2000
    6.1335  -15.2361   20.0592 N   0  0  0  0  0  0  0  0  0  0  0  0
    7.2213  -14.5773   20.7588 C   0  0  0  0  0  0  0  0  0  0  0  0
    8.0349  -15.5930   21.4664 C   0  0  0  0  0  0  0  0  0  0  0  0
    7.5001  -16.3092   22.3782 O   0  0  0  0  0  0  0  0  0  0  0  0
    9.4091  -15.8215   21.1816 N   0  0  0  0  0  0  0  0  0  0  0  0
   10.1845  -16.7501   21.9802 C   0  0  1  0  0  0  0  0  0  0  0  0
   11.4188  -17.0758   21.1568 C   0  0  0  0  0  0  0  0  0  0  0  0
   10.9527  -17.7950   19.9565 C   0  0  0  0  0  0  0  0  0  0  0  0
   10.2956  -18.8467   20.0950 O   0  0  0  0  0  0  0  0  0  0  0  0
   10.5357  -16.1768   23.2982 C   0  0  0  0  0  0  0  0  0  0  0  0
   11.2530  -15.1695   23.3804 O   0  0  0  0  0  0  0  0  0  0  0  0
   11.2379  -17.3135   18.6964 O   0  0  0  0  0  0  0  0  0  0  0  0
   10.0533  -16.7759   24.4802 N   0  0  0  0  0  0  0  0  0  0  0  0
   10.4024  -16.3377   25.8189 C   0  0  1  0  0  0  0  0  0  0  0  0
    9.9493  -14.9081   25.9441 C   0  0  0  0  0  0  0  0  0  0  0  0
    8.5090  -14.7290   25.9899 C   0  0  0  0  0  0  0  0  0  0  0  0
    7.5418  -15.6880   25.7949 C   0  0  0  0  0  0  0  0  0  0  0  0
    6.3152  -15.1411   25.9150 N   0  0  0  0  0  0  0  0  0  0  0  0
    6.4908  -13.8118   26.1911 C   0  0  0  0  0  0  0  0  0  0  0  0
    5.5855  -12.7985   26.4072 C   0  0  0  0  0  0  0  0  0  0  0  0
    5.9828  -11.5148   26.6737 C   0  0  0  0  0  0  0  0  0  0  0  0
    7.3367  -11.2494   26.7227 C   0  0  0  0  0  0  0  0  0  0  0  0
    8.2649  -12.2454   26.5098 C   0  0  0  0  0  0  0  0  0  0  0  0
    7.8569  -13.5385   26.2414 C   0  0  0  0  0  0  0  0  0  0  0  0
    9.7673  -17.2411   26.7738 C   0  0  0  0  0  0  0  0  0  0  0  0
    8.9900  -18.1871   26.3923 O   0  0  0  0  0  0  0  0  0  0  0  0
    9.9964  -17.0906   28.1297 O   0  0  0  0  0  0  0  0  0  0  0  0
  1  2  1  0
  3  2  1  0
  3  4  2  0
  5  3  1  0
  6  5  1  0
  6 10  1  0
  6  7  1  6
  8  7  1  0
  9  8  2  0
 10 11  2  0
 10 13  1  0
 12  8  1  0
 13 14  1  0
 14 25  1  0
 14 15  1  1
 16 17  2  0
 16 15  1  0
 18 17  1  0
 19 24  2  0
 19 18  1  0
 20 19  1  0
 21 22  1  0
 21 20  2  0
 22 23  2  0
 23 24  1  0
 24 16  1  0
 25 26  2  0
 25 27  1  0
M  END
$$$$
