GDW.pdb
     RDKit          3D

 27 28  0  0  1  0  0  0  0  0999 V2000
    6.6636  -19.8974   22.3117 N   0  0  0  0  0  0  0  0  0  0  0  0
    7.8518  -20.5776   21.8297 C   0  0  0  0  0  0  0  0  0  0  0  0
    8.9423  -19.5910   21.6514 C   0  0  0  0  0  0  0  0  0  0  0  0
   10.1568  -19.9848   21.6417 O   0  0  0  0  0  0  0  0  0  0  0  0
    8.7085  -18.1982   21.4863 N   0  0  0  0  0  0  0  0  0  0  0  0
    9.8084  -17.2901   21.2280 C   0  0  1  0  0  0  0  0  0  0  0  0
    9.2740  -16.2583   20.2494 C   0  0  0  0  0  0  0  0  0  0  0  0
    9.0344  -16.9627   18.9760 C   0  0  0  0  0  0  0  0  0  0  0  0
    9.9555  -17.6368   18.4717 O   0  0  0  0  0  0  0  0  0  0  0  0
   10.3050  -16.6645   22.4733 C   0  0  0  0  0  0  0  0  0  0  0  0
   11.1352  -15.7452   22.4335 O   0  0  0  0  0  0  0  0  0  0  0  0
    7.8095  -16.8791   18.3487 O   0  0  0  0  0  0  0  0  0  0  0  0
    9.8341  -17.1121   23.7250 N   0  0  0  0  0  0  0  0  0  0  0  0
   10.2614  -16.5674   25.0005 C   0  0  1  0  0  0  0  0  0  0  0  0
    9.7803  -15.1423   25.0517 C   0  0  0  0  0  0  0  0  0  0  0  0
    8.4017  -14.9814   25.4781 C   0  0  0  0  0  0  0  0  0  0  0  0
    7.4394  -15.9598   25.5795 C   0  0  0  0  0  0  0  0  0  0  0  0
    6.2783  -15.4259   26.0090 N   0  0  0  0  0  0  0  0  0  0  0  0
    6.4916  -14.0855   26.1878 C   0  0  0  0  0  0  0  0  0  0  0  0
    5.6550  -13.0777   26.6095 C   0  0  0  0  0  0  0  0  0  0  0  0
    6.0803  -11.7802   26.7207 C   0  0  0  0  0  0  0  0  0  0  0  0
    7.3913  -11.4948   26.3954 C   0  0  0  0  0  0  0  0  0  0  0  0
    8.2503  -12.4849   25.9703 C   0  0  0  0  0  0  0  0  0  0  0  0
    7.8144  -13.7919   25.8604 C   0  0  0  0  0  0  0  0  0  0  0  0
    9.7165  -17.4099   26.0609 C   0  0  0  0  0  0  0  0  0  0  0  0
    8.8488  -18.3225   25.8179 O   0  0  0  0  0  0  0  0  0  0  0  0
   10.1332  -17.2364   27.3685 O   0  0  0  0  0  0  0  0  0  0  0  0
  1  2  1  0
  3  2  1  0
  3  4  2  0
  5  3  1  0
  6  5  1  0
  6 10  1  0
  6  7  1  6
  8  7  1  0
  9  8  2  0
 10 11  2  0
 10 13  1  0
 12  8  1  0
 13 14  1  0
 14 25  1  0
 14 15  1  1
 16 17  2  0
 16 15  1  0
 18 17  1  0
 19 24  2  0
 19 18  1  0
 20 19  1  0
 21 22  1  0
 21 20  2  0
 22 23  2  0
 23 24  1  0
 24 16  1  0
 25 26  2  0
 25 27  1  0
M  END
$$$$
