GDW.pdb
     RDKit          3D

 27 28  0  0  1  0  0  0  0  0999 V2000
    5.7872  -19.2238   22.5411 N   0  0  0  0  0  0  0  0  0  0  0  0
    6.3486  -17.9843   22.0358 C   0  0  0  0  0  0  0  0  0  0  0  0
    7.8059  -17.9629   22.3009 C   0  0  0  0  0  0  0  0  0  0  0  0
    8.3209  -18.8362   23.0769 O   0  0  0  0  0  0  0  0  0  0  0  0
    8.6843  -17.0031   21.7273 N   0  0  0  0  0  0  0  0  0  0  0  0
   10.1152  -17.0897   21.9427 C   0  0  1  0  0  0  0  0  0  0  0  0
   10.7568  -16.3959   20.7533 C   0  0  0  0  0  0  0  0  0  0  0  0
   12.1990  -16.6993   20.8101 C   0  0  0  0  0  0  0  0  0  0  0  0
   12.6193  -17.4940   21.6755 O   0  0  0  0  0  0  0  0  0  0  0  0
   10.5136  -16.4685   23.2250 C   0  0  0  0  0  0  0  0  0  0  0  0
   11.2497  -15.4716   23.2447 O   0  0  0  0  0  0  0  0  0  0  0  0
   13.0737  -16.1138   19.9196 O   0  0  0  0  0  0  0  0  0  0  0  0
   10.0557  -17.0094   24.4443 N   0  0  0  0  0  0  0  0  0  0  0  0
   10.4299  -16.5056   25.7528 C   0  0  1  0  0  0  0  0  0  0  0  0
    9.9678  -15.0749   25.8200 C   0  0  0  0  0  0  0  0  0  0  0  0
    8.5283  -14.9047   25.9050 C   0  0  0  0  0  0  0  0  0  0  0  0
    7.5628  -15.8741   25.7590 C   0  0  0  0  0  0  0  0  0  0  0  0
    6.3364  -15.3332   25.9044 N   0  0  0  0  0  0  0  0  0  0  0  0
    6.5102  -13.9972   26.1473 C   0  0  0  0  0  0  0  0  0  0  0  0
    5.6042  -12.9857   26.3694 C   0  0  0  0  0  0  0  0  0  0  0  0
    5.9997  -11.6941   26.5971 C   0  0  0  0  0  0  0  0  0  0  0  0
    7.3525  -11.4185   26.6000 C   0  0  0  0  0  0  0  0  0  0  0  0
    8.2812  -12.4125   26.3802 C   0  0  0  0  0  0  0  0  0  0  0  0
    7.8751  -13.7136   26.1511 C   0  0  0  0  0  0  0  0  0  0  0  0
    9.8229  -17.3671   26.7631 C   0  0  0  0  0  0  0  0  0  0  0  0
    9.9699  -17.1422   28.0171 O   0  0  0  0  0  0  0  0  0  0  0  0
    9.0656  -18.4593   26.3796 O   0  0  0  0  0  0  0  0  0  0  0  0
  1  2  1  0
  3  2  1  0
  3  4  2  0
  5  3  1  0
  6  5  1  0
  6 10  1  0
  6  7  1  6
  8  7  1  0
  9  8  2  0
 10 11  2  0
 10 13  1  0
 12  8  1  0
 13 14  1  0
 14 25  1  0
 14 15  1  1
 16 17  2  0
 16 15  1  0
 18 17  1  0
 19 24  2  0
 19 18  1  0
 20 19  1  0
 21 22  1  0
 21 20  2  0
 22 23  2  0
 23 24  1  0
 24 16  1  0
 25 26  2  0
 25 27  1  0
M  END
$$$$
