GDW.pdb
     RDKit          3D

 27 28  0  0  1  0  0  0  0  0999 V2000
    6.1191  -16.3325   20.0552 N   0  0  0  0  0  0  0  0  0  0  0  0
    7.0537  -15.5410   20.8342 C   0  0  0  0  0  0  0  0  0  0  0  0
    8.0733  -16.4345   21.4313 C   0  0  0  0  0  0  0  0  0  0  0  0
    7.7254  -17.2945   22.3087 O   0  0  0  0  0  0  0  0  0  0  0  0
    9.4490  -16.3883   21.0750 N   0  0  0  0  0  0  0  0  0  0  0  0
   10.4335  -17.1366   21.8314 C   0  0  1  0  0  0  0  0  0  0  0  0
   11.6604  -17.2275   20.9403 C   0  0  0  0  0  0  0  0  0  0  0  0
   11.3115  -18.1278   19.8254 C   0  0  0  0  0  0  0  0  0  0  0  0
   10.6219  -19.1419   20.0560 O   0  0  0  0  0  0  0  0  0  0  0  0
   10.7380  -16.4871   23.1254 C   0  0  0  0  0  0  0  0  0  0  0  0
   11.4545  -15.4771   23.1745 O   0  0  0  0  0  0  0  0  0  0  0  0
   11.7405  -17.8547   18.5439 O   0  0  0  0  0  0  0  0  0  0  0  0
   10.2114  -17.0156   24.3222 N   0  0  0  0  0  0  0  0  0  0  0  0
   10.4598  -16.4593   25.6393 C   0  0  1  0  0  0  0  0  0  0  0  0
   10.0022  -15.0260   25.6031 C   0  0  0  0  0  0  0  0  0  0  0  0
    8.5648  -14.8445   25.7007 C   0  0  0  0  0  0  0  0  0  0  0  0
    7.5882  -15.7942   25.5069 C   0  0  0  0  0  0  0  0  0  0  0  0
    6.3682  -15.2481   25.6836 N   0  0  0  0  0  0  0  0  0  0  0  0
    6.5576  -13.9286   25.9955 C   0  0  0  0  0  0  0  0  0  0  0  0
    5.6635  -12.9201   26.2724 C   0  0  0  0  0  0  0  0  0  0  0  0
    6.0739  -11.6466   26.5661 C   0  0  0  0  0  0  0  0  0  0  0  0
    7.4297  -11.3866   26.5798 C   0  0  0  0  0  0  0  0  0  0  0  0
    8.3468  -12.3779   26.3060 C   0  0  0  0  0  0  0  0  0  0  0  0
    7.9255  -13.6607   26.0104 C   0  0  0  0  0  0  0  0  0  0  0  0
    9.7523  -17.2773   26.6199 C   0  0  0  0  0  0  0  0  0  0  0  0
    8.9766  -18.2349   26.2649 O   0  0  0  0  0  0  0  0  0  0  0  0
    9.9087  -17.0304   27.9720 O   0  0  0  0  0  0  0  0  0  0  0  0
  1  2  1  0
  3  2  1  0
  3  4  2  0
  5  3  1  0
  6  5  1  0
  6 10  1  0
  6  7  1  6
  8  7  1  0
  9  8  2  0
 10 11  2  0
 10 13  1  0
 12  8  1  0
 13 14  1  0
 14 25  1  0
 14 15  1  6
 16 17  2  0
 16 15  1  0
 18 17  1  0
 19 24  2  0
 19 18  1  0
 20 19  1  0
 21 22  1  0
 21 20  2  0
 22 23  2  0
 23 24  1  0
 24 16  1  0
 25 26  2  0
 25 27  1  0
M  END
$$$$
