GDW.pdb
     RDKit          3D

 27 28  0  0  1  0  0  0  0  0999 V2000
    7.1519  -15.9432   18.7793 N   0  0  0  0  0  0  0  0  0  0  0  0
    7.3253  -15.2838   20.0606 C   0  0  0  0  0  0  0  0  0  0  0  0
    8.2074  -16.1073   20.9197 C   0  0  0  0  0  0  0  0  0  0  0  0
    7.7175  -16.7189   21.9278 O   0  0  0  0  0  0  0  0  0  0  0  0
    9.6007  -16.2593   20.6804 N   0  0  0  0  0  0  0  0  0  0  0  0
   10.4170  -17.0723   21.5602 C   0  0  1  0  0  0  0  0  0  0  0  0
   11.7087  -17.3334   20.8046 C   0  0  0  0  0  0  0  0  0  0  0  0
   11.3646  -18.1929   19.6565 C   0  0  0  0  0  0  0  0  0  0  0  0
   10.6672  -19.2101   19.8463 O   0  0  0  0  0  0  0  0  0  0  0  0
   10.6613  -16.4002   22.8554 C   0  0  0  0  0  0  0  0  0  0  0  0
   11.3294  -15.3579   22.9126 O   0  0  0  0  0  0  0  0  0  0  0  0
   11.8064  -17.8787   18.3888 O   0  0  0  0  0  0  0  0  0  0  0  0
   10.1320  -16.9439   24.0441 N   0  0  0  0  0  0  0  0  0  0  0  0
   10.3330  -16.3733   25.3632 C   0  0  1  0  0  0  0  0  0  0  0  0
    9.8727  -14.9420   25.2963 C   0  0  0  0  0  0  0  0  0  0  0  0
    8.4950  -14.7271   25.7015 C   0  0  0  0  0  0  0  0  0  0  0  0
    7.4623  -15.6356   25.6639 C   0  0  0  0  0  0  0  0  0  0  0  0
    6.3280  -15.0679   26.1209 N   0  0  0  0  0  0  0  0  0  0  0  0
    6.6303  -13.7760   26.4584 C   0  0  0  0  0  0  0  0  0  0  0  0
    5.8537  -12.7623   26.9708 C   0  0  0  0  0  0  0  0  0  0  0  0
    6.3667  -11.5213   27.2420 C   0  0  0  0  0  0  0  0  0  0  0  0
    7.7053  -11.3003   26.9868 C   0  0  0  0  0  0  0  0  0  0  0  0
    8.5056  -12.2978   26.4735 C   0  0  0  0  0  0  0  0  0  0  0  0
    7.9814  -13.5476   26.2023 C   0  0  0  0  0  0  0  0  0  0  0  0
    9.5942  -17.1835   26.3272 C   0  0  0  0  0  0  0  0  0  0  0  0
    8.7547  -18.0778   25.9529 O   0  0  0  0  0  0  0  0  0  0  0  0
    9.7897  -16.9982   27.6840 O   0  0  0  0  0  0  0  0  0  0  0  0
  1  2  1  0
  3  2  1  0
  3  4  2  0
  5  3  1  0
  6  5  1  0
  6 10  1  0
  6  7  1  6
  8  7  1  0
  9  8  2  0
 10 11  2  0
 10 13  1  0
 12  8  1  0
 13 14  1  0
 14 25  1  0
 14 15  1  6
 16 17  2  0
 16 15  1  0
 18 17  1  0
 19 24  2  0
 19 18  1  0
 20 19  1  0
 21 22  1  0
 21 20  2  0
 22 23  2  0
 23 24  1  0
 24 16  1  0
 25 26  2  0
 25 27  1  0
M  END
$$$$
