IMC.pdb
     RDKit          3D

 23 22  0  0  1  0  0  0  0  0999 V2000
   15.6678  -16.4767  -17.4772 C   0  0  0  0  0  0  0  0  0  0  0  0
   16.5588  -15.6964  -16.5771 C   0  0  0  0  0  0  0  0  0  0  0  0
   16.8675  -14.3054  -17.0063 C   0  0  2  0  0  0  0  0  0  0  0  0
   17.4220  -14.2844  -18.3893 C   0  0  0  0  0  0  0  0  0  0  0  0
   17.6981  -13.5073  -16.0160 C   0  0  2  0  0  0  0  0  0  0  0  0
   16.8148  -13.3158  -14.8625 N   0  0  0  0  0  0  0  0  0  0  0  0
   18.1004  -12.2046  -16.5365 C   0  0  0  0  0  0  0  0  0  0  0  0
   18.8065  -11.9917  -17.5436 O   0  0  0  0  0  0  0  0  0  0  0  0
   13.3739   -8.9303  -17.5187 C   0  0  0  0  0  0  0  0  0  0  0  0
   14.3163   -7.8344  -16.4576 S   0  0  0  0  0  0  0  0  0  0  0  0
   15.7030   -8.6933  -15.6184 C   0  0  0  0  0  0  0  0  0  0  0  0
   16.6759   -9.0406  -16.6865 C   0  0  0  0  0  0  0  0  0  0  0  0
   17.9554   -9.6925  -16.2185 C   0  0  2  0  0  0  0  0  0  0  0  0
   17.6430  -11.0490  -15.8321 N   0  0  0  0  0  0  0  0  0  0  0  0
   18.7166   -8.9131  -15.2685 C   0  0  0  0  0  0  0  0  0  0  0  0
   18.3445   -8.6499  -14.0886 O   0  0  0  0  0  0  0  0  0  0  0  0
   19.9973   -8.3638  -15.6111 N   0  0  0  0  0  0  0  0  0  0  0  0
   20.7984   -7.6063  -14.6980 C   0  0  1  0  0  0  0  0  0  0  0  0
   22.2973   -7.7274  -15.0205 C   0  0  0  0  0  0  0  0  0  0  0  0
   22.8027   -9.4643  -14.7743 S   0  0  0  0  0  0  0  0  0  0  0  0
   20.3606   -6.2154  -14.6613 C   0  0  0  0  0  0  0  0  0  0  0  0
   19.3801   -5.7194  -15.5439 O   0  0  0  0  0  0  0  0  0  0  0  0
   20.8491   -5.4173  -13.8356 O   0  0  0  0  0  0  0  0  0  0  0  0
  2  1  1  0
  3  2  1  0
  3  4  1  6
  5  3  1  0
  5  6  1  1
  7  8  2  0
  7  5  1  0
  9 10  1  0
 10 11  1  0
 11 12  1  0
 13 12  1  1
 13 14  1  0
 14  7  1  0
 15 17  1  0
 15 13  1  0
 16 15  2  0
 18 21  1  0
 18 17  1  0
 18 19  1  6
 20 19  1  0
 21 22  1  0
 23 21  2  0
M  END
$$$$
