IMC.pdb
     RDKit          3D

 23 22  0  0  1  0  0  0  0  0999 V2000
   29.8272  -17.8183  -16.8873 C   0  0  0  0  0  0  0  0  0  0  0  0
   28.4767  -17.4957  -16.3531 C   0  0  0  0  0  0  0  0  0  0  0  0
   27.7434  -18.6173  -15.7061 C   0  0  2  0  0  0  0  0  0  0  0  0
   27.7904  -19.8435  -16.5515 C   0  0  0  0  0  0  0  0  0  0  0  0
   26.3421  -18.2685  -15.2346 C   0  0  2  0  0  0  0  0  0  0  0  0
   26.5438  -17.2600  -14.1906 N   0  0  0  0  0  0  0  0  0  0  0  0
   25.6351  -19.4130  -14.6689 C   0  0  0  0  0  0  0  0  0  0  0  0
   25.2414  -20.4236  -15.2867 O   0  0  0  0  0  0  0  0  0  0  0  0
   25.5784  -20.3605   -8.2736 C   0  0  0  0  0  0  0  0  0  0  0  0
   26.8773  -21.0827   -9.2767 S   0  0  0  0  0  0  0  0  0  0  0  0
   26.5063  -20.9968  -11.0711 C   0  0  0  0  0  0  0  0  0  0  0  0
   25.1060  -20.5111  -11.1768 C   0  0  0  0  0  0  0  0  0  0  0  0
   24.5652  -20.3758  -12.5805 C   0  0  2  0  0  0  0  0  0  0  0  0
   25.3633  -19.3863  -13.2666 N   0  0  0  0  0  0  0  0  0  0  0  0
   23.1313  -20.2129  -12.6610 C   0  0  0  0  0  0  0  0  0  0  0  0
   22.4217  -19.6285  -11.7921 O   0  0  0  0  0  0  0  0  0  0  0  0
   22.3846  -20.7213  -13.7761 N   0  0  0  0  0  0  0  0  0  0  0  0
   20.9611  -20.6155  -13.8838 C   0  0  1  0  0  0  0  0  0  0  0  0
   20.5169  -20.3733  -15.3362 C   0  0  0  0  0  0  0  0  0  0  0  0
   18.6922  -20.3394  -15.3844 S   0  0  0  0  0  0  0  0  0  0  0  0
   20.3129  -21.7869  -13.3050 C   0  0  0  0  0  0  0  0  0  0  0  0
   20.7698  -23.0950  -13.5631 O   0  0  0  0  0  0  0  0  0  0  0  0
   19.3234  -21.6599  -12.5553 O   0  0  0  0  0  0  0  0  0  0  0  0
  2  1  1  0
  3  2  1  0
  3  4  1  6
  5  3  1  0
  5  6  1  1
  7  8  2  0
  7  5  1  0
  9 10  1  0
 10 11  1  0
 11 12  1  0
 13 12  1  1
 13 14  1  0
 14  7  1  0
 15 17  1  0
 15 13  1  0
 16 15  2  0
 18 21  1  0
 18 17  1  0
 18 19  1  6
 20 19  1  0
 21 22  1  0
 23 21  2  0
M  END
$$$$
