IMC.pdb
     RDKit          3D

 23 22  0  0  1  0  0  0  0  0999 V2000
   16.7229  -15.0549  -17.0036 C   0  0  0  0  0  0  0  0  0  0  0  0
   17.1476  -13.6964  -17.4365 C   0  0  0  0  0  0  0  0  0  0  0  0
   18.1530  -13.0187  -16.5738 C   0  0  2  0  0  0  0  0  0  0  0  0
   17.7411  -13.0584  -15.1423 C   0  0  0  0  0  0  0  0  0  0  0  0
   18.5563  -11.6312  -17.0426 C   0  0  2  0  0  0  0  0  0  0  0  0
   19.1858  -11.8505  -18.3477 N   0  0  0  0  0  0  0  0  0  0  0  0
   19.5134  -10.9885  -16.1477 C   0  0  0  0  0  0  0  0  0  0  0  0
   19.3204  -10.6715  -14.9559 O   0  0  0  0  0  0  0  0  0  0  0  0
   27.2925  -10.2295  -15.3525 C   0  0  0  0  0  0  0  0  0  0  0  0
   25.7984  -10.7743  -16.1808 S   0  0  0  0  0  0  0  0  0  0  0  0
   24.3111   -9.8624  -15.6140 C   0  0  0  0  0  0  0  0  0  0  0  0
   23.1513  -10.5274  -16.2625 C   0  0  0  0  0  0  0  0  0  0  0  0
   21.8023   -9.9086  -15.9823 C   0  0  2  0  0  0  0  0  0  0  0  0
   20.8061  -10.6902  -16.6776 N   0  0  0  0  0  0  0  0  0  0  0  0
   21.7443   -8.4770  -16.1736 C   0  0  0  0  0  0  0  0  0  0  0  0
   21.4834   -7.9060  -17.2718 O   0  0  0  0  0  0  0  0  0  0  0  0
   21.9867   -7.5695  -15.0887 N   0  0  0  0  0  0  0  0  0  0  0  0
   21.6432   -6.1805  -15.1331 C   0  0  1  0  0  0  0  0  0  0  0  0
   20.1442   -5.9737  -15.4083 C   0  0  0  0  0  0  0  0  0  0  0  0
   19.7571   -4.2020  -15.1974 S   0  0  0  0  0  0  0  0  0  0  0  0
   22.0702   -5.5057  -13.9126 C   0  0  0  0  0  0  0  0  0  0  0  0
   22.6142   -4.2057  -13.9312 O   0  0  0  0  0  0  0  0  0  0  0  0
   21.9632   -6.0694  -12.8044 O   0  0  0  0  0  0  0  0  0  0  0  0
  2  1  1  0
  3  2  1  0
  3  4  1  1
  5  3  1  0
  5  6  1  6
  7  8  2  0
  7  5  1  0
  9 10  1  0
 10 11  1  0
 11 12  1  0
 13 12  1  6
 13 14  1  0
 14  7  1  0
 15 17  1  0
 15 13  1  0
 16 15  2  0
 18 21  1  0
 18 17  1  0
 18 19  1  1
 20 19  1  0
 21 22  1  0
 23 21  2  0
M  END
$$$$
