IMC.pdb
     RDKit          3D

 23 22  0  0  1  0  0  0  0  0999 V2000
   19.8215  -21.0938  -17.7906 C   0  0  0  0  0  0  0  0  0  0  0  0
   20.0079  -20.8020  -16.3438 C   0  0  0  0  0  0  0  0  0  0  0  0
   20.0761  -21.9830  -15.4411 C   0  0  2  0  0  0  0  0  0  0  0  0
   18.8508  -22.8217  -15.5664 C   0  0  0  0  0  0  0  0  0  0  0  0
   20.4351  -21.6587  -14.0011 C   0  0  2  0  0  0  0  0  0  0  0  0
   19.3068  -20.8634  -13.5090 N   0  0  0  0  0  0  0  0  0  0  0  0
   21.6619  -20.8766  -13.8871 C   0  0  0  0  0  0  0  0  0  0  0  0
   21.7816  -19.6487  -14.0769 O   0  0  0  0  0  0  0  0  0  0  0  0
   25.2994  -20.9627   -9.1919 C   0  0  0  0  0  0  0  0  0  0  0  0
   26.6733  -21.2422  -10.3097 S   0  0  0  0  0  0  0  0  0  0  0  0
   26.2400  -20.8836  -12.0557 C   0  0  0  0  0  0  0  0  0  0  0  0
   24.8759  -21.4360  -12.2607 C   0  0  0  0  0  0  0  0  0  0  0  0
   24.1687  -20.9821  -13.5156 C   0  0  2  0  0  0  0  0  0  0  0  0
   22.8518  -21.5760  -13.5186 N   0  0  0  0  0  0  0  0  0  0  0  0
   24.9412  -21.1264  -14.7287 C   0  0  0  0  0  0  0  0  0  0  0  0
   25.0789  -22.2069  -15.3720 O   0  0  0  0  0  0  0  0  0  0  0  0
   25.6310  -20.0106  -15.3105 N   0  0  0  0  0  0  0  0  0  0  0  0
   26.3615  -20.0908  -16.5390 C   0  0  1  0  0  0  0  0  0  0  0  0
   26.0438  -18.9072  -17.4682 C   0  0  0  0  0  0  0  0  0  0  0  0
   26.9269  -19.1580  -19.0462 S   0  0  0  0  0  0  0  0  0  0  0  0
   27.7920  -20.2102  -16.2801 C   0  0  0  0  0  0  0  0  0  0  0  0
   28.6023  -21.1252  -16.9818 O   0  0  0  0  0  0  0  0  0  0  0  0
   28.3435  -19.4951  -15.4189 O   0  0  0  0  0  0  0  0  0  0  0  0
  2  1  1  0
  3  2  1  0
  3  4  1  1
  5  3  1  0
  5  6  1  6
  7  8  2  0
  7  5  1  0
  9 10  1  0
 10 11  1  0
 11 12  1  0
 13 12  1  1
 13 14  1  0
 14  7  1  0
 15 17  1  0
 15 13  1  0
 16 15  2  0
 18 21  1  0
 18 17  1  0
 18 19  1  6
 20 19  1  0
 21 22  1  0
 23 21  2  0
M  END
$$$$
