IMC.pdb
     RDKit          3D

 23 22  0  0  1  0  0  0  0  0999 V2000
   35.0109  -24.8453  -12.9508 C   0  0  0  0  0  0  0  0  0  0  0  0
   34.5362  -25.8185  -13.9710 C   0  0  0  0  0  0  0  0  0  0  0  0
   33.5057  -25.3201  -14.9218 C   0  0  2  0  0  0  0  0  0  0  0  0
   32.3676  -24.6916  -14.1938 C   0  0  0  0  0  0  0  0  0  0  0  0
   33.0637  -26.3332  -15.9638 C   0  0  2  0  0  0  0  0  0  0  0  0
   34.3055  -26.7604  -16.6142 N   0  0  0  0  0  0  0  0  0  0  0  0
   32.1680  -25.7610  -16.9638 C   0  0  0  0  0  0  0  0  0  0  0  0
   32.4966  -25.0565  -17.9405 O   0  0  0  0  0  0  0  0  0  0  0  0
   28.6971  -30.1338  -18.8598 C   0  0  0  0  0  0  0  0  0  0  0  0
   29.0083  -28.8800  -20.1033 S   0  0  0  0  0  0  0  0  0  0  0  0
   30.0064  -27.4838  -19.4557 C   0  0  0  0  0  0  0  0  0  0  0  0
   29.1775  -26.8416  -18.4030 C   0  0  0  0  0  0  0  0  0  0  0  0
   29.7683  -25.6042  -17.7700 C   0  0  2  0  0  0  0  0  0  0  0  0
   30.7722  -26.0304  -16.8226 N   0  0  0  0  0  0  0  0  0  0  0  0
   28.7952  -24.6498  -17.2889 C   0  0  0  0  0  0  0  0  0  0  0  0
   28.2049  -24.7218  -16.1725 O   0  0  0  0  0  0  0  0  0  0  0  0
   28.4178  -23.5096  -18.0745 N   0  0  0  0  0  0  0  0  0  0  0  0
   27.5764  -22.4602  -17.5845 C   0  0  1  0  0  0  0  0  0  0  0  0
   27.8796  -21.1192  -18.2739 C   0  0  0  0  0  0  0  0  0  0  0  0
   29.5294  -20.5526  -17.7353 S   0  0  0  0  0  0  0  0  0  0  0  0
   26.1705  -22.8287  -17.7063 C   0  0  0  0  0  0  0  0  0  0  0  0
   25.1953  -22.3550  -16.8057 O   0  0  0  0  0  0  0  0  0  0  0  0
   25.7888  -23.5831  -18.6242 O   0  0  0  0  0  0  0  0  0  0  0  0
  2  1  1  0
  3  2  1  0
  3  4  1  1
  5  3  1  0
  5  6  1  6
  7  8  2  0
  7  5  1  0
  9 10  1  0
 10 11  1  0
 11 12  1  0
 13 12  1  1
 13 14  1  0
 14  7  1  0
 15 17  1  0
 15 13  1  0
 16 15  2  0
 18 21  1  0
 18 17  1  0
 18 19  1  6
 20 19  1  0
 21 22  1  0
 23 21  2  0
M  END
$$$$
