IMC.pdb
     RDKit          3D

 23 22  0  0  1  0  0  0  0  0999 V2000
   23.4886  -20.2858  -23.2605 C   0  0  0  0  0  0  0  0  0  0  0  0
   22.8079  -20.3870  -21.9416 C   0  0  0  0  0  0  0  0  0  0  0  0
   23.6960  -20.5135  -20.7543 C   0  0  2  0  0  0  0  0  0  0  0  0
   24.6494  -21.6468  -20.9196 C   0  0  0  0  0  0  0  0  0  0  0  0
   22.9699  -20.5316  -19.4202 C   0  0  2  0  0  0  0  0  0  0  0  0
   22.3760  -19.1968  -19.3045 N   0  0  0  0  0  0  0  0  0  0  0  0
   23.8669  -20.7593  -18.2917 C   0  0  0  0  0  0  0  0  0  0  0  0
   24.5481  -21.7832  -18.0779 O   0  0  0  0  0  0  0  0  0  0  0  0
   26.6290  -16.0395  -14.4399 C   0  0  0  0  0  0  0  0  0  0  0  0
   26.9568  -16.3715  -16.1712 S   0  0  0  0  0  0  0  0  0  0  0  0
   26.5273  -18.0898  -16.6485 C   0  0  0  0  0  0  0  0  0  0  0  0
   25.3525  -18.4636  -15.8190 C   0  0  0  0  0  0  0  0  0  0  0  0
   24.7523  -19.8189  -16.1090 C   0  0  2  0  0  0  0  0  0  0  0  0
   23.9878  -19.7100  -17.3299 N   0  0  0  0  0  0  0  0  0  0  0  0
   24.0838  -20.4350  -14.9852 C   0  0  0  0  0  0  0  0  0  0  0  0
   22.8359  -20.4014  -14.7812 O   0  0  0  0  0  0  0  0  0  0  0  0
   24.8179  -21.1566  -13.9853 N   0  0  0  0  0  0  0  0  0  0  0  0
   24.2065  -21.7474  -12.8336 C   0  0  1  0  0  0  0  0  0  0  0  0
   25.2297  -22.5083  -11.9736 C   0  0  0  0  0  0  0  0  0  0  0  0
   26.4137  -21.3027  -11.2824 S   0  0  0  0  0  0  0  0  0  0  0  0
   23.4868  -20.7417  -12.0603 C   0  0  0  0  0  0  0  0  0  0  0  0
   22.4409  -21.0860  -11.1806 O   0  0  0  0  0  0  0  0  0  0  0  0
   23.7827  -19.5333  -12.1584 O   0  0  0  0  0  0  0  0  0  0  0  0
  2  1  1  0
  3  2  1  0
  3  4  1  6
  5  3  1  0
  5  6  1  1
  7  8  2  0
  7  5  1  0
  9 10  1  0
 10 11  1  0
 11 12  1  0
 13 12  1  1
 13 14  1  0
 14  7  1  0
 15 17  1  0
 15 13  1  0
 16 15  2  0
 18 21  1  0
 18 17  1  0
 18 19  1  1
 20 19  1  0
 21 22  1  0
 23 21  2  0
M  END
$$$$
