IMC.pdb
     RDKit          3D

 23 22  0  0  1  0  0  0  0  0999 V2000
   28.4234  -17.3064  -17.5840 C   0  0  0  0  0  0  0  0  0  0  0  0
   28.8350  -18.3431  -16.5996 C   0  0  0  0  0  0  0  0  0  0  0  0
   27.7322  -19.0646  -15.9086 C   0  0  2  0  0  0  0  0  0  0  0  0
   26.7851  -18.1068  -15.2713 C   0  0  0  0  0  0  0  0  0  0  0  0
   28.1887  -20.1688  -14.9706 C   0  0  2  0  0  0  0  0  0  0  0  0
   28.8526  -21.1426  -15.8416 N   0  0  0  0  0  0  0  0  0  0  0  0
   27.0792  -20.8180  -14.2797 C   0  0  0  0  0  0  0  0  0  0  0  0
   26.3079  -21.6771  -14.7543 O   0  0  0  0  0  0  0  0  0  0  0  0
   27.2776  -19.7182   -8.1489 C   0  0  0  0  0  0  0  0  0  0  0  0
   25.6816  -20.5283   -8.0417 S   0  0  0  0  0  0  0  0  0  0  0  0
   25.0773  -21.1043   -9.6750 C   0  0  0  0  0  0  0  0  0  0  0  0
   26.0852  -20.6502  -10.6679 C   0  0  0  0  0  0  0  0  0  0  0  0
   25.7760  -20.9771  -12.1096 C   0  0  2  0  0  0  0  0  0  0  0  0
   26.8445  -20.4423  -12.9216 N   0  0  0  0  0  0  0  0  0  0  0  0
   24.4299  -20.6544  -12.5256 C   0  0  0  0  0  0  0  0  0  0  0  0
   23.9513  -19.4846  -12.5761 O   0  0  0  0  0  0  0  0  0  0  0  0
   23.5080  -21.6784  -12.9269 N   0  0  0  0  0  0  0  0  0  0  0  0
   22.1693  -21.4078  -13.3560 C   0  0  1  0  0  0  0  0  0  0  0  0
   21.5183  -22.6425  -14.0017 C   0  0  0  0  0  0  0  0  0  0  0  0
   19.8047  -22.2163  -14.4652 S   0  0  0  0  0  0  0  0  0  0  0  0
   21.3708  -20.8863  -12.2525 C   0  0  0  0  0  0  0  0  0  0  0  0
   20.4805  -19.8070  -12.4219 O   0  0  0  0  0  0  0  0  0  0  0  0
   21.4559  -21.3895  -11.1136 O   0  0  0  0  0  0  0  0  0  0  0  0
  2  1  1  0
  3  2  1  0
  3  4  1  1
  5  3  1  0
  5  6  1  6
  7  8  2  0
  7  5  1  0
  9 10  1  0
 10 11  1  0
 11 12  1  0
 13 12  1  1
 13 14  1  0
 14  7  1  0
 15 17  1  0
 15 13  1  0
 16 15  2  0
 18 21  1  0
 18 17  1  0
 18 19  1  1
 20 19  1  0
 21 22  1  0
 23 21  2  0
M  END
$$$$
