IMC.pdb
     RDKit          3D

 23 22  0  0  1  0  0  0  0  0999 V2000
   18.9785  -21.4293  -13.3000 C   0  0  0  0  0  0  0  0  0  0  0  0
   19.7331  -20.6313  -14.3034 C   0  0  0  0  0  0  0  0  0  0  0  0
   21.0029  -20.0163  -13.8303 C   0  0  2  0  0  0  0  0  0  0  0  0
   21.1997  -18.6679  -14.4332 C   0  0  0  0  0  0  0  0  0  0  0  0
   22.2239  -20.9115  -13.9538 C   0  0  2  0  0  0  0  0  0  0  0  0
   21.9018  -22.0898  -13.1442 N   0  0  0  0  0  0  0  0  0  0  0  0
   23.4369  -20.2874  -13.4352 C   0  0  0  0  0  0  0  0  0  0  0  0
   23.9607  -19.2294  -13.8406 O   0  0  0  0  0  0  0  0  0  0  0  0
   25.8858  -19.0644   -7.2343 C   0  0  0  0  0  0  0  0  0  0  0  0
   26.3852  -20.6504   -7.9052 S   0  0  0  0  0  0  0  0  0  0  0  0
   26.7350  -20.5712   -9.7042 C   0  0  0  0  0  0  0  0  0  0  0  0
   25.4489  -20.8721  -10.3850 C   0  0  0  0  0  0  0  0  0  0  0  0
   25.4080  -20.5758  -11.8654 C   0  0  2  0  0  0  0  0  0  0  0  0
   24.0984  -20.9433  -12.3521 N   0  0  0  0  0  0  0  0  0  0  0  0
   26.5366  -21.0823  -12.6130 C   0  0  0  0  0  0  0  0  0  0  0  0
   27.2075  -22.1080  -12.3000 O   0  0  0  0  0  0  0  0  0  0  0  0
   26.9909  -20.4322  -13.8090 N   0  0  0  0  0  0  0  0  0  0  0  0
   27.6992  -21.1097  -14.8523 C   0  0  1  0  0  0  0  0  0  0  0  0
   27.0348  -22.4486  -15.2146 C   0  0  0  0  0  0  0  0  0  0  0  0
   28.1119  -23.3264  -16.3988 S   0  0  0  0  0  0  0  0  0  0  0  0
   27.8504  -20.2449  -16.0170 C   0  0  0  0  0  0  0  0  0  0  0  0
   29.0431  -20.2068  -16.7670 O   0  0  0  0  0  0  0  0  0  0  0  0
   26.9146  -19.5061  -16.3854 O   0  0  0  0  0  0  0  0  0  0  0  0
  2  1  1  0
  3  2  1  0
  3  4  1  6
  5  3  1  0
  5  6  1  1
  7  8  2  0
  7  5  1  0
  9 10  1  0
 10 11  1  0
 11 12  1  0
 13 12  1  1
 13 14  1  0
 14  7  1  0
 15 17  1  0
 15 13  1  0
 16 15  2  0
 18 21  1  0
 18 17  1  0
 18 19  1  6
 20 19  1  0
 21 22  1  0
 23 21  2  0
M  END
$$$$
