IMC.pdb
     RDKit          3D

 23 22  0  0  1  0  0  0  0  0999 V2000
   17.3965  -32.4604   -8.3455 C   0  0  0  0  0  0  0  0  0  0  0  0
   17.5987  -32.7353   -6.8975 C   0  0  0  0  0  0  0  0  0  0  0  0
   18.9026  -32.3037   -6.3249 C   0  0  2  0  0  0  0  0  0  0  0  0
   20.0385  -32.7931   -7.1559 C   0  0  0  0  0  0  0  0  0  0  0  0
   19.0725  -32.5998   -4.8446 C   0  0  2  0  0  0  0  0  0  0  0  0
   18.0429  -31.7917   -4.1855 N   0  0  0  0  0  0  0  0  0  0  0  0
   20.3857  -32.2135   -4.3383 C   0  0  0  0  0  0  0  0  0  0  0  0
   21.4922  -32.5831   -4.7822 O   0  0  0  0  0  0  0  0  0  0  0  0
   19.4094  -27.8297    0.0270 C   0  0  0  0  0  0  0  0  0  0  0  0
   20.5218  -27.1599   -1.2096 S   0  0  0  0  0  0  0  0  0  0  0  0
   20.9743  -28.3956   -2.4875 C   0  0  0  0  0  0  0  0  0  0  0  0
   21.2834  -29.6497   -1.7531 C   0  0  0  0  0  0  0  0  0  0  0  0
   21.6379  -30.8401   -2.6125 C   0  0  2  0  0  0  0  0  0  0  0  0
   20.4204  -31.3201   -3.2241 N   0  0  0  0  0  0  0  0  0  0  0  0
   22.4625  -31.8312   -1.9590 C   0  0  0  0  0  0  0  0  0  0  0  0
   22.0207  -32.8273   -1.3166 O   0  0  0  0  0  0  0  0  0  0  0  0
   23.8949  -31.7513   -1.9964 N   0  0  0  0  0  0  0  0  0  0  0  0
   24.7526  -32.6840   -1.3302 C   0  0  1  0  0  0  0  0  0  0  0  0
   26.2072  -32.5662   -1.8156 C   0  0  0  0  0  0  0  0  0  0  0  0
   26.1919  -32.2113   -3.6064 S   0  0  0  0  0  0  0  0  0  0  0  0
   24.6484  -32.5356    0.1170 C   0  0  0  0  0  0  0  0  0  0  0  0
   25.3853  -33.3459    1.0040 O   0  0  0  0  0  0  0  0  0  0  0  0
   23.8941  -31.6749    0.6147 O   0  0  0  0  0  0  0  0  0  0  0  0
  2  1  1  0
  3  2  1  0
  3  4  1  6
  5  3  1  0
  5  6  1  1
  7  8  2  0
  7  5  1  0
  9 10  1  0
 10 11  1  0
 11 12  1  0
 13 12  1  1
 13 14  1  0
 14  7  1  0
 15 17  1  0
 15 13  1  0
 16 15  2  0
 18 21  1  0
 18 17  1  0
 18 19  1  6
 20 19  1  0
 21 22  1  0
 23 21  2  0
M  END
$$$$
