IMC.pdb
     RDKit          3D

 23 22  0  0  1  0  0  0  0  0999 V2000
   18.8506  -26.4958  -11.1168 C   0  0  0  0  0  0  0  0  0  0  0  0
   18.6589  -25.4560  -10.0703 C   0  0  0  0  0  0  0  0  0  0  0  0
   17.7654  -25.8231   -8.9383 C   0  0  2  0  0  0  0  0  0  0  0  0
   16.4576  -26.3359   -9.4355 C   0  0  0  0  0  0  0  0  0  0  0  0
   17.6219  -24.7506   -7.8721 C   0  0  2  0  0  0  0  0  0  0  0  0
   18.9975  -24.4367   -7.4761 N   0  0  0  0  0  0  0  0  0  0  0  0
   16.8773  -25.2109   -6.7044 C   0  0  0  0  0  0  0  0  0  0  0  0
   15.6725  -25.5355   -6.6710 O   0  0  0  0  0  0  0  0  0  0  0  0
   19.3824  -28.8690   -1.9062 C   0  0  0  0  0  0  0  0  0  0  0  0
   18.9669  -27.3280   -1.0891 S   0  0  0  0  0  0  0  0  0  0  0  0
   17.5666  -26.4618   -1.8975 C   0  0  0  0  0  0  0  0  0  0  0  0
   18.0120  -26.1692   -3.2845 C   0  0  0  0  0  0  0  0  0  0  0  0
   16.9644  -25.5751   -4.1959 C   0  0  2  0  0  0  0  0  0  0  0  0
   17.5900  -25.3063   -5.4700 N   0  0  0  0  0  0  0  0  0  0  0  0
   16.2020  -24.4939   -3.6138 C   0  0  0  0  0  0  0  0  0  0  0  0
   16.5791  -23.2873   -3.5697 O   0  0  0  0  0  0  0  0  0  0  0  0
   14.9140  -24.7231   -3.0238 N   0  0  0  0  0  0  0  0  0  0  0  0
   14.0871  -23.6746   -2.5077 C   0  0  1  0  0  0  0  0  0  0  0  0
   12.6445  -23.7781   -3.0306 C   0  0  0  0  0  0  0  0  0  0  0  0
   12.6299  -23.2832   -4.7879 S   0  0  0  0  0  0  0  0  0  0  0  0
   14.1369  -23.6505   -1.0502 C   0  0  0  0  0  0  0  0  0  0  0  0
   13.8303  -22.4888   -0.3134 O   0  0  0  0  0  0  0  0  0  0  0  0
   14.4561  -24.6721   -0.4085 O   0  0  0  0  0  0  0  0  0  0  0  0
  2  1  1  0
  3  2  1  0
  3  4  1  6
  5  3  1  0
  5  6  1  1
  7  8  2  0
  7  5  1  0
  9 10  1  0
 10 11  1  0
 11 12  1  0
 13 12  1  1
 13 14  1  0
 14  7  1  0
 15 17  1  0
 15 13  1  0
 16 15  2  0
 18 21  1  0
 18 17  1  0
 18 19  1  1
 20 19  1  0
 21 22  1  0
 23 21  2  0
M  END
$$$$
