IMC.pdb
     RDKit          3D

 23 22  0  0  1  0  0  0  0  0999 V2000
   21.3621  -16.7172  -20.3374 C   0  0  0  0  0  0  0  0  0  0  0  0
   21.5613  -15.2942  -20.7229 C   0  0  0  0  0  0  0  0  0  0  0  0
   21.8040  -14.3411  -19.6061 C   0  0  2  0  0  0  0  0  0  0  0  0
   20.7675  -14.4868  -18.5456 C   0  0  0  0  0  0  0  0  0  0  0  0
   22.0195  -12.9011  -20.0390 C   0  0  2  0  0  0  0  0  0  0  0  0
   23.2498  -12.9344  -20.8346 N   0  0  0  0  0  0  0  0  0  0  0  0
   22.1996  -11.9929  -18.9109 C   0  0  0  0  0  0  0  0  0  0  0  0
   21.3791  -11.7703  -17.9969 O   0  0  0  0  0  0  0  0  0  0  0  0
   28.2197  -10.1915  -18.2274 C   0  0  0  0  0  0  0  0  0  0  0  0
   27.5315   -8.8343  -17.2790 S   0  0  0  0  0  0  0  0  0  0  0  0
   25.7648   -9.0969  -16.8608 C   0  0  0  0  0  0  0  0  0  0  0  0
   25.2224   -9.9901  -17.9172 C   0  0  0  0  0  0  0  0  0  0  0  0
   23.7548  -10.3262  -17.7990 C   0  0  2  0  0  0  0  0  0  0  0  0
   23.4374  -11.2839  -18.8328 N   0  0  0  0  0  0  0  0  0  0  0  0
   22.8803   -9.1799  -17.6947 C   0  0  0  0  0  0  0  0  0  0  0  0
   22.5616   -8.4257  -18.6589 O   0  0  0  0  0  0  0  0  0  0  0  0
   22.2893   -8.8046  -16.4420 N   0  0  0  0  0  0  0  0  0  0  0  0
   21.4232   -7.6753  -16.2876 C   0  0  1  0  0  0  0  0  0  0  0  0
   20.4780   -7.8433  -15.0861 C   0  0  0  0  0  0  0  0  0  0  0  0
   19.4447   -6.3444  -14.9497 S   0  0  0  0  0  0  0  0  0  0  0  0
   22.1966   -6.4416  -16.2028 C   0  0  0  0  0  0  0  0  0  0  0  0
   23.4162   -6.3736  -15.4996 O   0  0  0  0  0  0  0  0  0  0  0  0
   21.7935   -5.3997  -16.7589 O   0  0  0  0  0  0  0  0  0  0  0  0
  2  1  1  0
  3  2  1  0
  3  4  1  1
  5  3  1  0
  5  6  1  6
  7  8  2  0
  7  5  1  0
  9 10  1  0
 10 11  1  0
 11 12  1  0
 13 12  1  6
 13 14  1  0
 14  7  1  0
 15 17  1  0
 15 13  1  0
 16 15  2  0
 18 21  1  0
 18 17  1  0
 18 19  1  1
 20 19  1  0
 21 22  1  0
 23 21  2  0
M  END
$$$$
