TTV.pdb
     RDKit          3D

 22 21  0  0  1  0  0  0  0  0999 V2000
   24.8669  -17.7341  -18.6857 C   0  0  0  0  0  0  0  0  0  0  0  0
   26.2607  -18.0715  -19.1426 C   0  0  1  0  0  0  0  0  0  0  0  0
   26.9015  -16.9692  -19.7042 O   0  0  0  0  0  0  0  0  0  0  0  0
   27.0578  -18.6748  -18.0194 C   0  0  2  0  0  0  0  0  0  0  0  0
   28.4035  -18.9248  -18.4748 N   0  0  0  0  0  0  0  0  0  0  0  0
   26.4227  -19.8720  -17.4323 C   0  0  0  0  0  0  0  0  0  0  0  0
   26.5091  -20.9551  -18.0321 O   0  0  0  0  0  0  0  0  0  0  0  0
   27.3179  -21.8430  -14.7007 C   0  0  0  0  0  0  0  0  0  0  0  0
   25.8911  -21.4876  -14.3789 C   0  0  1  0  0  0  0  0  0  0  0  0
   25.8187  -20.5686  -13.3338 O   0  0  0  0  0  0  0  0  0  0  0  0
   25.1254  -20.9952  -15.5844 C   0  0  2  0  0  0  0  0  0  0  0  0
   25.7063  -19.8467  -16.1965 N   0  0  0  0  0  0  0  0  0  0  0  0
   23.6963  -20.8458  -15.2558 C   0  0  0  0  0  0  0  0  0  0  0  0
   23.2915  -19.6986  -14.9402 O   0  0  0  0  0  0  0  0  0  0  0  0
   20.7481  -23.9847  -15.6380 C   0  0  0  0  0  0  0  0  0  0  0  0
   20.4425  -22.5227  -15.8898 C   0  0  2  0  0  0  0  0  0  0  0  0
   20.6592  -22.2461  -17.3406 C   0  0  0  0  0  0  0  0  0  0  0  0
   21.3357  -21.7106  -14.9822 C   0  0  2  0  0  0  0  0  0  0  0  0
   22.7353  -21.8906  -15.2656 N   0  0  0  0  0  0  0  0  0  0  0  0
   21.0590  -22.0925  -13.5767 C   0  0  0  0  0  0  0  0  0  0  0  0
   21.8734  -22.8197  -12.9668 O   0  0  0  0  0  0  0  0  0  0  0  0
   19.9316  -21.6812  -12.8949 O   0  0  0  0  0  0  0  0  0  0  0  0
  2  1  1  1
  2  3  1  0
  4  2  1  0
  4  5  1  6
  6  4  1  0
  6 12  1  0
  7  6  2  0
  9  8  1  6
  9 11  1  0
 10  9  1  0
 11 12  1  1
 11 13  1  0
 13 19  1  0
 13 14  2  0
 16 15  1  6
 17 16  1  0
 18 16  1  0
 18 20  1  0
 18 19  1  6
 20 22  1  0
 21 20  2  0
M  END
$$$$
