TTV.pdb
     RDKit          3D

 22 21  0  0  1  0  0  0  0  0999 V2000
   20.1300  -14.9978  -19.7274 C   0  0  0  0  0  0  0  0  0  0  0  0
   18.8232  -14.6600  -19.0613 C   0  0  1  0  0  0  0  0  0  0  0  0
   17.9941  -15.7746  -18.9550 O   0  0  0  0  0  0  0  0  0  0  0  0
   19.0587  -14.0038  -17.7290 C   0  0  2  0  0  0  0  0  0  0  0  0
   17.9458  -14.2898  -16.8570 N   0  0  0  0  0  0  0  0  0  0  0  0
   19.3442  -12.5585  -17.8342 C   0  0  0  0  0  0  0  0  0  0  0  0
   20.2925  -12.1817  -18.5406 O   0  0  0  0  0  0  0  0  0  0  0  0
   17.3268   -9.5278  -19.0353 C   0  0  0  0  0  0  0  0  0  0  0  0
   17.7221   -9.3027  -17.6004 C   0  0  1  0  0  0  0  0  0  0  0  0
   16.6361   -9.4631  -16.7421 O   0  0  0  0  0  0  0  0  0  0  0  0
   18.8821  -10.1698  -17.1709 C   0  0  2  0  0  0  0  0  0  0  0  0
   18.5765  -11.5618  -17.1572 N   0  0  0  0  0  0  0  0  0  0  0  0
   19.4573   -9.6661  -15.9108 C   0  0  0  0  0  0  0  0  0  0  0  0
   18.8682   -9.9698  -14.8430 O   0  0  0  0  0  0  0  0  0  0  0  0
   23.3886   -8.4451  -15.5746 C   0  0  0  0  0  0  0  0  0  0  0  0
   22.6023   -8.8366  -14.3405 C   0  0  2  0  0  0  0  0  0  0  0  0
   22.7481  -10.3094  -14.1448 C   0  0  0  0  0  0  0  0  0  0  0  0
   21.1737   -8.3964  -14.5553 C   0  0  2  0  0  0  0  0  0  0  0  0
   20.6239   -8.8648  -15.8003 N   0  0  0  0  0  0  0  0  0  0  0  0
   21.1209   -6.9155  -14.5133 C   0  0  0  0  0  0  0  0  0  0  0  0
   21.3837   -6.3222  -13.4441 O   0  0  0  0  0  0  0  0  0  0  0  0
   20.7916   -6.1445  -15.6098 O   0  0  0  0  0  0  0  0  0  0  0  0
  2  1  1  1
  2  3  1  0
  4  2  1  0
  4  5  1  1
  6  4  1  0
  6 12  1  0
  7  6  2  0
  9  8  1  6
  9 11  1  0
 10  9  1  0
 11 12  1  1
 11 13  1  0
 13 19  1  0
 13 14  2  0
 16 15  1  6
 17 16  1  0
 18 16  1  0
 18 20  1  0
 18 19  1  6
 20 22  1  0
 21 20  2  0
M  END
$$$$
