TTV.pdb
     RDKit          3D

 22 21  0  0  1  0  0  0  0  0999 V2000
   17.7019   -9.1377  -18.0899 C   0  0  0  0  0  0  0  0  0  0  0  0
   17.4216  -10.5220  -17.5699 C   0  0  1  0  0  0  0  0  0  0  0  0
   16.7196  -11.2897  -18.4967 O   0  0  0  0  0  0  0  0  0  0  0  0
   18.6933  -11.1932  -17.1302 C   0  0  2  0  0  0  0  0  0  0  0  0
   18.4082  -12.5624  -16.7767 N   0  0  0  0  0  0  0  0  0  0  0  0
   19.3967  -10.4618  -16.0571 C   0  0  0  0  0  0  0  0  0  0  0  0
   18.9079  -10.4489  -14.9164 O   0  0  0  0  0  0  0  0  0  0  0  0
   22.7567  -11.0705  -14.5611 C   0  0  0  0  0  0  0  0  0  0  0  0
   22.7501   -9.6450  -15.0445 C   0  0  1  0  0  0  0  0  0  0  0  0
   23.5072   -9.4975  -16.2049 O   0  0  0  0  0  0  0  0  0  0  0  0
   21.3545   -9.0999  -15.2377 C   0  0  2  0  0  0  0  0  0  0  0  0
   20.6237   -9.7609  -16.2673 N   0  0  0  0  0  0  0  0  0  0  0  0
   21.3933   -7.6326  -15.3723 C   0  0  0  0  0  0  0  0  0  0  0  0
   21.5898   -7.1613  -16.5206 O   0  0  0  0  0  0  0  0  0  0  0  0
   18.8704   -5.0759  -14.9222 C   0  0  0  0  0  0  0  0  0  0  0  0
   19.9858   -4.6020  -14.0135 C   0  0  2  0  0  0  0  0  0  0  0  0
   20.0406   -3.1119  -14.0837 C   0  0  0  0  0  0  0  0  0  0  0  0
   21.2588   -5.2735  -14.4712 C   0  0  2  0  0  0  0  0  0  0  0  0
   21.2269   -6.7036  -14.3118 N   0  0  0  0  0  0  0  0  0  0  0  0
   22.3955   -4.7118  -13.7030 C   0  0  0  0  0  0  0  0  0  0  0  0
   22.8658   -3.5995  -14.0280 O   0  0  0  0  0  0  0  0  0  0  0  0
   22.9715   -5.3626  -12.6306 O   0  0  0  0  0  0  0  0  0  0  0  0
  2  1  1  6
  2  3  1  0
  4  2  1  0
  4  5  1  1
  6  4  1  0
  6 12  1  0
  7  6  2  0
  9  8  1  6
  9 11  1  0
 10  9  1  0
 11 12  1  6
 11 13  1  0
 13 19  1  0
 13 14  2  0
 16 15  1  6
 17 16  1  0
 18 16  1  0
 18 20  1  0
 18 19  1  1
 20 22  1  0
 21 20  2  0
M  END
$$$$
