TTV.pdb
     RDKit          3D

 22 21  0  0  1  0  0  0  0  0999 V2000
   18.3084  -21.1763  -14.9839 C   0  0  0  0  0  0  0  0  0  0  0  0
   19.6648  -21.1404  -15.6355 C   0  0  1  0  0  0  0  0  0  0  0  0
   19.6369  -20.4575  -16.8495 O   0  0  0  0  0  0  0  0  0  0  0  0
   20.6926  -20.5754  -14.6946 C   0  0  2  0  0  0  0  0  0  0  0  0
   21.9505  -20.4474  -15.3889 N   0  0  0  0  0  0  0  0  0  0  0  0
   20.8112  -21.3383  -13.4355 C   0  0  0  0  0  0  0  0  0  0  0  0
   21.6369  -22.2623  -13.3666 O   0  0  0  0  0  0  0  0  0  0  0  0
   21.8980  -20.3994  -10.0020 C   0  0  0  0  0  0  0  0  0  0  0  0
   20.5016  -20.9472   -9.8768 C   0  0  1  0  0  0  0  0  0  0  0  0
   19.5745  -19.9313   -9.6530 O   0  0  0  0  0  0  0  0  0  0  0  0
   20.0981  -21.7950  -11.0602 C   0  0  2  0  0  0  0  0  0  0  0  0
   20.0156  -21.0643  -12.2810 N   0  0  0  0  0  0  0  0  0  0  0  0
   18.8888  -22.5750  -10.7412 C   0  0  0  0  0  0  0  0  0  0  0  0
   17.7838  -22.1110  -11.1195 O   0  0  0  0  0  0  0  0  0  0  0  0
   18.9816  -26.6586   -9.5607 C   0  0  0  0  0  0  0  0  0  0  0  0
   17.8491  -26.0277  -10.3442 C   0  0  2  0  0  0  0  0  0  0  0  0
   18.1856  -26.1119  -11.7961 C   0  0  0  0  0  0  0  0  0  0  0  0
   17.6870  -24.6116   -9.8449 C   0  0  2  0  0  0  0  0  0  0  0  0
   18.8661  -23.8097  -10.0409 N   0  0  0  0  0  0  0  0  0  0  0  0
   17.3461  -24.6519   -8.4028 C   0  0  0  0  0  0  0  0  0  0  0  0
   18.2177  -24.3519   -7.5576 O   0  0  0  0  0  0  0  0  0  0  0  0
   16.0970  -25.0088   -7.9362 O   0  0  0  0  0  0  0  0  0  0  0  0
  2  1  1  1
  2  3  1  0
  4  2  1  0
  4  5  1  6
  6  4  1  0
  6 12  1  0
  7  6  2  0
  9  8  1  6
  9 11  1  0
 10  9  1  0
 11 12  1  6
 11 13  1  0
 13 19  1  0
 13 14  2  0
 16 15  1  1
 17 16  1  0
 18 16  1  0
 18 20  1  0
 18 19  1  1
 20 22  1  0
 21 20  2  0
M  END
$$$$
