VAF.pdb
     RDKit          3D

 24 24  0  0  1  0  0  0  0  0999 V2000
   27.2676  -19.5435  -17.5850 C   0  0  0  0  0  0  0  0  0  0  0  0
   26.5071  -19.0713  -16.3647 C   0  0  1  0  0  0  0  0  0  0  0  0
   25.1062  -19.5491  -16.4685 C   0  0  0  0  0  0  0  0  0  0  0  0
   27.2045  -19.4763  -15.0949 C   0  0  2  0  0  0  0  0  0  0  0  0
   27.6757  -20.8359  -15.2813 N   0  0  0  0  0  0  0  0  0  0  0  0
   26.3772  -19.3710  -13.8975 C   0  0  0  0  0  0  0  0  0  0  0  0
   25.9314  -18.2481  -13.5542 O   0  0  0  0  0  0  0  0  0  0  0  0
   23.8915  -20.9504  -11.9931 C   0  0  0  0  0  0  0  0  0  0  0  0
   25.2494  -20.2793  -11.9014 C   0  0  2  0  0  0  0  0  0  0  0  0
   26.0378  -20.4769  -13.0811 N   0  0  0  0  0  0  0  0  0  0  0  0
   25.9037  -20.7323  -10.6670 C   0  0  0  0  0  0  0  0  0  0  0  0
   26.3688  -21.8986  -10.6240 O   0  0  0  0  0  0  0  0  0  0  0  0
   26.0187  -19.8878   -9.5368 N   0  0  0  0  0  0  0  0  0  0  0  0
   26.6457  -20.2877   -8.2935 C   0  0  1  0  0  0  0  0  0  0  0  0
   27.2534  -19.0671   -7.6607 C   0  0  0  0  0  0  0  0  0  0  0  0
   27.8163  -19.3131   -6.3150 C   0  0  0  0  0  0  0  0  0  0  0  0
   29.1754  -19.3868   -6.1495 C   0  0  0  0  0  0  0  0  0  0  0  0
   29.7645  -19.6135   -4.9075 C   0  0  0  0  0  0  0  0  0  0  0  0
   28.9288  -19.7681   -3.8089 C   0  0  0  0  0  0  0  0  0  0  0  0
   27.5678  -19.6916   -3.9915 C   0  0  0  0  0  0  0  0  0  0  0  0
   27.0011  -19.4672   -5.2237 C   0  0  0  0  0  0  0  0  0  0  0  0
   25.6639  -20.9846   -7.4464 C   0  0  0  0  0  0  0  0  0  0  0  0
   26.0154  -21.9312   -6.5014 O   0  0  0  0  0  0  0  0  0  0  0  0
   24.4226  -20.7384   -7.5523 O   0  0  0  0  0  0  0  0  0  0  0  0
  2  1  1  6
  2  4  1  0
  2  3  1  0
  4  6  1  0
  4  5  1  6
  6  7  2  0
  9  8  1  6
  9 11  1  0
 10  6  1  0
 10  9  1  0
 11 12  2  0
 13 14  1  0
 13 11  1  0
 14 22  1  0
 14 15  1  1
 16 21  2  0
 16 15  1  0
 17 16  1  0
 18 19  1  0
 18 17  2  0
 19 20  2  0
 20 21  1  0
 22 24  2  0
 22 23  1  0
M  END
$$$$
