VAF.pdb
     RDKit          3D

 24 24  0  0  1  0  0  0  0  0999 V2000
   28.8485  -20.7268  -18.5218 C   0  0  0  0  0  0  0  0  0  0  0  0
   27.4504  -21.2473  -18.2671 C   0  0  1  0  0  0  0  0  0  0  0  0
   27.3146  -22.5724  -18.9207 C   0  0  0  0  0  0  0  0  0  0  0  0
   27.1260  -21.2478  -16.7981 C   0  0  2  0  0  0  0  0  0  0  0  0
   28.2776  -21.7967  -16.1067 N   0  0  0  0  0  0  0  0  0  0  0  0
   25.9126  -21.9812  -16.4531 C   0  0  0  0  0  0  0  0  0  0  0  0
   24.8197  -21.6406  -16.9697 O   0  0  0  0  0  0  0  0  0  0  0  0
   24.8046  -25.1239  -14.7529 C   0  0  0  0  0  0  0  0  0  0  0  0
   24.6400  -23.6843  -15.2035 C   0  0  2  0  0  0  0  0  0  0  0  0
   25.8883  -23.0751  -15.5543 N   0  0  0  0  0  0  0  0  0  0  0  0
   23.8966  -22.9595  -14.1647 C   0  0  0  0  0  0  0  0  0  0  0  0
   23.7250  -23.5120  -13.0494 O   0  0  0  0  0  0  0  0  0  0  0  0
   23.3756  -21.6636  -14.3945 N   0  0  0  0  0  0  0  0  0  0  0  0
   22.6789  -20.8863  -13.3899 C   0  0  1  0  0  0  0  0  0  0  0  0
   23.6159  -19.8247  -12.8852 C   0  0  0  0  0  0  0  0  0  0  0  0
   24.5798  -20.3140  -11.8753 C   0  0  0  0  0  0  0  0  0  0  0  0
   24.1962  -20.4169  -10.5630 C   0  0  0  0  0  0  0  0  0  0  0  0
   25.0575  -20.8731   -9.5676 C   0  0  0  0  0  0  0  0  0  0  0  0
   26.3475  -21.2320   -9.9369 C   0  0  0  0  0  0  0  0  0  0  0  0
   26.7169  -21.1230  -11.2571 C   0  0  0  0  0  0  0  0  0  0  0  0
   25.8553  -20.6709  -12.2284 C   0  0  0  0  0  0  0  0  0  0  0  0
   21.4207  -20.3673  -13.9508 C   0  0  0  0  0  0  0  0  0  0  0  0
   21.1152  -20.4161  -15.2987 O   0  0  0  0  0  0  0  0  0  0  0  0
   20.5426  -19.8401  -13.2000 O   0  0  0  0  0  0  0  0  0  0  0  0
  2  1  1  1
  2  4  1  0
  2  3  1  0
  4  6  1  0
  4  5  1  1
  6  7  2  0
  9  8  1  1
  9 11  1  0
 10  6  1  0
 10  9  1  0
 11 12  2  0
 13 14  1  0
 13 11  1  0
 14 22  1  0
 14 15  1  6
 16 21  2  0
 16 15  1  0
 17 16  1  0
 18 19  1  0
 18 17  2  0
 19 20  2  0
 20 21  1  0
 22 24  2  0
 22 23  1  0
M  END
$$$$
