VAF.pdb
     RDKit          3D

 24 24  0  0  1  0  0  0  0  0999 V2000
   24.8603  -15.4070  -18.2076 C   0  0  0  0  0  0  0  0  0  0  0  0
   23.8741  -14.2719  -18.3791 C   0  0  1  0  0  0  0  0  0  0  0  0
   22.5414  -14.7318  -17.9164 C   0  0  0  0  0  0  0  0  0  0  0  0
   24.3615  -13.0176  -17.7067 C   0  0  2  0  0  0  0  0  0  0  0  0
   24.5539  -13.3322  -16.3034 N   0  0  0  0  0  0  0  0  0  0  0  0
   23.4753  -11.8694  -17.8666 C   0  0  0  0  0  0  0  0  0  0  0  0
   23.3644  -11.3299  -18.9953 O   0  0  0  0  0  0  0  0  0  0  0  0
   20.6777  -10.6282  -17.9869 C   0  0  0  0  0  0  0  0  0  0  0  0
   21.8167  -10.2288  -17.0671 C   0  0  2  0  0  0  0  0  0  0  0  0
   22.7165  -11.3132  -16.8084 N   0  0  0  0  0  0  0  0  0  0  0  0
   21.2410   -9.6326  -15.8546 C   0  0  0  0  0  0  0  0  0  0  0  0
   20.5211  -10.3481  -15.1140 O   0  0  0  0  0  0  0  0  0  0  0  0
   21.4797   -8.2810  -15.5087 N   0  0  0  0  0  0  0  0  0  0  0  0
   21.1349   -7.7056  -14.2246 C   0  0  1  0  0  0  0  0  0  0  0  0
   22.4027   -7.2443  -13.5617 C   0  0  0  0  0  0  0  0  0  0  0  0
   23.1243   -6.1997  -14.3209 C   0  0  0  0  0  0  0  0  0  0  0  0
   24.0871   -6.5609  -15.2278 C   0  0  0  0  0  0  0  0  0  0  0  0
   24.7981   -5.6238  -15.9741 C   0  0  0  0  0  0  0  0  0  0  0  0
   24.5076   -4.2797  -15.7787 C   0  0  0  0  0  0  0  0  0  0  0  0
   23.5393   -3.9336  -14.8654 C   0  0  0  0  0  0  0  0  0  0  0  0
   22.8458   -4.8703  -14.1362 C   0  0  0  0  0  0  0  0  0  0  0  0
   20.1287   -6.6474  -14.4110 C   0  0  0  0  0  0  0  0  0  0  0  0
   19.7227   -6.1987  -15.6546 O   0  0  0  0  0  0  0  0  0  0  0  0
   19.5790   -6.0893  -13.4115 O   0  0  0  0  0  0  0  0  0  0  0  0
  2  1  1  1
  2  4  1  0
  2  3  1  0
  4  6  1  0
  4  5  1  1
  6  7  2  0
  9  8  1  6
  9 11  1  0
 10  6  1  0
 10  9  1  0
 11 12  2  0
 13 14  1  0
 13 11  1  0
 14 22  1  0
 14 15  1  6
 16 21  2  0
 16 15  1  0
 17 16  1  0
 18 19  1  0
 18 17  2  0
 19 20  2  0
 20 21  1  0
 22 24  2  0
 22 23  1  0
M  END
$$$$
