VAF.pdb
     RDKit          3D

 24 24  0  0  1  0  0  0  0  0999 V2000
   20.3987  -12.3429  -15.5812 C   0  0  0  0  0  0  0  0  0  0  0  0
   19.0208  -12.4306  -16.2011 C   0  0  1  0  0  0  0  0  0  0  0  0
   18.0228  -11.9902  -15.1953 C   0  0  0  0  0  0  0  0  0  0  0  0
   18.9577  -11.6792  -17.5028 C   0  0  2  0  0  0  0  0  0  0  0  0
   19.7102  -12.4478  -18.4766 N   0  0  0  0  0  0  0  0  0  0  0  0
   19.4511  -10.3081  -17.4272 C   0  0  0  0  0  0  0  0  0  0  0  0
   20.6890  -10.0971  -17.4525 O   0  0  0  0  0  0  0  0  0  0  0  0
   18.1721   -6.7667  -17.4606 C   0  0  0  0  0  0  0  0  0  0  0  0
   19.1748   -7.8702  -17.1785 C   0  0  2  0  0  0  0  0  0  0  0  0
   18.6058   -9.1767  -17.3253 N   0  0  0  0  0  0  0  0  0  0  0  0
   19.7680   -7.6256  -15.8574 C   0  0  0  0  0  0  0  0  0  0  0  0
   19.2416   -8.1632  -14.8511 O   0  0  0  0  0  0  0  0  0  0  0  0
   20.9098   -6.8043  -15.6987 N   0  0  0  0  0  0  0  0  0  0  0  0
   21.5669   -6.5760  -14.4279 C   0  0  1  0  0  0  0  0  0  0  0  0
   22.9210   -7.2270  -14.4764 C   0  0  0  0  0  0  0  0  0  0  0  0
   23.7765   -6.7378  -15.5796 C   0  0  0  0  0  0  0  0  0  0  0  0
   23.9159   -7.4904  -16.7171 C   0  0  0  0  0  0  0  0  0  0  0  0
   24.7049   -7.0817  -17.7901 C   0  0  0  0  0  0  0  0  0  0  0  0
   25.3667   -5.8650  -17.6854 C   0  0  0  0  0  0  0  0  0  0  0  0
   25.2168   -5.1219  -16.5379 C   0  0  0  0  0  0  0  0  0  0  0  0
   24.4343   -5.5387  -15.4872 C   0  0  0  0  0  0  0  0  0  0  0  0
   21.5983   -5.1327  -14.1396 C   0  0  0  0  0  0  0  0  0  0  0  0
   21.1350   -4.1738  -15.0218 O   0  0  0  0  0  0  0  0  0  0  0  0
   22.0645   -4.6990  -13.0409 O   0  0  0  0  0  0  0  0  0  0  0  0
  2  1  1  1
  2  4  1  0
  2  3  1  0
  4  6  1  0
  4  5  1  6
  6  7  2  0
  9  8  1  1
  9 11  1  0
 10  6  1  0
 10  9  1  0
 11 12  2  0
 13 14  1  0
 13 11  1  0
 14 22  1  0
 14 15  1  6
 16 21  2  0
 16 15  1  0
 17 16  1  0
 18 19  1  0
 18 17  2  0
 19 20  2  0
 20 21  1  0
 22 24  2  0
 22 23  1  0
M  END
$$$$
