VAF.pdb
     RDKit          3D

 24 24  0  0  1  0  0  0  0  0999 V2000
   36.3579  -24.4145    5.4513 C   0  0  0  0  0  0  0  0  0  0  0  0
   35.3419  -23.7767    6.3741 C   0  0  1  0  0  0  0  0  0  0  0  0
   33.9830  -24.0912    5.8680 C   0  0  0  0  0  0  0  0  0  0  0  0
   35.5752  -24.1774    7.8052 C   0  0  2  0  0  0  0  0  0  0  0  0
   35.4040  -25.6163    7.8791 N   0  0  0  0  0  0  0  0  0  0  0  0
   34.7104  -23.4997    8.7654 C   0  0  0  0  0  0  0  0  0  0  0  0
   33.5677  -23.9650    9.0001 O   0  0  0  0  0  0  0  0  0  0  0  0
   34.8185  -20.7025   11.2824 C   0  0  0  0  0  0  0  0  0  0  0  0
   34.1499  -21.6871   10.3409 C   0  0  2  0  0  0  0  0  0  0  0  0
   35.0852  -22.3265    9.4641 N   0  0  0  0  0  0  0  0  0  0  0  0
   33.0624  -20.9896    9.6426 C   0  0  0  0  0  0  0  0  0  0  0  0
   33.2714  -20.5559    8.4820 O   0  0  0  0  0  0  0  0  0  0  0  0
   31.7965  -20.7990   10.2466 N   0  0  0  0  0  0  0  0  0  0  0  0
   30.6480  -20.2521    9.5534 C   0  0  1  0  0  0  0  0  0  0  0  0
   30.3726  -21.1117    8.3513 C   0  0  0  0  0  0  0  0  0  0  0  0
   29.5461  -22.3021    8.6486 C   0  0  0  0  0  0  0  0  0  0  0  0
   30.1366  -23.5368    8.7296 C   0  0  0  0  0  0  0  0  0  0  0  0
   29.4119  -24.6934    9.0089 C   0  0  0  0  0  0  0  0  0  0  0  0
   28.0429  -24.5716    9.2094 C   0  0  0  0  0  0  0  0  0  0  0  0
   27.4657  -23.3262    9.1247 C   0  0  0  0  0  0  0  0  0  0  0  0
   28.1943  -22.1936    8.8482 C   0  0  0  0  0  0  0  0  0  0  0  0
   29.5160  -20.1356   10.4873 C   0  0  0  0  0  0  0  0  0  0  0  0
   28.4216  -19.3230   10.2534 O   0  0  0  0  0  0  0  0  0  0  0  0
   29.4987  -20.7932   11.5735 O   0  0  0  0  0  0  0  0  0  0  0  0
  2  1  1  6
  2  4  1  0
  2  3  1  0
  4  6  1  0
  4  5  1  6
  6  7  2  0
  9  8  1  6
  9 11  1  0
 10  6  1  0
 10  9  1  0
 11 12  2  0
 13 14  1  0
 13 11  1  0
 14 22  1  0
 14 15  1  6
 16 21  2  0
 16 15  1  0
 17 16  1  0
 18 19  1  0
 18 17  2  0
 19 20  2  0
 20 21  1  0
 22 24  2  0
 22 23  1  0
M  END
$$$$
