VAF.pdb
     RDKit          3D

 24 24  0  0  1  0  0  0  0  0999 V2000
   21.2508  -13.3225  -19.8614 C   0  0  0  0  0  0  0  0  0  0  0  0
   21.2352  -11.8190  -19.6888 C   0  0  1  0  0  0  0  0  0  0  0  0
   20.6890  -11.2083  -20.9259 C   0  0  0  0  0  0  0  0  0  0  0  0
   20.5107  -11.4202  -18.4322 C   0  0  2  0  0  0  0  0  0  0  0  0
   19.2813  -12.1894  -18.3855 N   0  0  0  0  0  0  0  0  0  0  0  0
   20.2355   -9.9910  -18.3276 C   0  0  0  0  0  0  0  0  0  0  0  0
   21.1852   -9.1945  -18.1242 O   0  0  0  0  0  0  0  0  0  0  0  0
   17.4580   -7.5218  -18.8526 C   0  0  0  0  0  0  0  0  0  0  0  0
   18.7424   -8.0310  -18.2249 C   0  0  2  0  0  0  0  0  0  0  0  0
   18.9392   -9.4331  -18.4432 N   0  0  0  0  0  0  0  0  0  0  0  0
   18.7465   -7.6441  -16.8081 C   0  0  0  0  0  0  0  0  0  0  0  0
   18.1654   -8.3873  -15.9783 O   0  0  0  0  0  0  0  0  0  0  0  0
   19.3864   -6.4618  -16.3651 N   0  0  0  0  0  0  0  0  0  0  0  0
   19.3197   -5.9723  -15.0031 C   0  0  1  0  0  0  0  0  0  0  0  0
   20.4233   -6.6226  -14.2164 C   0  0  0  0  0  0  0  0  0  0  0  0
   21.7785   -6.2946  -14.7108 C   0  0  0  0  0  0  0  0  0  0  0  0
   22.5149   -7.2510  -15.3611 C   0  0  0  0  0  0  0  0  0  0  0  0
   23.7949   -7.0015  -15.8514 C   0  0  0  0  0  0  0  0  0  0  0  0
   24.3276   -5.7324  -15.6650 C   0  0  0  0  0  0  0  0  0  0  0  0
   23.5764   -4.7843  -15.0107 C   0  0  0  0  0  0  0  0  0  0  0  0
   22.3143   -5.0456  -14.5325 C   0  0  0  0  0  0  0  0  0  0  0  0
   19.3617   -4.5008  -15.0039 C   0  0  0  0  0  0  0  0  0  0  0  0
   19.1382   -3.7360  -13.8735 O   0  0  0  0  0  0  0  0  0  0  0  0
   19.6110   -3.8578  -16.0702 O   0  0  0  0  0  0  0  0  0  0  0  0
  2  1  1  6
  2  4  1  0
  2  3  1  0
  4  6  1  0
  4  5  1  6
  6  7  2  0
  9  8  1  1
  9 11  1  0
 10  6  1  0
 10  9  1  0
 11 12  2  0
 13 14  1  0
 13 11  1  0
 14 22  1  0
 14 15  1  1
 16 21  2  0
 16 15  1  0
 17 16  1  0
 18 19  1  0
 18 17  2  0
 19 20  2  0
 20 21  1  0
 22 24  2  0
 22 23  1  0
M  END
$$$$
