VAF.pdb
     RDKit          3D

 24 24  0  0  1  0  0  0  0  0999 V2000
   28.5608  -16.8995  -14.9019 C   0  0  0  0  0  0  0  0  0  0  0  0
   27.4847  -17.9110  -15.2326 C   0  0  1  0  0  0  0  0  0  0  0  0
   27.4664  -18.1161  -16.7020 C   0  0  0  0  0  0  0  0  0  0  0  0
   27.6585  -19.1749  -14.4355 C   0  0  2  0  0  0  0  0  0  0  0  0
   27.2548  -20.2769  -15.2886 N   0  0  0  0  0  0  0  0  0  0  0  0
   26.9223  -19.1944  -13.1757 C   0  0  0  0  0  0  0  0  0  0  0  0
   27.2194  -18.3696  -12.2764 O   0  0  0  0  0  0  0  0  0  0  0  0
   23.8990  -20.7719  -11.6037 C   0  0  0  0  0  0  0  0  0  0  0  0
   25.2700  -20.1216  -11.5972 C   0  0  2  0  0  0  0  0  0  0  0  0
   25.8724  -20.1025  -12.8968 N   0  0  0  0  0  0  0  0  0  0  0  0
   26.0881  -20.7839  -10.5730 C   0  0  0  0  0  0  0  0  0  0  0  0
   26.8374  -21.7312  -10.9193 O   0  0  0  0  0  0  0  0  0  0  0  0
   26.0485  -20.3788   -9.2173 N   0  0  0  0  0  0  0  0  0  0  0  0
   26.7111  -21.0921   -8.1443 C   0  0  1  0  0  0  0  0  0  0  0  0
   28.0730  -20.4865   -7.9494 C   0  0  0  0  0  0  0  0  0  0  0  0
   28.3487  -20.0805   -6.5538 C   0  0  0  0  0  0  0  0  0  0  0  0
   29.1320  -20.8748   -5.7567 C   0  0  0  0  0  0  0  0  0  0  0  0
   29.4290  -20.5445   -4.4363 C   0  0  0  0  0  0  0  0  0  0  0  0
   28.9036  -19.3642   -3.9263 C   0  0  0  0  0  0  0  0  0  0  0  0
   28.1198  -18.5785   -4.7385 C   0  0  0  0  0  0  0  0  0  0  0  0
   27.8355  -18.9179   -6.0401 C   0  0  0  0  0  0  0  0  0  0  0  0
   25.8625  -21.0754   -6.9415 C   0  0  0  0  0  0  0  0  0  0  0  0
   24.7423  -20.2741   -6.8158 O   0  0  0  0  0  0  0  0  0  0  0  0
   26.1322  -21.8149   -5.9450 O   0  0  0  0  0  0  0  0  0  0  0  0
  2  1  1  6
  2  4  1  0
  2  3  1  0
  4  6  1  0
  4  5  1  6
  6  7  2  0
  9  8  1  6
  9 11  1  0
 10  6  1  0
 10  9  1  0
 11 12  2  0
 13 14  1  0
 13 11  1  0
 14 22  1  0
 14 15  1  1
 16 21  2  0
 16 15  1  0
 17 16  1  0
 18 19  1  0
 18 17  2  0
 19 20  2  0
 20 21  1  0
 22 24  2  0
 22 23  1  0
M  END
$$$$
