VAF.pdb
     RDKit          3D

 24 24  0  0  1  0  0  0  0  0999 V2000
   28.7406  -19.0933  -16.1292 C   0  0  0  0  0  0  0  0  0  0  0  0
   28.2292  -19.2920  -14.7187 C   0  0  1  0  0  0  0  0  0  0  0  0
   29.0034  -18.4125  -13.8085 C   0  0  0  0  0  0  0  0  0  0  0  0
   26.7393  -19.0978  -14.6446 C   0  0  2  0  0  0  0  0  0  0  0  0
   26.4513  -17.7879  -15.1982 N   0  0  0  0  0  0  0  0  0  0  0  0
   26.1842  -19.2295  -13.3016 C   0  0  0  0  0  0  0  0  0  0  0  0
   26.1805  -18.2332  -12.5367 O   0  0  0  0  0  0  0  0  0  0  0  0
   23.8933  -21.4382  -11.3947 C   0  0  0  0  0  0  0  0  0  0  0  0
   25.0473  -20.4574  -11.4902 C   0  0  2  0  0  0  0  0  0  0  0  0
   25.6382  -20.4337  -12.7950 N   0  0  0  0  0  0  0  0  0  0  0  0
   25.9984  -20.7603  -10.4129 C   0  0  0  0  0  0  0  0  0  0  0  0
   26.9772  -21.5067  -10.6647 O   0  0  0  0  0  0  0  0  0  0  0  0
   25.8344  -20.2322   -9.1099 N   0  0  0  0  0  0  0  0  0  0  0  0
   26.6844  -20.5773   -7.9886 C   0  0  1  0  0  0  0  0  0  0  0  0
   27.3991  -19.3328   -7.5414 C   0  0  0  0  0  0  0  0  0  0  0  0
   28.1222  -19.4904   -6.2604 C   0  0  0  0  0  0  0  0  0  0  0  0
   29.0939  -20.4503   -6.1418 C   0  0  0  0  0  0  0  0  0  0  0  0
   29.8104  -20.6449   -4.9629 C   0  0  0  0  0  0  0  0  0  0  0  0
   29.5157  -19.8274   -3.8794 C   0  0  0  0  0  0  0  0  0  0  0  0
   28.5383  -18.8694   -4.0144 C   0  0  0  0  0  0  0  0  0  0  0  0
   27.8396  -18.6893   -5.1845 C   0  0  0  0  0  0  0  0  0  0  0  0
   25.8802  -21.2246   -6.9391 C   0  0  0  0  0  0  0  0  0  0  0  0
   24.5052  -21.1020   -6.8547 O   0  0  0  0  0  0  0  0  0  0  0  0
   26.4309  -21.9398   -6.0459 O   0  0  0  0  0  0  0  0  0  0  0  0
  2  1  1  6
  2  4  1  0
  2  3  1  0
  4  6  1  0
  4  5  1  1
  6  7  2  0
  9  8  1  6
  9 11  1  0
 10  6  1  0
 10  9  1  0
 11 12  2  0
 13 14  1  0
 13 11  1  0
 14 22  1  0
 14 15  1  1
 16 21  2  0
 16 15  1  0
 17 16  1  0
 18 19  1  0
 18 17  2  0
 19 20  2  0
 20 21  1  0
 22 24  2  0
 22 23  1  0
M  END
$$$$
