VYV.pdb
     RDKit          3D

 27 27  0  0  1  0  0  0  0  0999 V2000
   24.9231  -18.3639  -20.9708 C   0  0  0  0  0  0  0  0  0  0  0  0
   24.5689  -18.0056  -19.5651 C   0  0  1  0  0  0  0  0  0  0  0  0
   23.6984  -16.7481  -19.6114 C   0  0  0  0  0  0  0  0  0  0  0  0
   23.7368  -19.0713  -18.8878 C   0  0  2  0  0  0  0  0  0  0  0  0
   22.4522  -19.1735  -19.4944 N   0  0  0  0  0  0  0  0  0  0  0  0
   23.6022  -18.8285  -17.4330 C   0  0  0  0  0  0  0  0  0  0  0  0
   23.8141  -17.7045  -16.9045 O   0  0  0  0  0  0  0  0  0  0  0  0
   20.9192  -19.5838   -9.1557 O   0  0  0  0  0  0  0  0  0  0  0  0
   21.1241  -19.7255  -10.5189 C   0  0  0  0  0  0  0  0  0  0  0  0
   20.9533  -18.6699  -11.3758 C   0  0  0  0  0  0  0  0  0  0  0  0
   21.1497  -18.7830  -12.7308 C   0  0  0  0  0  0  0  0  0  0  0  0
   21.5292  -19.9821  -13.2636 C   0  0  0  0  0  0  0  0  0  0  0  0
   21.7518  -20.1546  -14.7047 C   0  0  0  0  0  0  0  0  0  0  0  0
   23.1520  -19.7648  -15.1390 C   0  0  2  0  0  0  0  0  0  0  0  0
   23.2180  -19.8992  -16.5817 N   0  0  0  0  0  0  0  0  0  0  0  0
   24.0854  -20.7269  -14.5028 C   0  0  0  0  0  0  0  0  0  0  0  0
   24.1312  -21.9426  -14.8218 O   0  0  0  0  0  0  0  0  0  0  0  0
   21.7049  -21.0559  -12.4075 C   0  0  0  0  0  0  0  0  0  0  0  0
   21.5072  -20.9345  -11.0600 C   0  0  0  0  0  0  0  0  0  0  0  0
   27.6569  -20.4465  -14.4545 C   0  0  0  0  0  0  0  0  0  0  0  0
   27.3460  -20.5891  -12.9930 C   0  0  1  0  0  0  0  0  0  0  0  0
   27.5340  -19.2604  -12.3330 C   0  0  0  0  0  0  0  0  0  0  0  0
   25.9400  -21.1238  -12.8349 C   0  0  2  0  0  0  0  0  0  0  0  0
   24.9695  -20.2700  -13.4901 N   0  0  0  0  0  0  0  0  0  0  0  0
   25.5875  -21.3182  -11.4132 C   0  0  0  0  0  0  0  0  0  0  0  0
   26.1546  -22.3109  -10.6310 O   0  0  0  0  0  0  0  0  0  0  0  0
   24.7446  -20.5594  -10.8909 O   0  0  0  0  0  0  0  0  0  0  0  0
  2  1  1  6
  2  3  1  0
  4  2  1  0
  4  5  1  6
  6  4  1  0
  6 15  1  0
  7  6  2  0
  9 19  2  0
  9  8  1  0
 10  9  1  0
 11 12  1  0
 11 10  2  0
 12 18  2  0
 13 12  1  0
 14 13  1  1
 14 15  1  0
 16 17  2  0
 16 14  1  0
 18 19  1  0
 21 20  1  6
 21 23  1  0
 22 21  1  0
 23 25  1  0
 23 24  1  1
 24 16  1  0
 25 26  1  0
 27 25  2  0
M  END
$$$$
