VYV.pdb
     RDKit          3D

 27 27  0  0  1  0  0  0  0  0999 V2000
   22.8344  -18.5050  -19.1629 C   0  0  0  0  0  0  0  0  0  0  0  0
   23.8376  -19.3834  -19.8349 C   0  0  1  0  0  0  0  0  0  0  0  0
   24.3812  -18.6247  -21.0474 C   0  0  0  0  0  0  0  0  0  0  0  0
   25.0296  -19.6812  -18.9532 C   0  0  2  0  0  0  0  0  0  0  0  0
   26.0043  -20.4436  -19.6584 N   0  0  0  0  0  0  0  0  0  0  0  0
   24.6365  -20.3750  -17.7051 C   0  0  0  0  0  0  0  0  0  0  0  0
   24.3595  -21.6034  -17.6633 O   0  0  0  0  0  0  0  0  0  0  0  0
   23.4508  -21.6661   -9.0680 O   0  0  0  0  0  0  0  0  0  0  0  0
   23.7932  -21.1510  -10.3081 C   0  0  0  0  0  0  0  0  0  0  0  0
   24.9071  -21.5887  -10.9755 C   0  0  0  0  0  0  0  0  0  0  0  0
   25.2692  -21.0951  -12.2054 C   0  0  0  0  0  0  0  0  0  0  0  0
   24.5051  -20.1329  -12.8021 C   0  0  0  0  0  0  0  0  0  0  0  0
   24.8493  -19.5733  -14.1153 C   0  0  0  0  0  0  0  0  0  0  0  0
   24.0812  -20.2174  -15.2539 C   0  0  2  0  0  0  0  0  0  0  0  0
   24.5637  -19.6376  -16.4928 N   0  0  0  0  0  0  0  0  0  0  0  0
   22.6514  -19.8704  -15.0615 C   0  0  0  0  0  0  0  0  0  0  0  0
   22.2374  -18.6831  -15.0336 O   0  0  0  0  0  0  0  0  0  0  0  0
   23.3772  -19.6829  -12.1373 C   0  0  0  0  0  0  0  0  0  0  0  0
   23.0240  -20.1796  -10.9133 C   0  0  0  0  0  0  0  0  0  0  0  0
   19.8968  -20.5640  -17.0622 C   0  0  0  0  0  0  0  0  0  0  0  0
   19.4277  -21.1767  -15.7748 C   0  0  1  0  0  0  0  0  0  0  0  0
   19.4670  -22.6653  -15.9123 C   0  0  0  0  0  0  0  0  0  0  0  0
   20.2941  -20.6739  -14.6415 C   0  0  2  0  0  0  0  0  0  0  0  0
   21.6999  -20.9119  -14.9008 N   0  0  0  0  0  0  0  0  0  0  0  0
   19.8954  -21.2646  -13.3472 C   0  0  0  0  0  0  0  0  0  0  0  0
   18.7243  -20.9157  -12.6948 O   0  0  0  0  0  0  0  0  0  0  0  0
   20.6412  -22.1135  -12.8157 O   0  0  0  0  0  0  0  0  0  0  0  0
  2  1  1  1
  2  3  1  0
  4  2  1  0
  4  5  1  6
  6  4  1  0
  6 15  1  0
  7  6  2  0
  9 19  2  0
  9  8  1  0
 10  9  1  0
 11 12  1  0
 11 10  2  0
 12 18  2  0
 13 12  1  0
 14 13  1  1
 14 15  1  0
 16 17  2  0
 16 14  1  0
 18 19  1  0
 21 20  1  6
 21 23  1  0
 22 21  1  0
 23 25  1  0
 23 24  1  6
 24 16  1  0
 25 26  1  0
 27 25  2  0
M  END
$$$$
