VYV.pdb
     RDKit          3D

 27 27  0  0  1  0  0  0  0  0999 V2000
   29.0271  -17.8936  -14.2829 C   0  0  0  0  0  0  0  0  0  0  0  0
   27.9308  -18.6876  -13.6524 C   0  0  1  0  0  0  0  0  0  0  0  0
   27.1469  -19.3704  -14.7751 C   0  0  0  0  0  0  0  0  0  0  0  0
   28.4540  -19.7964  -12.7671 C   0  0  2  0  0  0  0  0  0  0  0  0
   29.1978  -20.7440  -13.5270 N   0  0  0  0  0  0  0  0  0  0  0  0
   27.3661  -20.4720  -12.0231 C   0  0  0  0  0  0  0  0  0  0  0  0
   26.9155  -21.6031  -12.3472 O   0  0  0  0  0  0  0  0  0  0  0  0
   28.9582  -20.6303   -4.7612 O   0  0  0  0  0  0  0  0  0  0  0  0
   28.0822  -20.3505   -5.7979 C   0  0  0  0  0  0  0  0  0  0  0  0
   27.7255  -19.0618   -6.0973 C   0  0  0  0  0  0  0  0  0  0  0  0
   26.8595  -18.7567   -7.1193 C   0  0  0  0  0  0  0  0  0  0  0  0
   26.3234  -19.7593   -7.8765 C   0  0  0  0  0  0  0  0  0  0  0  0
   25.3936  -19.4856   -8.9794 C   0  0  0  0  0  0  0  0  0  0  0  0
   25.6395  -20.3615  -10.1932 C   0  0  2  0  0  0  0  0  0  0  0  0
   26.7943  -19.8302  -10.8918 N   0  0  0  0  0  0  0  0  0  0  0  0
   24.4374  -20.2517  -11.0561 C   0  0  0  0  0  0  0  0  0  0  0  0
   24.0225  -19.1539  -11.5081 O   0  0  0  0  0  0  0  0  0  0  0  0
   26.6766  -21.0655   -7.5832 C   0  0  0  0  0  0  0  0  0  0  0  0
   27.5393  -21.3602   -6.5641 C   0  0  0  0  0  0  0  0  0  0  0  0
   22.8599  -23.8521  -12.6770 C   0  0  0  0  0  0  0  0  0  0  0  0
   22.7483  -22.5201  -13.3599 C   0  0  1  0  0  0  0  0  0  0  0  0
   21.5958  -22.5666  -14.3116 C   0  0  0  0  0  0  0  0  0  0  0  0
   22.5965  -21.4378  -12.3144 C   0  0  2  0  0  0  0  0  0  0  0  0
   23.7157  -21.4269  -11.3938 N   0  0  0  0  0  0  0  0  0  0  0  0
   21.3199  -21.5635  -11.5813 C   0  0  0  0  0  0  0  0  0  0  0  0
   20.0948  -21.2679  -12.1565 O   0  0  0  0  0  0  0  0  0  0  0  0
   21.3407  -21.9516  -10.3946 O   0  0  0  0  0  0  0  0  0  0  0  0
  2  1  1  6
  2  3  1  0
  4  2  1  0
  4  5  1  6
  6  4  1  0
  6 15  1  0
  7  6  2  0
  9 19  2  0
  9  8  1  0
 10  9  1  0
 11 12  1  0
 11 10  2  0
 12 18  2  0
 13 12  1  0
 14 13  1  1
 14 15  1  0
 16 17  2  0
 16 14  1  0
 18 19  1  0
 21 20  1  1
 21 23  1  0
 22 21  1  0
 23 25  1  0
 23 24  1  1
 24 16  1  0
 25 26  1  0
 27 25  2  0
M  END
$$$$
