VYV.pdb
     RDKit          3D

 27 27  0  0  1  0  0  0  0  0999 V2000
   26.4129  -18.1594  -18.8532 C   0  0  0  0  0  0  0  0  0  0  0  0
   27.3206  -19.1643  -19.4825 C   0  0  1  0  0  0  0  0  0  0  0  0
   28.1161  -18.4503  -20.5773 C   0  0  0  0  0  0  0  0  0  0  0  0
   28.3395  -19.7140  -18.5096 C   0  0  2  0  0  0  0  0  0  0  0  0
   29.1925  -20.6588  -19.1484 N   0  0  0  0  0  0  0  0  0  0  0  0
   27.6991  -20.3197  -17.3194 C   0  0  0  0  0  0  0  0  0  0  0  0
   27.1629  -21.4598  -17.3367 O   0  0  0  0  0  0  0  0  0  0  0  0
   25.2789  -21.0406   -8.8360 O   0  0  0  0  0  0  0  0  0  0  0  0
   25.8742  -20.6704  -10.0314 C   0  0  0  0  0  0  0  0  0  0  0  0
   26.6957  -21.5309  -10.7115 C   0  0  0  0  0  0  0  0  0  0  0  0
   27.2982  -21.1895  -11.8980 C   0  0  0  0  0  0  0  0  0  0  0  0
   27.0839  -19.9527  -12.4366 C   0  0  0  0  0  0  0  0  0  0  0  0
   27.7043  -19.5397  -13.7017 C   0  0  0  0  0  0  0  0  0  0  0  0
   26.9734  -20.0694  -14.9209 C   0  0  2  0  0  0  0  0  0  0  0  0
   27.6797  -19.5968  -16.0964 N   0  0  0  0  0  0  0  0  0  0  0  0
   25.6072  -19.4911  -14.8909 C   0  0  0  0  0  0  0  0  0  0  0  0
   25.3908  -18.2538  -14.9526 O   0  0  0  0  0  0  0  0  0  0  0  0
   26.2557  -19.0746  -11.7583 C   0  0  0  0  0  0  0  0  0  0  0  0
   25.6600  -19.4226  -10.5778 C   0  0  0  0  0  0  0  0  0  0  0  0
   23.0066  -19.8132  -17.1569 C   0  0  0  0  0  0  0  0  0  0  0  0
   22.3160  -20.3030  -15.9175 C   0  0  1  0  0  0  0  0  0  0  0  0
   22.1491  -21.7857  -16.0182 C   0  0  0  0  0  0  0  0  0  0  0  0
   23.1200  -19.8888  -14.7052 C   0  0  2  0  0  0  0  0  0  0  0  0
   24.4883  -20.3591  -14.7884 N   0  0  0  0  0  0  0  0  0  0  0  0
   22.4876  -20.3447  -13.4501 C   0  0  0  0  0  0  0  0  0  0  0  0
   21.3260  -19.7797  -12.9497 O   0  0  0  0  0  0  0  0  0  0  0  0
   23.0180  -21.2769  -12.8106 O   0  0  0  0  0  0  0  0  0  0  0  0
  2  1  1  1
  2  3  1  0
  4  2  1  0
  4  5  1  6
  6  4  1  0
  6 15  1  0
  7  6  2  0
  9 19  2  0
  9  8  1  0
 10  9  1  0
 11 12  1  0
 11 10  2  0
 12 18  2  0
 13 12  1  0
 14 13  1  1
 14 15  1  0
 16 17  2  0
 16 14  1  0
 18 19  1  0
 21 20  1  6
 21 23  1  0
 22 21  1  0
 23 25  1  0
 23 24  1  6
 24 16  1  0
 25 26  1  0
 27 25  2  0
M  END
$$$$
