VYV.pdb
     RDKit          3D

 27 27  0  0  1  0  0  0  0  0999 V2000
   29.0136  -21.2152  -16.4352 C   0  0  0  0  0  0  0  0  0  0  0  0
   28.2312  -20.7216  -15.2631 C   0  0  1  0  0  0  0  0  0  0  0  0
   28.5911  -19.2497  -15.0509 C   0  0  0  0  0  0  0  0  0  0  0  0
   26.7388  -20.7614  -15.5046 C   0  0  2  0  0  0  0  0  0  0  0  0
   26.3954  -20.0322  -16.6789 N   0  0  0  0  0  0  0  0  0  0  0  0
   25.9751  -20.2546  -14.3413 C   0  0  0  0  0  0  0  0  0  0  0  0
   25.7613  -19.0286  -14.1447 O   0  0  0  0  0  0  0  0  0  0  0  0
   20.2934  -18.7952  -16.4548 O   0  0  0  0  0  0  0  0  0  0  0  0
   21.0278  -19.4200  -15.4595 C   0  0  0  0  0  0  0  0  0  0  0  0
   21.0546  -18.9267  -14.1814 C   0  0  0  0  0  0  0  0  0  0  0  0
   21.7741  -19.5263  -13.1762 C   0  0  0  0  0  0  0  0  0  0  0  0
   22.4956  -20.6558  -13.4392 C   0  0  0  0  0  0  0  0  0  0  0  0
   23.2807  -21.3340  -12.4000 C   0  0  0  0  0  0  0  0  0  0  0  0
   24.6769  -20.7618  -12.2438 C   0  0  2  0  0  0  0  0  0  0  0  0
   25.4537  -21.1782  -13.3958 N   0  0  0  0  0  0  0  0  0  0  0  0
   25.2514  -21.3546  -11.0109 C   0  0  0  0  0  0  0  0  0  0  0  0
   25.5838  -22.5648  -10.9290 O   0  0  0  0  0  0  0  0  0  0  0  0
   22.4762  -21.1636  -14.7271 C   0  0  0  0  0  0  0  0  0  0  0  0
   21.7573  -20.5604  -15.7216 C   0  0  0  0  0  0  0  0  0  0  0  0
   28.1109  -19.9263   -8.9738 C   0  0  0  0  0  0  0  0  0  0  0  0
   26.9712  -20.0873   -8.0103 C   0  0  1  0  0  0  0  0  0  0  0  0
   26.4042  -18.7362   -7.7114 C   0  0  0  0  0  0  0  0  0  0  0  0
   25.9481  -21.0292   -8.6052 C   0  0  2  0  0  0  0  0  0  0  0  0
   25.4395  -20.5331   -9.8683 N   0  0  0  0  0  0  0  0  0  0  0  0
   24.8396  -21.2942   -7.6649 C   0  0  0  0  0  0  0  0  0  0  0  0
   25.0308  -21.9050   -6.4363 O   0  0  0  0  0  0  0  0  0  0  0  0
   23.6814  -20.9557   -7.9861 O   0  0  0  0  0  0  0  0  0  0  0  0
  2  1  1  6
  2  3  1  0
  4  2  1  0
  4  5  1  6
  6  4  1  0
  6 15  1  0
  7  6  2  0
  9 19  2  0
  9  8  1  0
 10  9  1  0
 11 12  1  0
 11 10  2  0
 12 18  2  0
 13 12  1  0
 14 13  1  6
 14 15  1  0
 16 17  2  0
 16 14  1  0
 18 19  1  0
 21 20  1  6
 21 23  1  0
 22 21  1  0
 23 25  1  0
 23 24  1  6
 24 16  1  0
 25 26  1  0
 27 25  2  0
M  END
$$$$
