VYV.pdb
     RDKit          3D

 27 27  0  0  1  0  0  0  0  0999 V2000
   29.0000  -19.3062  -13.9161 C   0  0  0  0  0  0  0  0  0  0  0  0
   28.1472  -18.9502  -15.0890 C   0  0  1  0  0  0  0  0  0  0  0  0
   28.9557  -19.2381  -16.3557 C   0  0  0  0  0  0  0  0  0  0  0  0
   26.9015  -19.8028  -15.1794 C   0  0  2  0  0  0  0  0  0  0  0  0
   26.2239  -19.5815  -16.4125 N   0  0  0  0  0  0  0  0  0  0  0  0
   25.9859  -19.5695  -14.0389 C   0  0  0  0  0  0  0  0  0  0  0  0
   25.4037  -18.4695  -13.8428 O   0  0  0  0  0  0  0  0  0  0  0  0
   20.2077  -18.4746  -15.7902 O   0  0  0  0  0  0  0  0  0  0  0  0
   21.0428  -19.1419  -14.9083 C   0  0  0  0  0  0  0  0  0  0  0  0
   21.0180  -18.8715  -13.5652 C   0  0  0  0  0  0  0  0  0  0  0  0
   21.8348  -19.5180  -12.6694 C   0  0  0  0  0  0  0  0  0  0  0  0
   22.7104  -20.4680  -13.1128 C   0  0  0  0  0  0  0  0  0  0  0  0
   23.6040  -21.1870  -12.1961 C   0  0  0  0  0  0  0  0  0  0  0  0
   24.9074  -20.4536  -11.9420 C   0  0  2  0  0  0  0  0  0  0  0  0
   25.7424  -20.6220  -13.1160 N   0  0  0  0  0  0  0  0  0  0  0  0
   25.5488  -21.1046  -10.7730 C   0  0  0  0  0  0  0  0  0  0  0  0
   25.8701  -22.3205  -10.7630 O   0  0  0  0  0  0  0  0  0  0  0  0
   22.7443  -20.7497  -14.4679 C   0  0  0  0  0  0  0  0  0  0  0  0
   21.9278  -20.1014  -15.3526 C   0  0  0  0  0  0  0  0  0  0  0  0
   28.3674  -19.8406   -8.3748 C   0  0  0  0  0  0  0  0  0  0  0  0
   27.1229  -20.0410   -7.5599 C   0  0  1  0  0  0  0  0  0  0  0  0
   26.5439  -18.7010   -7.2352 C   0  0  0  0  0  0  0  0  0  0  0  0
   26.1620  -20.9192   -8.3300 C   0  0  2  0  0  0  0  0  0  0  0  0
   25.8170  -20.3348   -9.6105 N   0  0  0  0  0  0  0  0  0  0  0  0
   24.9444  -21.2129   -7.5461 C   0  0  0  0  0  0  0  0  0  0  0  0
   24.9421  -22.0775   -6.4638 O   0  0  0  0  0  0  0  0  0  0  0  0
   23.8713  -20.6618   -7.8684 O   0  0  0  0  0  0  0  0  0  0  0  0
  2  1  1  1
  2  3  1  0
  4  2  1  0
  4  5  1  6
  6  4  1  0
  6 15  1  0
  7  6  2  0
  9 19  2  0
  9  8  1  0
 10  9  1  0
 11 12  1  0
 11 10  2  0
 12 18  2  0
 13 12  1  0
 14 13  1  6
 14 15  1  0
 16 17  2  0
 16 14  1  0
 18 19  1  0
 21 20  1  6
 21 23  1  0
 22 21  1  0
 23 25  1  0
 23 24  1  6
 24 16  1  0
 25 26  1  0
 27 25  2  0
M  END
$$$$
