VYV.pdb
     RDKit          3D

 27 27  0  0  1  0  0  0  0  0999 V2000
   42.4591   -1.8114   -4.3712 C   0  0  0  0  0  0  0  0  0  0  0  0
   42.0913   -3.2378   -4.6158 C   0  0  1  0  0  0  0  0  0  0  0  0
   42.2222   -3.9857   -3.2875 C   0  0  0  0  0  0  0  0  0  0  0  0
   40.6521   -3.3984   -5.0515 C   0  0  2  0  0  0  0  0  0  0  0  0
   39.7730   -2.7245   -4.1563 N   0  0  0  0  0  0  0  0  0  0  0  0
   40.2667   -4.8228   -5.1780 C   0  0  0  0  0  0  0  0  0  0  0  0
   39.1697   -5.2750   -4.7543 O   0  0  0  0  0  0  0  0  0  0  0  0
   38.5636  -11.9780   -9.5983 O   0  0  0  0  0  0  0  0  0  0  0  0
   38.8424  -10.7529   -9.0134 C   0  0  0  0  0  0  0  0  0  0  0  0
   39.3020   -9.6989   -9.7588 C   0  0  0  0  0  0  0  0  0  0  0  0
   39.5860   -8.4743   -9.2044 C   0  0  0  0  0  0  0  0  0  0  0  0
   39.4110   -8.2794   -7.8639 C   0  0  0  0  0  0  0  0  0  0  0  0
   39.7001   -6.9900   -7.2236 C   0  0  0  0  0  0  0  0  0  0  0  0
   40.7775   -7.0848   -6.1599 C   0  0  2  0  0  0  0  0  0  0  0  0
   41.1619   -5.7327   -5.8021 N   0  0  0  0  0  0  0  0  0  0  0  0
   41.9307   -7.7877   -6.7744 C   0  0  0  0  0  0  0  0  0  0  0  0
   42.5753   -7.3166   -7.7462 O   0  0  0  0  0  0  0  0  0  0  0  0
   38.9471   -9.3372   -7.1006 C   0  0  0  0  0  0  0  0  0  0  0  0
   38.6668  -10.5528   -7.6605 C   0  0  0  0  0  0  0  0  0  0  0  0
   45.2155  -11.4502   -6.2199 C   0  0  0  0  0  0  0  0  0  0  0  0
   43.9828  -10.7697   -5.6998 C   0  0  1  0  0  0  0  0  0  0  0  0
   44.3046  -10.1414   -4.3814 C   0  0  0  0  0  0  0  0  0  0  0  0
   43.5028   -9.7637   -6.7222 C   0  0  2  0  0  0  0  0  0  0  0  0
   42.3346   -9.0454   -6.2539 N   0  0  0  0  0  0  0  0  0  0  0  0
   43.2346  -10.4000   -8.0285 C   0  0  0  0  0  0  0  0  0  0  0  0
   44.0932  -10.2807   -9.1089 O   0  0  0  0  0  0  0  0  0  0  0  0
   42.1927  -11.0737   -8.1693 O   0  0  0  0  0  0  0  0  0  0  0  0
  2  1  1  1
  2  3  1  0
  4  2  1  0
  4  5  1  1
  6  4  1  0
  6 15  1  0
  7  6  2  0
  9 19  2  0
  9  8  1  0
 10  9  1  0
 11 12  1  0
 11 10  2  0
 12 18  2  0
 13 12  1  0
 14 13  1  6
 14 15  1  0
 16 17  2  0
 16 14  1  0
 18 19  1  0
 21 20  1  6
 21 23  1  0
 22 21  1  0
 23 25  1  0
 23 24  1  1
 24 16  1  0
 25 26  1  0
 27 25  2  0
M  END
$$$$
