VYV.pdb
     RDKit          3D

 27 27  0  0  1  0  0  0  0  0999 V2000
   28.3632  -19.2174  -15.2026 C   0  0  0  0  0  0  0  0  0  0  0  0
   27.5341  -19.1346  -13.9634 C   0  0  1  0  0  0  0  0  0  0  0  0
   26.2938  -20.0050  -14.1753 C   0  0  0  0  0  0  0  0  0  0  0  0
   28.2442  -19.6976  -12.7527 C   0  0  2  0  0  0  0  0  0  0  0  0
   28.5412  -21.0785  -12.9356 N   0  0  0  0  0  0  0  0  0  0  0  0
   27.4639  -19.4982  -11.5098 C   0  0  0  0  0  0  0  0  0  0  0  0
   26.9758  -18.3846  -11.1796 O   0  0  0  0  0  0  0  0  0  0  0  0
   21.1427  -20.3271  -12.9214 O   0  0  0  0  0  0  0  0  0  0  0  0
   22.1912  -20.6308  -12.0676 C   0  0  0  0  0  0  0  0  0  0  0  0
   22.2636  -20.0877  -10.8116 C   0  0  0  0  0  0  0  0  0  0  0  0
   23.2916  -20.3717   -9.9454 C   0  0  0  0  0  0  0  0  0  0  0  0
   24.2874  -21.2236  -10.3305 C   0  0  0  0  0  0  0  0  0  0  0  0
   25.4074  -21.5592   -9.4422 C   0  0  0  0  0  0  0  0  0  0  0  0
   26.4820  -20.4889   -9.4130 C   0  0  2  0  0  0  0  0  0  0  0  0
   27.2470  -20.6008  -10.6403 N   0  0  0  0  0  0  0  0  0  0  0  0
   27.3546  -20.7841   -8.2498 C   0  0  0  0  0  0  0  0  0  0  0  0
   28.2302  -21.6868   -8.2680 O   0  0  0  0  0  0  0  0  0  0  0  0
   24.2249  -21.7785  -11.5974 C   0  0  0  0  0  0  0  0  0  0  0  0
   23.1980  -21.4903  -12.4531 C   0  0  0  0  0  0  0  0  0  0  0  0
   29.7452  -18.8077   -6.3080 C   0  0  0  0  0  0  0  0  0  0  0  0
   28.6824  -19.1591   -5.3081 C   0  0  1  0  0  0  0  0  0  0  0  0
   27.8309  -17.9526   -5.0724 C   0  0  0  0  0  0  0  0  0  0  0  0
   27.8892  -20.3401   -5.8217 C   0  0  2  0  0  0  0  0  0  0  0  0
   27.2060  -20.0238   -7.0600 N   0  0  0  0  0  0  0  0  0  0  0  0
   26.9326  -20.8354   -4.8104 C   0  0  0  0  0  0  0  0  0  0  0  0
   27.3357  -21.3627   -3.5946 O   0  0  0  0  0  0  0  0  0  0  0  0
   25.7098  -20.7784   -5.0570 O   0  0  0  0  0  0  0  0  0  0  0  0
  2  1  1  6
  2  3  1  0
  4  2  1  0
  4  5  1  6
  6  4  1  0
  6 15  1  0
  7  6  2  0
  9 19  2  0
  9  8  1  0
 10  9  1  0
 11 12  1  0
 11 10  2  0
 12 18  2  0
 13 12  1  0
 14 13  1  6
 14 15  1  0
 16 17  2  0
 16 14  1  0
 18 19  1  0
 21 20  1  6
 21 23  1  0
 22 21  1  0
 23 25  1  0
 23 24  1  6
 24 16  1  0
 25 26  1  0
 27 25  2  0
M  END
$$$$
