VYV.pdb
     RDKit          3D

 27 27  0  0  1  0  0  0  0  0999 V2000
   25.9520  -35.3883  -15.8296 C   0  0  0  0  0  0  0  0  0  0  0  0
   26.1202  -34.5665  -14.5942 C   0  0  1  0  0  0  0  0  0  0  0  0
   26.9427  -33.3312  -14.9663 C   0  0  0  0  0  0  0  0  0  0  0  0
   24.8034  -34.0519  -14.0572 C   0  0  2  0  0  0  0  0  0  0  0  0
   24.1154  -33.2910  -15.0452 N   0  0  0  0  0  0  0  0  0  0  0  0
   24.9822  -33.2529  -12.8230 C   0  0  0  0  0  0  0  0  0  0  0  0
   24.6512  -32.0401  -12.7392 O   0  0  0  0  0  0  0  0  0  0  0  0
   21.6437  -28.2305  -11.1667 O   0  0  0  0  0  0  0  0  0  0  0  0
   22.2417  -29.4427  -10.8613 C   0  0  0  0  0  0  0  0  0  0  0  0
   23.0676  -29.5730   -9.7756 C   0  0  0  0  0  0  0  0  0  0  0  0
   23.6729  -30.7626   -9.4503 C   0  0  0  0  0  0  0  0  0  0  0  0
   23.4571  -31.8675  -10.2239 C   0  0  0  0  0  0  0  0  0  0  0  0
   24.0804  -33.1615   -9.9186 C   0  0  0  0  0  0  0  0  0  0  0  0
   25.5281  -33.2420  -10.3646 C   0  0  2  0  0  0  0  0  0  0  0  0
   25.5504  -33.8657  -11.6740 N   0  0  0  0  0  0  0  0  0  0  0  0
   26.2344  -34.1052   -9.3861 C   0  0  0  0  0  0  0  0  0  0  0  0
   26.0459  -35.3466   -9.3137 O   0  0  0  0  0  0  0  0  0  0  0  0
   22.6244  -31.7479  -11.3235 C   0  0  0  0  0  0  0  0  0  0  0  0
   22.0259  -30.5600  -11.6401 C   0  0  0  0  0  0  0  0  0  0  0  0
   28.4209  -32.2808   -6.1735 C   0  0  0  0  0  0  0  0  0  0  0  0
   29.0212  -33.4538   -6.8924 C   0  0  1  0  0  0  0  0  0  0  0  0
   29.8505  -34.2343   -5.9233 C   0  0  0  0  0  0  0  0  0  0  0  0
   27.9126  -34.2792   -7.5067 C   0  0  2  0  0  0  0  0  0  0  0  0
   27.1645  -33.5189   -8.4877 N   0  0  0  0  0  0  0  0  0  0  0  0
   27.0094  -34.8318   -6.4762 C   0  0  0  0  0  0  0  0  0  0  0  0
   25.8095  -34.2307   -6.1330 O   0  0  0  0  0  0  0  0  0  0  0  0
   27.3366  -35.8834   -5.8876 O   0  0  0  0  0  0  0  0  0  0  0  0
  2  1  1  6
  2  3  1  0
  4  2  1  0
  4  5  1  6
  6  4  1  0
  6 15  1  0
  7  6  2  0
  9 19  2  0
  9  8  1  0
 10  9  1  0
 11 12  1  0
 11 10  2  0
 12 18  2  0
 13 12  1  0
 14 13  1  1
 14 15  1  0
 16 17  2  0
 16 14  1  0
 18 19  1  0
 21 20  1  1
 21 23  1  0
 22 21  1  0
 23 25  1  0
 23 24  1  6
 24 16  1  0
 25 26  1  0
 27 25  2  0
M  END
$$$$
