GLG.pdb
     RDKit          3D

 17 16  0  0  1  0  0  0  0  0999 V2000
   22.2124  -18.9874  -16.9810 N   0  0  0  0  0  0  0  0  0  0  0  0
   21.9799  -17.6361  -17.3891 C   0  0  0  0  0  0  0  0  0  0  0  0
   22.5352  -16.6413  -16.4445 C   0  0  0  0  0  0  0  0  0  0  0  0
   22.1459  -16.5693  -15.2518 O   0  0  0  0  0  0  0  0  0  0  0  0
   26.3289  -16.4754  -14.2797 C   0  0  0  0  0  0  0  0  0  0  0  0
   26.1431  -16.3029  -15.7999 C   0  0  2  0  0  0  0  0  0  0  0  0
   27.4456  -16.6570  -16.4379 C   0  0  0  0  0  0  0  0  0  0  0  0
   25.6667  -14.9216  -16.0620 C   0  0  0  0  0  0  0  0  0  0  0  0
   24.1863  -14.7659  -16.0464 C   0  0  2  0  0  0  0  0  0  0  0  0
   23.5251  -15.7518  -16.8911 N   0  0  0  0  0  0  0  0  0  0  0  0
   23.6849  -13.4022  -16.3127 C   0  0  0  0  0  0  0  0  0  0  0  0
   24.0936  -12.3864  -15.7045 O   0  0  0  0  0  0  0  0  0  0  0  0
   22.6724  -13.1426  -17.3087 N   0  0  0  0  0  0  0  0  0  0  0  0
   22.1547  -11.8304  -17.5576 C   0  0  0  0  0  0  0  0  0  0  0  0
   20.8346  -11.5792  -16.9997 C   0  0  0  0  0  0  0  0  0  0  0  0
   20.6463  -11.5744  -15.7644 O   0  0  0  0  0  0  0  0  0  0  0  0
   19.7565  -11.3396  -17.8266 O   0  0  0  0  0  0  0  0  0  0  0  0
  1  2  1  0
  2  3  1  0
  3  4  2  0
  3 10  1  0
  6  5  1  1
  7  6  1  0
  8  6  1  0
  9  8  1  6
 10  9  1  0
 11  9  1  0
 11 12  2  0
 13 11  1  0
 14 13  1  0
 14 15  1  0
 15 17  1  0
 16 15  2  0
M  END
$$$$
