GLG.pdb
     RDKit          3D

 17 16  0  0  1  0  0  0  0  0999 V2000
   26.2760  -10.5181  -21.3883 N   0  0  0  0  0  0  0  0  0  0  0  0
   25.9911   -9.3258  -20.6507 C   0  0  0  0  0  0  0  0  0  0  0  0
   25.0904   -9.5574  -19.4995 C   0  0  0  0  0  0  0  0  0  0  0  0
   24.0947  -10.3200  -19.5788 O   0  0  0  0  0  0  0  0  0  0  0  0
   25.4182  -11.9633  -15.8308 C   0  0  0  0  0  0  0  0  0  0  0  0
   26.1841  -10.6773  -16.1981 C   0  0  2  0  0  0  0  0  0  0  0  0
   27.4673  -10.7052  -15.4356 C   0  0  0  0  0  0  0  0  0  0  0  0
   25.3084   -9.5118  -15.9176 C   0  0  0  0  0  0  0  0  0  0  0  0
   24.5271   -9.0306  -17.0897 C   0  0  2  0  0  0  0  0  0  0  0  0
   25.3536   -8.9078  -18.2832 N   0  0  0  0  0  0  0  0  0  0  0  0
   23.7199   -7.8143  -16.8633 C   0  0  0  0  0  0  0  0  0  0  0  0
   24.2189   -6.6818  -16.6701 O   0  0  0  0  0  0  0  0  0  0  0  0
   22.2766   -7.8482  -16.8490 N   0  0  0  0  0  0  0  0  0  0  0  0
   21.4798   -6.6720  -16.6664 C   0  0  0  0  0  0  0  0  0  0  0  0
   20.8783   -6.5409  -15.3480 C   0  0  0  0  0  0  0  0  0  0  0  0
   21.0712   -7.4009  -14.4623 O   0  0  0  0  0  0  0  0  0  0  0  0
   20.0778   -5.4586  -15.0456 O   0  0  0  0  0  0  0  0  0  0  0  0
  1  2  1  0
  2  3  1  0
  3  4  2  0
  3 10  1  0
  6  5  1  1
  7  6  1  0
  8  6  1  0
  9  8  1  1
 10  9  1  0
 11  9  1  0
 11 12  2  0
 13 11  1  0
 14 13  1  0
 14 15  1  0
 15 17  1  0
 16 15  2  0
M  END
$$$$
