GLG.pdb
     RDKit          3D

 17 16  0  0  1  0  0  0  0  0999 V2000
   20.2271  -23.0949   -7.0854 N   0  0  0  0  0  0  0  0  0  0  0  0
   21.6306  -23.0800   -7.3623 C   0  0  0  0  0  0  0  0  0  0  0  0
   22.0636  -21.8719   -8.0993 C   0  0  0  0  0  0  0  0  0  0  0  0
   21.2450  -20.9971   -8.4787 O   0  0  0  0  0  0  0  0  0  0  0  0
   26.9785  -19.3192   -7.3861 C   0  0  0  0  0  0  0  0  0  0  0  0
   25.5115  -19.7555   -7.5678 C   0  0  2  0  0  0  0  0  0  0  0  0
   25.2067  -20.7173   -6.4675 C   0  0  0  0  0  0  0  0  0  0  0  0
   25.3479  -20.2949   -8.9411 C   0  0  0  0  0  0  0  0  0  0  0  0
   23.9537  -20.6835   -9.2895 C   0  0  2  0  0  0  0  0  0  0  0  0
   23.4269  -21.6958   -8.3838 N   0  0  0  0  0  0  0  0  0  0  0  0
   23.7274  -21.0512  -10.7022 C   0  0  0  0  0  0  0  0  0  0  0  0
   24.2048  -22.0812  -11.2315 O   0  0  0  0  0  0  0  0  0  0  0  0
   22.9272  -20.2350  -11.5843 N   0  0  0  0  0  0  0  0  0  0  0  0
   22.7835  -20.5213  -12.9804 C   0  0  0  0  0  0  0  0  0  0  0  0
   21.8764  -19.6359  -13.6948 C   0  0  0  0  0  0  0  0  0  0  0  0
   21.7414  -19.7141  -14.9345 O   0  0  0  0  0  0  0  0  0  0  0  0
   21.1419  -18.6860  -13.0154 O   0  0  0  0  0  0  0  0  0  0  0  0
  1  2  1  0
  2  3  1  0
  3  4  2  0
  3 10  1  0
  6  5  1  1
  7  6  1  0
  8  6  1  0
  9  8  1  6
 10  9  1  0
 11  9  1  0
 11 12  2  0
 13 11  1  0
 14 13  1  0
 14 15  1  0
 15 17  1  0
 16 15  2  0
M  END
$$$$
