GLG.pdb
     RDKit          3D

 17 16  0  0  1  0  0  0  0  0999 V2000
   19.9973  -11.6295  -16.6549 N   0  0  0  0  0  0  0  0  0  0  0  0
   21.3798  -11.6819  -17.0188 C   0  0  0  0  0  0  0  0  0  0  0  0
   22.2252  -10.7680  -16.2186 C   0  0  0  0  0  0  0  0  0  0  0  0
   22.0497  -10.6120  -14.9840 O   0  0  0  0  0  0  0  0  0  0  0  0
   25.6937  -11.6648  -16.7623 C   0  0  0  0  0  0  0  0  0  0  0  0
   26.2721  -10.3903  -16.1168 C   0  0  2  0  0  0  0  0  0  0  0  0
   26.1811  -10.5747  -14.6381 C   0  0  0  0  0  0  0  0  0  0  0  0
   25.5381   -9.2167  -16.6529 C   0  0  0  0  0  0  0  0  0  0  0  0
   24.1298   -9.1027  -16.1842 C   0  0  2  0  0  0  0  0  0  0  0  0
   23.2530  -10.0538  -16.8544 N   0  0  0  0  0  0  0  0  0  0  0  0
   23.5605   -7.7396  -16.1982 C   0  0  0  0  0  0  0  0  0  0  0  0
   24.1065   -6.7588  -15.6426 O   0  0  0  0  0  0  0  0  0  0  0  0
   22.3151   -7.4397  -16.8642 N   0  0  0  0  0  0  0  0  0  0  0  0
   21.7625   -6.1189  -16.9068 C   0  0  0  0  0  0  0  0  0  0  0  0
   20.9308   -5.7682  -15.7657 C   0  0  0  0  0  0  0  0  0  0  0  0
   20.8036   -6.5465  -14.7964 O   0  0  0  0  0  0  0  0  0  0  0  0
   20.2611   -4.5625  -15.7287 O   0  0  0  0  0  0  0  0  0  0  0  0
  1  2  1  0
  2  3  1  0
  3  4  2  0
  3 10  1  0
  6  5  1  6
  7  6  1  0
  8  6  1  0
  9  8  1  6
 10  9  1  0
 11  9  1  0
 11 12  2  0
 13 11  1  0
 14 13  1  0
 14 15  1  0
 15 17  1  0
 16 15  2  0
M  END
$$$$
