GLG.pdb
     RDKit          3D

 17 16  0  0  1  0  0  0  0  0999 V2000
   19.6253  -11.7317  -18.5192 N   0  0  0  0  0  0  0  0  0  0  0  0
   19.7916  -10.3122  -18.4568 C   0  0  0  0  0  0  0  0  0  0  0  0
   20.2155   -9.8361  -17.1211 C   0  0  0  0  0  0  0  0  0  0  0  0
   19.5270  -10.0486  -16.0916 O   0  0  0  0  0  0  0  0  0  0  0  0
   22.7871  -10.7716  -13.8756 C   0  0  0  0  0  0  0  0  0  0  0  0
   23.4926  -10.4388  -15.2049 C   0  0  2  0  0  0  0  0  0  0  0  0
   24.9060  -10.9008  -15.0721 C   0  0  0  0  0  0  0  0  0  0  0  0
   23.3253   -8.9889  -15.4762 C   0  0  0  0  0  0  0  0  0  0  0  0
   21.9233   -8.5699  -15.7493 C   0  0  2  0  0  0  0  0  0  0  0  0
   21.4207   -9.1269  -16.9982 N   0  0  0  0  0  0  0  0  0  0  0  0
   21.6617   -7.1187  -15.6603 C   0  0  0  0  0  0  0  0  0  0  0  0
   21.9644   -6.4235  -14.6634 O   0  0  0  0  0  0  0  0  0  0  0  0
   21.0287   -6.3904  -16.7343 N   0  0  0  0  0  0  0  0  0  0  0  0
   20.8031   -4.9769  -16.6789 C   0  0  0  0  0  0  0  0  0  0  0  0
   19.5776   -4.5805  -16.0022 C   0  0  0  0  0  0  0  0  0  0  0  0
   19.2435   -3.3790  -15.9237 O   0  0  0  0  0  0  0  0  0  0  0  0
   18.7537   -5.5273  -15.4294 O   0  0  0  0  0  0  0  0  0  0  0  0
  1  2  1  0
  2  3  1  0
  3  4  2  0
  3 10  1  0
  6  5  1  1
  7  6  1  0
  8  6  1  0
  9  8  1  6
 10  9  1  0
 11  9  1  0
 11 12  2  0
 13 11  1  0
 14 13  1  0
 14 15  1  0
 15 17  1  0
 16 15  2  0
M  END
$$$$
