GLG.pdb
     RDKit          3D

 17 16  0  0  1  0  0  0  0  0999 V2000
   25.6845  -20.3131  -17.2995 N   0  0  0  0  0  0  0  0  0  0  0  0
   25.4891  -19.5742  -16.0902 C   0  0  0  0  0  0  0  0  0  0  0  0
   25.1722  -20.4355  -14.9291 C   0  0  0  0  0  0  0  0  0  0  0  0
   25.0451  -21.6806  -15.0416 O   0  0  0  0  0  0  0  0  0  0  0  0
   25.6185  -19.9424   -8.8239 C   0  0  0  0  0  0  0  0  0  0  0  0
   25.1916  -20.8234  -10.0143 C   0  0  2  0  0  0  0  0  0  0  0  0
   25.9488  -22.1047   -9.8978 C   0  0  0  0  0  0  0  0  0  0  0  0
   25.4244  -20.0644  -11.2687 C   0  0  0  0  0  0  0  0  0  0  0  0
   24.6840  -20.5841  -12.4510 C   0  0  2  0  0  0  0  0  0  0  0  0
   25.0085  -19.8471  -13.6651 N   0  0  0  0  0  0  0  0  0  0  0  0
   23.2238  -20.7259  -12.2783 C   0  0  0  0  0  0  0  0  0  0  0  0
   22.7004  -21.4584  -11.4074 O   0  0  0  0  0  0  0  0  0  0  0  0
   22.2843  -20.0180  -13.1154 N   0  0  0  0  0  0  0  0  0  0  0  0
   20.8671  -20.1013  -12.9246 C   0  0  0  0  0  0  0  0  0  0  0  0
   20.1253  -20.6029  -14.0714 C   0  0  0  0  0  0  0  0  0  0  0  0
   20.3651  -21.7311  -14.5518 O   0  0  0  0  0  0  0  0  0  0  0  0
   19.1359  -19.8397  -14.6563 O   0  0  0  0  0  0  0  0  0  0  0  0
  1  2  1  0
  2  3  1  0
  3  4  2  0
  3 10  1  0
  6  5  1  1
  7  6  1  0
  8  6  1  0
  9  8  1  1
 10  9  1  0
 11  9  1  0
 11 12  2  0
 13 11  1  0
 14 13  1  0
 14 15  1  0
 15 17  1  0
 16 15  2  0
M  END
$$$$
