GLG.pdb
     RDKit          3D

 17 16  0  0  1  0  0  0  0  0999 V2000
   21.2287  -12.8106  -18.6346 N   0  0  0  0  0  0  0  0  0  0  0  0
   22.1024  -11.6904  -18.8030 C   0  0  0  0  0  0  0  0  0  0  0  0
   22.3414  -10.9472  -17.5457 C   0  0  0  0  0  0  0  0  0  0  0  0
   21.7737  -11.2632  -16.4699 O   0  0  0  0  0  0  0  0  0  0  0  0
   25.6910  -10.8263  -14.9168 C   0  0  0  0  0  0  0  0  0  0  0  0
   25.7964  -10.1083  -16.2765 C   0  0  2  0  0  0  0  0  0  0  0  0
   27.2511   -9.9245  -16.5571 C   0  0  0  0  0  0  0  0  0  0  0  0
   25.0031   -8.8554  -16.2097 C   0  0  0  0  0  0  0  0  0  0  0  0
   23.5368   -9.0431  -16.3850 C   0  0  2  0  0  0  0  0  0  0  0  0
   23.2268   -9.8579  -17.5523 N   0  0  0  0  0  0  0  0  0  0  0  0
   22.7270   -7.8079  -16.3570 C   0  0  0  0  0  0  0  0  0  0  0  0
   22.5321   -7.0884  -17.3635 O   0  0  0  0  0  0  0  0  0  0  0  0
   22.0942   -7.3378  -15.1474 N   0  0  0  0  0  0  0  0  0  0  0  0
   21.3053   -6.1430  -15.1046 C   0  0  0  0  0  0  0  0  0  0  0  0
   22.0637   -4.9065  -15.2172 C   0  0  0  0  0  0  0  0  0  0  0  0
   23.1505   -4.7592  -14.6183 O   0  0  0  0  0  0  0  0  0  0  0  0
   21.5972   -3.8643  -15.9916 O   0  0  0  0  0  0  0  0  0  0  0  0
  1  2  1  0
  2  3  1  0
  3  4  2  0
  3 10  1  0
  6  5  1  1
  7  6  1  0
  8  6  1  0
  9  8  1  6
 10  9  1  0
 11  9  1  0
 11 12  2  0
 13 11  1  0
 14 13  1  0
 14 15  1  0
 15 17  1  0
 16 15  2  0
M  END
$$$$
