RRV.pdb
     RDKit          3D

 30 29  0  0  1  0  0  0  0  0999 V2000
    8.0545  -12.7093   15.8146 N   0  0  0  0  0  0  0  0  0  0  0  0
    8.1768  -13.8970   15.0427 C   0  0  0  0  0  0  0  0  0  0  0  0
    8.4965  -13.8201   13.7933 N   0  0  0  0  0  0  0  0  0  0  0  0
    7.9472  -15.1472   15.6516 N   0  0  0  0  0  0  0  0  0  0  0  0
    8.1358  -15.3292   17.0732 C   0  0  0  0  0  0  0  0  0  0  0  0
    8.2950  -14.0071   17.7540 C   0  0  0  0  0  0  0  0  0  0  0  0
    7.7806  -14.0292   19.1699 C   0  0  0  0  0  0  0  0  0  0  0  0
    8.7873  -14.6798   20.0955 C   0  0  2  0  0  0  0  0  0  0  0  0
    9.2426  -15.9433   19.5788 N   0  0  0  0  0  0  0  0  0  0  0  0
    8.2367  -14.8086   21.4775 C   0  0  0  0  0  0  0  0  0  0  0  0
    7.6435  -13.8066   21.9233 O   0  0  0  0  0  0  0  0  0  0  0  0
    8.6461  -14.6774   13.2193 N   0  0  0  0  0  0  0  0  0  0  0  0
   10.9278  -19.7273   27.2956 C   0  0  0  0  0  0  0  0  0  0  0  0
   11.6439  -19.5915   26.0792 N   0  0  0  0  0  0  0  0  0  0  0  0
   12.9138  -19.2925   26.1121 N   0  0  0  0  0  0  0  0  0  0  0  0
   10.9817  -19.7799   24.8337 C   0  0  0  0  0  0  0  0  0  0  0  0
    9.6148  -19.3840   24.7356 C   0  0  0  0  0  0  0  0  0  0  0  0
    9.4360  -17.9627   24.2658 C   0  0  0  0  0  0  0  0  0  0  0  0
    8.0130  -17.5678   24.0931 C   0  0  1  0  0  0  0  0  0  0  0  0
    7.9235  -16.1710   23.5874 N   0  0  0  0  0  0  0  0  0  0  0  0
    8.3679  -15.9745   22.2422 C   0  0  0  0  0  0  0  0  0  0  0  0
    8.4311  -15.1328   24.5066 O   0  0  0  0  0  0  0  0  0  0  0  0
    9.6482  -14.9049   24.5904 C   0  0  0  0  0  0  0  0  0  0  0  0
   13.4411  -19.1716   25.2422 C   0  0  2  0  0  0  0  0  0  0  0  0
    5.8658  -12.7360   26.9589 C   0  0  0  0  0  0  0  0  0  0  0  0
    7.2002  -12.2468   26.4683 C   0  0  1  0  0  0  0  0  0  0  0  0
    7.0423  -11.5442   25.1242 N   0  0  0  0  0  0  0  0  0  0  0  0
    8.1210  -13.4103   26.2892 C   0  0  0  0  0  0  0  0  0  0  0  0
    7.5650  -14.3521   25.3309 O   0  0  0  0  0  0  0  0  0  0  0  0
    8.4078  -14.0818   27.5921 O   0  0  0  0  0  0  0  0  0  0  0  0
  2  1  1  0
  2  3  2  0
  4  2  1  0
  5  4  1  0
  6  5  1  0
  7  6  1  0
  8  7  1  0
  8  9  1  6
 10  8  1  0
 10 11  2  0
 13 12  1  0
 13 14  2  0
 15 13  1  0
 16 15  1  0
 17 16  1  0
 19 18  1  6
 18 17  1  0
 19 20  1  0
 20 10  1  0
 21 19  1  0
 22 21  2  0
 24 23  1  6
 24 26  1  0
 25 24  1  0
 26 28  1  0
 26 27  1  1
 27 21  1  0
 28 30  1  0
 29 28  2  0
M  END
$$$$
