RRV.pdb
     RDKit          3D

 30 29  0  0  1  0  0  0  0  0999 V2000
   10.2429  -13.2918   19.6371 N   0  0  0  0  0  0  0  0  0  0  0  0
    9.1906  -13.1540   18.6911 C   0  0  0  0  0  0  0  0  0  0  0  0
    8.5515  -12.0349   18.6007 N   0  0  0  0  0  0  0  0  0  0  0  0
    8.8565  -14.2430   17.8610 N   0  0  0  0  0  0  0  0  0  0  0  0
    8.5902  -15.5500   18.4182 C   0  0  0  0  0  0  0  0  0  0  0  0
    7.1931  -15.6192   18.9473 C   0  0  0  0  0  0  0  0  0  0  0  0
    7.1511  -15.5828   20.4529 C   0  0  0  0  0  0  0  0  0  0  0  0
    7.3386  -16.9713   21.0276 C   0  0  2  0  0  0  0  0  0  0  0  0
    6.3340  -17.8833   20.5482 N   0  0  0  0  0  0  0  0  0  0  0  0
    7.3871  -16.9296   22.5195 C   0  0  0  0  0  0  0  0  0  0  0  0
    6.2839  -16.9119   23.1003 O   0  0  0  0  0  0  0  0  0  0  0  0
    7.7938  -11.8996   17.8975 N   0  0  0  0  0  0  0  0  0  0  0  0
   12.0674  -18.9865   30.6897 C   0  0  0  0  0  0  0  0  0  0  0  0
   11.2890  -19.4983   29.6205 N   0  0  0  0  0  0  0  0  0  0  0  0
   11.3525  -20.7694   29.3316 N   0  0  0  0  0  0  0  0  0  0  0  0
   10.4461  -18.6316   28.8697 C   0  0  0  0  0  0  0  0  0  0  0  0
   10.6069  -18.6036   27.4527 C   0  0  0  0  0  0  0  0  0  0  0  0
    9.6313  -17.6878   26.7579 C   0  0  0  0  0  0  0  0  0  0  0  0
    9.6168  -17.8457   25.2795 C   0  0  2  0  0  0  0  0  0  0  0  0
    8.7323  -16.8212   24.6607 N   0  0  0  0  0  0  0  0  0  0  0  0
    8.5876  -16.9108   23.2406 C   0  0  0  0  0  0  0  0  0  0  0  0
    8.9546  -15.4351   25.1187 O   0  0  0  0  0  0  0  0  0  0  0  0
    9.9784  -14.8174   24.7861 C   0  0  0  0  0  0  0  0  0  0  0  0
   10.8535  -21.1422   28.5184 C   0  0  2  0  0  0  0  0  0  0  0  0
    6.0710  -13.2755   27.3675 C   0  0  0  0  0  0  0  0  0  0  0  0
    7.1246  -12.5797   26.5510 C   0  0  2  0  0  0  0  0  0  0  0  0
    6.6222  -12.3474   25.1302 N   0  0  0  0  0  0  0  0  0  0  0  0
    8.3488  -13.4345   26.4868 C   0  0  0  0  0  0  0  0  0  0  0  0
    8.0215  -14.7466   25.9521 O   0  0  0  0  0  0  0  0  0  0  0  0
    9.0007  -13.5515   27.8254 O   0  0  0  0  0  0  0  0  0  0  0  0
  2  1  1  0
  2  3  2  0
  4  2  1  0
  5  4  1  0
  6  5  1  0
  7  6  1  0
  8  7  1  0
  8  9  1  1
 10  8  1  0
 10 11  2  0
 13 12  1  0
 13 14  2  0
 15 13  1  0
 16 15  1  0
 17 16  1  0
 19 18  1  1
 18 17  1  0
 19 20  1  0
 20 10  1  0
 21 19  1  0
 22 21  2  0
 24 23  1  6
 24 26  1  0
 25 24  1  0
 26 28  1  0
 26 27  1  6
 27 21  1  0
 28 30  1  0
 29 28  2  0
M  END
$$$$
