RRV.pdb
     RDKit          3D

 30 29  0  0  1  0  0  0  0  0999 V2000
   10.4908  -11.7053   18.0858 N   0  0  0  0  0  0  0  0  0  0  0  0
    9.2770  -12.2986   18.5285 C   0  0  0  0  0  0  0  0  0  0  0  0
    8.8492  -12.0677   19.7254 N   0  0  0  0  0  0  0  0  0  0  0  0
    8.5531  -13.1337   17.6538 N   0  0  0  0  0  0  0  0  0  0  0  0
    7.2857  -13.7060   18.0487 C   0  0  0  0  0  0  0  0  0  0  0  0
    7.4659  -15.1235   18.4899 C   0  0  0  0  0  0  0  0  0  0  0  0
    7.3177  -15.2798   19.9811 C   0  0  0  0  0  0  0  0  0  0  0  0
    7.5397  -16.7200   20.3935 C   0  0  2  0  0  0  0  0  0  0  0  0
    6.8356  -17.6323   19.5317 N   0  0  0  0  0  0  0  0  0  0  0  0
    7.1861  -16.9247   21.8297 C   0  0  0  0  0  0  0  0  0  0  0  0
    5.9836  -17.1525   22.0678 O   0  0  0  0  0  0  0  0  0  0  0  0
    7.9766  -12.5120   20.0834 N   0  0  0  0  0  0  0  0  0  0  0  0
   11.5993  -17.6613   26.9557 C   0  0  0  0  0  0  0  0  0  0  0  0
   12.1876  -18.8720   26.5098 N   0  0  0  0  0  0  0  0  0  0  0  0
   13.4662  -19.0667   26.6845 N   0  0  0  0  0  0  0  0  0  0  0  0
   11.3889  -19.8656   25.8771 C   0  0  0  0  0  0  0  0  0  0  0  0
    9.9817  -19.6449   25.8009 C   0  0  0  0  0  0  0  0  0  0  0  0
    9.6138  -18.3753   25.0758 C   0  0  0  0  0  0  0  0  0  0  0  0
    8.1472  -18.1572   24.9652 C   0  0  1  0  0  0  0  0  0  0  0  0
    7.8685  -16.8730   24.2665 N   0  0  0  0  0  0  0  0  0  0  0  0
    8.1323  -16.8681   22.8608 C   0  0  0  0  0  0  0  0  0  0  0  0
    8.3803  -15.6631   24.9408 O   0  0  0  0  0  0  0  0  0  0  0  0
    9.5302  -15.2541   24.7156 C   0  0  0  0  0  0  0  0  0  0  0  0
   13.9122  -19.9230   26.3423 C   0  0  2  0  0  0  0  0  0  0  0  0
    6.0910  -13.4802   27.8207 C   0  0  0  0  0  0  0  0  0  0  0  0
    7.1146  -12.8040   26.9514 C   0  0  2  0  0  0  0  0  0  0  0  0
    6.4623  -12.2877   25.6735 N   0  0  0  0  0  0  0  0  0  0  0  0
    8.1766  -13.7868   26.5775 C   0  0  0  0  0  0  0  0  0  0  0  0
    7.5941  -14.9152   25.8691 O   0  0  0  0  0  0  0  0  0  0  0  0
    8.9387  -14.2459   27.7771 O   0  0  0  0  0  0  0  0  0  0  0  0
  2  1  1  0
  2  3  2  0
  4  2  1  0
  5  4  1  0
  6  5  1  0
  7  6  1  0
  8  7  1  0
  8  9  1  6
 10  8  1  0
 10 11  2  0
 13 12  1  0
 13 14  2  0
 15 13  1  0
 16 15  1  0
 17 16  1  0
 19 18  1  6
 18 17  1  0
 19 20  1  0
 20 10  1  0
 21 19  1  0
 22 21  2  0
 24 23  1  6
 24 26  1  0
 25 24  1  0
 26 28  1  0
 26 27  1  6
 27 21  1  0
 28 30  1  0
 29 28  2  0
M  END
$$$$
