RRV.pdb
     RDKit          3D

 30 29  0  0  1  0  0  0  0  0999 V2000
    8.0570  -13.8476   16.6216 N   0  0  0  0  0  0  0  0  0  0  0  0
    8.7831  -13.6069   17.8200 C   0  0  0  0  0  0  0  0  0  0  0  0
    8.8349  -12.4127   18.3100 N   0  0  0  0  0  0  0  0  0  0  0  0
    9.4395  -14.6770   18.4606 N   0  0  0  0  0  0  0  0  0  0  0  0
    8.8705  -15.3065   19.6310 C   0  0  0  0  0  0  0  0  0  0  0  0
    7.7090  -14.5135   20.1397 C   0  0  0  0  0  0  0  0  0  0  0  0
    6.5531  -15.3909   20.5447 C   0  0  0  0  0  0  0  0  0  0  0  0
    7.0443  -16.7530   20.9885 C   0  0  2  0  0  0  0  0  0  0  0  0
    6.2622  -17.8128   20.4092 N   0  0  0  0  0  0  0  0  0  0  0  0
    7.0904  -16.8445   22.4783 C   0  0  0  0  0  0  0  0  0  0  0  0
    6.0033  -16.6856   23.0679 O   0  0  0  0  0  0  0  0  0  0  0  0
    9.4034  -12.1996   19.1575 N   0  0  0  0  0  0  0  0  0  0  0  0
   10.5714  -18.9014   30.9118 C   0  0  0  0  0  0  0  0  0  0  0  0
   10.8297  -18.6352   29.5432 N   0  0  0  0  0  0  0  0  0  0  0  0
   11.7082  -17.7255   29.2211 N   0  0  0  0  0  0  0  0  0  0  0  0
   10.1357  -19.3550   28.5304 C   0  0  0  0  0  0  0  0  0  0  0  0
   10.4586  -19.0751   27.1695 C   0  0  0  0  0  0  0  0  0  0  0  0
    9.6034  -17.9919   26.5625 C   0  0  0  0  0  0  0  0  0  0  0  0
    9.2396  -18.2465   25.1435 C   0  0  1  0  0  0  0  0  0  0  0  0
    8.4273  -17.1194   24.6097 N   0  0  0  0  0  0  0  0  0  0  0  0
    8.2718  -17.0930   23.1882 C   0  0  0  0  0  0  0  0  0  0  0  0
    8.7482  -15.7902   25.1670 O   0  0  0  0  0  0  0  0  0  0  0  0
    9.7961  -15.2078   24.8460 C   0  0  0  0  0  0  0  0  0  0  0  0
   11.9469  -17.5594   28.2389 C   0  0  2  0  0  0  0  0  0  0  0  0
    6.0054  -12.9694   25.9727 C   0  0  0  0  0  0  0  0  0  0  0  0
    7.0104  -13.0947   27.0840 C   0  0  1  0  0  0  0  0  0  0  0  0
    7.4178  -11.7131   27.5843 N   0  0  0  0  0  0  0  0  0  0  0  0
    8.2299  -13.7928   26.5751 C   0  0  0  0  0  0  0  0  0  0  0  0
    7.8864  -15.1186   26.0865 O   0  0  0  0  0  0  0  0  0  0  0  0
    9.2900  -13.8692   27.6244 O   0  0  0  0  0  0  0  0  0  0  0  0
  2  1  1  0
  2  3  2  0
  4  2  1  0
  5  4  1  0
  6  5  1  0
  7  6  1  0
  8  7  1  0
  8  9  1  1
 10  8  1  0
 10 11  2  0
 13 12  1  0
 13 14  2  0
 15 13  1  0
 16 15  1  0
 17 16  1  0
 19 18  1  1
 18 17  1  0
 19 20  1  0
 20 10  1  0
 21 19  1  0
 22 21  2  0
 24 23  1  6
 24 26  1  0
 25 24  1  0
 26 28  1  0
 26 27  1  6
 27 21  1  0
 28 30  1  0
 29 28  2  0
M  END
$$$$
