RRV.pdb
     RDKit          3D

 30 29  0  0  1  0  0  0  0  0999 V2000
    8.3715  -13.2337   14.3709 N   0  0  0  0  0  0  0  0  0  0  0  0
    8.9099  -14.4170   14.9466 C   0  0  0  0  0  0  0  0  0  0  0  0
    9.8653  -15.0455   14.3458 N   0  0  0  0  0  0  0  0  0  0  0  0
    8.3931  -14.8913   16.1691 N   0  0  0  0  0  0  0  0  0  0  0  0
    7.3544  -14.1694   16.8689 C   0  0  0  0  0  0  0  0  0  0  0  0
    7.3482  -14.5352   18.3190 C   0  0  0  0  0  0  0  0  0  0  0  0
    8.2757  -13.6679   19.1298 C   0  0  0  0  0  0  0  0  0  0  0  0
    9.0399  -14.4985   20.1395 C   0  0  2  0  0  0  0  0  0  0  0  0
    9.4782  -15.7474   19.5749 N   0  0  0  0  0  0  0  0  0  0  0  0
    8.2371  -14.6999   21.3824 C   0  0  0  0  0  0  0  0  0  0  0  0
    7.7770  -13.6668   21.9073 O   0  0  0  0  0  0  0  0  0  0  0  0
   10.2740  -15.9178   14.7445 N   0  0  0  0  0  0  0  0  0  0  0  0
    6.0969  -22.1162   25.2926 C   0  0  0  0  0  0  0  0  0  0  0  0
    7.3263  -21.4580   25.5497 N   0  0  0  0  0  0  0  0  0  0  0  0
    8.3264  -22.1361   26.0429 N   0  0  0  0  0  0  0  0  0  0  0  0
    7.4668  -20.0694   25.2715 C   0  0  0  0  0  0  0  0  0  0  0  0
    6.2842  -19.2734   25.2227 C   0  0  0  0  0  0  0  0  0  0  0  0
    6.5447  -17.8379   24.8427 C   0  0  0  0  0  0  0  0  0  0  0  0
    7.1526  -17.6802   23.4950 C   0  0  1  0  0  0  0  0  0  0  0  0
    7.4096  -16.2422   23.2107 N   0  0  0  0  0  0  0  0  0  0  0  0
    8.0038  -15.9634   21.9399 C   0  0  0  0  0  0  0  0  0  0  0  0
    8.0438  -15.4849   24.3083 O   0  0  0  0  0  0  0  0  0  0  0  0
    9.2727  -15.5278   24.4765 C   0  0  0  0  0  0  0  0  0  0  0  0
    9.2345  -21.6865   26.1927 C   0  0  2  0  0  0  0  0  0  0  0  0
    6.6523  -11.9018   25.4978 C   0  0  0  0  0  0  0  0  0  0  0  0
    7.0667  -12.7540   26.6652 C   0  0  1  0  0  0  0  0  0  0  0  0
    7.8182  -11.9127   27.6912 N   0  0  0  0  0  0  0  0  0  0  0  0
    7.9736  -13.8423   26.1892 C   0  0  0  0  0  0  0  0  0  0  0  0
    7.2908  -14.6796   25.2159 O   0  0  0  0  0  0  0  0  0  0  0  0
    8.4867  -14.6595   27.3292 O   0  0  0  0  0  0  0  0  0  0  0  0
  2  1  1  0
  2  3  2  0
  4  2  1  0
  5  4  1  0
  6  5  1  0
  7  6  1  0
  8  7  1  0
  8  9  1  6
 10  8  1  0
 10 11  2  0
 13 12  1  0
 13 14  2  0
 15 13  1  0
 16 15  1  0
 17 16  1  0
 19 18  1  6
 18 17  1  0
 19 20  1  0
 20 10  1  0
 21 19  1  0
 22 21  2  0
 24 23  1  6
 24 26  1  0
 25 24  1  0
 26 28  1  0
 26 27  1  6
 27 21  1  0
 28 30  1  0
 29 28  2  0
M  END
$$$$
