RRV.pdb
     RDKit          3D

 30 29  0  0  1  0  0  0  0  0999 V2000
    8.1875  -26.0668   22.3764 N   0  0  0  0  0  0  0  0  0  0  0  0
    8.5298  -24.6998   22.1882 C   0  0  0  0  0  0  0  0  0  0  0  0
    9.6948  -24.2745   22.5497 N   0  0  0  0  0  0  0  0  0  0  0  0
    7.5913  -23.8228   21.6079 N   0  0  0  0  0  0  0  0  0  0  0  0
    7.0136  -24.1012   20.3123 C   0  0  0  0  0  0  0  0  0  0  0  0
    7.2852  -22.9763   19.3650 C   0  0  0  0  0  0  0  0  0  0  0  0
    6.9912  -21.6315   19.9775 C   0  0  0  0  0  0  0  0  0  0  0  0
    7.2026  -20.5244   18.9660 C   0  0  2  0  0  0  0  0  0  0  0  0
    7.9634  -20.9804   17.8329 N   0  0  0  0  0  0  0  0  0  0  0  0
    7.8215  -19.3263   19.6073 C   0  0  0  0  0  0  0  0  0  0  0  0
    9.0656  -19.3340   19.6897 O   0  0  0  0  0  0  0  0  0  0  0  0
   10.0038  -23.3005   22.3424 N   0  0  0  0  0  0  0  0  0  0  0  0
    7.6805  -11.7577   20.0219 C   0  0  0  0  0  0  0  0  0  0  0  0
    8.0899  -12.7596   19.1058 N   0  0  0  0  0  0  0  0  0  0  0  0
    8.0994  -12.4954   17.8278 N   0  0  0  0  0  0  0  0  0  0  0  0
    8.4868  -14.0423   19.5778 C   0  0  0  0  0  0  0  0  0  0  0  0
    8.5256  -14.2542   20.9878 C   0  0  0  0  0  0  0  0  0  0  0  0
    7.2354  -14.7984   21.5466 C   0  0  0  0  0  0  0  0  0  0  0  0
    6.6565  -15.9038   20.7381 C   0  0  1  0  0  0  0  0  0  0  0  0
    7.5688  -17.0797   20.7451 N   0  0  0  0  0  0  0  0  0  0  0  0
    7.0683  -18.2499   20.0927 C   0  0  0  0  0  0  0  0  0  0  0  0
    8.1968  -17.3841   22.0464 O   0  0  0  0  0  0  0  0  0  0  0  0
    7.5207  -17.8408   22.9816 C   0  0  0  0  0  0  0  0  0  0  0  0
    8.5019  -13.1628   17.1630 C   0  0  1  0  0  0  0  0  0  0  0  0
   12.2733  -18.2340   24.6662 C   0  0  0  0  0  0  0  0  0  0  0  0
   11.6782  -17.6573   23.4116 C   0  0  1  0  0  0  0  0  0  0  0  0
   12.1689  -16.2285   23.2041 N   0  0  0  0  0  0  0  0  0  0  0  0
   10.1888  -17.6336   23.5332 C   0  0  0  0  0  0  0  0  0  0  0  0
    9.5877  -17.1730   22.2918 O   0  0  0  0  0  0  0  0  0  0  0  0
    9.7510  -16.7879   24.6837 O   0  0  0  0  0  0  0  0  0  0  0  0
  2  1  1  0
  2  3  2  0
  4  2  1  0
  5  4  1  0
  6  5  1  0
  7  6  1  0
  8  7  1  0
  8  9  1  6
 10  8  1  0
 10 11  2  0
 13 12  1  0
 13 14  2  0
 15 13  1  0
 16 15  1  0
 17 16  1  0
 19 18  1  6
 18 17  1  0
 19 20  1  0
 20 10  1  0
 21 19  1  0
 22 21  2  0
 24 23  1  6
 24 26  1  0
 25 24  1  0
 26 28  1  0
 26 27  1  6
 27 21  1  0
 28 30  1  0
 29 28  2  0
M  END
$$$$
