RRV.pdb
     RDKit          3D

 30 29  0  0  1  0  0  0  0  0999 V2000
    7.9153  -12.6440   15.5632 N   0  0  0  0  0  0  0  0  0  0  0  0
    8.4531  -13.9557   15.4560 C   0  0  0  0  0  0  0  0  0  0  0  0
    8.9148  -14.3692   14.3225 N   0  0  0  0  0  0  0  0  0  0  0  0
    8.4760  -14.7913   16.5908 N   0  0  0  0  0  0  0  0  0  0  0  0
    7.2583  -15.1249   17.2949 C   0  0  0  0  0  0  0  0  0  0  0  0
    7.0906  -14.2488   18.4953 C   0  0  0  0  0  0  0  0  0  0  0  0
    8.2031  -14.4318   19.4947 C   0  0  0  0  0  0  0  0  0  0  0  0
    8.1655  -15.8242   20.0891 C   0  0  2  0  0  0  0  0  0  0  0  0
    7.3624  -16.7171   19.2963 N   0  0  0  0  0  0  0  0  0  0  0  0
    7.7158  -15.7852   21.5125 C   0  0  0  0  0  0  0  0  0  0  0  0
    6.5838  -15.3028   21.7132 O   0  0  0  0  0  0  0  0  0  0  0  0
    9.2519  -15.3481   14.2001 N   0  0  0  0  0  0  0  0  0  0  0  0
   11.3429  -20.6715   23.1047 C   0  0  0  0  0  0  0  0  0  0  0  0
   12.1571  -20.1828   24.1577 N   0  0  0  0  0  0  0  0  0  0  0  0
   13.4526  -20.3234   24.0853 N   0  0  0  0  0  0  0  0  0  0  0  0
   11.5650  -19.5445   25.2835 C   0  0  0  0  0  0  0  0  0  0  0  0
   10.1651  -19.2742   25.2402 C   0  0  0  0  0  0  0  0  0  0  0  0
    9.8315  -17.9465   24.6086 C   0  0  0  0  0  0  0  0  0  0  0  0
    8.3782  -17.6327   24.6158 C   0  0  1  0  0  0  0  0  0  0  0  0
    8.1300  -16.3249   23.9503 N   0  0  0  0  0  0  0  0  0  0  0  0
    8.5024  -16.2565   22.5711 C   0  0  0  0  0  0  0  0  0  0  0  0
    8.5642  -15.1364   24.7116 O   0  0  0  0  0  0  0  0  0  0  0  0
    9.6775  -14.6279   24.5063 C   0  0  0  0  0  0  0  0  0  0  0  0
   14.0502  -20.0356   24.8660 C   0  0  2  0  0  0  0  0  0  0  0  0
    5.9455  -12.8848   27.0982 C   0  0  0  0  0  0  0  0  0  0  0  0
    7.2452  -12.3251   26.5901 C   0  0  2  0  0  0  0  0  0  0  0  0
    7.0546  -11.7297   25.1993 N   0  0  0  0  0  0  0  0  0  0  0  0
    8.2576  -13.4210   26.5015 C   0  0  0  0  0  0  0  0  0  0  0  0
    7.7418  -14.5223   25.7044 O   0  0  0  0  0  0  0  0  0  0  0  0
    8.6693  -13.8912   27.8580 O   0  0  0  0  0  0  0  0  0  0  0  0
  2  1  1  0
  2  3  2  0
  4  2  1  0
  5  4  1  0
  6  5  1  0
  7  6  1  0
  8  7  1  0
  8  9  1  6
 10  8  1  0
 10 11  2  0
 13 12  1  0
 13 14  2  0
 15 13  1  0
 16 15  1  0
 17 16  1  0
 19 18  1  6
 18 17  1  0
 19 20  1  0
 20 10  1  0
 21 19  1  0
 22 21  2  0
 24 23  1  6
 24 26  1  0
 25 24  1  0
 26 28  1  0
 26 27  1  6
 27 21  1  0
 28 30  1  0
 29 28  2  0
M  END
$$$$
