RRV.pdb
     RDKit          3D

 30 29  0  0  1  0  0  0  0  0999 V2000
   17.0221  -21.2929   20.4998 N   0  0  0  0  0  0  0  0  0  0  0  0
   16.7229  -22.1192   21.6174 C   0  0  0  0  0  0  0  0  0  0  0  0
   17.6198  -22.9283   22.0755 N   0  0  0  0  0  0  0  0  0  0  0  0
   15.4480  -22.0454   22.2137 N   0  0  0  0  0  0  0  0  0  0  0  0
   14.4211  -21.1840   21.6720 C   0  0  0  0  0  0  0  0  0  0  0  0
   13.1644  -21.2984   22.4747 C   0  0  0  0  0  0  0  0  0  0  0  0
   12.7640  -19.9861   23.0972 C   0  0  0  0  0  0  0  0  0  0  0  0
   12.2309  -19.0351   22.0461 C   0  0  2  0  0  0  0  0  0  0  0  0
   13.2007  -18.7916   21.0113 N   0  0  0  0  0  0  0  0  0  0  0  0
   11.7498  -17.7661   22.6689 C   0  0  0  0  0  0  0  0  0  0  0  0
   12.5926  -16.8521   22.7640 O   0  0  0  0  0  0  0  0  0  0  0  0
   17.4043  -23.5935   22.8488 N   0  0  0  0  0  0  0  0  0  0  0  0
    7.3748  -13.7826   19.5588 C   0  0  0  0  0  0  0  0  0  0  0  0
    7.5035  -12.6754   20.4354 N   0  0  0  0  0  0  0  0  0  0  0  0
    7.9207  -11.5310   19.9669 N   0  0  0  0  0  0  0  0  0  0  0  0
    7.1799  -12.8127   21.8145 C   0  0  0  0  0  0  0  0  0  0  0  0
    6.9713  -14.1280   22.3255 C   0  0  0  0  0  0  0  0  0  0  0  0
    8.1260  -14.6401   23.1485 C   0  0  0  0  0  0  0  0  0  0  0  0
    8.6207  -15.9734   22.7144 C   0  0  2  0  0  0  0  0  0  0  0  0
    9.8184  -16.3619   23.5078 N   0  0  0  0  0  0  0  0  0  0  0  0
   10.4368  -17.5933   23.1246 C   0  0  0  0  0  0  0  0  0  0  0  0
    9.6746  -16.2345   24.9719 O   0  0  0  0  0  0  0  0  0  0  0  0
    8.7366  -16.7906   25.5644 C   0  0  0  0  0  0  0  0  0  0  0  0
    7.9844  -10.7120   20.5788 C   0  0  2  0  0  0  0  0  0  0  0  0
    9.7991  -13.0695   26.6978 C   0  0  0  0  0  0  0  0  0  0  0  0
    9.4638  -14.2715   27.5366 C   0  0  2  0  0  0  0  0  0  0  0  0
    9.6113  -13.9384   29.0173 N   0  0  0  0  0  0  0  0  0  0  0  0
   10.4028  -15.3862   27.2060 C   0  0  0  0  0  0  0  0  0  0  0  0
   10.5896  -15.4795   25.7669 O   0  0  0  0  0  0  0  0  0  0  0  0
    9.9235  -16.6847   27.7669 O   0  0  0  0  0  0  0  0  0  0  0  0
  2  1  1  0
  2  3  2  0
  4  2  1  0
  5  4  1  0
  6  5  1  0
  7  6  1  0
  8  7  1  0
  8  9  1  6
 10  8  1  0
 10 11  2  0
 13 12  1  0
 13 14  2  0
 15 13  1  0
 16 15  1  0
 17 16  1  0
 19 18  1  6
 18 17  1  0
 19 20  1  0
 20 10  1  0
 21 19  1  0
 22 21  2  0
 24 23  1  6
 24 26  1  0
 25 24  1  0
 26 28  1  0
 26 27  1  1
 27 21  1  0
 28 30  1  0
 29 28  2  0
M  END
$$$$
