RRV.pdb
     RDKit          3D

 30 29  0  0  1  0  0  0  0  0999 V2000
   10.1550  -14.5802   17.0459 N   0  0  0  0  0  0  0  0  0  0  0  0
    9.1427  -13.9106   16.3055 C   0  0  0  0  0  0  0  0  0  0  0  0
    8.9677  -14.1933   15.0571 N   0  0  0  0  0  0  0  0  0  0  0  0
    8.3402  -12.9439   16.9442 N   0  0  0  0  0  0  0  0  0  0  0  0
    8.0561  -13.0286   18.3590 C   0  0  0  0  0  0  0  0  0  0  0  0
    7.7550  -14.4406   18.7493 C   0  0  0  0  0  0  0  0  0  0  0  0
    7.2196  -14.5422   20.1539 C   0  0  0  0  0  0  0  0  0  0  0  0
    6.8130  -15.9662   20.4705 C   0  0  2  0  0  0  0  0  0  0  0  0
    5.5877  -16.3270   19.8077 N   0  0  0  0  0  0  0  0  0  0  0  0
    6.7335  -16.1834   21.9457 C   0  0  0  0  0  0  0  0  0  0  0  0
    5.6812  -15.8040   22.4965 O   0  0  0  0  0  0  0  0  0  0  0  0
    8.2739  -13.6748   14.4769 N   0  0  0  0  0  0  0  0  0  0  0  0
    6.3320  -21.4008   27.2666 C   0  0  0  0  0  0  0  0  0  0  0  0
    7.1573  -20.7956   28.2481 N   0  0  0  0  0  0  0  0  0  0  0  0
    6.8306  -20.8901   29.5081 N   0  0  0  0  0  0  0  0  0  0  0  0
    8.3318  -20.0914   27.8608 C   0  0  0  0  0  0  0  0  0  0  0  0
    8.5642  -19.8924   26.4676 C   0  0  0  0  0  0  0  0  0  0  0  0
    7.9900  -18.6005   25.9439 C   0  0  0  0  0  0  0  0  0  0  0  0
    8.2509  -18.3768   24.4973 C   0  0  2  0  0  0  0  0  0  0  0  0
    7.7789  -17.0249   24.0916 N   0  0  0  0  0  0  0  0  0  0  0  0
    7.7666  -16.7750   22.6835 C   0  0  0  0  0  0  0  0  0  0  0  0
    8.3495  -15.9000   24.8593 O   0  0  0  0  0  0  0  0  0  0  0  0
    9.5278  -15.5512   24.6857 C   0  0  0  0  0  0  0  0  0  0  0  0
    7.4112  -20.4513   30.2290 C   0  0  2  0  0  0  0  0  0  0  0  0
    5.9015  -13.3910   27.0879 C   0  0  0  0  0  0  0  0  0  0  0  0
    7.2366  -12.9034   26.5974 C   0  0  2  0  0  0  0  0  0  0  0  0
    7.0995  -12.3084   25.2002 N   0  0  0  0  0  0  0  0  0  0  0  0
    8.1916  -14.0511   26.5319 C   0  0  0  0  0  0  0  0  0  0  0  0
    7.5901  -15.1692   25.8229 O   0  0  0  0  0  0  0  0  0  0  0  0
    8.6400  -14.4634   27.8956 O   0  0  0  0  0  0  0  0  0  0  0  0
  2  1  1  0
  2  3  2  0
  4  2  1  0
  5  4  1  0
  6  5  1  0
  7  6  1  0
  8  7  1  0
  8  9  1  6
 10  8  1  0
 10 11  2  0
 13 12  1  0
 13 14  2  0
 15 13  1  0
 16 15  1  0
 17 16  1  0
 19 18  1  6
 18 17  1  0
 19 20  1  0
 20 10  1  0
 21 19  1  0
 22 21  2  0
 24 23  1  6
 24 26  1  0
 25 24  1  0
 26 28  1  0
 26 27  1  6
 27 21  1  0
 28 30  1  0
 29 28  2  0
M  END
$$$$
