ACS.pdb
     RDKit          3D

 18 17  0  0  1  0  0  0  0  0999 V2000
   14.9910  -11.0991  -12.4359 C   0  0  0  0  0  0  0  0  0  0  0  0
   16.2153  -10.2245  -12.1467 C   0  0  2  0  0  0  0  0  0  0  0  0
   17.0075  -10.8682  -11.1267 N   0  0  0  0  0  0  0  0  0  0  0  0
   15.7180   -8.9342  -11.6268 C   0  0  0  0  0  0  0  0  0  0  0  0
   14.8519   -8.3138  -12.2849 O   0  0  0  0  0  0  0  0  0  0  0  0
   16.1839   -8.3759  -10.4157 N   0  0  0  0  0  0  0  0  0  0  0  0
   15.6303   -7.1491   -9.8946 C   0  0  1  0  0  0  0  0  0  0  0  0
   15.8164   -7.0356   -8.3965 C   0  0  0  0  0  0  0  0  0  0  0  0
   14.7019   -8.1354   -7.5042 S   0  0  0  0  0  0  0  0  0  0  0  0
   16.2216   -5.9973  -10.6140 C   0  0  0  0  0  0  0  0  0  0  0  0
   17.4661   -5.9467  -10.7707 O   0  0  0  0  0  0  0  0  0  0  0  0
   15.7207   -2.8983  -14.1488 O   0  0  0  0  0  0  0  0  0  0  0  0
   15.2598   -3.9061  -13.3373 C   0  0  0  0  0  0  0  0  0  0  0  0
   15.9089   -3.9169  -11.9703 C   0  0  2  0  0  0  0  0  0  0  0  0
   15.3997   -4.9558  -11.1252 N   0  0  0  0  0  0  0  0  0  0  0  0
   15.8988   -2.5880  -11.3350 C   0  0  0  0  0  0  0  0  0  0  0  0
   15.0449   -2.3266  -10.4696 O   0  0  0  0  0  0  0  0  0  0  0  0
   16.8281   -1.6438  -11.6976 O   0  0  0  0  0  0  0  0  0  0  0  0
  2  1  1  1
  2  4  1  0
  2  3  1  0
  4  5  2  0
  6  7  1  0
  6  4  1  0
  7  8  1  1
  8  9  1  0
 10  7  1  0
 11 10  2  0
 13 12  1  0
 14 13  1  6
 14 15  1  0
 15 10  1  0
 16 18  1  0
 16 14  1  0
 17 16  2  0
M  END
$$$$
