ACS.pdb
     RDKit          3D

 18 17  0  0  1  0  0  0  0  0999 V2000
   18.3041  -10.8170  -17.5169 C   0  0  0  0  0  0  0  0  0  0  0  0
   19.4449  -11.5805  -16.8364 C   0  0  2  0  0  0  0  0  0  0  0  0
   18.8727  -12.5869  -15.9748 N   0  0  0  0  0  0  0  0  0  0  0  0
   20.1907  -10.6083  -16.0112 C   0  0  0  0  0  0  0  0  0  0  0  0
   19.6325  -10.1232  -15.0007 O   0  0  0  0  0  0  0  0  0  0  0  0
   21.5093  -10.2069  -16.3207 N   0  0  0  0  0  0  0  0  0  0  0  0
   22.2506   -9.3308  -15.4454 C   0  0  1  0  0  0  0  0  0  0  0  0
   23.7337   -9.6334  -15.4653 C   0  0  0  0  0  0  0  0  0  0  0  0
   24.1436  -11.0152  -14.3835 S   0  0  0  0  0  0  0  0  0  0  0  0
   21.9690   -7.9218  -15.8049 C   0  0  0  0  0  0  0  0  0  0  0  0
   21.9530   -7.5903  -17.0157 O   0  0  0  0  0  0  0  0  0  0  0  0
   19.8146   -3.8218  -15.0860 O   0  0  0  0  0  0  0  0  0  0  0  0
   20.0520   -5.1485  -14.8210 C   0  0  0  0  0  0  0  0  0  0  0  0
   21.4775   -5.5691  -15.1060 C   0  0  2  0  0  0  0  0  0  0  0  0
   21.7183   -6.9479  -14.7999 N   0  0  0  0  0  0  0  0  0  0  0  0
   22.4624   -4.6551  -14.5026 C   0  0  0  0  0  0  0  0  0  0  0  0
   23.0196   -4.9685  -13.4359 O   0  0  0  0  0  0  0  0  0  0  0  0
   22.7627   -3.4634  -15.1161 O   0  0  0  0  0  0  0  0  0  0  0  0
  2  1  1  1
  2  4  1  0
  2  3  1  0
  4  5  2  0
  6  7  1  0
  6  4  1  0
  7  8  1  6
  8  9  1  0
 10  7  1  0
 11 10  2  0
 13 12  1  0
 14 13  1  1
 14 15  1  0
 15 10  1  0
 16 18  1  0
 16 14  1  0
 17 16  2  0
M  END
$$$$
