ACS.pdb
     RDKit          3D

 18 17  0  0  1  0  0  0  0  0999 V2000
   18.0012   -9.1163  -18.6083 C   0  0  0  0  0  0  0  0  0  0  0  0
   19.1827   -9.8045  -17.9168 C   0  0  2  0  0  0  0  0  0  0  0  0
   18.7562  -11.1091  -17.4713 N   0  0  0  0  0  0  0  0  0  0  0  0
   19.5374   -8.9861  -16.7392 C   0  0  0  0  0  0  0  0  0  0  0  0
   18.6853   -8.8322  -15.8346 O   0  0  0  0  0  0  0  0  0  0  0  0
   20.8014   -8.3717  -16.5972 N   0  0  0  0  0  0  0  0  0  0  0  0
   21.1611   -7.6683  -15.3893 C   0  0  1  0  0  0  0  0  0  0  0  0
   22.5003   -8.1211  -14.8481 C   0  0  0  0  0  0  0  0  0  0  0  0
   22.3193   -9.4892  -13.6890 S   0  0  0  0  0  0  0  0  0  0  0  0
   21.1315   -6.2091  -15.6418 C   0  0  0  0  0  0  0  0  0  0  0  0
   21.6128   -5.7630  -16.7120 O   0  0  0  0  0  0  0  0  0  0  0  0
   19.3063   -1.8850  -14.3477 O   0  0  0  0  0  0  0  0  0  0  0  0
   19.4198   -3.2306  -14.0967 C   0  0  0  0  0  0  0  0  0  0  0  0
   20.5118   -3.8990  -14.9035 C   0  0  2  0  0  0  0  0  0  0  0  0
   20.5677   -5.3149  -14.6910 N   0  0  0  0  0  0  0  0  0  0  0  0
   21.8150   -3.2315  -14.7433 C   0  0  0  0  0  0  0  0  0  0  0  0
   22.5208   -3.4898  -13.7525 O   0  0  0  0  0  0  0  0  0  0  0  0
   22.2470   -2.3287  -15.6841 O   0  0  0  0  0  0  0  0  0  0  0  0
  2  1  1  1
  2  4  1  0
  2  3  1  0
  4  5  2  0
  6  7  1  0
  6  4  1  0
  7  8  1  6
  8  9  1  0
 10  7  1  0
 11 10  2  0
 13 12  1  0
 14 13  1  1
 14 15  1  0
 15 10  1  0
 16 18  1  0
 16 14  1  0
 17 16  2  0
M  END
$$$$
