ACS.pdb
     RDKit          3D

 18 17  0  0  1  0  0  0  0  0999 V2000
   22.9999  -10.5349  -19.5815 C   0  0  0  0  0  0  0  0  0  0  0  0
   22.5202  -11.4481  -18.4486 C   0  0  2  0  0  0  0  0  0  0  0  0
   21.5060  -12.3318  -18.9708 N   0  0  0  0  0  0  0  0  0  0  0  0
   21.9178  -10.5823  -17.4143 C   0  0  0  0  0  0  0  0  0  0  0  0
   20.7440  -10.1776  -17.5772 O   0  0  0  0  0  0  0  0  0  0  0  0
   22.6173  -10.1951  -16.2497 N   0  0  0  0  0  0  0  0  0  0  0  0
   22.0029   -9.3521  -15.2522 C   0  0  1  0  0  0  0  0  0  0  0  0
   22.2652   -9.8532  -13.8481 C   0  0  0  0  0  0  0  0  0  0  0  0
   21.5741   -8.7436  -12.6076 S   0  0  0  0  0  0  0  0  0  0  0  0
   22.4629   -7.9562  -15.4360 C   0  0  0  0  0  0  0  0  0  0  0  0
   23.6867   -7.7319  -15.6039 O   0  0  0  0  0  0  0  0  0  0  0  0
   21.8909   -3.6238  -17.0906 O   0  0  0  0  0  0  0  0  0  0  0  0
   21.4500   -4.9085  -16.8864 C   0  0  0  0  0  0  0  0  0  0  0  0
   21.9463   -5.5118  -15.5903 C   0  0  2  0  0  0  0  0  0  0  0  0
   21.5391   -6.8754  -15.4241 N   0  0  0  0  0  0  0  0  0  0  0  0
   21.6417   -4.6640  -14.4250 C   0  0  0  0  0  0  0  0  0  0  0  0
   20.5067   -4.6999  -13.9182 O   0  0  0  0  0  0  0  0  0  0  0  0
   22.6073   -3.8388  -13.9021 O   0  0  0  0  0  0  0  0  0  0  0  0
  2  1  1  6
  2  4  1  0
  2  3  1  0
  4  5  2  0
  6  7  1  0
  6  4  1  0
  7  8  1  1
  8  9  1  0
 10  7  1  0
 11 10  2  0
 13 12  1  0
 14 13  1  6
 14 15  1  0
 15 10  1  0
 16 18  1  0
 16 14  1  0
 17 16  2  0
M  END
$$$$
