ACS.pdb
     RDKit          3D

 18 17  0  0  1  0  0  0  0  0999 V2000
   17.2921   -9.4936  -18.9534 C   0  0  0  0  0  0  0  0  0  0  0  0
   18.6538   -9.7005  -18.2822 C   0  0  2  0  0  0  0  0  0  0  0  0
   18.7531  -11.0776  -17.8624 N   0  0  0  0  0  0  0  0  0  0  0  0
   18.6901   -8.8301  -17.0891 C   0  0  0  0  0  0  0  0  0  0  0  0
   17.9771   -7.8008  -17.0732 O   0  0  0  0  0  0  0  0  0  0  0  0
   19.4991   -9.1168  -15.9671 N   0  0  0  0  0  0  0  0  0  0  0  0
   19.4659   -8.2857  -14.7876 C   0  0  1  0  0  0  0  0  0  0  0  0
   19.7084   -9.0848  -13.5251 C   0  0  0  0  0  0  0  0  0  0  0  0
   19.8070   -8.0200  -12.0745 S   0  0  0  0  0  0  0  0  0  0  0  0
   20.4394   -7.1794  -14.9372 C   0  0  0  0  0  0  0  0  0  0  0  0
   21.5904   -7.4310  -15.3708 O   0  0  0  0  0  0  0  0  0  0  0  0
   19.5451   -2.9708  -13.9876 O   0  0  0  0  0  0  0  0  0  0  0  0
   20.2480   -3.4436  -15.0689 C   0  0  0  0  0  0  0  0  0  0  0  0
   20.9773   -4.7393  -14.7875 C   0  0  2  0  0  0  0  0  0  0  0  0
   20.0860   -5.8449  -14.5971 N   0  0  0  0  0  0  0  0  0  0  0  0
   21.9737   -4.5990  -13.7118 C   0  0  0  0  0  0  0  0  0  0  0  0
   21.8945   -5.3206  -12.7021 O   0  0  0  0  0  0  0  0  0  0  0  0
   22.9843   -3.6757  -13.8248 O   0  0  0  0  0  0  0  0  0  0  0  0
  2  1  1  1
  2  4  1  0
  2  3  1  0
  4  5  2  0
  6  7  1  0
  6  4  1  0
  7  8  1  1
  8  9  1  0
 10  7  1  0
 11 10  2  0
 13 12  1  0
 14 13  1  1
 14 15  1  0
 15 10  1  0
 16 18  1  0
 16 14  1  0
 17 16  2  0
M  END
$$$$
