ACS.pdb
     RDKit          3D

 18 17  0  0  1  0  0  0  0  0999 V2000
   18.9024  -25.6295   -9.6172 C   0  0  0  0  0  0  0  0  0  0  0  0
   17.7881  -24.6479   -9.2399 C   0  0  2  0  0  0  0  0  0  0  0  0
   18.1480  -23.3376   -9.7256 N   0  0  0  0  0  0  0  0  0  0  0  0
   17.7181  -24.6116   -7.7647 C   0  0  0  0  0  0  0  0  0  0  0  0
   18.5613  -23.9295   -7.1388 O   0  0  0  0  0  0  0  0  0  0  0  0
   16.7355  -25.3179   -7.0359 N   0  0  0  0  0  0  0  0  0  0  0  0
   16.6014  -25.1560   -5.6079 C   0  0  1  0  0  0  0  0  0  0  0  0
   15.1779  -24.8337   -5.2061 C   0  0  0  0  0  0  0  0  0  0  0  0
   14.7886  -23.0955   -5.4796 S   0  0  0  0  0  0  0  0  0  0  0  0
   17.1074  -26.3690   -4.9250 C   0  0  0  0  0  0  0  0  0  0  0  0
   16.8942  -27.4946   -5.4384 O   0  0  0  0  0  0  0  0  0  0  0  0
   19.5731  -28.1568   -1.0806 O   0  0  0  0  0  0  0  0  0  0  0  0
   19.0691  -27.0632   -1.7414 C   0  0  0  0  0  0  0  0  0  0  0  0
   18.2942  -27.4241   -2.9901 C   0  0  2  0  0  0  0  0  0  0  0  0
   17.8271  -26.2721   -3.7027 N   0  0  0  0  0  0  0  0  0  0  0  0
   17.2387  -28.4171   -2.7269 C   0  0  0  0  0  0  0  0  0  0  0  0
   17.4337  -29.6120   -3.0108 O   0  0  0  0  0  0  0  0  0  0  0  0
   16.0459  -28.0238   -2.1708 O   0  0  0  0  0  0  0  0  0  0  0  0
  2  1  1  1
  2  4  1  0
  2  3  1  0
  4  5  2  0
  6  7  1  0
  6  4  1  0
  7  8  1  6
  8  9  1  0
 10  7  1  0
 11 10  2  0
 13 12  1  0
 14 13  1  1
 14 15  1  0
 15 10  1  0
 16 18  1  0
 16 14  1  0
 17 16  2  0
M  END
$$$$
