ACS.pdb
     RDKit          3D

 18 17  0  0  1  0  0  0  0  0999 V2000
   19.8971   -9.4354  -19.8294 C   0  0  0  0  0  0  0  0  0  0  0  0
   20.9638   -9.7706  -18.7819 C   0  0  2  0  0  0  0  0  0  0  0  0
   20.7850  -11.1415  -18.3684 N   0  0  0  0  0  0  0  0  0  0  0  0
   20.7324   -8.8844  -17.6228 C   0  0  0  0  0  0  0  0  0  0  0  0
   19.5992   -8.8740  -17.0900 O   0  0  0  0  0  0  0  0  0  0  0  0
   21.7420   -8.0494  -17.0947 N   0  0  0  0  0  0  0  0  0  0  0  0
   21.4833   -7.1785  -15.9732 C   0  0  1  0  0  0  0  0  0  0  0  0
   22.3833   -7.4887  -14.7963 C   0  0  0  0  0  0  0  0  0  0  0  0
   22.2040   -6.2669  -13.4837 S   0  0  0  0  0  0  0  0  0  0  0  0
   21.6067   -5.7675  -16.4067 C   0  0  0  0  0  0  0  0  0  0  0  0
   22.6836   -5.3766  -16.9200 O   0  0  0  0  0  0  0  0  0  0  0  0
   18.4923   -2.7681  -15.7629 O   0  0  0  0  0  0  0  0  0  0  0  0
   19.2100   -2.9022  -16.9263 C   0  0  0  0  0  0  0  0  0  0  0  0
   20.5821   -3.5048  -16.7161 C   0  0  2  0  0  0  0  0  0  0  0  0
   20.5254   -4.8579  -16.2484 N   0  0  0  0  0  0  0  0  0  0  0  0
   21.4547   -2.6407  -15.9028 C   0  0  0  0  0  0  0  0  0  0  0  0
   21.9339   -3.0757  -14.8408 O   0  0  0  0  0  0  0  0  0  0  0  0
   21.7368   -1.3616  -16.3164 O   0  0  0  0  0  0  0  0  0  0  0  0
  2  1  1  6
  2  4  1  0
  2  3  1  0
  4  5  2  0
  6  7  1  0
  6  4  1  0
  7  8  1  1
  8  9  1  0
 10  7  1  0
 11 10  2  0
 13 12  1  0
 14 13  1  1
 14 15  1  0
 15 10  1  0
 16 18  1  0
 16 14  1  0
 17 16  2  0
M  END
$$$$
