ACS.pdb
     RDKit          3D

 18 17  0  0  1  0  0  0  0  0999 V2000
   21.3483  -11.2909  -16.4240 C   0  0  0  0  0  0  0  0  0  0  0  0
   19.8190  -11.1985  -16.4163 C   0  0  2  0  0  0  0  0  0  0  0  0
   19.3563  -11.1454  -17.7822 N   0  0  0  0  0  0  0  0  0  0  0  0
   19.4604   -9.9363  -15.7376 C   0  0  0  0  0  0  0  0  0  0  0  0
   19.5096   -8.8678  -16.3887 O   0  0  0  0  0  0  0  0  0  0  0  0
   19.0647   -9.8915  -14.3822 N   0  0  0  0  0  0  0  0  0  0  0  0
   18.6346   -8.6584  -13.7678 C   0  0  1  0  0  0  0  0  0  0  0  0
   17.7658   -8.9043  -12.5527 C   0  0  0  0  0  0  0  0  0  0  0  0
   17.3961   -7.3715  -11.6801 S   0  0  0  0  0  0  0  0  0  0  0  0
   19.8192   -7.8310  -13.4421 C   0  0  0  0  0  0  0  0  0  0  0  0
   20.8704   -8.3943  -13.0501 O   0  0  0  0  0  0  0  0  0  0  0  0
   23.1538   -5.2569  -14.4269 O   0  0  0  0  0  0  0  0  0  0  0  0
   22.0426   -6.0642  -14.4417 C   0  0  0  0  0  0  0  0  0  0  0  0
   20.9547   -5.6010  -13.4972 C   0  0  2  0  0  0  0  0  0  0  0  0
   19.7780   -6.4154  -13.5680 N   0  0  0  0  0  0  0  0  0  0  0  0
   20.6777   -4.1601  -13.6255 C   0  0  0  0  0  0  0  0  0  0  0  0
   19.6622   -3.7809  -14.2350 O   0  0  0  0  0  0  0  0  0  0  0  0
   21.5372   -3.2413  -13.0744 O   0  0  0  0  0  0  0  0  0  0  0  0
  2  1  1  6
  2  4  1  0
  2  3  1  0
  4  5  2  0
  6  7  1  0
  6  4  1  0
  7  8  1  1
  8  9  1  0
 10  7  1  0
 11 10  2  0
 13 12  1  0
 14 13  1  6
 14 15  1  0
 15 10  1  0
 16 18  1  0
 16 14  1  0
 17 16  2  0
M  END
$$$$
