YVC.pdb
     RDKit          3D

 26 26  0  0  1  0  0  0  0  0999 V2000
    7.0454  -10.5242   27.0250 O   0  0  0  0  0  0  0  0  0  0  0  0
    7.1270  -11.9021   26.8812 C   0  0  0  0  0  0  0  0  0  0  0  0
    8.2275  -12.4945   26.3272 C   0  0  0  0  0  0  0  0  0  0  0  0
    8.3406  -13.8445   26.1710 C   0  0  0  0  0  0  0  0  0  0  0  0
    7.3165  -14.6936   26.5786 C   0  0  0  0  0  0  0  0  0  0  0  0
    7.4308  -16.1735   26.4118 C   0  0  0  0  0  0  0  0  0  0  0  0
    6.5216  -16.5409   25.2322 C   0  0  2  0  0  0  0  0  0  0  0  0
    5.8410  -17.7484   25.5975 N   0  0  0  0  0  0  0  0  0  0  0  0
    7.3326  -16.7199   23.9944 C   0  0  0  0  0  0  0  0  0  0  0  0
    7.8831  -17.8077   23.7033 O   0  0  0  0  0  0  0  0  0  0  0  0
    6.2038  -14.1016   27.1382 C   0  0  0  0  0  0  0  0  0  0  0  0
    6.0946  -12.7310   27.2941 C   0  0  0  0  0  0  0  0  0  0  0  0
    8.6114  -14.3267   19.8491 C   0  0  0  0  0  0  0  0  0  0  0  0
    7.7516  -14.5363   21.0539 C   0  0  1  0  0  0  0  0  0  0  0  0
    6.2908  -14.6311   20.7861 C   0  0  0  0  0  0  0  0  0  0  0  0
    8.3098  -15.6517   21.9234 C   0  0  2  0  0  0  0  0  0  0  0  0
    7.4810  -15.6279   23.1290 N   0  0  0  0  0  0  0  0  0  0  0  0
    9.7284  -15.5052   22.2446 C   0  0  0  0  0  0  0  0  0  0  0  0
   10.1533  -14.5659   23.0004 O   0  0  0  0  0  0  0  0  0  0  0  0
   10.6837  -16.4067   21.7254 N   0  0  0  0  0  0  0  0  0  0  0  0
   12.0079  -16.5511   22.3397 C   0  0  1  0  0  0  0  0  0  0  0  0
   11.9221  -17.5245   23.5151 C   0  0  0  0  0  0  0  0  0  0  0  0
   13.5595  -17.7959   24.2297 S   0  0  0  0  0  0  0  0  0  0  0  0
   12.9138  -17.1433   21.3496 C   0  0  0  0  0  0  0  0  0  0  0  0
   14.2632  -16.8204   21.2470 O   0  0  0  0  0  0  0  0  0  0  0  0
   12.5014  -18.0070   20.5100 O   0  0  0  0  0  0  0  0  0  0  0  0
  2  1  1  0
  2  3  2  0
  4  3  1  0
  5  4  2  0
  6  5  1  0
  7  9  1  0
  7  6  1  0
  7  8  1  1
  9 17  1  0
  9 10  2  0
 11 12  2  0
 11  5  1  0
 12  2  1  0
 14 13  1  6
 14 15  1  0
 16 14  1  0
 16 17  1  1
 18 20  1  0
 18 16  1  0
 19 18  2  0
 21 20  1  0
 22 23  1  0
 21 22  1  1
 24 21  1  0
 24 25  1  0
 26 24  2  0
M  END
$$$$
