YVC.pdb
     RDKit          3D

 26 26  0  0  1  0  0  0  0  0999 V2000
    9.6962  -15.4768   31.0145 O   0  0  0  0  0  0  0  0  0  0  0  0
    9.5623  -16.0812   29.7724 C   0  0  0  0  0  0  0  0  0  0  0  0
    9.1160  -15.3813   28.6862 C   0  0  0  0  0  0  0  0  0  0  0  0
    8.9727  -15.9436   27.4522 C   0  0  0  0  0  0  0  0  0  0  0  0
    9.2823  -17.2841   27.2436 C   0  0  0  0  0  0  0  0  0  0  0  0
    9.1287  -17.9092   25.8959 C   0  0  0  0  0  0  0  0  0  0  0  0
    7.6348  -17.8293   25.5567 C   0  0  2  0  0  0  0  0  0  0  0  0
    7.0622  -19.0924   25.9192 N   0  0  0  0  0  0  0  0  0  0  0  0
    7.4519  -17.5388   24.1061 C   0  0  0  0  0  0  0  0  0  0  0  0
    7.2006  -18.4360   23.2677 O   0  0  0  0  0  0  0  0  0  0  0  0
    9.7330  -17.9952   28.3358 C   0  0  0  0  0  0  0  0  0  0  0  0
    9.8764  -17.4191   29.5857 C   0  0  0  0  0  0  0  0  0  0  0  0
    7.5277  -14.0318   20.6764 C   0  0  0  0  0  0  0  0  0  0  0  0
    7.0880  -14.6559   21.9616 C   0  0  1  0  0  0  0  0  0  0  0  0
    5.6295  -14.9313   22.0706 C   0  0  0  0  0  0  0  0  0  0  0  0
    7.9829  -15.8314   22.3206 C   0  0  2  0  0  0  0  0  0  0  0  0
    7.5665  -16.2119   23.6707 N   0  0  0  0  0  0  0  0  0  0  0  0
    9.4127  -15.5321   22.2645 C   0  0  0  0  0  0  0  0  0  0  0  0
    9.9374  -14.9420   21.2592 O   0  0  0  0  0  0  0  0  0  0  0  0
   10.2679  -15.8883   23.3307 N   0  0  0  0  0  0  0  0  0  0  0  0
   11.6677  -15.4513   23.3634 C   0  0  1  0  0  0  0  0  0  0  0  0
   11.9063  -14.5947   24.6066 C   0  0  0  0  0  0  0  0  0  0  0  0
   10.5635  -13.4042   24.8191 S   0  0  0  0  0  0  0  0  0  0  0  0
   12.5195  -16.6394   23.4837 C   0  0  0  0  0  0  0  0  0  0  0  0
   13.9100  -16.5963   23.4811 O   0  0  0  0  0  0  0  0  0  0  0  0
   12.0170  -17.8035   23.6000 O   0  0  0  0  0  0  0  0  0  0  0  0
  2  1  1  0
  2  3  2  0
  4  3  1  0
  5  4  2  0
  6  5  1  0
  7  9  1  0
  7  6  1  0
  7  8  1  6
  9 17  1  0
  9 10  2  0
 11 12  2  0
 11  5  1  0
 12  2  1  0
 14 13  1  6
 14 15  1  0
 16 14  1  0
 16 17  1  1
 18 20  1  0
 18 16  1  0
 19 18  2  0
 21 20  1  0
 22 23  1  0
 21 22  1  1
 24 21  1  0
 24 25  1  0
 26 24  2  0
M  END
$$$$
