YVC.pdb
     RDKit          3D

 26 26  0  0  1  0  0  0  0  0999 V2000
    1.9907  -21.4246   22.1731 O   0  0  0  0  0  0  0  0  0  0  0  0
    3.0259  -20.7043   22.7522 C   0  0  0  0  0  0  0  0  0  0  0  0
    2.9074  -19.3652   23.0006 C   0  0  0  0  0  0  0  0  0  0  0  0
    3.9041  -18.6275   23.5680 C   0  0  0  0  0  0  0  0  0  0  0  0
    5.1104  -19.2216   23.9255 C   0  0  0  0  0  0  0  0  0  0  0  0
    6.2081  -18.4222   24.5474 C   0  0  0  0  0  0  0  0  0  0  0  0
    6.4477  -17.2286   23.6140 C   0  0  2  0  0  0  0  0  0  0  0  0
    6.8795  -17.7682   22.3582 N   0  0  0  0  0  0  0  0  0  0  0  0
    7.4691  -16.3147   24.2001 C   0  0  0  0  0  0  0  0  0  0  0  0
    8.6804  -16.3691   23.8825 O   0  0  0  0  0  0  0  0  0  0  0  0
    5.2357  -20.5723   23.6773 C   0  0  0  0  0  0  0  0  0  0  0  0
    4.2207  -21.3158   23.1012 C   0  0  0  0  0  0  0  0  0  0  0  0
    7.8121  -12.5070   27.3605 C   0  0  0  0  0  0  0  0  0  0  0  0
    7.0852  -13.3375   26.3522 C   0  0  1  0  0  0  0  0  0  0  0  0
    6.3930  -12.5749   25.2778 C   0  0  0  0  0  0  0  0  0  0  0  0
    7.9672  -14.4721   25.8560 C   0  0  2  0  0  0  0  0  0  0  0  0
    7.0530  -15.3623   25.1398 N   0  0  0  0  0  0  0  0  0  0  0  0
    8.6835  -15.1790   26.9163 C   0  0  0  0  0  0  0  0  0  0  0  0
    8.0654  -15.8076   27.8420 O   0  0  0  0  0  0  0  0  0  0  0  0
   10.0954  -15.1905   26.9510 N   0  0  0  0  0  0  0  0  0  0  0  0
   10.8266  -15.9633   27.9609 C   0  0  1  0  0  0  0  0  0  0  0  0
   12.3128  -15.9917   27.6047 C   0  0  0  0  0  0  0  0  0  0  0  0
   12.5463  -16.6092   25.9226 S   0  0  0  0  0  0  0  0  0  0  0  0
   10.7011  -15.2741   29.2496 C   0  0  0  0  0  0  0  0  0  0  0  0
   10.8279  -13.8973   29.4047 O   0  0  0  0  0  0  0  0  0  0  0  0
   10.4633  -15.9172   30.3224 O   0  0  0  0  0  0  0  0  0  0  0  0
  2  1  1  0
  2  3  2  0
  4  3  1  0
  5  4  2  0
  6  5  1  0
  7  9  1  0
  7  6  1  0
  7  8  1  6
  9 17  1  0
  9 10  2  0
 11 12  2  0
 11  5  1  0
 12  2  1  0
 14 13  1  6
 14 15  1  0
 16 14  1  0
 16 17  1  1
 18 20  1  0
 18 16  1  0
 19 18  2  0
 21 20  1  0
 22 23  1  0
 21 22  1  6
 24 21  1  0
 24 25  1  0
 26 24  2  0
M  END
$$$$
