YVC.pdb
     RDKit          3D

 26 26  0  0  1  0  0  0  0  0999 V2000
    9.1782  -11.6078   20.7477 O   0  0  0  0  0  0  0  0  0  0  0  0
    8.3678  -12.7343   20.7394 C   0  0  0  0  0  0  0  0  0  0  0  0
    8.2962  -13.5498   19.6444 C   0  0  0  0  0  0  0  0  0  0  0  0
    7.5108  -14.6638   19.6024 C   0  0  0  0  0  0  0  0  0  0  0  0
    6.7322  -15.0241   20.6978 C   0  0  0  0  0  0  0  0  0  0  0  0
    5.8688  -16.2423   20.6616 C   0  0  0  0  0  0  0  0  0  0  0  0
    6.7187  -17.3843   21.2330 C   0  0  2  0  0  0  0  0  0  0  0  0
    6.0536  -18.6058   20.8864 N   0  0  0  0  0  0  0  0  0  0  0  0
    6.8566  -17.2333   22.7095 C   0  0  0  0  0  0  0  0  0  0  0  0
    5.8874  -17.3708   23.4924 O   0  0  0  0  0  0  0  0  0  0  0  0
    6.8005  -14.2051   21.8053 C   0  0  0  0  0  0  0  0  0  0  0  0
    7.5993  -13.0759   21.8421 C   0  0  0  0  0  0  0  0  0  0  0  0
   10.1251  -17.6686   26.2534 C   0  0  0  0  0  0  0  0  0  0  0  0
    9.5440  -17.8293   24.8855 C   0  0  1  0  0  0  0  0  0  0  0  0
    9.2383  -19.2290   24.4829 C   0  0  0  0  0  0  0  0  0  0  0  0
    8.4062  -16.8447   24.6674 C   0  0  2  0  0  0  0  0  0  0  0  0
    8.1188  -16.9263   23.2350 N   0  0  0  0  0  0  0  0  0  0  0  0
    8.7152  -15.4754   25.0754 C   0  0  0  0  0  0  0  0  0  0  0  0
    9.6858  -14.8227   24.5596 O   0  0  0  0  0  0  0  0  0  0  0  0
    7.9423  -14.8234   26.0615 N   0  0  0  0  0  0  0  0  0  0  0  0
    8.3541  -13.5318   26.6217 C   0  0  1  0  0  0  0  0  0  0  0  0
    7.1274  -12.7925   27.1558 C   0  0  0  0  0  0  0  0  0  0  0  0
    5.7822  -12.8503   25.9505 S   0  0  0  0  0  0  0  0  0  0  0  0
    9.2404  -13.7849   27.7628 C   0  0  0  0  0  0  0  0  0  0  0  0
   10.0112  -12.8018   28.3750 O   0  0  0  0  0  0  0  0  0  0  0  0
    9.3534  -14.9491   28.2659 O   0  0  0  0  0  0  0  0  0  0  0  0
  2  1  1  0
  2  3  2  0
  4  3  1  0
  5  4  2  0
  6  5  1  0
  7  9  1  0
  7  6  1  0
  7  8  1  1
  9 17  1  0
  9 10  2  0
 11 12  2  0
 11  5  1  0
 12  2  1  0
 14 13  1  1
 14 15  1  0
 16 14  1  0
 16 17  1  6
 18 20  1  0
 18 16  1  0
 19 18  2  0
 21 20  1  0
 22 23  1  0
 21 22  1  1
 24 21  1  0
 24 25  1  0
 26 24  2  0
M  END
$$$$
