YVC.pdb
     RDKit          3D

 26 26  0  0  1  0  0  0  0  0999 V2000
    7.6890  -21.6904   30.0103 O   0  0  0  0  0  0  0  0  0  0  0  0
    7.8885  -20.8262   28.9430 C   0  0  0  0  0  0  0  0  0  0  0  0
    6.8347  -20.2924   28.2548 C   0  0  0  0  0  0  0  0  0  0  0  0
    6.9947  -19.4406   27.2019 C   0  0  0  0  0  0  0  0  0  0  0  0
    8.2667  -19.0717   26.7754 C   0  0  0  0  0  0  0  0  0  0  0  0
    8.4524  -18.1394   25.6233 C   0  0  0  0  0  0  0  0  0  0  0  0
    7.7008  -18.7666   24.4422 C   0  0  2  0  0  0  0  0  0  0  0  0
    8.1869  -20.1086   24.3107 N   0  0  0  0  0  0  0  0  0  0  0  0
    7.9368  -17.9725   23.2029 C   0  0  0  0  0  0  0  0  0  0  0  0
    8.7228  -18.3501   22.3025 O   0  0  0  0  0  0  0  0  0  0  0  0
    9.3336  -19.6071   27.4659 C   0  0  0  0  0  0  0  0  0  0  0  0
    9.1650  -20.4710   28.5336 C   0  0  0  0  0  0  0  0  0  0  0  0
    7.0141  -13.5316   21.2403 C   0  0  0  0  0  0  0  0  0  0  0  0
    6.6009  -14.8338   21.8472 C   0  0  1  0  0  0  0  0  0  0  0  0
    5.6648  -15.6506   21.0278 C   0  0  0  0  0  0  0  0  0  0  0  0
    7.8121  -15.5907   22.3683 C   0  0  2  0  0  0  0  0  0  0  0  0
    7.2515  -16.7606   23.0451 N   0  0  0  0  0  0  0  0  0  0  0  0
    8.6641  -14.8100   23.2637 C   0  0  0  0  0  0  0  0  0  0  0  0
    8.5453  -13.5416   23.3688 O   0  0  0  0  0  0  0  0  0  0  0  0
    9.6547  -15.4393   24.0495 N   0  0  0  0  0  0  0  0  0  0  0  0
   10.3763  -14.7071   25.0959 C   0  0  1  0  0  0  0  0  0  0  0  0
    9.4391  -14.4455   26.2748 C   0  0  0  0  0  0  0  0  0  0  0  0
    8.8490  -12.7378   26.2441 S   0  0  0  0  0  0  0  0  0  0  0  0
   11.4659  -15.5577   25.5868 C   0  0  0  0  0  0  0  0  0  0  0  0
   12.4289  -15.1313   26.4958 O   0  0  0  0  0  0  0  0  0  0  0  0
   11.5904  -16.7630   25.1960 O   0  0  0  0  0  0  0  0  0  0  0  0
  2  1  1  0
  2  3  2  0
  4  3  1  0
  5  4  2  0
  6  5  1  0
  7  9  1  0
  7  6  1  0
  7  8  1  6
  9 17  1  0
  9 10  2  0
 11 12  2  0
 11  5  1  0
 12  2  1  0
 14 13  1  6
 14 15  1  0
 16 14  1  0
 16 17  1  1
 18 20  1  0
 18 16  1  0
 19 18  2  0
 21 20  1  0
 22 23  1  0
 21 22  1  1
 24 21  1  0
 24 25  1  0
 26 24  2  0
M  END
$$$$
