HNL.pdb
     RDKit          3D

 27 27  0  0  1  0  0  0  0  0999 V2000
    8.1386  -16.7276   19.7188 N   0  0  0  0  0  0  0  0  0  0  0  0
    8.6010  -15.5815   20.4709 C   0  0  1  0  0  0  0  0  0  0  0  0
    7.5976  -14.4697   20.1832 C   0  0  0  0  0  0  0  0  0  0  0  0
    7.7109  -14.1146   18.7445 C   0  0  0  0  0  0  0  0  0  0  0  0
    8.5188  -13.1188   18.2053 C   0  0  0  0  0  0  0  0  0  0  0  0
    8.3540  -13.0876   16.8716 N   0  0  0  0  0  0  0  0  0  0  0  0
    7.4625  -14.0345   16.5326 C   0  0  0  0  0  0  0  0  0  0  0  0
    7.0774  -14.6517   17.6672 N   0  0  0  0  0  0  0  0  0  0  0  0
    8.5546  -15.9220   21.9339 C   0  0  0  0  0  0  0  0  0  0  0  0
    7.4357  -15.8357   22.4688 O   0  0  0  0  0  0  0  0  0  0  0  0
   10.8438  -19.7399   22.6233 N   0  0  0  0  0  0  0  0  0  0  0  0
    9.9988  -19.1198   23.6129 C   0  0  0  0  0  0  0  0  0  0  0  0
    8.8357  -19.5784   23.8380 O   0  0  0  0  0  0  0  0  0  0  0  0
   10.5418  -17.9637   24.3240 C   0  0  0  0  0  0  0  0  0  0  0  0
    9.7698  -16.7106   23.9837 C   0  0  2  0  0  0  0  0  0  0  0  0
    9.6840  -16.3074   22.6475 N   0  0  0  0  0  0  0  0  0  0  0  0
    9.9693  -15.7238   25.0240 C   0  0  0  0  0  0  0  0  0  0  0  0
   11.0444  -15.0476   24.9838 O   0  0  0  0  0  0  0  0  0  0  0  0
    7.9479  -12.0460   25.9265 C   0  0  0  0  0  0  0  0  0  0  0  0
    7.2982  -13.2852   26.5483 C   0  0  2  0  0  0  0  0  0  0  0  0
    5.9503  -12.8249   27.0850 C   0  0  0  0  0  0  0  0  0  0  0  0
    8.1594  -13.8271   27.6552 C   0  0  0  0  0  0  0  0  0  0  0  0
    9.3953  -14.4422   27.1132 C   0  0  2  0  0  0  0  0  0  0  0  0
    9.1007  -15.4298   26.0768 N   0  0  0  0  0  0  0  0  0  0  0  0
   10.1229  -15.1677   28.1650 C   0  0  0  0  0  0  0  0  0  0  0  0
   10.8554  -14.6043   29.1974 O   0  0  0  0  0  0  0  0  0  0  0  0
   10.1123  -16.4573   28.1704 O   0  0  0  0  0  0  0  0  0  0  0  0
  2  1  1  6
  2  3  1  0
  4  3  1  0
  5  4  2  0
  6  5  1  0
  7  6  1  0
  7  8  2  0
  8  4  1  0
  9  2  1  0
 10  9  2  0
 12 14  1  0
 12 11  1  0
 13 12  2  0
 15 14  1  6
 15 16  1  0
 16  9  1  0
 17 15  1  0
 17 18  2  0
 20 19  1  1
 20 22  1  0
 20 21  1  0
 23 22  1  1
 23 24  1  0
 24 17  1  0
 25 23  1  0
 26 25  1  0
 27 25  2  0
M  END
$$$$
