HNL.pdb
     RDKit          3D

 27 27  0  0  1  0  0  0  0  0999 V2000
    9.6870  -16.3303   19.3051 N   0  0  0  0  0  0  0  0  0  0  0  0
    8.9295  -15.5163   20.2305 C   0  0  1  0  0  0  0  0  0  0  0  0
    7.5551  -15.3409   19.5931 C   0  0  0  0  0  0  0  0  0  0  0  0
    7.7255  -14.5322   18.3579 C   0  0  0  0  0  0  0  0  0  0  0  0
    8.3048  -13.2702   18.2757 C   0  0  0  0  0  0  0  0  0  0  0  0
    8.2795  -12.8529   16.9982 N   0  0  0  0  0  0  0  0  0  0  0  0
    7.7001  -13.8086   16.2516 C   0  0  0  0  0  0  0  0  0  0  0  0
    7.3675  -14.8204   17.0776 N   0  0  0  0  0  0  0  0  0  0  0  0
    8.7825  -16.2734   21.5203 C   0  0  0  0  0  0  0  0  0  0  0  0
    8.1584  -17.3459   21.4439 O   0  0  0  0  0  0  0  0  0  0  0  0
    8.7887  -17.6835   26.2667 N   0  0  0  0  0  0  0  0  0  0  0  0
    9.6473  -18.4253   25.3775 C   0  0  0  0  0  0  0  0  0  0  0  0
   10.1363  -19.5393   25.7429 O   0  0  0  0  0  0  0  0  0  0  0  0
    9.9163  -17.8382   24.0660 C   0  0  0  0  0  0  0  0  0  0  0  0
    9.3244  -16.4520   23.9647 C   0  0  2  0  0  0  0  0  0  0  0  0
    9.3061  -15.8104   22.7223 N   0  0  0  0  0  0  0  0  0  0  0  0
    9.6466  -15.7014   25.1599 C   0  0  0  0  0  0  0  0  0  0  0  0
   10.8628  -15.3751   25.3299 O   0  0  0  0  0  0  0  0  0  0  0  0
    8.1147  -11.8127   25.8106 C   0  0  0  0  0  0  0  0  0  0  0  0
    7.2408  -12.9110   26.4222 C   0  0  2  0  0  0  0  0  0  0  0  0
    5.9426  -12.2310   26.8332 C   0  0  0  0  0  0  0  0  0  0  0  0
    7.9263  -13.5221   27.6127 C   0  0  0  0  0  0  0  0  0  0  0  0
    9.1026  -14.3227   27.1946 C   0  0  2  0  0  0  0  0  0  0  0  0
    8.7583  -15.2919   26.1561 N   0  0  0  0  0  0  0  0  0  0  0  0
    9.6270  -15.1090   28.3209 C   0  0  0  0  0  0  0  0  0  0  0  0
    9.7591  -16.4873   28.3715 O   0  0  0  0  0  0  0  0  0  0  0  0
   10.0127  -14.5040   29.3926 O   0  0  0  0  0  0  0  0  0  0  0  0
  2  1  1  6
  2  3  1  0
  4  3  1  0
  5  4  2  0
  6  5  1  0
  7  6  1  0
  7  8  2  0
  8  4  1  0
  9  2  1  0
 10  9  2  0
 12 14  1  0
 12 11  1  0
 13 12  2  0
 15 14  1  6
 15 16  1  0
 16  9  1  0
 17 15  1  0
 17 18  2  0
 20 19  1  1
 20 22  1  0
 20 21  1  0
 23 22  1  1
 23 24  1  0
 24 17  1  0
 25 23  1  0
 26 25  1  0
 27 25  2  0
M  END
$$$$
