HNL.pdb
     RDKit          3D

 27 27  0  0  1  0  0  0  0  0999 V2000
    9.4480  -15.6616   19.6333 N   0  0  0  0  0  0  0  0  0  0  0  0
    8.6700  -14.7549   20.4493 C   0  0  1  0  0  0  0  0  0  0  0  0
    7.2982  -14.6807   19.7870 C   0  0  0  0  0  0  0  0  0  0  0  0
    7.4987  -14.2966   18.3654 C   0  0  0  0  0  0  0  0  0  0  0  0
    7.9805  -13.0759   17.9044 C   0  0  0  0  0  0  0  0  0  0  0  0
    8.0208  -13.0936   16.5609 N   0  0  0  0  0  0  0  0  0  0  0  0
    7.5787  -14.2909   16.1396 C   0  0  0  0  0  0  0  0  0  0  0  0
    7.2648  -15.0134   17.2332 N   0  0  0  0  0  0  0  0  0  0  0  0
    8.5248  -15.3536   21.8200 C   0  0  0  0  0  0  0  0  0  0  0  0
    7.5615  -14.9378   22.4869 O   0  0  0  0  0  0  0  0  0  0  0  0
    8.7592  -19.8802   22.8521 N   0  0  0  0  0  0  0  0  0  0  0  0
    9.9459  -19.0682   22.7494 C   0  0  0  0  0  0  0  0  0  0  0  0
   10.7133  -19.1824   21.7436 O   0  0  0  0  0  0  0  0  0  0  0  0
   10.2091  -18.1308   23.8398 C   0  0  0  0  0  0  0  0  0  0  0  0
    9.4861  -16.8239   23.6130 C   0  0  2  0  0  0  0  0  0  0  0  0
    9.4060  -16.3082   22.3156 N   0  0  0  0  0  0  0  0  0  0  0  0
    9.7341  -15.9355   24.7287 C   0  0  0  0  0  0  0  0  0  0  0  0
   10.8186  -15.2734   24.7133 O   0  0  0  0  0  0  0  0  0  0  0  0
    8.1064  -12.1113   25.8045 C   0  0  0  0  0  0  0  0  0  0  0  0
    7.2846  -13.3364   26.2143 C   0  0  2  0  0  0  0  0  0  0  0  0
    5.9257  -12.8025   26.6445 C   0  0  0  0  0  0  0  0  0  0  0  0
    7.9580  -14.0628   27.3455 C   0  0  0  0  0  0  0  0  0  0  0  0
    9.1890  -14.7459   26.8793 C   0  0  2  0  0  0  0  0  0  0  0  0
    8.9036  -15.7234   25.8308 N   0  0  0  0  0  0  0  0  0  0  0  0
    9.8142  -15.5018   27.9745 C   0  0  0  0  0  0  0  0  0  0  0  0
   10.4962  -14.9701   29.0570 O   0  0  0  0  0  0  0  0  0  0  0  0
    9.7527  -16.7901   27.9730 O   0  0  0  0  0  0  0  0  0  0  0  0
  2  1  1  6
  2  3  1  0
  4  3  1  0
  5  4  2  0
  6  5  1  0
  7  6  1  0
  7  8  2  0
  8  4  1  0
  9  2  1  0
 10  9  2  0
 12 14  1  0
 12 11  1  0
 13 12  2  0
 15 14  1  6
 15 16  1  0
 16  9  1  0
 17 15  1  0
 17 18  2  0
 20 19  1  1
 20 22  1  0
 20 21  1  0
 23 22  1  1
 23 24  1  0
 24 17  1  0
 25 23  1  0
 26 25  1  0
 27 25  2  0
M  END
$$$$
