HNL.pdb
     RDKit          3D

 27 27  0  0  1  0  0  0  0  0999 V2000
    9.6360  -15.1861   19.7533 N   0  0  0  0  0  0  0  0  0  0  0  0
    8.5545  -14.5107   20.4367 C   0  0  1  0  0  0  0  0  0  0  0  0
    7.3148  -14.7507   19.5815 C   0  0  0  0  0  0  0  0  0  0  0  0
    7.6233  -14.3069   18.1971 C   0  0  0  0  0  0  0  0  0  0  0  0
    8.5359  -13.3217   17.8344 C   0  0  0  0  0  0  0  0  0  0  0  0
    8.5412  -13.1928   16.4964 N   0  0  0  0  0  0  0  0  0  0  0  0
    7.6580  -14.0663   15.9831 C   0  0  0  0  0  0  0  0  0  0  0  0
    7.1066  -14.7365   17.0143 N   0  0  0  0  0  0  0  0  0  0  0  0
    8.3614  -15.1584   21.7790 C   0  0  0  0  0  0  0  0  0  0  0  0
    7.3295  -14.8291   22.3892 O   0  0  0  0  0  0  0  0  0  0  0  0
   11.0695  -18.9469   21.7941 N   0  0  0  0  0  0  0  0  0  0  0  0
   11.1378  -18.1140   22.9687 C   0  0  0  0  0  0  0  0  0  0  0  0
   12.2199  -17.5203   23.2692 O   0  0  0  0  0  0  0  0  0  0  0  0
    9.9231  -17.9945   23.7733 C   0  0  0  0  0  0  0  0  0  0  0  0
    9.2827  -16.6395   23.5840 C   0  0  2  0  0  0  0  0  0  0  0  0
    9.2725  -16.0652   22.3090 N   0  0  0  0  0  0  0  0  0  0  0  0
    9.5456  -15.8153   24.7447 C   0  0  0  0  0  0  0  0  0  0  0  0
   10.6565  -15.1994   24.7794 O   0  0  0  0  0  0  0  0  0  0  0  0
    8.0354  -12.0050   25.8830 C   0  0  0  0  0  0  0  0  0  0  0  0
    7.1470  -13.1935   26.2605 C   0  0  2  0  0  0  0  0  0  0  0  0
    5.8137  -12.5981   26.6901 C   0  0  0  0  0  0  0  0  0  0  0  0
    7.7708  -13.9766   27.3822 C   0  0  0  0  0  0  0  0  0  0  0  0
    8.9926  -14.6805   26.9226 C   0  0  2  0  0  0  0  0  0  0  0  0
    8.7034  -15.6200   25.8410 N   0  0  0  0  0  0  0  0  0  0  0  0
    9.5731  -15.4837   28.0088 C   0  0  0  0  0  0  0  0  0  0  0  0
   10.2442  -15.0014   29.1209 O   0  0  0  0  0  0  0  0  0  0  0  0
    9.4782  -16.7693   27.9683 O   0  0  0  0  0  0  0  0  0  0  0  0
  2  1  1  6
  2  3  1  0
  4  3  1  0
  5  4  2  0
  6  5  1  0
  7  6  1  0
  7  8  2  0
  8  4  1  0
  9  2  1  0
 10  9  2  0
 12 14  1  0
 12 11  1  0
 13 12  2  0
 15 14  1  6
 15 16  1  0
 16  9  1  0
 17 15  1  0
 17 18  2  0
 20 19  1  1
 20 22  1  0
 20 21  1  0
 23 22  1  1
 23 24  1  0
 24 17  1  0
 25 23  1  0
 26 25  1  0
 27 25  2  0
M  END
$$$$
