NSI.pdb
     RDKit          3D

 23 22  0  0  1  0  0  0  0  0999 V2000
    8.8163  -12.6953   16.6027 N   0  0  0  0  0  0  0  0  0  0  0  0
    8.3996  -14.0260   16.9026 C   0  0  0  0  0  0  0  0  0  0  0  0
    8.7039  -14.9142   16.0641 O   0  0  0  0  0  0  0  0  0  0  0  0
    7.6523  -14.2867   18.1483 C   0  0  0  0  0  0  0  0  0  0  0  0
    8.5783  -14.7589   19.2299 C   0  0  2  0  0  0  0  0  0  0  0  0
    9.1587  -16.0243   18.8317 N   0  0  0  0  0  0  0  0  0  0  0  0
    7.8477  -14.9324   20.5067 C   0  0  0  0  0  0  0  0  0  0  0  0
    7.2228  -13.9738   21.0171 O   0  0  0  0  0  0  0  0  0  0  0  0
    8.2185  -18.3993   22.7901 O   0  0  0  0  0  0  0  0  0  0  0  0
    6.9520  -17.8389   22.6957 C   0  0  0  0  0  0  0  0  0  0  0  0
    7.1020  -16.3538   22.4367 C   0  0  2  0  0  0  0  0  0  0  0  0
    7.8341  -16.1807   21.1848 N   0  0  0  0  0  0  0  0  0  0  0  0
    7.8609  -15.7675   23.5678 C   0  0  0  0  0  0  0  0  0  0  0  0
    9.1185  -15.6106   23.4322 O   0  0  0  0  0  0  0  0  0  0  0  0
    5.7256  -11.8261   26.5314 C   0  0  0  0  0  0  0  0  0  0  0  0
    6.6222  -12.6931   25.6930 C   0  0  0  0  0  0  0  0  0  0  0  0
    7.3097  -13.7005   26.5930 C   0  0  2  0  0  0  0  0  0  0  0  0
    8.2605  -12.9637   27.5168 C   0  0  0  0  0  0  0  0  0  0  0  0
    8.1062  -14.7037   25.7886 C   0  0  2  0  0  0  0  0  0  0  0  0
    7.3043  -15.3631   24.7948 N   0  0  0  0  0  0  0  0  0  0  0  0
    8.6956  -15.6786   26.7416 C   0  0  0  0  0  0  0  0  0  0  0  0
    9.9267  -15.4980   27.3154 O   0  0  0  0  0  0  0  0  0  0  0  0
    8.0406  -16.7084   27.0330 O   0  0  0  0  0  0  0  0  0  0  0  0
  1  2  1  0
  2  4  1  0
  3  2  2  0
  4  5  1  0
  5  7  1  0
  5  6  1  6
  7 12  1  0
  7  8  2  0
 10  9  1  0
 11 10  1  1
 11 13  1  0
 12 11  1  0
 13 14  2  0
 13 20  1  0
 16 17  1  0
 16 15  1  0
 17 19  1  0
 17 18  1  1
 19 21  1  0
 19 20  1  6
 21 22  1  0
 23 21  2  0
M  END
$$$$
