NSI.pdb
     RDKit          3D

 23 22  0  0  1  0  0  0  0  0999 V2000
    7.2558  -19.2227   16.5918 N   0  0  0  0  0  0  0  0  0  0  0  0
    7.6500  -17.9664   17.1402 C   0  0  0  0  0  0  0  0  0  0  0  0
    8.5779  -17.3582   16.5456 O   0  0  0  0  0  0  0  0  0  0  0  0
    6.9675  -17.4571   18.3456 C   0  0  0  0  0  0  0  0  0  0  0  0
    7.9574  -17.1978   19.4424 C   0  0  2  0  0  0  0  0  0  0  0  0
    8.7003  -18.4134   19.7015 N   0  0  0  0  0  0  0  0  0  0  0  0
    7.2672  -16.7691   20.6810 C   0  0  0  0  0  0  0  0  0  0  0  0
    6.4269  -15.8402   20.6517 O   0  0  0  0  0  0  0  0  0  0  0  0
    7.6269  -18.9843   24.1279 O   0  0  0  0  0  0  0  0  0  0  0  0
    6.4636  -18.2600   23.9061 C   0  0  0  0  0  0  0  0  0  0  0  0
    6.8195  -17.0024   23.1399 C   0  0  2  0  0  0  0  0  0  0  0  0
    7.5356  -17.3936   21.9286 N   0  0  0  0  0  0  0  0  0  0  0  0
    7.6847  -16.1682   24.0086 C   0  0  0  0  0  0  0  0  0  0  0  0
    8.9445  -16.2064   23.8186 O   0  0  0  0  0  0  0  0  0  0  0  0
    5.7258  -11.7069   26.5933 C   0  0  0  0  0  0  0  0  0  0  0  0
    6.5851  -12.5800   25.7228 C   0  0  0  0  0  0  0  0  0  0  0  0
    7.4454  -13.4589   26.6088 C   0  0  2  0  0  0  0  0  0  0  0  0
    8.4970  -12.5971   27.2809 C   0  0  0  0  0  0  0  0  0  0  0  0
    8.1478  -14.5307   25.8053 C   0  0  2  0  0  0  0  0  0  0  0  0
    7.2282  -15.3255   25.0383 N   0  0  0  0  0  0  0  0  0  0  0  0
    8.9249  -15.3682   26.7544 C   0  0  0  0  0  0  0  0  0  0  0  0
   10.2234  -15.0898   27.0919 O   0  0  0  0  0  0  0  0  0  0  0  0
    8.3708  -16.3703   27.2675 O   0  0  0  0  0  0  0  0  0  0  0  0
  1  2  1  0
  2  4  1  0
  3  2  2  0
  4  5  1  0
  5  7  1  0
  5  6  1  1
  7 12  1  0
  7  8  2  0
 10  9  1  0
 11 10  1  1
 11 13  1  0
 12 11  1  0
 13 14  2  0
 13 20  1  0
 16 17  1  0
 16 15  1  0
 17 19  1  0
 17 18  1  6
 19 21  1  0
 19 20  1  1
 21 22  1  0
 23 21  2  0
M  END
$$$$
