NSI.pdb
     RDKit          3D

 23 22  0  0  1  0  0  0  0  0999 V2000
    8.0732  -12.3416   17.8577 N   0  0  0  0  0  0  0  0  0  0  0  0
    7.7662  -13.7346   17.8484 C   0  0  0  0  0  0  0  0  0  0  0  0
    6.5597  -14.0446   17.6675 O   0  0  0  0  0  0  0  0  0  0  0  0
    8.8509  -14.7156   18.0462 C   0  0  0  0  0  0  0  0  0  0  0  0
    9.5656  -14.4581   19.3396 C   0  0  2  0  0  0  0  0  0  0  0  0
   10.6548  -15.4032   19.4705 N   0  0  0  0  0  0  0  0  0  0  0  0
    8.6422  -14.6091   20.4880 C   0  0  0  0  0  0  0  0  0  0  0  0
    7.9046  -13.6594   20.8399 O   0  0  0  0  0  0  0  0  0  0  0  0
    8.8070  -17.9862   22.8349 O   0  0  0  0  0  0  0  0  0  0  0  0
    7.5439  -17.4257   22.7029 C   0  0  0  0  0  0  0  0  0  0  0  0
    7.7027  -15.9521   22.3893 C   0  0  2  0  0  0  0  0  0  0  0  0
    8.5663  -15.8254   21.2183 N   0  0  0  0  0  0  0  0  0  0  0  0
    8.3245  -15.2993   23.5667 C   0  0  0  0  0  0  0  0  0  0  0  0
    9.5916  -15.1624   23.5800 O   0  0  0  0  0  0  0  0  0  0  0  0
    5.7028  -11.8416   27.2018 C   0  0  0  0  0  0  0  0  0  0  0  0
    6.2477  -13.1360   26.6670 C   0  0  0  0  0  0  0  0  0  0  0  0
    7.6882  -12.9235   26.2457 C   0  0  2  0  0  0  0  0  0  0  0  0
    7.7209  -11.9427   25.0893 C   0  0  0  0  0  0  0  0  0  0  0  0
    8.3258  -14.2181   25.7927 C   0  0  2  0  0  0  0  0  0  0  0  0
    7.6262  -14.8104   24.6858 N   0  0  0  0  0  0  0  0  0  0  0  0
    8.3636  -15.1344   26.9610 C   0  0  0  0  0  0  0  0  0  0  0  0
    9.1232  -14.8816   28.0730 O   0  0  0  0  0  0  0  0  0  0  0  0
    7.6728  -16.1813   26.9288 O   0  0  0  0  0  0  0  0  0  0  0  0
  1  2  1  0
  2  4  1  0
  3  2  2  0
  4  5  1  0
  5  7  1  0
  5  6  1  1
  7 12  1  0
  7  8  2  0
 10  9  1  0
 11 10  1  1
 11 13  1  0
 12 11  1  0
 13 14  2  0
 13 20  1  0
 16 17  1  0
 16 15  1  0
 17 19  1  0
 17 18  1  6
 19 21  1  0
 19 20  1  6
 21 22  1  0
 23 21  2  0
M  END
$$$$
