NSI.pdb
     RDKit          3D

 23 22  0  0  1  0  0  0  0  0999 V2000
    9.1446  -12.9340   16.6497 N   0  0  0  0  0  0  0  0  0  0  0  0
    8.1756  -13.9499   16.9016 C   0  0  0  0  0  0  0  0  0  0  0  0
    7.9361  -14.7469   15.9573 O   0  0  0  0  0  0  0  0  0  0  0  0
    7.5203  -14.0127   18.2225 C   0  0  0  0  0  0  0  0  0  0  0  0
    8.4490  -14.5979   19.2448 C   0  0  2  0  0  0  0  0  0  0  0  0
    8.9274  -15.8781   18.7664 N   0  0  0  0  0  0  0  0  0  0  0  0
    7.7534  -14.7846   20.5392 C   0  0  0  0  0  0  0  0  0  0  0  0
    7.1736  -13.8225   21.0941 O   0  0  0  0  0  0  0  0  0  0  0  0
    8.1544  -18.2985   22.5937 O   0  0  0  0  0  0  0  0  0  0  0  0
    6.8955  -17.7248   22.7077 C   0  0  0  0  0  0  0  0  0  0  0  0
    7.0208  -16.2369   22.4511 C   0  0  2  0  0  0  0  0  0  0  0  0
    7.7233  -16.0500   21.1844 N   0  0  0  0  0  0  0  0  0  0  0  0
    7.7963  -15.6449   23.5678 C   0  0  0  0  0  0  0  0  0  0  0  0
    9.0658  -15.6008   23.4624 O   0  0  0  0  0  0  0  0  0  0  0  0
    5.7136  -11.5699   26.4442 C   0  0  0  0  0  0  0  0  0  0  0  0
    6.5961  -12.4553   25.6100 C   0  0  0  0  0  0  0  0  0  0  0  0
    7.3129  -13.4307   26.5222 C   0  0  2  0  0  0  0  0  0  0  0  0
    8.3026  -12.6641   27.3785 C   0  0  0  0  0  0  0  0  0  0  0  0
    8.0724  -14.4703   25.7284 C   0  0  2  0  0  0  0  0  0  0  0  0
    7.2437  -15.1195   24.7500 N   0  0  0  0  0  0  0  0  0  0  0  0
    8.6379  -15.4485   26.6925 C   0  0  0  0  0  0  0  0  0  0  0  0
    9.9040  -15.3337   27.2035 O   0  0  0  0  0  0  0  0  0  0  0  0
    7.9284  -16.4184   27.0535 O   0  0  0  0  0  0  0  0  0  0  0  0
  1  2  1  0
  2  4  1  0
  3  2  2  0
  4  5  1  0
  5  7  1  0
  5  6  1  6
  7 12  1  0
  7  8  2  0
 10  9  1  0
 11 10  1  1
 11 13  1  0
 12 11  1  0
 13 14  2  0
 13 20  1  0
 16 17  1  0
 16 15  1  0
 17 19  1  0
 17 18  1  6
 19 21  1  0
 19 20  1  6
 21 22  1  0
 23 21  2  0
M  END
$$$$
