NSI.pdb
     RDKit          3D

 23 22  0  0  1  0  0  0  0  0999 V2000
    7.5571  -14.6758   15.3032 N   0  0  0  0  0  0  0  0  0  0  0  0
    8.1555  -13.9678   16.3872 C   0  0  0  0  0  0  0  0  0  0  0  0
    9.1686  -13.2721   16.1151 O   0  0  0  0  0  0  0  0  0  0  0  0
    7.5712  -14.0842   17.7375 C   0  0  0  0  0  0  0  0  0  0  0  0
    8.6366  -14.3885   18.7488 C   0  0  2  0  0  0  0  0  0  0  0  0
    9.4047  -15.5282   18.2931 N   0  0  0  0  0  0  0  0  0  0  0  0
    8.0355  -14.6954   20.0674 C   0  0  0  0  0  0  0  0  0  0  0  0
    7.2970  -13.8603   20.6394 O   0  0  0  0  0  0  0  0  0  0  0  0
    9.2674  -17.8393   22.6102 O   0  0  0  0  0  0  0  0  0  0  0  0
    7.9196  -17.7169   22.3014 C   0  0  0  0  0  0  0  0  0  0  0  0
    7.6295  -16.2640   21.9845 C   0  0  2  0  0  0  0  0  0  0  0  0
    8.2766  -15.9356   20.7171 N   0  0  0  0  0  0  0  0  0  0  0  0
    8.1869  -15.4374   23.0823 C   0  0  0  0  0  0  0  0  0  0  0  0
    9.3885  -15.0258   22.9757 O   0  0  0  0  0  0  0  0  0  0  0  0
    6.8542  -10.9532   26.8366 C   0  0  0  0  0  0  0  0  0  0  0  0
    7.7941  -12.0971   26.5782 C   0  0  0  0  0  0  0  0  0  0  0  0
    7.1295  -13.0707   25.6254 C   0  0  2  0  0  0  0  0  0  0  0  0
    5.9461  -13.7110   26.3254 C   0  0  0  0  0  0  0  0  0  0  0  0
    8.0839  -14.1652   25.2024 C   0  0  2  0  0  0  0  0  0  0  0  0
    7.4934  -15.0623   24.2473 N   0  0  0  0  0  0  0  0  0  0  0  0
    8.5135  -14.8864   26.4277 C   0  0  0  0  0  0  0  0  0  0  0  0
    8.1435  -16.1791   26.6912 O   0  0  0  0  0  0  0  0  0  0  0  0
    9.2439  -14.2886   27.2544 O   0  0  0  0  0  0  0  0  0  0  0  0
  1  2  1  0
  2  4  1  0
  3  2  2  0
  4  5  1  0
  5  7  1  0
  5  6  1  6
  7 12  1  0
  7  8  2  0
 10  9  1  0
 11 10  1  1
 11 13  1  0
 12 11  1  0
 13 14  2  0
 13 20  1  0
 16 17  1  0
 16 15  1  0
 17 19  1  0
 17 18  1  1
 19 21  1  0
 19 20  1  6
 21 22  1  0
 23 21  2  0
M  END
$$$$
