NSI.pdb
     RDKit          3D

 23 22  0  0  1  0  0  0  0  0999 V2000
    9.3778  -12.9291   16.9873 N   0  0  0  0  0  0  0  0  0  0  0  0
    8.2331  -13.7727   16.8753 C   0  0  0  0  0  0  0  0  0  0  0  0
    7.9269  -14.1562   15.7162 O   0  0  0  0  0  0  0  0  0  0  0  0
    7.4858  -14.1433   18.0928 C   0  0  0  0  0  0  0  0  0  0  0  0
    8.2659  -15.1292   18.9111 C   0  0  2  0  0  0  0  0  0  0  0  0
    8.3619  -16.3749   18.1792 N   0  0  0  0  0  0  0  0  0  0  0  0
    7.6014  -15.3726   20.2124 C   0  0  0  0  0  0  0  0  0  0  0  0
    6.4035  -15.0486   20.3851 O   0  0  0  0  0  0  0  0  0  0  0  0
    9.0627  -18.1577   22.7269 O   0  0  0  0  0  0  0  0  0  0  0  0
    7.7209  -17.8032   22.7568 C   0  0  0  0  0  0  0  0  0  0  0  0
    7.6144  -16.3073   22.5421 C   0  0  2  0  0  0  0  0  0  0  0  0
    8.2972  -15.9759   21.2942 N   0  0  0  0  0  0  0  0  0  0  0  0
    8.2710  -15.6338   23.6885 C   0  0  0  0  0  0  0  0  0  0  0  0
    9.5133  -15.3637   23.5973 O   0  0  0  0  0  0  0  0  0  0  0  0
    5.6693  -11.9293   26.5738 C   0  0  0  0  0  0  0  0  0  0  0  0
    6.7158  -12.6587   25.7793 C   0  0  0  0  0  0  0  0  0  0  0  0
    7.4418  -13.6233   26.6957 C   0  0  2  0  0  0  0  0  0  0  0  0
    8.2974  -12.8293   27.6641 C   0  0  0  0  0  0  0  0  0  0  0  0
    8.3427  -14.5532   25.9136 C   0  0  2  0  0  0  0  0  0  0  0  0
    7.6315  -15.2611   24.8848 N   0  0  0  0  0  0  0  0  0  0  0  0
    8.9700  -15.4906   26.8800 C   0  0  0  0  0  0  0  0  0  0  0  0
    8.5274  -16.7753   27.0556 O   0  0  0  0  0  0  0  0  0  0  0  0
    9.9437  -15.0904   27.5628 O   0  0  0  0  0  0  0  0  0  0  0  0
  1  2  1  0
  2  4  1  0
  3  2  2  0
  4  5  1  0
  5  7  1  0
  5  6  1  6
  7 12  1  0
  7  8  2  0
 10  9  1  0
 11 10  1  1
 11 13  1  0
 12 11  1  0
 13 14  2  0
 13 20  1  0
 16 17  1  0
 16 15  1  0
 17 19  1  0
 17 18  1  1
 19 21  1  0
 19 20  1  6
 21 22  1  0
 23 21  2  0
M  END
$$$$
