NSI.pdb
     RDKit          3D

 23 22  0  0  1  0  0  0  0  0999 V2000
   10.8730  -16.7550   16.6173 N   0  0  0  0  0  0  0  0  0  0  0  0
   10.8718  -16.9810   18.0257 C   0  0  0  0  0  0  0  0  0  0  0  0
   11.8470  -17.6244   18.4941 O   0  0  0  0  0  0  0  0  0  0  0  0
    9.7558  -16.4624   18.8405 C   0  0  0  0  0  0  0  0  0  0  0  0
    9.1062  -17.5722   19.6127 C   0  0  2  0  0  0  0  0  0  0  0  0
    8.3625  -18.4099   18.6953 N   0  0  0  0  0  0  0  0  0  0  0  0
    8.1866  -17.0285   20.6388 C   0  0  0  0  0  0  0  0  0  0  0  0
    7.1660  -16.3849   20.3011 O   0  0  0  0  0  0  0  0  0  0  0  0
    7.9606  -18.5456   24.4289 O   0  0  0  0  0  0  0  0  0  0  0  0
    6.9280  -17.8713   23.7917 C   0  0  0  0  0  0  0  0  0  0  0  0
    7.5156  -16.6977   23.0350 C   0  0  2  0  0  0  0  0  0  0  0  0
    8.4326  -17.2193   22.0250 N   0  0  0  0  0  0  0  0  0  0  0  0
    8.2427  -15.8459   24.0069 C   0  0  0  0  0  0  0  0  0  0  0  0
    9.4778  -16.0852   24.2115 O   0  0  0  0  0  0  0  0  0  0  0  0
    5.8780  -11.7512   27.3155 C   0  0  0  0  0  0  0  0  0  0  0  0
    6.4202  -13.0484   26.7847 C   0  0  0  0  0  0  0  0  0  0  0  0
    7.7766  -12.7922   26.1586 C   0  0  2  0  0  0  0  0  0  0  0  0
    7.5930  -11.9204   24.9312 C   0  0  0  0  0  0  0  0  0  0  0  0
    8.4392  -14.0835   25.7330 C   0  0  2  0  0  0  0  0  0  0  0  0
    7.6788  -14.7805   24.7322 N   0  0  0  0  0  0  0  0  0  0  0  0
    8.6243  -14.9165   26.9488 C   0  0  0  0  0  0  0  0  0  0  0  0
    7.9785  -16.1113   27.1302 O   0  0  0  0  0  0  0  0  0  0  0  0
    9.4027  -14.5104   27.8452 O   0  0  0  0  0  0  0  0  0  0  0  0
  1  2  1  0
  2  4  1  0
  3  2  2  0
  4  5  1  0
  5  7  1  0
  5  6  1  6
  7 12  1  0
  7  8  2  0
 10  9  1  0
 11 10  1  1
 11 13  1  0
 12 11  1  0
 13 14  2  0
 13 20  1  0
 16 17  1  0
 16 15  1  0
 17 19  1  0
 17 18  1  6
 19 21  1  0
 19 20  1  6
 21 22  1  0
 23 21  2  0
M  END
$$$$
