NSI.pdb
     RDKit          3D

 23 22  0  0  1  0  0  0  0  0999 V2000
   11.3586  -13.0371   19.5799 N   0  0  0  0  0  0  0  0  0  0  0  0
   10.8369  -14.3241   19.9054 C   0  0  0  0  0  0  0  0  0  0  0  0
   11.2343  -14.8370   20.9841 O   0  0  0  0  0  0  0  0  0  0  0  0
    9.8824  -14.9717   18.9847 C   0  0  0  0  0  0  0  0  0  0  0  0
    8.5348  -14.3193   19.0773 C   0  0  2  0  0  0  0  0  0  0  0  0
    8.6880  -12.8941   18.8723 N   0  0  0  0  0  0  0  0  0  0  0  0
    7.9245  -14.5629   20.4049 C   0  0  0  0  0  0  0  0  0  0  0  0
    7.6875  -13.6080   21.1806 O   0  0  0  0  0  0  0  0  0  0  0  0
    5.8903  -17.8112   23.3802 O   0  0  0  0  0  0  0  0  0  0  0  0
    6.5960  -17.5896   22.2056 C   0  0  0  0  0  0  0  0  0  0  0  0
    6.8550  -16.1026   22.0742 C   0  0  2  0  0  0  0  0  0  0  0  0
    7.5927  -15.8759   20.8342 N   0  0  0  0  0  0  0  0  0  0  0  0
    7.6601  -15.6745   23.2436 C   0  0  0  0  0  0  0  0  0  0  0  0
    8.9297  -15.7530   23.1619 O   0  0  0  0  0  0  0  0  0  0  0  0
    6.0606  -11.5785   26.3475 C   0  0  0  0  0  0  0  0  0  0  0  0
    6.8197  -12.5408   25.4780 C   0  0  0  0  0  0  0  0  0  0  0  0
    7.3791  -13.6492   26.3474 C   0  0  2  0  0  0  0  0  0  0  0  0
    8.4480  -13.0691   27.2536 C   0  0  0  0  0  0  0  0  0  0  0  0
    8.0042  -14.7430   25.5103 C   0  0  2  0  0  0  0  0  0  0  0  0
    7.1359  -15.1813   24.4523 N   0  0  0  0  0  0  0  0  0  0  0  0
    8.3541  -15.8628   26.4213 C   0  0  0  0  0  0  0  0  0  0  0  0
    9.5537  -15.9311   27.0799 O   0  0  0  0  0  0  0  0  0  0  0  0
    7.5185  -16.7826   26.5947 O   0  0  0  0  0  0  0  0  0  0  0  0
  1  2  1  0
  2  4  1  0
  3  2  2  0
  4  5  1  0
  5  7  1  0
  5  6  1  1
  7 12  1  0
  7  8  2  0
 10  9  1  0
 11 10  1  1
 11 13  1  0
 12 11  1  0
 13 14  2  0
 13 20  1  0
 16 17  1  0
 16 15  1  0
 17 19  1  0
 17 18  1  1
 19 21  1  0
 19 20  1  6
 21 22  1  0
 23 21  2  0
M  END
$$$$
