NSI.pdb
     RDKit          3D

 23 22  0  0  1  0  0  0  0  0999 V2000
    7.5235  -13.3335   15.7499 N   0  0  0  0  0  0  0  0  0  0  0  0
    8.3670  -13.8540   16.7757 C   0  0  0  0  0  0  0  0  0  0  0  0
    9.3322  -14.5704   16.4021 O   0  0  0  0  0  0  0  0  0  0  0  0
    8.0723  -13.5342   18.1860 C   0  0  0  0  0  0  0  0  0  0  0  0
    8.6962  -14.5484   19.0983 C   0  0  2  0  0  0  0  0  0  0  0  0
    8.7866  -15.8143   18.4012 N   0  0  0  0  0  0  0  0  0  0  0  0
    7.8845  -14.7192   20.3256 C   0  0  0  0  0  0  0  0  0  0  0  0
    7.4565  -13.7202   20.9490 O   0  0  0  0  0  0  0  0  0  0  0  0
    7.7644  -18.3283   22.3306 O   0  0  0  0  0  0  0  0  0  0  0  0
    6.5530  -17.6534   22.2690 C   0  0  0  0  0  0  0  0  0  0  0  0
    6.8348  -16.1770   22.0789 C   0  0  2  0  0  0  0  0  0  0  0  0
    7.5697  -16.0103   20.8278 N   0  0  0  0  0  0  0  0  0  0  0  0
    7.6525  -15.7169   23.2272 C   0  0  0  0  0  0  0  0  0  0  0  0
    8.9124  -15.6110   23.0654 O   0  0  0  0  0  0  0  0  0  0  0  0
    7.4091  -11.3494   27.2754 C   0  0  0  0  0  0  0  0  0  0  0  0
    8.1250  -12.6117   26.8847 C   0  0  0  0  0  0  0  0  0  0  0  0
    7.2546  -13.3881   25.9165 C   0  0  2  0  0  0  0  0  0  0  0  0
    5.9735  -13.7888   26.6224 C   0  0  0  0  0  0  0  0  0  0  0  0
    7.9490  -14.6434   25.4372 C   0  0  2  0  0  0  0  0  0  0  0  0
    7.1502  -15.3815   24.4978 N   0  0  0  0  0  0  0  0  0  0  0  0
    8.2731  -15.4631   26.6327 C   0  0  0  0  0  0  0  0  0  0  0  0
    9.3409  -15.1907   27.4470 O   0  0  0  0  0  0  0  0  0  0  0  0
    7.5405  -16.4438   26.9080 O   0  0  0  0  0  0  0  0  0  0  0  0
  1  2  1  0
  2  4  1  0
  3  2  2  0
  4  5  1  0
  5  7  1  0
  5  6  1  6
  7 12  1  0
  7  8  2  0
 10  9  1  0
 11 10  1  1
 11 13  1  0
 12 11  1  0
 13 14  2  0
 13 20  1  0
 16 17  1  0
 16 15  1  0
 17 19  1  0
 17 18  1  1
 19 21  1  0
 19 20  1  6
 21 22  1  0
 23 21  2  0
M  END
$$$$
