KLP.pdb
     RDKit          3D

 25 25  0  0  1  0  0  0  0  0999 V2000
   25.1318  -18.8230  -11.2144 N   0  0  0  0  0  0  0  0  0  0  0  0
   25.0976  -20.2325  -11.2263 C   0  0  1  0  0  0  0  0  0  0  0  0
   25.6548  -20.9095  -12.4209 C   0  0  0  0  0  0  0  0  0  0  0  0
   24.9284  -20.5110  -13.6613 C   0  0  0  0  0  0  0  0  0  0  0  0
   23.4796  -20.8113  -13.7518 C   0  0  0  0  0  0  0  0  0  0  0  0
   22.8166  -20.5117  -15.0549 C   0  0  0  0  0  0  0  0  0  0  0  0
   22.7883  -19.1581  -15.4685 N   0  0  0  0  0  0  0  0  0  0  0  0
   25.6087  -20.7836   -9.9438 C   0  0  0  0  0  0  0  0  0  0  0  0
   25.6855  -22.0351   -9.7384 O   0  0  0  0  0  0  0  0  0  0  0  0
   28.9152  -20.5071   -6.3113 C   0  0  0  0  0  0  0  0  0  0  0  0
   28.4066  -19.2001   -6.8239 C   0  0  2  0  0  0  0  0  0  0  0  0
   28.9200  -18.0536   -5.9742 C   0  0  0  0  0  0  0  0  0  0  0  0
   26.9101  -19.1469   -6.7985 C   0  0  0  0  0  0  0  0  0  0  0  0
   26.2755  -20.2742   -7.5879 C   0  0  2  0  0  0  0  0  0  0  0  0
   26.0167  -19.8783   -8.9322 N   0  0  0  0  0  0  0  0  0  0  0  0
   25.1305  -20.7625   -6.8464 C   0  0  0  0  0  0  0  0  0  0  0  0
   24.0662  -20.0279   -6.9351 O   0  0  0  0  0  0  0  0  0  0  0  0
   25.0474  -21.9167   -6.0545 N   0  0  0  0  0  0  0  0  0  0  0  0
   26.0538  -22.9447   -5.9469 C   0  0  0  0  0  0  0  0  0  0  0  0
   25.3754  -24.1228   -5.2423 C   0  0  0  0  0  0  0  0  0  0  0  0
   24.4677  -23.3716   -4.3105 C   0  0  0  0  0  0  0  0  0  0  0  0
   23.9212  -22.2777   -5.1855 C   0  0  1  0  0  0  0  0  0  0  0  0
   23.4704  -21.1304   -4.3445 C   0  0  0  0  0  0  0  0  0  0  0  0
   24.4383  -20.3360   -3.7923 O   0  0  0  0  0  0  0  0  0  0  0  0
   22.2747  -20.8834   -4.1376 O   0  0  0  0  0  0  0  0  0  0  0  0
  2  1  1  6
  2  3  1  0
  4  5  1  0
  4  3  1  0
  6  5  1  0
  7  6  1  0
  8  2  1  0
  9  8  2  0
 11 10  1  1
 11 13  1  0
 12 11  1  0
 14 13  1  1
 14 15  1  0
 15  8  1  0
 16 14  1  0
 16 17  2  0
 18 16  1  0
 19 18  1  0
 20 19  1  0
 21 20  1  0
 21 22  1  0
 22 23  1  1
 22 18  1  0
 23 24  1  0
 25 23  2  0
M  END
$$$$
