KLP.pdb
     RDKit          3D

 25 25  0  0  1  0  0  0  0  0999 V2000
   21.2735  -22.1494  -14.0065 N   0  0  0  0  0  0  0  0  0  0  0  0
   21.1938  -20.7417  -14.0031 C   0  0  1  0  0  0  0  0  0  0  0  0
   20.0918  -20.1316  -13.2225 C   0  0  0  0  0  0  0  0  0  0  0  0
   18.8716  -20.9893  -13.2403 C   0  0  0  0  0  0  0  0  0  0  0  0
   18.1856  -21.2048  -14.5366 C   0  0  0  0  0  0  0  0  0  0  0  0
   16.9053  -21.9704  -14.4943 C   0  0  0  0  0  0  0  0  0  0  0  0
   15.7359  -21.2537  -14.1435 N   0  0  0  0  0  0  0  0  0  0  0  0
   22.5224  -20.1385  -13.7191 C   0  0  0  0  0  0  0  0  0  0  0  0
   22.6650  -18.8874  -13.5493 O   0  0  0  0  0  0  0  0  0  0  0  0
   27.0255  -21.3312  -10.3741 C   0  0  0  0  0  0  0  0  0  0  0  0
   26.0327  -20.6080  -11.2232 C   0  0  2  0  0  0  0  0  0  0  0  0
   24.7120  -20.4557  -10.4936 C   0  0  0  0  0  0  0  0  0  0  0  0
   25.7627  -21.3454  -12.4984 C   0  0  0  0  0  0  0  0  0  0  0  0
   24.9852  -20.5124  -13.4975 C   0  0  2  0  0  0  0  0  0  0  0  0
   23.6510  -20.9925  -13.6393 N   0  0  0  0  0  0  0  0  0  0  0  0
   25.7558  -20.4310  -14.7217 C   0  0  0  0  0  0  0  0  0  0  0  0
   25.7041  -21.4859  -15.4731 O   0  0  0  0  0  0  0  0  0  0  0  0
   26.5407  -19.3607  -15.1742 N   0  0  0  0  0  0  0  0  0  0  0  0
   26.6410  -18.0620  -14.5542 C   0  0  0  0  0  0  0  0  0  0  0  0
   27.3389  -17.1620  -15.5777 C   0  0  0  0  0  0  0  0  0  0  0  0
   28.2760  -18.1604  -16.1951 C   0  0  0  0  0  0  0  0  0  0  0  0
   27.4084  -19.3776  -16.3578 C   0  0  1  0  0  0  0  0  0  0  0  0
   28.2569  -20.6038  -16.4146 C   0  0  0  0  0  0  0  0  0  0  0  0
   28.8471  -20.9062  -17.6117 O   0  0  0  0  0  0  0  0  0  0  0  0
   28.4372  -21.3371  -15.4331 O   0  0  0  0  0  0  0  0  0  0  0  0
  2  1  1  1
  2  3  1  0
  4  5  1  0
  4  3  1  0
  6  5  1  0
  7  6  1  0
  8  2  1  0
  9  8  2  0
 11 10  1  1
 11 13  1  0
 12 11  1  0
 14 13  1  1
 14 15  1  0
 15  8  1  0
 16 14  1  0
 16 17  2  0
 18 16  1  0
 19 18  1  0
 20 19  1  0
 21 20  1  0
 21 22  1  0
 22 23  1  1
 22 18  1  0
 23 24  1  0
 25 23  2  0
M  END
$$$$
