KLP.pdb
     RDKit          3D

 25 25  0  0  1  0  0  0  0  0999 V2000
   25.9615  -21.4098  -11.4081 N   0  0  0  0  0  0  0  0  0  0  0  0
   25.8870  -20.3226  -10.5133 C   0  0  1  0  0  0  0  0  0  0  0  0
   24.6411  -19.5206  -10.5304 C   0  0  0  0  0  0  0  0  0  0  0  0
   24.0774  -19.4188  -11.9076 C   0  0  0  0  0  0  0  0  0  0  0  0
   23.3450  -20.5865  -12.4529 C   0  0  0  0  0  0  0  0  0  0  0  0
   22.7675  -20.4322  -13.8204 C   0  0  0  0  0  0  0  0  0  0  0  0
   22.0979  -21.5527  -14.3685 N   0  0  0  0  0  0  0  0  0  0  0  0
   26.3055  -20.7337   -9.1474 C   0  0  0  0  0  0  0  0  0  0  0  0
   25.9208  -21.8300   -8.6330 O   0  0  0  0  0  0  0  0  0  0  0  0
   29.8382  -18.3042   -4.6550 C   0  0  0  0  0  0  0  0  0  0  0  0
   29.1703  -19.4949   -5.2600 C   0  0  2  0  0  0  0  0  0  0  0  0
   30.1355  -20.6606   -5.3566 C   0  0  0  0  0  0  0  0  0  0  0  0
   28.6755  -19.2014   -6.6428 C   0  0  0  0  0  0  0  0  0  0  0  0
   27.5529  -20.1269   -7.0665 C   0  0  2  0  0  0  0  0  0  0  0  0
   27.1549  -19.8706   -8.4107 N   0  0  0  0  0  0  0  0  0  0  0  0
   26.4992  -20.0501   -6.0751 C   0  0  0  0  0  0  0  0  0  0  0  0
   26.0275  -18.8607   -5.8675 O   0  0  0  0  0  0  0  0  0  0  0  0
   25.9459  -21.0979   -5.3252 N   0  0  0  0  0  0  0  0  0  0  0  0
   26.1927  -22.5052   -5.5251 C   0  0  0  0  0  0  0  0  0  0  0  0
   25.1320  -23.2379   -4.6988 C   0  0  0  0  0  0  0  0  0  0  0  0
   25.0235  -22.2958   -3.5339 C   0  0  0  0  0  0  0  0  0  0  0  0
   25.0223  -20.9452   -4.1949 C   0  0  1  0  0  0  0  0  0  0  0  0
   25.4836  -19.9053   -3.2293 C   0  0  0  0  0  0  0  0  0  0  0  0
   24.5412  -19.3432   -2.4115 O   0  0  0  0  0  0  0  0  0  0  0  0
   26.6660  -19.5459   -3.1494 O   0  0  0  0  0  0  0  0  0  0  0  0
  2  1  1  6
  2  3  1  0
  4  5  1  0
  4  3  1  0
  6  5  1  0
  7  6  1  0
  8  2  1  0
  9  8  2  0
 11 10  1  6
 11 13  1  0
 12 11  1  0
 14 13  1  1
 14 15  1  0
 15  8  1  0
 16 14  1  0
 16 17  2  0
 18 16  1  0
 19 18  1  0
 20 19  1  0
 21 20  1  0
 21 22  1  0
 22 23  1  1
 22 18  1  0
 23 24  1  0
 25 23  2  0
M  END
$$$$
