KLP.pdb
     RDKit          3D

 25 25  0  0  1  0  0  0  0  0999 V2000
   27.5735  -18.3678  -14.7277 N   0  0  0  0  0  0  0  0  0  0  0  0
   27.5650  -19.6412  -15.3332 C   0  0  1  0  0  0  0  0  0  0  0  0
   28.8639  -20.1657  -15.8164 C   0  0  0  0  0  0  0  0  0  0  0  0
   29.1959  -19.6356  -17.1706 C   0  0  0  0  0  0  0  0  0  0  0  0
   29.3627  -18.1711  -17.3281 C   0  0  0  0  0  0  0  0  0  0  0  0
   29.6828  -17.6803  -18.7006 C   0  0  0  0  0  0  0  0  0  0  0  0
   29.0656  -18.3485  -19.7854 N   0  0  0  0  0  0  0  0  0  0  0  0
   26.8071  -20.6148  -14.5041 C   0  0  0  0  0  0  0  0  0  0  0  0
   26.7397  -21.8452  -14.8137 O   0  0  0  0  0  0  0  0  0  0  0  0
   26.7808  -21.9477  -10.2953 C   0  0  0  0  0  0  0  0  0  0  0  0
   26.3366  -20.5286  -10.4311 C   0  0  2  0  0  0  0  0  0  0  0  0
   26.1092  -19.9042   -9.0678 C   0  0  0  0  0  0  0  0  0  0  0  0
   25.0522  -20.4275  -11.1947 C   0  0  0  0  0  0  0  0  0  0  0  0
   25.1862  -20.9147  -12.6234 C   0  0  2  0  0  0  0  0  0  0  0  0
   26.1467  -20.1447  -13.3413 N   0  0  0  0  0  0  0  0  0  0  0  0
   23.8634  -20.9735  -13.2116 C   0  0  0  0  0  0  0  0  0  0  0  0
   23.2454  -19.8365  -13.2855 O   0  0  0  0  0  0  0  0  0  0  0  0
   23.1873  -22.1022  -13.6965 N   0  0  0  0  0  0  0  0  0  0  0  0
   23.7353  -23.4312  -13.8171 C   0  0  0  0  0  0  0  0  0  0  0  0
   22.7456  -24.2153  -14.6835 C   0  0  0  0  0  0  0  0  0  0  0  0
   21.4580  -23.5952  -14.2209 C   0  0  0  0  0  0  0  0  0  0  0  0
   21.7949  -22.1311  -14.1595 C   0  0  1  0  0  0  0  0  0  0  0  0
   20.8739  -21.4360  -13.2133 C   0  0  0  0  0  0  0  0  0  0  0  0
   19.6195  -21.1294  -13.6664 O   0  0  0  0  0  0  0  0  0  0  0  0
   21.2049  -21.1363  -12.0582 O   0  0  0  0  0  0  0  0  0  0  0  0
  2  1  1  1
  2  3  1  0
  4  5  1  0
  4  3  1  0
  6  5  1  0
  7  6  1  0
  8  2  1  0
  9  8  2  0
 11 10  1  1
 11 13  1  0
 12 11  1  0
 14 13  1  1
 14 15  1  0
 15  8  1  0
 16 14  1  0
 16 17  2  0
 18 16  1  0
 19 18  1  0
 20 19  1  0
 21 20  1  0
 21 22  1  0
 22 23  1  1
 22 18  1  0
 23 24  1  0
 25 23  2  0
M  END
$$$$
