KLP.pdb
     RDKit          3D

 25 25  0  0  1  0  0  0  0  0999 V2000
   23.7326  -17.4011  -16.2744 N   0  0  0  0  0  0  0  0  0  0  0  0
   23.5540  -17.6771  -14.9032 C   0  0  1  0  0  0  0  0  0  0  0  0
   22.1920  -18.0642  -14.4663 C   0  0  0  0  0  0  0  0  0  0  0  0
   21.2166  -17.9898  -15.5923 C   0  0  0  0  0  0  0  0  0  0  0  0
   21.3774  -18.9359  -16.7221 C   0  0  0  0  0  0  0  0  0  0  0  0
   20.3348  -18.8843  -17.7887 C   0  0  0  0  0  0  0  0  0  0  0  0
   20.5270  -19.7136  -18.9198 N   0  0  0  0  0  0  0  0  0  0  0  0
   24.6154  -18.5915  -14.4063 C   0  0  0  0  0  0  0  0  0  0  0  0
   25.3844  -19.2163  -15.2017 O   0  0  0  0  0  0  0  0  0  0  0  0
   26.6386  -20.3245   -8.7922 C   0  0  0  0  0  0  0  0  0  0  0  0
   26.8431  -20.2826  -10.2708 C   0  0  2  0  0  0  0  0  0  0  0  0
   28.2397  -19.7960  -10.6063 C   0  0  0  0  0  0  0  0  0  0  0  0
   25.8702  -19.3555  -10.9320 C   0  0  0  0  0  0  0  0  0  0  0  0
   25.7512  -19.6048  -12.4220 C   0  0  2  0  0  0  0  0  0  0  0  0
   24.7617  -18.7624  -13.0068 N   0  0  0  0  0  0  0  0  0  0  0  0
   25.5692  -21.0264  -12.6339 C   0  0  0  0  0  0  0  0  0  0  0  0
   24.4856  -21.5224  -12.1239 O   0  0  0  0  0  0  0  0  0  0  0  0
   26.4204  -21.9107  -13.3121 N   0  0  0  0  0  0  0  0  0  0  0  0
   27.6585  -21.5617  -13.9651 C   0  0  0  0  0  0  0  0  0  0  0  0
   28.0368  -22.7738  -14.8209 C   0  0  0  0  0  0  0  0  0  0  0  0
   27.5354  -23.8768  -13.9329 C   0  0  0  0  0  0  0  0  0  0  0  0
   26.2042  -23.3538  -13.4690 C   0  0  1  0  0  0  0  0  0  0  0  0
   25.8204  -24.0072  -12.1835 C   0  0  0  0  0  0  0  0  0  0  0  0
   25.1910  -25.2202  -12.2571 O   0  0  0  0  0  0  0  0  0  0  0  0
   26.0499  -23.4951  -11.0796 O   0  0  0  0  0  0  0  0  0  0  0  0
  2  1  1  6
  2  3  1  0
  4  5  1  0
  4  3  1  0
  6  5  1  0
  7  6  1  0
  8  2  1  0
  9  8  2  0
 11 10  1  1
 11 13  1  0
 12 11  1  0
 14 13  1  1
 14 15  1  0
 15  8  1  0
 16 14  1  0
 16 17  2  0
 18 16  1  0
 19 18  1  0
 20 19  1  0
 21 20  1  0
 21 22  1  0
 22 23  1  1
 22 18  1  0
 23 24  1  0
 25 23  2  0
M  END
$$$$
