KLP.pdb
     RDKit          3D

 25 25  0  0  1  0  0  0  0  0999 V2000
   27.7432  -20.1865  -15.5872 N   0  0  0  0  0  0  0  0  0  0  0  0
   26.9751  -21.2237  -16.1550 C   0  0  1  0  0  0  0  0  0  0  0  0
   27.7132  -22.3887  -16.6971 C   0  0  0  0  0  0  0  0  0  0  0  0
   28.7506  -21.9662  -17.6821 C   0  0  0  0  0  0  0  0  0  0  0  0
   30.1762  -22.1550  -17.3223 C   0  0  0  0  0  0  0  0  0  0  0  0
   31.0154  -22.9117  -18.2972 C   0  0  0  0  0  0  0  0  0  0  0  0
   31.1944  -22.3361  -19.5782 N   0  0  0  0  0  0  0  0  0  0  0  0
   25.8531  -21.6022  -15.2564 C   0  0  0  0  0  0  0  0  0  0  0  0
   25.1466  -22.6364  -15.4699 O   0  0  0  0  0  0  0  0  0  0  0  0
   25.8531  -22.2458  -10.9337 C   0  0  0  0  0  0  0  0  0  0  0  0
   25.9200  -20.7808  -11.2149 C   0  0  2  0  0  0  0  0  0  0  0  0
   26.0375  -19.9913   -9.9254 C   0  0  0  0  0  0  0  0  0  0  0  0
   24.6923  -20.3033  -11.9274 C   0  0  0  0  0  0  0  0  0  0  0  0
   24.4799  -21.0061  -13.2531 C   0  0  2  0  0  0  0  0  0  0  0  0
   25.5745  -20.7788  -14.1367 N   0  0  0  0  0  0  0  0  0  0  0  0
   23.1752  -20.6352  -13.7625 C   0  0  0  0  0  0  0  0  0  0  0  0
   22.9825  -19.3608  -13.8997 O   0  0  0  0  0  0  0  0  0  0  0  0
   22.1156  -21.4842  -14.1126 N   0  0  0  0  0  0  0  0  0  0  0  0
   22.1691  -22.9245  -14.1755 C   0  0  0  0  0  0  0  0  0  0  0  0
   20.8963  -23.3593  -14.9073 C   0  0  0  0  0  0  0  0  0  0  0  0
   19.9429  -22.3161  -14.3983 C   0  0  0  0  0  0  0  0  0  0  0  0
   20.7582  -21.0547  -14.4690 C   0  0  1  0  0  0  0  0  0  0  0  0
   20.2189  -20.0455  -13.5112 C   0  0  0  0  0  0  0  0  0  0  0  0
   19.1275  -19.3213  -13.9079 O   0  0  0  0  0  0  0  0  0  0  0  0
   20.7190  -19.8500  -12.3953 O   0  0  0  0  0  0  0  0  0  0  0  0
  2  1  1  1
  2  3  1  0
  4  5  1  0
  4  3  1  0
  6  5  1  0
  7  6  1  0
  8  2  1  0
  9  8  2  0
 11 10  1  1
 11 13  1  0
 12 11  1  0
 14 13  1  1
 14 15  1  0
 15  8  1  0
 16 14  1  0
 16 17  2  0
 18 16  1  0
 19 18  1  0
 20 19  1  0
 21 20  1  0
 21 22  1  0
 22 23  1  1
 22 18  1  0
 23 24  1  0
 25 23  2  0
M  END
$$$$
