KLP.pdb
     RDKit          3D

 25 25  0  0  1  0  0  0  0  0999 V2000
   25.7440  -22.7199  -12.7745 N   0  0  0  0  0  0  0  0  0  0  0  0
   25.5197  -21.3308  -12.6840 C   0  0  1  0  0  0  0  0  0  0  0  0
   25.9495  -20.6594  -11.4349 C   0  0  0  0  0  0  0  0  0  0  0  0
   24.8085  -20.4836  -10.4903 C   0  0  0  0  0  0  0  0  0  0  0  0
   24.5541  -21.5501   -9.4928 C   0  0  0  0  0  0  0  0  0  0  0  0
   23.4156  -21.3273   -8.5539 C   0  0  0  0  0  0  0  0  0  0  0  0
   23.5163  -20.2288   -7.6665 N   0  0  0  0  0  0  0  0  0  0  0  0
   25.9845  -20.6399  -13.9154 C   0  0  0  0  0  0  0  0  0  0  0  0
   27.2007  -20.6743  -14.2815 O   0  0  0  0  0  0  0  0  0  0  0  0
   26.1779  -21.4628  -17.7934 C   0  0  0  0  0  0  0  0  0  0  0  0
   24.7601  -21.2644  -17.3690 C   0  0  2  0  0  0  0  0  0  0  0  0
   23.8061  -21.6838  -18.4707 C   0  0  0  0  0  0  0  0  0  0  0  0
   24.4798  -19.8281  -17.0505 C   0  0  0  0  0  0  0  0  0  0  0  0
   25.3539  -19.3002  -15.9308 C   0  0  2  0  0  0  0  0  0  0  0  0
   25.0361  -19.9271  -14.6912 N   0  0  0  0  0  0  0  0  0  0  0  0
   25.2814  -17.8532  -15.9385 C   0  0  0  0  0  0  0  0  0  0  0  0
   24.1636  -17.3582  -15.5076 O   0  0  0  0  0  0  0  0  0  0  0  0
   26.2646  -16.9451  -16.3566 N   0  0  0  0  0  0  0  0  0  0  0  0
   27.6289  -17.2697  -16.6949 C   0  0  0  0  0  0  0  0  0  0  0  0
   28.3726  -15.9329  -16.7643 C   0  0  0  0  0  0  0  0  0  0  0  0
   27.2798  -15.0640  -17.3185 C   0  0  0  0  0  0  0  0  0  0  0  0
   26.0744  -15.5005  -16.5328 C   0  0  1  0  0  0  0  0  0  0  0  0
   24.8297  -15.1867  -17.2937 C   0  0  0  0  0  0  0  0  0  0  0  0
   24.3196  -13.9225  -17.1728 O   0  0  0  0  0  0  0  0  0  0  0  0
   24.2597  -16.0177  -18.0136 O   0  0  0  0  0  0  0  0  0  0  0  0
  2  1  1  1
  2  3  1  0
  4  5  1  0
  4  3  1  0
  6  5  1  0
  7  6  1  0
  8  2  1  0
  9  8  2  0
 11 10  1  6
 11 13  1  0
 12 11  1  0
 14 13  1  6
 14 15  1  0
 15  8  1  0
 16 14  1  0
 16 17  2  0
 18 16  1  0
 19 18  1  0
 20 19  1  0
 21 20  1  0
 21 22  1  0
 22 23  1  6
 22 18  1  0
 23 24  1  0
 25 23  2  0
M  END
$$$$
