KLP.pdb
     RDKit          3D

 25 25  0  0  1  0  0  0  0  0999 V2000
   20.2820  -20.3183  -13.4790 N   0  0  0  0  0  0  0  0  0  0  0  0
   21.3524  -21.1917  -13.7608 C   0  0  1  0  0  0  0  0  0  0  0  0
   21.2643  -21.9836  -15.0102 C   0  0  0  0  0  0  0  0  0  0  0  0
   20.1462  -22.9692  -14.9531 C   0  0  0  0  0  0  0  0  0  0  0  0
   20.0718  -23.8771  -13.7837 C   0  0  0  0  0  0  0  0  0  0  0  0
   19.0076  -24.9229  -13.8180 C   0  0  0  0  0  0  0  0  0  0  0  0
   18.9810  -25.7800  -14.9445 N   0  0  0  0  0  0  0  0  0  0  0  0
   22.6570  -20.4995  -13.5916 C   0  0  0  0  0  0  0  0  0  0  0  0
   22.8371  -19.3074  -13.9925 O   0  0  0  0  0  0  0  0  0  0  0  0
   25.0800  -19.3992  -10.2063 C   0  0  0  0  0  0  0  0  0  0  0  0
   25.1326  -20.8821  -10.3733 C   0  0  2  0  0  0  0  0  0  0  0  0
   25.9423  -21.5195   -9.2606 C   0  0  0  0  0  0  0  0  0  0  0  0
   25.7708  -21.2645  -11.6731 C   0  0  0  0  0  0  0  0  0  0  0  0
   25.0442  -20.6841  -12.8697 C   0  0  2  0  0  0  0  0  0  0  0  0
   23.7191  -21.1995  -12.9661 N   0  0  0  0  0  0  0  0  0  0  0  0
   25.8756  -20.8683  -14.0419 C   0  0  0  0  0  0  0  0  0  0  0  0
   25.8710  -22.0673  -14.5342 O   0  0  0  0  0  0  0  0  0  0  0  0
   26.6736  -19.9138  -14.6888 N   0  0  0  0  0  0  0  0  0  0  0  0
   26.7996  -18.5247  -14.3203 C   0  0  0  0  0  0  0  0  0  0  0  0
   27.5033  -17.8417  -15.4964 C   0  0  0  0  0  0  0  0  0  0  0  0
   28.4193  -18.9530  -15.9231 C   0  0  0  0  0  0  0  0  0  0  0  0
   27.5311  -20.1643  -15.8532 C   0  0  1  0  0  0  0  0  0  0  0  0
   28.3595  -21.3942  -15.6864 C   0  0  0  0  0  0  0  0  0  0  0  0
   28.9399  -21.9194  -16.8090 O   0  0  0  0  0  0  0  0  0  0  0  0
   28.5320  -21.9392  -14.5879 O   0  0  0  0  0  0  0  0  0  0  0  0
  2  1  1  6
  2  3  1  0
  4  5  1  0
  4  3  1  0
  6  5  1  0
  7  6  1  0
  8  2  1  0
  9  8  2  0
 11 10  1  1
 11 13  1  0
 12 11  1  0
 14 13  1  1
 14 15  1  0
 15  8  1  0
 16 14  1  0
 16 17  2  0
 18 16  1  0
 19 18  1  0
 20 19  1  0
 21 20  1  0
 21 22  1  0
 22 23  1  1
 22 18  1  0
 23 24  1  0
 25 23  2  0
M  END
$$$$
