KLP.pdb
     RDKit          3D

 25 25  0  0  1  0  0  0  0  0999 V2000
   19.5127  -20.4037  -13.6809 N   0  0  0  0  0  0  0  0  0  0  0  0
   20.4644  -20.1964  -14.7004 C   0  0  1  0  0  0  0  0  0  0  0  0
   20.0243  -19.4229  -15.8853 C   0  0  0  0  0  0  0  0  0  0  0  0
   19.6449  -20.3224  -17.0131 C   0  0  0  0  0  0  0  0  0  0  0  0
   19.8965  -21.7757  -16.8650 C   0  0  0  0  0  0  0  0  0  0  0  0
   19.5606  -22.6336  -18.0392 C   0  0  0  0  0  0  0  0  0  0  0  0
   19.8137  -24.0212  -17.9182 N   0  0  0  0  0  0  0  0  0  0  0  0
   21.7528  -19.7215  -14.1310 C   0  0  0  0  0  0  0  0  0  0  0  0
   21.8789  -18.5530  -13.6482 O   0  0  0  0  0  0  0  0  0  0  0  0
   26.7540  -22.0288  -11.6790 C   0  0  0  0  0  0  0  0  0  0  0  0
   25.9487  -20.8126  -11.9986 C   0  0  2  0  0  0  0  0  0  0  0  0
   25.7294  -19.9719  -10.7556 C   0  0  0  0  0  0  0  0  0  0  0  0
   24.6014  -21.1755  -12.5428 C   0  0  0  0  0  0  0  0  0  0  0  0
   24.1508  -20.2417  -13.6480 C   0  0  2  0  0  0  0  0  0  0  0  0
   22.8613  -20.6049  -14.1340 N   0  0  0  0  0  0  0  0  0  0  0  0
   25.2003  -20.1738  -14.6445 C   0  0  0  0  0  0  0  0  0  0  0  0
   25.3440  -21.2432  -15.3629 O   0  0  0  0  0  0  0  0  0  0  0  0
   26.0652  -19.1027  -14.9110 N   0  0  0  0  0  0  0  0  0  0  0  0
   26.0442  -17.8149  -14.2611 C   0  0  0  0  0  0  0  0  0  0  0  0
   26.9383  -16.9042  -15.1072 C   0  0  0  0  0  0  0  0  0  0  0  0
   27.9762  -17.9001  -15.5401 C   0  0  0  0  0  0  0  0  0  0  0  0
   27.1537  -19.1076  -15.8954 C   0  0  1  0  0  0  0  0  0  0  0  0
   27.9906  -20.3394  -15.8011 C   0  0  0  0  0  0  0  0  0  0  0  0
   28.6738  -20.7238  -16.9229 O   0  0  0  0  0  0  0  0  0  0  0  0
   28.0817  -21.0069  -14.7620 O   0  0  0  0  0  0  0  0  0  0  0  0
  2  1  1  1
  2  3  1  0
  4  5  1  0
  4  3  1  0
  6  5  1  0
  7  6  1  0
  8  2  1  0
  9  8  2  0
 11 10  1  1
 11 13  1  0
 12 11  1  0
 14 13  1  1
 14 15  1  0
 15  8  1  0
 16 14  1  0
 16 17  2  0
 18 16  1  0
 19 18  1  0
 20 19  1  0
 21 20  1  0
 21 22  1  0
 22 23  1  1
 22 18  1  0
 23 24  1  0
 25 23  2  0
M  END
$$$$
