AHH.pdb
     RDKit          3D

 26 27  0  0  1  0  0  0  0  0999 V2000
   11.6685  -21.8802   20.6217 C   0  0  0  0  0  0  0  0  0  0  0  0
   10.2079  -21.4848   20.5636 C   0  0  2  0  0  0  0  0  0  0  0  0
   10.0168  -20.6858   19.3958 N   0  0  0  0  0  0  0  0  0  0  0  0
    9.8674  -20.8085   21.8275 C   0  0  0  0  0  0  0  0  0  0  0  0
   10.3731  -19.6734   22.0278 O   0  0  0  0  0  0  0  0  0  0  0  0
    9.0184  -21.3631   22.8033 N   0  0  0  0  0  0  0  0  0  0  0  0
    8.7323  -20.7322   24.0852 C   0  0  1  0  0  0  0  0  0  0  0  0
    7.3611  -21.0434   24.5677 C   0  0  0  0  0  0  0  0  0  0  0  0
    7.0882  -20.3964   25.8718 C   0  0  0  0  0  0  0  0  0  0  0  0
    6.8628  -19.0557   26.0957 C   0  0  0  0  0  0  0  0  0  0  0  0
    6.6562  -18.8512   27.3855 N   0  0  0  0  0  0  0  0  0  0  0  0
    6.7424  -20.0350   28.0100 C   0  0  0  0  0  0  0  0  0  0  0  0
    7.0051  -20.9724   27.0870 N   0  0  0  0  0  0  0  0  0  0  0  0
    9.7727  -21.0486   25.0816 C   0  0  0  0  0  0  0  0  0  0  0  0
   10.2031  -22.2040   25.2347 O   0  0  0  0  0  0  0  0  0  0  0  0
   10.3466  -20.0443   25.9292 N   0  0  0  0  0  0  0  0  0  0  0  0
   11.3043  -20.4116   26.9745 C   0  0  1  0  0  0  0  0  0  0  0  0
   12.6111  -19.7175   26.7750 C   0  0  0  0  0  0  0  0  0  0  0  0
   13.3478  -20.3279   25.6581 C   0  0  0  0  0  0  0  0  0  0  0  0
   12.9916  -21.5360   25.0503 C   0  0  0  0  0  0  0  0  0  0  0  0
   13.8662  -21.8075   24.0701 N   0  0  0  0  0  0  0  0  0  0  0  0
   14.7587  -20.8060   24.0464 C   0  0  0  0  0  0  0  0  0  0  0  0
   14.4398  -19.9104   25.0121 N   0  0  0  0  0  0  0  0  0  0  0  0
   10.7135  -20.2076   28.3159 C   0  0  0  0  0  0  0  0  0  0  0  0
    9.4879  -19.6375   28.5269 O   0  0  0  0  0  0  0  0  0  0  0  0
   11.3621  -20.5740   29.3533 O   0  0  0  0  0  0  0  0  0  0  0  0
  2  1  1  1
  2  4  1  0
  3  2  1  0
  4  5  2  0
  6  4  1  0
  6  7  1  0
  7 14  1  0
  7  8  1  1
  9  8  1  0
 10  9  2  0
 11 12  1  0
 11 10  1  0
 12 13  2  0
 13  9  1  0
 14 15  2  0
 16 17  1  0
 16 14  1  0
 17 24  1  0
 18 19  1  0
 17 18  1  1
 19 23  1  0
 20 21  1  0
 20 19  2  0
 21 22  1  0
 22 23  2  0
 24 26  2  0
 24 25  1  0
M  END
$$$$
