AHH.pdb
     RDKit          3D

 26 27  0  0  1  0  0  0  0  0999 V2000
    7.6482  -12.7763   18.7116 C   0  0  0  0  0  0  0  0  0  0  0  0
    8.7246  -12.9911   19.7549 C   0  0  2  0  0  0  0  0  0  0  0  0
    9.9875  -12.9837   19.0889 N   0  0  0  0  0  0  0  0  0  0  0  0
    8.4213  -14.2413   20.4731 C   0  0  0  0  0  0  0  0  0  0  0  0
    7.2685  -14.3579   20.9649 O   0  0  0  0  0  0  0  0  0  0  0  0
    9.3442  -15.2920   20.6315 N   0  0  0  0  0  0  0  0  0  0  0  0
    9.0697  -16.5080   21.3858 C   0  0  1  0  0  0  0  0  0  0  0  0
    9.7160  -17.7008   20.7780 C   0  0  0  0  0  0  0  0  0  0  0  0
    9.1550  -17.9951   19.4392 C   0  0  0  0  0  0  0  0  0  0  0  0
    7.8211  -18.0878   19.1066 C   0  0  0  0  0  0  0  0  0  0  0  0
    7.7045  -18.3640   17.8189 N   0  0  0  0  0  0  0  0  0  0  0  0
    8.9391  -18.4538   17.3026 C   0  0  0  0  0  0  0  0  0  0  0  0
    9.8187  -18.2290   18.2902 N   0  0  0  0  0  0  0  0  0  0  0  0
    9.4078  -16.3412   22.8118 C   0  0  0  0  0  0  0  0  0  0  0  0
   10.5014  -15.8772   23.1755 O   0  0  0  0  0  0  0  0  0  0  0  0
    8.4969  -16.7035   23.8584 N   0  0  0  0  0  0  0  0  0  0  0  0
    8.8886  -16.5736   25.2635 C   0  0  1  0  0  0  0  0  0  0  0  0
    7.7193  -16.2067   26.1164 C   0  0  0  0  0  0  0  0  0  0  0  0
    7.3723  -14.7905   25.9249 C   0  0  0  0  0  0  0  0  0  0  0  0
    8.1495  -13.8839   25.1968 C   0  0  0  0  0  0  0  0  0  0  0  0
    7.5538  -12.6821   25.2168 N   0  0  0  0  0  0  0  0  0  0  0  0
    6.4279  -12.8095   25.9351 C   0  0  0  0  0  0  0  0  0  0  0  0
    6.3221  -14.0910   26.3627 N   0  0  0  0  0  0  0  0  0  0  0  0
    9.6072  -17.7852   25.7170 C   0  0  0  0  0  0  0  0  0  0  0  0
   10.2494  -17.8809   26.9212 O   0  0  0  0  0  0  0  0  0  0  0  0
    9.6474  -18.8146   24.9620 O   0  0  0  0  0  0  0  0  0  0  0  0
  2  1  1  6
  2  4  1  0
  3  2  1  0
  4  5  2  0
  6  4  1  0
  6  7  1  0
  7 14  1  0
  7  8  1  6
  9  8  1  0
 10  9  2  0
 11 12  1  0
 11 10  1  0
 12 13  2  0
 13  9  1  0
 14 15  2  0
 16 17  1  0
 16 14  1  0
 17 24  1  0
 18 19  1  0
 17 18  1  1
 19 23  1  0
 20 21  1  0
 20 19  2  0
 21 22  1  0
 22 23  2  0
 24 26  2  0
 24 25  1  0
M  END
$$$$
