AHH.pdb
     RDKit          3D

 26 27  0  0  1  0  0  0  0  0999 V2000
   11.5466  -17.4029   16.9834 C   0  0  0  0  0  0  0  0  0  0  0  0
   11.0348  -17.8665   18.3311 C   0  0  2  0  0  0  0  0  0  0  0  0
    9.8711  -18.6629   18.1072 N   0  0  0  0  0  0  0  0  0  0  0  0
   10.8066  -16.6749   19.1672 C   0  0  0  0  0  0  0  0  0  0  0  0
   11.8229  -16.0822   19.6147 O   0  0  0  0  0  0  0  0  0  0  0  0
    9.5283  -16.1781   19.4826 N   0  0  0  0  0  0  0  0  0  0  0  0
    9.2904  -15.0672   20.3950 C   0  0  1  0  0  0  0  0  0  0  0  0
    8.1015  -14.2659   20.0022 C   0  0  0  0  0  0  0  0  0  0  0  0
    8.0426  -14.0714   18.5351 C   0  0  0  0  0  0  0  0  0  0  0  0
    8.9892  -14.4620   17.6131 C   0  0  0  0  0  0  0  0  0  0  0  0
    8.5923  -14.1194   16.3994 N   0  0  0  0  0  0  0  0  0  0  0  0
    7.4021  -13.5111   16.5108 C   0  0  0  0  0  0  0  0  0  0  0  0
    7.0707  -13.4835   17.8103 N   0  0  0  0  0  0  0  0  0  0  0  0
    9.2300  -15.5278   21.7949 C   0  0  0  0  0  0  0  0  0  0  0  0
    8.1489  -15.7530   22.3642 O   0  0  0  0  0  0  0  0  0  0  0  0
   10.4119  -15.7419   22.5782 N   0  0  0  0  0  0  0  0  0  0  0  0
   10.3113  -16.1791   23.9724 C   0  0  1  0  0  0  0  0  0  0  0  0
    9.4413  -17.3862   24.0964 C   0  0  0  0  0  0  0  0  0  0  0  0
   10.1183  -18.5633   23.5317 C   0  0  0  0  0  0  0  0  0  0  0  0
   11.3825  -18.5300   22.9344 C   0  0  0  0  0  0  0  0  0  0  0  0
   11.7064  -19.7660   22.5263 N   0  0  0  0  0  0  0  0  0  0  0  0
   10.6834  -20.5714   22.8500 C   0  0  0  0  0  0  0  0  0  0  0  0
    9.7219  -19.8368   23.4600 N   0  0  0  0  0  0  0  0  0  0  0  0
   11.6577  -16.3448   24.5637 C   0  0  0  0  0  0  0  0  0  0  0  0
   11.8773  -16.6361   25.8822 O   0  0  0  0  0  0  0  0  0  0  0  0
   12.6916  -16.2134   23.8253 O   0  0  0  0  0  0  0  0  0  0  0  0
  2  1  1  6
  2  4  1  0
  3  2  1  0
  4  5  2  0
  6  4  1  0
  6  7  1  0
  7 14  1  0
  7  8  1  6
  9  8  1  0
 10  9  2  0
 11 12  1  0
 11 10  1  0
 12 13  2  0
 13  9  1  0
 14 15  2  0
 16 17  1  0
 16 14  1  0
 17 24  1  0
 18 19  1  0
 17 18  1  6
 19 23  1  0
 20 21  1  0
 20 19  2  0
 21 22  1  0
 22 23  2  0
 24 26  2  0
 24 25  1  0
M  END
$$$$
