AHH.pdb
     RDKit          3D

 26 27  0  0  1  0  0  0  0  0999 V2000
    9.7804  -19.4783   19.3720 C   0  0  0  0  0  0  0  0  0  0  0  0
    9.1589  -18.2405   18.7599 C   0  0  2  0  0  0  0  0  0  0  0  0
    9.6608  -18.1108   17.4296 N   0  0  0  0  0  0  0  0  0  0  0  0
    9.4587  -17.0968   19.6390 C   0  0  0  0  0  0  0  0  0  0  0  0
   10.6487  -16.6872   19.6656 O   0  0  0  0  0  0  0  0  0  0  0  0
    8.4937  -16.4529   20.4357 N   0  0  0  0  0  0  0  0  0  0  0  0
    8.7609  -15.2638   21.2342 C   0  0  1  0  0  0  0  0  0  0  0  0
    7.7551  -14.1948   20.9990 C   0  0  0  0  0  0  0  0  0  0  0  0
    7.6758  -13.8346   19.5646 C   0  0  0  0  0  0  0  0  0  0  0  0
    8.2843  -12.7625   18.9490 C   0  0  0  0  0  0  0  0  0  0  0  0
    7.9855  -12.7638   17.6611 N   0  0  0  0  0  0  0  0  0  0  0  0
    7.1918  -13.8184   17.4227 C   0  0  0  0  0  0  0  0  0  0  0  0
    7.0054  -14.4673   18.5818 N   0  0  0  0  0  0  0  0  0  0  0  0
    8.9114  -15.6006   22.6623 C   0  0  0  0  0  0  0  0  0  0  0  0
    8.1451  -15.1439   23.5270 O   0  0  0  0  0  0  0  0  0  0  0  0
    9.9474  -16.4723   23.1345 N   0  0  0  0  0  0  0  0  0  0  0  0
   10.0644  -16.7844   24.5606 C   0  0  1  0  0  0  0  0  0  0  0  0
    9.7225  -18.2128   24.8287 C   0  0  0  0  0  0  0  0  0  0  0  0
    8.3275  -18.4834   24.4497 C   0  0  0  0  0  0  0  0  0  0  0  0
    7.4686  -17.5331   23.8884 C   0  0  0  0  0  0  0  0  0  0  0  0
    6.2746  -18.1014   23.6628 N   0  0  0  0  0  0  0  0  0  0  0  0
    6.3606  -19.3781   24.0659 C   0  0  0  0  0  0  0  0  0  0  0  0
    7.6086  -19.6052   24.5427 N   0  0  0  0  0  0  0  0  0  0  0  0
   11.3908  -16.3767   25.0748 C   0  0  0  0  0  0  0  0  0  0  0  0
   11.7469  -16.4433   26.3941 O   0  0  0  0  0  0  0  0  0  0  0  0
   12.2726  -15.9330   24.2644 O   0  0  0  0  0  0  0  0  0  0  0  0
  2  1  1  1
  2  4  1  0
  3  2  1  0
  4  5  2  0
  6  4  1  0
  6  7  1  0
  7 14  1  0
  7  8  1  1
  9  8  1  0
 10  9  2  0
 11 12  1  0
 11 10  1  0
 12 13  2  0
 13  9  1  0
 14 15  2  0
 16 17  1  0
 16 14  1  0
 17 24  1  0
 18 19  1  0
 17 18  1  6
 19 23  1  0
 20 21  1  0
 20 19  2  0
 21 22  1  0
 22 23  2  0
 24 26  2  0
 24 25  1  0
M  END
$$$$
