AHH.pdb
     RDKit          3D

 26 27  0  0  1  0  0  0  0  0999 V2000
   12.5391  -21.2158   17.0771 C   0  0  0  0  0  0  0  0  0  0  0  0
   12.2472  -20.1794   18.1420 C   0  0  2  0  0  0  0  0  0  0  0  0
   10.8557  -19.8663   18.0783 N   0  0  0  0  0  0  0  0  0  0  0  0
   13.1418  -19.0304   17.9179 C   0  0  0  0  0  0  0  0  0  0  0  0
   14.3794  -19.2593   17.8973 O   0  0  0  0  0  0  0  0  0  0  0  0
   12.6847  -17.7128   17.7293 N   0  0  0  0  0  0  0  0  0  0  0  0
   13.5639  -16.5579   17.6016 C   0  0  1  0  0  0  0  0  0  0  0  0
   13.3029  -15.7917   16.3548 C   0  0  0  0  0  0  0  0  0  0  0  0
   13.1856  -16.6906   15.1836 C   0  0  0  0  0  0  0  0  0  0  0  0
   12.1004  -16.8122   14.3432 C   0  0  0  0  0  0  0  0  0  0  0  0
   12.3614  -17.7130   13.4112 N   0  0  0  0  0  0  0  0  0  0  0  0
   13.5988  -18.1833   13.6269 C   0  0  0  0  0  0  0  0  0  0  0  0
   14.0971  -17.5598   14.7050 N   0  0  0  0  0  0  0  0  0  0  0  0
   13.5171  -15.7133   18.8100 C   0  0  0  0  0  0  0  0  0  0  0  0
   14.2087  -14.6870   18.9188 O   0  0  0  0  0  0  0  0  0  0  0  0
   12.6731  -16.0264   19.9262 N   0  0  0  0  0  0  0  0  0  0  0  0
   12.6495  -15.1603   21.1069 C   0  0  1  0  0  0  0  0  0  0  0  0
   11.2517  -14.7776   21.4659 C   0  0  0  0  0  0  0  0  0  0  0  0
   10.6130  -14.0696   20.3462 C   0  0  0  0  0  0  0  0  0  0  0  0
   11.2378  -13.8130   19.1216 C   0  0  0  0  0  0  0  0  0  0  0  0
   10.3843  -13.1529   18.3246 N   0  0  0  0  0  0  0  0  0  0  0  0
    9.2447  -12.9889   19.0134 C   0  0  0  0  0  0  0  0  0  0  0  0
    9.3885  -13.5470   20.2399 N   0  0  0  0  0  0  0  0  0  0  0  0
   13.4088  -15.7757   22.2182 C   0  0  0  0  0  0  0  0  0  0  0  0
   13.6084  -15.1698   23.4284 O   0  0  0  0  0  0  0  0  0  0  0  0
   13.9186  -16.9369   22.0670 O   0  0  0  0  0  0  0  0  0  0  0  0
  2  1  1  6
  2  4  1  0
  3  2  1  0
  4  5  2  0
  6  4  1  0
  6  7  1  0
  7 14  1  0
  7  8  1  6
  9  8  1  0
 10  9  2  0
 11 12  1  0
 11 10  1  0
 12 13  2  0
 13  9  1  0
 14 15  2  0
 16 17  1  0
 16 14  1  0
 17 24  1  0
 18 19  1  0
 17 18  1  1
 19 23  1  0
 20 21  1  0
 20 19  2  0
 21 22  1  0
 22 23  2  0
 24 26  2  0
 24 25  1  0
M  END
$$$$
