AHH.pdb
     RDKit          3D

 26 27  0  0  1  0  0  0  0  0999 V2000
    8.3509  -12.2415   20.0219 C   0  0  0  0  0  0  0  0  0  0  0  0
    8.4176  -13.5499   19.2623 C   0  0  2  0  0  0  0  0  0  0  0  0
    7.3714  -13.5459   18.2908 N   0  0  0  0  0  0  0  0  0  0  0  0
    8.3381  -14.6496   20.2396 C   0  0  0  0  0  0  0  0  0  0  0  0
    7.1899  -15.0554   20.5579 O   0  0  0  0  0  0  0  0  0  0  0  0
    9.4661  -15.2562   20.8229 N   0  0  0  0  0  0  0  0  0  0  0  0
    9.4165  -16.4891   21.5979 C   0  0  1  0  0  0  0  0  0  0  0  0
   10.2528  -17.5612   20.9970 C   0  0  0  0  0  0  0  0  0  0  0  0
   10.1126  -18.8350   21.7395 C   0  0  0  0  0  0  0  0  0  0  0  0
    9.2990  -19.0704   22.8264 C   0  0  0  0  0  0  0  0  0  0  0  0
    9.4399  -20.3243   23.2211 N   0  0  0  0  0  0  0  0  0  0  0  0
   10.3318  -20.9141   22.4114 C   0  0  0  0  0  0  0  0  0  0  0  0
   10.7388  -20.0061   21.5118 N   0  0  0  0  0  0  0  0  0  0  0  0
    9.7378  -16.2431   23.0162 C   0  0  0  0  0  0  0  0  0  0  0  0
   10.8224  -15.7480   23.3656 O   0  0  0  0  0  0  0  0  0  0  0  0
    8.8200  -16.5599   24.0715 N   0  0  0  0  0  0  0  0  0  0  0  0
    9.0994  -16.1484   25.4490 C   0  0  1  0  0  0  0  0  0  0  0  0
    7.8353  -15.8937   26.2015 C   0  0  0  0  0  0  0  0  0  0  0  0
    7.1696  -14.6874   25.6873 C   0  0  0  0  0  0  0  0  0  0  0  0
    7.7633  -13.7796   24.8044 C   0  0  0  0  0  0  0  0  0  0  0  0
    6.8910  -12.7968   24.5350 N   0  0  0  0  0  0  0  0  0  0  0  0
    5.7698  -13.0622   25.2224 C   0  0  0  0  0  0  0  0  0  0  0  0
    5.9438  -14.2107   25.9203 N   0  0  0  0  0  0  0  0  0  0  0  0
   10.0064  -17.1154   26.1065 C   0  0  0  0  0  0  0  0  0  0  0  0
   10.6746  -16.8578   27.2722 O   0  0  0  0  0  0  0  0  0  0  0  0
   10.1957  -18.2627   25.5782 O   0  0  0  0  0  0  0  0  0  0  0  0
  2  1  1  1
  2  4  1  0
  3  2  1  0
  4  5  2  0
  6  4  1  0
  6  7  1  0
  7 14  1  0
  7  8  1  6
  9  8  1  0
 10  9  2  0
 11 12  1  0
 11 10  1  0
 12 13  2  0
 13  9  1  0
 14 15  2  0
 16 17  1  0
 16 14  1  0
 17 24  1  0
 18 19  1  0
 17 18  1  1
 19 23  1  0
 20 21  1  0
 20 19  2  0
 21 22  1  0
 22 23  2  0
 24 26  2  0
 24 25  1  0
M  END
$$$$
