AHH.pdb
     RDKit          3D

 26 27  0  0  1  0  0  0  0  0999 V2000
    8.5611  -12.2824   19.5805 C   0  0  0  0  0  0  0  0  0  0  0  0
    8.6562  -13.6313   18.8987 C   0  0  2  0  0  0  0  0  0  0  0  0
    7.6024  -13.7120   17.9389 N   0  0  0  0  0  0  0  0  0  0  0  0
    8.6139  -14.6729   19.9399 C   0  0  0  0  0  0  0  0  0  0  0  0
    7.4814  -15.0010   20.3806 O   0  0  0  0  0  0  0  0  0  0  0  0
    9.7602  -15.3064   20.4548 N   0  0  0  0  0  0  0  0  0  0  0  0
    9.7349  -16.2686   21.5487 C   0  0  1  0  0  0  0  0  0  0  0  0
   10.3418  -17.5697   21.1629 C   0  0  0  0  0  0  0  0  0  0  0  0
    9.5342  -18.2563   20.1286 C   0  0  0  0  0  0  0  0  0  0  0  0
    8.4138  -17.7633   19.4957 C   0  0  0  0  0  0  0  0  0  0  0  0
    7.9626  -18.6587   18.6340 N   0  0  0  0  0  0  0  0  0  0  0  0
    8.7681  -19.7295   18.6916 C   0  0  0  0  0  0  0  0  0  0  0  0
    9.7225  -19.4818   19.6011 N   0  0  0  0  0  0  0  0  0  0  0  0
   10.3309  -15.7026   22.7734 C   0  0  0  0  0  0  0  0  0  0  0  0
   11.5611  -15.6462   22.9374 O   0  0  0  0  0  0  0  0  0  0  0  0
    9.5277  -15.1858   23.8431 N   0  0  0  0  0  0  0  0  0  0  0  0
    9.5473  -15.8215   25.1623 C   0  0  1  0  0  0  0  0  0  0  0  0
    8.1621  -16.0469   25.6717 C   0  0  0  0  0  0  0  0  0  0  0  0
    7.4278  -14.7743   25.7336 C   0  0  0  0  0  0  0  0  0  0  0  0
    7.9879  -13.5296   25.4283 C   0  0  0  0  0  0  0  0  0  0  0  0
    7.0542  -12.5793   25.5848 N   0  0  0  0  0  0  0  0  0  0  0  0
    5.9273  -13.1915   25.9787 C   0  0  0  0  0  0  0  0  0  0  0  0
    6.1591  -14.5237   26.0676 N   0  0  0  0  0  0  0  0  0  0  0  0
   10.3856  -17.0409   25.1392 C   0  0  0  0  0  0  0  0  0  0  0  0
   11.7323  -17.0411   25.3800 O   0  0  0  0  0  0  0  0  0  0  0  0
    9.8487  -18.1709   24.8822 O   0  0  0  0  0  0  0  0  0  0  0  0
  2  1  1  1
  2  4  1  0
  3  2  1  0
  4  5  2  0
  6  4  1  0
  6  7  1  0
  7 14  1  0
  7  8  1  6
  9  8  1  0
 10  9  2  0
 11 12  1  0
 11 10  1  0
 12 13  2  0
 13  9  1  0
 14 15  2  0
 16 17  1  0
 16 14  1  0
 17 24  1  0
 18 19  1  0
 17 18  1  6
 19 23  1  0
 20 21  1  0
 20 19  2  0
 21 22  1  0
 22 23  2  0
 24 26  2  0
 24 25  1  0
M  END
$$$$
