GWI.pdb
     RDKit          3D

 27 28  0  0  1  0  0  0  0  0999 V2000
   12.5752  -16.8861   20.0124 N   0  0  0  0  0  0  0  0  0  0  0  0
   11.5496  -17.6257   20.7095 C   0  0  0  0  0  0  0  0  0  0  0  0
   11.1004  -16.8587   21.9398 C   0  0  0  0  0  0  0  0  0  0  0  0
   11.8127  -15.9124   22.3121 O   0  0  0  0  0  0  0  0  0  0  0  0
    9.9195  -17.2322   22.6052 N   0  0  0  0  0  0  0  0  0  0  0  0
    9.2569  -16.5847   23.6792 C   0  0  1  0  0  0  0  0  0  0  0  0
    7.7741  -16.4570   23.6437 C   0  0  0  0  0  0  0  0  0  0  0  0
    7.3145  -15.0501   23.5572 C   0  0  0  0  0  0  0  0  0  0  0  0
    7.2661  -14.2340   22.4428 C   0  0  0  0  0  0  0  0  0  0  0  0
    6.8165  -13.0482   22.8628 N   0  0  0  0  0  0  0  0  0  0  0  0
    6.5666  -13.0487   24.1984 C   0  0  0  0  0  0  0  0  0  0  0  0
    6.1042  -12.0843   25.0671 C   0  0  0  0  0  0  0  0  0  0  0  0
    5.9436  -12.3538   26.3985 C   0  0  0  0  0  0  0  0  0  0  0  0
    6.2588  -13.6350   26.8695 C   0  0  0  0  0  0  0  0  0  0  0  0
    6.7231  -14.6192   26.0181 C   0  0  0  0  0  0  0  0  0  0  0  0
    6.8756  -14.3128   24.6697 C   0  0  0  0  0  0  0  0  0  0  0  0
    9.8418  -16.9276   24.9877 C   0  0  0  0  0  0  0  0  0  0  0  0
   10.5288  -17.9808   25.0548 O   0  0  0  0  0  0  0  0  0  0  0  0
   11.1912  -12.9686   28.6105 C   0  0  0  0  0  0  0  0  0  0  0  0
   11.1569  -14.1599   27.6974 C   0  0  0  0  0  0  0  0  0  0  0  0
   10.5370  -15.3875   28.3218 C   0  0  2  0  0  0  0  0  0  0  0  0
   11.4087  -15.7271   29.5332 C   0  0  0  0  0  0  0  0  0  0  0  0
   10.4787  -16.5047   27.3464 C   0  0  2  0  0  0  0  0  0  0  0  0
    9.6759  -16.1484   26.1651 N   0  0  0  0  0  0  0  0  0  0  0  0
    9.8472  -17.7528   27.8825 C   0  0  0  0  0  0  0  0  0  0  0  0
   10.5707  -18.8037   28.4317 O   0  0  0  0  0  0  0  0  0  0  0  0
    8.6023  -17.9036   27.8540 O   0  0  0  0  0  0  0  0  0  0  0  0
  2  1  1  0
  3  2  1  0
  4  3  2  0
  5  3  1  0
  6  5  1  0
  6  7  1  1
  8  7  1  0
  9  8  2  0
 10 11  1  0
 10  9  1  0
 11 16  2  0
 12 11  1  0
 12 13  2  0
 13 14  1  0
 14 15  2  0
 16  8  1  0
 16 15  1  0
 17  6  1  0
 17 18  2  0
 20 21  1  0
 20 19  1  0
 21 22  1  1
 23 21  1  0
 23 24  1  6
 24 17  1  0
 25 23  1  0
 26 25  1  0
 27 25  2  0
M  END
$$$$
