GWI.pdb
     RDKit          3D

 27 28  0  0  1  0  0  0  0  0999 V2000
   12.1620  -16.2278   19.4805 N   0  0  0  0  0  0  0  0  0  0  0  0
   11.2693  -17.1039   20.2022 C   0  0  0  0  0  0  0  0  0  0  0  0
   10.8323  -16.4474   21.4990 C   0  0  0  0  0  0  0  0  0  0  0  0
   11.5672  -15.5614   21.9643 O   0  0  0  0  0  0  0  0  0  0  0  0
    9.6373  -16.8512   22.1201 N   0  0  0  0  0  0  0  0  0  0  0  0
    9.0028  -16.3142   23.2693 C   0  0  1  0  0  0  0  0  0  0  0  0
    7.5169  -16.2282   23.3023 C   0  0  0  0  0  0  0  0  0  0  0  0
    7.0026  -15.5270   24.5031 C   0  0  0  0  0  0  0  0  0  0  0  0
    6.3983  -16.0747   25.6189 C   0  0  0  0  0  0  0  0  0  0  0  0
    6.0761  -15.0507   26.4143 N   0  0  0  0  0  0  0  0  0  0  0  0
    6.4417  -13.8588   25.8738 C   0  0  0  0  0  0  0  0  0  0  0  0
    6.3224  -12.5562   26.3063 C   0  0  0  0  0  0  0  0  0  0  0  0
    6.7826  -11.5163   25.5461 C   0  0  0  0  0  0  0  0  0  0  0  0
    7.3816  -11.7977   24.3113 C   0  0  0  0  0  0  0  0  0  0  0  0
    7.5137  -13.0956   23.8563 C   0  0  0  0  0  0  0  0  0  0  0  0
    7.0352  -14.1305   24.6533 C   0  0  0  0  0  0  0  0  0  0  0  0
    9.6500  -16.7461   24.5210 C   0  0  0  0  0  0  0  0  0  0  0  0
   10.1906  -17.8834   24.5288 O   0  0  0  0  0  0  0  0  0  0  0  0
    9.7838  -13.8793   29.5429 C   0  0  0  0  0  0  0  0  0  0  0  0
    9.5885  -14.9573   28.5164 C   0  0  0  0  0  0  0  0  0  0  0  0
   10.8476  -15.3154   27.7630 C   0  0  2  0  0  0  0  0  0  0  0  0
   11.3046  -14.0272   27.0743 C   0  0  0  0  0  0  0  0  0  0  0  0
   10.5897  -16.4063   26.7901 C   0  0  2  0  0  0  0  0  0  0  0  0
    9.6974  -15.9631   25.7065 N   0  0  0  0  0  0  0  0  0  0  0  0
    9.9159  -17.6066   27.3810 C   0  0  0  0  0  0  0  0  0  0  0  0
   10.5122  -18.4347   28.3235 O   0  0  0  0  0  0  0  0  0  0  0  0
    8.7519  -17.9220   27.0362 O   0  0  0  0  0  0  0  0  0  0  0  0
  2  1  1  0
  3  2  1  0
  4  3  2  0
  5  3  1  0
  6  5  1  0
  6  7  1  1
  8  7  1  0
  9  8  2  0
 10 11  1  0
 10  9  1  0
 11 16  2  0
 12 11  1  0
 12 13  2  0
 13 14  1  0
 14 15  2  0
 16  8  1  0
 16 15  1  0
 17  6  1  0
 17 18  2  0
 20 21  1  0
 20 19  1  0
 21 22  1  6
 23 21  1  0
 23 24  1  6
 24 17  1  0
 25 23  1  0
 26 25  1  0
 27 25  2  0
M  END
$$$$
