GWI.pdb
     RDKit          3D

 27 28  0  0  1  0  0  0  0  0999 V2000
   11.3584  -17.8315   19.4866 N   0  0  0  0  0  0  0  0  0  0  0  0
   10.6614  -18.4398   20.5953 C   0  0  0  0  0  0  0  0  0  0  0  0
   10.3848  -17.4022   21.6680 C   0  0  0  0  0  0  0  0  0  0  0  0
   11.0361  -16.3462   21.6198 O   0  0  0  0  0  0  0  0  0  0  0  0
    9.4224  -17.6602   22.6599 N   0  0  0  0  0  0  0  0  0  0  0  0
    8.9849  -16.8235   23.7184 C   0  0  1  0  0  0  0  0  0  0  0  0
    7.5440  -16.4595   23.8054 C   0  0  0  0  0  0  0  0  0  0  0  0
    7.3007  -15.0072   23.6327 C   0  0  0  0  0  0  0  0  0  0  0  0
    7.4716  -14.2417   22.4948 C   0  0  0  0  0  0  0  0  0  0  0  0
    7.1603  -12.9874   22.8337 N   0  0  0  0  0  0  0  0  0  0  0  0
    6.7922  -12.8949   24.1384 C   0  0  0  0  0  0  0  0  0  0  0  0
    6.3955  -11.8386   24.9290 C   0  0  0  0  0  0  0  0  0  0  0  0
    6.0771  -12.0248   26.2461 C   0  0  0  0  0  0  0  0  0  0  0  0
    6.1611  -13.3158   26.7837 C   0  0  0  0  0  0  0  0  0  0  0  0
    6.5552  -14.3913   26.0110 C   0  0  0  0  0  0  0  0  0  0  0  0
    6.8724  -14.1682   24.6750 C   0  0  0  0  0  0  0  0  0  0  0  0
    9.6457  -17.1435   24.9963 C   0  0  0  0  0  0  0  0  0  0  0  0
   10.0492  -18.3255   25.1575 O   0  0  0  0  0  0  0  0  0  0  0  0
    9.7993  -14.0082   29.8172 C   0  0  0  0  0  0  0  0  0  0  0  0
    9.6353  -15.0684   28.7670 C   0  0  0  0  0  0  0  0  0  0  0  0
   10.9322  -15.4843   28.1144 C   0  0  2  0  0  0  0  0  0  0  0  0
   11.4655  -14.2353   27.4084 C   0  0  0  0  0  0  0  0  0  0  0  0
   10.7124  -16.6076   27.1694 C   0  0  2  0  0  0  0  0  0  0  0  0
    9.8502  -16.2067   26.0457 N   0  0  0  0  0  0  0  0  0  0  0  0
   10.0302  -17.7944   27.7777 C   0  0  0  0  0  0  0  0  0  0  0  0
    8.7710  -18.2364   27.3924 O   0  0  0  0  0  0  0  0  0  0  0  0
   10.5853  -18.4549   28.6882 O   0  0  0  0  0  0  0  0  0  0  0  0
  2  1  1  0
  3  2  1  0
  4  3  2  0
  5  3  1  0
  6  5  1  0
  6  7  1  1
  8  7  1  0
  9  8  2  0
 10 11  1  0
 10  9  1  0
 11 16  2  0
 12 11  1  0
 12 13  2  0
 13 14  1  0
 14 15  2  0
 16  8  1  0
 16 15  1  0
 17  6  1  0
 17 18  2  0
 20 21  1  0
 20 19  1  0
 21 22  1  6
 23 21  1  0
 23 24  1  6
 24 17  1  0
 25 23  1  0
 26 25  1  0
 27 25  2  0
M  END
$$$$
