GWI.pdb
     RDKit          3D

 27 28  0  0  1  0  0  0  0  0999 V2000
   10.2454  -16.5096   19.7692 N   0  0  0  0  0  0  0  0  0  0  0  0
    9.7442  -17.4077   20.7828 C   0  0  0  0  0  0  0  0  0  0  0  0
    9.6736  -16.6945   22.1207 C   0  0  0  0  0  0  0  0  0  0  0  0
   10.2578  -15.6031   22.2154 O   0  0  0  0  0  0  0  0  0  0  0  0
    8.9655  -17.2757   23.1873 N   0  0  0  0  0  0  0  0  0  0  0  0
    8.7469  -16.7703   24.4944 C   0  0  1  0  0  0  0  0  0  0  0  0
    7.4362  -17.0161   25.1560 C   0  0  0  0  0  0  0  0  0  0  0  0
    6.5358  -15.8389   25.1158 C   0  0  0  0  0  0  0  0  0  0  0  0
    5.1960  -15.7991   24.7791 C   0  0  0  0  0  0  0  0  0  0  0  0
    4.8261  -14.5175   24.8539 N   0  0  0  0  0  0  0  0  0  0  0  0
    5.8588  -13.7162   25.2249 C   0  0  0  0  0  0  0  0  0  0  0  0
    5.9659  -12.3580   25.4303 C   0  0  0  0  0  0  0  0  0  0  0  0
    7.1540  -11.7936   25.8057 C   0  0  0  0  0  0  0  0  0  0  0  0
    8.2693  -12.6236   25.9793 C   0  0  0  0  0  0  0  0  0  0  0  0
    8.1868  -13.9884   25.7803 C   0  0  0  0  0  0  0  0  0  0  0  0
    6.9639  -14.5310   25.3988 C   0  0  0  0  0  0  0  0  0  0  0  0
    9.9365  -16.9046   25.3541 C   0  0  0  0  0  0  0  0  0  0  0  0
   10.8183  -17.7287   24.9949 O   0  0  0  0  0  0  0  0  0  0  0  0
   10.6622  -14.1403   30.2903 C   0  0  0  0  0  0  0  0  0  0  0  0
   10.5366  -15.2683   29.3076 C   0  0  0  0  0  0  0  0  0  0  0  0
   11.6416  -15.3049   28.2787 C   0  0  2  0  0  0  0  0  0  0  0  0
   11.6590  -13.9174   27.6328 C   0  0  0  0  0  0  0  0  0  0  0  0
   11.4024  -16.3799   27.2837 C   0  0  2  0  0  0  0  0  0  0  0  0
   10.1430  -16.1675   26.5519 N   0  0  0  0  0  0  0  0  0  0  0  0
   11.2788  -17.7487   27.8795 C   0  0  0  0  0  0  0  0  0  0  0  0
   10.1019  -18.4865   27.8691 O   0  0  0  0  0  0  0  0  0  0  0  0
   12.2626  -18.2987   28.4298 O   0  0  0  0  0  0  0  0  0  0  0  0
  2  1  1  0
  3  2  1  0
  4  3  2  0
  5  3  1  0
  6  5  1  0
  6  7  1  1
  8  7  1  0
  9  8  2  0
 10 11  1  0
 10  9  1  0
 11 16  2  0
 12 11  1  0
 12 13  2  0
 13 14  1  0
 14 15  2  0
 16  8  1  0
 16 15  1  0
 17  6  1  0
 17 18  2  0
 20 21  1  0
 20 19  1  0
 21 22  1  6
 23 21  1  0
 23 24  1  1
 24 17  1  0
 25 23  1  0
 26 25  1  0
 27 25  2  0
M  END
$$$$
