GWI.pdb
     RDKit          3D

 27 28  0  0  1  0  0  0  0  0999 V2000
    7.3140  -21.6592   22.5817 N   0  0  0  0  0  0  0  0  0  0  0  0
    6.7246  -20.9140   23.6692 C   0  0  0  0  0  0  0  0  0  0  0  0
    7.4079  -19.5657   23.8060 C   0  0  0  0  0  0  0  0  0  0  0  0
    8.4714  -19.4010   23.1868 O   0  0  0  0  0  0  0  0  0  0  0  0
    6.8306  -18.5667   24.6095 N   0  0  0  0  0  0  0  0  0  0  0  0
    7.3121  -17.2642   24.8982 C   0  0  1  0  0  0  0  0  0  0  0  0
    6.3406  -16.1420   25.0128 C   0  0  0  0  0  0  0  0  0  0  0  0
    6.9700  -14.8100   24.8457 C   0  0  0  0  0  0  0  0  0  0  0  0
    7.8689  -14.4052   23.8771 C   0  0  0  0  0  0  0  0  0  0  0  0
    8.1782  -13.1358   24.1564 N   0  0  0  0  0  0  0  0  0  0  0  0
    7.5239  -12.6893   25.2604 C   0  0  0  0  0  0  0  0  0  0  0  0
    7.5186  -11.4819   25.9239 C   0  0  0  0  0  0  0  0  0  0  0  0
    6.7525  -11.2954   27.0417 C   0  0  0  0  0  0  0  0  0  0  0  0
    5.9672  -12.3588   27.5055 C   0  0  0  0  0  0  0  0  0  0  0  0
    5.9548  -13.5787   26.8569 C   0  0  0  0  0  0  0  0  0  0  0  0
    6.7454  -13.7359   25.7230 C   0  0  0  0  0  0  0  0  0  0  0  0
    8.4012  -17.2759   25.8910 C   0  0  0  0  0  0  0  0  0  0  0  0
    8.2064  -17.9221   26.9541 O   0  0  0  0  0  0  0  0  0  0  0  0
   13.5797  -17.0359   24.0802 C   0  0  0  0  0  0  0  0  0  0  0  0
   12.3155  -17.4142   24.7961 C   0  0  0  0  0  0  0  0  0  0  0  0
   12.0649  -16.6142   26.0524 C   0  0  2  0  0  0  0  0  0  0  0  0
   13.2166  -16.9531   27.0018 C   0  0  0  0  0  0  0  0  0  0  0  0
   10.7428  -16.9495   26.6380 C   0  0  2  0  0  0  0  0  0  0  0  0
    9.6438  -16.6066   25.7208 N   0  0  0  0  0  0  0  0  0  0  0  0
   10.4321  -16.2167   27.9069 C   0  0  0  0  0  0  0  0  0  0  0  0
   10.7793  -16.6847   29.1678 O   0  0  0  0  0  0  0  0  0  0  0  0
    9.8257  -15.1190   27.8804 O   0  0  0  0  0  0  0  0  0  0  0  0
  2  1  1  0
  3  2  1  0
  4  3  2  0
  5  3  1  0
  6  5  1  0
  6  7  1  1
  8  7  1  0
  9  8  2  0
 10 11  1  0
 10  9  1  0
 11 16  2  0
 12 11  1  0
 12 13  2  0
 13 14  1  0
 14 15  2  0
 16  8  1  0
 16 15  1  0
 17  6  1  0
 17 18  2  0
 20 21  1  0
 20 19  1  0
 21 22  1  1
 23 21  1  0
 23 24  1  6
 24 17  1  0
 25 23  1  0
 26 25  1  0
 27 25  2  0
M  END
$$$$
