GWI.pdb
     RDKit          3D

 27 28  0  0  1  0  0  0  0  0999 V2000
   11.8336  -17.3104   19.6345 N   0  0  0  0  0  0  0  0  0  0  0  0
   11.0497  -18.0169   20.6201 C   0  0  0  0  0  0  0  0  0  0  0  0
   10.6425  -17.0717   21.7357 C   0  0  0  0  0  0  0  0  0  0  0  0
   11.2171  -15.9723   21.7884 O   0  0  0  0  0  0  0  0  0  0  0  0
    9.6504  -17.4586   22.6538 N   0  0  0  0  0  0  0  0  0  0  0  0
    9.1099  -16.7298   23.7439 C   0  0  1  0  0  0  0  0  0  0  0  0
    7.6455  -16.4648   23.7827 C   0  0  0  0  0  0  0  0  0  0  0  0
    7.3126  -15.0253   23.6601 C   0  0  0  0  0  0  0  0  0  0  0  0
    7.3650  -14.2294   22.5314 C   0  0  0  0  0  0  0  0  0  0  0  0
    7.0094  -13.0013   22.9190 N   0  0  0  0  0  0  0  0  0  0  0  0
    6.7250  -12.9549   24.2469 C   0  0  0  0  0  0  0  0  0  0  0  0
    6.3254  -11.9379   25.0861 C   0  0  0  0  0  0  0  0  0  0  0  0
    6.1066  -12.1672   26.4168 C   0  0  0  0  0  0  0  0  0  0  0  0
    6.2965  -13.4618   26.9176 C   0  0  0  0  0  0  0  0  0  0  0  0
    6.6958  -14.4984   26.0960 C   0  0  0  0  0  0  0  0  0  0  0  0
    6.9101  -14.2319   24.7475 C   0  0  0  0  0  0  0  0  0  0  0  0
    9.7310  -17.0988   25.0285 C   0  0  0  0  0  0  0  0  0  0  0  0
   10.2239  -18.2538   25.1208 O   0  0  0  0  0  0  0  0  0  0  0  0
    9.9489  -13.8468   29.7853 C   0  0  0  0  0  0  0  0  0  0  0  0
    9.7086  -14.9605   28.8076 C   0  0  0  0  0  0  0  0  0  0  0  0
   10.9700  -15.4949   28.1718 C   0  0  2  0  0  0  0  0  0  0  0  0
   11.5860  -14.3189   27.4101 C   0  0  0  0  0  0  0  0  0  0  0  0
   10.6674  -16.6407   27.2782 C   0  0  2  0  0  0  0  0  0  0  0  0
    9.8036  -16.2370   26.1567 N   0  0  0  0  0  0  0  0  0  0  0  0
    9.9346  -17.7623   27.9481 C   0  0  0  0  0  0  0  0  0  0  0  0
    8.6693  -18.1888   27.5653 O   0  0  0  0  0  0  0  0  0  0  0  0
   10.4496  -18.3782   28.9118 O   0  0  0  0  0  0  0  0  0  0  0  0
  2  1  1  0
  3  2  1  0
  4  3  2  0
  5  3  1  0
  6  5  1  0
  6  7  1  1
  8  7  1  0
  9  8  2  0
 10 11  1  0
 10  9  1  0
 11 16  2  0
 12 11  1  0
 12 13  2  0
 13 14  1  0
 14 15  2  0
 16  8  1  0
 16 15  1  0
 17  6  1  0
 17 18  2  0
 20 21  1  0
 20 19  1  0
 21 22  1  6
 23 21  1  0
 23 24  1  6
 24 17  1  0
 25 23  1  0
 26 25  1  0
 27 25  2  0
M  END
$$$$
