GWI.pdb
     RDKit          3D

 27 28  0  0  1  0  0  0  0  0999 V2000
    5.6495  -17.2803   20.3480 N   0  0  0  0  0  0  0  0  0  0  0  0
    6.0859  -17.7136   21.6545 C   0  0  0  0  0  0  0  0  0  0  0  0
    7.2828  -16.8941   22.1012 C   0  0  0  0  0  0  0  0  0  0  0  0
    7.7638  -16.0955   21.2813 O   0  0  0  0  0  0  0  0  0  0  0  0
    7.7988  -17.0585   23.3988 N   0  0  0  0  0  0  0  0  0  0  0  0
    8.8870  -16.3920   24.0178 C   0  0  1  0  0  0  0  0  0  0  0  0
    8.7815  -16.0124   25.4534 C   0  0  0  0  0  0  0  0  0  0  0  0
    7.5616  -15.2269   25.7581 C   0  0  0  0  0  0  0  0  0  0  0  0
    6.2731  -15.6892   25.9486 C   0  0  0  0  0  0  0  0  0  0  0  0
    5.5131  -14.6112   26.1613 N   0  0  0  0  0  0  0  0  0  0  0  0
    6.2421  -13.4652   26.1208 C   0  0  0  0  0  0  0  0  0  0  0  0
    5.9115  -12.1367   26.2761 C   0  0  0  0  0  0  0  0  0  0  0  0
    6.8624  -11.1581   26.1805 C   0  0  0  0  0  0  0  0  0  0  0  0
    8.1879  -11.5296   25.9202 C   0  0  0  0  0  0  0  0  0  0  0  0
    8.5445  -12.8551   25.7617 C   0  0  0  0  0  0  0  0  0  0  0  0
    7.5535  -13.8260   25.8646 C   0  0  0  0  0  0  0  0  0  0  0  0
   10.1909  -16.9281   23.5885 C   0  0  0  0  0  0  0  0  0  0  0  0
   10.4246  -18.1414   23.8315 O   0  0  0  0  0  0  0  0  0  0  0  0
   13.7321  -14.3156   19.9283 C   0  0  0  0  0  0  0  0  0  0  0  0
   13.1669  -14.8813   21.1990 C   0  0  0  0  0  0  0  0  0  0  0  0
   12.8129  -16.3467   21.1081 C   0  0  2  0  0  0  0  0  0  0  0  0
   11.7018  -16.4452   20.0600 C   0  0  0  0  0  0  0  0  0  0  0  0
   12.3815  -16.8695   22.4286 C   0  0  2  0  0  0  0  0  0  0  0  0
   11.1890  -16.1637   22.9250 N   0  0  0  0  0  0  0  0  0  0  0  0
   13.4039  -16.7134   23.5122 C   0  0  0  0  0  0  0  0  0  0  0  0
   14.6459  -17.3352   23.4905 O   0  0  0  0  0  0  0  0  0  0  0  0
   13.1711  -15.9946   24.5134 O   0  0  0  0  0  0  0  0  0  0  0  0
  2  1  1  0
  3  2  1  0
  4  3  2  0
  5  3  1  0
  6  5  1  0
  6  7  1  1
  8  7  1  0
  9  8  2  0
 10 11  1  0
 10  9  1  0
 11 16  2  0
 12 11  1  0
 12 13  2  0
 13 14  1  0
 14 15  2  0
 16  8  1  0
 16 15  1  0
 17  6  1  0
 17 18  2  0
 20 21  1  0
 20 19  1  0
 21 22  1  6
 23 21  1  0
 23 24  1  1
 24 17  1  0
 25 23  1  0
 26 25  1  0
 27 25  2  0
M  END
$$$$
