GWI.pdb
     RDKit          3D

 27 28  0  0  1  0  0  0  0  0999 V2000
   12.5370  -16.5022   19.4283 N   0  0  0  0  0  0  0  0  0  0  0  0
   11.6781  -17.2933   20.2778 C   0  0  0  0  0  0  0  0  0  0  0  0
   11.0118  -16.4065   21.3139 C   0  0  0  0  0  0  0  0  0  0  0  0
   11.5760  -15.3369   21.5951 O   0  0  0  0  0  0  0  0  0  0  0  0
    9.8045  -16.8117   21.9098 N   0  0  0  0  0  0  0  0  0  0  0  0
    9.0680  -16.1871   22.9486 C   0  0  1  0  0  0  0  0  0  0  0  0
    7.5811  -16.1761   22.8764 C   0  0  0  0  0  0  0  0  0  0  0  0
    6.9467  -15.5577   24.0652 C   0  0  0  0  0  0  0  0  0  0  0  0
    6.2587  -16.1821   25.0884 C   0  0  0  0  0  0  0  0  0  0  0  0
    5.8443  -15.2137   25.9102 N   0  0  0  0  0  0  0  0  0  0  0  0
    6.2291  -13.9852   25.4754 C   0  0  0  0  0  0  0  0  0  0  0  0
    6.0425  -12.7133   25.9710 C   0  0  0  0  0  0  0  0  0  0  0  0
    6.5445  -11.6216   25.3173 C   0  0  0  0  0  0  0  0  0  0  0  0
    7.2566  -11.8175   24.1269 C   0  0  0  0  0  0  0  0  0  0  0  0
    7.4579  -13.0831   23.6103 C   0  0  0  0  0  0  0  0  0  0  0  0
    6.9342  -14.1724   24.2993 C   0  0  0  0  0  0  0  0  0  0  0  0
    9.6454  -16.4460   24.2796 C   0  0  0  0  0  0  0  0  0  0  0  0
   10.3596  -17.4750   24.4089 O   0  0  0  0  0  0  0  0  0  0  0  0
   10.7129  -14.0596   29.9337 C   0  0  0  0  0  0  0  0  0  0  0  0
   11.0647  -14.9257   28.7589 C   0  0  0  0  0  0  0  0  0  0  0  0
   10.1979  -14.6866   27.5454 C   0  0  2  0  0  0  0  0  0  0  0  0
    8.7677  -14.5478   28.0728 C   0  0  0  0  0  0  0  0  0  0  0  0
   10.3282  -15.8017   26.5745 C   0  0  2  0  0  0  0  0  0  0  0  0
    9.4439  -15.6121   25.4131 N   0  0  0  0  0  0  0  0  0  0  0  0
    9.9576  -17.1428   27.1294 C   0  0  0  0  0  0  0  0  0  0  0  0
   10.8673  -18.0009   27.7339 O   0  0  0  0  0  0  0  0  0  0  0  0
    8.7754  -17.5572   27.0665 O   0  0  0  0  0  0  0  0  0  0  0  0
  2  1  1  0
  3  2  1  0
  4  3  2  0
  5  3  1  0
  6  5  1  0
  6  7  1  1
  8  7  1  0
  9  8  2  0
 10 11  1  0
 10  9  1  0
 11 16  2  0
 12 11  1  0
 12 13  2  0
 13 14  1  0
 14 15  2  0
 16  8  1  0
 16 15  1  0
 17  6  1  0
 17 18  2  0
 20 21  1  0
 20 19  1  0
 21 22  1  1
 23 21  1  0
 23 24  1  6
 24 17  1  0
 25 23  1  0
 26 25  1  0
 27 25  2  0
M  END
$$$$
