HHN.pdb
     RDKit          3D

 29 30  0  0  1  0  0  0  0  0999 V2000
   25.0853   -9.3824  -20.4118 N   0  0  0  0  0  0  0  0  0  0  0  0
   25.0734   -8.3770  -19.3943 C   0  0  1  0  0  0  0  0  0  0  0  0
   25.1096   -6.9779  -20.0263 C   0  0  0  0  0  0  0  0  0  0  0  0
   26.3730   -6.7454  -20.7398 C   0  0  0  0  0  0  0  0  0  0  0  0
   26.6410   -7.1660  -22.0239 C   0  0  0  0  0  0  0  0  0  0  0  0
   27.9053   -6.7722  -22.3496 N   0  0  0  0  0  0  0  0  0  0  0  0
   28.4147   -6.1134  -21.2754 C   0  0  0  0  0  0  0  0  0  0  0  0
   27.4789   -6.1073  -20.3171 N   0  0  0  0  0  0  0  0  0  0  0  0
   23.8801   -8.4427  -18.5233 C   0  0  0  0  0  0  0  0  0  0  0  0
   22.7543   -8.5606  -19.0410 O   0  0  0  0  0  0  0  0  0  0  0  0
   23.9212   -8.3802  -17.1086 N   0  0  0  0  0  0  0  0  0  0  0  0
   22.7977   -8.5242  -16.2637 C   0  0  1  0  0  0  0  0  0  0  0  0
   23.0174   -9.2028  -14.9547 C   0  0  0  0  0  0  0  0  0  0  0  0
   23.2862  -10.6545  -15.1506 C   0  0  0  0  0  0  0  0  0  0  0  0
   23.2925  -11.3815  -16.3251 C   0  0  0  0  0  0  0  0  0  0  0  0
   23.5827  -12.6764  -16.0779 N   0  0  0  0  0  0  0  0  0  0  0  0
   23.7598  -12.7694  -14.7494 C   0  0  0  0  0  0  0  0  0  0  0  0
   23.5858  -11.5684  -14.1817 N   0  0  0  0  0  0  0  0  0  0  0  0
   22.1572   -7.1952  -16.0587 C   0  0  0  0  0  0  0  0  0  0  0  0
   22.7918   -6.2437  -15.5362 O   0  0  0  0  0  0  0  0  0  0  0  0
   19.9181   -2.7538  -18.4289 N   0  0  0  0  0  0  0  0  0  0  0  0
   19.2565   -3.8019  -17.6956 C   0  0  0  0  0  0  0  0  0  0  0  0
   18.1534   -3.6102  -17.1675 O   0  0  0  0  0  0  0  0  0  0  0  0
   19.9606   -5.0822  -17.6177 C   0  0  0  0  0  0  0  0  0  0  0  0
   20.1566   -5.6500  -16.2479 C   0  0  2  0  0  0  0  0  0  0  0  0
   20.8110   -6.9553  -16.4446 N   0  0  0  0  0  0  0  0  0  0  0  0
   18.9543   -5.7776  -15.4292 C   0  0  0  0  0  0  0  0  0  0  0  0
   18.1865   -6.7635  -15.4929 O   0  0  0  0  0  0  0  0  0  0  0  0
   18.6710   -4.7207  -14.5314 O   0  0  0  0  0  0  0  0  0  0  0  0
  2  3  1  0
  2  1  1  6
  4  8  1  0
  4  3  1  0
  5  4  2  0
  6  5  1  0
  6  7  1  0
  7  8  2  0
  9  2  1  0
 10  9  2  0
 11  9  1  0
 12 11  1  0
 13 14  1  0
 12 13  1  1
 14 15  2  0
 15 16  1  0
 17 16  1  0
 18 14  1  0
 18 17  2  0
 19 12  1  0
 19 26  1  0
 20 19  2  0
 22 21  1  0
 23 22  2  0
 24 22  1  0
 25 24  1  6
 25 27  1  0
 25 26  1  0
 27 29  1  0
 28 27  2  0
M  END
$$$$
