HHN.pdb
     RDKit          3D

 29 30  0  0  1  0  0  0  0  0999 V2000
   21.0431  -11.5592  -19.6967 N   0  0  0  0  0  0  0  0  0  0  0  0
   19.8324  -11.6348  -18.9386 C   0  0  1  0  0  0  0  0  0  0  0  0
   19.5519  -13.0867  -18.5245 C   0  0  0  0  0  0  0  0  0  0  0  0
   19.4121  -13.9605  -19.6978 C   0  0  0  0  0  0  0  0  0  0  0  0
   18.2175  -14.4551  -20.1733 C   0  0  0  0  0  0  0  0  0  0  0  0
   18.4770  -15.2234  -21.2696 N   0  0  0  0  0  0  0  0  0  0  0  0
   19.8212  -15.2039  -21.4701 C   0  0  0  0  0  0  0  0  0  0  0  0
   20.3667  -14.4394  -20.5151 N   0  0  0  0  0  0  0  0  0  0  0  0
   19.8634  -10.8172  -17.7068 C   0  0  0  0  0  0  0  0  0  0  0  0
   18.8552  -10.7758  -16.9780 O   0  0  0  0  0  0  0  0  0  0  0  0
   20.9814  -10.0579  -17.2817 N   0  0  0  0  0  0  0  0  0  0  0  0
   21.0181   -9.2648  -16.1128 C   0  0  1  0  0  0  0  0  0  0  0  0
   22.0594   -9.5994  -15.0999 C   0  0  0  0  0  0  0  0  0  0  0  0
   21.6012   -9.2346  -13.7306 C   0  0  0  0  0  0  0  0  0  0  0  0
   20.3841   -8.7132  -13.3368 C   0  0  0  0  0  0  0  0  0  0  0  0
   20.3626   -8.5206  -12.0009 N   0  0  0  0  0  0  0  0  0  0  0  0
   21.5635   -8.9191  -11.5495 C   0  0  0  0  0  0  0  0  0  0  0  0
   22.3148   -9.3485  -12.5724 N   0  0  0  0  0  0  0  0  0  0  0  0
   21.1047   -7.8268  -16.4912 C   0  0  0  0  0  0  0  0  0  0  0  0
   21.9203   -7.4342  -17.3638 O   0  0  0  0  0  0  0  0  0  0  0  0
   20.1072   -2.6787  -16.4913 N   0  0  0  0  0  0  0  0  0  0  0  0
   18.8805   -3.4164  -16.3331 C   0  0  0  0  0  0  0  0  0  0  0  0
   17.7835   -2.8452  -16.3852 O   0  0  0  0  0  0  0  0  0  0  0  0
   19.0144   -4.8565  -16.1114 C   0  0  0  0  0  0  0  0  0  0  0  0
   20.4018   -5.4119  -16.1744 C   0  0  2  0  0  0  0  0  0  0  0  0
   20.2718   -6.8501  -15.8820 N   0  0  0  0  0  0  0  0  0  0  0  0
   21.3853   -4.7797  -15.2998 C   0  0  0  0  0  0  0  0  0  0  0  0
   21.2853   -4.7728  -14.0526 O   0  0  0  0  0  0  0  0  0  0  0  0
   22.4922   -4.1537  -15.9214 O   0  0  0  0  0  0  0  0  0  0  0  0
  2  3  1  0
  2  1  1  1
  4  8  1  0
  4  3  1  0
  5  4  2  0
  6  5  1  0
  6  7  1  0
  7  8  2  0
  9  2  1  0
 10  9  2  0
 11  9  1  0
 12 11  1  0
 13 14  1  0
 12 13  1  1
 14 15  2  0
 15 16  1  0
 17 16  1  0
 18 14  1  0
 18 17  2  0
 19 12  1  0
 19 26  1  0
 20 19  2  0
 22 21  1  0
 23 22  2  0
 24 22  1  0
 25 24  1  1
 25 27  1  0
 25 26  1  0
 27 29  1  0
 28 27  2  0
M  END
$$$$
