HHN.pdb
     RDKit          3D

 29 30  0  0  1  0  0  0  0  0999 V2000
   26.4602  -32.6785  -13.5521 N   0  0  0  0  0  0  0  0  0  0  0  0
   25.4488  -33.3628  -12.8070 C   0  0  1  0  0  0  0  0  0  0  0  0
   25.8116  -34.8470  -12.6534 C   0  0  0  0  0  0  0  0  0  0  0  0
   25.5467  -35.5937  -13.8911 C   0  0  0  0  0  0  0  0  0  0  0  0
   24.5122  -35.3319  -14.7624 C   0  0  0  0  0  0  0  0  0  0  0  0
   24.5825  -36.2231  -15.7922 N   0  0  0  0  0  0  0  0  0  0  0  0
   25.6518  -37.0292  -15.5592 C   0  0  0  0  0  0  0  0  0  0  0  0
   26.2192  -36.6355  -14.4115 N   0  0  0  0  0  0  0  0  0  0  0  0
   25.2487  -32.8092  -11.4504 C   0  0  0  0  0  0  0  0  0  0  0  0
   26.1243  -32.0745  -10.9574 O   0  0  0  0  0  0  0  0  0  0  0  0
   24.1077  -33.0575  -10.6482 N   0  0  0  0  0  0  0  0  0  0  0  0
   23.8876  -32.5015   -9.3679 C   0  0  1  0  0  0  0  0  0  0  0  0
   22.4878  -32.1180   -9.0278 C   0  0  0  0  0  0  0  0  0  0  0  0
   22.1184  -30.8320   -9.6817 C   0  0  0  0  0  0  0  0  0  0  0  0
   22.9001  -30.0045  -10.4642 C   0  0  0  0  0  0  0  0  0  0  0  0
   22.1915  -28.9293  -10.8693 N   0  0  0  0  0  0  0  0  0  0  0  0
   20.9635  -29.0755  -10.3445 C   0  0  0  0  0  0  0  0  0  0  0  0
   20.9049  -30.2086   -9.6319 N   0  0  0  0  0  0  0  0  0  0  0  0
   24.4437  -33.4122   -8.3288 C   0  0  0  0  0  0  0  0  0  0  0  0
   24.2349  -34.6513   -8.3741 O   0  0  0  0  0  0  0  0  0  0  0  0
   27.0590  -35.0471   -4.1053 N   0  0  0  0  0  0  0  0  0  0  0  0
   27.6166  -33.7860   -4.5208 C   0  0  0  0  0  0  0  0  0  0  0  0
   28.6363  -33.3336   -3.9841 O   0  0  0  0  0  0  0  0  0  0  0  0
   26.9122  -33.0893   -5.5975 C   0  0  0  0  0  0  0  0  0  0  0  0
   25.7188  -33.7859   -6.1700 C   0  0  2  0  0  0  0  0  0  0  0  0
   25.2274  -32.9158   -7.2527 N   0  0  0  0  0  0  0  0  0  0  0  0
   24.6532  -34.1115   -5.2263 C   0  0  0  0  0  0  0  0  0  0  0  0
   23.5565  -33.5098   -5.2008 O   0  0  0  0  0  0  0  0  0  0  0  0
   24.9024  -35.1613   -4.3102 O   0  0  0  0  0  0  0  0  0  0  0  0
  2  3  1  0
  2  1  1  1
  4  8  1  0
  4  3  1  0
  5  4  2  0
  6  5  1  0
  6  7  1  0
  7  8  2  0
  9  2  1  0
 10  9  2  0
 11  9  1  0
 12 11  1  0
 13 14  1  0
 12 13  1  1
 14 15  2  0
 15 16  1  0
 17 16  1  0
 18 14  1  0
 18 17  2  0
 19 12  1  0
 19 26  1  0
 20 19  2  0
 22 21  1  0
 23 22  2  0
 24 22  1  0
 25 24  1  1
 25 27  1  0
 25 26  1  0
 27 29  1  0
 28 27  2  0
M  END
$$$$
