HHN.pdb
     RDKit          3D

 29 30  0  0  1  0  0  0  0  0999 V2000
   23.1711  -14.1024  -17.6471 N   0  0  0  0  0  0  0  0  0  0  0  0
   22.3589  -12.9428  -17.8518 C   0  0  1  0  0  0  0  0  0  0  0  0
   20.8706  -13.3145  -17.7807 C   0  0  0  0  0  0  0  0  0  0  0  0
   20.5133  -14.2933  -18.8169 C   0  0  0  0  0  0  0  0  0  0  0  0
   20.7234  -14.1222  -20.1676 C   0  0  0  0  0  0  0  0  0  0  0  0
   20.2679  -15.2314  -20.8169 N   0  0  0  0  0  0  0  0  0  0  0  0
   19.7801  -16.0815  -19.8750 C   0  0  0  0  0  0  0  0  0  0  0  0
   19.9363  -15.5001  -18.6784 N   0  0  0  0  0  0  0  0  0  0  0  0
   22.6012  -11.8776  -16.8550 C   0  0  0  0  0  0  0  0  0  0  0  0
   22.3906  -12.1115  -15.6507 O   0  0  0  0  0  0  0  0  0  0  0  0
   23.0665  -10.5780  -17.1738 N   0  0  0  0  0  0  0  0  0  0  0  0
   23.2726   -9.5438  -16.2333 C   0  0  1  0  0  0  0  0  0  0  0  0
   24.5633   -8.8022  -16.3143 C   0  0  0  0  0  0  0  0  0  0  0  0
   25.7156   -9.7231  -16.1099 C   0  0  0  0  0  0  0  0  0  0  0  0
   25.7025  -11.0817  -15.8600 C   0  0  0  0  0  0  0  0  0  0  0  0
   26.9619  -11.5515  -15.7355 N   0  0  0  0  0  0  0  0  0  0  0  0
   27.7710  -10.4927  -15.9062 C   0  0  0  0  0  0  0  0  0  0  0  0
   27.0400   -9.3925  -16.1309 N   0  0  0  0  0  0  0  0  0  0  0  0
   22.1250   -8.5954  -16.2788 C   0  0  0  0  0  0  0  0  0  0  0  0
   21.5377   -8.3402  -17.3610 O   0  0  0  0  0  0  0  0  0  0  0  0
   19.2844   -9.2339  -12.4343 N   0  0  0  0  0  0  0  0  0  0  0  0
   19.1237   -8.5762  -13.7053 C   0  0  0  0  0  0  0  0  0  0  0  0
   18.4732   -9.1038  -14.6169 O   0  0  0  0  0  0  0  0  0  0  0  0
   19.7673   -7.2696  -13.8448 C   0  0  0  0  0  0  0  0  0  0  0  0
   20.5046   -7.0256  -15.1231 C   0  0  2  0  0  0  0  0  0  0  0  0
   21.6540   -7.9472  -15.1056 N   0  0  0  0  0  0  0  0  0  0  0  0
   20.9314   -5.6501  -15.3640 C   0  0  0  0  0  0  0  0  0  0  0  0
   22.1336   -5.3061  -15.4080 O   0  0  0  0  0  0  0  0  0  0  0  0
   19.9146   -4.6837  -15.5528 O   0  0  0  0  0  0  0  0  0  0  0  0
  2  3  1  0
  2  1  1  1
  4  8  1  0
  4  3  1  0
  5  4  2  0
  6  5  1  0
  6  7  1  0
  7  8  2  0
  9  2  1  0
 10  9  2  0
 11  9  1  0
 12 11  1  0
 13 14  1  0
 12 13  1  6
 14 15  2  0
 15 16  1  0
 17 16  1  0
 18 14  1  0
 18 17  2  0
 19 12  1  0
 19 26  1  0
 20 19  2  0
 22 21  1  0
 23 22  2  0
 24 22  1  0
 25 24  1  1
 25 27  1  0
 25 26  1  0
 27 29  1  0
 28 27  2  0
M  END
$$$$
