HHN.pdb
     RDKit          3D

 29 30  0  0  1  0  0  0  0  0999 V2000
   20.4783  -13.8905  -16.5864 N   0  0  0  0  0  0  0  0  0  0  0  0
   20.1395  -12.8023  -17.4509 C   0  0  1  0  0  0  0  0  0  0  0  0
   18.6871  -12.9350  -17.9315 C   0  0  0  0  0  0  0  0  0  0  0  0
   18.4899  -14.1686  -18.7053 C   0  0  0  0  0  0  0  0  0  0  0  0
   18.7641  -14.3081  -20.0481 C   0  0  0  0  0  0  0  0  0  0  0  0
   18.4584  -15.5845  -20.4183 N   0  0  0  0  0  0  0  0  0  0  0  0
   17.9989  -16.2287  -19.3131 C   0  0  0  0  0  0  0  0  0  0  0  0
   18.0251  -15.3613  -18.2928 N   0  0  0  0  0  0  0  0  0  0  0  0
   20.2769  -11.4793  -16.8047 C   0  0  0  0  0  0  0  0  0  0  0  0
   19.7737  -11.2954  -15.6811 O   0  0  0  0  0  0  0  0  0  0  0  0
   20.9547  -10.3768  -17.3811 N   0  0  0  0  0  0  0  0  0  0  0  0
   21.0970   -9.1107  -16.7701 C   0  0  1  0  0  0  0  0  0  0  0  0
   22.1299   -8.1975  -17.3370 C   0  0  0  0  0  0  0  0  0  0  0  0
   22.2596   -6.9670  -16.5082 C   0  0  0  0  0  0  0  0  0  0  0  0
   21.5915   -6.6333  -15.3461 C   0  0  0  0  0  0  0  0  0  0  0  0
   21.9947   -5.4248  -14.8996 N   0  0  0  0  0  0  0  0  0  0  0  0
   22.9162   -4.9941  -15.7771 C   0  0  0  0  0  0  0  0  0  0  0  0
   23.0851   -5.9056  -16.7444 N   0  0  0  0  0  0  0  0  0  0  0  0
   19.7726   -8.4309  -16.7223 C   0  0  0  0  0  0  0  0  0  0  0  0
   19.0161   -8.4141  -17.7265 O   0  0  0  0  0  0  0  0  0  0  0  0
   15.5171   -6.0227  -15.0144 N   0  0  0  0  0  0  0  0  0  0  0  0
   15.7782   -7.3255  -14.4590 C   0  0  0  0  0  0  0  0  0  0  0  0
   14.9279   -7.9061  -13.7717 O   0  0  0  0  0  0  0  0  0  0  0  0
   17.0886   -7.9053  -14.7550 C   0  0  0  0  0  0  0  0  0  0  0  0
   18.0485   -7.0321  -15.4988 C   0  0  2  0  0  0  0  0  0  0  0  0
   19.3176   -7.7791  -15.5447 N   0  0  0  0  0  0  0  0  0  0  0  0
   18.2427   -5.6891  -14.9597 C   0  0  0  0  0  0  0  0  0  0  0  0
   18.7626   -5.4704  -13.8429 O   0  0  0  0  0  0  0  0  0  0  0  0
   17.8128   -4.6047  -15.7613 O   0  0  0  0  0  0  0  0  0  0  0  0
  2  3  1  0
  2  1  1  1
  4  8  1  0
  4  3  1  0
  5  4  2  0
  6  5  1  0
  6  7  1  0
  7  8  2  0
  9  2  1  0
 10  9  2  0
 11  9  1  0
 12 11  1  0
 13 14  1  0
 12 13  1  6
 14 15  2  0
 15 16  1  0
 17 16  1  0
 18 14  1  0
 18 17  2  0
 19 12  1  0
 19 26  1  0
 20 19  2  0
 22 21  1  0
 23 22  2  0
 24 22  1  0
 25 24  1  1
 25 27  1  0
 25 26  1  0
 27 29  1  0
 28 27  2  0
M  END
$$$$
