HHN.pdb
     RDKit          3D

 29 30  0  0  1  0  0  0  0  0999 V2000
   15.1534  -16.6879    2.9474 N   0  0  0  0  0  0  0  0  0  0  0  0
   15.7303  -17.5405    3.9406 C   0  0  1  0  0  0  0  0  0  0  0  0
   16.4880  -18.6985    3.2749 C   0  0  0  0  0  0  0  0  0  0  0  0
   15.6073  -19.4779    2.3937 C   0  0  0  0  0  0  0  0  0  0  0  0
   14.8576  -20.5635    2.7901 C   0  0  0  0  0  0  0  0  0  0  0  0
   14.1694  -21.0280    1.7084 N   0  0  0  0  0  0  0  0  0  0  0  0
   14.4911  -20.2358    0.6518 C   0  0  0  0  0  0  0  0  0  0  0  0
   15.3570  -19.3093    1.0831 N   0  0  0  0  0  0  0  0  0  0  0  0
   16.6799  -16.8391    4.8313 C   0  0  0  0  0  0  0  0  0  0  0  0
   17.9004  -16.9107    4.5972 O   0  0  0  0  0  0  0  0  0  0  0  0
   16.2973  -16.0724    5.9594 N   0  0  0  0  0  0  0  0  0  0  0  0
   17.1934  -15.3729    6.7986 C   0  0  1  0  0  0  0  0  0  0  0  0
   17.0227  -13.8947    6.8889 C   0  0  0  0  0  0  0  0  0  0  0  0
   17.6789  -13.2156    5.7374 C   0  0  0  0  0  0  0  0  0  0  0  0
   17.0949  -12.6477    4.6218 C   0  0  0  0  0  0  0  0  0  0  0  0
   18.0380  -12.1310    3.8058 N   0  0  0  0  0  0  0  0  0  0  0  0
   19.2170  -12.3713    4.4034 C   0  0  0  0  0  0  0  0  0  0  0  0
   19.0181  -13.0191    5.5592 N   0  0  0  0  0  0  0  0  0  0  0  0
   17.1784  -15.9815    8.1580 C   0  0  0  0  0  0  0  0  0  0  0  0
   16.1427  -16.5332    8.6095 O   0  0  0  0  0  0  0  0  0  0  0  0
   18.2711  -20.2978   10.9900 N   0  0  0  0  0  0  0  0  0  0  0  0
   18.5428  -18.9097   11.2607 C   0  0  0  0  0  0  0  0  0  0  0  0
   18.6762  -18.5023   12.4220 O   0  0  0  0  0  0  0  0  0  0  0  0
   18.6485  -18.0309   10.0956 C   0  0  0  0  0  0  0  0  0  0  0  0
   18.3465  -16.5841   10.3255 C   0  0  2  0  0  0  0  0  0  0  0  0
   18.3294  -15.9607    8.9906 N   0  0  0  0  0  0  0  0  0  0  0  0
   19.2492  -15.8770   11.2295 C   0  0  0  0  0  0  0  0  0  0  0  0
   20.2205  -15.1967   10.8301 O   0  0  0  0  0  0  0  0  0  0  0  0
   18.9874  -15.9852   12.6163 O   0  0  0  0  0  0  0  0  0  0  0  0
  2  3  1  0
  2  1  1  6
  4  8  1  0
  4  3  1  0
  5  4  2  0
  6  5  1  0
  6  7  1  0
  7  8  2  0
  9  2  1  0
 10  9  2  0
 11  9  1  0
 12 11  1  0
 13 14  1  0
 12 13  1  1
 14 15  2  0
 15 16  1  0
 17 16  1  0
 18 14  1  0
 18 17  2  0
 19 12  1  0
 19 26  1  0
 20 19  2  0
 22 21  1  0
 23 22  2  0
 24 22  1  0
 25 24  1  6
 25 27  1  0
 25 26  1  0
 27 29  1  0
 28 27  2  0
M  END
$$$$
