HHN.pdb
     RDKit          3D

 29 30  0  0  1  0  0  0  0  0999 V2000
   22.8552  -15.3773  -17.6700 N   0  0  0  0  0  0  0  0  0  0  0  0
   22.8604  -14.1360  -18.3809 C   0  0  1  0  0  0  0  0  0  0  0  0
   21.4776  -13.8648  -18.9911 C   0  0  0  0  0  0  0  0  0  0  0  0
   21.0917  -14.9236  -19.9343 C   0  0  0  0  0  0  0  0  0  0  0  0
   21.6492  -15.1096  -21.1803 C   0  0  0  0  0  0  0  0  0  0  0  0
   21.0439  -16.1823  -21.7656 N   0  0  0  0  0  0  0  0  0  0  0  0
   20.1197  -16.6555  -20.8884 C   0  0  0  0  0  0  0  0  0  0  0  0
   20.1630  -15.8859  -19.7929 N   0  0  0  0  0  0  0  0  0  0  0  0
   23.2078  -12.9778  -17.5296 C   0  0  0  0  0  0  0  0  0  0  0  0
   22.6865  -12.8712  -16.4043 O   0  0  0  0  0  0  0  0  0  0  0  0
   24.1116  -11.9539  -17.9063 N   0  0  0  0  0  0  0  0  0  0  0  0
   24.4903  -10.8711  -17.0812 C   0  0  1  0  0  0  0  0  0  0  0  0
   25.9144  -10.4352  -17.1472 C   0  0  0  0  0  0  0  0  0  0  0  0
   26.8168  -11.4966  -16.6208 C   0  0  0  0  0  0  0  0  0  0  0  0
   26.4855  -12.6613  -15.9562 C   0  0  0  0  0  0  0  0  0  0  0  0
   27.5976  -13.3599  -15.6438 N   0  0  0  0  0  0  0  0  0  0  0  0
   28.6311  -12.6390  -16.1097 C   0  0  0  0  0  0  0  0  0  0  0  0
   28.1796  -11.5223  -16.6963 N   0  0  0  0  0  0  0  0  0  0  0  0
   23.5819   -9.7169  -17.3287 C   0  0  0  0  0  0  0  0  0  0  0  0
   23.1447   -9.4719  -18.4819 O   0  0  0  0  0  0  0  0  0  0  0  0
   19.0188   -7.0753  -15.4644 N   0  0  0  0  0  0  0  0  0  0  0  0
   20.3677   -6.6426  -15.2056 C   0  0  0  0  0  0  0  0  0  0  0  0
   20.6199   -5.4543  -14.9670 O   0  0  0  0  0  0  0  0  0  0  0  0
   21.3993   -7.6796  -15.2426 C   0  0  0  0  0  0  0  0  0  0  0  0
   22.2306   -7.7454  -16.4843 C   0  0  2  0  0  0  0  0  0  0  0  0
   23.1780   -8.8541  -16.2746 N   0  0  0  0  0  0  0  0  0  0  0  0
   22.9263   -6.5164  -16.8554 C   0  0  0  0  0  0  0  0  0  0  0  0
   24.0945   -6.2564  -16.4903 O   0  0  0  0  0  0  0  0  0  0  0  0
   22.2201   -5.5961  -17.6665 O   0  0  0  0  0  0  0  0  0  0  0  0
  2  3  1  0
  2  1  1  1
  4  8  1  0
  4  3  1  0
  5  4  2  0
  6  5  1  0
  6  7  1  0
  7  8  2  0
  9  2  1  0
 10  9  2  0
 11  9  1  0
 12 11  1  0
 13 14  1  0
 12 13  1  6
 14 15  2  0
 15 16  1  0
 17 16  1  0
 18 14  1  0
 18 17  2  0
 19 12  1  0
 19 26  1  0
 20 19  2  0
 22 21  1  0
 23 22  2  0
 24 22  1  0
 25 24  1  1
 25 27  1  0
 25 26  1  0
 27 29  1  0
 28 27  2  0
M  END
$$$$
