HHN.pdb
     RDKit          3D

 29 30  0  0  1  0  0  0  0  0999 V2000
   17.4953   -9.3465  -12.8879 N   0  0  0  0  0  0  0  0  0  0  0  0
   18.0237   -8.4656  -11.8923 C   0  0  1  0  0  0  0  0  0  0  0  0
   19.1354   -7.5908  -12.4898 C   0  0  0  0  0  0  0  0  0  0  0  0
   20.2315   -8.4099  -13.0257 C   0  0  0  0  0  0  0  0  0  0  0  0
   20.2836   -9.7856  -12.9754 C   0  0  0  0  0  0  0  0  0  0  0  0
   21.4422  -10.1933  -13.5678 N   0  0  0  0  0  0  0  0  0  0  0  0
   22.1010   -9.0784  -13.9810 C   0  0  0  0  0  0  0  0  0  0  0  0
   21.3576   -8.0157  -13.6463 N   0  0  0  0  0  0  0  0  0  0  0  0
   17.0063   -7.5616  -11.3140 C   0  0  0  0  0  0  0  0  0  0  0  0
   16.1848   -7.0080  -12.0678 O   0  0  0  0  0  0  0  0  0  0  0  0
   16.8920   -7.2697   -9.9324 N   0  0  0  0  0  0  0  0  0  0  0  0
   15.8840   -6.4606   -9.3615 C   0  0  1  0  0  0  0  0  0  0  0  0
   14.9703   -7.1097   -8.3787 C   0  0  0  0  0  0  0  0  0  0  0  0
   14.1854   -8.1977   -9.0254 C   0  0  0  0  0  0  0  0  0  0  0  0
   14.3498   -9.5648   -8.9151 C   0  0  0  0  0  0  0  0  0  0  0  0
   13.4311  -10.2130   -9.6621 N   0  0  0  0  0  0  0  0  0  0  0  0
   12.6864   -9.2584  -10.2443 C   0  0  0  0  0  0  0  0  0  0  0  0
   13.1257   -8.0484   -9.8729 N   0  0  0  0  0  0  0  0  0  0  0  0
   16.5020   -5.2415   -8.7696 C   0  0  0  0  0  0  0  0  0  0  0  0
   17.4529   -5.3289   -7.9515 O   0  0  0  0  0  0  0  0  0  0  0  0
   18.2765    0.1019   -9.9462 N   0  0  0  0  0  0  0  0  0  0  0  0
   18.2205   -0.9176   -8.9306 C   0  0  0  0  0  0  0  0  0  0  0  0
   18.6566   -0.7056   -7.7916 O   0  0  0  0  0  0  0  0  0  0  0  0
   17.6261   -2.1946   -9.3265 C   0  0  0  0  0  0  0  0  0  0  0  0
   16.5474   -2.7287   -8.4385 C   0  0  2  0  0  0  0  0  0  0  0  0
   16.0411   -3.9404   -9.1065 N   0  0  0  0  0  0  0  0  0  0  0  0
   15.4619   -1.8046   -8.1223 C   0  0  0  0  0  0  0  0  0  0  0  0
   14.3966   -1.7534   -8.7766 O   0  0  0  0  0  0  0  0  0  0  0  0
   15.6533   -0.9394   -7.0186 O   0  0  0  0  0  0  0  0  0  0  0  0
  2  3  1  0
  2  1  1  6
  4  8  1  0
  4  3  1  0
  5  4  2  0
  6  5  1  0
  6  7  1  0
  7  8  2  0
  9  2  1  0
 10  9  2  0
 11  9  1  0
 12 11  1  0
 13 14  1  0
 12 13  1  1
 14 15  2  0
 15 16  1  0
 17 16  1  0
 18 14  1  0
 18 17  2  0
 19 12  1  0
 19 26  1  0
 20 19  2  0
 22 21  1  0
 23 22  2  0
 24 22  1  0
 25 24  1  6
 25 27  1  0
 25 26  1  0
 27 29  1  0
 28 27  2  0
M  END
$$$$
