HHN.pdb
     RDKit          3D

 29 30  0  0  1  0  0  0  0  0999 V2000
   23.8570  -15.4616  -16.8434 N   0  0  0  0  0  0  0  0  0  0  0  0
   23.3383  -16.4821  -17.7013 C   0  0  1  0  0  0  0  0  0  0  0  0
   24.1686  -16.5686  -18.9901 C   0  0  0  0  0  0  0  0  0  0  0  0
   24.2732  -15.2589  -19.6484 C   0  0  0  0  0  0  0  0  0  0  0  0
   23.5126  -14.8553  -20.7237 C   0  0  0  0  0  0  0  0  0  0  0  0
   23.8856  -13.5879  -21.0617 N   0  0  0  0  0  0  0  0  0  0  0  0
   24.8689  -13.2112  -20.2022 C   0  0  0  0  0  0  0  0  0  0  0  0
   25.0884  -14.2291  -19.3596 N   0  0  0  0  0  0  0  0  0  0  0  0
   23.3390  -17.8235  -17.0787 C   0  0  0  0  0  0  0  0  0  0  0  0
   22.9810  -18.8073  -17.7521 O   0  0  0  0  0  0  0  0  0  0  0  0
   23.7258  -18.0813  -15.7405 N   0  0  0  0  0  0  0  0  0  0  0  0
   23.6695  -19.3477  -15.1162 C   0  0  1  0  0  0  0  0  0  0  0  0
   24.8704  -19.7759  -14.3438 C   0  0  0  0  0  0  0  0  0  0  0  0
   26.0608  -19.8804  -15.2326 C   0  0  0  0  0  0  0  0  0  0  0  0
   26.1398  -19.6851  -16.5978 C   0  0  0  0  0  0  0  0  0  0  0  0
   27.4044  -19.8753  -17.0300 N   0  0  0  0  0  0  0  0  0  0  0  0
   28.1249  -20.1904  -15.9407 C   0  0  0  0  0  0  0  0  0  0  0  0
   27.3349  -20.1973  -14.8586 N   0  0  0  0  0  0  0  0  0  0  0  0
   22.4492  -19.4282  -14.2659 C   0  0  0  0  0  0  0  0  0  0  0  0
   22.1338  -18.4868  -13.4942 O   0  0  0  0  0  0  0  0  0  0  0  0
   17.7541  -20.3066  -12.5775 N   0  0  0  0  0  0  0  0  0  0  0  0
   18.1605  -19.3306  -13.5553 C   0  0  0  0  0  0  0  0  0  0  0  0
   17.3737  -18.4603  -13.9506 O   0  0  0  0  0  0  0  0  0  0  0  0
   19.5370  -19.4338  -14.0405 C   0  0  0  0  0  0  0  0  0  0  0  0
   20.3217  -20.6153  -13.5656 C   0  0  2  0  0  0  0  0  0  0  0  0
   21.6006  -20.5673  -14.2957 N   0  0  0  0  0  0  0  0  0  0  0  0
   19.6747  -21.9158  -13.7143 C   0  0  0  0  0  0  0  0  0  0  0  0
   19.5912  -22.5156  -14.8092 O   0  0  0  0  0  0  0  0  0  0  0  0
   19.1260  -22.4996  -12.5475 O   0  0  0  0  0  0  0  0  0  0  0  0
  2  3  1  0
  2  1  1  1
  4  8  1  0
  4  3  1  0
  5  4  2  0
  6  5  1  0
  6  7  1  0
  7  8  2  0
  9  2  1  0
 10  9  2  0
 11  9  1  0
 12 11  1  0
 13 14  1  0
 12 13  1  1
 14 15  2  0
 15 16  1  0
 17 16  1  0
 18 14  1  0
 18 17  2  0
 19 12  1  0
 19 26  1  0
 20 19  2  0
 22 21  1  0
 23 22  2  0
 24 22  1  0
 25 24  1  6
 25 27  1  0
 25 26  1  0
 27 29  1  0
 28 27  2  0
M  END
$$$$
