HHN.pdb
     RDKit          3D

 29 30  0  0  1  0  0  0  0  0999 V2000
   20.0066  -14.2261  -16.6803 N   0  0  0  0  0  0  0  0  0  0  0  0
   18.9330  -13.3221  -16.9570 C   0  0  1  0  0  0  0  0  0  0  0  0
   17.9008  -13.3559  -15.8206 C   0  0  0  0  0  0  0  0  0  0  0  0
   17.1416  -14.6142  -15.8243 C   0  0  0  0  0  0  0  0  0  0  0  0
   17.0914  -15.5003  -16.8778 C   0  0  0  0  0  0  0  0  0  0  0  0
   16.2938  -16.5471  -16.5206 N   0  0  0  0  0  0  0  0  0  0  0  0
   15.8545  -16.3099  -15.2564 C   0  0  0  0  0  0  0  0  0  0  0  0
   16.3747  -15.1429  -14.8542 N   0  0  0  0  0  0  0  0  0  0  0  0
   19.3769  -11.9204  -17.1155 C   0  0  0  0  0  0  0  0  0  0  0  0
   20.1591  -11.4313  -16.2798 O   0  0  0  0  0  0  0  0  0  0  0  0
   18.9697  -11.0697  -18.1727 N   0  0  0  0  0  0  0  0  0  0  0  0
   19.4210   -9.7436  -18.3579 C   0  0  1  0  0  0  0  0  0  0  0  0
   20.0759   -9.4267  -19.6590 C   0  0  0  0  0  0  0  0  0  0  0  0
   21.3365  -10.2034  -19.8192 C   0  0  0  0  0  0  0  0  0  0  0  0
   21.9922  -10.9878  -18.8903 C   0  0  0  0  0  0  0  0  0  0  0  0
   23.1071  -11.5257  -19.4288 N   0  0  0  0  0  0  0  0  0  0  0  0
   23.1573  -11.0830  -20.6962 C   0  0  0  0  0  0  0  0  0  0  0  0
   22.1052  -10.2913  -20.9440 N   0  0  0  0  0  0  0  0  0  0  0  0
   18.3013   -8.7970  -18.0959 C   0  0  0  0  0  0  0  0  0  0  0  0
   17.1390   -9.0373  -18.5108 O   0  0  0  0  0  0  0  0  0  0  0  0
   15.7418   -7.2140  -15.0307 N   0  0  0  0  0  0  0  0  0  0  0  0
   16.8222   -6.3136  -14.7210 C   0  0  0  0  0  0  0  0  0  0  0  0
   16.9643   -5.8595  -13.5782 O   0  0  0  0  0  0  0  0  0  0  0  0
   17.7226   -5.9781  -15.8246 C   0  0  0  0  0  0  0  0  0  0  0  0
   17.4240   -6.6178  -17.1432 C   0  0  2  0  0  0  0  0  0  0  0  0
   18.5052   -7.5926  -17.3703 N   0  0  0  0  0  0  0  0  0  0  0  0
   17.2814   -5.7101  -18.2780 C   0  0  0  0  0  0  0  0  0  0  0  0
   18.2260   -5.4255  -19.0475 O   0  0  0  0  0  0  0  0  0  0  0  0
   16.0028   -5.1415  -18.4916 O   0  0  0  0  0  0  0  0  0  0  0  0
  2  3  1  0
  2  1  1  1
  4  8  1  0
  4  3  1  0
  5  4  2  0
  6  5  1  0
  6  7  1  0
  7  8  2  0
  9  2  1  0
 10  9  2  0
 11  9  1  0
 12 11  1  0
 13 14  1  0
 12 13  1  6
 14 15  2  0
 15 16  1  0
 17 16  1  0
 18 14  1  0
 18 17  2  0
 19 12  1  0
 19 26  1  0
 20 19  2  0
 22 21  1  0
 23 22  2  0
 24 22  1  0
 25 24  1  1
 25 27  1  0
 25 26  1  0
 27 29  1  0
 28 27  2  0
M  END
$$$$
