HHN.pdb
     RDKit          3D

 29 30  0  0  1  0  0  0  0  0999 V2000
   29.1420  -10.5625  -17.2395 N   0  0  0  0  0  0  0  0  0  0  0  0
   28.8485   -9.2760  -17.7917 C   0  0  1  0  0  0  0  0  0  0  0  0
   29.4945   -9.1301  -19.1772 C   0  0  0  0  0  0  0  0  0  0  0  0
   30.9410   -9.3832  -19.1227 C   0  0  0  0  0  0  0  0  0  0  0  0
   31.5660  -10.1819  -18.1904 C   0  0  0  0  0  0  0  0  0  0  0  0
   32.9044  -10.1798  -18.4515 N   0  0  0  0  0  0  0  0  0  0  0  0
   33.1051   -9.3861  -19.5366 C   0  0  0  0  0  0  0  0  0  0  0  0
   31.9130   -8.9159  -19.9262 N   0  0  0  0  0  0  0  0  0  0  0  0
   27.3995   -9.0242  -17.9459 C   0  0  0  0  0  0  0  0  0  0  0  0
   27.0197   -8.0190  -18.5742 O   0  0  0  0  0  0  0  0  0  0  0  0
   26.3844   -9.8607  -17.4197 N   0  0  0  0  0  0  0  0  0  0  0  0
   24.9977   -9.6176  -17.5416 C   0  0  1  0  0  0  0  0  0  0  0  0
   24.1011  -10.8083  -17.5656 C   0  0  0  0  0  0  0  0  0  0  0  0
   24.1853  -11.5070  -18.8780 C   0  0  0  0  0  0  0  0  0  0  0  0
   24.8543  -11.1186  -20.0225 C   0  0  0  0  0  0  0  0  0  0  0  0
   24.6838  -12.0314  -21.0023 N   0  0  0  0  0  0  0  0  0  0  0  0
   23.9084  -12.9959  -20.4795 C   0  0  0  0  0  0  0  0  0  0  0  0
   23.6024  -12.6960  -19.2100 N   0  0  0  0  0  0  0  0  0  0  0  0
   24.5660   -8.6635  -16.4825 C   0  0  0  0  0  0  0  0  0  0  0  0
   24.8703   -8.8521  -15.2772 O   0  0  0  0  0  0  0  0  0  0  0  0
   22.2804   -4.5309  -14.2204 N   0  0  0  0  0  0  0  0  0  0  0  0
   22.5505   -4.2026  -15.5964 C   0  0  0  0  0  0  0  0  0  0  0  0
   22.3250   -3.0674  -16.0356 O   0  0  0  0  0  0  0  0  0  0  0  0
   23.0981   -5.2781  -16.4237 C   0  0  0  0  0  0  0  0  0  0  0  0
   23.2813   -6.6031  -15.7544 C   0  0  2  0  0  0  0  0  0  0  0  0
   23.7975   -7.5100  -16.7945 N   0  0  0  0  0  0  0  0  0  0  0  0
   22.0993   -7.1609  -15.1034 C   0  0  0  0  0  0  0  0  0  0  0  0
   21.1827   -7.7373  -15.7303 O   0  0  0  0  0  0  0  0  0  0  0  0
   22.0153   -7.0277  -13.6967 O   0  0  0  0  0  0  0  0  0  0  0  0
  2  3  1  0
  2  1  1  6
  4  8  1  0
  4  3  1  0
  5  4  2  0
  6  5  1  0
  6  7  1  0
  7  8  2  0
  9  2  1  0
 10  9  2  0
 11  9  1  0
 12 11  1  0
 13 14  1  0
 12 13  1  1
 14 15  2  0
 15 16  1  0
 17 16  1  0
 18 14  1  0
 18 17  2  0
 19 12  1  0
 19 26  1  0
 20 19  2  0
 22 21  1  0
 23 22  2  0
 24 22  1  0
 25 24  1  6
 25 27  1  0
 25 26  1  0
 27 29  1  0
 28 27  2  0
M  END
$$$$
