SSH.pdb
     RDKit          3D

 23 23  0  0  1  0  0  0  0  0999 V2000
   15.9407  -16.5731  -14.6149 O   0  0  0  0  0  0  0  0  0  0  0  0
   16.4248  -15.5790  -15.4835 C   0  0  0  0  0  0  0  0  0  0  0  0
   16.6968  -14.3587  -14.6195 C   0  0  2  0  0  0  0  0  0  0  0  0
   15.4568  -13.9168  -14.0461 N   0  0  0  0  0  0  0  0  0  0  0  0
   17.2266  -13.2907  -15.4917 C   0  0  0  0  0  0  0  0  0  0  0  0
   18.2388  -13.4766  -16.1969 O   0  0  0  0  0  0  0  0  0  0  0  0
   15.6276  -11.2166  -18.4253 O   0  0  0  0  0  0  0  0  0  0  0  0
   15.7987  -10.5135  -17.2490 C   0  0  0  0  0  0  0  0  0  0  0  0
   17.0396  -10.9935  -16.5302 C   0  0  2  0  0  0  0  0  0  0  0  0
   16.6177  -11.9974  -15.5777 N   0  0  0  0  0  0  0  0  0  0  0  0
   17.7235   -9.9109  -15.8009 C   0  0  0  0  0  0  0  0  0  0  0  0
   17.3319   -9.5007  -14.6826 O   0  0  0  0  0  0  0  0  0  0  0  0
   18.8623   -9.2991  -16.3624 N   0  0  0  0  0  0  0  0  0  0  0  0
   19.4970   -8.2121  -15.6423 C   0  0  1  0  0  0  0  0  0  0  0  0
   20.7608   -7.7579  -16.2749 C   0  0  0  0  0  0  0  0  0  0  0  0
   21.3775   -6.6841  -15.4653 C   0  0  0  0  0  0  0  0  0  0  0  0
   21.5494   -6.6790  -14.0726 C   0  0  0  0  0  0  0  0  0  0  0  0
   22.1441   -5.5375  -13.7125 N   0  0  0  0  0  0  0  0  0  0  0  0
   22.3615   -4.8138  -14.7984 C   0  0  0  0  0  0  0  0  0  0  0  0
   21.9010   -5.5018  -15.8540 N   0  0  0  0  0  0  0  0  0  0  0  0
   18.5340   -7.0907  -15.5835 C   0  0  0  0  0  0  0  0  0  0  0  0
   18.2596   -6.4550  -14.5539 O   0  0  0  0  0  0  0  0  0  0  0  0
   17.8725   -6.7014  -16.7642 O   0  0  0  0  0  0  0  0  0  0  0  0
  1  2  1  0
  3  2  1  0
  3  5  1  0
  3  4  1  6
  5  6  2  0
  7  8  1  0
  9  8  1  1
  9 11  1  0
 10  9  1  0
 10  5  1  0
 11 13  1  0
 12 11  2  0
 13 14  1  0
 14 15  1  6
 15 16  1  0
 16 17  2  0
 16 20  1  0
 17 18  1  0
 18 19  1  0
 20 19  2  0
 21 23  1  0
 21 14  1  0
 22 21  2  0
M  END
$$$$
