SSH.pdb
     RDKit          3D

 23 23  0  0  1  0  0  0  0  0999 V2000
   21.0028  -10.8250  -16.9857 O   0  0  0  0  0  0  0  0  0  0  0  0
   20.7698  -10.3239  -15.6928 C   0  0  0  0  0  0  0  0  0  0  0  0
   21.8701   -9.3095  -15.4279 C   0  0  2  0  0  0  0  0  0  0  0  0
   23.1186  -10.0081  -15.3059 N   0  0  0  0  0  0  0  0  0  0  0  0
   21.5724   -8.6371  -14.1469 C   0  0  0  0  0  0  0  0  0  0  0  0
   21.8839   -9.1586  -13.0570 O   0  0  0  0  0  0  0  0  0  0  0  0
   20.2376   -4.7298  -14.1206 O   0  0  0  0  0  0  0  0  0  0  0  0
   20.9698   -5.2176  -13.0561 C   0  0  0  0  0  0  0  0  0  0  0  0
   20.6567   -6.6803  -12.8343 C   0  0  2  0  0  0  0  0  0  0  0  0
   20.9180   -7.3650  -14.0816 N   0  0  0  0  0  0  0  0  0  0  0  0
   19.2493   -6.9054  -12.4599 C   0  0  0  0  0  0  0  0  0  0  0  0
   18.3396   -7.0418  -13.3121 O   0  0  0  0  0  0  0  0  0  0  0  0
   18.8891   -6.9736  -11.0990 N   0  0  0  0  0  0  0  0  0  0  0  0
   17.4834   -7.0562  -10.7525 C   0  0  1  0  0  0  0  0  0  0  0  0
   17.2575   -7.4097   -9.3285 C   0  0  0  0  0  0  0  0  0  0  0  0
   15.8083   -7.5402   -9.0606 C   0  0  0  0  0  0  0  0  0  0  0  0
   14.7676   -7.3822   -9.9885 C   0  0  0  0  0  0  0  0  0  0  0  0
   13.5997   -7.5781   -9.3689 N   0  0  0  0  0  0  0  0  0  0  0  0
   13.8374   -7.8524   -8.0967 C   0  0  0  0  0  0  0  0  0  0  0  0
   15.1655   -7.8301   -7.9092 N   0  0  0  0  0  0  0  0  0  0  0  0
   16.8712   -5.7420  -11.0465 C   0  0  0  0  0  0  0  0  0  0  0  0
   17.4034   -4.6491  -10.7984 O   0  0  0  0  0  0  0  0  0  0  0  0
   15.5988   -5.7054  -11.6486 O   0  0  0  0  0  0  0  0  0  0  0  0
  1  2  1  0
  3  2  1  0
  3  5  1  0
  3  4  1  1
  5  6  2  0
  7  8  1  0
  9  8  1  6
  9 11  1  0
 10  9  1  0
 10  5  1  0
 11 13  1  0
 12 11  2  0
 13 14  1  0
 14 15  1  1
 15 16  1  0
 16 17  2  0
 16 20  1  0
 17 18  1  0
 18 19  1  0
 20 19  2  0
 21 23  1  0
 21 14  1  0
 22 21  2  0
M  END
$$$$
