SSH.pdb
     RDKit          3D

 23 23  0  0  1  0  0  0  0  0999 V2000
   17.5642  -14.0556  -17.5844 O   0  0  0  0  0  0  0  0  0  0  0  0
   18.0729  -13.2782  -16.5289 C   0  0  0  0  0  0  0  0  0  0  0  0
   19.3672  -12.6670  -17.0395 C   0  0  2  0  0  0  0  0  0  0  0  0
   20.4448  -13.5735  -16.7589 N   0  0  0  0  0  0  0  0  0  0  0  0
   19.5991  -11.4077  -16.3033 C   0  0  0  0  0  0  0  0  0  0  0  0
   19.8481  -11.4118  -15.0807 O   0  0  0  0  0  0  0  0  0  0  0  0
   20.1698   -6.5839  -16.6695 O   0  0  0  0  0  0  0  0  0  0  0  0
   19.8952   -7.7945  -17.2746 C   0  0  0  0  0  0  0  0  0  0  0  0
   19.8081   -8.8893  -16.2351 C   0  0  2  0  0  0  0  0  0  0  0  0
   19.5524  -10.1262  -16.9406 N   0  0  0  0  0  0  0  0  0  0  0  0
   18.7181   -8.6647  -15.2692 C   0  0  0  0  0  0  0  0  0  0  0  0
   17.5377   -9.0255  -15.4902 O   0  0  0  0  0  0  0  0  0  0  0  0
   18.9893   -8.0221  -14.0444 N   0  0  0  0  0  0  0  0  0  0  0  0
   17.8984   -7.8036  -13.1143 C   0  0  1  0  0  0  0  0  0  0  0  0
   18.2118   -8.2585  -11.7364 C   0  0  0  0  0  0  0  0  0  0  0  0
   17.0773   -7.9648  -10.8335 C   0  0  0  0  0  0  0  0  0  0  0  0
   15.8061   -7.5038  -11.2085 C   0  0  0  0  0  0  0  0  0  0  0  0
   15.0562   -7.3572  -10.1119 N   0  0  0  0  0  0  0  0  0  0  0  0
   15.7785   -7.6992   -9.0576 C   0  0  0  0  0  0  0  0  0  0  0  0
   16.9947   -8.0651   -9.4895 N   0  0  0  0  0  0  0  0  0  0  0  0
   17.5976   -6.3552  -13.1083 C   0  0  0  0  0  0  0  0  0  0  0  0
   16.5229   -5.8637  -12.7305 O   0  0  0  0  0  0  0  0  0  0  0  0
   18.5832   -5.4554  -13.5576 O   0  0  0  0  0  0  0  0  0  0  0  0
  1  2  1  0
  3  2  1  0
  3  5  1  0
  3  4  1  1
  5  6  2  0
  7  8  1  0
  9  8  1  6
  9 11  1  0
 10  9  1  0
 10  5  1  0
 11 13  1  0
 12 11  2  0
 13 14  1  0
 14 15  1  1
 15 16  1  0
 16 17  2  0
 16 20  1  0
 17 18  1  0
 18 19  1  0
 20 19  2  0
 21 23  1  0
 21 14  1  0
 22 21  2  0
M  END
$$$$
