SSH.pdb
     RDKit          3D

 23 23  0  0  1  0  0  0  0  0999 V2000
   28.5103  -10.5442  -15.8452 O   0  0  0  0  0  0  0  0  0  0  0  0
   27.2116  -10.3809  -16.3590 C   0  0  0  0  0  0  0  0  0  0  0  0
   26.3559  -11.4447  -15.6913 C   0  0  2  0  0  0  0  0  0  0  0  0
   26.7003  -12.7243  -16.2442 N   0  0  0  0  0  0  0  0  0  0  0  0
   24.9415  -11.1551  -16.0034 C   0  0  0  0  0  0  0  0  0  0  0  0
   24.3728  -11.6908  -16.9761 O   0  0  0  0  0  0  0  0  0  0  0  0
   22.3724  -10.1455  -13.1793 O   0  0  0  0  0  0  0  0  0  0  0  0
   21.9370  -10.5907  -14.4120 C   0  0  0  0  0  0  0  0  0  0  0  0
   22.7643   -9.9673  -15.5137 C   0  0  2  0  0  0  0  0  0  0  0  0
   24.1511  -10.2549  -15.2187 N   0  0  0  0  0  0  0  0  0  0  0  0
   22.5928   -8.5057  -15.5898 C   0  0  0  0  0  0  0  0  0  0  0  0
   23.2899   -7.7102  -14.9164 O   0  0  0  0  0  0  0  0  0  0  0  0
   21.6147   -7.9591  -16.4449 N   0  0  0  0  0  0  0  0  0  0  0  0
   21.4495   -6.5190  -16.4857 C   0  0  1  0  0  0  0  0  0  0  0  0
   21.1634   -6.0070  -17.8494 C   0  0  0  0  0  0  0  0  0  0  0  0
   22.2852   -6.3279  -18.7589 C   0  0  0  0  0  0  0  0  0  0  0  0
   23.4635   -5.5851  -18.9298 C   0  0  0  0  0  0  0  0  0  0  0  0
   24.2334   -6.1945  -19.8367 N   0  0  0  0  0  0  0  0  0  0  0  0
   23.6117   -7.2851  -20.2539 C   0  0  0  0  0  0  0  0  0  0  0  0
   22.4395   -7.3673  -19.6068 N   0  0  0  0  0  0  0  0  0  0  0  0
   20.3376   -6.1693  -15.5748 C   0  0  0  0  0  0  0  0  0  0  0  0
   19.6047   -6.9976  -15.0124 O   0  0  0  0  0  0  0  0  0  0  0  0
   20.0753   -4.8105  -15.3142 O   0  0  0  0  0  0  0  0  0  0  0  0
  1  2  1  0
  3  2  1  0
  3  5  1  0
  3  4  1  6
  5  6  2  0
  7  8  1  0
  9  8  1  1
  9 11  1  0
 10  9  1  0
 10  5  1  0
 11 13  1  0
 12 11  2  0
 13 14  1  0
 14 15  1  6
 15 16  1  0
 16 17  2  0
 16 20  1  0
 17 18  1  0
 18 19  1  0
 20 19  2  0
 21 23  1  0
 21 14  1  0
 22 21  2  0
M  END
$$$$
