SSH.pdb
     RDKit          3D

 23 23  0  0  1  0  0  0  0  0999 V2000
   23.2462   -4.6439  -13.8111 O   0  0  0  0  0  0  0  0  0  0  0  0
   22.0581   -5.3859  -13.6886 C   0  0  0  0  0  0  0  0  0  0  0  0
   21.5111   -5.5438  -15.0977 C   0  0  2  0  0  0  0  0  0  0  0  0
   21.2291   -4.2401  -15.6292 N   0  0  0  0  0  0  0  0  0  0  0  0
   20.2500   -6.3083  -15.0147 C   0  0  0  0  0  0  0  0  0  0  0  0
   19.1525   -5.7298  -14.8827 O   0  0  0  0  0  0  0  0  0  0  0  0
   20.4408  -10.3492  -14.8597 O   0  0  0  0  0  0  0  0  0  0  0  0
   19.3180   -9.8984  -15.5255 C   0  0  0  0  0  0  0  0  0  0  0  0
   18.9789   -8.4924  -15.0836 C   0  0  2  0  0  0  0  0  0  0  0  0
   20.2136   -7.7384  -15.0802 N   0  0  0  0  0  0  0  0  0  0  0  0
   18.3987   -8.4511  -13.7296 C   0  0  0  0  0  0  0  0  0  0  0  0
   19.0762   -8.1595  -12.7156 O   0  0  0  0  0  0  0  0  0  0  0  0
   17.0332   -8.7469  -13.5438 N   0  0  0  0  0  0  0  0  0  0  0  0
   16.4852   -8.6989  -12.2020 C   0  0  1  0  0  0  0  0  0  0  0  0
   15.9583   -7.3594  -11.8389 C   0  0  0  0  0  0  0  0  0  0  0  0
   15.3123   -7.4104  -10.5089 C   0  0  0  0  0  0  0  0  0  0  0  0
   15.9143   -7.1246   -9.2740 C   0  0  0  0  0  0  0  0  0  0  0  0
   15.0095   -7.2819   -8.3029 N   0  0  0  0  0  0  0  0  0  0  0  0
   13.8633   -7.6523   -8.8497 C   0  0  0  0  0  0  0  0  0  0  0  0
   14.0433   -7.7302  -10.1768 N   0  0  0  0  0  0  0  0  0  0  0  0
   15.4011   -9.7025  -12.1244 C   0  0  0  0  0  0  0  0  0  0  0  0
   14.5921   -9.9330  -13.0364 O   0  0  0  0  0  0  0  0  0  0  0  0
   15.2594  -10.4587  -10.9450 O   0  0  0  0  0  0  0  0  0  0  0  0
  1  2  1  0
  3  2  1  0
  3  5  1  0
  3  4  1  1
  5  6  2  0
  7  8  1  0
  9  8  1  1
  9 11  1  0
 10  9  1  0
 10  5  1  0
 11 13  1  0
 12 11  2  0
 13 14  1  0
 14 15  1  6
 15 16  1  0
 16 17  2  0
 16 20  1  0
 17 18  1  0
 18 19  1  0
 20 19  2  0
 21 23  1  0
 21 14  1  0
 22 21  2  0
M  END
$$$$
