SSH.pdb
     RDKit          3D

 23 23  0  0  1  0  0  0  0  0999 V2000
   31.7054  -34.7370   -5.0198 O   0  0  0  0  0  0  0  0  0  0  0  0
   30.7146  -34.0712   -4.2768 C   0  0  0  0  0  0  0  0  0  0  0  0
   29.4270  -34.8477   -4.4978 C   0  0  2  0  0  0  0  0  0  0  0  0
   28.8569  -34.4433   -5.7520 N   0  0  0  0  0  0  0  0  0  0  0  0
   28.4895  -34.4958   -3.4120 C   0  0  0  0  0  0  0  0  0  0  0  0
   27.7848  -33.4683   -3.4760 O   0  0  0  0  0  0  0  0  0  0  0  0
   27.3296  -37.3439   -0.7475 O   0  0  0  0  0  0  0  0  0  0  0  0
   26.5203  -36.2629   -1.0369 C   0  0  0  0  0  0  0  0  0  0  0  0
   27.3582  -35.0162   -1.2120 C   0  0  2  0  0  0  0  0  0  0  0  0
   28.3367  -35.3022   -2.2385 N   0  0  0  0  0  0  0  0  0  0  0  0
   28.0682  -34.6358    0.0220 C   0  0  0  0  0  0  0  0  0  0  0  0
   29.2355  -35.0193    0.2724 O   0  0  0  0  0  0  0  0  0  0  0  0
   27.4309  -33.8106    0.9704 N   0  0  0  0  0  0  0  0  0  0  0  0
   28.1509  -33.4481    2.1758 C   0  0  1  0  0  0  0  0  0  0  0  0
   27.4240  -32.4577    3.0092 C   0  0  0  0  0  0  0  0  0  0  0  0
   28.3046  -31.9558    4.0868 C   0  0  0  0  0  0  0  0  0  0  0  0
   29.6702  -31.6511    3.9787 C   0  0  0  0  0  0  0  0  0  0  0  0
   30.1157  -31.2265    5.1652 N   0  0  0  0  0  0  0  0  0  0  0  0
   29.1102  -31.2434    6.0246 C   0  0  0  0  0  0  0  0  0  0  0  0
   28.0196  -31.6818    5.3779 N   0  0  0  0  0  0  0  0  0  0  0  0
   28.3779  -34.6867    2.9521 C   0  0  0  0  0  0  0  0  0  0  0  0
   27.6504  -35.6904    2.9000 O   0  0  0  0  0  0  0  0  0  0  0  0
   29.4890  -34.7532    3.8147 O   0  0  0  0  0  0  0  0  0  0  0  0
  1  2  1  0
  3  2  1  0
  3  5  1  0
  3  4  1  6
  5  6  2  0
  7  8  1  0
  9  8  1  1
  9 11  1  0
 10  9  1  0
 10  5  1  0
 11 13  1  0
 12 11  2  0
 13 14  1  0
 14 15  1  1
 15 16  1  0
 16 17  2  0
 16 20  1  0
 17 18  1  0
 18 19  1  0
 20 19  2  0
 21 23  1  0
 21 14  1  0
 22 21  2  0
M  END
$$$$
