SSH.pdb
     RDKit          3D

 23 23  0  0  1  0  0  0  0  0999 V2000
   26.7721  -17.8600  -15.4292 O   0  0  0  0  0  0  0  0  0  0  0  0
   27.8957  -18.1874  -14.6499 C   0  0  0  0  0  0  0  0  0  0  0  0
   28.1458  -19.6701  -14.8704 C   0  0  2  0  0  0  0  0  0  0  0  0
   28.2482  -19.9132  -16.2818 N   0  0  0  0  0  0  0  0  0  0  0  0
   26.9836  -20.4127  -14.3414 C   0  0  0  0  0  0  0  0  0  0  0  0
   26.1651  -20.9603  -15.1074 O   0  0  0  0  0  0  0  0  0  0  0  0
   25.8218  -20.1933  -10.2846 O   0  0  0  0  0  0  0  0  0  0  0  0
   25.7955  -21.4144  -10.9293 C   0  0  0  0  0  0  0  0  0  0  0  0
   25.5639  -21.2171  -12.4107 C   0  0  2  0  0  0  0  0  0  0  0  0
   26.7319  -20.5458  -12.9380 N   0  0  0  0  0  0  0  0  0  0  0  0
   24.3781  -20.3882  -12.6908 C   0  0  0  0  0  0  0  0  0  0  0  0
   24.4482  -19.1471  -12.8556 O   0  0  0  0  0  0  0  0  0  0  0  0
   23.1076  -20.9915  -12.7813 N   0  0  0  0  0  0  0  0  0  0  0  0
   22.0485  -20.2869  -13.4776 C   0  0  1  0  0  0  0  0  0  0  0  0
   22.3633  -20.0328  -14.9059 C   0  0  0  0  0  0  0  0  0  0  0  0
   21.2716  -19.2594  -15.5374 C   0  0  0  0  0  0  0  0  0  0  0  0
   20.1160  -18.7734  -14.9067 C   0  0  0  0  0  0  0  0  0  0  0  0
   19.3701  -18.1250  -15.8065 N   0  0  0  0  0  0  0  0  0  0  0  0
   19.9856  -18.1703  -16.9766 C   0  0  0  0  0  0  0  0  0  0  0  0
   21.1297  -18.8522  -16.8170 N   0  0  0  0  0  0  0  0  0  0  0  0
   20.8208  -21.1055  -13.3723 C   0  0  0  0  0  0  0  0  0  0  0  0
   19.7266  -20.6803  -12.9707 O   0  0  0  0  0  0  0  0  0  0  0  0
   20.8749  -22.4616  -13.7479 O   0  0  0  0  0  0  0  0  0  0  0  0
  1  2  1  0
  3  2  1  0
  3  5  1  0
  3  4  1  6
  5  6  2  0
  7  8  1  0
  9  8  1  1
  9 11  1  0
 10  9  1  0
 10  5  1  0
 11 13  1  0
 12 11  2  0
 13 14  1  0
 14 15  1  6
 15 16  1  0
 16 17  2  0
 16 20  1  0
 17 18  1  0
 18 19  1  0
 20 19  2  0
 21 23  1  0
 21 14  1  0
 22 21  2  0
M  END
$$$$
