SSH.pdb
     RDKit          3D

 23 23  0  0  1  0  0  0  0  0999 V2000
   18.0368  -12.0902  -19.1201 O   0  0  0  0  0  0  0  0  0  0  0  0
   18.0419  -11.4939  -17.8468 C   0  0  0  0  0  0  0  0  0  0  0  0
   19.2650  -12.0402  -17.1290 C   0  0  2  0  0  0  0  0  0  0  0  0
   18.9177  -13.2926  -16.5188 N   0  0  0  0  0  0  0  0  0  0  0  0
   19.6391  -11.0809  -16.0699 C   0  0  0  0  0  0  0  0  0  0  0  0
   18.9126  -10.9078  -15.0704 O   0  0  0  0  0  0  0  0  0  0  0  0
   23.4839   -9.8376  -15.8167 O   0  0  0  0  0  0  0  0  0  0  0  0
   22.6849   -9.8567  -14.6904 C   0  0  0  0  0  0  0  0  0  0  0  0
   21.2733   -9.4468  -15.0453 C   0  0  2  0  0  0  0  0  0  0  0  0
   20.8408  -10.3042  -16.1274 N   0  0  0  0  0  0  0  0  0  0  0  0
   21.1885   -8.0453  -15.4929 C   0  0  0  0  0  0  0  0  0  0  0  0
   21.3830   -7.7062  -16.6844 O   0  0  0  0  0  0  0  0  0  0  0  0
   20.8785   -7.0313  -14.5643 N   0  0  0  0  0  0  0  0  0  0  0  0
   20.8744   -5.6522  -15.0125 C   0  0  1  0  0  0  0  0  0  0  0  0
   19.6921   -4.8915  -14.5358 C   0  0  0  0  0  0  0  0  0  0  0  0
   19.7993   -3.4745  -14.9473 C   0  0  0  0  0  0  0  0  0  0  0  0
   19.6828   -2.9701  -16.2516 C   0  0  0  0  0  0  0  0  0  0  0  0
   19.8389   -1.6431  -16.2197 N   0  0  0  0  0  0  0  0  0  0  0  0
   20.0486   -1.2725  -14.9672 C   0  0  0  0  0  0  0  0  0  0  0  0
   20.0251   -2.3728  -14.2001 N   0  0  0  0  0  0  0  0  0  0  0  0
   22.1141   -5.0157  -14.5161 C   0  0  0  0  0  0  0  0  0  0  0  0
   22.7137   -4.0989  -15.0987 O   0  0  0  0  0  0  0  0  0  0  0  0
   22.6686   -5.4651  -13.3022 O   0  0  0  0  0  0  0  0  0  0  0  0
  1  2  1  0
  3  2  1  0
  3  5  1  0
  3  4  1  1
  5  6  2  0
  7  8  1  0
  9  8  1  6
  9 11  1  0
 10  9  1  0
 10  5  1  0
 11 13  1  0
 12 11  2  0
 13 14  1  0
 14 15  1  1
 15 16  1  0
 16 17  2  0
 16 20  1  0
 17 18  1  0
 18 19  1  0
 20 19  2  0
 21 23  1  0
 21 14  1  0
 22 21  2  0
M  END
$$$$
