SSH.pdb
     RDKit          3D

 23 23  0  0  1  0  0  0  0  0999 V2000
   10.2016  -11.3021  -11.1323 O   0  0  0  0  0  0  0  0  0  0  0  0
   11.4394  -10.6371  -11.0811 C   0  0  0  0  0  0  0  0  0  0  0  0
   12.4933  -11.6787  -11.4187 C   0  0  2  0  0  0  0  0  0  0  0  0
   12.2453  -12.8540  -10.6321 N   0  0  0  0  0  0  0  0  0  0  0  0
   13.8137  -11.1282  -11.0508 C   0  0  0  0  0  0  0  0  0  0  0  0
   14.1877  -11.0897   -9.8612 O   0  0  0  0  0  0  0  0  0  0  0  0
   18.1558   -9.6604  -12.6169 O   0  0  0  0  0  0  0  0  0  0  0  0
   16.8948  -10.1495  -12.8962 C   0  0  0  0  0  0  0  0  0  0  0  0
   16.0128  -10.0472  -11.6721 C   0  0  2  0  0  0  0  0  0  0  0  0
   14.7290  -10.6135  -12.0245 N   0  0  0  0  0  0  0  0  0  0  0  0
   15.8092   -8.6536  -11.2383 C   0  0  0  0  0  0  0  0  0  0  0  0
   15.0063   -7.8804  -11.8127 O   0  0  0  0  0  0  0  0  0  0  0  0
   16.5331   -8.1496  -10.1391 N   0  0  0  0  0  0  0  0  0  0  0  0
   16.3037   -6.7801   -9.7212 C   0  0  1  0  0  0  0  0  0  0  0  0
   16.6802   -6.5352   -8.3063 C   0  0  0  0  0  0  0  0  0  0  0  0
   16.4830   -5.1087   -7.9671 C   0  0  0  0  0  0  0  0  0  0  0  0
   15.2969   -4.5121   -7.5126 C   0  0  0  0  0  0  0  0  0  0  0  0
   15.5145   -3.2083   -7.3152 N   0  0  0  0  0  0  0  0  0  0  0  0
   16.7738   -2.9396   -7.6186 C   0  0  0  0  0  0  0  0  0  0  0  0
   17.3582   -4.0816   -8.0110 N   0  0  0  0  0  0  0  0  0  0  0  0
   17.0950   -5.9015  -10.6102 C   0  0  0  0  0  0  0  0  0  0  0  0
   18.1910   -6.2079  -11.1045 O   0  0  0  0  0  0  0  0  0  0  0  0
   16.5891   -4.6269  -10.9305 O   0  0  0  0  0  0  0  0  0  0  0  0
  1  2  1  0
  3  2  1  0
  3  5  1  0
  3  4  1  1
  5  6  2  0
  7  8  1  0
  9  8  1  6
  9 11  1  0
 10  9  1  0
 10  5  1  0
 11 13  1  0
 12 11  2  0
 13 14  1  0
 14 15  1  1
 15 16  1  0
 16 17  2  0
 16 20  1  0
 17 18  1  0
 18 19  1  0
 20 19  2  0
 21 23  1  0
 21 14  1  0
 22 21  2  0
M  END
$$$$
