MHC.pdb
     RDKit          3D

 25 25  0  0  1  0  0  0  0  0999 V2000
   28.3973  -12.6233  -15.8719 C   0  0  0  0  0  0  0  0  0  0  0  0
   27.2078  -13.7693  -15.1579 S   0  0  0  0  0  0  0  0  0  0  0  0
   25.9792  -14.2595  -16.3839 C   0  0  0  0  0  0  0  0  0  0  0  0
   25.1859  -13.0666  -16.8824 C   0  0  0  0  0  0  0  0  0  0  0  0
   24.3708  -12.4762  -15.7334 C   0  0  2  0  0  0  0  0  0  0  0  0
   23.4853  -13.5004  -15.2121 N   0  0  0  0  0  0  0  0  0  0  0  0
   23.6054  -11.2961  -16.2245 C   0  0  0  0  0  0  0  0  0  0  0  0
   24.2587  -10.4141  -16.8686 O   0  0  0  0  0  0  0  0  0  0  0  0
   22.2215  -11.1798  -15.9768 N   0  0  0  0  0  0  0  0  0  0  0  0
   21.5196  -10.0162  -16.4894 C   0  0  1  0  0  0  0  0  0  0  0  0
   20.0813  -10.3150  -16.7552 C   0  0  0  0  0  0  0  0  0  0  0  0
   19.8629  -11.2371  -17.8837 C   0  0  0  0  0  0  0  0  0  0  0  0
   19.9167  -10.9599  -19.2473 C   0  0  0  0  0  0  0  0  0  0  0  0
   19.6340  -12.0685  -19.9201 N   0  0  0  0  0  0  0  0  0  0  0  0
   19.3951  -13.0676  -19.0644 C   0  0  0  0  0  0  0  0  0  0  0  0
   19.5343  -12.5619  -17.8283 N   0  0  0  0  0  0  0  0  0  0  0  0
   21.6481   -8.8596  -15.5797 C   0  0  0  0  0  0  0  0  0  0  0  0
   21.6052   -9.0379  -14.3444 O   0  0  0  0  0  0  0  0  0  0  0  0
   21.8213   -7.5358  -16.0532 N   0  0  0  0  0  0  0  0  0  0  0  0
   22.0182   -6.4714  -15.1112 C   0  0  1  0  0  0  0  0  0  0  0  0
   23.0203   -5.4438  -15.5844 C   0  0  0  0  0  0  0  0  0  0  0  0
   23.1615   -4.1812  -14.2880 S   0  0  0  0  0  0  0  0  0  0  0  0
   20.7237   -5.8485  -14.7460 C   0  0  0  0  0  0  0  0  0  0  0  0
   20.4612   -5.4148  -13.4693 O   0  0  0  0  0  0  0  0  0  0  0  0
   19.8355   -5.7086  -15.6208 O   0  0  0  0  0  0  0  0  0  0  0  0
  2  1  1  0
  2  3  1  0
  3  4  1  0
  4  5  1  0
  5  7  1  0
  5  6  1  6
  7  9  1  0
  8  7  2  0
  9 10  1  0
 10 11  1  1
 11 12  1  0
 12 13  2  0
 12 16  1  0
 13 14  1  0
 14 15  1  0
 16 15  2  0
 17 19  1  0
 17 10  1  0
 18 17  2  0
 20 19  1  0
 20 23  1  0
 20 21  1  6
 22 21  1  0
 23 24  1  0
 25 23  2  0
M  END
$$$$
