MHC.pdb
     RDKit          3D

 25 25  0  0  1  0  0  0  0  0999 V2000
   21.4255  -31.2175  -17.8627 C   0  0  0  0  0  0  0  0  0  0  0  0
   21.5464  -32.0061  -16.2497 S   0  0  0  0  0  0  0  0  0  0  0  0
   22.9078  -33.1887  -16.2183 C   0  0  0  0  0  0  0  0  0  0  0  0
   23.0010  -33.8924  -14.8778 C   0  0  0  0  0  0  0  0  0  0  0  0
   23.9950  -33.1572  -13.9806 C   0  0  2  0  0  0  0  0  0  0  0  0
   25.3371  -33.3863  -14.4816 N   0  0  0  0  0  0  0  0  0  0  0  0
   23.8492  -33.6415  -12.5792 C   0  0  0  0  0  0  0  0  0  0  0  0
   24.3584  -34.7755  -12.3066 O   0  0  0  0  0  0  0  0  0  0  0  0
   23.1746  -32.8648  -11.6140 N   0  0  0  0  0  0  0  0  0  0  0  0
   23.0049  -33.4103  -10.2787 C   0  0  1  0  0  0  0  0  0  0  0  0
   23.5986  -32.5168   -9.2405 C   0  0  0  0  0  0  0  0  0  0  0  0
   25.0520  -32.6877   -9.0675 C   0  0  0  0  0  0  0  0  0  0  0  0
   25.8857  -33.6344   -9.6574 C   0  0  0  0  0  0  0  0  0  0  0  0
   27.1224  -33.4513   -9.2118 N   0  0  0  0  0  0  0  0  0  0  0  0
   27.1461  -32.4266   -8.3534 C   0  0  0  0  0  0  0  0  0  0  0  0
   25.8887  -31.9637   -8.2665 N   0  0  0  0  0  0  0  0  0  0  0  0
   21.5840  -33.6796   -9.9782 C   0  0  0  0  0  0  0  0  0  0  0  0
   20.7035  -32.9110  -10.4181 O   0  0  0  0  0  0  0  0  0  0  0  0
   21.1685  -34.7888   -9.2014 N   0  0  0  0  0  0  0  0  0  0  0  0
   19.7676  -35.0108   -8.9842 C   0  0  1  0  0  0  0  0  0  0  0  0
   19.2774  -36.3100   -9.5810 C   0  0  0  0  0  0  0  0  0  0  0  0
   17.5196  -36.4756   -9.1599 S   0  0  0  0  0  0  0  0  0  0  0  0
   19.4382  -34.9100   -7.5424 C   0  0  0  0  0  0  0  0  0  0  0  0
   18.1833  -34.5597   -7.1072 O   0  0  0  0  0  0  0  0  0  0  0  0
   20.3239  -35.1497   -6.6870 O   0  0  0  0  0  0  0  0  0  0  0  0
  2  1  1  0
  2  3  1  0
  3  4  1  0
  4  5  1  0
  5  7  1  0
  5  6  1  6
  7  9  1  0
  8  7  2  0
  9 10  1  0
 10 11  1  1
 11 12  1  0
 12 13  2  0
 12 16  1  0
 13 14  1  0
 14 15  1  0
 16 15  2  0
 17 19  1  0
 17 10  1  0
 18 17  2  0
 20 19  1  0
 20 23  1  0
 20 21  1  1
 22 21  1  0
 23 24  1  0
 25 23  2  0
M  END
$$$$
