MHC.pdb
     RDKit          3D

 25 25  0  0  1  0  0  0  0  0999 V2000
   17.7980  -10.9511  -21.1572 C   0  0  0  0  0  0  0  0  0  0  0  0
   18.6638  -12.5205  -21.3179 S   0  0  0  0  0  0  0  0  0  0  0  0
   20.2920  -12.4326  -20.5470 C   0  0  0  0  0  0  0  0  0  0  0  0
   20.2942  -11.4872  -19.3607 C   0  0  0  0  0  0  0  0  0  0  0  0
   21.7247  -11.2946  -18.8610 C   0  0  2  0  0  0  0  0  0  0  0  0
   22.2644  -12.5850  -18.4756 N   0  0  0  0  0  0  0  0  0  0  0  0
   21.7250  -10.3425  -17.7150 C   0  0  0  0  0  0  0  0  0  0  0  0
   21.3494  -10.7989  -16.5880 O   0  0  0  0  0  0  0  0  0  0  0  0
   22.1261   -9.0016  -17.8912 N   0  0  0  0  0  0  0  0  0  0  0  0
   22.1084   -8.1147  -16.7413 C   0  0  1  0  0  0  0  0  0  0  0  0
   23.4750   -7.6096  -16.4158 C   0  0  0  0  0  0  0  0  0  0  0  0
   24.4072   -8.6592  -15.9678 C   0  0  0  0  0  0  0  0  0  0  0  0
   24.1305   -9.9932  -15.6789 C   0  0  0  0  0  0  0  0  0  0  0  0
   25.2508  -10.5865  -15.2864 N   0  0  0  0  0  0  0  0  0  0  0  0
   26.2573   -9.7067  -15.3018 C   0  0  0  0  0  0  0  0  0  0  0  0
   25.7442   -8.5369  -15.7157 N   0  0  0  0  0  0  0  0  0  0  0  0
   21.1739   -6.9879  -16.9383 C   0  0  0  0  0  0  0  0  0  0  0  0
   21.1376   -6.4012  -18.0402 O   0  0  0  0  0  0  0  0  0  0  0  0
   20.3022   -6.5359  -15.9172 N   0  0  0  0  0  0  0  0  0  0  0  0
   19.3574   -5.4958  -16.2077 C   0  0  1  0  0  0  0  0  0  0  0  0
   17.9947   -5.7530  -15.6066 C   0  0  0  0  0  0  0  0  0  0  0  0
   17.3816   -7.3176  -16.2927 S   0  0  0  0  0  0  0  0  0  0  0  0
   19.8937   -4.1734  -15.8066 C   0  0  0  0  0  0  0  0  0  0  0  0
   19.1947   -3.0107  -16.0225 O   0  0  0  0  0  0  0  0  0  0  0  0
   21.0174   -4.1032  -15.2534 O   0  0  0  0  0  0  0  0  0  0  0  0
  2  1  1  0
  2  3  1  0
  3  4  1  0
  4  5  1  0
  5  7  1  0
  5  6  1  1
  7  9  1  0
  8  7  2  0
  9 10  1  0
 10 11  1  6
 11 12  1  0
 12 13  2  0
 12 16  1  0
 13 14  1  0
 14 15  1  0
 16 15  2  0
 17 19  1  0
 17 10  1  0
 18 17  2  0
 20 19  1  0
 20 23  1  0
 20 21  1  1
 22 21  1  0
 23 24  1  0
 25 23  2  0
M  END
$$$$
