MHC.pdb
     RDKit          3D

 25 25  0  0  1  0  0  0  0  0999 V2000
   14.5528  -14.8282  -10.4161 C   0  0  0  0  0  0  0  0  0  0  0  0
   13.4440  -13.5457   -9.8130 S   0  0  0  0  0  0  0  0  0  0  0  0
   13.5929  -12.0520  -10.8126 C   0  0  0  0  0  0  0  0  0  0  0  0
   15.0417  -11.7464  -11.1418 C   0  0  0  0  0  0  0  0  0  0  0  0
   15.1210  -10.4606  -11.9626 C   0  0  2  0  0  0  0  0  0  0  0  0
   14.4485  -10.6716  -13.2307 N   0  0  0  0  0  0  0  0  0  0  0  0
   16.5497  -10.0877  -12.1618 C   0  0  0  0  0  0  0  0  0  0  0  0
   17.2310   -9.8404  -11.1157 O   0  0  0  0  0  0  0  0  0  0  0  0
   17.1029  -10.0172  -13.4575 N   0  0  0  0  0  0  0  0  0  0  0  0
   18.4862   -9.5980  -13.6002 C   0  0  1  0  0  0  0  0  0  0  0  0
   19.0636  -10.0428  -14.9030 C   0  0  0  0  0  0  0  0  0  0  0  0
   20.4707   -9.6504  -15.0963 C   0  0  0  0  0  0  0  0  0  0  0  0
   21.2973   -8.9451  -14.2252 C   0  0  0  0  0  0  0  0  0  0  0  0
   22.4834   -8.7840  -14.7983 N   0  0  0  0  0  0  0  0  0  0  0  0
   22.4806   -9.3501  -16.0094 C   0  0  0  0  0  0  0  0  0  0  0  0
   21.2582   -9.8758  -16.1894 N   0  0  0  0  0  0  0  0  0  0  0  0
   18.6301   -8.1364  -13.4427 C   0  0  0  0  0  0  0  0  0  0  0  0
   17.7695   -7.3750  -13.9318 O   0  0  0  0  0  0  0  0  0  0  0  0
   19.7177   -7.5501  -12.7500 N   0  0  0  0  0  0  0  0  0  0  0  0
   19.7848   -6.1223  -12.6244 C   0  0  1  0  0  0  0  0  0  0  0  0
   18.7146   -5.5596  -11.7176 C   0  0  0  0  0  0  0  0  0  0  0  0
   18.9950   -6.2358  -10.0566 S   0  0  0  0  0  0  0  0  0  0  0  0
   21.1408   -5.6962  -12.2036 C   0  0  0  0  0  0  0  0  0  0  0  0
   21.5068   -4.3726  -12.1660 O   0  0  0  0  0  0  0  0  0  0  0  0
   21.9858   -6.5613  -11.8703 O   0  0  0  0  0  0  0  0  0  0  0  0
  2  1  1  0
  2  3  1  0
  3  4  1  0
  4  5  1  0
  5  7  1  0
  5  6  1  6
  7  9  1  0
  8  7  2  0
  9 10  1  0
 10 11  1  6
 11 12  1  0
 12 13  2  0
 12 16  1  0
 13 14  1  0
 14 15  1  0
 16 15  2  0
 17 19  1  0
 17 10  1  0
 18 17  2  0
 20 19  1  0
 20 23  1  0
 20 21  1  1
 22 21  1  0
 23 24  1  0
 25 23  2  0
M  END
$$$$
