MHC.pdb
     RDKit          3D

 25 25  0  0  1  0  0  0  0  0999 V2000
   27.1870  -20.7228   -6.9239 C   0  0  0  0  0  0  0  0  0  0  0  0
   28.8178  -20.9984   -7.6330 S   0  0  0  0  0  0  0  0  0  0  0  0
   28.6829  -21.6064   -9.3256 C   0  0  0  0  0  0  0  0  0  0  0  0
   27.6521  -20.8233  -10.1163 C   0  0  0  0  0  0  0  0  0  0  0  0
   27.6223  -21.3254  -11.5586 C   0  0  2  0  0  0  0  0  0  0  0  0
   28.9218  -21.0963  -12.1617 N   0  0  0  0  0  0  0  0  0  0  0  0
   26.5450  -20.6186  -12.3067 C   0  0  0  0  0  0  0  0  0  0  0  0
   26.6005  -19.3474  -12.3313 O   0  0  0  0  0  0  0  0  0  0  0  0
   25.5199  -21.3424  -12.9511 N   0  0  0  0  0  0  0  0  0  0  0  0
   24.4533  -20.6039  -13.6041 C   0  0  1  0  0  0  0  0  0  0  0  0
   24.5191  -20.7414  -15.0892 C   0  0  0  0  0  0  0  0  0  0  0  0
   25.6295  -19.9962  -15.7081 C   0  0  0  0  0  0  0  0  0  0  0  0
   26.5595  -19.1633  -15.0911 C   0  0  0  0  0  0  0  0  0  0  0  0
   27.3741  -18.6727  -16.0170 N   0  0  0  0  0  0  0  0  0  0  0  0
   27.0262  -19.1424  -17.2194 C   0  0  0  0  0  0  0  0  0  0  0  0
   25.9670  -19.9459  -17.0308 N   0  0  0  0  0  0  0  0  0  0  0  0
   23.1246  -21.0128  -13.1051 C   0  0  0  0  0  0  0  0  0  0  0  0
   22.9267  -22.2021  -12.7791 O   0  0  0  0  0  0  0  0  0  0  0  0
   22.0475  -20.1019  -12.9769 N   0  0  0  0  0  0  0  0  0  0  0  0
   20.8101  -20.5508  -12.4057 C   0  0  1  0  0  0  0  0  0  0  0  0
   20.2988  -19.6374  -11.3154 C   0  0  0  0  0  0  0  0  0  0  0  0
   19.9657  -18.0203  -12.0692 S   0  0  0  0  0  0  0  0  0  0  0  0
   19.7931  -20.7677  -13.4621 C   0  0  0  0  0  0  0  0  0  0  0  0
   18.6066  -21.4111  -13.2064 O   0  0  0  0  0  0  0  0  0  0  0  0
   20.0126  -20.3556  -14.6264 O   0  0  0  0  0  0  0  0  0  0  0  0
  2  1  1  0
  2  3  1  0
  3  4  1  0
  4  5  1  0
  5  7  1  0
  5  6  1  6
  7  9  1  0
  8  7  2  0
  9 10  1  0
 10 11  1  6
 11 12  1  0
 12 13  2  0
 12 16  1  0
 13 14  1  0
 14 15  1  0
 16 15  2  0
 17 19  1  0
 17 10  1  0
 18 17  2  0
 20 19  1  0
 20 23  1  0
 20 21  1  1
 22 21  1  0
 23 24  1  0
 25 23  2  0
M  END
$$$$
