MHC.pdb
     RDKit          3D

 25 25  0  0  1  0  0  0  0  0999 V2000
   27.9525  -21.1668   -9.1955 C   0  0  0  0  0  0  0  0  0  0  0  0
   29.4347  -21.0043  -10.2029 S   0  0  0  0  0  0  0  0  0  0  0  0
   29.0379  -21.1762  -11.9538 C   0  0  0  0  0  0  0  0  0  0  0  0
   27.6929  -20.5561  -12.2817 C   0  0  0  0  0  0  0  0  0  0  0  0
   27.4158  -20.6935  -13.7775 C   0  0  2  0  0  0  0  0  0  0  0  0
   28.4531  -19.9945  -14.5126 N   0  0  0  0  0  0  0  0  0  0  0  0
   26.0670  -20.1399  -14.0841 C   0  0  0  0  0  0  0  0  0  0  0  0
   25.8955  -18.8957  -13.8785 O   0  0  0  0  0  0  0  0  0  0  0  0
   25.0408  -20.9721  -14.5784 N   0  0  0  0  0  0  0  0  0  0  0  0
   23.7332  -20.3903  -14.8255 C   0  0  1  0  0  0  0  0  0  0  0  0
   23.2338  -20.7217  -16.1927 C   0  0  0  0  0  0  0  0  0  0  0  0
   21.9304  -20.1143  -16.5146 C   0  0  0  0  0  0  0  0  0  0  0  0
   21.5479  -18.7803  -16.3985 C   0  0  0  0  0  0  0  0  0  0  0  0
   20.2798  -18.6654  -16.7726 N   0  0  0  0  0  0  0  0  0  0  0  0
   19.8044  -19.8624  -17.1311 C   0  0  0  0  0  0  0  0  0  0  0  0
   20.8073  -20.7414  -16.9742 N   0  0  0  0  0  0  0  0  0  0  0  0
   22.7520  -20.8041  -13.8019 C   0  0  0  0  0  0  0  0  0  0  0  0
   22.7469  -21.9841  -13.3929 O   0  0  0  0  0  0  0  0  0  0  0  0
   21.8015  -19.9080  -13.2540 N   0  0  0  0  0  0  0  0  0  0  0  0
   20.9269  -20.3610  -12.2105 C   0  0  1  0  0  0  0  0  0  0  0  0
   20.7931  -19.3662  -11.0806 C   0  0  0  0  0  0  0  0  0  0  0  0
   20.0965  -17.8409  -11.7754 S   0  0  0  0  0  0  0  0  0  0  0  0
   19.6063  -20.7451  -12.7633 C   0  0  0  0  0  0  0  0  0  0  0  0
   18.7487  -21.5758  -12.0840 O   0  0  0  0  0  0  0  0  0  0  0  0
   19.2520  -20.3040  -13.8829 O   0  0  0  0  0  0  0  0  0  0  0  0
  2  1  1  0
  2  3  1  0
  3  4  1  0
  4  5  1  0
  5  7  1  0
  5  6  1  6
  7  9  1  0
  8  7  2  0
  9 10  1  0
 10 11  1  6
 11 12  1  0
 12 13  2  0
 12 16  1  0
 13 14  1  0
 14 15  1  0
 16 15  2  0
 17 19  1  0
 17 10  1  0
 18 17  2  0
 20 19  1  0
 20 23  1  0
 20 21  1  1
 22 21  1  0
 23 24  1  0
 25 23  2  0
M  END
$$$$
