MHC.pdb
     RDKit          3D

 25 25  0  0  1  0  0  0  0  0999 V2000
   14.2680   -5.2334   -6.8333 C   0  0  0  0  0  0  0  0  0  0  0  0
   15.3257   -4.9422   -8.2598 S   0  0  0  0  0  0  0  0  0  0  0  0
   15.0046   -6.1598   -9.5510 C   0  0  0  0  0  0  0  0  0  0  0  0
   15.1441   -7.5760   -9.0258 C   0  0  0  0  0  0  0  0  0  0  0  0
   14.9437   -8.5690  -10.1690 C   0  0  2  0  0  0  0  0  0  0  0  0
   14.5327   -9.8453   -9.6146 N   0  0  0  0  0  0  0  0  0  0  0  0
   16.2110   -8.6965  -10.9420 C   0  0  0  0  0  0  0  0  0  0  0  0
   17.1820   -9.2805  -10.3626 O   0  0  0  0  0  0  0  0  0  0  0  0
   16.3103   -8.1869  -12.2536 N   0  0  0  0  0  0  0  0  0  0  0  0
   17.5549   -8.3731  -12.9786 C   0  0  1  0  0  0  0  0  0  0  0  0
   17.3245   -8.9992  -14.3141 C   0  0  0  0  0  0  0  0  0  0  0  0
   18.5611   -9.2555  -15.0734 C   0  0  0  0  0  0  0  0  0  0  0  0
   19.5287  -10.2303  -14.8433 C   0  0  0  0  0  0  0  0  0  0  0  0
   20.4915  -10.0983  -15.7470 N   0  0  0  0  0  0  0  0  0  0  0  0
   20.2063   -9.0804  -16.5655 C   0  0  0  0  0  0  0  0  0  0  0  0
   19.0341   -8.5694  -16.1558 N   0  0  0  0  0  0  0  0  0  0  0  0
   18.2948   -7.1029  -13.1234 C   0  0  0  0  0  0  0  0  0  0  0  0
   17.6720   -6.0205  -13.1093 O   0  0  0  0  0  0  0  0  0  0  0  0
   19.7019   -7.0566  -13.2796 N   0  0  0  0  0  0  0  0  0  0  0  0
   20.3552   -5.7847  -13.4007 C   0  0  1  0  0  0  0  0  0  0  0  0
   21.5322   -5.6354  -12.4644 C   0  0  0  0  0  0  0  0  0  0  0  0
   22.2773   -4.0104  -12.7785 S   0  0  0  0  0  0  0  0  0  0  0  0
   20.7371   -5.5235  -14.8089 C   0  0  0  0  0  0  0  0  0  0  0  0
   20.5233   -4.3044  -15.4049 O   0  0  0  0  0  0  0  0  0  0  0  0
   21.2717   -6.4353  -15.4845 O   0  0  0  0  0  0  0  0  0  0  0  0
  2  1  1  0
  2  3  1  0
  3  4  1  0
  4  5  1  0
  5  7  1  0
  5  6  1  1
  7  9  1  0
  8  7  2  0
  9 10  1  0
 10 11  1  6
 11 12  1  0
 12 13  2  0
 12 16  1  0
 13 14  1  0
 14 15  1  0
 16 15  2  0
 17 19  1  0
 17 10  1  0
 18 17  2  0
 20 19  1  0
 20 23  1  0
 20 21  1  1
 22 21  1  0
 23 24  1  0
 25 23  2  0
M  END
$$$$
