MHC.pdb
     RDKit          3D

 25 25  0  0  1  0  0  0  0  0999 V2000
   28.6261  -19.0854   -6.3636 C   0  0  0  0  0  0  0  0  0  0  0  0
   27.8432  -20.0857   -7.6382 S   0  0  0  0  0  0  0  0  0  0  0  0
   29.0654  -21.0985   -8.4945 C   0  0  0  0  0  0  0  0  0  0  0  0
   28.4131  -22.0106   -9.5160 C   0  0  0  0  0  0  0  0  0  0  0  0
   28.7436  -21.5220  -10.9250 C   0  0  2  0  0  0  0  0  0  0  0  0
   29.9779  -20.7607  -10.8797 N   0  0  0  0  0  0  0  0  0  0  0  0
   27.6156  -20.6959  -11.4399 C   0  0  0  0  0  0  0  0  0  0  0  0
   27.5735  -19.4810  -11.0632 O   0  0  0  0  0  0  0  0  0  0  0  0
   26.6493  -21.2527  -12.3036 N   0  0  0  0  0  0  0  0  0  0  0  0
   25.6020  -20.3903  -12.8221 C   0  0  1  0  0  0  0  0  0  0  0  0
   25.8737  -19.9827  -14.2322 C   0  0  0  0  0  0  0  0  0  0  0  0
   26.0650  -21.1163  -15.1540 C   0  0  0  0  0  0  0  0  0  0  0  0
   27.2042  -21.8958  -15.3383 C   0  0  0  0  0  0  0  0  0  0  0  0
   26.9578  -22.7959  -16.2819 N   0  0  0  0  0  0  0  0  0  0  0  0
   25.7074  -22.6484  -16.7315 C   0  0  0  0  0  0  0  0  0  0  0  0
   25.1661  -21.6284  -16.0460 N   0  0  0  0  0  0  0  0  0  0  0  0
   24.2725  -21.0246  -12.7139 C   0  0  0  0  0  0  0  0  0  0  0  0
   24.1895  -22.2503  -12.4891 O   0  0  0  0  0  0  0  0  0  0  0  0
   23.0676  -20.2932  -12.8555 N   0  0  0  0  0  0  0  0  0  0  0  0
   21.8113  -20.9755  -12.7319 C   0  0  1  0  0  0  0  0  0  0  0  0
   21.1808  -20.8069  -11.3687 C   0  0  0  0  0  0  0  0  0  0  0  0
   20.6810  -19.0693  -11.2092 S   0  0  0  0  0  0  0  0  0  0  0  0
   20.8869  -20.5724  -13.8182 C   0  0  0  0  0  0  0  0  0  0  0  0
   19.6926  -21.2169  -14.0316 O   0  0  0  0  0  0  0  0  0  0  0  0
   21.1945  -19.6163  -14.5698 O   0  0  0  0  0  0  0  0  0  0  0  0
  2  1  1  0
  2  3  1  0
  3  4  1  0
  4  5  1  0
  5  7  1  0
  5  6  1  1
  7  9  1  0
  8  7  2  0
  9 10  1  0
 10 11  1  6
 11 12  1  0
 12 13  2  0
 12 16  1  0
 13 14  1  0
 14 15  1  0
 16 15  2  0
 17 19  1  0
 17 10  1  0
 18 17  2  0
 20 19  1  0
 20 23  1  0
 20 21  1  1
 22 21  1  0
 23 24  1  0
 25 23  2  0
M  END
$$$$
