IVY.pdb
     RDKit          3D

 28 28  0  0  1  0  0  0  0  0999 V2000
   27.1556  -30.0077  -19.8824 C   0  0  0  0  0  0  0  0  0  0  0  0
   27.3458  -30.2822  -18.4296 C   0  0  0  0  0  0  0  0  0  0  0  0
   27.2820  -29.0387  -17.6025 C   0  0  2  0  0  0  0  0  0  0  0  0
   26.0563  -28.2253  -17.9534 C   0  0  0  0  0  0  0  0  0  0  0  0
   28.5354  -28.2073  -17.6546 C   0  0  2  0  0  0  0  0  0  0  0  0
   29.5932  -28.9999  -16.9751 N   0  0  0  0  0  0  0  0  0  0  0  0
   28.4478  -26.9304  -16.9144 C   0  0  0  0  0  0  0  0  0  0  0  0
   28.5801  -26.9375  -15.6489 O   0  0  0  0  0  0  0  0  0  0  0  0
   30.3662  -23.6106  -17.3583 C   0  0  0  0  0  0  0  0  0  0  0  0
   28.8904  -23.3684  -17.4071 C   0  0  2  0  0  0  0  0  0  0  0  0
   28.6105  -22.0078  -16.8069 C   0  0  0  0  0  0  0  0  0  0  0  0
   28.0930  -24.4434  -16.6992 C   0  0  2  0  0  0  0  0  0  0  0  0
   28.2265  -25.6538  -17.4829 N   0  0  0  0  0  0  0  0  0  0  0  0
   26.6752  -24.0507  -16.5223 C   0  0  0  0  0  0  0  0  0  0  0  0
   25.9429  -23.9254  -17.5415 O   0  0  0  0  0  0  0  0  0  0  0  0
   18.7314  -22.4198  -13.1402 O   0  0  0  0  0  0  0  0  0  0  0  0
   20.1042  -22.6530  -13.2595 C   0  0  0  0  0  0  0  0  0  0  0  0
   21.0391  -21.6604  -13.0763 C   0  0  0  0  0  0  0  0  0  0  0  0
   22.4078  -21.9318  -13.2040 C   0  0  0  0  0  0  0  0  0  0  0  0
   22.8492  -23.1939  -13.5149 C   0  0  0  0  0  0  0  0  0  0  0  0
   24.2802  -23.4801  -13.6505 C   0  0  0  0  0  0  0  0  0  0  0  0
   24.7006  -23.4041  -15.0752 C   0  0  2  0  0  0  0  0  0  0  0  0
   26.0962  -23.8066  -15.2487 N   0  0  0  0  0  0  0  0  0  0  0  0
   24.4238  -22.1076  -15.6665 C   0  0  0  0  0  0  0  0  0  0  0  0
   23.3561  -21.7616  -16.4620 O   0  0  0  0  0  0  0  0  0  0  0  0
   21.9030  -24.1706  -13.6939 C   0  0  0  0  0  0  0  0  0  0  0  0
   20.5426  -23.9179  -13.5708 C   0  0  0  0  0  0  0  0  0  0  0  0
   25.2566  -21.1646  -15.4365 O   0  0  0  0  0  0  0  0  0  0  0  0
  1  2  1  0
  2  3  1  0
  3  5  1  0
  3  4  1  6
  5  6  1  1
  5  7  1  0
  7  8  2  0
  7 13  1  0
 10 11  1  1
 10  9  1  0
 12 10  1  0
 12 13  1  6
 14 12  1  0
 14 15  2  0
 16 17  1  0
 17 27  2  0
 18 17  1  0
 18 19  2  0
 19 20  1  0
 20 26  2  0
 20 21  1  0
 22 23  1  0
 22 21  1  1
 23 14  1  0
 24 22  1  0
 25 24  1  0
 27 26  1  0
 28 24  2  0
M  END
$$$$
