IVY.pdb
     RDKit          3D

 28 28  0  0  1  0  0  0  0  0999 V2000
   25.0345  -13.0405  -15.3126 C   0  0  0  0  0  0  0  0  0  0  0  0
   25.2116  -14.0234  -16.4191 C   0  0  0  0  0  0  0  0  0  0  0  0
   25.3725  -15.4222  -15.9174 C   0  0  2  0  0  0  0  0  0  0  0  0
   26.4911  -15.5010  -14.9027 C   0  0  0  0  0  0  0  0  0  0  0  0
   25.5375  -16.4456  -17.0083 C   0  0  2  0  0  0  0  0  0  0  0  0
   24.3408  -16.3250  -17.8813 N   0  0  0  0  0  0  0  0  0  0  0  0
   25.5510  -17.8449  -16.5308 C   0  0  0  0  0  0  0  0  0  0  0  0
   24.4573  -18.3880  -16.1731 O   0  0  0  0  0  0  0  0  0  0  0  0
   26.8943  -21.1238  -18.0414 C   0  0  0  0  0  0  0  0  0  0  0  0
   27.5012  -20.8997  -16.6922 C   0  0  2  0  0  0  0  0  0  0  0  0
   27.7036  -22.2457  -16.0310 C   0  0  0  0  0  0  0  0  0  0  0  0
   26.6682  -19.9890  -15.8151 C   0  0  2  0  0  0  0  0  0  0  0  0
   26.6909  -18.6765  -16.4266 N   0  0  0  0  0  0  0  0  0  0  0  0
   27.1679  -19.9597  -14.4204 C   0  0  0  0  0  0  0  0  0  0  0  0
   28.3298  -19.5241  -14.1953 O   0  0  0  0  0  0  0  0  0  0  0  0
   21.1042  -20.2582   -9.4646 O   0  0  0  0  0  0  0  0  0  0  0  0
   22.4366  -20.0598   -9.8369 C   0  0  0  0  0  0  0  0  0  0  0  0
   23.4845  -20.2886   -8.9753 C   0  0  0  0  0  0  0  0  0  0  0  0
   24.8081  -20.0784   -9.3841 C   0  0  0  0  0  0  0  0  0  0  0  0
   25.0916  -19.6393  -10.6534 C   0  0  0  0  0  0  0  0  0  0  0  0
   26.4752  -19.4174  -11.0831 C   0  0  0  0  0  0  0  0  0  0  0  0
   26.9383  -20.5238  -11.9626 C   0  0  2  0  0  0  0  0  0  0  0  0
   26.3940  -20.4026  -13.3150 N   0  0  0  0  0  0  0  0  0  0  0  0
   26.6909  -21.8321  -11.3846 C   0  0  0  0  0  0  0  0  0  0  0  0
   25.8846  -22.8286  -11.8840 O   0  0  0  0  0  0  0  0  0  0  0  0
   24.0344  -19.4166  -11.4984 C   0  0  0  0  0  0  0  0  0  0  0  0
   22.7168  -19.6201  -11.1086 C   0  0  0  0  0  0  0  0  0  0  0  0
   27.2781  -22.1108  -10.2831 O   0  0  0  0  0  0  0  0  0  0  0  0
  1  2  1  0
  2  3  1  0
  3  5  1  0
  3  4  1  1
  5  6  1  6
  5  7  1  0
  7  8  2  0
  7 13  1  0
 10 11  1  1
 10  9  1  0
 12 10  1  0
 12 13  1  6
 14 12  1  0
 14 15  2  0
 16 17  1  0
 17 27  2  0
 18 17  1  0
 18 19  2  0
 19 20  1  0
 20 26  2  0
 20 21  1  0
 22 23  1  0
 22 21  1  1
 23 14  1  0
 24 22  1  0
 25 24  1  0
 27 26  1  0
 28 24  2  0
M  END
$$$$
