IVY.pdb
     RDKit          3D

 28 28  0  0  1  0  0  0  0  0999 V2000
   20.8110  -18.5518  -18.1919 C   0  0  0  0  0  0  0  0  0  0  0  0
   22.1298  -19.0624  -18.6629 C   0  0  0  0  0  0  0  0  0  0  0  0
   22.9112  -19.7149  -17.5683 C   0  0  2  0  0  0  0  0  0  0  0  0
   23.0219  -18.7982  -16.3705 C   0  0  0  0  0  0  0  0  0  0  0  0
   24.2577  -20.2275  -18.0031 C   0  0  2  0  0  0  0  0  0  0  0  0
   23.9994  -21.2482  -19.0521 N   0  0  0  0  0  0  0  0  0  0  0  0
   25.0148  -20.9223  -16.9400 C   0  0  0  0  0  0  0  0  0  0  0  0
   24.5804  -22.0320  -16.4941 O   0  0  0  0  0  0  0  0  0  0  0  0
   28.6545  -21.9539  -16.9047 C   0  0  0  0  0  0  0  0  0  0  0  0
   28.3707  -21.2015  -15.6428 C   0  0  2  0  0  0  0  0  0  0  0  0
   29.1879  -21.8161  -14.5273 C   0  0  0  0  0  0  0  0  0  0  0  0
   26.8995  -21.1838  -15.2854 C   0  0  2  0  0  0  0  0  0  0  0  0
   26.2159  -20.4703  -16.3440 N   0  0  0  0  0  0  0  0  0  0  0  0
   26.6625  -20.5679  -13.9587 C   0  0  0  0  0  0  0  0  0  0  0  0
   26.8077  -19.3220  -13.8274 O   0  0  0  0  0  0  0  0  0  0  0  0
   19.9108  -21.8285  -12.5248 O   0  0  0  0  0  0  0  0  0  0  0  0
   21.1858  -21.2999  -12.3054 C   0  0  0  0  0  0  0  0  0  0  0  0
   22.1810  -21.3583  -13.2535 C   0  0  0  0  0  0  0  0  0  0  0  0
   23.4479  -20.8171  -12.9976 C   0  0  0  0  0  0  0  0  0  0  0  0
   23.7270  -20.2159  -11.7956 C   0  0  0  0  0  0  0  0  0  0  0  0
   25.0518  -19.6503  -11.5249 C   0  0  0  0  0  0  0  0  0  0  0  0
   26.0860  -20.7189  -11.4977 C   0  0  2  0  0  0  0  0  0  0  0  0
   26.2763  -21.3201  -12.8177 N   0  0  0  0  0  0  0  0  0  0  0  0
   25.8292  -21.7131  -10.4717 C   0  0  0  0  0  0  0  0  0  0  0  0
   25.7285  -23.0756  -10.6333 O   0  0  0  0  0  0  0  0  0  0  0  0
   22.7228  -20.1670  -10.8626 C   0  0  0  0  0  0  0  0  0  0  0  0
   21.4617  -20.6987  -11.1007 C   0  0  0  0  0  0  0  0  0  0  0  0
   25.6728  -21.2964   -9.2727 O   0  0  0  0  0  0  0  0  0  0  0  0
  1  2  1  0
  2  3  1  0
  3  5  1  0
  3  4  1  1
  5  6  1  6
  5  7  1  0
  7  8  2  0
  7 13  1  0
 10 11  1  1
 10  9  1  0
 12 10  1  0
 12 13  1  6
 14 12  1  0
 14 15  2  0
 16 17  1  0
 17 27  2  0
 18 17  1  0
 18 19  2  0
 19 20  1  0
 20 26  2  0
 20 21  1  0
 22 23  1  0
 22 21  1  6
 23 14  1  0
 24 22  1  0
 25 24  1  0
 27 26  1  0
 28 24  2  0
M  END
$$$$
