IVY.pdb
     RDKit          3D

 28 28  0  0  1  0  0  0  0  0999 V2000
   18.3088  -16.9010  -12.8072 C   0  0  0  0  0  0  0  0  0  0  0  0
   18.9473  -17.6542  -13.9238 C   0  0  0  0  0  0  0  0  0  0  0  0
   20.0739  -18.5182  -13.4563 C   0  0  2  0  0  0  0  0  0  0  0  0
   21.0559  -17.7167  -12.6314 C   0  0  0  0  0  0  0  0  0  0  0  0
   20.7616  -19.2735  -14.5615 C   0  0  2  0  0  0  0  0  0  0  0  0
   19.7321  -20.1553  -15.1709 N   0  0  0  0  0  0  0  0  0  0  0  0
   21.8428  -20.1712  -14.1017 C   0  0  0  0  0  0  0  0  0  0  0  0
   21.5424  -21.2100  -13.4311 O   0  0  0  0  0  0  0  0  0  0  0  0
   24.4258  -21.9132  -16.1787 C   0  0  0  0  0  0  0  0  0  0  0  0
   25.1381  -21.2136  -15.0643 C   0  0  2  0  0  0  0  0  0  0  0  0
   26.3197  -22.0619  -14.6470 C   0  0  0  0  0  0  0  0  0  0  0  0
   24.2393  -20.9232  -13.8809 C   0  0  2  0  0  0  0  0  0  0  0  0
   23.2267  -19.9940  -14.3372 N   0  0  0  0  0  0  0  0  0  0  0  0
   25.0022  -20.3898  -12.7279 C   0  0  0  0  0  0  0  0  0  0  0  0
   25.3846  -19.1881  -12.7500 O   0  0  0  0  0  0  0  0  0  0  0  0
   29.3628  -18.9973   -5.2964 O   0  0  0  0  0  0  0  0  0  0  0  0
   28.4955  -19.5327   -6.2526 C   0  0  0  0  0  0  0  0  0  0  0  0
   28.4803  -20.8723   -6.5660 C   0  0  0  0  0  0  0  0  0  0  0  0
   27.5961  -21.3731   -7.5307 C   0  0  0  0  0  0  0  0  0  0  0  0
   26.7240  -20.5402   -8.1863 C   0  0  0  0  0  0  0  0  0  0  0  0
   25.7991  -21.0613   -9.1969 C   0  0  0  0  0  0  0  0  0  0  0  0
   26.2764  -20.7347  -10.5671 C   0  0  2  0  0  0  0  0  0  0  0  0
   25.3263  -21.1739  -11.5891 N   0  0  0  0  0  0  0  0  0  0  0  0
   27.6198  -21.2240  -10.8176 C   0  0  0  0  0  0  0  0  0  0  0  0
   28.8001  -20.5276  -10.6969 O   0  0  0  0  0  0  0  0  0  0  0  0
   26.7533  -19.2080   -7.8609 C   0  0  0  0  0  0  0  0  0  0  0  0
   27.6236  -18.6958   -6.9070 C   0  0  0  0  0  0  0  0  0  0  0  0
   27.7437  -22.4389  -11.1977 O   0  0  0  0  0  0  0  0  0  0  0  0
  1  2  1  0
  2  3  1  0
  3  5  1  0
  3  4  1  6
  5  6  1  1
  5  7  1  0
  7  8  2  0
  7 13  1  0
 10 11  1  1
 10  9  1  0
 12 10  1  0
 12 13  1  6
 14 12  1  0
 14 15  2  0
 16 17  1  0
 17 27  2  0
 18 17  1  0
 18 19  2  0
 19 20  1  0
 20 26  2  0
 20 21  1  0
 22 23  1  0
 22 21  1  1
 23 14  1  0
 24 22  1  0
 25 24  1  0
 27 26  1  0
 28 24  2  0
M  END
$$$$
