IVY.pdb
     RDKit          3D

 28 28  0  0  1  0  0  0  0  0999 V2000
   21.4283  -15.0895  -18.5177 C   0  0  0  0  0  0  0  0  0  0  0  0
   22.6991  -15.5834  -19.1202 C   0  0  0  0  0  0  0  0  0  0  0  0
   23.2883  -16.7221  -18.3517 C   0  0  2  0  0  0  0  0  0  0  0  0
   23.4020  -16.3748  -16.8841 C   0  0  0  0  0  0  0  0  0  0  0  0
   24.5943  -17.2217  -18.9082 C   0  0  2  0  0  0  0  0  0  0  0  0
   24.3253  -17.6233  -20.3136 N   0  0  0  0  0  0  0  0  0  0  0  0
   25.1183  -18.4295  -18.2353 C   0  0  0  0  0  0  0  0  0  0  0  0
   24.4051  -19.4829  -18.2092 O   0  0  0  0  0  0  0  0  0  0  0  0
   28.2161  -20.4105  -18.8977 C   0  0  0  0  0  0  0  0  0  0  0  0
   28.2066  -20.0587  -17.4434 C   0  0  2  0  0  0  0  0  0  0  0  0
   28.8273  -21.2031  -16.6720 C   0  0  0  0  0  0  0  0  0  0  0  0
   26.8198  -19.7473  -16.9215 C   0  0  2  0  0  0  0  0  0  0  0  0
   26.3748  -18.5451  -17.5950 N   0  0  0  0  0  0  0  0  0  0  0  0
   26.8077  -19.5940  -15.4477 C   0  0  0  0  0  0  0  0  0  0  0  0
   27.0245  -18.4562  -14.9487 O   0  0  0  0  0  0  0  0  0  0  0  0
   22.8579  -21.0181   -7.9294 O   0  0  0  0  0  0  0  0  0  0  0  0
   23.4817  -20.6477   -9.1239 C   0  0  0  0  0  0  0  0  0  0  0  0
   22.8355  -20.6930  -10.3377 C   0  0  0  0  0  0  0  0  0  0  0  0
   23.4937  -20.3136  -11.5152 C   0  0  0  0  0  0  0  0  0  0  0  0
   24.7983  -19.8878  -11.4866 C   0  0  0  0  0  0  0  0  0  0  0  0
   25.4894  -19.4918  -12.7169 C   0  0  0  0  0  0  0  0  0  0  0  0
   26.4947  -20.5150  -13.1099 C   0  0  2  0  0  0  0  0  0  0  0  0
   26.5615  -20.6767  -14.5622 N   0  0  0  0  0  0  0  0  0  0  0  0
   26.2969  -21.7788  -12.4237 C   0  0  0  0  0  0  0  0  0  0  0  0
   26.8154  -22.1610  -11.2081 O   0  0  0  0  0  0  0  0  0  0  0  0
   25.4263  -19.8492  -10.2678 C   0  0  0  0  0  0  0  0  0  0  0  0
   24.7881  -20.2218   -9.0916 C   0  0  0  0  0  0  0  0  0  0  0  0
   25.5615  -22.6532  -12.9984 O   0  0  0  0  0  0  0  0  0  0  0  0
  1  2  1  0
  2  3  1  0
  3  5  1  0
  3  4  1  1
  5  6  1  6
  5  7  1  0
  7  8  2  0
  7 13  1  0
 10 11  1  1
 10  9  1  0
 12 10  1  0
 12 13  1  6
 14 12  1  0
 14 15  2  0
 16 17  1  0
 17 27  2  0
 18 17  1  0
 18 19  2  0
 19 20  1  0
 20 26  2  0
 20 21  1  0
 22 23  1  0
 22 21  1  6
 23 14  1  0
 24 22  1  0
 25 24  1  0
 27 26  1  0
 28 24  2  0
M  END
$$$$
