IVY.pdb
     RDKit          3D

 28 28  0  0  1  0  0  0  0  0999 V2000
   31.0225  -18.4793    6.7716 C   0  0  0  0  0  0  0  0  0  0  0  0
   30.2263  -19.4997    7.5110 C   0  0  0  0  0  0  0  0  0  0  0  0
   31.0608  -20.2890    8.4675 C   0  0  2  0  0  0  0  0  0  0  0  0
   32.2724  -20.8659    7.7701 C   0  0  0  0  0  0  0  0  0  0  0  0
   30.2943  -21.3455    9.2166 C   0  0  2  0  0  0  0  0  0  0  0  0
   29.1815  -20.6447    9.9092 N   0  0  0  0  0  0  0  0  0  0  0  0
   31.0708  -22.0204   10.2785 C   0  0  0  0  0  0  0  0  0  0  0  0
   31.3089  -21.3983   11.3626 O   0  0  0  0  0  0  0  0  0  0  0  0
   30.7129  -25.5628   11.8617 C   0  0  0  0  0  0  0  0  0  0  0  0
   32.1099  -25.3533   11.3680 C   0  0  2  0  0  0  0  0  0  0  0  0
   33.0601  -26.0538   12.3147 C   0  0  0  0  0  0  0  0  0  0  0  0
   32.4719  -23.8898   11.2271 C   0  0  2  0  0  0  0  0  0  0  0  0
   31.5957  -23.3330   10.2176 N   0  0  0  0  0  0  0  0  0  0  0  0
   33.9015  -23.7070   10.8827 C   0  0  0  0  0  0  0  0  0  0  0  0
   34.3213  -24.1250    9.7693 O   0  0  0  0  0  0  0  0  0  0  0  0
   42.4070  -21.4762   10.9429 O   0  0  0  0  0  0  0  0  0  0  0  0
   41.0121  -21.5187   11.0198 C   0  0  0  0  0  0  0  0  0  0  0  0
   40.2209  -21.7702    9.9227 C   0  0  0  0  0  0  0  0  0  0  0  0
   38.8249  -21.8051   10.0382 C   0  0  0  0  0  0  0  0  0  0  0  0
   38.2129  -21.5894   11.2479 C   0  0  0  0  0  0  0  0  0  0  0  0
   36.7528  -21.6240   11.3711 C   0  0  0  0  0  0  0  0  0  0  0  0
   36.2658  -23.0251   11.4800 C   0  0  2  0  0  0  0  0  0  0  0  0
   34.8298  -23.0780   11.7541 N   0  0  0  0  0  0  0  0  0  0  0  0
   37.0367  -23.8080   12.4285 C   0  0  0  0  0  0  0  0  0  0  0  0
   36.7579  -24.0225   13.7585 O   0  0  0  0  0  0  0  0  0  0  0  0
   39.0176  -21.3403   12.3303 C   0  0  0  0  0  0  0  0  0  0  0  0
   40.4028  -21.3023   12.2326 C   0  0  0  0  0  0  0  0  0  0  0  0
   38.1030  -24.3699   12.0006 O   0  0  0  0  0  0  0  0  0  0  0  0
  1  2  1  0
  2  3  1  0
  3  5  1  0
  3  4  1  6
  5  6  1  1
  5  7  1  0
  7  8  2  0
  7 13  1  0
 10 11  1  1
 10  9  1  0
 12 10  1  0
 12 13  1  6
 14 12  1  0
 14 15  2  0
 16 17  1  0
 17 27  2  0
 18 17  1  0
 18 19  2  0
 19 20  1  0
 20 26  2  0
 20 21  1  0
 22 23  1  0
 22 21  1  1
 23 14  1  0
 24 22  1  0
 25 24  1  0
 27 26  1  0
 28 24  2  0
M  END
$$$$
