IVY.pdb
     RDKit          3D

 28 28  0  0  1  0  0  0  0  0999 V2000
   18.8726  -18.5869  -13.4306 C   0  0  0  0  0  0  0  0  0  0  0  0
   19.8372  -18.7672  -14.5526 C   0  0  0  0  0  0  0  0  0  0  0  0
   21.1169  -19.3983  -14.1070 C   0  0  2  0  0  0  0  0  0  0  0  0
   21.6772  -18.6774  -12.9013 C   0  0  0  0  0  0  0  0  0  0  0  0
   22.1422  -19.5344  -15.2002 C   0  0  2  0  0  0  0  0  0  0  0  0
   21.5332  -20.4033  -16.2408 N   0  0  0  0  0  0  0  0  0  0  0  0
   23.3874  -20.2139  -14.7833 C   0  0  0  0  0  0  0  0  0  0  0  0
   23.3461  -21.4473  -14.4733 O   0  0  0  0  0  0  0  0  0  0  0  0
   26.6270  -20.5767  -16.6484 C   0  0  0  0  0  0  0  0  0  0  0  0
   26.9348  -20.0331  -15.2887 C   0  0  2  0  0  0  0  0  0  0  0  0
   28.2668  -20.5946  -14.8411 C   0  0  0  0  0  0  0  0  0  0  0  0
   25.8536  -20.3381  -14.2735 C   0  0  2  0  0  0  0  0  0  0  0  0
   24.6677  -19.6189  -14.6900 N   0  0  0  0  0  0  0  0  0  0  0  0
   26.2698  -19.9724  -12.8992 C   0  0  0  0  0  0  0  0  0  0  0  0
   26.3613  -18.7528  -12.5913 O   0  0  0  0  0  0  0  0  0  0  0  0
   28.8824  -19.0389   -4.7228 O   0  0  0  0  0  0  0  0  0  0  0  0
   28.3479  -19.5745   -5.8979 C   0  0  0  0  0  0  0  0  0  0  0  0
   29.0604  -20.4258   -6.7105 C   0  0  0  0  0  0  0  0  0  0  0  0
   28.4912  -20.9434   -7.8817 C   0  0  0  0  0  0  0  0  0  0  0  0
   27.2096  -20.6139   -8.2466 C   0  0  0  0  0  0  0  0  0  0  0  0
   26.6124  -21.1528   -9.4718 C   0  0  0  0  0  0  0  0  0  0  0  0
   27.2983  -20.6113  -10.6753 C   0  0  2  0  0  0  0  0  0  0  0  0
   26.5734  -20.9381  -11.9031 N   0  0  0  0  0  0  0  0  0  0  0  0
   28.6950  -21.0015  -10.7401 C   0  0  0  0  0  0  0  0  0  0  0  0
   29.7842  -20.2897  -10.2935 O   0  0  0  0  0  0  0  0  0  0  0  0
   26.5145  -19.7641   -7.4245 C   0  0  0  0  0  0  0  0  0  0  0  0
   27.0644  -19.2425   -6.2603 C   0  0  0  0  0  0  0  0  0  0  0  0
   28.9673  -22.1324  -11.2718 O   0  0  0  0  0  0  0  0  0  0  0  0
  1  2  1  0
  2  3  1  0
  3  5  1  0
  3  4  1  1
  5  6  1  6
  5  7  1  0
  7  8  2  0
  7 13  1  0
 10 11  1  1
 10  9  1  0
 12 10  1  0
 12 13  1  6
 14 12  1  0
 14 15  2  0
 16 17  1  0
 17 27  2  0
 18 17  1  0
 18 19  2  0
 19 20  1  0
 20 26  2  0
 20 21  1  0
 22 23  1  0
 22 21  1  1
 23 14  1  0
 24 22  1  0
 25 24  1  0
 27 26  1  0
 28 24  2  0
M  END
$$$$
