IVY.pdb
     RDKit          3D

 28 28  0  0  1  0  0  0  0  0999 V2000
   26.6620  -14.0820  -15.8755 C   0  0  0  0  0  0  0  0  0  0  0  0
   26.1284  -15.3955  -16.3359 C   0  0  0  0  0  0  0  0  0  0  0  0
   25.7956  -16.3051  -15.1975 C   0  0  2  0  0  0  0  0  0  0  0  0
   26.9715  -16.4351  -14.2554 C   0  0  0  0  0  0  0  0  0  0  0  0
   25.2735  -17.6503  -15.6249 C   0  0  2  0  0  0  0  0  0  0  0  0
   24.0158  -17.3935  -16.3739 N   0  0  0  0  0  0  0  0  0  0  0  0
   24.9029  -18.5414  -14.5048 C   0  0  0  0  0  0  0  0  0  0  0  0
   23.8335  -18.3087  -13.8556 O   0  0  0  0  0  0  0  0  0  0  0  0
   24.1727  -22.1633  -14.5199 C   0  0  0  0  0  0  0  0  0  0  0  0
   25.2054  -21.9318  -13.4622 C   0  0  2  0  0  0  0  0  0  0  0  0
   24.9533  -22.9026  -12.3291 C   0  0  0  0  0  0  0  0  0  0  0  0
   25.2203  -20.5051  -12.9553 C   0  0  2  0  0  0  0  0  0  0  0  0
   25.6355  -19.6678  -14.0615 N   0  0  0  0  0  0  0  0  0  0  0  0
   26.1064  -20.3482  -11.7781 C   0  0  0  0  0  0  0  0  0  0  0  0
   27.3516  -20.4828  -11.9268 O   0  0  0  0  0  0  0  0  0  0  0  0
   29.3660  -19.0908   -3.7202 O   0  0  0  0  0  0  0  0  0  0  0  0
   28.5170  -19.0917   -4.8304 C   0  0  0  0  0  0  0  0  0  0  0  0
   28.3171  -17.9731   -5.6062 C   0  0  0  0  0  0  0  0  0  0  0  0
   27.4578  -18.0118   -6.7124 C   0  0  0  0  0  0  0  0  0  0  0  0
   26.7949  -19.1657   -7.0489 C   0  0  0  0  0  0  0  0  0  0  0  0
   25.8946  -19.2084   -8.2046 C   0  0  0  0  0  0  0  0  0  0  0  0
   26.4693  -20.0469   -9.2903 C   0  0  2  0  0  0  0  0  0  0  0  0
   25.6164  -20.0509  -10.4787 N   0  0  0  0  0  0  0  0  0  0  0  0
   26.7947  -21.3884   -8.8415 C   0  0  0  0  0  0  0  0  0  0  0  0
   28.0354  -21.8821   -8.5106 O   0  0  0  0  0  0  0  0  0  0  0  0
   27.0065  -20.2706   -6.2642 C   0  0  0  0  0  0  0  0  0  0  0  0
   27.8549  -20.2488   -5.1645 C   0  0  0  0  0  0  0  0  0  0  0  0
   25.8328  -22.2249   -8.7369 O   0  0  0  0  0  0  0  0  0  0  0  0
  1  2  1  0
  2  3  1  0
  3  5  1  0
  3  4  1  6
  5  6  1  6
  5  7  1  0
  7  8  2  0
  7 13  1  0
 10 11  1  1
 10  9  1  0
 12 10  1  0
 12 13  1  6
 14 12  1  0
 14 15  2  0
 16 17  1  0
 17 27  2  0
 18 17  1  0
 18 19  2  0
 19 20  1  0
 20 26  2  0
 20 21  1  0
 22 23  1  0
 22 21  1  1
 23 14  1  0
 24 22  1  0
 25 24  1  0
 27 26  1  0
 28 24  2  0
M  END
$$$$
