IVY.pdb
     RDKit          3D

 28 28  0  0  1  0  0  0  0  0999 V2000
   15.1669  -12.3850  -15.8264 C   0  0  0  0  0  0  0  0  0  0  0  0
   16.4249  -12.3490  -16.6252 C   0  0  0  0  0  0  0  0  0  0  0  0
   17.4238  -11.3853  -16.0704 C   0  0  2  0  0  0  0  0  0  0  0  0
   16.8237  -10.0021  -15.9519 C   0  0  0  0  0  0  0  0  0  0  0  0
   18.7296  -11.3632  -16.8182 C   0  0  2  0  0  0  0  0  0  0  0  0
   19.2752  -12.7440  -16.7506 N   0  0  0  0  0  0  0  0  0  0  0  0
   19.7598  -10.4909  -16.2149 C   0  0  0  0  0  0  0  0  0  0  0  0
   20.3622  -10.8792  -15.1636 O   0  0  0  0  0  0  0  0  0  0  0  0
   22.8318   -8.9671  -17.8918 C   0  0  0  0  0  0  0  0  0  0  0  0
   22.0757   -7.8889  -17.1813 C   0  0  2  0  0  0  0  0  0  0  0  0
   23.0710   -6.8850  -16.6416 C   0  0  0  0  0  0  0  0  0  0  0  0
   21.1927   -8.4211  -16.0724 C   0  0  2  0  0  0  0  0  0  0  0  0
   20.1642   -9.2246  -16.6997 N   0  0  0  0  0  0  0  0  0  0  0  0
   20.6194   -7.3280  -15.2526 C   0  0  0  0  0  0  0  0  0  0  0  0
   19.7909   -6.5369  -15.7801 O   0  0  0  0  0  0  0  0  0  0  0  0
   17.2080   -2.2256   -9.1515 O   0  0  0  0  0  0  0  0  0  0  0  0
   17.8275   -3.2949   -9.8043 C   0  0  0  0  0  0  0  0  0  0  0  0
   18.6365   -4.1917   -9.1453 C   0  0  0  0  0  0  0  0  0  0  0  0
   19.2410   -5.2521   -9.8333 C   0  0  0  0  0  0  0  0  0  0  0  0
   19.0412   -5.4221  -11.1807 C   0  0  0  0  0  0  0  0  0  0  0  0
   19.6736   -6.5296  -11.9030 C   0  0  0  0  0  0  0  0  0  0  0  0
   20.4193   -6.0288  -13.0884 C   0  0  2  0  0  0  0  0  0  0  0  0
   20.9614   -7.1266  -13.8889 N   0  0  0  0  0  0  0  0  0  0  0  0
   21.4336   -5.0529  -12.7337 C   0  0  0  0  0  0  0  0  0  0  0  0
   21.3428   -3.6828  -12.8193 O   0  0  0  0  0  0  0  0  0  0  0  0
   18.2319   -4.5185  -11.8208 C   0  0  0  0  0  0  0  0  0  0  0  0
   17.6253   -3.4620  -11.1534 C   0  0  0  0  0  0  0  0  0  0  0  0
   22.5487   -5.4956  -12.2906 O   0  0  0  0  0  0  0  0  0  0  0  0
  1  2  1  0
  2  3  1  0
  3  5  1  0
  3  4  1  6
  5  6  1  1
  5  7  1  0
  7  8  2  0
  7 13  1  0
 10 11  1  1
 10  9  1  0
 12 10  1  0
 12 13  1  6
 14 12  1  0
 14 15  2  0
 16 17  1  0
 17 27  2  0
 18 17  1  0
 18 19  2  0
 19 20  1  0
 20 26  2  0
 20 21  1  0
 22 23  1  0
 22 21  1  1
 23 14  1  0
 24 22  1  0
 25 24  1  0
 27 26  1  0
 28 24  2  0
M  END
$$$$
