LMC.pdb
     RDKit          3D

 23 22  0  0  1  0  0  0  0  0999 V2000
    9.1582  -14.7329   18.3845 C   0  0  0  0  0  0  0  0  0  0  0  0
    7.9768  -14.0970   19.0731 C   0  0  2  0  0  0  0  0  0  0  0  0
    7.5212  -12.8985   18.3101 C   0  0  0  0  0  0  0  0  0  0  0  0
    8.3167  -13.7434   20.5253 C   0  0  0  0  0  0  0  0  0  0  0  0
    8.7305  -15.0427   21.2009 C   0  0  2  0  0  0  0  0  0  0  0  0
    7.6026  -15.9489   21.0912 N   0  0  0  0  0  0  0  0  0  0  0  0
    9.1116  -14.8580   22.6017 C   0  0  0  0  0  0  0  0  0  0  0  0
   10.2485  -14.3342   22.8609 O   0  0  0  0  0  0  0  0  0  0  0  0
    5.3050  -10.9323   26.7449 C   0  0  0  0  0  0  0  0  0  0  0  0
    5.8031  -12.6508   26.8669 S   0  0  0  0  0  0  0  0  0  0  0  0
    7.1375  -13.0511   25.6897 C   0  0  0  0  0  0  0  0  0  0  0  0
    7.5200  -14.4752   25.9197 C   0  0  0  0  0  0  0  0  0  0  0  0
    8.6963  -14.9379   25.1004 C   0  0  2  0  0  0  0  0  0  0  0  0
    8.3381  -15.2056   23.7237 N   0  0  0  0  0  0  0  0  0  0  0  0
    9.4518  -16.0121   25.7344 C   0  0  0  0  0  0  0  0  0  0  0  0
    9.3483  -17.2266   25.4297 O   0  0  0  0  0  0  0  0  0  0  0  0
   10.3764  -15.7067   26.7692 N   0  0  0  0  0  0  0  0  0  0  0  0
   11.1541  -16.7452   27.4475 C   0  0  1  0  0  0  0  0  0  0  0  0
   12.0389  -16.0272   28.4661 C   0  0  0  0  0  0  0  0  0  0  0  0
   10.9886  -14.9801   29.5118 S   0  0  0  0  0  0  0  0  0  0  0  0
   10.3011  -17.7520   28.0718 C   0  0  0  0  0  0  0  0  0  0  0  0
   10.8475  -18.8954   28.6170 O   0  0  0  0  0  0  0  0  0  0  0  0
    9.0633  -17.5882   28.1189 O   0  0  0  0  0  0  0  0  0  0  0  0
  2  1  1  6
  3  2  1  0
  4  2  1  0
  5  4  1  0
  5  6  1  1
  7  8  2  0
  7  5  1  0
  9 10  1  0
 11 10  1  0
 12 11  1  0
 13 12  1  1
 13 14  1  0
 14  7  1  0
 15 13  1  0
 15 17  1  0
 16 15  2  0
 18 17  1  0
 18 21  1  0
 18 19  1  1
 20 19  1  0
 21 22  1  0
 23 21  2  0
M  END
$$$$
