LMC.pdb
     RDKit          3D

 23 22  0  0  1  0  0  0  0  0999 V2000
    8.9921  -13.0277   20.1775 C   0  0  0  0  0  0  0  0  0  0  0  0
    8.0400  -13.7708   19.2743 C   0  0  2  0  0  0  0  0  0  0  0  0
    7.0768  -12.8187   18.6483 C   0  0  0  0  0  0  0  0  0  0  0  0
    7.3145  -14.8817   20.0417 C   0  0  0  0  0  0  0  0  0  0  0  0
    8.3942  -15.7289   20.6991 C   0  0  2  0  0  0  0  0  0  0  0  0
    7.7809  -17.0000   21.0365 N   0  0  0  0  0  0  0  0  0  0  0  0
    8.9650  -15.0977   21.8896 C   0  0  0  0  0  0  0  0  0  0  0  0
   10.1131  -14.5435   21.7954 O   0  0  0  0  0  0  0  0  0  0  0  0
    5.4264  -12.1760   27.7373 C   0  0  0  0  0  0  0  0  0  0  0  0
    6.9011  -12.0276   26.7276 S   0  0  0  0  0  0  0  0  0  0  0  0
    7.0946  -13.4507   25.6034 C   0  0  0  0  0  0  0  0  0  0  0  0
    8.3628  -13.2471   24.8436 C   0  0  0  0  0  0  0  0  0  0  0  0
    9.0017  -14.5216   24.3572 C   0  0  2  0  0  0  0  0  0  0  0  0
    8.3677  -15.0347   23.1613 N   0  0  0  0  0  0  0  0  0  0  0  0
    9.1728  -15.5170   25.4091 C   0  0  0  0  0  0  0  0  0  0  0  0
    9.4778  -15.2467   26.5976 O   0  0  0  0  0  0  0  0  0  0  0  0
    8.9914  -16.8944   25.1111 N   0  0  0  0  0  0  0  0  0  0  0  0
    9.1435  -17.9360   26.1286 C   0  0  1  0  0  0  0  0  0  0  0  0
    7.9515  -18.8784   25.9646 C   0  0  0  0  0  0  0  0  0  0  0  0
    6.4230  -17.9243   26.1806 S   0  0  0  0  0  0  0  0  0  0  0  0
   10.4192  -18.6362   26.0129 C   0  0  0  0  0  0  0  0  0  0  0  0
   10.6971  -19.7264   26.8112 O   0  0  0  0  0  0  0  0  0  0  0  0
   11.2754  -18.2543   25.1869 O   0  0  0  0  0  0  0  0  0  0  0  0
  2  1  1  1
  3  2  1  0
  4  2  1  0
  5  4  1  0
  5  6  1  1
  7  8  2  0
  7  5  1  0
  9 10  1  0
 11 10  1  0
 12 11  1  0
 13 12  1  1
 13 14  1  0
 14  7  1  0
 15 13  1  0
 15 17  1  0
 16 15  2  0
 18 17  1  0
 18 21  1  0
 18 19  1  6
 20 19  1  0
 21 22  1  0
 23 21  2  0
M  END
$$$$
