LMC.pdb
     RDKit          3D

 23 22  0  0  1  0  0  0  0  0999 V2000
    9.1627  -13.1884   20.1567 C   0  0  0  0  0  0  0  0  0  0  0  0
    8.0156  -13.6526   19.2946 C   0  0  2  0  0  0  0  0  0  0  0  0
    7.3853  -12.4879   18.6072 C   0  0  0  0  0  0  0  0  0  0  0  0
    6.9927  -14.4376   20.1233 C   0  0  0  0  0  0  0  0  0  0  0  0
    7.7908  -15.3483   21.0450 C   0  0  2  0  0  0  0  0  0  0  0  0
    7.1529  -16.6508   21.0011 N   0  0  0  0  0  0  0  0  0  0  0  0
    7.8554  -14.8498   22.4194 C   0  0  0  0  0  0  0  0  0  0  0  0
    6.9743  -14.0078   22.8051 O   0  0  0  0  0  0  0  0  0  0  0  0
    7.0464  -11.3177   26.7483 C   0  0  0  0  0  0  0  0  0  0  0  0
    6.0176  -12.7521   26.4319 S   0  0  0  0  0  0  0  0  0  0  0  0
    6.5893  -13.6829   24.9712 C   0  0  0  0  0  0  0  0  0  0  0  0
    7.5808  -14.6914   25.4476 C   0  0  0  0  0  0  0  0  0  0  0  0
    8.8992  -14.6514   24.7201 C   0  0  2  0  0  0  0  0  0  0  0  0
    8.8106  -15.2089   23.3872 N   0  0  0  0  0  0  0  0  0  0  0  0
   10.0073  -15.1778   25.5086 C   0  0  0  0  0  0  0  0  0  0  0  0
   11.1868  -14.7495   25.4474 O   0  0  0  0  0  0  0  0  0  0  0  0
    9.7793  -16.2456   26.4179 N   0  0  0  0  0  0  0  0  0  0  0  0
   10.5566  -16.3966   27.6494 C   0  0  1  0  0  0  0  0  0  0  0  0
   10.3613  -15.1065   28.4452 C   0  0  0  0  0  0  0  0  0  0  0  0
   11.3052  -15.2287   29.9902 S   0  0  0  0  0  0  0  0  0  0  0  0
   10.1594  -17.5780   28.4094 C   0  0  0  0  0  0  0  0  0  0  0  0
   11.1096  -18.3898   28.9935 O   0  0  0  0  0  0  0  0  0  0  0  0
    8.9508  -17.8672   28.5392 O   0  0  0  0  0  0  0  0  0  0  0  0
  2  1  1  1
  3  2  1  0
  4  2  1  0
  5  4  1  0
  5  6  1  1
  7  8  2  0
  7  5  1  0
  9 10  1  0
 11 10  1  0
 12 11  1  0
 13 12  1  1
 13 14  1  0
 14  7  1  0
 15 13  1  0
 15 17  1  0
 16 15  2  0
 18 17  1  0
 18 21  1  0
 18 19  1  1
 20 19  1  0
 21 22  1  0
 23 21  2  0
M  END
$$$$
