LMC.pdb
     RDKit          3D

 23 22  0  0  1  0  0  0  0  0999 V2000
    7.8997  -14.4484   17.8963 C   0  0  0  0  0  0  0  0  0  0  0  0
    7.6494  -13.6937   19.1777 C   0  0  2  0  0  0  0  0  0  0  0  0
    7.3809  -12.2558   18.8832 C   0  0  0  0  0  0  0  0  0  0  0  0
    8.8248  -13.8592   20.1474 C   0  0  0  0  0  0  0  0  0  0  0  0
    8.6215  -15.1942   20.8490 C   0  0  2  0  0  0  0  0  0  0  0  0
    7.2880  -15.6498   20.5031 N   0  0  0  0  0  0  0  0  0  0  0  0
    8.7762  -15.1019   22.3013 C   0  0  0  0  0  0  0  0  0  0  0  0
    9.9321  -14.8326   22.7760 O   0  0  0  0  0  0  0  0  0  0  0  0
    7.6658  -12.0326   28.6876 C   0  0  0  0  0  0  0  0  0  0  0  0
    7.4493  -12.4892   26.9669 S   0  0  0  0  0  0  0  0  0  0  0  0
    6.8907  -14.2167   26.7929 C   0  0  0  0  0  0  0  0  0  0  0  0
    6.7253  -14.4850   25.3343 C   0  0  0  0  0  0  0  0  0  0  0  0
    7.9212  -15.1326   24.6868 C   0  0  2  0  0  0  0  0  0  0  0  0
    7.7597  -15.2831   23.2562 N   0  0  0  0  0  0  0  0  0  0  0  0
    8.3533  -16.3496   25.3642 C   0  0  0  0  0  0  0  0  0  0  0  0
    7.6137  -17.3426   25.5773 O   0  0  0  0  0  0  0  0  0  0  0  0
    9.6915  -16.4591   25.8291 N   0  0  0  0  0  0  0  0  0  0  0  0
   10.1592  -17.6239   26.5828 C   0  0  1  0  0  0  0  0  0  0  0  0
   11.4133  -18.1266   25.8681 C   0  0  0  0  0  0  0  0  0  0  0  0
   11.0028  -18.4443   24.1293 S   0  0  0  0  0  0  0  0  0  0  0  0
   10.4141  -17.3062   27.9846 C   0  0  0  0  0  0  0  0  0  0  0  0
   10.1640  -16.0412   28.4749 O   0  0  0  0  0  0  0  0  0  0  0  0
   10.8630  -18.1794   28.7574 O   0  0  0  0  0  0  0  0  0  0  0  0
  2  1  1  6
  3  2  1  0
  4  2  1  0
  5  4  1  0
  5  6  1  1
  7  8  2  0
  7  5  1  0
  9 10  1  0
 11 10  1  0
 12 11  1  0
 13 12  1  1
 13 14  1  0
 14  7  1  0
 15 13  1  0
 15 17  1  0
 16 15  2  0
 18 17  1  0
 18 21  1  0
 18 19  1  6
 20 19  1  0
 21 22  1  0
 23 21  2  0
M  END
$$$$
