LMC.pdb
     RDKit          3D

 23 22  0  0  1  0  0  0  0  0999 V2000
    7.2411  -14.4322   18.7135 C   0  0  0  0  0  0  0  0  0  0  0  0
    7.8085  -13.6916   19.8984 C   0  0  2  0  0  0  0  0  0  0  0  0
    7.7555  -12.2200   19.6580 C   0  0  0  0  0  0  0  0  0  0  0  0
    9.2355  -14.1607   20.2032 C   0  0  0  0  0  0  0  0  0  0  0  0
    9.1058  -15.3930   21.0867 C   0  0  2  0  0  0  0  0  0  0  0  0
    7.8563  -16.0367   20.7262 N   0  0  0  0  0  0  0  0  0  0  0  0
    9.1299  -15.0731   22.5146 C   0  0  0  0  0  0  0  0  0  0  0  0
   10.1659  -14.4977   22.9936 O   0  0  0  0  0  0  0  0  0  0  0  0
    7.2794  -11.1182   27.2252 C   0  0  0  0  0  0  0  0  0  0  0  0
    6.0842  -12.4187   26.9144 S   0  0  0  0  0  0  0  0  0  0  0  0
    6.8828  -14.0542   26.7964 C   0  0  0  0  0  0  0  0  0  0  0  0
    6.8539  -14.4598   25.3605 C   0  0  0  0  0  0  0  0  0  0  0  0
    8.1545  -15.0254   24.8531 C   0  0  2  0  0  0  0  0  0  0  0  0
    8.1056  -15.3393   23.4408 N   0  0  0  0  0  0  0  0  0  0  0  0
    8.6732  -16.1076   25.6816 C   0  0  0  0  0  0  0  0  0  0  0  0
    8.6896  -16.0928   26.9378 O   0  0  0  0  0  0  0  0  0  0  0  0
    9.2038  -17.2731   25.0659 N   0  0  0  0  0  0  0  0  0  0  0  0
    9.7405  -18.3887   25.8475 C   0  0  1  0  0  0  0  0  0  0  0  0
   10.0554  -19.5034   24.8505 C   0  0  0  0  0  0  0  0  0  0  0  0
   10.9389  -18.7858   23.4371 S   0  0  0  0  0  0  0  0  0  0  0  0
   10.9116  -18.0007   26.6279 C   0  0  0  0  0  0  0  0  0  0  0  0
   11.4617  -16.7430   26.4911 O   0  0  0  0  0  0  0  0  0  0  0  0
   11.4296  -18.8061   27.4304 O   0  0  0  0  0  0  0  0  0  0  0  0
  2  1  1  6
  3  2  1  0
  4  2  1  0
  5  4  1  0
  5  6  1  6
  7  8  2  0
  7  5  1  0
  9 10  1  0
 11 10  1  0
 12 11  1  0
 13 12  1  1
 13 14  1  0
 14  7  1  0
 15 13  1  0
 15 17  1  0
 16 15  2  0
 18 17  1  0
 18 21  1  0
 18 19  1  6
 20 19  1  0
 21 22  1  0
 23 21  2  0
M  END
$$$$
