LMC.pdb
     RDKit          3D

 23 22  0  0  1  0  0  0  0  0999 V2000
    8.3234  -12.6485   20.5712 C   0  0  0  0  0  0  0  0  0  0  0  0
    7.6899  -13.9945   20.3238 C   0  0  2  0  0  0  0  0  0  0  0  0
    6.2099  -13.8510   20.2001 C   0  0  0  0  0  0  0  0  0  0  0  0
    8.0683  -14.9874   21.4285 C   0  0  0  0  0  0  0  0  0  0  0  0
    9.5734  -14.8685   21.6193 C   0  0  2  0  0  0  0  0  0  0  0  0
   10.1921  -15.4921   20.4644 N   0  0  0  0  0  0  0  0  0  0  0  0
   10.0401  -15.4942   22.8572 C   0  0  0  0  0  0  0  0  0  0  0  0
   10.3878  -16.7239   22.8260 O   0  0  0  0  0  0  0  0  0  0  0  0
   10.7553  -12.6160   28.8012 C   0  0  0  0  0  0  0  0  0  0  0  0
    9.8523  -14.1250   29.1527 S   0  0  0  0  0  0  0  0  0  0  0  0
   10.1328  -15.3925   27.8714 C   0  0  0  0  0  0  0  0  0  0  0  0
    9.8766  -14.7508   26.5486 C   0  0  0  0  0  0  0  0  0  0  0  0
   10.3649  -15.5516   25.3699 C   0  0  2  0  0  0  0  0  0  0  0  0
   10.1494  -14.8685   24.1120 N   0  0  0  0  0  0  0  0  0  0  0  0
    9.8979  -16.9331   25.3800 C   0  0  0  0  0  0  0  0  0  0  0  0
    8.7350  -17.2902   25.0657 O   0  0  0  0  0  0  0  0  0  0  0  0
   10.7859  -17.9735   25.7645 N   0  0  0  0  0  0  0  0  0  0  0  0
   10.3504  -19.3673   25.8696 C   0  0  1  0  0  0  0  0  0  0  0  0
   10.5880  -19.9994   24.4986 C   0  0  0  0  0  0  0  0  0  0  0  0
   10.3417  -21.7921   24.6351 S   0  0  0  0  0  0  0  0  0  0  0  0
   11.0474  -20.0827   26.9342 C   0  0  0  0  0  0  0  0  0  0  0  0
   12.0524  -19.4684   27.6524 O   0  0  0  0  0  0  0  0  0  0  0  0
   10.7401  -21.2627   27.2070 O   0  0  0  0  0  0  0  0  0  0  0  0
  2  1  1  1
  3  2  1  0
  4  2  1  0
  5  4  1  0
  5  6  1  6
  7  8  2  0
  7  5  1  0
  9 10  1  0
 11 10  1  0
 12 11  1  0
 13 12  1  1
 13 14  1  0
 14  7  1  0
 15 13  1  0
 15 17  1  0
 16 15  2  0
 18 17  1  0
 18 21  1  0
 18 19  1  6
 20 19  1  0
 21 22  1  0
 23 21  2  0
M  END
$$$$
