LMC.pdb
     RDKit          3D

 23 22  0  0  1  0  0  0  0  0999 V2000
    7.8216  -12.9027   27.5631 C   0  0  0  0  0  0  0  0  0  0  0  0
    7.0673  -12.7269   26.2691 C   0  0  2  0  0  0  0  0  0  0  0  0
    6.1226  -11.5770   26.3771 C   0  0  0  0  0  0  0  0  0  0  0  0
    6.3389  -14.0187   25.8819 C   0  0  0  0  0  0  0  0  0  0  0  0
    7.4128  -15.0801   25.6922 C   0  0  2  0  0  0  0  0  0  0  0  0
    8.6589  -14.5028   26.1608 N   0  0  0  0  0  0  0  0  0  0  0  0
    7.5370  -15.5201   24.3020 C   0  0  0  0  0  0  0  0  0  0  0  0
    6.5917  -16.2156   23.7953 O   0  0  0  0  0  0  0  0  0  0  0  0
    8.4687  -11.8233   19.7286 C   0  0  0  0  0  0  0  0  0  0  0  0
    7.2114  -13.0850   19.5201 S   0  0  0  0  0  0  0  0  0  0  0  0
    7.2200  -14.2795   20.8984 C   0  0  0  0  0  0  0  0  0  0  0  0
    8.6136  -14.7971   21.0287 C   0  0  0  0  0  0  0  0  0  0  0  0
    8.7925  -15.8188   22.1210 C   0  0  2  0  0  0  0  0  0  0  0  0
    8.6161  -15.2514   23.4410 N   0  0  0  0  0  0  0  0  0  0  0  0
   10.0091  -16.6096   21.9752 C   0  0  0  0  0  0  0  0  0  0  0  0
   10.4188  -17.0853   20.8870 O   0  0  0  0  0  0  0  0  0  0  0  0
   10.8122  -16.8822   23.1153 N   0  0  0  0  0  0  0  0  0  0  0  0
   12.0943  -17.5817   23.0131 C   0  0  1  0  0  0  0  0  0  0  0  0
   13.1217  -16.5395   22.5721 C   0  0  0  0  0  0  0  0  0  0  0  0
   13.2801  -15.2910   23.8795 S   0  0  0  0  0  0  0  0  0  0  0  0
   12.4694  -18.2289   24.2666 C   0  0  0  0  0  0  0  0  0  0  0  0
   13.6137  -18.9954   24.3464 O   0  0  0  0  0  0  0  0  0  0  0  0
   11.7559  -18.0952   25.2834 O   0  0  0  0  0  0  0  0  0  0  0  0
  2  1  1  1
  3  2  1  0
  4  2  1  0
  5  4  1  0
  5  6  1  6
  7  8  2  0
  7  5  1  0
  9 10  1  0
 11 10  1  0
 12 11  1  0
 13 12  1  6
 13 14  1  0
 14  7  1  0
 15 13  1  0
 15 17  1  0
 16 15  2  0
 18 17  1  0
 18 21  1  0
 18 19  1  1
 20 19  1  0
 21 22  1  0
 23 21  2  0
M  END
$$$$
