LMC.pdb
     RDKit          3D

 23 22  0  0  1  0  0  0  0  0999 V2000
    8.8808  -14.1863   18.2431 C   0  0  0  0  0  0  0  0  0  0  0  0
    7.7287  -13.6216   19.0357 C   0  0  2  0  0  0  0  0  0  0  0  0
    7.2973  -12.3161   18.4563 C   0  0  0  0  0  0  0  0  0  0  0  0
    8.1001  -13.4844   20.5164 C   0  0  0  0  0  0  0  0  0  0  0  0
    8.4635  -14.8802   21.0018 C   0  0  2  0  0  0  0  0  0  0  0  0
    7.3176  -15.7285   20.7322 N   0  0  0  0  0  0  0  0  0  0  0  0
    8.8099  -14.9149   22.4233 C   0  0  0  0  0  0  0  0  0  0  0  0
    9.9331  -14.4268   22.7897 O   0  0  0  0  0  0  0  0  0  0  0  0
    6.2339  -10.8010   26.9251 C   0  0  0  0  0  0  0  0  0  0  0  0
    6.3919  -12.5854   27.0092 S   0  0  0  0  0  0  0  0  0  0  0  0
    7.2069  -13.2609   25.5239 C   0  0  0  0  0  0  0  0  0  0  0  0
    7.2751  -14.7424   25.6899 C   0  0  0  0  0  0  0  0  0  0  0  0
    8.3469  -15.4067   24.8658 C   0  0  2  0  0  0  0  0  0  0  0  0
    8.0160  -15.4430   23.4571 N   0  0  0  0  0  0  0  0  0  0  0  0
    8.7740  -16.6921   25.4061 C   0  0  0  0  0  0  0  0  0  0  0  0
    8.0271  -17.6959   25.5208 O   0  0  0  0  0  0  0  0  0  0  0  0
   10.1155  -16.8614   25.8426 N   0  0  0  0  0  0  0  0  0  0  0  0
   10.5922  -18.1204   26.4180 C   0  0  1  0  0  0  0  0  0  0  0  0
   12.0242  -18.3097   25.9184 C   0  0  0  0  0  0  0  0  0  0  0  0
   12.0128  -18.2950   24.1038 S   0  0  0  0  0  0  0  0  0  0  0  0
   10.5124  -18.1244   27.8756 C   0  0  0  0  0  0  0  0  0  0  0  0
   10.9285  -19.2229   28.5989 O   0  0  0  0  0  0  0  0  0  0  0  0
   10.0649  -17.1297   28.4852 O   0  0  0  0  0  0  0  0  0  0  0  0
  2  1  1  6
  3  2  1  0
  4  2  1  0
  5  4  1  0
  5  6  1  1
  7  8  2  0
  7  5  1  0
  9 10  1  0
 11 10  1  0
 12 11  1  0
 13 12  1  1
 13 14  1  0
 14  7  1  0
 15 13  1  0
 15 17  1  0
 16 15  2  0
 18 17  1  0
 18 21  1  0
 18 19  1  1
 20 19  1  0
 21 22  1  0
 23 21  2  0
M  END
$$$$
