LMC.pdb
     RDKit          3D

 23 22  0  0  1  0  0  0  0  0999 V2000
    7.7815  -14.2271   18.0649 C   0  0  0  0  0  0  0  0  0  0  0  0
    7.8849  -13.6709   19.4628 C   0  0  2  0  0  0  0  0  0  0  0  0
    7.6648  -12.1953   19.4464 C   0  0  0  0  0  0  0  0  0  0  0  0
    9.2336  -14.0314   20.0955 C   0  0  0  0  0  0  0  0  0  0  0  0
    9.0089  -15.3066   20.8950 C   0  0  2  0  0  0  0  0  0  0  0  0
    7.6337  -15.7080   20.6644 N   0  0  0  0  0  0  0  0  0  0  0  0
    9.2642  -15.1325   22.3254 C   0  0  0  0  0  0  0  0  0  0  0  0
   10.4723  -14.9845   22.7161 O   0  0  0  0  0  0  0  0  0  0  0  0
    5.6790  -11.8786   26.8252 C   0  0  0  0  0  0  0  0  0  0  0  0
    7.3551  -12.1974   27.3776 S   0  0  0  0  0  0  0  0  0  0  0  0
    7.9120  -13.8704   26.9111 C   0  0  0  0  0  0  0  0  0  0  0  0
    7.6420  -14.0377   25.4530 C   0  0  0  0  0  0  0  0  0  0  0  0
    8.5726  -14.9981   24.7597 C   0  0  2  0  0  0  0  0  0  0  0  0
    8.2943  -15.1103   23.3436 N   0  0  0  0  0  0  0  0  0  0  0  0
    8.6882  -16.2813   25.4429 C   0  0  0  0  0  0  0  0  0  0  0  0
    7.7497  -17.1082   25.5610 O   0  0  0  0  0  0  0  0  0  0  0  0
    9.9273  -16.6586   26.0270 N   0  0  0  0  0  0  0  0  0  0  0  0
   10.0964  -17.9266   26.7391 C   0  0  1  0  0  0  0  0  0  0  0  0
   11.0400  -18.7774   25.8896 C   0  0  0  0  0  0  0  0  0  0  0  0
   11.4549  -20.2830   26.8137 S   0  0  0  0  0  0  0  0  0  0  0  0
   10.6000  -17.7330   28.0956 C   0  0  0  0  0  0  0  0  0  0  0  0
   11.6246  -16.8434   28.3442 O   0  0  0  0  0  0  0  0  0  0  0  0
   10.1067  -18.3731   29.0485 O   0  0  0  0  0  0  0  0  0  0  0  0
  2  1  1  6
  3  2  1  0
  4  2  1  0
  5  4  1  0
  5  6  1  1
  7  8  2  0
  7  5  1  0
  9 10  1  0
 11 10  1  0
 12 11  1  0
 13 12  1  1
 13 14  1  0
 14  7  1  0
 15 13  1  0
 15 17  1  0
 16 15  2  0
 18 17  1  0
 18 21  1  0
 18 19  1  6
 20 19  1  0
 21 22  1  0
 23 21  2  0
M  END
$$$$
