LMC.pdb
     RDKit          3D

 23 22  0  0  1  0  0  0  0  0999 V2000
    8.7165  -14.3259   18.2217 C   0  0  0  0  0  0  0  0  0  0  0  0
    7.6877  -13.5957   19.0480 C   0  0  2  0  0  0  0  0  0  0  0  0
    7.3739  -12.2752   18.4283 C   0  0  0  0  0  0  0  0  0  0  0  0
    8.1627  -13.4383   20.4967 C   0  0  0  0  0  0  0  0  0  0  0  0
    8.4159  -14.8434   21.0235 C   0  0  2  0  0  0  0  0  0  0  0  0
    7.1991  -15.6007   20.7970 N   0  0  0  0  0  0  0  0  0  0  0  0
    8.7804  -14.8616   22.4407 C   0  0  0  0  0  0  0  0  0  0  0  0
    9.9600  -14.4976   22.7721 O   0  0  0  0  0  0  0  0  0  0  0  0
    7.4065  -11.5218   27.6665 C   0  0  0  0  0  0  0  0  0  0  0  0
    6.1363  -12.5135   26.8796 S   0  0  0  0  0  0  0  0  0  0  0  0
    6.7617  -13.3449   25.3814 C   0  0  0  0  0  0  0  0  0  0  0  0
    7.2517  -14.6929   25.7936 C   0  0  0  0  0  0  0  0  0  0  0  0
    8.3272  -15.2572   24.9025 C   0  0  2  0  0  0  0  0  0  0  0  0
    7.9470  -15.2478   23.5057 N   0  0  0  0  0  0  0  0  0  0  0  0
    8.8438  -16.5397   25.3659 C   0  0  0  0  0  0  0  0  0  0  0  0
    8.1753  -17.6030   25.3983 O   0  0  0  0  0  0  0  0  0  0  0  0
   10.1871  -16.6352   25.8190 N   0  0  0  0  0  0  0  0  0  0  0  0
   10.7798  -17.9094   26.2295 C   0  0  1  0  0  0  0  0  0  0  0  0
   12.2551  -17.8474   25.8349 C   0  0  0  0  0  0  0  0  0  0  0  0
   12.3662  -17.5574   24.0470 S   0  0  0  0  0  0  0  0  0  0  0  0
   10.6015  -18.1652   27.6556 C   0  0  0  0  0  0  0  0  0  0  0  0
   11.0639  -19.3346   28.2228 O   0  0  0  0  0  0  0  0  0  0  0  0
   10.0262  -17.3250   28.3797 O   0  0  0  0  0  0  0  0  0  0  0  0
  2  1  1  6
  3  2  1  0
  4  2  1  0
  5  4  1  0
  5  6  1  1
  7  8  2  0
  7  5  1  0
  9 10  1  0
 11 10  1  0
 12 11  1  0
 13 12  1  1
 13 14  1  0
 14  7  1  0
 15 13  1  0
 15 17  1  0
 16 15  2  0
 18 17  1  0
 18 21  1  0
 18 19  1  1
 20 19  1  0
 21 22  1  0
 23 21  2  0
M  END
$$$$
