LMC.pdb
     RDKit          3D

 23 22  0  0  1  0  0  0  0  0999 V2000
    8.3243  -12.2764   19.4355 C   0  0  0  0  0  0  0  0  0  0  0  0
    7.9827  -13.6726   18.9793 C   0  0  2  0  0  0  0  0  0  0  0  0
    6.6507  -13.6822   18.3071 C   0  0  0  0  0  0  0  0  0  0  0  0
    8.0273  -14.6569   20.1534 C   0  0  0  0  0  0  0  0  0  0  0  0
    9.3339  -14.3944   20.8880 C   0  0  2  0  0  0  0  0  0  0  0  0
   10.3474  -15.2081   20.2427 N   0  0  0  0  0  0  0  0  0  0  0  0
    9.2545  -14.7033   22.3162 C   0  0  0  0  0  0  0  0  0  0  0  0
    9.8378  -15.7563   22.7462 O   0  0  0  0  0  0  0  0  0  0  0  0
    6.2602  -10.9610   26.7119 C   0  0  0  0  0  0  0  0  0  0  0  0
    6.1684  -12.5319   27.5722 S   0  0  0  0  0  0  0  0  0  0  0  0
    7.3219  -13.7556   26.8663 C   0  0  0  0  0  0  0  0  0  0  0  0
    7.4213  -13.4795   25.4030 C   0  0  0  0  0  0  0  0  0  0  0  0
    8.4638  -14.3003   24.6900 C   0  0  2  0  0  0  0  0  0  0  0  0
    8.5857  -13.9432   23.2925 N   0  0  0  0  0  0  0  0  0  0  0  0
    8.3270  -15.7331   24.9243 C   0  0  0  0  0  0  0  0  0  0  0  0
    7.5064  -16.4736   24.3269 O   0  0  0  0  0  0  0  0  0  0  0  0
    9.1581  -16.3721   25.8834 N   0  0  0  0  0  0  0  0  0  0  0  0
    9.1757  -17.8265   26.0501 C   0  0  1  0  0  0  0  0  0  0  0  0
    9.7184  -18.4051   24.7437 C   0  0  0  0  0  0  0  0  0  0  0  0
   10.0093  -20.1817   24.9721 S   0  0  0  0  0  0  0  0  0  0  0  0
    9.9670  -18.2384   27.2056 C   0  0  0  0  0  0  0  0  0  0  0  0
   10.0621  -19.5700   27.5533 O   0  0  0  0  0  0  0  0  0  0  0  0
   10.5683  -17.3865   27.8940 O   0  0  0  0  0  0  0  0  0  0  0  0
  2  1  1  1
  3  2  1  0
  4  2  1  0
  5  4  1  0
  5  6  1  6
  7  8  2  0
  7  5  1  0
  9 10  1  0
 11 10  1  0
 12 11  1  0
 13 12  1  6
 13 14  1  0
 14  7  1  0
 15 13  1  0
 15 17  1  0
 16 15  2  0
 18 17  1  0
 18 21  1  0
 18 19  1  6
 20 19  1  0
 21 22  1  0
 23 21  2  0
M  END
$$$$
