LMC.pdb
     RDKit          3D

 23 22  0  0  1  0  0  0  0  0999 V2000
    8.5832  -14.5207   18.1650 C   0  0  0  0  0  0  0  0  0  0  0  0
    7.6765  -13.9447   19.2235 C   0  0  2  0  0  0  0  0  0  0  0  0
    7.0241  -12.7008   18.7201 C   0  0  0  0  0  0  0  0  0  0  0  0
    8.4481  -13.6887   20.5229 C   0  0  0  0  0  0  0  0  0  0  0  0
    8.6118  -15.0408   21.2018 C   0  0  2  0  0  0  0  0  0  0  0  0
    7.4456  -15.8294   20.8502 N   0  0  0  0  0  0  0  0  0  0  0  0
    8.7452  -14.9340   22.6553 C   0  0  0  0  0  0  0  0  0  0  0  0
    9.7681  -14.3335   23.1317 O   0  0  0  0  0  0  0  0  0  0  0  0
    7.6610  -11.3776   27.3884 C   0  0  0  0  0  0  0  0  0  0  0  0
    6.4221  -12.6530   27.1550 S   0  0  0  0  0  0  0  0  0  0  0  0
    6.6094  -13.4882   25.5444 C   0  0  0  0  0  0  0  0  0  0  0  0
    6.9083  -14.9240   25.8209 C   0  0  0  0  0  0  0  0  0  0  0  0
    8.0720  -15.4736   25.0381 C   0  0  2  0  0  0  0  0  0  0  0  0
    7.8422  -15.4362   23.6094 N   0  0  0  0  0  0  0  0  0  0  0  0
    8.5359  -16.7661   25.5286 C   0  0  0  0  0  0  0  0  0  0  0  0
    7.8188  -17.7951   25.6020 O   0  0  0  0  0  0  0  0  0  0  0  0
    9.8813  -16.9130   25.9616 N   0  0  0  0  0  0  0  0  0  0  0  0
   10.4175  -18.2000   26.4082 C   0  0  1  0  0  0  0  0  0  0  0  0
   11.6114  -18.5082   25.5052 C   0  0  0  0  0  0  0  0  0  0  0  0
   12.4175  -20.0197   26.1039 S   0  0  0  0  0  0  0  0  0  0  0  0
   10.7854  -18.1825   27.8208 C   0  0  0  0  0  0  0  0  0  0  0  0
   10.7075  -19.3308   28.5814 O   0  0  0  0  0  0  0  0  0  0  0  0
   11.1759  -17.1238   28.3575 O   0  0  0  0  0  0  0  0  0  0  0  0
  2  1  1  6
  3  2  1  0
  4  2  1  0
  5  4  1  0
  5  6  1  1
  7  8  2  0
  7  5  1  0
  9 10  1  0
 11 10  1  0
 12 11  1  0
 13 12  1  1
 13 14  1  0
 14  7  1  0
 15 13  1  0
 15 17  1  0
 16 15  2  0
 18 17  1  0
 18 21  1  0
 18 19  1  6
 20 19  1  0
 21 22  1  0
 23 21  2  0
M  END
$$$$
