LMC.pdb
     RDKit          3D

 23 22  0  0  1  0  0  0  0  0999 V2000
    8.2072  -15.2820   20.0242 C   0  0  0  0  0  0  0  0  0  0  0  0
    7.4336  -14.0536   20.4328 C   0  0  2  0  0  0  0  0  0  0  0  0
    7.5984  -12.9789   19.4111 C   0  0  0  0  0  0  0  0  0  0  0  0
    7.8622  -13.5766   21.8250 C   0  0  0  0  0  0  0  0  0  0  0  0
    7.7609  -14.7840   22.7457 C   0  0  2  0  0  0  0  0  0  0  0  0
    6.4322  -14.7554   23.3283 N   0  0  0  0  0  0  0  0  0  0  0  0
    8.7845  -14.7882   23.7916 C   0  0  0  0  0  0  0  0  0  0  0  0
    9.0416  -13.6927   24.3981 O   0  0  0  0  0  0  0  0  0  0  0  0
    9.7257  -12.9661   29.0050 C   0  0  0  0  0  0  0  0  0  0  0  0
   10.6441  -14.3036   28.2408 S   0  0  0  0  0  0  0  0  0  0  0  0
    9.5647  -15.3714   27.2302 C   0  0  0  0  0  0  0  0  0  0  0  0
   10.4490  -16.2910   26.4561 C   0  0  0  0  0  0  0  0  0  0  0  0
   10.7189  -15.8432   25.0434 C   0  0  2  0  0  0  0  0  0  0  0  0
    9.5358  -15.9005   24.2114 N   0  0  0  0  0  0  0  0  0  0  0  0
   11.8893  -16.4807   24.4516 C   0  0  0  0  0  0  0  0  0  0  0  0
   12.0976  -17.7197   24.4523 O   0  0  0  0  0  0  0  0  0  0  0  0
   12.8830  -15.6830   23.8230 N   0  0  0  0  0  0  0  0  0  0  0  0
   14.0984  -16.2646   23.2502 C   0  0  1  0  0  0  0  0  0  0  0  0
   14.1926  -15.7444   21.8162 C   0  0  0  0  0  0  0  0  0  0  0  0
   12.6726  -16.1959   20.9337 S   0  0  0  0  0  0  0  0  0  0  0  0
   15.2863  -15.9387   24.0335 C   0  0  0  0  0  0  0  0  0  0  0  0
   15.1806  -15.2090   25.1995 O   0  0  0  0  0  0  0  0  0  0  0  0
   16.4149  -16.3183   23.6549 O   0  0  0  0  0  0  0  0  0  0  0  0
  2  1  1  6
  3  2  1  0
  4  2  1  0
  5  4  1  0
  5  6  1  1
  7  8  2  0
  7  5  1  0
  9 10  1  0
 11 10  1  0
 12 11  1  0
 13 12  1  1
 13 14  1  0
 14  7  1  0
 15 13  1  0
 15 17  1  0
 16 15  2  0
 18 17  1  0
 18 21  1  0
 18 19  1  6
 20 19  1  0
 21 22  1  0
 23 21  2  0
M  END
$$$$
