LMC.pdb
     RDKit          3D

 23 22  0  0  1  0  0  0  0  0999 V2000
    9.2616  -19.4291   20.1459 C   0  0  0  0  0  0  0  0  0  0  0  0
    7.9951  -18.6219   20.0090 C   0  0  2  0  0  0  0  0  0  0  0  0
    7.6085  -18.5118   18.5721 C   0  0  0  0  0  0  0  0  0  0  0  0
    8.1549  -17.2415   20.6558 C   0  0  0  0  0  0  0  0  0  0  0  0
    8.6483  -17.4837   22.0749 C   0  0  2  0  0  0  0  0  0  0  0  0
    7.6188  -18.2514   22.7503 N   0  0  0  0  0  0  0  0  0  0  0  0
    8.9271  -16.2428   22.7987 C   0  0  0  0  0  0  0  0  0  0  0  0
    9.8968  -15.5101   22.4028 O   0  0  0  0  0  0  0  0  0  0  0  0
    5.3449  -10.5964   26.0130 C   0  0  0  0  0  0  0  0  0  0  0  0
    6.0092  -12.1008   26.7284 S   0  0  0  0  0  0  0  0  0  0  0  0
    7.5654  -12.6019   25.9197 C   0  0  0  0  0  0  0  0  0  0  0  0
    7.2965  -13.8760   25.1906 C   0  0  0  0  0  0  0  0  0  0  0  0
    8.5285  -14.5381   24.6311 C   0  0  2  0  0  0  0  0  0  0  0  0
    8.2216  -15.7579   23.9146 N   0  0  0  0  0  0  0  0  0  0  0  0
    9.5995  -14.6812   25.6103 C   0  0  0  0  0  0  0  0  0  0  0  0
   10.1549  -13.7199   26.1985 O   0  0  0  0  0  0  0  0  0  0  0  0
   10.0749  -15.9766   25.9493 N   0  0  0  0  0  0  0  0  0  0  0  0
   10.9810  -16.2011   27.0771 C   0  0  1  0  0  0  0  0  0  0  0  0
   10.2219  -15.7752   28.3334 C   0  0  0  0  0  0  0  0  0  0  0  0
   11.3142  -15.9773   29.7684 S   0  0  0  0  0  0  0  0  0  0  0  0
   11.4349  -17.5865   27.1510 C   0  0  0  0  0  0  0  0  0  0  0  0
   12.7332  -17.8821   27.5118 O   0  0  0  0  0  0  0  0  0  0  0  0
   10.6499  -18.5221   26.8873 O   0  0  0  0  0  0  0  0  0  0  0  0
  2  1  1  6
  3  2  1  0
  4  2  1  0
  5  4  1  0
  5  6  1  1
  7  8  2  0
  7  5  1  0
  9 10  1  0
 11 10  1  0
 12 11  1  0
 13 12  1  1
 13 14  1  0
 14  7  1  0
 15 13  1  0
 15 17  1  0
 16 15  2  0
 18 17  1  0
 18 21  1  0
 18 19  1  1
 20 19  1  0
 21 22  1  0
 23 21  2  0
M  END
$$$$
