RFD.pdb
     RDKit          3D

 31 31  0  0  1  0  0  0  0  0999 V2000
    7.2528  -16.9586   15.4988 N   0  0  0  0  0  0  0  0  0  0  0  0
    7.6603  -15.6780   15.0381 C   0  0  0  0  0  0  0  0  0  0  0  0
    6.9428  -15.0426   14.1954 N   0  0  0  0  0  0  0  0  0  0  0  0
    8.8947  -15.0609   15.5095 N   0  0  0  0  0  0  0  0  0  0  0  0
    9.1366  -14.9317   16.9080 C   0  0  0  0  0  0  0  0  0  0  0  0
    8.1930  -14.1029   17.6658 C   0  0  0  0  0  0  0  0  0  0  0  0
    8.4230  -13.7965   19.0818 C   0  0  0  0  0  0  0  0  0  0  0  0
    8.8812  -14.8295   20.0226 C   0  0  2  0  0  0  0  0  0  0  0  0
    7.8126  -15.8429   20.1444 N   0  0  0  0  0  0  0  0  0  0  0  0
    9.1380  -14.2749   21.4012 C   0  0  0  0  0  0  0  0  0  0  0  0
   10.0934  -13.5254   21.6796 O   0  0  0  0  0  0  0  0  0  0  0  0
    7.2056  -14.0935   13.8603 N   0  0  0  0  0  0  0  0  0  0  0  0
    8.2663  -14.5964   22.4833 C   0  0  1  0  0  0  0  0  0  0  0  0
    8.3911  -14.0206   23.8197 C   0  0  0  0  0  0  0  0  0  0  0  0
    7.0710  -13.4329   24.2447 C   0  0  0  0  0  0  0  0  0  0  0  0
    7.0428  -12.7492   25.5245 C   0  0  0  0  0  0  0  0  0  0  0  0
    6.1007  -13.1380   26.4608 C   0  0  0  0  0  0  0  0  0  0  0  0
    6.0310  -12.5346   27.7087 C   0  0  0  0  0  0  0  0  0  0  0  0
    6.8998  -11.5352   28.0401 C   0  0  0  0  0  0  0  0  0  0  0  0
    7.8370  -11.1339   27.1360 C   0  0  0  0  0  0  0  0  0  0  0  0
    7.8996  -11.7374   25.9009 C   0  0  0  0  0  0  0  0  0  0  0  0
    8.7696  -15.0552   24.8101 O   0  0  0  0  0  0  0  0  0  0  0  0
    8.2936  -14.9589   25.9665 N   0  0  0  0  0  0  0  0  0  0  0  0
    9.6320  -16.1367   24.5225 C   0  0  1  0  0  0  0  0  0  0  0  0
    9.4962  -17.3464   25.3042 C   0  0  0  0  0  0  0  0  0  0  0  0
    8.1665  -18.0238   25.1568 C   0  0  0  0  0  0  0  0  0  0  0  0
    8.0689  -19.2421   25.9725 O   0  0  0  0  0  0  0  0  0  0  0  0
    9.0189  -19.5750   26.7085 C   0  0  0  0  0  0  0  0  0  0  0  0
   10.5264  -18.3587   24.9062 O   0  0  0  0  0  0  0  0  0  0  0  0
   10.8848  -19.4249   25.6961 O   0  0  0  0  0  0  0  0  0  0  0  0
    6.9381  -20.0319   25.9405 O   0  0  0  0  0  0  0  0  0  0  0  0
  2  3  2  0
  2  1  1  0
  4  2  1  0
  5  4  1  0
  6  5  1  0
  7  6  1  0
  8  9  1  1
  8 10  1  0
  8  7  1  0
 10 11  2  0
 12 13  1  0
 12 10  1  0
 13 21  1  0
 13 14  1  6
 15 14  1  0
 16 15  2  0
 17 16  1  0
 18 17  2  0
 18 19  1  0
 19 20  2  0
 20 15  1  0
 21 23  1  0
 21 22  2  0
 23 24  1  0
 24 28  1  0
 24 25  1  1
 26 25  1  0
 26 27  2  0
 28 31  2  0
 28 29  1  0
 30 26  1  0
M  END
$$$$
