RFD.pdb
     RDKit          3D

 31 31  0  0  1  0  0  0  0  0999 V2000
    6.9868  -13.1238   18.7039 N   0  0  0  0  0  0  0  0  0  0  0  0
    7.7498  -13.5011   17.5665 C   0  0  0  0  0  0  0  0  0  0  0  0
    7.8929  -12.6882   16.5932 N   0  0  0  0  0  0  0  0  0  0  0  0
    8.3835  -14.8118   17.4802 N   0  0  0  0  0  0  0  0  0  0  0  0
    8.0591  -15.8229   18.4307 C   0  0  0  0  0  0  0  0  0  0  0  0
    8.0671  -15.4262   19.8428 C   0  0  0  0  0  0  0  0  0  0  0  0
    9.2874  -15.5276   20.6504 C   0  0  0  0  0  0  0  0  0  0  0  0
    9.4496  -16.5834   21.6610 C   0  0  2  0  0  0  0  0  0  0  0  0
    8.1412  -17.2457   21.8436 N   0  0  0  0  0  0  0  0  0  0  0  0
    9.8693  -16.0336   23.0010 C   0  0  0  0  0  0  0  0  0  0  0  0
   10.9356  -15.4192   23.1946 O   0  0  0  0  0  0  0  0  0  0  0  0
    8.4455  -12.9395   15.7485 N   0  0  0  0  0  0  0  0  0  0  0  0
    9.0329  -16.1995   24.1443 C   0  0  1  0  0  0  0  0  0  0  0  0
    9.3869  -15.7264   25.4799 C   0  0  0  0  0  0  0  0  0  0  0  0
    8.1356  -15.3861   26.2462 C   0  0  0  0  0  0  0  0  0  0  0  0
    7.5786  -14.0632   26.0319 C   0  0  0  0  0  0  0  0  0  0  0  0
    8.3164  -12.9629   26.4326 C   0  0  0  0  0  0  0  0  0  0  0  0
    7.8469  -11.6707   26.2426 C   0  0  0  0  0  0  0  0  0  0  0  0
    6.6355  -11.4579   25.6505 C   0  0  0  0  0  0  0  0  0  0  0  0
    5.8896  -12.5245   25.2468 C   0  0  0  0  0  0  0  0  0  0  0  0
    6.3623  -13.8025   25.4387 C   0  0  0  0  0  0  0  0  0  0  0  0
   10.1156  -16.7705   26.2370 O   0  0  0  0  0  0  0  0  0  0  0  0
   10.3617  -16.5503   27.4470 N   0  0  0  0  0  0  0  0  0  0  0  0
   10.5444  -17.9923   25.6719 C   0  0  1  0  0  0  0  0  0  0  0  0
   11.2483  -18.9288   26.5207 C   0  0  0  0  0  0  0  0  0  0  0  0
   10.4878  -20.1903   26.8021 C   0  0  0  0  0  0  0  0  0  0  0  0
   11.2925  -21.1720   27.5422 O   0  0  0  0  0  0  0  0  0  0  0  0
   12.0886  -20.7869   28.4215 C   0  0  0  0  0  0  0  0  0  0  0  0
   12.5410  -19.3522   25.8930 O   0  0  0  0  0  0  0  0  0  0  0  0
   13.5218  -20.0381   26.5688 O   0  0  0  0  0  0  0  0  0  0  0  0
   11.1844  -22.5226   27.2822 O   0  0  0  0  0  0  0  0  0  0  0  0
  2  3  2  0
  2  1  1  0
  4  2  1  0
  5  4  1  0
  6  5  1  0
  7  6  1  0
  8  9  1  1
  8 10  1  0
  8  7  1  0
 10 11  2  0
 12 13  1  0
 12 10  1  0
 13 21  1  0
 13 14  1  1
 15 14  1  0
 16 15  2  0
 17 16  1  0
 18 17  2  0
 18 19  1  0
 19 20  2  0
 20 15  1  0
 21 23  1  0
 21 22  2  0
 23 24  1  0
 24 28  1  0
 24 25  1  6
 26 25  1  0
 26 27  2  0
 28 31  2  0
 28 29  1  0
 30 26  1  0
M  END
$$$$
