RFD.pdb
     RDKit          3D

 31 31  0  0  1  0  0  0  0  0999 V2000
    8.9533  -15.0518   17.2829 N   0  0  0  0  0  0  0  0  0  0  0  0
    8.4229  -13.9013   16.6400 C   0  0  0  0  0  0  0  0  0  0  0  0
    8.4595  -13.8047   15.3680 N   0  0  0  0  0  0  0  0  0  0  0  0
    7.8287  -12.8118   17.4060 N   0  0  0  0  0  0  0  0  0  0  0  0
    7.7116  -12.9190   18.8223 C   0  0  0  0  0  0  0  0  0  0  0  0
    8.3138  -14.1025   19.4452 C   0  0  0  0  0  0  0  0  0  0  0  0
    8.2292  -14.3213   20.8932 C   0  0  0  0  0  0  0  0  0  0  0  0
    8.7982  -15.5241   21.5190 C   0  0  2  0  0  0  0  0  0  0  0  0
    7.7134  -16.5157   21.6728 N   0  0  0  0  0  0  0  0  0  0  0  0
    9.3550  -15.2459   22.8926 C   0  0  0  0  0  0  0  0  0  0  0  0
   10.3319  -14.5031   23.1068 O   0  0  0  0  0  0  0  0  0  0  0  0
    8.0996  -12.9632   14.8737 N   0  0  0  0  0  0  0  0  0  0  0  0
    8.7650  -15.8426   24.0459 C   0  0  1  0  0  0  0  0  0  0  0  0
    9.2693  -15.6496   25.4029 C   0  0  0  0  0  0  0  0  0  0  0  0
    8.1217  -15.3604   26.3346 C   0  0  0  0  0  0  0  0  0  0  0  0
    7.5306  -14.0375   26.2508 C   0  0  0  0  0  0  0  0  0  0  0  0
    8.3222  -12.9405   26.5427 C   0  0  0  0  0  0  0  0  0  0  0  0
    7.8217  -11.6482   26.4669 C   0  0  0  0  0  0  0  0  0  0  0  0
    6.5250  -11.4321   26.0991 C   0  0  0  0  0  0  0  0  0  0  0  0
    5.7247  -12.4955   25.8063 C   0  0  0  0  0  0  0  0  0  0  0  0
    6.2287  -13.7736   25.8838 C   0  0  0  0  0  0  0  0  0  0  0  0
    9.9577  -16.8669   25.8915 O   0  0  0  0  0  0  0  0  0  0  0  0
   10.1863  -16.9549   27.1216 N   0  0  0  0  0  0  0  0  0  0  0  0
   10.3670  -17.9260   25.0508 C   0  0  1  0  0  0  0  0  0  0  0  0
   11.0766  -19.0371   25.6467 C   0  0  0  0  0  0  0  0  0  0  0  0
   11.2521  -20.2122   24.7318 C   0  0  0  0  0  0  0  0  0  0  0  0
   10.0746  -20.4366   23.8818 O   0  0  0  0  0  0  0  0  0  0  0  0
    8.9480  -20.5630   24.4015 C   0  0  0  0  0  0  0  0  0  0  0  0
   12.4546  -18.6272   26.0683 O   0  0  0  0  0  0  0  0  0  0  0  0
   13.3600  -19.4903   26.6378 O   0  0  0  0  0  0  0  0  0  0  0  0
   10.1909  -20.5110   22.5091 O   0  0  0  0  0  0  0  0  0  0  0  0
  2  3  2  0
  2  1  1  0
  4  2  1  0
  5  4  1  0
  6  5  1  0
  7  6  1  0
  8  9  1  1
  8 10  1  0
  8  7  1  0
 10 11  2  0
 12 13  1  0
 12 10  1  0
 13 21  1  0
 13 14  1  1
 15 14  1  0
 16 15  2  0
 17 16  1  0
 18 17  2  0
 18 19  1  0
 19 20  2  0
 20 15  1  0
 21 23  1  0
 21 22  2  0
 23 24  1  0
 24 28  1  0
 24 25  1  1
 26 25  1  0
 26 27  2  0
 28 31  2  0
 28 29  1  0
 30 26  1  0
M  END
$$$$
