RFD.pdb
     RDKit          3D

 31 31  0  0  1  0  0  0  0  0999 V2000
    8.0233  -12.7627   18.7475 N   0  0  0  0  0  0  0  0  0  0  0  0
    8.1606  -13.4890   17.5343 C   0  0  0  0  0  0  0  0  0  0  0  0
    8.1214  -12.8782   16.4145 N   0  0  0  0  0  0  0  0  0  0  0  0
    8.3481  -14.9353   17.5344 N   0  0  0  0  0  0  0  0  0  0  0  0
    7.5555  -15.7554   18.3889 C   0  0  0  0  0  0  0  0  0  0  0  0
    6.8129  -15.0728   19.4538 C   0  0  0  0  0  0  0  0  0  0  0  0
    7.3035  -15.0697   20.8362 C   0  0  0  0  0  0  0  0  0  0  0  0
    8.2750  -16.0692   21.3046 C   0  0  2  0  0  0  0  0  0  0  0  0
    7.5269  -17.2758   21.7151 N   0  0  0  0  0  0  0  0  0  0  0  0
    9.0554  -15.5912   22.5032 C   0  0  0  0  0  0  0  0  0  0  0  0
    9.6746  -14.5108   22.5408 O   0  0  0  0  0  0  0  0  0  0  0  0
    8.2934  -13.3734   15.5161 N   0  0  0  0  0  0  0  0  0  0  0  0
    9.1196  -16.3843   23.6868 C   0  0  1  0  0  0  0  0  0  0  0  0
    9.7747  -15.9479   24.9171 C   0  0  0  0  0  0  0  0  0  0  0  0
    8.7553  -15.3478   25.8497 C   0  0  0  0  0  0  0  0  0  0  0  0
    9.2532  -14.8132   27.1038 C   0  0  0  0  0  0  0  0  0  0  0  0
    9.1756  -13.4480   27.3172 C   0  0  0  0  0  0  0  0  0  0  0  0
    9.6204  -12.8758   28.5009 C   0  0  0  0  0  0  0  0  0  0  0  0
   10.1486  -13.6570   29.4879 C   0  0  0  0  0  0  0  0  0  0  0  0
   10.2360  -15.0042   29.3025 C   0  0  0  0  0  0  0  0  0  0  0  0
    9.7926  -15.5638   28.1260 C   0  0  0  0  0  0  0  0  0  0  0  0
   10.4125  -17.0899   25.6126 O   0  0  0  0  0  0  0  0  0  0  0  0
   10.9545  -16.8694   26.7220 N   0  0  0  0  0  0  0  0  0  0  0  0
   10.4420  -18.4044   25.0956 C   0  0  2  0  0  0  0  0  0  0  0  0
   11.7284  -18.9872   24.7820 C   0  0  0  0  0  0  0  0  0  0  0  0
   12.5186  -18.2156   23.7676 C   0  0  0  0  0  0  0  0  0  0  0  0
   13.7799  -18.8838   23.4188 O   0  0  0  0  0  0  0  0  0  0  0  0
   14.0988  -19.9461   23.9890 C   0  0  0  0  0  0  0  0  0  0  0  0
   12.5895  -19.0722   26.0050 O   0  0  0  0  0  0  0  0  0  0  0  0
   13.7018  -19.8747   26.0934 O   0  0  0  0  0  0  0  0  0  0  0  0
   14.6257  -18.3558   22.4653 O   0  0  0  0  0  0  0  0  0  0  0  0
  2  3  2  0
  2  1  1  0
  4  2  1  0
  5  4  1  0
  6  5  1  0
  7  6  1  0
  8  9  1  1
  8 10  1  0
  8  7  1  0
 10 11  2  0
 12 13  1  0
 12 10  1  0
 13 21  1  0
 13 14  1  6
 15 14  1  0
 16 15  2  0
 17 16  1  0
 18 17  2  0
 18 19  1  0
 19 20  2  0
 20 15  1  0
 21 23  1  0
 21 22  2  0
 23 24  1  0
 24 28  1  0
 24 25  1  6
 26 25  1  0
 26 27  2  0
 28 31  2  0
 28 29  1  0
 30 26  1  0
M  END
$$$$
