RFD.pdb
     RDKit          3D

 31 31  0  0  1  0  0  0  0  0999 V2000
    7.4841  -13.7261   15.6508 N   0  0  0  0  0  0  0  0  0  0  0  0
    7.9821  -13.7316   16.9812 C   0  0  0  0  0  0  0  0  0  0  0  0
    8.1804  -12.6305   17.5952 N   0  0  0  0  0  0  0  0  0  0  0  0
    8.2771  -14.9803   17.6745 N   0  0  0  0  0  0  0  0  0  0  0  0
    9.4437  -15.7248   17.3339 C   0  0  0  0  0  0  0  0  0  0  0  0
    9.7442  -16.8950   18.1657 C   0  0  0  0  0  0  0  0  0  0  0  0
   10.4694  -16.7563   19.4332 C   0  0  0  0  0  0  0  0  0  0  0  0
    9.9602  -17.3574   20.6748 C   0  0  2  0  0  0  0  0  0  0  0  0
    8.5458  -17.7261   20.4572 N   0  0  0  0  0  0  0  0  0  0  0  0
   10.0037  -16.3962   21.8360 C   0  0  0  0  0  0  0  0  0  0  0  0
   11.0538  -15.8972   22.2834 O   0  0  0  0  0  0  0  0  0  0  0  0
    8.5941  -12.6041   18.5492 N   0  0  0  0  0  0  0  0  0  0  0  0
    8.8010  -16.0034   22.4943 C   0  0  1  0  0  0  0  0  0  0  0  0
    8.7721  -15.1861   23.7044 C   0  0  0  0  0  0  0  0  0  0  0  0
    7.6559  -14.1791   23.6103 C   0  0  0  0  0  0  0  0  0  0  0  0
    7.4587  -13.3144   24.7592 C   0  0  0  0  0  0  0  0  0  0  0  0
    6.4638  -13.6368   25.6656 C   0  0  0  0  0  0  0  0  0  0  0  0
    6.2342  -12.8596   26.7924 C   0  0  0  0  0  0  0  0  0  0  0  0
    6.9933  -11.7504   27.0306 C   0  0  0  0  0  0  0  0  0  0  0  0
    7.9794  -11.4114   26.1534 C   0  0  0  0  0  0  0  0  0  0  0  0
    8.2008  -12.1873   25.0387 C   0  0  0  0  0  0  0  0  0  0  0  0
    8.5325  -16.0219   24.9037 O   0  0  0  0  0  0  0  0  0  0  0  0
    7.5587  -16.8121   24.8801 N   0  0  0  0  0  0  0  0  0  0  0  0
    9.3373  -15.9761   26.0639 C   0  0  1  0  0  0  0  0  0  0  0  0
    9.5589  -17.2067   26.7916 C   0  0  0  0  0  0  0  0  0  0  0  0
   10.1946  -18.2932   25.9767 C   0  0  0  0  0  0  0  0  0  0  0  0
   10.5112  -19.4806   26.7823 O   0  0  0  0  0  0  0  0  0  0  0  0
    9.8759  -19.7074   27.8312 C   0  0  0  0  0  0  0  0  0  0  0  0
   10.4648  -16.9795   27.9631 O   0  0  0  0  0  0  0  0  0  0  0  0
   10.7006  -17.9252   28.9322 O   0  0  0  0  0  0  0  0  0  0  0  0
   11.5052  -20.3571   26.3988 O   0  0  0  0  0  0  0  0  0  0  0  0
  2  3  2  0
  2  1  1  0
  4  2  1  0
  5  4  1  0
  6  5  1  0
  7  6  1  0
  8  9  1  6
  8 10  1  0
  8  7  1  0
 10 11  2  0
 12 13  1  0
 12 10  1  0
 13 21  1  0
 13 14  1  1
 15 14  1  0
 16 15  2  0
 17 16  1  0
 18 17  2  0
 18 19  1  0
 19 20  2  0
 20 15  1  0
 21 23  1  0
 21 22  2  0
 23 24  1  0
 24 28  1  0
 24 25  1  1
 26 25  1  0
 26 27  2  0
 28 31  2  0
 28 29  1  0
 30 26  1  0
M  END
$$$$
