DYM.pdb
     RDKit          3D

 29 29  0  0  1  0  0  0  0  0999 V2000
   10.0069  -18.6617   19.5115 N   0  0  0  0  0  0  0  0  0  0  0  0
   11.1992  -17.8458   19.7213 C   0  0  1  0  0  0  0  0  0  0  0  0
   11.5179  -17.1819   18.4056 C   0  0  0  0  0  0  0  0  0  0  0  0
   12.5750  -17.9410   17.7053 C   0  0  0  0  0  0  0  0  0  0  0  0
   13.6038  -17.4098   17.1858 O   0  0  0  0  0  0  0  0  0  0  0  0
   10.9772  -16.8802   20.8300 C   0  0  0  0  0  0  0  0  0  0  0  0
   11.8685  -16.1015   21.2496 O   0  0  0  0  0  0  0  0  0  0  0  0
   12.4425  -19.3188   17.6049 O   0  0  0  0  0  0  0  0  0  0  0  0
    7.5190  -12.6024   17.3174 O   0  0  0  0  0  0  0  0  0  0  0  0
    7.6715  -13.2083   18.5784 C   0  0  0  0  0  0  0  0  0  0  0  0
    8.2302  -12.5351   19.6362 C   0  0  0  0  0  0  0  0  0  0  0  0
    8.3600  -13.1813   20.8702 C   0  0  0  0  0  0  0  0  0  0  0  0
    7.9372  -14.4793   21.0402 C   0  0  0  0  0  0  0  0  0  0  0  0
    8.0728  -15.1516   22.3196 C   0  0  0  0  0  0  0  0  0  0  0  0
    9.4182  -15.8194   22.5232 C   0  0  2  0  0  0  0  0  0  0  0  0
    9.7120  -16.7783   21.4973 N   0  0  0  0  0  0  0  0  0  0  0  0
    9.4915  -16.4553   23.8807 C   0  0  0  0  0  0  0  0  0  0  0  0
    8.5485  -17.1586   24.3189 O   0  0  0  0  0  0  0  0  0  0  0  0
    7.3813  -15.1348   19.9696 C   0  0  0  0  0  0  0  0  0  0  0  0
    7.2445  -14.5085   18.7365 C   0  0  0  0  0  0  0  0  0  0  0  0
   10.1902  -13.3613   30.3626 C   0  0  0  0  0  0  0  0  0  0  0  0
   10.0138  -13.2700   28.5781 S   0  0  0  0  0  0  0  0  0  0  0  0
    9.2042  -14.6796   27.8641 C   0  0  0  0  0  0  0  0  0  0  0  0
    9.5283  -15.0251   26.4574 C   0  0  0  0  0  0  0  0  0  0  0  0
   10.5130  -16.0909   26.1698 C   0  0  2  0  0  0  0  0  0  0  0  0
   10.6158  -16.2841   24.7008 N   0  0  0  0  0  0  0  0  0  0  0  0
   10.2525  -17.3789   26.7848 C   0  0  0  0  0  0  0  0  0  0  0  0
   10.4636  -17.4927   28.1884 O   0  0  0  0  0  0  0  0  0  0  0  0
    9.8558  -18.4282   26.2211 O   0  0  0  0  0  0  0  0  0  0  0  0
  2  1  1  6
  2  3  1  0
  3  4  1  0
  4  5  2  0
  4  8  1  0
  6  7  2  0
  6  2  1  0
  9 10  1  0
 10 11  2  0
 11 12  1  0
 13 12  2  0
 13 14  1  0
 15 14  1  6
 15 16  1  0
 16  6  1  0
 17 18  2  0
 17 15  1  0
 19 13  1  0
 20 10  1  0
 20 19  2  0
 21 22  1  0
 23 22  1  0
 24 23  1  0
 25 24  1  6
 25 26  1  0
 26 17  1  0
 27 25  1  0
 28 27  1  0
 29 27  2  0
M  END
$$$$
