DYM.pdb
     RDKit          3D

 29 29  0  0  1  0  0  0  0  0999 V2000
   10.8416  -18.5779   19.4910 N   0  0  0  0  0  0  0  0  0  0  0  0
   11.8930  -17.6198   19.8195 C   0  0  1  0  0  0  0  0  0  0  0  0
   12.2337  -16.8840   18.5484 C   0  0  0  0  0  0  0  0  0  0  0  0
   13.0619  -17.7450   17.6784 C   0  0  0  0  0  0  0  0  0  0  0  0
   12.6208  -18.3534   16.6559 O   0  0  0  0  0  0  0  0  0  0  0  0
   11.4504  -16.7224   20.9194 C   0  0  0  0  0  0  0  0  0  0  0  0
   12.1575  -15.7860   21.3666 O   0  0  0  0  0  0  0  0  0  0  0  0
   14.4046  -17.9034   17.9914 O   0  0  0  0  0  0  0  0  0  0  0  0
    6.8900  -12.8516   17.7516 O   0  0  0  0  0  0  0  0  0  0  0  0
    7.2248  -13.5375   18.9340 C   0  0  0  0  0  0  0  0  0  0  0  0
    7.7239  -12.8786   20.0300 C   0  0  0  0  0  0  0  0  0  0  0  0
    8.0417  -13.6054   21.1823 C   0  0  0  0  0  0  0  0  0  0  0  0
    7.8623  -14.9684   21.2346 C   0  0  0  0  0  0  0  0  0  0  0  0
    8.1933  -15.7239   22.4290 C   0  0  0  0  0  0  0  0  0  0  0  0
    9.6729  -16.0152   22.5815 C   0  0  2  0  0  0  0  0  0  0  0  0
   10.1693  -16.8744   21.5453 N   0  0  0  0  0  0  0  0  0  0  0  0
    9.9594  -16.5964   23.9353 C   0  0  0  0  0  0  0  0  0  0  0  0
   10.0536  -17.8372   24.1015 O   0  0  0  0  0  0  0  0  0  0  0  0
    7.3620  -15.6081   20.1276 C   0  0  0  0  0  0  0  0  0  0  0  0
    7.0409  -14.9021   18.9743 C   0  0  0  0  0  0  0  0  0  0  0  0
   10.5405  -12.5055   29.1427 C   0  0  0  0  0  0  0  0  0  0  0  0
   10.9115  -14.0861   29.9093 S   0  0  0  0  0  0  0  0  0  0  0  0
   10.7463  -15.4721   28.8120 C   0  0  0  0  0  0  0  0  0  0  0  0
   10.4735  -15.1927   27.3800 C   0  0  0  0  0  0  0  0  0  0  0  0
   10.3862  -16.3113   26.4159 C   0  0  2  0  0  0  0  0  0  0  0  0
   10.1314  -15.7714   25.0559 N   0  0  0  0  0  0  0  0  0  0  0  0
    9.3848  -17.3209   26.7037 C   0  0  0  0  0  0  0  0  0  0  0  0
    9.7912  -18.4522   27.4669 O   0  0  0  0  0  0  0  0  0  0  0  0
    8.1784  -17.3212   26.3556 O   0  0  0  0  0  0  0  0  0  0  0  0
  2  1  1  6
  2  3  1  0
  3  4  1  0
  4  5  2  0
  4  8  1  0
  6  7  2  0
  6  2  1  0
  9 10  1  0
 10 11  2  0
 11 12  1  0
 13 12  2  0
 13 14  1  0
 15 14  1  6
 15 16  1  0
 16  6  1  0
 17 18  2  0
 17 15  1  0
 19 13  1  0
 20 10  1  0
 20 19  2  0
 21 22  1  0
 23 22  1  0
 24 23  1  0
 25 24  1  1
 25 26  1  0
 26 17  1  0
 27 25  1  0
 28 27  1  0
 29 27  2  0
M  END
$$$$
