DYM.pdb
     RDKit          3D

 29 29  0  0  1  0  0  0  0  0999 V2000
   12.1556  -18.7732   20.0628 N   0  0  0  0  0  0  0  0  0  0  0  0
   11.9334  -17.3945   19.6371 C   0  0  1  0  0  0  0  0  0  0  0  0
   10.8951  -17.4309   18.5444 C   0  0  0  0  0  0  0  0  0  0  0  0
   10.9495  -18.7321   17.8457 C   0  0  0  0  0  0  0  0  0  0  0  0
    9.9357  -19.4645   17.6306 O   0  0  0  0  0  0  0  0  0  0  0  0
   11.5389  -16.5518   20.7969 C   0  0  0  0  0  0  0  0  0  0  0  0
   12.1779  -15.5305   21.1510 O   0  0  0  0  0  0  0  0  0  0  0  0
   12.1799  -19.1883   17.3941 O   0  0  0  0  0  0  0  0  0  0  0  0
    6.8911  -12.7414   18.0118 O   0  0  0  0  0  0  0  0  0  0  0  0
    7.2766  -13.4697   19.1528 C   0  0  0  0  0  0  0  0  0  0  0  0
    7.8570  -12.8558   20.2348 C   0  0  0  0  0  0  0  0  0  0  0  0
    8.2227  -13.6236   21.3455 C   0  0  0  0  0  0  0  0  0  0  0  0
    8.0103  -14.9826   21.3707 C   0  0  0  0  0  0  0  0  0  0  0  0
    8.3909  -15.7807   22.5219 C   0  0  0  0  0  0  0  0  0  0  0  0
    9.8835  -16.0166   22.6397 C   0  0  2  0  0  0  0  0  0  0  0  0
   10.3868  -16.8594   21.5933 N   0  0  0  0  0  0  0  0  0  0  0  0
   10.2234  -16.5834   23.9873 C   0  0  0  0  0  0  0  0  0  0  0  0
   10.5538  -17.7873   24.1196 O   0  0  0  0  0  0  0  0  0  0  0  0
    7.4287  -15.5770   20.2784 C   0  0  0  0  0  0  0  0  0  0  0  0
    7.0590  -14.8298   19.1663 C   0  0  0  0  0  0  0  0  0  0  0  0
    9.8498  -12.6514   29.3271 C   0  0  0  0  0  0  0  0  0  0  0  0
   10.4214  -14.1799   30.0759 S   0  0  0  0  0  0  0  0  0  0  0  0
   10.7078  -15.4873   28.9092 C   0  0  0  0  0  0  0  0  0  0  0  0
   10.4086  -15.2179   27.4805 C   0  0  0  0  0  0  0  0  0  0  0  0
   10.5878  -16.2897   26.4767 C   0  0  2  0  0  0  0  0  0  0  0  0
   10.1830  -15.7856   25.1396 N   0  0  0  0  0  0  0  0  0  0  0  0
    9.8760  -17.5272   26.7352 C   0  0  0  0  0  0  0  0  0  0  0  0
    8.5730  -17.6658   26.1780 O   0  0  0  0  0  0  0  0  0  0  0  0
   10.2747  -18.5123   27.4039 O   0  0  0  0  0  0  0  0  0  0  0  0
  2  1  1  1
  2  3  1  0
  3  4  1  0
  4  5  2  0
  4  8  1  0
  6  7  2  0
  6  2  1  0
  9 10  1  0
 10 11  2  0
 11 12  1  0
 13 12  2  0
 13 14  1  0
 15 14  1  1
 15 16  1  0
 16  6  1  0
 17 18  2  0
 17 15  1  0
 19 13  1  0
 20 10  1  0
 20 19  2  0
 21 22  1  0
 23 22  1  0
 24 23  1  0
 25 24  1  1
 25 26  1  0
 26 17  1  0
 27 25  1  0
 28 27  1  0
 29 27  2  0
M  END
$$$$
