DYM.pdb
     RDKit          3D

 29 29  0  0  1  0  0  0  0  0999 V2000
   10.5619  -18.9255   19.6814 N   0  0  0  0  0  0  0  0  0  0  0  0
   11.6995  -18.0266   19.5103 C   0  0  1  0  0  0  0  0  0  0  0  0
   11.7368  -17.6326   18.0554 C   0  0  0  0  0  0  0  0  0  0  0  0
   12.1715  -18.7834   17.2363 C   0  0  0  0  0  0  0  0  0  0  0  0
   11.4703  -19.3035   16.3154 O   0  0  0  0  0  0  0  0  0  0  0  0
   11.5853  -16.8658   20.4324 C   0  0  0  0  0  0  0  0  0  0  0  0
   12.4660  -15.9755   20.5260 O   0  0  0  0  0  0  0  0  0  0  0  0
   13.4209  -19.3348   17.4826 O   0  0  0  0  0  0  0  0  0  0  0  0
    6.5569  -13.1789   17.4722 O   0  0  0  0  0  0  0  0  0  0  0  0
    7.1247  -13.6427   18.6736 C   0  0  0  0  0  0  0  0  0  0  0  0
    7.8040  -12.8012   19.5190 C   0  0  0  0  0  0  0  0  0  0  0  0
    8.3505  -13.3105   20.7019 C   0  0  0  0  0  0  0  0  0  0  0  0
    8.2182  -14.6398   21.0308 C   0  0  0  0  0  0  0  0  0  0  0  0
    8.7862  -15.1699   22.2569 C   0  0  0  0  0  0  0  0  0  0  0  0
   10.2472  -15.5564   22.1404 C   0  0  2  0  0  0  0  0  0  0  0  0
   10.4448  -16.6901   21.2836 N   0  0  0  0  0  0  0  0  0  0  0  0
   10.8362  -15.8082   23.4978 C   0  0  0  0  0  0  0  0  0  0  0  0
   11.8530  -15.1846   23.8890 O   0  0  0  0  0  0  0  0  0  0  0  0
    7.5352  -15.4644   20.1715 C   0  0  0  0  0  0  0  0  0  0  0  0
    6.9858  -14.9756   18.9921 C   0  0  0  0  0  0  0  0  0  0  0  0
   10.2027  -13.4560   30.2755 C   0  0  0  0  0  0  0  0  0  0  0  0
    9.7846  -13.6888   28.5450 S   0  0  0  0  0  0  0  0  0  0  0  0
   10.3188  -15.2464   27.8810 C   0  0  0  0  0  0  0  0  0  0  0  0
   10.1376  -15.4774   26.4260 C   0  0  0  0  0  0  0  0  0  0  0  0
   10.5579  -16.7632   25.8274 C   0  0  2  0  0  0  0  0  0  0  0  0
   10.2683  -16.7470   24.3708 N   0  0  0  0  0  0  0  0  0  0  0  0
    9.9619  -17.9554   26.4004 C   0  0  0  0  0  0  0  0  0  0  0  0
   10.5890  -18.5180   27.5484 O   0  0  0  0  0  0  0  0  0  0  0  0
    8.9401  -18.5660   26.0012 O   0  0  0  0  0  0  0  0  0  0  0  0
  2  1  1  6
  2  3  1  0
  3  4  1  0
  4  5  2  0
  4  8  1  0
  6  7  2  0
  6  2  1  0
  9 10  1  0
 10 11  2  0
 11 12  1  0
 13 12  2  0
 13 14  1  0
 15 14  1  1
 15 16  1  0
 16  6  1  0
 17 18  2  0
 17 15  1  0
 19 13  1  0
 20 10  1  0
 20 19  2  0
 21 22  1  0
 23 22  1  0
 24 23  1  0
 25 24  1  1
 25 26  1  0
 26 17  1  0
 27 25  1  0
 28 27  1  0
 29 27  2  0
M  END
$$$$
