DYM.pdb
     RDKit          3D

 29 29  0  0  1  0  0  0  0  0999 V2000
   10.3870  -18.4186   19.3546 N   0  0  0  0  0  0  0  0  0  0  0  0
   11.5341  -17.6407   19.8133 C   0  0  1  0  0  0  0  0  0  0  0  0
   12.0769  -16.9045   18.6146 C   0  0  0  0  0  0  0  0  0  0  0  0
   13.0920  -17.7358   17.9344 C   0  0  0  0  0  0  0  0  0  0  0  0
   12.8249  -18.7972   17.2921 O   0  0  0  0  0  0  0  0  0  0  0  0
   11.1367  -16.7402   20.9277 C   0  0  0  0  0  0  0  0  0  0  0  0
   11.9408  -15.9665   21.5037 O   0  0  0  0  0  0  0  0  0  0  0  0
   14.4203  -17.3389   17.9967 O   0  0  0  0  0  0  0  0  0  0  0  0
    6.0460  -12.3978   26.7433 O   0  0  0  0  0  0  0  0  0  0  0  0
    6.4832  -13.2302   25.6961 C   0  0  0  0  0  0  0  0  0  0  0  0
    6.1787  -14.5684   25.6670 C   0  0  0  0  0  0  0  0  0  0  0  0
    6.6368  -15.3540   24.6040 C   0  0  0  0  0  0  0  0  0  0  0  0
    7.3869  -14.8075   23.5885 C   0  0  0  0  0  0  0  0  0  0  0  0
    7.8644  -15.6219   22.4858 C   0  0  0  0  0  0  0  0  0  0  0  0
    9.3576  -15.8805   22.5145 C   0  0  2  0  0  0  0  0  0  0  0  0
    9.7903  -16.7002   21.4194 N   0  0  0  0  0  0  0  0  0  0  0  0
    9.7625  -16.4893   23.8253 C   0  0  0  0  0  0  0  0  0  0  0  0
    9.5739  -17.7080   24.0599 O   0  0  0  0  0  0  0  0  0  0  0  0
    7.6805  -13.4672   23.6367 C   0  0  0  0  0  0  0  0  0  0  0  0
    7.2337  -12.6716   24.6850 C   0  0  0  0  0  0  0  0  0  0  0  0
   10.3253  -12.6077   29.1163 C   0  0  0  0  0  0  0  0  0  0  0  0
   10.3786  -14.2600   29.8169 S   0  0  0  0  0  0  0  0  0  0  0  0
   10.7103  -15.5341   28.6256 C   0  0  0  0  0  0  0  0  0  0  0  0
   10.4610  -15.2263   27.1952 C   0  0  0  0  0  0  0  0  0  0  0  0
   10.7014  -16.2623   26.1670 C   0  0  2  0  0  0  0  0  0  0  0  0
   10.3645  -15.7156   24.8278 N   0  0  0  0  0  0  0  0  0  0  0  0
    9.9862  -17.5120   26.3455 C   0  0  0  0  0  0  0  0  0  0  0  0
   10.6772  -18.5802   26.9851 O   0  0  0  0  0  0  0  0  0  0  0  0
    8.8085  -17.7744   25.9984 O   0  0  0  0  0  0  0  0  0  0  0  0
  2  1  1  6
  2  3  1  0
  3  4  1  0
  4  5  2  0
  4  8  1  0
  6  7  2  0
  6  2  1  0
  9 10  1  0
 10 11  2  0
 11 12  1  0
 13 12  2  0
 13 14  1  0
 15 14  1  1
 15 16  1  0
 16  6  1  0
 17 18  2  0
 17 15  1  0
 19 13  1  0
 20 10  1  0
 20 19  2  0
 21 22  1  0
 23 22  1  0
 24 23  1  0
 25 24  1  1
 25 26  1  0
 26 17  1  0
 27 25  1  0
 28 27  1  0
 29 27  2  0
M  END
$$$$
