DYM.pdb
     RDKit          3D

 29 29  0  0  1  0  0  0  0  0999 V2000
   10.1939  -17.6878   18.0442 N   0  0  0  0  0  0  0  0  0  0  0  0
    9.8865  -18.2184   19.3691 C   0  0  1  0  0  0  0  0  0  0  0  0
   10.9218  -19.2710   19.6751 C   0  0  0  0  0  0  0  0  0  0  0  0
   10.5578  -20.5393   19.0094 C   0  0  0  0  0  0  0  0  0  0  0  0
   10.2981  -21.6161   19.6286 O   0  0  0  0  0  0  0  0  0  0  0  0
    9.8490  -17.1201   20.3707 C   0  0  0  0  0  0  0  0  0  0  0  0
   10.6139  -16.1252   20.3259 O   0  0  0  0  0  0  0  0  0  0  0  0
   10.4937  -20.5630   17.6234 O   0  0  0  0  0  0  0  0  0  0  0  0
    6.5421  -11.9837   26.8274 O   0  0  0  0  0  0  0  0  0  0  0  0
    6.7547  -12.8827   25.7657 C   0  0  0  0  0  0  0  0  0  0  0  0
    7.3690  -12.4891   24.6030 C   0  0  0  0  0  0  0  0  0  0  0  0
    7.5573  -13.4205   23.5763 C   0  0  0  0  0  0  0  0  0  0  0  0
    7.1370  -14.7233   23.7133 C   0  0  0  0  0  0  0  0  0  0  0  0
    7.3303  -15.6904   22.6481 C   0  0  0  0  0  0  0  0  0  0  0  0
    8.7807  -16.0605   22.4099 C   0  0  2  0  0  0  0  0  0  0  0  0
    8.9224  -17.1308   21.4650 N   0  0  0  0  0  0  0  0  0  0  0  0
    9.4573  -16.4032   23.7051 C   0  0  0  0  0  0  0  0  0  0  0  0
    9.0974  -17.3979   24.3812 O   0  0  0  0  0  0  0  0  0  0  0  0
    6.5248  -15.0965   24.8841 C   0  0  0  0  0  0  0  0  0  0  0  0
    6.3294  -14.1845   25.9145 C   0  0  0  0  0  0  0  0  0  0  0  0
   10.4147  -14.0103   30.7594 C   0  0  0  0  0  0  0  0  0  0  0  0
   10.0339  -13.7585   29.0230 S   0  0  0  0  0  0  0  0  0  0  0  0
   10.7841  -14.9519   27.9435 C   0  0  0  0  0  0  0  0  0  0  0  0
   10.4986  -14.8471   26.4907 C   0  0  0  0  0  0  0  0  0  0  0  0
   11.0915  -15.8249   25.5521 C   0  0  2  0  0  0  0  0  0  0  0  0
   10.5126  -15.6234   24.1993 N   0  0  0  0  0  0  0  0  0  0  0  0
   10.9410  -17.2223   25.9120 C   0  0  0  0  0  0  0  0  0  0  0  0
    9.6177  -17.7406   25.9996 O   0  0  0  0  0  0  0  0  0  0  0  0
   11.8523  -18.0492   26.1614 O   0  0  0  0  0  0  0  0  0  0  0  0
  2  1  1  6
  2  3  1  0
  3  4  1  0
  4  5  2  0
  4  8  1  0
  6  7  2  0
  6  2  1  0
  9 10  1  0
 10 11  2  0
 11 12  1  0
 13 12  2  0
 13 14  1  0
 15 14  1  1
 15 16  1  0
 16  6  1  0
 17 18  2  0
 17 15  1  0
 19 13  1  0
 20 10  1  0
 20 19  2  0
 21 22  1  0
 23 22  1  0
 24 23  1  0
 25 24  1  1
 25 26  1  0
 26 17  1  0
 27 25  1  0
 28 27  1  0
 29 27  2  0
M  END
$$$$
