DYM.pdb
     RDKit          3D

 29 29  0  0  1  0  0  0  0  0999 V2000
   10.0166  -18.7272   20.3395 N   0  0  0  0  0  0  0  0  0  0  0  0
   11.0816  -17.7317   20.4182 C   0  0  1  0  0  0  0  0  0  0  0  0
   11.2994  -17.2058   19.0220 C   0  0  0  0  0  0  0  0  0  0  0  0
   11.8160  -18.2857   18.1554 C   0  0  0  0  0  0  0  0  0  0  0  0
   12.4213  -19.3138   18.5879 O   0  0  0  0  0  0  0  0  0  0  0  0
   10.7278  -16.6715   21.3988 C   0  0  0  0  0  0  0  0  0  0  0  0
   11.5282  -15.7715   21.7538 O   0  0  0  0  0  0  0  0  0  0  0  0
   11.6325  -18.1769   16.7842 O   0  0  0  0  0  0  0  0  0  0  0  0
    5.6996  -11.6549   26.7579 O   0  0  0  0  0  0  0  0  0  0  0  0
    6.1663  -12.6014   25.8268 C   0  0  0  0  0  0  0  0  0  0  0  0
    6.8715  -12.2244   24.7110 C   0  0  0  0  0  0  0  0  0  0  0  0
    7.3140  -13.2034   23.8150 C   0  0  0  0  0  0  0  0  0  0  0  0
    7.0539  -14.5365   24.0339 C   0  0  0  0  0  0  0  0  0  0  0  0
    7.5109  -15.5531   23.1041 C   0  0  0  0  0  0  0  0  0  0  0  0
    9.0146  -15.5819   22.9155 C   0  0  2  0  0  0  0  0  0  0  0  0
    9.4308  -16.6119   22.0075 N   0  0  0  0  0  0  0  0  0  0  0  0
    9.7096  -15.7277   24.2378 C   0  0  0  0  0  0  0  0  0  0  0  0
   10.3225  -14.7634   24.7578 O   0  0  0  0  0  0  0  0  0  0  0  0
    6.3470  -14.8923   25.1557 C   0  0  0  0  0  0  0  0  0  0  0  0
    5.8996  -13.9332   26.0567 C   0  0  0  0  0  0  0  0  0  0  0  0
   11.0612  -12.6117   28.7017 C   0  0  0  0  0  0  0  0  0  0  0  0
   11.2345  -14.3869   28.4955 S   0  0  0  0  0  0  0  0  0  0  0  0
    9.9932  -15.1128   27.4542 C   0  0  0  0  0  0  0  0  0  0  0  0
    9.9894  -16.5899   27.3082 C   0  0  0  0  0  0  0  0  0  0  0  0
   10.5746  -17.2112   26.0999 C   0  0  2  0  0  0  0  0  0  0  0  0
    9.6949  -16.9451   24.9332 N   0  0  0  0  0  0  0  0  0  0  0  0
   10.8179  -18.6395   26.1748 C   0  0  0  0  0  0  0  0  0  0  0  0
   11.7109  -19.1031   27.1824 O   0  0  0  0  0  0  0  0  0  0  0  0
   10.3287  -19.5369   25.4456 O   0  0  0  0  0  0  0  0  0  0  0  0
  2  1  1  6
  2  3  1  0
  3  4  1  0
  4  5  2  0
  4  8  1  0
  6  7  2  0
  6  2  1  0
  9 10  1  0
 10 11  2  0
 11 12  1  0
 13 12  2  0
 13 14  1  0
 15 14  1  1
 15 16  1  0
 16  6  1  0
 17 18  2  0
 17 15  1  0
 19 13  1  0
 20 10  1  0
 20 19  2  0
 21 22  1  0
 23 22  1  0
 24 23  1  0
 25 24  1  1
 25 26  1  0
 26 17  1  0
 27 25  1  0
 28 27  1  0
 29 27  2  0
M  END
$$$$
