DYM.pdb
     RDKit          3D

 29 29  0  0  1  0  0  0  0  0999 V2000
    9.3551  -18.1123   19.2493 N   0  0  0  0  0  0  0  0  0  0  0  0
    8.2216  -17.2036   19.3939 C   0  0  1  0  0  0  0  0  0  0  0  0
    7.1395  -17.6952   18.4661 C   0  0  0  0  0  0  0  0  0  0  0  0
    7.6013  -17.6027   17.0653 C   0  0  0  0  0  0  0  0  0  0  0  0
    8.7861  -17.2981   16.7277 O   0  0  0  0  0  0  0  0  0  0  0  0
    7.7920  -17.1339   20.8156 C   0  0  0  0  0  0  0  0  0  0  0  0
    6.7674  -16.5134   21.1925 O   0  0  0  0  0  0  0  0  0  0  0  0
    6.6906  -17.8631   16.0511 O   0  0  0  0  0  0  0  0  0  0  0  0
    4.6056  -22.8125   21.8058 O   0  0  0  0  0  0  0  0  0  0  0  0
    5.4954  -21.8762   22.3646 C   0  0  0  0  0  0  0  0  0  0  0  0
    5.2843  -21.3390   23.6101 C   0  0  0  0  0  0  0  0  0  0  0  0
    6.1981  -20.4117   24.1219 C   0  0  0  0  0  0  0  0  0  0  0  0
    7.3038  -20.0299   23.3977 C   0  0  0  0  0  0  0  0  0  0  0  0
    8.2518  -19.0664   23.9269 C   0  0  0  0  0  0  0  0  0  0  0  0
    8.1931  -17.7113   23.2504 C   0  0  2  0  0  0  0  0  0  0  0  0
    8.5334  -17.7813   21.8584 N   0  0  0  0  0  0  0  0  0  0  0  0
    9.0741  -16.7272   23.9632 C   0  0  0  0  0  0  0  0  0  0  0  0
    9.7413  -15.8750   23.3270 O   0  0  0  0  0  0  0  0  0  0  0  0
    7.4963  -20.5789   22.1542 C   0  0  0  0  0  0  0  0  0  0  0  0
    6.5988  -21.5016   21.6299 C   0  0  0  0  0  0  0  0  0  0  0  0
    6.9858  -10.4768   26.7171 C   0  0  0  0  0  0  0  0  0  0  0  0
    6.9531  -12.0602   25.8713 S   0  0  0  0  0  0  0  0  0  0  0  0
    8.1938  -13.1994   26.4329 C   0  0  0  0  0  0  0  0  0  0  0  0
    8.2707  -14.5233   25.7661 C   0  0  0  0  0  0  0  0  0  0  0  0
    9.3281  -15.4821   26.1544 C   0  0  2  0  0  0  0  0  0  0  0  0
    9.1785  -16.7289   25.3614 N   0  0  0  0  0  0  0  0  0  0  0  0
    9.3790  -15.8361   27.5605 C   0  0  0  0  0  0  0  0  0  0  0  0
   10.3449  -15.1747   28.3711 O   0  0  0  0  0  0  0  0  0  0  0  0
    8.6621  -16.6714   28.1644 O   0  0  0  0  0  0  0  0  0  0  0  0
  2  1  1  1
  2  3  1  0
  3  4  1  0
  4  5  2  0
  4  8  1  0
  6  7  2  0
  6  2  1  0
  9 10  1  0
 10 11  2  0
 11 12  1  0
 13 12  2  0
 13 14  1  0
 15 14  1  1
 15 16  1  0
 16  6  1  0
 17 18  2  0
 17 15  1  0
 19 13  1  0
 20 10  1  0
 20 19  2  0
 21 22  1  0
 23 22  1  0
 24 23  1  0
 25 24  1  1
 25 26  1  0
 26 17  1  0
 27 25  1  0
 28 27  1  0
 29 27  2  0
M  END
$$$$
