AYD.pdb
     RDKit          3D

 26 26  0  0  1  0  0  0  0  0999 V2000
   17.3171  -15.4155  -16.3574 C   0  0  0  0  0  0  0  0  0  0  0  0
   18.1881  -14.1857  -16.3590 C   0  0  2  0  0  0  0  0  0  0  0  0
   19.3537  -14.3238  -15.5498 N   0  0  0  0  0  0  0  0  0  0  0  0
   17.4542  -12.9565  -16.0324 C   0  0  0  0  0  0  0  0  0  0  0  0
   16.4182  -12.7120  -16.7473 O   0  0  0  0  0  0  0  0  0  0  0  0
   11.9133  -13.6990  -11.7307 O   0  0  0  0  0  0  0  0  0  0  0  0
   13.0817  -13.0315  -12.1017 C   0  0  0  0  0  0  0  0  0  0  0  0
   14.2613  -13.1765  -11.4046 C   0  0  0  0  0  0  0  0  0  0  0  0
   15.4142  -12.5170  -11.7720 C   0  0  0  0  0  0  0  0  0  0  0  0
   15.4442  -11.6614  -12.8789 C   0  0  0  0  0  0  0  0  0  0  0  0
   16.6631  -10.9297  -13.2598 C   0  0  0  0  0  0  0  0  0  0  0  0
   17.0023  -10.8683  -14.7028 C   0  0  2  0  0  0  0  0  0  0  0  0
   17.8229  -12.0591  -15.0017 N   0  0  0  0  0  0  0  0  0  0  0  0
   17.7968   -9.7053  -15.1309 C   0  0  0  0  0  0  0  0  0  0  0  0
   19.0809   -9.7357  -15.0755 O   0  0  0  0  0  0  0  0  0  0  0  0
   14.2550  -11.5313  -13.5606 C   0  0  0  0  0  0  0  0  0  0  0  0
   13.1020  -12.1907  -13.1934 C   0  0  0  0  0  0  0  0  0  0  0  0
   17.2851   -8.4765  -15.6350 N   0  0  0  0  0  0  0  0  0  0  0  0
   18.1435   -7.3521  -15.9483 C   0  0  1  0  0  0  0  0  0  0  0  0
   17.4692   -6.3953  -16.9143 C   0  0  0  0  0  0  0  0  0  0  0  0
   16.9536   -7.0389  -18.1207 C   0  0  0  0  0  0  0  0  0  0  0  0
   17.6779   -7.7331  -18.8653 O   0  0  0  0  0  0  0  0  0  0  0  0
   18.6884   -6.6548  -14.7803 C   0  0  0  0  0  0  0  0  0  0  0  0
   18.2948   -6.9644  -13.6331 O   0  0  0  0  0  0  0  0  0  0  0  0
   15.6222   -6.8788  -18.4551 O   0  0  0  0  0  0  0  0  0  0  0  0
   19.6352   -5.6484  -14.8550 O   0  0  0  0  0  0  0  0  0  0  0  0
  2  1  1  1
  2  3  1  0
  4  2  1  0
  5  4  2  0
  6  7  1  0
  7  8  2  0
  8  9  1  0
 10 11  1  0
 10  9  2  0
 12 11  1  1
 12 13  1  0
 13  4  1  0
 14 12  1  0
 14 15  2  0
 16 10  1  0
 17 16  2  0
 17  7  1  0
 18 14  1  0
 19 18  1  0
 19 20  1  1
 20 21  1  0
 21 22  2  0
 21 25  1  0
 23 19  1  0
 24 23  2  0
 26 23  1  0
M  END
$$$$
