AYD.pdb
     RDKit          3D

 26 26  0  0  1  0  0  0  0  0999 V2000
   18.5084  -13.2641  -17.5289 C   0  0  0  0  0  0  0  0  0  0  0  0
   18.9330  -12.3130  -16.4399 C   0  0  2  0  0  0  0  0  0  0  0  0
   18.0982  -12.3743  -15.2858 N   0  0  0  0  0  0  0  0  0  0  0  0
   19.0943  -10.9309  -16.9090 C   0  0  0  0  0  0  0  0  0  0  0  0
   19.9679  -10.7467  -17.8293 O   0  0  0  0  0  0  0  0  0  0  0  0
   15.2814   -9.9053  -22.5766 O   0  0  0  0  0  0  0  0  0  0  0  0
   15.7272   -9.4783  -21.3247 C   0  0  0  0  0  0  0  0  0  0  0  0
   15.3057  -10.0722  -20.1550 C   0  0  0  0  0  0  0  0  0  0  0  0
   15.7466   -9.6496  -18.9196 C   0  0  0  0  0  0  0  0  0  0  0  0
   16.6505   -8.5891  -18.7910 C   0  0  0  0  0  0  0  0  0  0  0  0
   17.1027   -8.1119  -17.4742 C   0  0  0  0  0  0  0  0  0  0  0  0
   18.4674   -8.4973  -17.0377 C   0  0  2  0  0  0  0  0  0  0  0  0
   18.3570   -9.8299  -16.4112 N   0  0  0  0  0  0  0  0  0  0  0  0
   19.0954   -7.6231  -16.0335 C   0  0  0  0  0  0  0  0  0  0  0  0
   19.4484   -8.0916  -14.8894 O   0  0  0  0  0  0  0  0  0  0  0  0
   17.0583   -8.0106  -19.9721 C   0  0  0  0  0  0  0  0  0  0  0  0
   16.6175   -8.4330  -21.2075 C   0  0  0  0  0  0  0  0  0  0  0  0
   19.3822   -6.2374  -16.1859 N   0  0  0  0  0  0  0  0  0  0  0  0
   20.0936   -5.4795  -15.1766 C   0  0  1  0  0  0  0  0  0  0  0  0
   21.4342   -6.1131  -14.8533 C   0  0  0  0  0  0  0  0  0  0  0  0
   22.2400   -5.3426  -13.9087 C   0  0  0  0  0  0  0  0  0  0  0  0
   21.9808   -5.3084  -12.6869 O   0  0  0  0  0  0  0  0  0  0  0  0
   20.2213   -4.0482  -15.4637 C   0  0  0  0  0  0  0  0  0  0  0  0
   20.4576   -3.6683  -16.6328 O   0  0  0  0  0  0  0  0  0  0  0  0
   23.3258   -4.6259  -14.3748 O   0  0  0  0  0  0  0  0  0  0  0  0
   20.0960   -3.0554  -14.5078 O   0  0  0  0  0  0  0  0  0  0  0  0
  2  1  1  6
  2  3  1  0
  4  2  1  0
  5  4  2  0
  6  7  1  0
  7  8  2  0
  8  9  1  0
 10 11  1  0
 10  9  2  0
 12 11  1  1
 12 13  1  0
 13  4  1  0
 14 12  1  0
 14 15  2  0
 16 10  1  0
 17 16  2  0
 17  7  1  0
 18 14  1  0
 19 18  1  0
 19 20  1  6
 20 21  1  0
 21 22  2  0
 21 25  1  0
 23 19  1  0
 24 23  2  0
 26 23  1  0
M  END
$$$$
