AYD.pdb
     RDKit          3D

 26 26  0  0  1  0  0  0  0  0999 V2000
   21.9835  -36.2548  -10.5515 C   0  0  0  0  0  0  0  0  0  0  0  0
   22.3751  -36.1829   -9.0981 C   0  0  2  0  0  0  0  0  0  0  0  0
   21.3783  -35.5767   -8.2787 N   0  0  0  0  0  0  0  0  0  0  0  0
   23.6903  -35.5662   -8.8830 C   0  0  0  0  0  0  0  0  0  0  0  0
   24.6671  -36.0803   -9.5353 O   0  0  0  0  0  0  0  0  0  0  0  0
   24.5149  -31.8603  -14.1229 O   0  0  0  0  0  0  0  0  0  0  0  0
   24.6520  -32.0118  -12.7421 C   0  0  0  0  0  0  0  0  0  0  0  0
   23.6875  -31.5797  -11.8582 C   0  0  0  0  0  0  0  0  0  0  0  0
   23.8241  -31.7298  -10.4950 C   0  0  0  0  0  0  0  0  0  0  0  0
   24.9571  -32.3327   -9.9374 C   0  0  0  0  0  0  0  0  0  0  0  0
   25.1247  -32.4694   -8.4815 C   0  0  0  0  0  0  0  0  0  0  0  0
   25.2575  -33.8416   -7.9332 C   0  0  2  0  0  0  0  0  0  0  0  0
   23.9235  -34.4690   -8.0195 N   0  0  0  0  0  0  0  0  0  0  0  0
   25.6646  -33.9368   -6.5218 C   0  0  0  0  0  0  0  0  0  0  0  0
   24.7876  -33.8746   -5.5838 O   0  0  0  0  0  0  0  0  0  0  0  0
   25.9078  -32.7568  -10.8386 C   0  0  0  0  0  0  0  0  0  0  0  0
   25.7714  -32.6068  -12.2016 C   0  0  0  0  0  0  0  0  0  0  0  0
   26.9928  -34.1050   -6.0388 N   0  0  0  0  0  0  0  0  0  0  0  0
   27.2886  -34.2655   -4.6296 C   0  0  1  0  0  0  0  0  0  0  0  0
   28.7019  -34.7759   -4.4169 C   0  0  0  0  0  0  0  0  0  0  0  0
   28.8916  -36.1714   -4.8066 C   0  0  0  0  0  0  0  0  0  0  0  0
   29.9070  -36.5573   -5.4238 O   0  0  0  0  0  0  0  0  0  0  0  0
   27.0043  -33.0866   -3.8070 C   0  0  0  0  0  0  0  0  0  0  0  0
   27.2402  -33.1157   -2.5780 O   0  0  0  0  0  0  0  0  0  0  0  0
   27.9200  -37.1003   -4.4854 O   0  0  0  0  0  0  0  0  0  0  0  0
   26.4780  -31.9074   -4.3046 O   0  0  0  0  0  0  0  0  0  0  0  0
  2  1  1  6
  2  3  1  0
  4  2  1  0
  5  4  2  0
  6  7  1  0
  7  8  2  0
  8  9  1  0
 10 11  1  0
 10  9  2  0
 12 11  1  1
 12 13  1  0
 13  4  1  0
 14 12  1  0
 14 15  2  0
 16 10  1  0
 17 16  2  0
 17  7  1  0
 18 14  1  0
 19 18  1  0
 19 20  1  6
 20 21  1  0
 21 22  2  0
 21 25  1  0
 23 19  1  0
 24 23  2  0
 26 23  1  0
M  END
$$$$
