AYD.pdb
     RDKit          3D

 26 26  0  0  1  0  0  0  0  0999 V2000
   19.1623  -12.9003  -20.9564 C   0  0  0  0  0  0  0  0  0  0  0  0
   20.0424  -13.6072  -19.9580 C   0  0  2  0  0  0  0  0  0  0  0  0
   20.0144  -15.0262  -20.0925 N   0  0  0  0  0  0  0  0  0  0  0  0
   19.7888  -13.1974  -18.5710 C   0  0  0  0  0  0  0  0  0  0  0  0
   18.5570  -13.0863  -18.2326 O   0  0  0  0  0  0  0  0  0  0  0  0
   19.4825  -18.8811  -15.0986 O   0  0  0  0  0  0  0  0  0  0  0  0
   19.9051  -17.5517  -15.1468 C   0  0  0  0  0  0  0  0  0  0  0  0
   19.1600  -16.5260  -14.6073 C   0  0  0  0  0  0  0  0  0  0  0  0
   19.5784  -15.2138  -14.6556 C   0  0  0  0  0  0  0  0  0  0  0  0
   20.7891  -14.8557  -15.2591 C   0  0  0  0  0  0  0  0  0  0  0  0
   21.2286  -13.4535  -15.3419 C   0  0  0  0  0  0  0  0  0  0  0  0
   20.4654  -12.5482  -16.2358 C   0  0  2  0  0  0  0  0  0  0  0  0
   20.8040  -12.9284  -17.6220 N   0  0  0  0  0  0  0  0  0  0  0  0
   20.7730  -11.1135  -16.1177 C   0  0  0  0  0  0  0  0  0  0  0  0
   21.7854  -10.6102  -16.7299 O   0  0  0  0  0  0  0  0  0  0  0  0
   21.5172  -15.8961  -15.7914 C   0  0  0  0  0  0  0  0  0  0  0  0
   21.0990  -17.2082  -15.7433 C   0  0  0  0  0  0  0  0  0  0  0  0
   20.0376  -10.1546  -15.3657 N   0  0  0  0  0  0  0  0  0  0  0  0
   20.3844   -8.7478  -15.3570 C   0  0  1  0  0  0  0  0  0  0  0  0
   20.5322   -8.2071  -16.7673 C   0  0  0  0  0  0  0  0  0  0  0  0
   20.7957   -6.7709  -16.8253 C   0  0  0  0  0  0  0  0  0  0  0  0
   21.7560   -6.2462  -16.2225 O   0  0  0  0  0  0  0  0  0  0  0  0
   19.5065   -7.9067  -14.5390 C   0  0  0  0  0  0  0  0  0  0  0  0
   18.4395   -8.3795  -14.0861 O   0  0  0  0  0  0  0  0  0  0  0  0
   19.9594   -5.9604  -17.5695 O   0  0  0  0  0  0  0  0  0  0  0  0
   19.7788   -6.5878  -14.2208 O   0  0  0  0  0  0  0  0  0  0  0  0
  2  1  1  6
  2  3  1  0
  4  2  1  0
  5  4  2  0
  6  7  1  0
  7  8  2  0
  8  9  1  0
 10 11  1  0
 10  9  2  0
 12 11  1  1
 12 13  1  0
 13  4  1  0
 14 12  1  0
 14 15  2  0
 16 10  1  0
 17 16  2  0
 17  7  1  0
 18 14  1  0
 19 18  1  0
 19 20  1  6
 20 21  1  0
 21 22  2  0
 21 25  1  0
 23 19  1  0
 24 23  2  0
 26 23  1  0
M  END
$$$$
