TLY.pdb
     RDKit          3D

 28 28  0  0  1  0  0  0  0  0999 V2000
    8.1812  -20.4512   20.3199 C   0  0  0  0  0  0  0  0  0  0  0  0
    8.5872  -19.1557   20.9378 C   0  0  1  0  0  0  0  0  0  0  0  0
    9.3683  -19.3335   22.0849 O   0  0  0  0  0  0  0  0  0  0  0  0
    9.3255  -18.2274   20.0157 C   0  0  2  0  0  0  0  0  0  0  0  0
   10.4102  -18.8914   19.3482 N   0  0  0  0  0  0  0  0  0  0  0  0
    9.7376  -16.9663   20.6618 C   0  0  0  0  0  0  0  0  0  0  0  0
   10.9387  -16.6817   20.9063 O   0  0  0  0  0  0  0  0  0  0  0  0
    6.5478  -12.5067   19.8496 C   0  0  0  0  0  0  0  0  0  0  0  0
    7.7153  -13.3805   20.1314 C   0  0  1  0  0  0  0  0  0  0  0  0
    8.9688  -12.6390   19.6722 C   0  0  0  0  0  0  0  0  0  0  0  0
    7.9309  -13.8160   21.5168 C   0  0  0  0  0  0  0  0  0  0  0  0
    9.0118  -14.8207   21.7579 C   0  0  2  0  0  0  0  0  0  0  0  0
    8.7575  -16.0363   21.0236 N   0  0  0  0  0  0  0  0  0  0  0  0
    9.2710  -15.0441   23.1965 C   0  0  0  0  0  0  0  0  0  0  0  0
    9.4917  -14.0484   23.9238 O   0  0  0  0  0  0  0  0  0  0  0  0
    6.6826  -11.0004   26.9864 O   0  0  0  0  0  0  0  0  0  0  0  0
    7.0643  -12.3142   26.7623 C   0  0  0  0  0  0  0  0  0  0  0  0
    8.2394  -12.8331   27.2594 C   0  0  0  0  0  0  0  0  0  0  0  0
    8.5588  -14.1417   27.0014 C   0  0  0  0  0  0  0  0  0  0  0  0
    7.7467  -14.9947   26.2498 C   0  0  0  0  0  0  0  0  0  0  0  0
    8.1397  -16.4005   25.9925 C   0  0  0  0  0  0  0  0  0  0  0  0
    9.4558  -16.5005   25.2618 C   0  0  2  0  0  0  0  0  0  0  0  0
    9.2907  -16.3134   23.8329 N   0  0  0  0  0  0  0  0  0  0  0  0
   10.1864  -17.7570   25.4866 C   0  0  0  0  0  0  0  0  0  0  0  0
   10.4231  -18.1185   26.6627 O   0  0  0  0  0  0  0  0  0  0  0  0
    6.5818  -14.4459   25.7684 C   0  0  0  0  0  0  0  0  0  0  0  0
    6.2399  -13.1338   26.0149 C   0  0  0  0  0  0  0  0  0  0  0  0
   10.6393  -18.5856   24.4716 O   0  0  0  0  0  0  0  0  0  0  0  0
  2  1  1  6
  2  3  1  0
  2  4  1  0
  4  5  1  1
  6  4  1  0
  6  7  2  0
  9  8  1  1
  9 11  1  0
  9 10  1  0
 12 11  1  1
 12 13  1  0
 13  6  1  0
 14 12  1  0
 15 14  2  0
 16 17  1  0
 17 27  2  0
 17 18  1  0
 18 19  2  0
 19 20  1  0
 20 21  1  0
 22 21  1  1
 22 23  1  0
 22 24  1  0
 23 14  1  0
 24 28  1  0
 25 24  2  0
 26 20  2  0
 27 26  1  0
M  END
$$$$
