TLY.pdb
     RDKit          3D

 28 28  0  0  1  0  0  0  0  0999 V2000
    8.7536  -19.6808   22.5466 C   0  0  0  0  0  0  0  0  0  0  0  0
    9.6833  -19.8175   21.3882 C   0  0  1  0  0  0  0  0  0  0  0  0
    9.5464  -21.0481   20.7368 O   0  0  0  0  0  0  0  0  0  0  0  0
    9.5600  -18.7325   20.3563 C   0  0  2  0  0  0  0  0  0  0  0  0
   10.2245  -19.0838   19.1322 N   0  0  0  0  0  0  0  0  0  0  0  0
    9.9512  -17.4009   20.8576 C   0  0  0  0  0  0  0  0  0  0  0  0
   11.1501  -17.0510   21.0113 O   0  0  0  0  0  0  0  0  0  0  0  0
    6.4860  -13.1484   19.8845 C   0  0  0  0  0  0  0  0  0  0  0  0
    7.6853  -13.9851   20.1440 C   0  0  1  0  0  0  0  0  0  0  0  0
    8.8789  -13.2993   19.4830 C   0  0  0  0  0  0  0  0  0  0  0  0
    8.0416  -14.2633   21.5408 C   0  0  0  0  0  0  0  0  0  0  0  0
    9.1924  -15.1872   21.7825 C   0  0  2  0  0  0  0  0  0  0  0  0
    8.9527  -16.4761   21.1802 N   0  0  0  0  0  0  0  0  0  0  0  0
    9.5703  -15.2646   23.2100 C   0  0  0  0  0  0  0  0  0  0  0  0
    9.9616  -14.2201   23.7802 O   0  0  0  0  0  0  0  0  0  0  0  0
    6.7386  -10.7044   26.8366 O   0  0  0  0  0  0  0  0  0  0  0  0
    6.9515  -12.0416   26.5389 C   0  0  0  0  0  0  0  0  0  0  0  0
    5.9326  -12.8759   26.1350 C   0  0  0  0  0  0  0  0  0  0  0  0
    6.2102  -14.1895   25.8554 C   0  0  0  0  0  0  0  0  0  0  0  0
    7.4898  -14.7410   25.9584 C   0  0  0  0  0  0  0  0  0  0  0  0
    7.7377  -16.1698   25.6517 C   0  0  0  0  0  0  0  0  0  0  0  0
    9.1996  -16.4573   25.4147 C   0  0  2  0  0  0  0  0  0  0  0  0
    9.5260  -16.4428   24.0015 N   0  0  0  0  0  0  0  0  0  0  0  0
    9.6751  -17.7244   25.9905 C   0  0  0  0  0  0  0  0  0  0  0  0
   10.0442  -18.6400   25.2191 O   0  0  0  0  0  0  0  0  0  0  0  0
    8.4835  -13.8820   26.3641 C   0  0  0  0  0  0  0  0  0  0  0  0
    8.2285  -12.5582   26.6503 C   0  0  0  0  0  0  0  0  0  0  0  0
    9.7461  -17.9822   27.3509 O   0  0  0  0  0  0  0  0  0  0  0  0
  2  1  1  1
  2  3  1  0
  2  4  1  0
  4  5  1  6
  6  4  1  0
  6  7  2  0
  9  8  1  1
  9 11  1  0
  9 10  1  0
 12 11  1  1
 12 13  1  0
 13  6  1  0
 14 12  1  0
 15 14  2  0
 16 17  1  0
 17 27  2  0
 17 18  1  0
 18 19  2  0
 19 20  1  0
 20 21  1  0
 22 21  1  6
 22 23  1  0
 22 24  1  0
 23 14  1  0
 24 28  1  0
 25 24  2  0
 26 20  2  0
 27 26  1  0
M  END
$$$$
