TLY.pdb
     RDKit          3D

 28 28  0  0  1  0  0  0  0  0999 V2000
    7.0670  -17.7831   19.3786 C   0  0  0  0  0  0  0  0  0  0  0  0
    7.6001  -17.1587   20.6240 C   0  0  1  0  0  0  0  0  0  0  0  0
    8.5836  -17.9439   21.2354 O   0  0  0  0  0  0  0  0  0  0  0  0
    8.1607  -15.7770   20.4401 C   0  0  2  0  0  0  0  0  0  0  0  0
    9.1635  -15.7415   19.4125 N   0  0  0  0  0  0  0  0  0  0  0  0
    8.6111  -15.1558   21.7006 C   0  0  0  0  0  0  0  0  0  0  0  0
    9.8239  -15.0561   22.0209 O   0  0  0  0  0  0  0  0  0  0  0  0
    7.8244  -11.6516   25.9887 C   0  0  0  0  0  0  0  0  0  0  0  0
    6.8985  -12.7944   25.7829 C   0  0  1  0  0  0  0  0  0  0  0  0
    5.5091  -12.3507   26.2352 C   0  0  0  0  0  0  0  0  0  0  0  0
    6.7767  -13.3466   24.4279 C   0  0  0  0  0  0  0  0  0  0  0  0
    7.9554  -14.0879   23.8827 C   0  0  2  0  0  0  0  0  0  0  0  0
    7.6556  -14.6504   22.5884 N   0  0  0  0  0  0  0  0  0  0  0  0
    8.5018  -15.0725   24.8412 C   0  0  0  0  0  0  0  0  0  0  0  0
    7.8592  -16.1290   25.0416 O   0  0  0  0  0  0  0  0  0  0  0  0
   13.4502  -18.8532   31.1909 O   0  0  0  0  0  0  0  0  0  0  0  0
   13.0246  -18.0791   30.1225 C   0  0  0  0  0  0  0  0  0  0  0  0
   13.3246  -18.3998   28.8170 C   0  0  0  0  0  0  0  0  0  0  0  0
   12.8728  -17.5916   27.8052 C   0  0  0  0  0  0  0  0  0  0  0  0
   12.1120  -16.4408   28.0257 C   0  0  0  0  0  0  0  0  0  0  0  0
   11.6530  -15.5954   26.8981 C   0  0  0  0  0  0  0  0  0  0  0  0
   10.2315  -15.9023   26.4965 C   0  0  2  0  0  0  0  0  0  0  0  0
    9.7138  -14.9183   25.5650 N   0  0  0  0  0  0  0  0  0  0  0  0
    9.2905  -16.0213   27.6206 C   0  0  0  0  0  0  0  0  0  0  0  0
    8.7597  -14.9832   28.0793 O   0  0  0  0  0  0  0  0  0  0  0  0
   11.8304  -16.1490   29.3393 C   0  0  0  0  0  0  0  0  0  0  0  0
   12.2734  -16.9463   30.3724 C   0  0  0  0  0  0  0  0  0  0  0  0
    8.9417  -17.2222   28.2191 O   0  0  0  0  0  0  0  0  0  0  0  0
  2  1  1  6
  2  3  1  0
  2  4  1  0
  4  5  1  6
  6  4  1  0
  6  7  2  0
  9  8  1  6
  9 11  1  0
  9 10  1  0
 12 11  1  1
 12 13  1  0
 13  6  1  0
 14 12  1  0
 15 14  2  0
 16 17  1  0
 17 27  2  0
 17 18  1  0
 18 19  2  0
 19 20  1  0
 20 21  1  0
 22 21  1  1
 22 23  1  0
 22 24  1  0
 23 14  1  0
 24 28  1  0
 25 24  2  0
 26 20  2  0
 27 26  1  0
M  END
$$$$
