TLY.pdb
     RDKit          3D

 28 28  0  0  1  0  0  0  0  0999 V2000
    6.7480  -18.4542   19.9588 C   0  0  0  0  0  0  0  0  0  0  0  0
    7.3284  -17.5942   21.0306 C   0  0  1  0  0  0  0  0  0  0  0  0
    8.4113  -18.2026   21.6746 O   0  0  0  0  0  0  0  0  0  0  0  0
    7.7698  -16.2339   20.5702 C   0  0  2  0  0  0  0  0  0  0  0  0
    8.6150  -16.3121   19.4115 N   0  0  0  0  0  0  0  0  0  0  0  0
    8.3519  -15.4116   21.6484 C   0  0  0  0  0  0  0  0  0  0  0  0
    9.5900  -15.2292   21.7793 O   0  0  0  0  0  0  0  0  0  0  0  0
    7.4897  -11.3878   25.4237 C   0  0  0  0  0  0  0  0  0  0  0  0
    7.0890  -12.7838   25.7342 C   0  0  1  0  0  0  0  0  0  0  0  0
    5.8352  -12.7220   26.6037 C   0  0  0  0  0  0  0  0  0  0  0  0
    6.8142  -13.6874   24.6101 C   0  0  0  0  0  0  0  0  0  0  0  0
    7.9349  -13.9536   23.6565 C   0  0  2  0  0  0  0  0  0  0  0  0
    7.4986  -14.8014   22.5736 N   0  0  0  0  0  0  0  0  0  0  0  0
    9.1548  -14.4431   24.3338 C   0  0  0  0  0  0  0  0  0  0  0  0
   10.0906  -13.6346   24.5335 O   0  0  0  0  0  0  0  0  0  0  0  0
   12.0688  -17.0076   32.0114 O   0  0  0  0  0  0  0  0  0  0  0  0
   11.4150  -16.6730   30.8356 C   0  0  0  0  0  0  0  0  0  0  0  0
   10.9132  -17.6259   29.9769 C   0  0  0  0  0  0  0  0  0  0  0  0
   10.2763  -17.2281   28.8292 C   0  0  0  0  0  0  0  0  0  0  0  0
   10.1038  -15.8879   28.4739 C   0  0  0  0  0  0  0  0  0  0  0  0
    9.4141  -15.5088   27.2179 C   0  0  0  0  0  0  0  0  0  0  0  0
   10.0669  -16.1181   26.0020 C   0  0  2  0  0  0  0  0  0  0  0  0
    9.3576  -15.7744   24.7843 N   0  0  0  0  0  0  0  0  0  0  0  0
   10.2184  -17.5801   26.0570 C   0  0  0  0  0  0  0  0  0  0  0  0
   11.1779  -18.0663   26.6994 O   0  0  0  0  0  0  0  0  0  0  0  0
   10.6162  -14.9626   29.3520 C   0  0  0  0  0  0  0  0  0  0  0  0
   11.2597  -15.3385   30.5112 C   0  0  0  0  0  0  0  0  0  0  0  0
    9.3591  -18.4748   25.4381 O   0  0  0  0  0  0  0  0  0  0  0  0
  2  1  1  6
  2  3  1  0
  2  4  1  0
  4  5  1  6
  6  4  1  0
  6  7  2  0
  9  8  1  6
  9 11  1  0
  9 10  1  0
 12 11  1  1
 12 13  1  0
 13  6  1  0
 14 12  1  0
 15 14  2  0
 16 17  1  0
 17 27  2  0
 17 18  1  0
 18 19  2  0
 19 20  1  0
 20 21  1  0
 22 21  1  1
 22 23  1  0
 22 24  1  0
 23 14  1  0
 24 28  1  0
 25 24  2  0
 26 20  2  0
 27 26  1  0
M  END
$$$$
