TLY.pdb
     RDKit          3D

 28 28  0  0  1  0  0  0  0  0999 V2000
    5.6973  -17.4651   19.1586 C   0  0  0  0  0  0  0  0  0  0  0  0
    6.4848  -16.8565   20.2697 C   0  0  1  0  0  0  0  0  0  0  0  0
    7.4622  -17.7246   20.7684 O   0  0  0  0  0  0  0  0  0  0  0  0
    7.1548  -15.5574   19.9225 C   0  0  2  0  0  0  0  0  0  0  0  0
    7.9283  -15.6626   18.7168 N   0  0  0  0  0  0  0  0  0  0  0  0
    7.9184  -14.9750   21.0430 C   0  0  0  0  0  0  0  0  0  0  0  0
    9.1721  -15.0421   21.1266 O   0  0  0  0  0  0  0  0  0  0  0  0
    6.7535  -11.2007   25.8647 C   0  0  0  0  0  0  0  0  0  0  0  0
    7.2703  -12.4992   25.3619 C   0  0  1  0  0  0  0  0  0  0  0  0
    6.8238  -13.5839   26.3396 C   0  0  0  0  0  0  0  0  0  0  0  0
    6.8777  -12.9200   24.0112 C   0  0  0  0  0  0  0  0  0  0  0  0
    7.8431  -13.7737   23.2528 C   0  0  2  0  0  0  0  0  0  0  0  0
    7.2283  -14.3153   22.0652 N   0  0  0  0  0  0  0  0  0  0  0  0
    8.4870  -14.7981   24.1028 C   0  0  0  0  0  0  0  0  0  0  0  0
    7.7938  -15.7617   24.5031 O   0  0  0  0  0  0  0  0  0  0  0  0
   11.4546  -15.1021   31.7442 O   0  0  0  0  0  0  0  0  0  0  0  0
   10.9640  -15.3781   30.4773 C   0  0  0  0  0  0  0  0  0  0  0  0
   10.8379  -16.6648   30.0022 C   0  0  0  0  0  0  0  0  0  0  0  0
   10.3451  -16.8698   28.7389 C   0  0  0  0  0  0  0  0  0  0  0  0
    9.9564  -15.8303   27.8901 C   0  0  0  0  0  0  0  0  0  0  0  0
    9.4360  -16.1033   26.5293 C   0  0  0  0  0  0  0  0  0  0  0  0
   10.4222  -15.7204   25.4538 C   0  0  2  0  0  0  0  0  0  0  0  0
    9.8473  -14.7810   24.5099 N   0  0  0  0  0  0  0  0  0  0  0  0
   10.9790  -16.8555   24.7021 C   0  0  0  0  0  0  0  0  0  0  0  0
   11.5301  -17.7878   25.3321 O   0  0  0  0  0  0  0  0  0  0  0  0
   10.0951  -14.5590   28.3943 C   0  0  0  0  0  0  0  0  0  0  0  0
   10.5876  -14.3286   29.6606 C   0  0  0  0  0  0  0  0  0  0  0  0
   10.9359  -16.9699   23.3212 O   0  0  0  0  0  0  0  0  0  0  0  0
  2  1  1  6
  2  3  1  0
  2  4  1  0
  4  5  1  6
  6  4  1  0
  6  7  2  0
  9  8  1  1
  9 11  1  0
  9 10  1  0
 12 11  1  1
 12 13  1  0
 13  6  1  0
 14 12  1  0
 15 14  2  0
 16 17  1  0
 17 27  2  0
 17 18  1  0
 18 19  2  0
 19 20  1  0
 20 21  1  0
 22 21  1  1
 22 23  1  0
 22 24  1  0
 23 14  1  0
 24 28  1  0
 25 24  2  0
 26 20  2  0
 27 26  1  0
M  END
$$$$
