TLY.pdb
     RDKit          3D

 28 28  0  0  1  0  0  0  0  0999 V2000
    8.4868  -20.2071   17.3188 C   0  0  0  0  0  0  0  0  0  0  0  0
    9.0856  -19.2805   18.3228 C   0  0  1  0  0  0  0  0  0  0  0  0
   10.1777  -19.8484   18.9877 O   0  0  0  0  0  0  0  0  0  0  0  0
    9.5215  -17.9543   17.7676 C   0  0  2  0  0  0  0  0  0  0  0  0
   10.4109  -18.1109   16.6507 N   0  0  0  0  0  0  0  0  0  0  0  0
   10.0492  -17.0351   18.7944 C   0  0  0  0  0  0  0  0  0  0  0  0
   11.2797  -16.8623   18.9928 O   0  0  0  0  0  0  0  0  0  0  0  0
    6.5291  -13.1221   20.7131 C   0  0  0  0  0  0  0  0  0  0  0  0
    7.7817  -13.8182   20.3228 C   0  0  1  0  0  0  0  0  0  0  0  0
    8.8298  -12.7492   20.0219 C   0  0  0  0  0  0  0  0  0  0  0  0
    8.3673  -14.7683   21.2767 C   0  0  0  0  0  0  0  0  0  0  0  0
    9.5074  -15.6073   20.7943 C   0  0  2  0  0  0  0  0  0  0  0  0
    9.1504  -16.3170   19.5899 N   0  0  0  0  0  0  0  0  0  0  0  0
   10.0588  -16.4811   21.8521 C   0  0  0  0  0  0  0  0  0  0  0  0
    9.4849  -17.5701   22.0845 O   0  0  0  0  0  0  0  0  0  0  0  0
    9.6234  -14.7852   30.1671 O   0  0  0  0  0  0  0  0  0  0  0  0
    9.7799  -14.7973   28.7897 C   0  0  0  0  0  0  0  0  0  0  0  0
    8.7328  -14.5537   27.9288 C   0  0  0  0  0  0  0  0  0  0  0  0
    8.9546  -14.5805   26.5757 C   0  0  0  0  0  0  0  0  0  0  0  0
   10.2040  -14.8455   26.0092 C   0  0  0  0  0  0  0  0  0  0  0  0
   10.3914  -14.8702   24.5391 C   0  0  0  0  0  0  0  0  0  0  0  0
   11.1841  -16.0709   24.0850 C   0  0  2  0  0  0  0  0  0  0  0  0
   11.2030  -16.1846   22.6391 N   0  0  0  0  0  0  0  0  0  0  0  0
   10.7307  -17.3518   24.6480 C   0  0  0  0  0  0  0  0  0  0  0  0
   11.4633  -17.9440   25.4741 O   0  0  0  0  0  0  0  0  0  0  0  0
   11.2272  -15.0845   26.8956 C   0  0  0  0  0  0  0  0  0  0  0  0
   11.0282  -15.0627   28.2591 C   0  0  0  0  0  0  0  0  0  0  0  0
    9.5282  -17.9613   24.3247 O   0  0  0  0  0  0  0  0  0  0  0  0
  2  1  1  6
  2  3  1  0
  2  4  1  0
  4  5  1  6
  6  4  1  0
  6  7  2  0
  9  8  1  1
  9 11  1  0
  9 10  1  0
 12 11  1  1
 12 13  1  0
 13  6  1  0
 14 12  1  0
 15 14  2  0
 16 17  1  0
 17 27  2  0
 17 18  1  0
 18 19  2  0
 19 20  1  0
 20 21  1  0
 22 21  1  6
 22 23  1  0
 22 24  1  0
 23 14  1  0
 24 28  1  0
 25 24  2  0
 26 20  2  0
 27 26  1  0
M  END
$$$$
