TLY.pdb
     RDKit          3D

 28 28  0  0  1  0  0  0  0  0999 V2000
    7.0109  -18.5651   19.1580 C   0  0  0  0  0  0  0  0  0  0  0  0
    7.5870  -17.7474   20.2646 C   0  0  1  0  0  0  0  0  0  0  0  0
    8.6845  -18.3683   20.8708 O   0  0  0  0  0  0  0  0  0  0  0  0
    8.0037  -16.3603   19.8654 C   0  0  2  0  0  0  0  0  0  0  0  0
    8.8334  -16.3701   18.6929 N   0  0  0  0  0  0  0  0  0  0  0  0
    8.5901  -15.5834   20.9745 C   0  0  0  0  0  0  0  0  0  0  0  0
    9.8296  -15.4214   21.1181 O   0  0  0  0  0  0  0  0  0  0  0  0
    7.7508  -11.9157   25.1447 C   0  0  0  0  0  0  0  0  0  0  0  0
    7.3281  -13.3333   25.2772 C   0  0  1  0  0  0  0  0  0  0  0  0
    6.0716  -13.3616   26.1445 C   0  0  0  0  0  0  0  0  0  0  0  0
    7.0449  -14.0851   24.0483 C   0  0  0  0  0  0  0  0  0  0  0  0
    8.1823  -14.3035   23.1023 C   0  0  2  0  0  0  0  0  0  0  0  0
    7.7393  -14.9949   21.9160 N   0  0  0  0  0  0  0  0  0  0  0  0
    9.3500  -14.9364   23.7523 C   0  0  0  0  0  0  0  0  0  0  0  0
   10.4790  -14.4215   23.5807 O   0  0  0  0  0  0  0  0  0  0  0  0
   11.7844  -16.2855   31.9626 O   0  0  0  0  0  0  0  0  0  0  0  0
   11.3113  -15.9728   30.6975 C   0  0  0  0  0  0  0  0  0  0  0  0
   10.6639  -14.7876   30.4272 C   0  0  0  0  0  0  0  0  0  0  0  0
   10.2201  -14.5392   29.1534 C   0  0  0  0  0  0  0  0  0  0  0  0
   10.3896  -15.4350   28.0947 C   0  0  0  0  0  0  0  0  0  0  0  0
    9.8851  -15.1233   26.7363 C   0  0  0  0  0  0  0  0  0  0  0  0
   10.0777  -16.2727   25.7784 C   0  0  2  0  0  0  0  0  0  0  0  0
    9.2979  -16.0976   24.5679 N   0  0  0  0  0  0  0  0  0  0  0  0
    9.7732  -17.5966   26.3423 C   0  0  0  0  0  0  0  0  0  0  0  0
    8.5944  -18.0187   26.2956 O   0  0  0  0  0  0  0  0  0  0  0  0
   11.0392  -16.6079   28.3981 C   0  0  0  0  0  0  0  0  0  0  0  0
   11.4940  -16.8793   29.6704 C   0  0  0  0  0  0  0  0  0  0  0  0
   10.7147  -18.4261   26.9317 O   0  0  0  0  0  0  0  0  0  0  0  0
  2  1  1  6
  2  3  1  0
  2  4  1  0
  4  5  1  6
  6  4  1  0
  6  7  2  0
  9  8  1  6
  9 11  1  0
  9 10  1  0
 12 11  1  1
 12 13  1  0
 13  6  1  0
 14 12  1  0
 15 14  2  0
 16 17  1  0
 17 27  2  0
 17 18  1  0
 18 19  2  0
 19 20  1  0
 20 21  1  0
 22 21  1  1
 22 23  1  0
 22 24  1  0
 23 14  1  0
 24 28  1  0
 25 24  2  0
 26 20  2  0
 27 26  1  0
M  END
$$$$
