TLY.pdb
     RDKit          3D

 28 28  0  0  1  0  0  0  0  0999 V2000
    8.0177  -17.9880   22.1869 C   0  0  0  0  0  0  0  0  0  0  0  0
    8.8805  -17.3512   21.1500 C   0  0  1  0  0  0  0  0  0  0  0  0
    8.5414  -17.7537   19.8536 O   0  0  0  0  0  0  0  0  0  0  0  0
    8.8887  -15.8491   21.1799 C   0  0  2  0  0  0  0  0  0  0  0  0
    9.6592  -15.2991   20.0997 N   0  0  0  0  0  0  0  0  0  0  0  0
    9.2661  -15.2921   22.4932 C   0  0  0  0  0  0  0  0  0  0  0  0
   10.4611  -15.1614   22.8649 O   0  0  0  0  0  0  0  0  0  0  0  0
    8.2437  -11.8958   26.7856 C   0  0  0  0  0  0  0  0  0  0  0  0
    7.3687  -13.0748   26.5613 C   0  0  1  0  0  0  0  0  0  0  0  0
    5.9543  -12.6882   26.9878 C   0  0  0  0  0  0  0  0  0  0  0  0
    7.2949  -13.6291   25.2038 C   0  0  0  0  0  0  0  0  0  0  0  0
    8.4877  -14.3812   24.7060 C   0  0  2  0  0  0  0  0  0  0  0  0
    8.2582  -14.8868   23.3743 N   0  0  0  0  0  0  0  0  0  0  0  0
    8.9470  -15.4152   25.6582 C   0  0  0  0  0  0  0  0  0  0  0  0
    8.1514  -16.3299   25.9739 O   0  0  0  0  0  0  0  0  0  0  0  0
   11.4422  -19.6518   21.6946 O   0  0  0  0  0  0  0  0  0  0  0  0
   11.5754  -19.0163   22.9195 C   0  0  0  0  0  0  0  0  0  0  0  0
   12.2256  -17.8096   23.0545 C   0  0  0  0  0  0  0  0  0  0  0  0
   12.3227  -17.2333   24.2953 C   0  0  0  0  0  0  0  0  0  0  0  0
   11.7907  -17.8097   25.4515 C   0  0  0  0  0  0  0  0  0  0  0  0
   11.9283  -17.1504   26.7719 C   0  0  0  0  0  0  0  0  0  0  0  0
   10.6534  -16.4705   27.2058 C   0  0  2  0  0  0  0  0  0  0  0  0
   10.2352  -15.4589   26.2541 N   0  0  0  0  0  0  0  0  0  0  0  0
   10.7105  -15.8588   28.5421 C   0  0  0  0  0  0  0  0  0  0  0  0
   10.9766  -16.5830   29.5293 O   0  0  0  0  0  0  0  0  0  0  0  0
   11.1487  -19.0134   25.2822 C   0  0  0  0  0  0  0  0  0  0  0  0
   11.0385  -19.6113   24.0454 C   0  0  0  0  0  0  0  0  0  0  0  0
   10.4878  -14.5134   28.7918 O   0  0  0  0  0  0  0  0  0  0  0  0
  2  1  1  1
  2  3  1  0
  2  4  1  0
  4  5  1  6
  6  4  1  0
  6  7  2  0
  9  8  1  6
  9 11  1  0
  9 10  1  0
 12 11  1  1
 12 13  1  0
 13  6  1  0
 14 12  1  0
 15 14  2  0
 16 17  1  0
 17 27  2  0
 17 18  1  0
 18 19  2  0
 19 20  1  0
 20 21  1  0
 22 21  1  6
 22 23  1  0
 22 24  1  0
 23 14  1  0
 24 28  1  0
 25 24  2  0
 26 20  2  0
 27 26  1  0
M  END
$$$$
