TLY.pdb
     RDKit          3D

 28 28  0  0  1  0  0  0  0  0999 V2000
    6.8073  -17.8588   22.7044 C   0  0  0  0  0  0  0  0  0  0  0  0
    7.0014  -17.2249   21.3681 C   0  0  1  0  0  0  0  0  0  0  0  0
    6.1843  -17.7929   20.3847 O   0  0  0  0  0  0  0  0  0  0  0  0
    6.7870  -15.7381   21.3445 C   0  0  2  0  0  0  0  0  0  0  0  0
    6.6803  -15.2367   20.0027 N   0  0  0  0  0  0  0  0  0  0  0  0
    7.7673  -14.9926   22.1574 C   0  0  0  0  0  0  0  0  0  0  0  0
    8.8638  -14.5782   21.6999 O   0  0  0  0  0  0  0  0  0  0  0  0
    5.6476  -12.0682   26.3522 C   0  0  0  0  0  0  0  0  0  0  0  0
    6.5013  -12.5511   25.2369 C   0  0  1  0  0  0  0  0  0  0  0  0
    7.0947  -11.3258   24.5454 C   0  0  0  0  0  0  0  0  0  0  0  0
    7.6041  -13.4649   25.5600 C   0  0  0  0  0  0  0  0  0  0  0  0
    8.3641  -14.0522   24.4138 C   0  0  2  0  0  0  0  0  0  0  0  0
    7.4757  -14.7278   23.4995 N   0  0  0  0  0  0  0  0  0  0  0  0
    9.5032  -14.8863   24.8536 C   0  0  0  0  0  0  0  0  0  0  0  0
   10.4453  -14.3329   25.4664 O   0  0  0  0  0  0  0  0  0  0  0  0
   10.7589  -14.4924   30.9545 O   0  0  0  0  0  0  0  0  0  0  0  0
   10.6979  -15.3231   29.8463 C   0  0  0  0  0  0  0  0  0  0  0  0
   11.6121  -16.3307   29.6319 C   0  0  0  0  0  0  0  0  0  0  0  0
   11.4956  -17.1178   28.5148 C   0  0  0  0  0  0  0  0  0  0  0  0
   10.4849  -16.9541   27.5642 C   0  0  0  0  0  0  0  0  0  0  0  0
   10.4058  -17.8267   26.3687 C   0  0  0  0  0  0  0  0  0  0  0  0
   10.7386  -17.0851   25.0978 C   0  0  2  0  0  0  0  0  0  0  0  0
    9.6204  -16.2847   24.6363 N   0  0  0  0  0  0  0  0  0  0  0  0
   11.1884  -17.9414   23.9898 C   0  0  0  0  0  0  0  0  0  0  0  0
   12.2019  -18.6599   24.1519 O   0  0  0  0  0  0  0  0  0  0  0  0
    9.5893  -15.9399   27.8078 C   0  0  0  0  0  0  0  0  0  0  0  0
    9.6862  -15.1365   28.9233 C   0  0  0  0  0  0  0  0  0  0  0  0
   10.5589  -18.0121   22.7566 O   0  0  0  0  0  0  0  0  0  0  0  0
  2  1  1  1
  2  3  1  0
  2  4  1  0
  4  5  1  6
  6  4  1  0
  6  7  2  0
  9  8  1  1
  9 11  1  0
  9 10  1  0
 12 11  1  1
 12 13  1  0
 13  6  1  0
 14 12  1  0
 15 14  2  0
 16 17  1  0
 17 27  2  0
 17 18  1  0
 18 19  2  0
 19 20  1  0
 20 21  1  0
 22 21  1  1
 22 23  1  0
 22 24  1  0
 23 14  1  0
 24 28  1  0
 25 24  2  0
 26 20  2  0
 27 26  1  0
M  END
$$$$
