TLY.pdb
     RDKit          3D

 28 28  0  0  1  0  0  0  0  0999 V2000
   11.2248  -18.5277   18.2034 C   0  0  0  0  0  0  0  0  0  0  0  0
    9.7493  -18.4109   18.3888 C   0  0  1  0  0  0  0  0  0  0  0  0
    9.0470  -19.4245   17.7279 O   0  0  0  0  0  0  0  0  0  0  0  0
    9.2986  -18.3956   19.8219 C   0  0  2  0  0  0  0  0  0  0  0  0
    7.8925  -18.6634   19.9409 N   0  0  0  0  0  0  0  0  0  0  0  0
    9.7137  -17.1828   20.5529 C   0  0  0  0  0  0  0  0  0  0  0  0
   10.9190  -16.8670   20.7290 O   0  0  0  0  0  0  0  0  0  0  0  0
    6.2750  -13.0493   19.8653 C   0  0  0  0  0  0  0  0  0  0  0  0
    7.5134  -13.8308   20.1136 C   0  0  1  0  0  0  0  0  0  0  0  0
    8.6724  -13.0786   19.4634 C   0  0  0  0  0  0  0  0  0  0  0  0
    7.8827  -14.1115   21.5065 C   0  0  0  0  0  0  0  0  0  0  0  0
    8.9978  -15.0808   21.7367 C   0  0  2  0  0  0  0  0  0  0  0  0
    8.7316  -16.3370   21.0789 N   0  0  0  0  0  0  0  0  0  0  0  0
    9.3400  -15.2257   23.1680 C   0  0  0  0  0  0  0  0  0  0  0  0
    9.8130  -14.2347   23.7708 O   0  0  0  0  0  0  0  0  0  0  0  0
    6.5859  -11.0522   27.1341 O   0  0  0  0  0  0  0  0  0  0  0  0
    6.9456  -12.3692   26.8930 C   0  0  0  0  0  0  0  0  0  0  0  0
    6.0143  -13.3484   26.6265 C   0  0  0  0  0  0  0  0  0  0  0  0
    6.4364  -14.6329   26.3965 C   0  0  0  0  0  0  0  0  0  0  0  0
    7.7807  -15.0130   26.4171 C   0  0  0  0  0  0  0  0  0  0  0  0
    8.1862  -16.4169   26.1690 C   0  0  0  0  0  0  0  0  0  0  0  0
    9.4495  -16.5097   25.3497 C   0  0  2  0  0  0  0  0  0  0  0  0
    9.1746  -16.4133   23.9287 N   0  0  0  0  0  0  0  0  0  0  0  0
   10.2465  -17.7224   25.5896 C   0  0  0  0  0  0  0  0  0  0  0  0
   10.4621  -18.5048   24.6350 O   0  0  0  0  0  0  0  0  0  0  0  0
    8.6841  -14.0122   26.6861 C   0  0  0  0  0  0  0  0  0  0  0  0
    8.2836  -12.7145   26.9202 C   0  0  0  0  0  0  0  0  0  0  0  0
   10.7868  -18.0673   26.8188 O   0  0  0  0  0  0  0  0  0  0  0  0
  2  1  1  1
  2  3  1  0
  2  4  1  0
  4  5  1  6
  6  4  1  0
  6  7  2  0
  9  8  1  1
  9 11  1  0
  9 10  1  0
 12 11  1  1
 12 13  1  0
 13  6  1  0
 14 12  1  0
 15 14  2  0
 16 17  1  0
 17 27  2  0
 17 18  1  0
 18 19  2  0
 19 20  1  0
 20 21  1  0
 22 21  1  1
 22 23  1  0
 22 24  1  0
 23 14  1  0
 24 28  1  0
 25 24  2  0
 26 20  2  0
 27 26  1  0
M  END
$$$$
