TLY.pdb
     RDKit          3D

 28 28  0  0  1  0  0  0  0  0999 V2000
    9.1625  -18.3443   13.5452 C   0  0  0  0  0  0  0  0  0  0  0  0
    9.6020  -17.8082   14.8660 C   0  0  1  0  0  0  0  0  0  0  0  0
   10.7332  -18.4674   15.3593 O   0  0  0  0  0  0  0  0  0  0  0  0
    9.8849  -16.3328   14.8791 C   0  0  2  0  0  0  0  0  0  0  0  0
   10.8061  -15.9579   13.8427 N   0  0  0  0  0  0  0  0  0  0  0  0
   10.2800  -15.8245   16.2069 C   0  0  0  0  0  0  0  0  0  0  0  0
   11.4758  -15.5972   16.5262 O   0  0  0  0  0  0  0  0  0  0  0  0
    6.3594  -13.0981   19.2527 C   0  0  0  0  0  0  0  0  0  0  0  0
    7.6589  -13.5179   18.6690 C   0  0  1  0  0  0  0  0  0  0  0  0
    8.6405  -12.3619   18.8475 C   0  0  0  0  0  0  0  0  0  0  0  0
    8.2913  -14.7325   19.1986 C   0  0  0  0  0  0  0  0  0  0  0  0
    9.5456  -15.1978   18.5307 C   0  0  2  0  0  0  0  0  0  0  0  0
    9.2891  -15.5800   17.1633 N   0  0  0  0  0  0  0  0  0  0  0  0
   10.2543  -16.2357   19.3099 C   0  0  0  0  0  0  0  0  0  0  0  0
   10.5423  -17.3144   18.7418 O   0  0  0  0  0  0  0  0  0  0  0  0
   18.4182  -15.9711   21.3445 O   0  0  0  0  0  0  0  0  0  0  0  0
   17.0648  -15.7978   21.0990 C   0  0  0  0  0  0  0  0  0  0  0  0
   16.3326  -16.6941   20.3523 C   0  0  0  0  0  0  0  0  0  0  0  0
   14.9963  -16.4642   20.1464 C   0  0  0  0  0  0  0  0  0  0  0  0
   14.3221  -15.3532   20.6595 C   0  0  0  0  0  0  0  0  0  0  0  0
   12.8771  -15.1454   20.4028 C   0  0  0  0  0  0  0  0  0  0  0  0
   12.0183  -16.1523   21.1270 C   0  0  2  0  0  0  0  0  0  0  0  0
   10.6423  -16.1099   20.6701 N   0  0  0  0  0  0  0  0  0  0  0  0
   12.0277  -16.0232   22.5921 C   0  0  0  0  0  0  0  0  0  0  0  0
   11.2621  -15.1914   23.1323 O   0  0  0  0  0  0  0  0  0  0  0  0
   15.0815  -14.4784   21.3997 C   0  0  0  0  0  0  0  0  0  0  0  0
   16.4255  -14.6887   21.6199 C   0  0  0  0  0  0  0  0  0  0  0  0
   12.8374  -16.7706   23.4335 O   0  0  0  0  0  0  0  0  0  0  0  0
  2  1  1  6
  2  3  1  0
  2  4  1  0
  4  5  1  6
  6  4  1  0
  6  7  2  0
  9  8  1  1
  9 11  1  0
  9 10  1  0
 12 11  1  1
 12 13  1  0
 13  6  1  0
 14 12  1  0
 15 14  2  0
 16 17  1  0
 17 27  2  0
 17 18  1  0
 18 19  2  0
 19 20  1  0
 20 21  1  0
 22 21  1  6
 22 23  1  0
 22 24  1  0
 23 14  1  0
 24 28  1  0
 25 24  2  0
 26 20  2  0
 27 26  1  0
M  END
$$$$
