TLY.pdb
     RDKit          3D

 28 28  0  0  1  0  0  0  0  0999 V2000
    9.3094  -20.2260   21.6201 C   0  0  0  0  0  0  0  0  0  0  0  0
   10.2978  -20.1866   20.5036 C   0  0  1  0  0  0  0  0  0  0  0  0
   10.2577  -21.3416   19.7150 O   0  0  0  0  0  0  0  0  0  0  0  0
   10.1641  -19.0000   19.5919 C   0  0  2  0  0  0  0  0  0  0  0  0
   11.0614  -19.0839   18.4735 N   0  0  0  0  0  0  0  0  0  0  0  0
   10.2494  -17.7071   20.2979 C   0  0  0  0  0  0  0  0  0  0  0  0
   11.3420  -17.1482   20.5756 O   0  0  0  0  0  0  0  0  0  0  0  0
    9.0061  -12.7352   21.3636 C   0  0  0  0  0  0  0  0  0  0  0  0
    7.8347  -13.6216   21.5826 C   0  0  1  0  0  0  0  0  0  0  0  0
    6.6102  -12.9220   20.9970 C   0  0  0  0  0  0  0  0  0  0  0  0
    7.8861  -14.9801   21.0283 C   0  0  0  0  0  0  0  0  0  0  0  0
    9.0112  -15.8588   21.4738 C   0  0  2  0  0  0  0  0  0  0  0  0
    9.0684  -17.0630   20.6812 N   0  0  0  0  0  0  0  0  0  0  0  0
    8.9934  -16.1120   22.9305 C   0  0  0  0  0  0  0  0  0  0  0  0
    8.1200  -16.8831   23.3906 O   0  0  0  0  0  0  0  0  0  0  0  0
    6.4192  -10.7521   26.7988 O   0  0  0  0  0  0  0  0  0  0  0  0
    6.9638  -12.0070   26.5745 C   0  0  0  0  0  0  0  0  0  0  0  0
    8.3227  -12.2316   26.5874 C   0  0  0  0  0  0  0  0  0  0  0  0
    8.7972  -13.4977   26.3580 C   0  0  0  0  0  0  0  0  0  0  0  0
    7.9671  -14.5932   26.1072 C   0  0  0  0  0  0  0  0  0  0  0  0
    8.5292  -15.9419   25.8577 C   0  0  0  0  0  0  0  0  0  0  0  0
    9.9205  -15.8819   25.2775 C   0  0  2  0  0  0  0  0  0  0  0  0
    9.8983  -15.5453   23.8667 N   0  0  0  0  0  0  0  0  0  0  0  0
   10.7095  -17.1109   25.4517 C   0  0  0  0  0  0  0  0  0  0  0  0
   11.2149  -17.6549   24.4426 O   0  0  0  0  0  0  0  0  0  0  0  0
    6.6169  -14.3352   26.1010 C   0  0  0  0  0  0  0  0  0  0  0  0
    6.1169  -13.0713   26.3291 C   0  0  0  0  0  0  0  0  0  0  0  0
   10.9388  -17.7208   26.6754 O   0  0  0  0  0  0  0  0  0  0  0  0
  2  1  1  1
  2  3  1  0
  2  4  1  0
  4  5  1  6
  6  4  1  0
  6  7  2  0
  9  8  1  6
  9 11  1  0
  9 10  1  0
 12 11  1  6
 12 13  1  0
 13  6  1  0
 14 12  1  0
 15 14  2  0
 16 17  1  0
 17 27  2  0
 17 18  1  0
 18 19  2  0
 19 20  1  0
 20 21  1  0
 22 21  1  6
 22 23  1  0
 22 24  1  0
 23 14  1  0
 24 28  1  0
 25 24  2  0
 26 20  2  0
 27 26  1  0
M  END
$$$$
