TLY.pdb
     RDKit          3D

 28 28  0  0  1  0  0  0  0  0999 V2000
   12.4781  -16.7253   15.0605 C   0  0  0  0  0  0  0  0  0  0  0  0
   11.0264  -16.4239   14.8970 C   0  0  1  0  0  0  0  0  0  0  0  0
   10.4971  -16.9712   13.7232 O   0  0  0  0  0  0  0  0  0  0  0  0
   10.1628  -16.8672   16.0436 C   0  0  2  0  0  0  0  0  0  0  0  0
    8.7655  -16.7817   15.7221 N   0  0  0  0  0  0  0  0  0  0  0  0
   10.4978  -16.2046   17.3189 C   0  0  0  0  0  0  0  0  0  0  0  0
   11.6704  -16.1406   17.7710 O   0  0  0  0  0  0  0  0  0  0  0  0
    6.4139  -12.8923   19.4267 C   0  0  0  0  0  0  0  0  0  0  0  0
    7.7718  -13.3702   19.0614 C   0  0  1  0  0  0  0  0  0  0  0  0
    8.7131  -12.1688   19.1104 C   0  0  0  0  0  0  0  0  0  0  0  0
    8.3655  -14.4417   19.8708 C   0  0  0  0  0  0  0  0  0  0  0  0
    9.6449  -15.0408   19.3804 C   0  0  2  0  0  0  0  0  0  0  0  0
    9.4738  -15.6167   18.0686 N   0  0  0  0  0  0  0  0  0  0  0  0
   10.2497  -15.9706   20.3582 C   0  0  0  0  0  0  0  0  0  0  0  0
    9.7398  -17.1067   20.4943 O   0  0  0  0  0  0  0  0  0  0  0  0
   16.6930  -13.2993   19.1939 O   0  0  0  0  0  0  0  0  0  0  0  0
   15.8369  -14.2681   19.6941 C   0  0  0  0  0  0  0  0  0  0  0  0
   14.8496  -14.8442   18.9256 C   0  0  0  0  0  0  0  0  0  0  0  0
   14.0355  -15.7978   19.4813 C   0  0  0  0  0  0  0  0  0  0  0  0
   14.1513  -16.2268   20.8059 C   0  0  0  0  0  0  0  0  0  0  0  0
   13.2416  -17.2562   21.3624 C   0  0  0  0  0  0  0  0  0  0  0  0
   12.0313  -16.6488   22.0275 C   0  0  2  0  0  0  0  0  0  0  0  0
   11.3786  -15.6790   21.1688 N   0  0  0  0  0  0  0  0  0  0  0  0
   12.3011  -16.0148   23.3269 C   0  0  0  0  0  0  0  0  0  0  0  0
   11.9335  -14.8314   23.5119 O   0  0  0  0  0  0  0  0  0  0  0  0
   15.1459  -15.6321   21.5454 C   0  0  0  0  0  0  0  0  0  0  0  0
   15.9761  -14.6720   21.0086 C   0  0  0  0  0  0  0  0  0  0  0  0
   12.9438  -16.6451   24.3813 O   0  0  0  0  0  0  0  0  0  0  0  0
  2  1  1  1
  2  3  1  0
  2  4  1  0
  4  5  1  6
  6  4  1  0
  6  7  2  0
  9  8  1  1
  9 11  1  0
  9 10  1  0
 12 11  1  1
 12 13  1  0
 13  6  1  0
 14 12  1  0
 15 14  2  0
 16 17  1  0
 17 27  2  0
 17 18  1  0
 18 19  2  0
 19 20  1  0
 20 21  1  0
 22 21  1  6
 22 23  1  0
 22 24  1  0
 23 14  1  0
 24 28  1  0
 25 24  2  0
 26 20  2  0
 27 26  1  0
M  END
$$$$
