KET.pdb
     RDKit          3D

 26 25  0  0  1  0  0  0  0  0999 V2000
   10.0094  -17.1970   18.8461 N   0  0  0  0  0  0  0  0  0  0  0  0
    9.0978  -17.0664   19.9417 C   0  0  1  0  0  0  0  0  0  0  0  0
    7.9432  -18.0554   19.7178 C   0  0  0  0  0  0  0  0  0  0  0  0
    6.9129  -17.7328   20.7454 C   0  0  0  0  0  0  0  0  0  0  0  0
    5.7013  -18.5926   20.7567 C   0  0  0  0  0  0  0  0  0  0  0  0
    5.8207  -19.8908   21.4747 C   0  0  0  0  0  0  0  0  0  0  0  0
    4.6451  -20.7053   21.4479 N   0  0  0  0  0  0  0  0  0  0  0  0
    9.7395  -17.3365   21.2553 C   0  0  0  0  0  0  0  0  0  0  0  0
    9.4900  -18.4064   21.8632 O   0  0  0  0  0  0  0  0  0  0  0  0
   10.6248  -16.4200   21.8398 N   0  0  0  0  0  0  0  0  0  0  0  0
   11.3430  -16.6413   23.0715 C   0  0  1  0  0  0  0  0  0  0  0  0
   12.6857  -15.9247   23.0669 C   0  0  0  0  0  0  0  0  0  0  0  0
   13.7211  -16.7122   22.2929 C   0  0  0  0  0  0  0  0  0  0  0  0
   15.0096  -15.9761   22.3139 C   0  0  0  0  0  0  0  0  0  0  0  0
   15.8175  -16.0599   21.3346 O   0  0  0  0  0  0  0  0  0  0  0  0
   10.5343  -16.2238   24.2540 C   0  0  0  0  0  0  0  0  0  0  0  0
   10.2364  -15.0129   24.4145 O   0  0  0  0  0  0  0  0  0  0  0  0
   15.3782  -15.1857   23.3753 O   0  0  0  0  0  0  0  0  0  0  0  0
    7.4426  -15.8665   25.0957 C   0  0  0  0  0  0  0  0  0  0  0  0
    7.8599  -16.9347   26.0730 C   0  0  1  0  0  0  0  0  0  0  0  0
    7.5252  -18.1668   25.5589 O   0  0  0  0  0  0  0  0  0  0  0  0
    9.3562  -16.8366   26.3512 C   0  0  2  0  0  0  0  0  0  0  0  0
   10.1132  -17.2184   25.1850 N   0  0  0  0  0  0  0  0  0  0  0  0
    9.7498  -17.6714   27.4964 C   0  0  0  0  0  0  0  0  0  0  0  0
    9.2075  -17.4529   28.7463 O   0  0  0  0  0  0  0  0  0  0  0  0
   10.5867  -18.6044   27.3752 O   0  0  0  0  0  0  0  0  0  0  0  0
  2  1  1  6
  2  3  1  0
  3  4  1  0
  5  6  1  0
  5  4  1  0
  7  6  1  0
  8  2  1  0
  9  8  2  0
 10  8  1  0
 11 10  1  0
 11 12  1  6
 13 12  1  0
 14 18  1  0
 14 13  1  0
 15 14  2  0
 16 11  1  0
 16 17  2  0
 20 19  1  6
 20 22  1  0
 20 21  1  0
 22 23  1  6
 23 16  1  0
 24 22  1  0
 25 24  1  0
 26 24  2  0
M  END
$$$$
