KET.pdb
     RDKit          3D

 26 25  0  0  1  0  0  0  0  0999 V2000
    7.9367  -17.5847   19.0684 N   0  0  0  0  0  0  0  0  0  0  0  0
    8.9661  -16.7005   19.5231 C   0  0  1  0  0  0  0  0  0  0  0  0
    8.3704  -15.2869   19.6140 C   0  0  0  0  0  0  0  0  0  0  0  0
    7.9722  -14.9125   18.2273 C   0  0  0  0  0  0  0  0  0  0  0  0
    7.2779  -13.6084   18.0704 C   0  0  0  0  0  0  0  0  0  0  0  0
    6.8299  -13.2613   16.6942 C   0  0  0  0  0  0  0  0  0  0  0  0
    6.1477  -12.0093   16.5797 N   0  0  0  0  0  0  0  0  0  0  0  0
    9.5174  -17.0965   20.8458 C   0  0  0  0  0  0  0  0  0  0  0  0
    8.7912  -17.7098   21.6661 O   0  0  0  0  0  0  0  0  0  0  0  0
   10.8396  -16.8010   21.2059 N   0  0  0  0  0  0  0  0  0  0  0  0
   11.4450  -17.1474   22.4691 C   0  0  1  0  0  0  0  0  0  0  0  0
   12.9387  -16.8558   22.4667 C   0  0  0  0  0  0  0  0  0  0  0  0
   13.5441  -17.1014   23.8322 C   0  0  0  0  0  0  0  0  0  0  0  0
   15.0091  -16.8743   23.7641 C   0  0  0  0  0  0  0  0  0  0  0  0
   15.5305  -15.8514   24.3125 O   0  0  0  0  0  0  0  0  0  0  0  0
   10.7786  -16.4412   23.6023 C   0  0  0  0  0  0  0  0  0  0  0  0
   10.8197  -15.1865   23.6706 O   0  0  0  0  0  0  0  0  0  0  0  0
   15.8506  -17.7457   23.1162 O   0  0  0  0  0  0  0  0  0  0  0  0
    7.3648  -15.9161   26.8196 C   0  0  0  0  0  0  0  0  0  0  0  0
    7.9827  -16.5895   25.6216 C   0  0  1  0  0  0  0  0  0  0  0  0
    7.5481  -15.9567   24.4792 O   0  0  0  0  0  0  0  0  0  0  0  0
    9.5037  -16.5599   25.7287 C   0  0  2  0  0  0  0  0  0  0  0  0
   10.1032  -17.2139   24.5922 N   0  0  0  0  0  0  0  0  0  0  0  0
    9.9713  -17.1921   26.9717 C   0  0  0  0  0  0  0  0  0  0  0  0
    9.6733  -16.6369   28.1993 O   0  0  0  0  0  0  0  0  0  0  0  0
   10.6525  -18.2510   26.9568 O   0  0  0  0  0  0  0  0  0  0  0  0
  2  1  1  1
  2  3  1  0
  3  4  1  0
  5  6  1  0
  5  4  1  0
  7  6  1  0
  8  2  1  0
  9  8  2  0
 10  8  1  0
 11 10  1  0
 11 12  1  6
 13 12  1  0
 14 18  1  0
 14 13  1  0
 15 14  2  0
 16 11  1  0
 16 17  2  0
 20 19  1  1
 20 22  1  0
 20 21  1  0
 22 23  1  6
 23 16  1  0
 24 22  1  0
 25 24  1  0
 26 24  2  0
M  END
$$$$
