KET.pdb
     RDKit          3D

 26 25  0  0  1  0  0  0  0  0999 V2000
    5.5859  -17.2269   20.5444 N   0  0  0  0  0  0  0  0  0  0  0  0
    6.5105  -16.3460   21.1903 C   0  0  1  0  0  0  0  0  0  0  0  0
    6.0897  -14.9024   20.8736 C   0  0  0  0  0  0  0  0  0  0  0  0
    6.5765  -14.6197   19.4935 C   0  0  0  0  0  0  0  0  0  0  0  0
    7.7681  -13.7393   19.3823 C   0  0  0  0  0  0  0  0  0  0  0  0
    8.2476  -13.4496   18.0034 C   0  0  0  0  0  0  0  0  0  0  0  0
    9.3812  -12.5805   17.9291 N   0  0  0  0  0  0  0  0  0  0  0  0
    6.5538  -16.5421   22.6634 C   0  0  0  0  0  0  0  0  0  0  0  0
    5.5026  -16.4234   23.3397 O   0  0  0  0  0  0  0  0  0  0  0  0
    7.7484  -16.8593   23.3249 N   0  0  0  0  0  0  0  0  0  0  0  0
    7.8988  -16.9400   24.7577 C   0  0  1  0  0  0  0  0  0  0  0  0
    8.7272  -18.1513   25.1610 C   0  0  0  0  0  0  0  0  0  0  0  0
    8.8908  -18.2237   26.6641 C   0  0  0  0  0  0  0  0  0  0  0  0
    9.8202  -19.3305   27.0008 C   0  0  0  0  0  0  0  0  0  0  0  0
    9.4243  -20.5393   26.9679 O   0  0  0  0  0  0  0  0  0  0  0  0
    8.4989  -15.6911   25.3117 C   0  0  0  0  0  0  0  0  0  0  0  0
    9.5011  -15.1758   24.7543 O   0  0  0  0  0  0  0  0  0  0  0  0
   11.1269  -19.0998   27.3567 O   0  0  0  0  0  0  0  0  0  0  0  0
    6.9745  -12.2668   25.9923 C   0  0  0  0  0  0  0  0  0  0  0  0
    7.4300  -12.8621   27.2994 C   0  0  1  0  0  0  0  0  0  0  0  0
    6.3413  -13.3946   27.9519 O   0  0  0  0  0  0  0  0  0  0  0  0
    8.5003  -13.9195   27.0504 C   0  0  2  0  0  0  0  0  0  0  0  0
    7.9157  -15.1044   26.4732 N   0  0  0  0  0  0  0  0  0  0  0  0
    9.2150  -14.2683   28.2877 C   0  0  0  0  0  0  0  0  0  0  0  0
    9.8576  -13.2968   29.0274 O   0  0  0  0  0  0  0  0  0  0  0  0
    9.2635  -15.4540   28.7090 O   0  0  0  0  0  0  0  0  0  0  0  0
  2  1  1  6
  2  3  1  0
  3  4  1  0
  5  6  1  0
  5  4  1  0
  7  6  1  0
  8  2  1  0
  9  8  2  0
 10  8  1  0
 11 10  1  0
 11 12  1  6
 13 12  1  0
 14 18  1  0
 14 13  1  0
 15 14  2  0
 16 11  1  0
 16 17  2  0
 20 19  1  6
 20 22  1  0
 20 21  1  0
 22 23  1  1
 23 16  1  0
 24 22  1  0
 25 24  1  0
 26 24  2  0
M  END
$$$$
