KET.pdb
     RDKit          3D

 26 25  0  0  1  0  0  0  0  0999 V2000
    7.4375  -16.2835   19.8781 N   0  0  0  0  0  0  0  0  0  0  0  0
    8.1060  -15.2496   20.6079 C   0  0  1  0  0  0  0  0  0  0  0  0
    7.3526  -13.9331   20.3618 C   0  0  0  0  0  0  0  0  0  0  0  0
    7.0819  -13.8753   18.8972 C   0  0  0  0  0  0  0  0  0  0  0  0
    8.2426  -13.5622   18.0243 C   0  0  0  0  0  0  0  0  0  0  0  0
    7.9524  -13.4031   16.5732 C   0  0  0  0  0  0  0  0  0  0  0  0
    9.0955  -13.1393   15.7548 N   0  0  0  0  0  0  0  0  0  0  0  0
    8.1654  -15.5262   22.0674 C   0  0  0  0  0  0  0  0  0  0  0  0
    7.1908  -15.2252   22.7995 O   0  0  0  0  0  0  0  0  0  0  0  0
    9.2914  -16.1200   22.6547 N   0  0  0  0  0  0  0  0  0  0  0  0
    9.4024  -16.4712   24.0498 C   0  0  1  0  0  0  0  0  0  0  0  0
   10.5731  -17.4129   24.2931 C   0  0  0  0  0  0  0  0  0  0  0  0
   10.6659  -17.8011   25.7532 C   0  0  0  0  0  0  0  0  0  0  0  0
   11.8182  -18.7170   25.9420 C   0  0  0  0  0  0  0  0  0  0  0  0
   12.5378  -19.0628   24.9513 O   0  0  0  0  0  0  0  0  0  0  0  0
    9.5249  -15.2562   24.9074 C   0  0  0  0  0  0  0  0  0  0  0  0
   10.3570  -14.3612   24.6122 O   0  0  0  0  0  0  0  0  0  0  0  0
   12.1510  -19.2220   27.1755 O   0  0  0  0  0  0  0  0  0  0  0  0
    7.1801  -12.5393   25.6039 C   0  0  0  0  0  0  0  0  0  0  0  0
    7.4257  -13.2360   26.9172 C   0  0  1  0  0  0  0  0  0  0  0  0
    6.3900  -14.1090   27.1610 O   0  0  0  0  0  0  0  0  0  0  0  0
    8.7672  -13.9607   26.8846 C   0  0  2  0  0  0  0  0  0  0  0  0
    8.6863  -15.1368   26.0545 N   0  0  0  0  0  0  0  0  0  0  0  0
    9.2141  -14.3335   28.2353 C   0  0  0  0  0  0  0  0  0  0  0  0
    9.4239  -13.3685   29.1990 O   0  0  0  0  0  0  0  0  0  0  0  0
    9.4181  -15.5345   28.5540 O   0  0  0  0  0  0  0  0  0  0  0  0
  2  1  1  6
  2  3  1  0
  3  4  1  0
  5  6  1  0
  5  4  1  0
  7  6  1  0
  8  2  1  0
  9  8  2  0
 10  8  1  0
 11 10  1  0
 11 12  1  6
 13 12  1  0
 14 18  1  0
 14 13  1  0
 15 14  2  0
 16 11  1  0
 16 17  2  0
 20 19  1  6
 20 22  1  0
 20 21  1  0
 22 23  1  6
 23 16  1  0
 24 22  1  0
 25 24  1  0
 26 24  2  0
M  END
$$$$
