KET.pdb
     RDKit          3D

 26 25  0  0  1  0  0  0  0  0999 V2000
    7.0168  -17.2190   19.5901 N   0  0  0  0  0  0  0  0  0  0  0  0
    7.9531  -16.3775   20.2710 C   0  0  1  0  0  0  0  0  0  0  0  0
    7.7886  -14.9495   19.7279 C   0  0  0  0  0  0  0  0  0  0  0  0
    8.0592  -15.0265   18.2642 C   0  0  0  0  0  0  0  0  0  0  0  0
    8.0377  -13.7400   17.5213 C   0  0  0  0  0  0  0  0  0  0  0  0
    8.2678  -13.8224   16.0532 C   0  0  0  0  0  0  0  0  0  0  0  0
    8.2434  -12.5673   15.3675 N   0  0  0  0  0  0  0  0  0  0  0  0
    7.7561  -16.3776   21.7446 C   0  0  0  0  0  0  0  0  0  0  0  0
    6.5949  -16.4342   22.2187 O   0  0  0  0  0  0  0  0  0  0  0  0
    8.8425  -16.3155   22.6283 N   0  0  0  0  0  0  0  0  0  0  0  0
    8.7458  -16.4525   24.0615 C   0  0  1  0  0  0  0  0  0  0  0  0
    9.7524  -17.4637   24.5911 C   0  0  0  0  0  0  0  0  0  0  0  0
   11.1677  -16.9428   24.4618 C   0  0  0  0  0  0  0  0  0  0  0  0
   12.1126  -17.9653   24.9757 C   0  0  0  0  0  0  0  0  0  0  0  0
   11.6902  -19.1063   25.3479 O   0  0  0  0  0  0  0  0  0  0  0  0
    8.9197  -15.1377   24.7455 C   0  0  0  0  0  0  0  0  0  0  0  0
    9.8522  -14.3689   24.3992 O   0  0  0  0  0  0  0  0  0  0  0  0
   13.4621  -17.7262   25.0696 O   0  0  0  0  0  0  0  0  0  0  0  0
    6.5072  -12.2196   25.1824 C   0  0  0  0  0  0  0  0  0  0  0  0
    6.8518  -12.7729   26.5409 C   0  0  1  0  0  0  0  0  0  0  0  0
    5.8288  -13.5911   26.9632 O   0  0  0  0  0  0  0  0  0  0  0  0
    8.1766  -13.5258   26.4808 C   0  0  2  0  0  0  0  0  0  0  0  0
    8.0145  -14.7796   25.7875 N   0  0  0  0  0  0  0  0  0  0  0  0
    8.7240  -13.7664   27.8245 C   0  0  0  0  0  0  0  0  0  0  0  0
    8.9935  -12.7129   28.6740 O   0  0  0  0  0  0  0  0  0  0  0  0
    8.9627  -14.9308   28.2403 O   0  0  0  0  0  0  0  0  0  0  0  0
  2  1  1  6
  2  3  1  0
  3  4  1  0
  5  6  1  0
  5  4  1  0
  7  6  1  0
  8  2  1  0
  9  8  2  0
 10  8  1  0
 11 10  1  0
 11 12  1  1
 13 12  1  0
 14 18  1  0
 14 13  1  0
 15 14  2  0
 16 11  1  0
 16 17  2  0
 20 19  1  6
 20 22  1  0
 20 21  1  0
 22 23  1  1
 23 16  1  0
 24 22  1  0
 25 24  1  0
 26 24  2  0
M  END
$$$$
