KET.pdb
     RDKit          3D

 26 25  0  0  1  0  0  0  0  0999 V2000
    7.9450  -16.3641   16.6611 N   0  0  0  0  0  0  0  0  0  0  0  0
    8.7741  -15.5420   17.4886 C   0  0  1  0  0  0  0  0  0  0  0  0
    8.1242  -14.1524   17.5785 C   0  0  0  0  0  0  0  0  0  0  0  0
    8.3109  -13.5178   16.2428 C   0  0  0  0  0  0  0  0  0  0  0  0
    7.5777  -14.1389   15.1097 C   0  0  0  0  0  0  0  0  0  0  0  0
    7.8520  -13.5766   13.7593 C   0  0  0  0  0  0  0  0  0  0  0  0
    7.0660  -14.1346   12.7024 N   0  0  0  0  0  0  0  0  0  0  0  0
    8.9512  -16.1002   18.8551 C   0  0  0  0  0  0  0  0  0  0  0  0
    7.9468  -16.4597   19.5172 O   0  0  0  0  0  0  0  0  0  0  0  0
   10.2221  -16.2375   19.4307 N   0  0  0  0  0  0  0  0  0  0  0  0
   10.4927  -16.9183   20.6738 C   0  0  1  0  0  0  0  0  0  0  0  0
   11.8435  -17.6187   20.6399 C   0  0  0  0  0  0  0  0  0  0  0  0
   12.1422  -18.2910   21.9628 C   0  0  0  0  0  0  0  0  0  0  0  0
   13.4524  -18.9823   21.8737 C   0  0  0  0  0  0  0  0  0  0  0  0
   14.0591  -19.0757   20.7593 O   0  0  0  0  0  0  0  0  0  0  0  0
   10.4215  -15.9810   21.8328 C   0  0  0  0  0  0  0  0  0  0  0  0
   11.1909  -14.9881   21.8848 O   0  0  0  0  0  0  0  0  0  0  0  0
   14.0555  -19.5418   22.9739 O   0  0  0  0  0  0  0  0  0  0  0  0
    7.9268  -13.6609   23.0015 C   0  0  0  0  0  0  0  0  0  0  0  0
    8.0591  -14.6804   24.1032 C   0  0  1  0  0  0  0  0  0  0  0  0
    7.0276  -15.5859   24.0008 O   0  0  0  0  0  0  0  0  0  0  0  0
    9.4157  -15.3718   24.0189 C   0  0  2  0  0  0  0  0  0  0  0  0
    9.4720  -16.2356   22.8658 N   0  0  0  0  0  0  0  0  0  0  0  0
    9.7057  -16.1453   25.2358 C   0  0  0  0  0  0  0  0  0  0  0  0
    9.8252  -15.5163   26.4581 O   0  0  0  0  0  0  0  0  0  0  0  0
    9.8531  -17.3955   25.2027 O   0  0  0  0  0  0  0  0  0  0  0  0
  2  1  1  6
  2  3  1  0
  3  4  1  0
  5  6  1  0
  5  4  1  0
  7  6  1  0
  8  2  1  0
  9  8  2  0
 10  8  1  0
 11 10  1  0
 11 12  1  6
 13 12  1  0
 14 18  1  0
 14 13  1  0
 15 14  2  0
 16 11  1  0
 16 17  2  0
 20 19  1  6
 20 22  1  0
 20 21  1  0
 22 23  1  6
 23 16  1  0
 24 22  1  0
 25 24  1  0
 26 24  2  0
M  END
$$$$
