KET.pdb
     RDKit          3D

 26 25  0  0  1  0  0  0  0  0999 V2000
    6.7329  -15.9724   20.6953 N   0  0  0  0  0  0  0  0  0  0  0  0
    7.8454  -15.2294   21.2038 C   0  0  1  0  0  0  0  0  0  0  0  0
    7.4521  -13.7440   21.2270 C   0  0  0  0  0  0  0  0  0  0  0  0
    7.2685  -13.3392   19.8043 C   0  0  0  0  0  0  0  0  0  0  0  0
    8.3838  -13.6631   18.8777 C   0  0  0  0  0  0  0  0  0  0  0  0
    8.2558  -13.1493   17.4868 C   0  0  0  0  0  0  0  0  0  0  0  0
    9.2466  -13.6287   16.5731 N   0  0  0  0  0  0  0  0  0  0  0  0
    8.2463  -15.6616   22.5686 C   0  0  0  0  0  0  0  0  0  0  0  0
    7.4377  -15.5462   23.5222 O   0  0  0  0  0  0  0  0  0  0  0  0
    9.5154  -16.2001   22.8227 N   0  0  0  0  0  0  0  0  0  0  0  0
    9.9498  -16.7153   24.0986 C   0  0  1  0  0  0  0  0  0  0  0  0
   11.1768  -17.6032   23.9494 C   0  0  0  0  0  0  0  0  0  0  0  0
   11.6527  -18.1060   25.2955 C   0  0  0  0  0  0  0  0  0  0  0  0
   12.8801  -18.9185   25.1067 C   0  0  0  0  0  0  0  0  0  0  0  0
   13.2427  -19.2801   23.9419 O   0  0  0  0  0  0  0  0  0  0  0  0
   10.2204  -15.6119   25.0660 C   0  0  0  0  0  0  0  0  0  0  0  0
   11.1016  -14.7531   24.8078 O   0  0  0  0  0  0  0  0  0  0  0  0
   13.6641  -19.3083   26.1653 O   0  0  0  0  0  0  0  0  0  0  0  0
    8.3184  -12.7754   26.1682 C   0  0  0  0  0  0  0  0  0  0  0  0
    8.5110  -13.6167   27.4034 C   0  0  1  0  0  0  0  0  0  0  0  0
    7.3692  -14.3523   27.6260 O   0  0  0  0  0  0  0  0  0  0  0  0
    9.7299  -14.5185   27.2399 C   0  0  2  0  0  0  0  0  0  0  0  0
    9.4651  -15.5560   26.2742 N   0  0  0  0  0  0  0  0  0  0  0  0
   10.1338  -15.1201   28.5198 C   0  0  0  0  0  0  0  0  0  0  0  0
   10.1818  -16.4910   28.6694 O   0  0  0  0  0  0  0  0  0  0  0  0
   10.4463  -14.4107   29.5120 O   0  0  0  0  0  0  0  0  0  0  0  0
  2  1  1  1
  2  3  1  0
  3  4  1  0
  5  6  1  0
  5  4  1  0
  7  6  1  0
  8  2  1  0
  9  8  2  0
 10  8  1  0
 11 10  1  0
 11 12  1  6
 13 12  1  0
 14 18  1  0
 14 13  1  0
 15 14  2  0
 16 11  1  0
 16 17  2  0
 20 19  1  6
 20 22  1  0
 20 21  1  0
 22 23  1  6
 23 16  1  0
 24 22  1  0
 25 24  1  0
 26 24  2  0
M  END
$$$$
