MSY.pdb
     RDKit          3D

 27 27  0  0  1  0  0  0  0  0999 V2000
    8.1050  -11.6395   19.1385 C   0  0  0  0  0  0  0  0  0  0  0  0
    7.7439  -13.3676   18.8376 S   0  0  0  0  0  0  0  0  0  0  0  0
    9.1949  -14.3774   18.5411 C   0  0  0  0  0  0  0  0  0  0  0  0
    9.5761  -15.2846   19.6580 C   0  0  0  0  0  0  0  0  0  0  0  0
    9.2388  -16.7249   19.4481 C   0  0  2  0  0  0  0  0  0  0  0  0
    7.8129  -16.8999   19.2106 N   0  0  0  0  0  0  0  0  0  0  0  0
    9.5537  -17.4736   20.7073 C   0  0  0  0  0  0  0  0  0  0  0  0
    8.6464  -17.9208   21.4742 O   0  0  0  0  0  0  0  0  0  0  0  0
   13.5877  -17.8382   22.0735 O   0  0  0  0  0  0  0  0  0  0  0  0
   12.6386  -18.7584   22.5021 C   0  0  0  0  0  0  0  0  0  0  0  0
   11.2280  -18.2144   22.4316 C   0  0  2  0  0  0  0  0  0  0  0  0
   10.8958  -17.7265   21.1159 N   0  0  0  0  0  0  0  0  0  0  0  0
   11.1314  -17.1523   23.4657 C   0  0  0  0  0  0  0  0  0  0  0  0
   11.4440  -15.9809   23.1326 O   0  0  0  0  0  0  0  0  0  0  0  0
    6.1444  -11.8373   27.7121 O   0  0  0  0  0  0  0  0  0  0  0  0
    6.8562  -12.7955   27.0173 C   0  0  0  0  0  0  0  0  0  0  0  0
    8.2341  -12.7714   26.9599 C   0  0  0  0  0  0  0  0  0  0  0  0
    8.8770  -13.7605   26.2478 C   0  0  0  0  0  0  0  0  0  0  0  0
    8.1424  -14.7637   25.5998 C   0  0  0  0  0  0  0  0  0  0  0  0
    8.8325  -15.8100   24.8166 C   0  0  0  0  0  0  0  0  0  0  0  0
   10.0364  -16.2980   25.5681 C   0  0  2  0  0  0  0  0  0  0  0  0
   10.7141  -17.3626   24.7950 N   0  0  0  0  0  0  0  0  0  0  0  0
    9.7068  -16.8700   26.8807 C   0  0  0  0  0  0  0  0  0  0  0  0
   10.0302  -16.2313   28.0630 O   0  0  0  0  0  0  0  0  0  0  0  0
    6.7572  -14.7767   25.6649 C   0  0  0  0  0  0  0  0  0  0  0  0
    6.1187  -13.7856   26.3784 C   0  0  0  0  0  0  0  0  0  0  0  0
    9.1154  -17.9719   26.9767 O   0  0  0  0  0  0  0  0  0  0  0  0
  2  1  1  0
  3  2  1  0
  4  3  1  0
  5  7  1  0
  5  4  1  0
  5  6  1  1
  7  8  2  0
  9 10  1  0
 11 10  1  6
 11 12  1  0
 12  7  1  0
 13 11  1  0
 14 13  2  0
 16 15  1  0
 16 26  2  0
 17 16  1  0
 18 17  2  0
 18 19  1  0
 19 25  2  0
 20 19  1  0
 21 20  1  6
 21 22  1  0
 22 13  1  0
 23 24  1  0
 23 21  1  0
 25 26  1  0
 27 23  2  0
M  END
$$$$
