MSY.pdb
     RDKit          3D

 27 27  0  0  1  0  0  0  0  0999 V2000
   12.1442  -21.9483   26.8667 C   0  0  0  0  0  0  0  0  0  0  0  0
   11.2911  -20.6149   26.0290 S   0  0  0  0  0  0  0  0  0  0  0  0
   11.4728  -20.6362   24.2460 C   0  0  0  0  0  0  0  0  0  0  0  0
   10.7077  -19.5877   23.5171 C   0  0  0  0  0  0  0  0  0  0  0  0
   10.7800  -19.6706   22.0271 C   0  0  2  0  0  0  0  0  0  0  0  0
   12.1273  -20.0022   21.5856 N   0  0  0  0  0  0  0  0  0  0  0  0
   10.4697  -18.3180   21.4618 C   0  0  0  0  0  0  0  0  0  0  0  0
   11.3446  -17.4023   21.3771 O   0  0  0  0  0  0  0  0  0  0  0  0
    6.4927  -17.2544   20.5051 O   0  0  0  0  0  0  0  0  0  0  0  0
    7.5052  -16.6456   19.7734 C   0  0  0  0  0  0  0  0  0  0  0  0
    8.8368  -16.6689   20.4924 C   0  0  2  0  0  0  0  0  0  0  0  0
    9.1685  -17.9829   20.9853 N   0  0  0  0  0  0  0  0  0  0  0  0
    8.7464  -15.6655   21.5842 C   0  0  0  0  0  0  0  0  0  0  0  0
    8.5297  -14.4693   21.2632 O   0  0  0  0  0  0  0  0  0  0  0  0
    6.5176  -10.6267   28.0233 O   0  0  0  0  0  0  0  0  0  0  0  0
    6.7579  -11.4710   26.9570 C   0  0  0  0  0  0  0  0  0  0  0  0
    7.2269  -10.9950   25.7504 C   0  0  0  0  0  0  0  0  0  0  0  0
    7.4439  -11.8962   24.7309 C   0  0  0  0  0  0  0  0  0  0  0  0
    7.1920  -13.2623   24.9222 C   0  0  0  0  0  0  0  0  0  0  0  0
    7.4025  -14.2243   23.8202 C   0  0  0  0  0  0  0  0  0  0  0  0
    8.7279  -14.9082   23.9873 C   0  0  2  0  0  0  0  0  0  0  0  0
    8.8858  -15.9575   22.9555 N   0  0  0  0  0  0  0  0  0  0  0  0
    8.8785  -15.5682   25.2913 C   0  0  0  0  0  0  0  0  0  0  0  0
    8.6609  -16.9226   25.4592 O   0  0  0  0  0  0  0  0  0  0  0  0
    6.7203  -13.7282   26.1403 C   0  0  0  0  0  0  0  0  0  0  0  0
    6.5050  -12.8231   27.1568 C   0  0  0  0  0  0  0  0  0  0  0  0
    9.2116  -14.9183   26.3112 O   0  0  0  0  0  0  0  0  0  0  0  0
  2  1  1  0
  3  2  1  0
  4  3  1  0
  5  7  1  0
  5  4  1  0
  5  6  1  1
  7  8  2  0
  9 10  1  0
 11 10  1  1
 11 12  1  0
 12  7  1  0
 13 11  1  0
 14 13  2  0
 16 15  1  0
 16 26  2  0
 17 16  1  0
 18 17  2  0
 18 19  1  0
 19 25  2  0
 20 19  1  0
 21 20  1  1
 21 22  1  0
 22 13  1  0
 23 24  1  0
 23 21  1  0
 25 26  1  0
 27 23  2  0
M  END
$$$$
