MSY.pdb
     RDKit          3D

 27 27  0  0  1  0  0  0  0  0999 V2000
    6.9045  -11.0101   25.5583 C   0  0  0  0  0  0  0  0  0  0  0  0
    5.9033  -11.9481   26.7095 S   0  0  0  0  0  0  0  0  0  0  0  0
    5.6240  -13.6492   26.2186 C   0  0  0  0  0  0  0  0  0  0  0  0
    6.7622  -14.3023   25.5156 C   0  0  0  0  0  0  0  0  0  0  0  0
    6.4748  -15.6644   24.9733 C   0  0  2  0  0  0  0  0  0  0  0  0
    6.1457  -16.5956   26.0432 N   0  0  0  0  0  0  0  0  0  0  0  0
    7.7194  -16.1880   24.3237 C   0  0  0  0  0  0  0  0  0  0  0  0
    8.6013  -16.8324   24.9704 O   0  0  0  0  0  0  0  0  0  0  0  0
    8.9831  -14.7347   20.5676 O   0  0  0  0  0  0  0  0  0  0  0  0
    9.2553  -16.0701   20.8391 C   0  0  0  0  0  0  0  0  0  0  0  0
    9.2280  -16.3795   22.3204 C   0  0  2  0  0  0  0  0  0  0  0  0
    7.9836  -15.9907   22.9368 N   0  0  0  0  0  0  0  0  0  0  0  0
   10.3943  -15.6821   22.9205 C   0  0  0  0  0  0  0  0  0  0  0  0
   10.1895  -14.5759   23.4820 O   0  0  0  0  0  0  0  0  0  0  0  0
   10.0662  -14.4711   29.6599 O   0  0  0  0  0  0  0  0  0  0  0  0
   10.5223  -15.0936   28.5145 C   0  0  0  0  0  0  0  0  0  0  0  0
   10.8548  -14.3747   27.3853 C   0  0  0  0  0  0  0  0  0  0  0  0
   11.3030  -15.0634   26.2792 C   0  0  0  0  0  0  0  0  0  0  0  0
   11.4160  -16.4608   26.3077 C   0  0  0  0  0  0  0  0  0  0  0  0
   11.8741  -17.1998   25.1126 C   0  0  0  0  0  0  0  0  0  0  0  0
   12.5212  -16.2525   24.1451 C   0  0  2  0  0  0  0  0  0  0  0  0
   11.7157  -16.1711   22.9062 N   0  0  0  0  0  0  0  0  0  0  0  0
   13.8735  -16.6663   23.7464 C   0  0  0  0  0  0  0  0  0  0  0  0
   15.0077  -16.0917   24.2881 O   0  0  0  0  0  0  0  0  0  0  0  0
   11.0783  -17.1721   27.4493 C   0  0  0  0  0  0  0  0  0  0  0  0
   10.6306  -16.4789   28.5530 C   0  0  0  0  0  0  0  0  0  0  0  0
   14.0492  -17.5647   22.8889 O   0  0  0  0  0  0  0  0  0  0  0  0
  2  1  1  0
  3  2  1  0
  4  3  1  0
  5  7  1  0
  5  4  1  0
  5  6  1  1
  7  8  2  0
  9 10  1  0
 11 10  1  6
 11 12  1  0
 12  7  1  0
 13 11  1  0
 14 13  2  0
 16 15  1  0
 16 26  2  0
 17 16  1  0
 18 17  2  0
 18 19  1  0
 19 25  2  0
 20 19  1  0
 21 20  1  1
 21 22  1  0
 22 13  1  0
 23 24  1  0
 23 21  1  0
 25 26  1  0
 27 23  2  0
M  END
$$$$
