MSY.pdb
     RDKit          3D

 27 27  0  0  1  0  0  0  0  0999 V2000
    8.0297  -11.3463   18.6065 C   0  0  0  0  0  0  0  0  0  0  0  0
    8.2970  -12.3193   20.0860 S   0  0  0  0  0  0  0  0  0  0  0  0
    7.8063  -14.0363   19.9309 C   0  0  0  0  0  0  0  0  0  0  0  0
    8.1011  -14.8903   21.1141 C   0  0  0  0  0  0  0  0  0  0  0  0
    7.8200  -16.3462   20.9309 C   0  0  2  0  0  0  0  0  0  0  0  0
    6.4088  -16.5768   20.6561 N   0  0  0  0  0  0  0  0  0  0  0  0
    8.1222  -17.0525   22.2173 C   0  0  0  0  0  0  0  0  0  0  0  0
    7.2644  -17.1644   23.1463 O   0  0  0  0  0  0  0  0  0  0  0  0
   11.7925  -19.1294   22.8370 O   0  0  0  0  0  0  0  0  0  0  0  0
   10.6606  -19.4232   23.5877 C   0  0  0  0  0  0  0  0  0  0  0  0
    9.7389  -18.2324   23.7403 C   0  0  2  0  0  0  0  0  0  0  0  0
    9.3957  -17.6410   22.4708 N   0  0  0  0  0  0  0  0  0  0  0  0
   10.4318  -17.2729   24.6382 C   0  0  0  0  0  0  0  0  0  0  0  0
   11.3891  -16.6118   24.1614 O   0  0  0  0  0  0  0  0  0  0  0  0
    5.5871  -12.8052   26.5765 O   0  0  0  0  0  0  0  0  0  0  0  0
    6.8918  -13.2581   26.5619 C   0  0  0  0  0  0  0  0  0  0  0  0
    7.8101  -12.8456   27.5048 C   0  0  0  0  0  0  0  0  0  0  0  0
    9.0942  -13.3395   27.4279 C   0  0  0  0  0  0  0  0  0  0  0  0
    9.4517  -14.2389   26.4133 C   0  0  0  0  0  0  0  0  0  0  0  0
   10.8356  -14.7490   26.3180 C   0  0  0  0  0  0  0  0  0  0  0  0
   10.8987  -16.1523   26.8462 C   0  0  2  0  0  0  0  0  0  0  0  0
   10.0933  -17.0493   25.9876 N   0  0  0  0  0  0  0  0  0  0  0  0
   10.3692  -16.2816   28.2107 C   0  0  0  0  0  0  0  0  0  0  0  0
   10.9383  -15.6247   29.2853 O   0  0  0  0  0  0  0  0  0  0  0  0
    8.5191  -14.6457   25.4710 C   0  0  0  0  0  0  0  0  0  0  0  0
    7.2362  -14.1491   25.5521 C   0  0  0  0  0  0  0  0  0  0  0  0
    9.3718  -17.0027   28.4524 O   0  0  0  0  0  0  0  0  0  0  0  0
  2  1  1  0
  3  2  1  0
  4  3  1  0
  5  7  1  0
  5  4  1  0
  5  6  1  1
  7  8  2  0
  9 10  1  0
 11 10  1  6
 11 12  1  0
 12  7  1  0
 13 11  1  0
 14 13  2  0
 16 15  1  0
 16 26  2  0
 17 16  1  0
 18 17  2  0
 18 19  1  0
 19 25  2  0
 20 19  1  0
 21 20  1  6
 21 22  1  0
 22 13  1  0
 23 24  1  0
 23 21  1  0
 25 26  1  0
 27 23  2  0
M  END
$$$$
