MSY.pdb
     RDKit          3D

 27 27  0  0  1  0  0  0  0  0999 V2000
    8.5854  -11.2783   21.0853 C   0  0  0  0  0  0  0  0  0  0  0  0
    7.9901  -11.7280   19.4572 S   0  0  0  0  0  0  0  0  0  0  0  0
    8.2364  -13.4535   19.0391 C   0  0  0  0  0  0  0  0  0  0  0  0
    8.2565  -14.3905   20.1956 C   0  0  0  0  0  0  0  0  0  0  0  0
    8.5318  -15.8178   19.8505 C   0  0  2  0  0  0  0  0  0  0  0  0
    7.4996  -16.3533   18.9741 N   0  0  0  0  0  0  0  0  0  0  0  0
    8.4806  -16.6281   21.1099 C   0  0  0  0  0  0  0  0  0  0  0  0
    7.3864  -17.0274   21.6144 O   0  0  0  0  0  0  0  0  0  0  0  0
   11.8696  -18.5541   22.4937 O   0  0  0  0  0  0  0  0  0  0  0  0
   10.6208  -18.9446   22.9618 C   0  0  0  0  0  0  0  0  0  0  0  0
    9.6347  -17.7976   23.0140 C   0  0  2  0  0  0  0  0  0  0  0  0
    9.6635  -16.9974   21.8147 N   0  0  0  0  0  0  0  0  0  0  0  0
    9.9695  -17.0061   24.2258 C   0  0  0  0  0  0  0  0  0  0  0  0
   10.8104  -16.0790   24.1055 O   0  0  0  0  0  0  0  0  0  0  0  0
    6.1669  -11.6537   25.2214 O   0  0  0  0  0  0  0  0  0  0  0  0
    6.8348  -12.7063   25.8160 C   0  0  0  0  0  0  0  0  0  0  0  0
    8.0205  -12.5181   26.4950 C   0  0  0  0  0  0  0  0  0  0  0  0
    8.6307  -13.6151   27.0633 C   0  0  0  0  0  0  0  0  0  0  0  0
    8.0549  -14.8886   26.9502 C   0  0  0  0  0  0  0  0  0  0  0  0
    8.7230  -16.0678   27.5398 C   0  0  0  0  0  0  0  0  0  0  0  0
    9.8900  -16.4714   26.6868 C   0  0  2  0  0  0  0  0  0  0  0  0
    9.4121  -17.2190   25.5022 N   0  0  0  0  0  0  0  0  0  0  0  0
   10.8427  -17.3452   27.3851 C   0  0  0  0  0  0  0  0  0  0  0  0
   11.6177  -16.8954   28.4373 O   0  0  0  0  0  0  0  0  0  0  0  0
    6.8623  -15.0646   26.2646 C   0  0  0  0  0  0  0  0  0  0  0  0
    6.2558  -13.9645   25.6981 C   0  0  0  0  0  0  0  0  0  0  0  0
   10.9901  -18.5439   27.0462 O   0  0  0  0  0  0  0  0  0  0  0  0
  2  1  1  0
  3  2  1  0
  4  3  1  0
  5  7  1  0
  5  4  1  0
  5  6  1  6
  7  8  2  0
  9 10  1  0
 11 10  1  6
 11 12  1  0
 12  7  1  0
 13 11  1  0
 14 13  2  0
 16 15  1  0
 16 26  2  0
 17 16  1  0
 18 17  2  0
 18 19  1  0
 19 25  2  0
 20 19  1  0
 21 20  1  1
 21 22  1  0
 22 13  1  0
 23 24  1  0
 23 21  1  0
 25 26  1  0
 27 23  2  0
M  END
$$$$
