MSY.pdb
     RDKit          3D

 27 27  0  0  1  0  0  0  0  0999 V2000
    7.9024  -11.3317   19.7151 C   0  0  0  0  0  0  0  0  0  0  0  0
    8.9767  -12.6319   19.1128 S   0  0  0  0  0  0  0  0  0  0  0  0
    8.2430  -14.2667   19.1579 C   0  0  0  0  0  0  0  0  0  0  0  0
    9.0917  -15.3589   18.6077 C   0  0  0  0  0  0  0  0  0  0  0  0
    8.5209  -16.7333   18.7402 C   0  0  2  0  0  0  0  0  0  0  0  0
    7.2459  -16.8403   18.0450 N   0  0  0  0  0  0  0  0  0  0  0  0
    8.2366  -16.9905   20.1887 C   0  0  0  0  0  0  0  0  0  0  0  0
    7.1677  -16.5974   20.7494 O   0  0  0  0  0  0  0  0  0  0  0  0
   10.4589  -19.7960   22.4512 O   0  0  0  0  0  0  0  0  0  0  0  0
    9.1739  -19.3927   22.7934 C   0  0  0  0  0  0  0  0  0  0  0  0
    8.8964  -17.9534   22.4165 C   0  0  2  0  0  0  0  0  0  0  0  0
    9.1548  -17.6944   21.0217 N   0  0  0  0  0  0  0  0  0  0  0  0
    9.7353  -17.1126   23.3089 C   0  0  0  0  0  0  0  0  0  0  0  0
   10.8381  -16.7053   22.8629 O   0  0  0  0  0  0  0  0  0  0  0  0
    5.1384  -12.7428   26.9337 O   0  0  0  0  0  0  0  0  0  0  0  0
    6.4010  -13.1668   26.5678 C   0  0  0  0  0  0  0  0  0  0  0  0
    7.4880  -13.0011   27.4005 C   0  0  0  0  0  0  0  0  0  0  0  0
    8.7175  -13.4490   26.9688 C   0  0  0  0  0  0  0  0  0  0  0  0
    8.8532  -14.0573   25.7127 C   0  0  0  0  0  0  0  0  0  0  0  0
   10.1769  -14.5154   25.2413 C   0  0  0  0  0  0  0  0  0  0  0  0
   10.3229  -15.9888   25.4862 C   0  0  2  0  0  0  0  0  0  0  0  0
    9.3843  -16.7377   24.6210 N   0  0  0  0  0  0  0  0  0  0  0  0
   10.0262  -16.3776   26.8717 C   0  0  0  0  0  0  0  0  0  0  0  0
   10.7884  -15.9384   27.9377 O   0  0  0  0  0  0  0  0  0  0  0  0
    7.7523  -14.2177   24.8846 C   0  0  0  0  0  0  0  0  0  0  0  0
    6.5248  -13.7683   25.3208 C   0  0  0  0  0  0  0  0  0  0  0  0
    9.0608  -17.1323   27.1397 O   0  0  0  0  0  0  0  0  0  0  0  0
  2  1  1  0
  3  2  1  0
  4  3  1  0
  5  7  1  0
  5  4  1  0
  5  6  1  6
  7  8  2  0
  9 10  1  0
 11 10  1  6
 11 12  1  0
 12  7  1  0
 13 11  1  0
 14 13  2  0
 16 15  1  0
 16 26  2  0
 17 16  1  0
 18 17  2  0
 18 19  1  0
 19 25  2  0
 20 19  1  0
 21 20  1  1
 21 22  1  0
 22 13  1  0
 23 24  1  0
 23 21  1  0
 25 26  1  0
 27 23  2  0
M  END
$$$$
