MSY.pdb
     RDKit          3D

 27 27  0  0  1  0  0  0  0  0999 V2000
    5.4467  -11.2030   26.6359 C   0  0  0  0  0  0  0  0  0  0  0  0
    6.8472  -12.2419   26.2277 S   0  0  0  0  0  0  0  0  0  0  0  0
    6.4003  -13.8812   25.6571 C   0  0  0  0  0  0  0  0  0  0  0  0
    7.5388  -14.7314   25.2134 C   0  0  0  0  0  0  0  0  0  0  0  0
    7.1567  -16.0699   24.6706 C   0  0  2  0  0  0  0  0  0  0  0  0
    6.5546  -16.9015   25.7032 N   0  0  0  0  0  0  0  0  0  0  0  0
    8.4029  -16.7762   24.2310 C   0  0  0  0  0  0  0  0  0  0  0  0
    9.1514  -17.3993   25.0451 O   0  0  0  0  0  0  0  0  0  0  0  0
    9.9324  -16.2018   20.3246 O   0  0  0  0  0  0  0  0  0  0  0  0
   10.1971  -17.4205   20.9375 C   0  0  0  0  0  0  0  0  0  0  0  0
   10.0774  -17.3513   22.4447 C   0  0  2  0  0  0  0  0  0  0  0  0
    8.8192  -16.7879   22.8676 N   0  0  0  0  0  0  0  0  0  0  0  0
   11.2380  -16.5586   22.9259 C   0  0  0  0  0  0  0  0  0  0  0  0
   11.4493  -15.4431   22.3855 O   0  0  0  0  0  0  0  0  0  0  0  0
    9.7528  -16.5067   29.5834 O   0  0  0  0  0  0  0  0  0  0  0  0
   10.5317  -16.1528   28.4992 C   0  0  0  0  0  0  0  0  0  0  0  0
   11.8137  -16.6369   28.3421 C   0  0  0  0  0  0  0  0  0  0  0  0
   12.5321  -16.2404   27.2351 C   0  0  0  0  0  0  0  0  0  0  0  0
   11.9676  -15.3661   26.2953 C   0  0  0  0  0  0  0  0  0  0  0  0
   12.7481  -14.9231   25.1211 C   0  0  0  0  0  0  0  0  0  0  0  0
   13.2568  -16.1172   24.3676 C   0  0  2  0  0  0  0  0  0  0  0  0
   12.1207  -16.9666   23.9456 N   0  0  0  0  0  0  0  0  0  0  0  0
   14.1502  -16.9678   25.1658 C   0  0  0  0  0  0  0  0  0  0  0  0
   13.8868  -18.3064   25.3870 O   0  0  0  0  0  0  0  0  0  0  0  0
   10.6776  -14.8862   26.4649 C   0  0  0  0  0  0  0  0  0  0  0  0
    9.9630  -15.2856   27.5735 C   0  0  0  0  0  0  0  0  0  0  0  0
   15.1946  -16.5040   25.6827 O   0  0  0  0  0  0  0  0  0  0  0  0
  2  1  1  0
  3  2  1  0
  4  3  1  0
  5  7  1  0
  5  4  1  0
  5  6  1  1
  7  8  2  0
  9 10  1  0
 11 10  1  6
 11 12  1  0
 12  7  1  0
 13 11  1  0
 14 13  2  0
 16 15  1  0
 16 26  2  0
 17 16  1  0
 18 17  2  0
 18 19  1  0
 19 25  2  0
 20 19  1  0
 21 20  1  1
 21 22  1  0
 22 13  1  0
 23 24  1  0
 23 21  1  0
 25 26  1  0
 27 23  2  0
M  END
$$$$
