MSY.pdb
     RDKit          3D

 27 27  0  0  1  0  0  0  0  0999 V2000
    7.8428  -11.5543   21.5861 C   0  0  0  0  0  0  0  0  0  0  0  0
    7.5112  -12.1776   19.9402 S   0  0  0  0  0  0  0  0  0  0  0  0
    7.4040  -13.9641   19.8425 C   0  0  0  0  0  0  0  0  0  0  0  0
    7.9835  -14.6993   20.9999 C   0  0  0  0  0  0  0  0  0  0  0  0
    8.0104  -16.1863   20.8573 C   0  0  2  0  0  0  0  0  0  0  0  0
    6.7219  -16.6928   20.4064 N   0  0  0  0  0  0  0  0  0  0  0  0
    8.2528  -16.7874   22.2083 C   0  0  0  0  0  0  0  0  0  0  0  0
    7.3057  -17.0594   23.0084 O   0  0  0  0  0  0  0  0  0  0  0  0
   12.1001  -18.1208   23.2671 O   0  0  0  0  0  0  0  0  0  0  0  0
   10.9885  -18.6773   23.8884 C   0  0  0  0  0  0  0  0  0  0  0  0
    9.8148  -17.7234   23.9432 C   0  0  2  0  0  0  0  0  0  0  0  0
    9.5667  -17.0888   22.6723 N   0  0  0  0  0  0  0  0  0  0  0  0
   10.1188  -16.7386   25.0131 C   0  0  0  0  0  0  0  0  0  0  0  0
   10.8327  -15.7484   24.7115 O   0  0  0  0  0  0  0  0  0  0  0  0
    6.2292  -11.7751   24.7250 O   0  0  0  0  0  0  0  0  0  0  0  0
    6.8719  -12.6845   25.5419 C   0  0  0  0  0  0  0  0  0  0  0  0
    6.4054  -13.9734   25.6954 C   0  0  0  0  0  0  0  0  0  0  0  0
    7.0984  -14.8259   26.5270 C   0  0  0  0  0  0  0  0  0  0  0  0
    8.2490  -14.3872   27.1979 C   0  0  0  0  0  0  0  0  0  0  0  0
    8.9775  -15.2956   28.1081 C   0  0  0  0  0  0  0  0  0  0  0  0
   10.1462  -15.9057   27.3910 C   0  0  2  0  0  0  0  0  0  0  0  0
    9.6646  -16.8337   26.3435 N   0  0  0  0  0  0  0  0  0  0  0  0
   11.0266  -16.6821   28.2747 C   0  0  0  0  0  0  0  0  0  0  0  0
   11.2795  -18.0246   28.0654 O   0  0  0  0  0  0  0  0  0  0  0  0
    8.7078  -13.0886   27.0353 C   0  0  0  0  0  0  0  0  0  0  0  0
    8.0114  -12.2399   26.2024 C   0  0  0  0  0  0  0  0  0  0  0  0
   11.5848  -16.1488   29.2633 O   0  0  0  0  0  0  0  0  0  0  0  0
  2  1  1  0
  3  2  1  0
  4  3  1  0
  5  7  1  0
  5  4  1  0
  5  6  1  1
  7  8  2  0
  9 10  1  0
 11 10  1  6
 11 12  1  0
 12  7  1  0
 13 11  1  0
 14 13  2  0
 16 15  1  0
 16 26  2  0
 17 16  1  0
 18 17  2  0
 18 19  1  0
 19 25  2  0
 20 19  1  0
 21 20  1  1
 21 22  1  0
 22 13  1  0
 23 24  1  0
 23 21  1  0
 25 26  1  0
 27 23  2  0
M  END
$$$$
