MSY.pdb
     RDKit          3D

 27 27  0  0  1  0  0  0  0  0999 V2000
    8.4303  -11.9000   20.7925 C   0  0  0  0  0  0  0  0  0  0  0  0
    7.6804  -12.2558   19.2055 S   0  0  0  0  0  0  0  0  0  0  0  0
    8.1743  -13.8274   18.4990 C   0  0  0  0  0  0  0  0  0  0  0  0
    8.8431  -14.7653   19.4419 C   0  0  0  0  0  0  0  0  0  0  0  0
    9.1777  -16.1054   18.8724 C   0  0  2  0  0  0  0  0  0  0  0  0
    7.9890  -16.7643   18.3497 N   0  0  0  0  0  0  0  0  0  0  0  0
    9.6924  -16.9752   19.9786 C   0  0  0  0  0  0  0  0  0  0  0  0
    8.9228  -17.5031   20.8390 O   0  0  0  0  0  0  0  0  0  0  0  0
   13.9069  -17.5517   20.6944 O   0  0  0  0  0  0  0  0  0  0  0  0
   12.9925  -18.5697   20.9366 C   0  0  0  0  0  0  0  0  0  0  0  0
   11.6007  -18.0461   21.2185 C   0  0  2  0  0  0  0  0  0  0  0  0
   11.0815  -17.2596   20.1271 N   0  0  0  0  0  0  0  0  0  0  0  0
   11.6886  -17.2672   22.4804 C   0  0  0  0  0  0  0  0  0  0  0  0
   11.5420  -16.0204   22.4101 O   0  0  0  0  0  0  0  0  0  0  0  0
   10.0367  -13.7340   30.0312 O   0  0  0  0  0  0  0  0  0  0  0  0
   10.2151  -14.3868   28.8272 C   0  0  0  0  0  0  0  0  0  0  0  0
   11.4008  -15.0198   28.5176 C   0  0  0  0  0  0  0  0  0  0  0  0
   11.5067  -15.6511   27.2974 C   0  0  0  0  0  0  0  0  0  0  0  0
   10.4315  -15.6460   26.3972 C   0  0  0  0  0  0  0  0  0  0  0  0
   10.5551  -16.3030   25.0791 C   0  0  0  0  0  0  0  0  0  0  0  0
   11.8824  -16.9962   24.9779 C   0  0  2  0  0  0  0  0  0  0  0  0
   11.9246  -17.8251   23.7526 N   0  0  0  0  0  0  0  0  0  0  0  0
   12.1539  -17.8945   26.1085 C   0  0  0  0  0  0  0  0  0  0  0  0
   12.2729  -19.2621   25.9485 O   0  0  0  0  0  0  0  0  0  0  0  0
    9.2446  -15.0057   26.7204 C   0  0  0  0  0  0  0  0  0  0  0  0
    9.1435  -14.3759   27.9419 C   0  0  0  0  0  0  0  0  0  0  0  0
   12.2869  -17.4477   27.2729 O   0  0  0  0  0  0  0  0  0  0  0  0
  2  1  1  0
  3  2  1  0
  4  3  1  0
  5  7  1  0
  5  4  1  0
  5  6  1  1
  7  8  2  0
  9 10  1  0
 11 10  1  6
 11 12  1  0
 12  7  1  0
 13 11  1  0
 14 13  2  0
 16 15  1  0
 16 26  2  0
 17 16  1  0
 18 17  2  0
 18 19  1  0
 19 25  2  0
 20 19  1  0
 21 20  1  1
 21 22  1  0
 22 13  1  0
 23 24  1  0
 23 21  1  0
 25 26  1  0
 27 23  2  0
M  END
$$$$
