EAN.pdb
     RDKit          3D

 23 22  0  0  1  0  0  0  0  0999 V2000
    7.6367  -17.8520   17.8519 N   0  0  0  0  0  0  0  0  0  0  0  0
    9.0308  -17.4352   17.7968 C   0  0  1  0  0  0  0  0  0  0  0  0
    9.3655  -17.1157   16.3741 C   0  0  0  0  0  0  0  0  0  0  0  0
    8.1956  -16.7304   15.5251 C   0  0  0  0  0  0  0  0  0  0  0  0
    8.5498  -16.4132   14.1217 C   0  0  0  0  0  0  0  0  0  0  0  0
    9.0216  -17.2785   13.3621 O   0  0  0  0  0  0  0  0  0  0  0  0
    9.2081  -16.1582   18.5772 C   0  0  0  0  0  0  0  0  0  0  0  0
   10.3704  -15.7096   18.7307 O   0  0  0  0  0  0  0  0  0  0  0  0
    8.3709  -15.1372   13.5928 O   0  0  0  0  0  0  0  0  0  0  0  0
    6.9967  -13.4022   19.8752 C   0  0  0  0  0  0  0  0  0  0  0  0
    8.2426  -14.2588   19.9239 C   0  0  2  0  0  0  0  0  0  0  0  0
    8.1349  -15.4472   19.1403 N   0  0  0  0  0  0  0  0  0  0  0  0
    8.5712  -14.5192   21.3399 C   0  0  0  0  0  0  0  0  0  0  0  0
    7.7023  -14.4975   22.2460 O   0  0  0  0  0  0  0  0  0  0  0  0
    8.9587  -18.5525   24.3797 N   0  0  0  0  0  0  0  0  0  0  0  0
    9.9043  -18.1697   23.3962 C   0  0  0  0  0  0  0  0  0  0  0  0
   11.0141  -18.7491   23.4079 O   0  0  0  0  0  0  0  0  0  0  0  0
    9.5999  -17.1324   22.3976 C   0  0  0  0  0  0  0  0  0  0  0  0
   10.1938  -15.7905   22.7766 C   0  0  2  0  0  0  0  0  0  0  0  0
    9.9204  -14.8139   21.7519 N   0  0  0  0  0  0  0  0  0  0  0  0
   11.6357  -15.8876   23.0291 C   0  0  0  0  0  0  0  0  0  0  0  0
   12.1795  -16.1828   24.2702 O   0  0  0  0  0  0  0  0  0  0  0  0
   12.4443  -15.6981   22.0889 O   0  0  0  0  0  0  0  0  0  0  0  0
  2  1  1  6
  3  2  1  0
  4  3  1  0
  4  5  1  0
  5  6  2  0
  7  2  1  0
  8  7  2  0
  9  5  1  0
 11 10  1  1
 11 12  1  0
 11 13  1  0
 12  7  1  0
 13 20  1  0
 14 13  2  0
 16 17  2  0
 16 15  1  0
 18 16  1  0
 19 18  1  6
 19 21  1  0
 20 19  1  0
 21 23  2  0
 21 22  1  0
M  END
$$$$
