EAN.pdb
     RDKit          3D

 23 22  0  0  1  0  0  0  0  0999 V2000
    8.9867  -16.6970   19.3302 N   0  0  0  0  0  0  0  0  0  0  0  0
    7.8475  -16.2048   20.0919 C   0  0  1  0  0  0  0  0  0  0  0  0
    6.8889  -17.3378   20.2806 C   0  0  0  0  0  0  0  0  0  0  0  0
    6.3645  -17.9344   19.0129 C   0  0  0  0  0  0  0  0  0  0  0  0
    5.3911  -19.0316   19.2225 C   0  0  0  0  0  0  0  0  0  0  0  0
    4.8285  -19.5895   18.2630 O   0  0  0  0  0  0  0  0  0  0  0  0
    8.3001  -15.7910   21.4685 C   0  0  0  0  0  0  0  0  0  0  0  0
    9.2542  -16.4141   21.9949 O   0  0  0  0  0  0  0  0  0  0  0  0
    5.0639  -19.4854   20.4981 O   0  0  0  0  0  0  0  0  0  0  0  0
    7.4169  -13.0228   23.9153 C   0  0  0  0  0  0  0  0  0  0  0  0
    8.0652  -14.3271   23.5069 C   0  0  2  0  0  0  0  0  0  0  0  0
    7.7051  -14.7418   22.1893 N   0  0  0  0  0  0  0  0  0  0  0  0
    7.7655  -15.3376   24.5411 C   0  0  0  0  0  0  0  0  0  0  0  0
    6.7231  -16.0370   24.5146 O   0  0  0  0  0  0  0  0  0  0  0  0
    9.8185  -19.5202   26.5943 N   0  0  0  0  0  0  0  0  0  0  0  0
    9.8844  -19.0819   25.2485 C   0  0  0  0  0  0  0  0  0  0  0  0
   10.2859  -19.9042   24.3939 O   0  0  0  0  0  0  0  0  0  0  0  0
    9.4975  -17.7151   24.8637 C   0  0  0  0  0  0  0  0  0  0  0  0
    9.0165  -16.9073   26.0525 C   0  0  2  0  0  0  0  0  0  0  0  0
    8.6664  -15.5705   25.6416 N   0  0  0  0  0  0  0  0  0  0  0  0
   10.0158  -16.8751   27.1261 C   0  0  0  0  0  0  0  0  0  0  0  0
    9.8489  -17.5065   28.3494 O   0  0  0  0  0  0  0  0  0  0  0  0
   11.0897  -16.2495   26.9555 O   0  0  0  0  0  0  0  0  0  0  0  0
  2  1  1  6
  3  2  1  0
  4  3  1  0
  4  5  1  0
  5  6  2  0
  7  2  1  0
  8  7  2  0
  9  5  1  0
 11 10  1  1
 11 12  1  0
 11 13  1  0
 12  7  1  0
 13 20  1  0
 14 13  2  0
 16 17  2  0
 16 15  1  0
 18 16  1  0
 19 18  1  6
 19 21  1  0
 20 19  1  0
 21 23  2  0
 21 22  1  0
M  END
$$$$
