EAN.pdb
     RDKit          3D

 23 22  0  0  1  0  0  0  0  0999 V2000
    8.0889  -14.1756   14.9150 N   0  0  0  0  0  0  0  0  0  0  0  0
    8.0325  -15.0904   16.0465 C   0  0  1  0  0  0  0  0  0  0  0  0
    9.0682  -16.1502   15.8407 C   0  0  0  0  0  0  0  0  0  0  0  0
   10.0537  -15.8621   14.7528 C   0  0  0  0  0  0  0  0  0  0  0  0
   11.0598  -16.9317   14.5544 C   0  0  0  0  0  0  0  0  0  0  0  0
   12.2403  -16.6641   14.2657 O   0  0  0  0  0  0  0  0  0  0  0  0
    8.4113  -14.3584   17.3082 C   0  0  0  0  0  0  0  0  0  0  0  0
    9.4147  -13.6047   17.2819 O   0  0  0  0  0  0  0  0  0  0  0  0
   10.7299  -18.2789   14.6817 O   0  0  0  0  0  0  0  0  0  0  0  0
    6.6976  -13.4889   20.5209 C   0  0  0  0  0  0  0  0  0  0  0  0
    7.9477  -13.7462   19.7089 C   0  0  2  0  0  0  0  0  0  0  0  0
    7.6948  -14.4799   18.5108 N   0  0  0  0  0  0  0  0  0  0  0  0
    8.9476  -14.3860   20.5872 C   0  0  0  0  0  0  0  0  0  0  0  0
    9.3157  -13.8720   21.6719 O   0  0  0  0  0  0  0  0  0  0  0  0
   12.5142  -15.9316   23.8858 N   0  0  0  0  0  0  0  0  0  0  0  0
   12.4825  -16.1875   22.4925 C   0  0  0  0  0  0  0  0  0  0  0  0
   13.2760  -17.0473   22.0467 O   0  0  0  0  0  0  0  0  0  0  0  0
   11.5559  -15.4740   21.5992 C   0  0  0  0  0  0  0  0  0  0  0  0
   10.4008  -16.3532   21.1632 C   0  0  2  0  0  0  0  0  0  0  0  0
    9.5543  -15.6451   20.2356 N   0  0  0  0  0  0  0  0  0  0  0  0
    9.6238  -16.8358   22.3101 C   0  0  0  0  0  0  0  0  0  0  0  0
   10.0931  -17.7773   23.2138 O   0  0  0  0  0  0  0  0  0  0  0  0
    8.4684  -16.3895   22.5087 O   0  0  0  0  0  0  0  0  0  0  0  0
  2  1  1  6
  3  2  1  0
  4  3  1  0
  4  5  1  0
  5  6  2  0
  7  2  1  0
  8  7  2  0
  9  5  1  0
 11 10  1  1
 11 12  1  0
 11 13  1  0
 12  7  1  0
 13 20  1  0
 14 13  2  0
 16 17  2  0
 16 15  1  0
 18 16  1  0
 19 18  1  1
 19 21  1  0
 20 19  1  0
 21 23  2  0
 21 22  1  0
M  END
$$$$
