EAN.pdb
     RDKit          3D

 23 22  0  0  1  0  0  0  0  0999 V2000
   10.5155  -21.3224   15.7676 N   0  0  0  0  0  0  0  0  0  0  0  0
   11.3661  -20.2615   16.2881 C   0  0  1  0  0  0  0  0  0  0  0  0
   11.9123  -19.4910   15.1278 C   0  0  0  0  0  0  0  0  0  0  0  0
   10.8882  -19.0425   14.1339 C   0  0  0  0  0  0  0  0  0  0  0  0
   11.4620  -18.4086   12.9239 C   0  0  0  0  0  0  0  0  0  0  0  0
   12.2422  -19.0272   12.1775 O   0  0  0  0  0  0  0  0  0  0  0  0
   10.5350  -19.2954   17.0925 C   0  0  0  0  0  0  0  0  0  0  0  0
   11.1243  -18.3886   17.7298 O   0  0  0  0  0  0  0  0  0  0  0  0
   11.1547  -17.0970   12.5696 O   0  0  0  0  0  0  0  0  0  0  0  0
    6.8374  -18.5610   17.4864 C   0  0  0  0  0  0  0  0  0  0  0  0
    8.2920  -18.4681   17.8913 C   0  0  2  0  0  0  0  0  0  0  0  0
    9.1331  -19.3621   17.1625 N   0  0  0  0  0  0  0  0  0  0  0  0
    8.3781  -18.6454   19.3548 C   0  0  0  0  0  0  0  0  0  0  0  0
    7.7240  -17.9348   20.1571 O   0  0  0  0  0  0  0  0  0  0  0  0
    9.4241  -22.7068   23.6517 N   0  0  0  0  0  0  0  0  0  0  0  0
    8.8330  -21.5208   23.1500 C   0  0  0  0  0  0  0  0  0  0  0  0
    8.3754  -20.7076   23.9849 O   0  0  0  0  0  0  0  0  0  0  0  0
    8.7570  -21.2494   21.7056 C   0  0  0  0  0  0  0  0  0  0  0  0
    9.2702  -19.8653   21.3621 C   0  0  2  0  0  0  0  0  0  0  0  0
    9.2271  -19.6541   19.9366 N   0  0  0  0  0  0  0  0  0  0  0  0
   10.6258  -19.6462   21.8782 C   0  0  0  0  0  0  0  0  0  0  0  0
   11.7436  -20.3208   21.4105 O   0  0  0  0  0  0  0  0  0  0  0  0
   10.8136  -18.8086   22.7930 O   0  0  0  0  0  0  0  0  0  0  0  0
  2  1  1  6
  3  2  1  0
  4  3  1  0
  4  5  1  0
  5  6  2  0
  7  2  1  0
  8  7  2  0
  9  5  1  0
 11 10  1  6
 11 12  1  0
 11 13  1  0
 12  7  1  0
 13 20  1  0
 14 13  2  0
 16 17  2  0
 16 15  1  0
 18 16  1  0
 19 18  1  6
 19 21  1  0
 20 19  1  0
 21 23  2  0
 21 22  1  0
M  END
$$$$
