EAN.pdb
     RDKit          3D

 23 22  0  0  1  0  0  0  0  0999 V2000
    8.2096  -18.4861   19.3703 N   0  0  0  0  0  0  0  0  0  0  0  0
    9.3988  -17.6889   19.1051 C   0  0  1  0  0  0  0  0  0  0  0  0
    9.4230  -17.3598   17.6459 C   0  0  0  0  0  0  0  0  0  0  0  0
    8.4321  -18.1127   16.8159 C   0  0  0  0  0  0  0  0  0  0  0  0
    8.4448  -17.7424   15.3813 C   0  0  0  0  0  0  0  0  0  0  0  0
    8.9932  -18.4667   14.5309 O   0  0  0  0  0  0  0  0  0  0  0  0
    9.3026  -16.3768   19.8401 C   0  0  0  0  0  0  0  0  0  0  0  0
   10.3018  -15.6172   19.8377 O   0  0  0  0  0  0  0  0  0  0  0  0
    7.8456  -16.5715   14.9228 O   0  0  0  0  0  0  0  0  0  0  0  0
    6.5897  -14.3432   21.5066 C   0  0  0  0  0  0  0  0  0  0  0  0
    8.0252  -14.7792   21.3131 C   0  0  2  0  0  0  0  0  0  0  0  0
    8.1482  -15.9646   20.5272 N   0  0  0  0  0  0  0  0  0  0  0  0
    8.6595  -14.8897   22.6421 C   0  0  0  0  0  0  0  0  0  0  0  0
    8.6554  -13.9448   23.4689 O   0  0  0  0  0  0  0  0  0  0  0  0
   10.1809  -18.9329   26.9866 N   0  0  0  0  0  0  0  0  0  0  0  0
   10.1100  -17.6652   26.3575 C   0  0  0  0  0  0  0  0  0  0  0  0
   10.6069  -16.6911   26.9674 O   0  0  0  0  0  0  0  0  0  0  0  0
    9.4784  -17.4936   25.0394 C   0  0  0  0  0  0  0  0  0  0  0  0
    9.9272  -16.2157   24.3590 C   0  0  2  0  0  0  0  0  0  0  0  0
    9.3202  -16.1016   23.0563 N   0  0  0  0  0  0  0  0  0  0  0  0
   11.3888  -16.1394   24.2588 C   0  0  0  0  0  0  0  0  0  0  0  0
   12.1253  -16.7807   23.2742 O   0  0  0  0  0  0  0  0  0  0  0  0
   12.0336  -15.4640   25.0965 O   0  0  0  0  0  0  0  0  0  0  0  0
  2  1  1  6
  3  2  1  0
  4  3  1  0
  4  5  1  0
  5  6  2  0
  7  2  1  0
  8  7  2  0
  9  5  1  0
 11 10  1  1
 11 12  1  0
 11 13  1  0
 12  7  1  0
 13 20  1  0
 14 13  2  0
 16 17  2  0
 16 15  1  0
 18 16  1  0
 19 18  1  6
 19 21  1  0
 20 19  1  0
 21 23  2  0
 21 22  1  0
M  END
$$$$
