HNL.pdb
     RDKit          3D

 27 27  0  0  1  0  0  0  0  0999 V2000
   19.0230  -11.9839  -16.7162 N   0  0  0  0  0  0  0  0  0  0  0  0
   19.3007  -10.8518  -17.5731 C   0  0  1  0  0  0  0  0  0  0  0  0
   18.0814  -10.7133  -18.4785 C   0  0  0  0  0  0  0  0  0  0  0  0
   18.0469  -11.8941  -19.3803 C   0  0  0  0  0  0  0  0  0  0  0  0
   17.1067  -12.9189  -19.3563 C   0  0  0  0  0  0  0  0  0  0  0  0
   17.4004  -13.8130  -20.3161 N   0  0  0  0  0  0  0  0  0  0  0  0
   18.5038  -13.3960  -20.9603 C   0  0  0  0  0  0  0  0  0  0  0  0
   18.8901  -12.2369  -20.3912 N   0  0  0  0  0  0  0  0  0  0  0  0
   19.4209   -9.6237  -16.7153 C   0  0  0  0  0  0  0  0  0  0  0  0
   18.3765   -9.2649  -16.1443 O   0  0  0  0  0  0  0  0  0  0  0  0
   22.8864   -9.8529  -14.0706 N   0  0  0  0  0  0  0  0  0  0  0  0
   21.9695   -8.7512  -13.9175 C   0  0  0  0  0  0  0  0  0  0  0  0
   21.1493   -8.7323  -12.9476 O   0  0  0  0  0  0  0  0  0  0  0  0
   22.0352   -7.6849  -14.9154 C   0  0  0  0  0  0  0  0  0  0  0  0
   20.8526   -7.7510  -15.8531 C   0  0  2  0  0  0  0  0  0  0  0  0
   20.6168   -8.9301  -16.5669 N   0  0  0  0  0  0  0  0  0  0  0  0
   20.6782   -6.4681  -16.5007 C   0  0  0  0  0  0  0  0  0  0  0  0
   21.1521   -6.3407  -17.6728 O   0  0  0  0  0  0  0  0  0  0  0  0
   17.3351   -2.5540  -18.4430 C   0  0  0  0  0  0  0  0  0  0  0  0
   18.7367   -3.1082  -18.7123 C   0  0  2  0  0  0  0  0  0  0  0  0
   18.7991   -3.3757  -20.2094 C   0  0  0  0  0  0  0  0  0  0  0  0
   18.9571   -4.3741  -17.9317 C   0  0  0  0  0  0  0  0  0  0  0  0
   19.7988   -4.1213  -16.7372 C   0  0  2  0  0  0  0  0  0  0  0  0
   20.0392   -5.3442  -15.9737 N   0  0  0  0  0  0  0  0  0  0  0  0
   19.1293   -3.1947  -15.8125 C   0  0  0  0  0  0  0  0  0  0  0  0
   19.2333   -1.8131  -15.8129 O   0  0  0  0  0  0  0  0  0  0  0  0
   18.3607   -3.6639  -14.8892 O   0  0  0  0  0  0  0  0  0  0  0  0
  2  1  1  1
  2  3  1  0
  4  3  1  0
  5  4  2  0
  6  5  1  0
  7  6  1  0
  7  8  2  0
  8  4  1  0
  9  2  1  0
 10  9  2  0
 12 14  1  0
 12 11  1  0
 13 12  2  0
 15 14  1  6
 15 16  1  0
 16  9  1  0
 17 15  1  0
 17 18  2  0
 20 19  1  6
 20 22  1  0
 20 21  1  0
 23 22  1  6
 23 24  1  0
 24 17  1  0
 25 23  1  0
 26 25  1  0
 27 25  2  0
M  END
$$$$
