HNL.pdb
     RDKit          3D

 27 27  0  0  1  0  0  0  0  0999 V2000
   24.3874  -17.8216  -15.1998 N   0  0  0  0  0  0  0  0  0  0  0  0
   23.3119  -18.7204  -14.8413 C   0  0  1  0  0  0  0  0  0  0  0  0
   22.5865  -19.0336  -16.1457 C   0  0  0  0  0  0  0  0  0  0  0  0
   22.0915  -17.7514  -16.7111 C   0  0  0  0  0  0  0  0  0  0  0  0
   22.1755  -16.5008  -16.1079 C   0  0  0  0  0  0  0  0  0  0  0  0
   21.6190  -15.5809  -16.9146 N   0  0  0  0  0  0  0  0  0  0  0  0
   21.1771  -16.2006  -18.0224 C   0  0  0  0  0  0  0  0  0  0  0  0
   21.4650  -17.5110  -17.8944 N   0  0  0  0  0  0  0  0  0  0  0  0
   23.9110  -19.9851  -14.2935 C   0  0  0  0  0  0  0  0  0  0  0  0
   23.1328  -20.9500  -14.2005 O   0  0  0  0  0  0  0  0  0  0  0  0
   27.3974  -22.7146  -15.8485 N   0  0  0  0  0  0  0  0  0  0  0  0
   27.4989  -21.4406  -15.1816 C   0  0  0  0  0  0  0  0  0  0  0  0
   27.7131  -20.3834  -15.8524 O   0  0  0  0  0  0  0  0  0  0  0  0
   27.3454  -21.4346  -13.7278 C   0  0  0  0  0  0  0  0  0  0  0  0
   25.9111  -21.1633  -13.3387 C   0  0  2  0  0  0  0  0  0  0  0  0
   25.2454  -20.0761  -13.9133 N   0  0  0  0  0  0  0  0  0  0  0  0
   25.7279  -21.4614  -11.9339 C   0  0  0  0  0  0  0  0  0  0  0  0
   25.8985  -22.6667  -11.5695 O   0  0  0  0  0  0  0  0  0  0  0  0
   27.8679  -21.1596   -8.4031 C   0  0  0  0  0  0  0  0  0  0  0  0
   27.1253  -19.8749   -8.7803 C   0  0  2  0  0  0  0  0  0  0  0  0
   27.6911  -18.7860   -7.8798 C   0  0  0  0  0  0  0  0  0  0  0  0
   25.6476  -20.0408   -8.5576 C   0  0  0  0  0  0  0  0  0  0  0  0
   25.0608  -20.9652   -9.5578 C   0  0  2  0  0  0  0  0  0  0  0  0
   25.3816  -20.5604  -10.9251 N   0  0  0  0  0  0  0  0  0  0  0  0
   23.5929  -20.9650   -9.4721 C   0  0  0  0  0  0  0  0  0  0  0  0
   22.8299  -21.4461   -8.4205 O   0  0  0  0  0  0  0  0  0  0  0  0
   22.9000  -20.4831  -10.4473 O   0  0  0  0  0  0  0  0  0  0  0  0
  2  1  1  6
  2  3  1  0
  4  3  1  0
  5  4  2  0
  6  5  1  0
  7  6  1  0
  7  8  2  0
  8  4  1  0
  9  2  1  0
 10  9  2  0
 12 14  1  0
 12 11  1  0
 13 12  2  0
 15 14  1  1
 15 16  1  0
 16  9  1  0
 17 15  1  0
 17 18  2  0
 20 19  1  1
 20 22  1  0
 20 21  1  0
 23 22  1  1
 23 24  1  0
 24 17  1  0
 25 23  1  0
 26 25  1  0
 27 25  2  0
M  END
$$$$
