HNL.pdb
     RDKit          3D

 27 27  0  0  1  0  0  0  0  0999 V2000
   23.5046  -18.3505  -18.5889 N   0  0  0  0  0  0  0  0  0  0  0  0
   23.9323  -18.1901  -17.2162 C   0  0  1  0  0  0  0  0  0  0  0  0
   25.3940  -17.7613  -17.2890 C   0  0  0  0  0  0  0  0  0  0  0  0
   26.0778  -18.6387  -18.2746 C   0  0  0  0  0  0  0  0  0  0  0  0
   25.5143  -19.7230  -18.9390 C   0  0  0  0  0  0  0  0  0  0  0  0
   26.4354  -20.2757  -19.7471 N   0  0  0  0  0  0  0  0  0  0  0  0
   27.5788  -19.5801  -19.6242 C   0  0  0  0  0  0  0  0  0  0  0  0
   27.3575  -18.5928  -18.7338 N   0  0  0  0  0  0  0  0  0  0  0  0
   23.1247  -17.0873  -16.5917 C   0  0  0  0  0  0  0  0  0  0  0  0
   23.4159  -16.8102  -15.4153 O   0  0  0  0  0  0  0  0  0  0  0  0
   23.1609  -12.9109  -16.0812 N   0  0  0  0  0  0  0  0  0  0  0  0
   22.7220  -13.5603  -17.2910 C   0  0  0  0  0  0  0  0  0  0  0  0
   23.5226  -13.7016  -18.2671 O   0  0  0  0  0  0  0  0  0  0  0  0
   21.3397  -14.0346  -17.3299 C   0  0  0  0  0  0  0  0  0  0  0  0
   21.2385  -15.4437  -16.7948 C   0  0  2  0  0  0  0  0  0  0  0  0
   22.1171  -16.4185  -17.2779 N   0  0  0  0  0  0  0  0  0  0  0  0
   19.8476  -15.7746  -16.5676 C   0  0  0  0  0  0  0  0  0  0  0  0
   19.1909  -16.2305  -17.5553 O   0  0  0  0  0  0  0  0  0  0  0  0
   15.5108  -16.6295  -12.2699 C   0  0  0  0  0  0  0  0  0  0  0  0
   15.9120  -16.7048  -13.7456 C   0  0  2  0  0  0  0  0  0  0  0  0
   15.5116  -18.0958  -14.2165 C   0  0  0  0  0  0  0  0  0  0  0  0
   17.3929  -16.4935  -13.8960 C   0  0  0  0  0  0  0  0  0  0  0  0
   17.7178  -15.9501  -15.2372 C   0  0  2  0  0  0  0  0  0  0  0  0
   19.1416  -15.6473  -15.3699 N   0  0  0  0  0  0  0  0  0  0  0  0
   17.0131  -14.6811  -15.4719 C   0  0  0  0  0  0  0  0  0  0  0  0
   15.8355  -14.5129  -16.1823 O   0  0  0  0  0  0  0  0  0  0  0  0
   17.4993  -13.5868  -14.9931 O   0  0  0  0  0  0  0  0  0  0  0  0
  2  1  1  6
  2  3  1  0
  4  3  1  0
  5  4  2  0
  6  5  1  0
  7  6  1  0
  7  8  2  0
  8  4  1  0
  9  2  1  0
 10  9  2  0
 12 14  1  0
 12 11  1  0
 13 12  2  0
 15 14  1  6
 15 16  1  0
 16  9  1  0
 17 15  1  0
 17 18  2  0
 20 19  1  1
 20 22  1  0
 20 21  1  0
 23 22  1  1
 23 24  1  0
 24 17  1  0
 25 23  1  0
 26 25  1  0
 27 25  2  0
M  END
$$$$
