HNL.pdb
     RDKit          3D

 27 27  0  0  1  0  0  0  0  0999 V2000
   27.1246  -20.5595  -17.4704 N   0  0  0  0  0  0  0  0  0  0  0  0
   27.3376  -21.1467  -16.1655 C   0  0  1  0  0  0  0  0  0  0  0  0
   28.7804  -20.8172  -15.7974 C   0  0  0  0  0  0  0  0  0  0  0  0
   29.6678  -21.7066  -16.5914 C   0  0  0  0  0  0  0  0  0  0  0  0
   30.0264  -23.0109  -16.2673 C   0  0  0  0  0  0  0  0  0  0  0  0
   30.8434  -23.4957  -17.2182 N   0  0  0  0  0  0  0  0  0  0  0  0
   31.0238  -22.5422  -18.1482 C   0  0  0  0  0  0  0  0  0  0  0  0
   30.3117  -21.4640  -17.7649 N   0  0  0  0  0  0  0  0  0  0  0  0
   26.4135  -20.4790  -15.1864 C   0  0  0  0  0  0  0  0  0  0  0  0
   26.2913  -19.2489  -15.3184 O   0  0  0  0  0  0  0  0  0  0  0  0
   23.3678  -19.2934  -11.5291 N   0  0  0  0  0  0  0  0  0  0  0  0
   22.6396  -19.7301  -12.6940 C   0  0  0  0  0  0  0  0  0  0  0  0
   21.4093  -19.4414  -12.8240 O   0  0  0  0  0  0  0  0  0  0  0  0
   23.3776  -20.5037  -13.6909 C   0  0  0  0  0  0  0  0  0  0  0  0
   24.8136  -20.7006  -13.2650 C   0  0  2  0  0  0  0  0  0  0  0  0
   25.7382  -21.1838  -14.1962 N   0  0  0  0  0  0  0  0  0  0  0  0
   24.8504  -21.1757  -11.8981 C   0  0  0  0  0  0  0  0  0  0  0  0
   24.6339  -22.4133  -11.7080 O   0  0  0  0  0  0  0  0  0  0  0  0
   28.0516  -21.1558   -8.8521 C   0  0  0  0  0  0  0  0  0  0  0  0
   27.2474  -19.8541   -8.9053 C   0  0  2  0  0  0  0  0  0  0  0  0
   27.9604  -18.8847   -7.9732 C   0  0  0  0  0  0  0  0  0  0  0  0
   25.8344  -20.0937   -8.4508 C   0  0  0  0  0  0  0  0  0  0  0  0
   25.1127  -20.9727   -9.4027 C   0  0  2  0  0  0  0  0  0  0  0  0
   25.1012  -20.4158  -10.7540 N   0  0  0  0  0  0  0  0  0  0  0  0
   23.7017  -21.1165   -9.0148 C   0  0  0  0  0  0  0  0  0  0  0  0
   23.2233  -21.6904   -7.8480 O   0  0  0  0  0  0  0  0  0  0  0  0
   22.7787  -20.6846   -9.8053 O   0  0  0  0  0  0  0  0  0  0  0  0
  2  1  1  6
  2  3  1  0
  4  3  1  0
  5  4  2  0
  6  5  1  0
  7  6  1  0
  7  8  2  0
  8  4  1  0
  9  2  1  0
 10  9  2  0
 12 14  1  0
 12 11  1  0
 13 12  2  0
 15 14  1  6
 15 16  1  0
 16  9  1  0
 17 15  1  0
 17 18  2  0
 20 19  1  1
 20 22  1  0
 20 21  1  0
 23 22  1  1
 23 24  1  0
 24 17  1  0
 25 23  1  0
 26 25  1  0
 27 25  2  0
M  END
$$$$
