HNL.pdb
     RDKit          3D

 27 27  0  0  1  0  0  0  0  0999 V2000
   21.5295  -16.4469  -23.8362 N   0  0  0  0  0  0  0  0  0  0  0  0
   22.2387  -15.8182  -22.7432 C   0  0  1  0  0  0  0  0  0  0  0  0
   23.7083  -15.8223  -23.1508 C   0  0  0  0  0  0  0  0  0  0  0  0
   24.1858  -17.2294  -23.1200 C   0  0  0  0  0  0  0  0  0  0  0  0
   23.9293  -18.1622  -22.1204 C   0  0  0  0  0  0  0  0  0  0  0  0
   24.5273  -19.3244  -22.4343 N   0  0  0  0  0  0  0  0  0  0  0  0
   25.1634  -19.1702  -23.6082 C   0  0  0  0  0  0  0  0  0  0  0  0
   24.9540  -17.9033  -24.0178 N   0  0  0  0  0  0  0  0  0  0  0  0
   21.7639  -14.3975  -22.6223 C   0  0  0  0  0  0  0  0  0  0  0  0
   21.7389  -13.7489  -23.6826 O   0  0  0  0  0  0  0  0  0  0  0  0
   18.4094  -13.8128  -18.8571 N   0  0  0  0  0  0  0  0  0  0  0  0
   18.8136  -13.1096  -20.0488 C   0  0  0  0  0  0  0  0  0  0  0  0
   18.1273  -13.2089  -21.1132 O   0  0  0  0  0  0  0  0  0  0  0  0
   20.0260  -12.2971  -19.9652 C   0  0  0  0  0  0  0  0  0  0  0  0
   20.9216  -12.5418  -21.1569 C   0  0  2  0  0  0  0  0  0  0  0  0
   21.3780  -13.8394  -21.4086 N   0  0  0  0  0  0  0  0  0  0  0  0
   21.8162  -11.4164  -21.3271 C   0  0  0  0  0  0  0  0  0  0  0  0
   23.0448  -11.6760  -21.5215 O   0  0  0  0  0  0  0  0  0  0  0  0
   24.4832   -7.9492  -24.5538 C   0  0  0  0  0  0  0  0  0  0  0  0
   24.1102   -8.0352  -23.0713 C   0  0  2  0  0  0  0  0  0  0  0  0
   25.4121   -8.2993  -22.3282 C   0  0  0  0  0  0  0  0  0  0  0  0
   23.1271   -9.1497  -22.8435 C   0  0  0  0  0  0  0  0  0  0  0  0
   22.4295   -8.9847  -21.5452 C   0  0  2  0  0  0  0  0  0  0  0  0
   21.4735  -10.0632  -21.3017 N   0  0  0  0  0  0  0  0  0  0  0  0
   21.6457   -7.7408  -21.5272 C   0  0  0  0  0  0  0  0  0  0  0  0
   22.1425   -6.4573  -21.3673 O   0  0  0  0  0  0  0  0  0  0  0  0
   20.3648   -7.7953  -21.6669 O   0  0  0  0  0  0  0  0  0  0  0  0
  2  1  1  6
  2  3  1  0
  4  3  1  0
  5  4  2  0
  6  5  1  0
  7  6  1  0
  7  8  2  0
  8  4  1  0
  9  2  1  0
 10  9  2  0
 12 14  1  0
 12 11  1  0
 13 12  2  0
 15 14  1  1
 15 16  1  0
 16  9  1  0
 17 15  1  0
 17 18  2  0
 20 19  1  6
 20 22  1  0
 20 21  1  0
 23 22  1  6
 23 24  1  0
 24 17  1  0
 25 23  1  0
 26 25  1  0
 27 25  2  0
M  END
$$$$
