HNL.pdb
     RDKit          3D

 27 27  0  0  1  0  0  0  0  0999 V2000
   27.6349  -20.1803  -18.8937 N   0  0  0  0  0  0  0  0  0  0  0  0
   27.8588  -20.5183  -17.5049 C   0  0  1  0  0  0  0  0  0  0  0  0
   29.2247  -19.9367  -17.1558 C   0  0  0  0  0  0  0  0  0  0  0  0
   29.8191  -19.3892  -18.4031 C   0  0  0  0  0  0  0  0  0  0  0  0
   29.9015  -18.0454  -18.7528 C   0  0  0  0  0  0  0  0  0  0  0  0
   30.4980  -17.9349  -19.9523 N   0  0  0  0  0  0  0  0  0  0  0  0
   30.8038  -19.1688  -20.3887 C   0  0  0  0  0  0  0  0  0  0  0  0
   30.3917  -20.0432  -19.4495 N   0  0  0  0  0  0  0  0  0  0  0  0
   26.8062  -19.8398  -16.6741 C   0  0  0  0  0  0  0  0  0  0  0  0
   27.2240  -18.9849  -15.8741 O   0  0  0  0  0  0  0  0  0  0  0  0
   23.6793  -17.7357  -18.8940 N   0  0  0  0  0  0  0  0  0  0  0  0
   23.8795  -17.7375  -17.4664 C   0  0  0  0  0  0  0  0  0  0  0  0
   24.5306  -16.7986  -16.9111 O   0  0  0  0  0  0  0  0  0  0  0  0
   23.3060  -18.8519  -16.7137 C   0  0  0  0  0  0  0  0  0  0  0  0
   24.3882  -19.6520  -16.0275 C   0  0  2  0  0  0  0  0  0  0  0  0
   25.4542  -20.1441  -16.7871 N   0  0  0  0  0  0  0  0  0  0  0  0
   23.7971  -20.4760  -14.9944 C   0  0  0  0  0  0  0  0  0  0  0  0
   23.4660  -21.6601  -15.3153 O   0  0  0  0  0  0  0  0  0  0  0  0
   25.6624  -22.2106  -11.8188 C   0  0  0  0  0  0  0  0  0  0  0  0
   25.1502  -20.8140  -11.4563 C   0  0  2  0  0  0  0  0  0  0  0  0
   25.7961  -20.4658  -10.1228 C   0  0  0  0  0  0  0  0  0  0  0  0
   23.6511  -20.8210  -11.3404 C   0  0  0  0  0  0  0  0  0  0  0  0
   23.0175  -21.0274  -12.6653 C   0  0  2  0  0  0  0  0  0  0  0  0
   23.5492  -20.1091  -13.6704 N   0  0  0  0  0  0  0  0  0  0  0  0
   21.5729  -20.7609  -12.6011 C   0  0  0  0  0  0  0  0  0  0  0  0
   20.6108  -21.5740  -12.0241 O   0  0  0  0  0  0  0  0  0  0  0  0
   21.1032  -19.6782  -13.1213 O   0  0  0  0  0  0  0  0  0  0  0  0
  2  1  1  6
  2  3  1  0
  4  3  1  0
  5  4  2  0
  6  5  1  0
  7  6  1  0
  7  8  2  0
  8  4  1  0
  9  2  1  0
 10  9  2  0
 12 14  1  0
 12 11  1  0
 13 12  2  0
 15 14  1  6
 15 16  1  0
 16  9  1  0
 17 15  1  0
 17 18  2  0
 20 19  1  1
 20 22  1  0
 20 21  1  0
 23 22  1  1
 23 24  1  0
 24 17  1  0
 25 23  1  0
 26 25  1  0
 27 25  2  0
M  END
$$$$
