HNL.pdb
     RDKit          3D

 27 27  0  0  1  0  0  0  0  0999 V2000
   19.8809  -11.9705  -15.2960 N   0  0  0  0  0  0  0  0  0  0  0  0
   19.1294  -10.9080  -15.9280 C   0  0  1  0  0  0  0  0  0  0  0  0
   17.6940  -11.4159  -16.0149 C   0  0  0  0  0  0  0  0  0  0  0  0
   17.6896  -12.6237  -16.8809 C   0  0  0  0  0  0  0  0  0  0  0  0
   17.9892  -12.6622  -18.2387 C   0  0  0  0  0  0  0  0  0  0  0  0
   17.8761  -13.9260  -18.6823 N   0  0  0  0  0  0  0  0  0  0  0  0
   17.5117  -14.7062  -17.6504 C   0  0  0  0  0  0  0  0  0  0  0  0
   17.4004  -13.9149  -16.5651 N   0  0  0  0  0  0  0  0  0  0  0  0
   19.1723   -9.6991  -15.0364 C   0  0  0  0  0  0  0  0  0  0  0  0
   19.1404   -9.9324  -13.8157 O   0  0  0  0  0  0  0  0  0  0  0  0
   22.7247   -5.5554  -13.8336 N   0  0  0  0  0  0  0  0  0  0  0  0
   21.5625   -6.3318  -13.4806 C   0  0  0  0  0  0  0  0  0  0  0  0
   20.8683   -6.0173  -12.4643 O   0  0  0  0  0  0  0  0  0  0  0  0
   21.2367   -7.4716  -14.3361 C   0  0  0  0  0  0  0  0  0  0  0  0
   19.8819   -7.2921  -14.9799 C   0  0  2  0  0  0  0  0  0  0  0  0
   19.2419   -8.4037  -15.5368 N   0  0  0  0  0  0  0  0  0  0  0  0
   19.8377   -6.0165  -15.6629 C   0  0  0  0  0  0  0  0  0  0  0  0
   20.6660   -5.8363  -16.6096 O   0  0  0  0  0  0  0  0  0  0  0  0
   16.8313   -3.8590  -18.2707 C   0  0  0  0  0  0  0  0  0  0  0  0
   16.6120   -3.8342  -16.7557 C   0  0  2  0  0  0  0  0  0  0  0  0
   15.2353   -3.2207  -16.5432 C   0  0  0  0  0  0  0  0  0  0  0  0
   17.6759   -3.0087  -16.0870 C   0  0  0  0  0  0  0  0  0  0  0  0
   18.9900   -3.6944  -16.1382 C   0  0  2  0  0  0  0  0  0  0  0  0
   18.9755   -4.9520  -15.3935 N   0  0  0  0  0  0  0  0  0  0  0  0
   20.0349   -2.8693  -15.5142 C   0  0  0  0  0  0  0  0  0  0  0  0
   20.6524   -1.7620  -16.0730 O   0  0  0  0  0  0  0  0  0  0  0  0
   20.4557   -3.1651  -14.3315 O   0  0  0  0  0  0  0  0  0  0  0  0
  2  1  1  1
  2  3  1  0
  4  3  1  0
  5  4  2  0
  6  5  1  0
  7  6  1  0
  7  8  2  0
  8  4  1  0
  9  2  1  0
 10  9  2  0
 12 14  1  0
 12 11  1  0
 13 12  2  0
 15 14  1  6
 15 16  1  0
 16  9  1  0
 17 15  1  0
 17 18  2  0
 20 19  1  6
 20 22  1  0
 20 21  1  0
 23 22  1  1
 23 24  1  0
 24 17  1  0
 25 23  1  0
 26 25  1  0
 27 25  2  0
M  END
$$$$
