HNL.pdb
     RDKit          3D

 27 27  0  0  1  0  0  0  0  0999 V2000
   22.8881  -22.2139  -14.9363 N   0  0  0  0  0  0  0  0  0  0  0  0
   22.9122  -21.5241  -13.6649 C   0  0  1  0  0  0  0  0  0  0  0  0
   21.8307  -22.1865  -12.8178 C   0  0  0  0  0  0  0  0  0  0  0  0
   20.5102  -21.7606  -13.3502 C   0  0  0  0  0  0  0  0  0  0  0  0
   19.4433  -22.5957  -13.6652 C   0  0  0  0  0  0  0  0  0  0  0  0
   18.4195  -21.8543  -14.1225 N   0  0  0  0  0  0  0  0  0  0  0  0
   18.7937  -20.5634  -14.1125 C   0  0  0  0  0  0  0  0  0  0  0  0
   20.0569  -20.5124  -13.6454 N   0  0  0  0  0  0  0  0  0  0  0  0
   24.2517  -21.7543  -13.0237 C   0  0  0  0  0  0  0  0  0  0  0  0
   24.6053  -22.9428  -12.9335 O   0  0  0  0  0  0  0  0  0  0  0  0
   27.3747  -21.1964  -14.2331 N   0  0  0  0  0  0  0  0  0  0  0  0
   27.9310  -20.0908  -13.4940 C   0  0  0  0  0  0  0  0  0  0  0  0
   28.8805  -19.4058  -13.9870 O   0  0  0  0  0  0  0  0  0  0  0  0
   27.3557  -19.8101  -12.1797 C   0  0  0  0  0  0  0  0  0  0  0  0
   26.2521  -20.7890  -11.8545 C   0  0  2  0  0  0  0  0  0  0  0  0
   25.0467  -20.7124  -12.5593 N   0  0  0  0  0  0  0  0  0  0  0  0
   26.2401  -21.0466  -10.4300 C   0  0  0  0  0  0  0  0  0  0  0  0
   25.1577  -21.4844   -9.9287 O   0  0  0  0  0  0  0  0  0  0  0  0
   27.5989  -19.7504   -5.3961 C   0  0  0  0  0  0  0  0  0  0  0  0
   28.3237  -20.9937   -5.9187 C   0  0  2  0  0  0  0  0  0  0  0  0
   29.6767  -21.0118   -5.2217 C   0  0  0  0  0  0  0  0  0  0  0  0
   28.4903  -20.9129   -7.4108 C   0  0  0  0  0  0  0  0  0  0  0  0
   27.1933  -21.1146   -8.1012 C   0  0  2  0  0  0  0  0  0  0  0  0
   27.2984  -20.8657   -9.5376 N   0  0  0  0  0  0  0  0  0  0  0  0
   26.1829  -20.1702   -7.6021 C   0  0  0  0  0  0  0  0  0  0  0  0
   25.1600  -20.4538   -6.7117 O   0  0  0  0  0  0  0  0  0  0  0  0
   26.2052  -18.9451   -8.0046 O   0  0  0  0  0  0  0  0  0  0  0  0
  2  1  1  6
  2  3  1  0
  4  3  1  0
  5  4  2  0
  6  5  1  0
  7  6  1  0
  7  8  2  0
  8  4  1  0
  9  2  1  0
 10  9  2  0
 12 14  1  0
 12 11  1  0
 13 12  2  0
 15 14  1  1
 15 16  1  0
 16  9  1  0
 17 15  1  0
 17 18  2  0
 20 19  1  1
 20 22  1  0
 20 21  1  0
 23 22  1  1
 23 24  1  0
 24 17  1  0
 25 23  1  0
 26 25  1  0
 27 25  2  0
M  END
$$$$
