HNL.pdb
     RDKit          3D

 27 27  0  0  1  0  0  0  0  0999 V2000
   27.8577  -20.8170  -15.8667 N   0  0  0  0  0  0  0  0  0  0  0  0
   26.7539  -20.0507  -16.4028 C   0  0  1  0  0  0  0  0  0  0  0  0
   26.6558  -20.4451  -17.8727 C   0  0  0  0  0  0  0  0  0  0  0  0
   27.9154  -20.0275  -18.5417 C   0  0  0  0  0  0  0  0  0  0  0  0
   28.7802  -20.8524  -19.2534 C   0  0  0  0  0  0  0  0  0  0  0  0
   29.8135  -20.1237  -19.7096 N   0  0  0  0  0  0  0  0  0  0  0  0
   29.6421  -18.8510  -19.3132 C   0  0  0  0  0  0  0  0  0  0  0  0
   28.4945  -18.7984  -18.6084 N   0  0  0  0  0  0  0  0  0  0  0  0
   25.4961  -20.4683  -15.6944 C   0  0  0  0  0  0  0  0  0  0  0  0
   24.5252  -20.7186  -16.4295 O   0  0  0  0  0  0  0  0  0  0  0  0
   25.9583  -22.5930  -11.0910 N   0  0  0  0  0  0  0  0  0  0  0  0
   25.7962  -21.2781  -11.6591 C   0  0  0  0  0  0  0  0  0  0  0  0
   26.8059  -20.5261  -11.8284 O   0  0  0  0  0  0  0  0  0  0  0  0
   24.4396  -20.8698  -12.0197 C   0  0  0  0  0  0  0  0  0  0  0  0
   24.2832  -20.7858  -13.5199 C   0  0  2  0  0  0  0  0  0  0  0  0
   25.4165  -20.5689  -14.3099 N   0  0  0  0  0  0  0  0  0  0  0  0
   23.0417  -20.1128  -13.8385 C   0  0  0  0  0  0  0  0  0  0  0  0
   22.8189  -19.0027  -13.2618 O   0  0  0  0  0  0  0  0  0  0  0  0
   21.1477  -17.5277  -16.9112 C   0  0  0  0  0  0  0  0  0  0  0  0
   21.3601  -19.0160  -17.2011 C   0  0  2  0  0  0  0  0  0  0  0  0
   21.0911  -19.1941  -18.6886 C   0  0  0  0  0  0  0  0  0  0  0  0
   20.4135  -19.8484  -16.3816 C   0  0  0  0  0  0  0  0  0  0  0  0
   20.7999  -19.8367  -14.9498 C   0  0  2  0  0  0  0  0  0  0  0  0
   22.0525  -20.5538  -14.7196 N   0  0  0  0  0  0  0  0  0  0  0  0
   19.7887  -20.5199  -14.1297 C   0  0  0  0  0  0  0  0  0  0  0  0
   18.6528  -19.9488  -13.5790 O   0  0  0  0  0  0  0  0  0  0  0  0
   19.9277  -21.7745  -13.8652 O   0  0  0  0  0  0  0  0  0  0  0  0
  2  1  1  1
  2  3  1  0
  4  3  1  0
  5  4  2  0
  6  5  1  0
  7  6  1  0
  7  8  2  0
  8  4  1  0
  9  2  1  0
 10  9  2  0
 12 14  1  0
 12 11  1  0
 13 12  2  0
 15 14  1  1
 15 16  1  0
 16  9  1  0
 17 15  1  0
 17 18  2  0
 20 19  1  1
 20 22  1  0
 20 21  1  0
 23 22  1  6
 23 24  1  0
 24 17  1  0
 25 23  1  0
 26 25  1  0
 27 25  2  0
M  END
$$$$
