HNL.pdb
     RDKit          3D

 27 27  0  0  1  0  0  0  0  0999 V2000
   25.6317  -18.4739  -17.0226 N   0  0  0  0  0  0  0  0  0  0  0  0
   26.3533  -18.6932  -15.7880 C   0  0  1  0  0  0  0  0  0  0  0  0
   27.1809  -17.4315  -15.5664 C   0  0  0  0  0  0  0  0  0  0  0  0
   28.2026  -17.3616  -16.6434 C   0  0  0  0  0  0  0  0  0  0  0  0
   28.3430  -18.2535  -17.7017 C   0  0  0  0  0  0  0  0  0  0  0  0
   29.3775  -17.8709  -18.4699 N   0  0  0  0  0  0  0  0  0  0  0  0
   29.9105  -16.7572  -17.9389 C   0  0  0  0  0  0  0  0  0  0  0  0
   29.1973  -16.4540  -16.8362 N   0  0  0  0  0  0  0  0  0  0  0  0
   25.3563  -18.8321  -14.6722 C   0  0  0  0  0  0  0  0  0  0  0  0
   24.4796  -17.9519  -14.6245 O   0  0  0  0  0  0  0  0  0  0  0  0
   21.6337  -19.6205  -11.4808 N   0  0  0  0  0  0  0  0  0  0  0  0
   22.4133  -20.8114  -11.7088 C   0  0  0  0  0  0  0  0  0  0  0  0
   22.3552  -21.7800  -10.8890 O   0  0  0  0  0  0  0  0  0  0  0  0
   23.2526  -20.8404  -12.9054 C   0  0  0  0  0  0  0  0  0  0  0  0
   24.5550  -20.1128  -12.6677 C   0  0  2  0  0  0  0  0  0  0  0  0
   25.4061  -19.8722  -13.7508 N   0  0  0  0  0  0  0  0  0  0  0  0
   25.1070  -20.5164  -11.3917 C   0  0  0  0  0  0  0  0  0  0  0  0
   26.3710  -20.6206  -11.3133 O   0  0  0  0  0  0  0  0  0  0  0  0
   27.9560  -21.2688   -8.4004 C   0  0  0  0  0  0  0  0  0  0  0  0
   27.1647  -20.0232   -8.8086 C   0  0  2  0  0  0  0  0  0  0  0  0
   27.8831  -18.8440   -8.1681 C   0  0  0  0  0  0  0  0  0  0  0  0
   25.7475  -20.1195   -8.3158 C   0  0  0  0  0  0  0  0  0  0  0  0
   25.0294  -21.2342   -8.9802 C   0  0  2  0  0  0  0  0  0  0  0  0
   24.3958  -20.8059  -10.2257 N   0  0  0  0  0  0  0  0  0  0  0  0
   23.9420  -21.7372   -8.1279 C   0  0  0  0  0  0  0  0  0  0  0  0
   24.0534  -22.6902   -7.1284 O   0  0  0  0  0  0  0  0  0  0  0  0
   22.7465  -21.2807   -8.2884 O   0  0  0  0  0  0  0  0  0  0  0  0
  2  1  1  6
  2  3  1  0
  4  3  1  0
  5  4  2  0
  6  5  1  0
  7  6  1  0
  7  8  2  0
  8  4  1  0
  9  2  1  0
 10  9  2  0
 12 14  1  0
 12 11  1  0
 13 12  2  0
 15 14  1  6
 15 16  1  0
 16  9  1  0
 17 15  1  0
 17 18  2  0
 20 19  1  1
 20 22  1  0
 20 21  1  0
 23 22  1  1
 23 24  1  0
 24 17  1  0
 25 23  1  0
 26 25  1  0
 27 25  2  0
M  END
$$$$
