HNL.pdb
     RDKit          3D

 27 27  0  0  1  0  0  0  0  0999 V2000
   14.5056  -12.9248  -17.5536 N   0  0  0  0  0  0  0  0  0  0  0  0
   15.7131  -12.7295  -16.7811 C   0  0  1  0  0  0  0  0  0  0  0  0
   16.4983  -14.0304  -16.9106 C   0  0  0  0  0  0  0  0  0  0  0  0
   15.7824  -15.0742  -16.1316 C   0  0  0  0  0  0  0  0  0  0  0  0
   15.3394  -14.9598  -14.8180 C   0  0  0  0  0  0  0  0  0  0  0  0
   14.7400  -16.1055  -14.4506 N   0  0  0  0  0  0  0  0  0  0  0  0
   14.7829  -16.9579  -15.4888 C   0  0  0  0  0  0  0  0  0  0  0  0
   15.4133  -16.3303  -16.5013 N   0  0  0  0  0  0  0  0  0  0  0  0
   16.5017  -11.6126  -17.4048 C   0  0  0  0  0  0  0  0  0  0  0  0
   16.3692  -11.4848  -18.6343 O   0  0  0  0  0  0  0  0  0  0  0  0
   17.7941   -6.2330  -18.2939 N   0  0  0  0  0  0  0  0  0  0  0  0
   18.2194   -7.6025  -18.4409 C   0  0  0  0  0  0  0  0  0  0  0  0
   19.3502   -7.8690  -18.9546 O   0  0  0  0  0  0  0  0  0  0  0  0
   17.2996   -8.6401  -17.9775 C   0  0  0  0  0  0  0  0  0  0  0  0
   18.0109   -9.6322  -17.0875 C   0  0  2  0  0  0  0  0  0  0  0  0
   17.3270  -10.7754  -16.6623 N   0  0  0  0  0  0  0  0  0  0  0  0
   18.8727   -8.9222  -16.1662 C   0  0  0  0  0  0  0  0  0  0  0  0
   18.3276   -8.4113  -15.1383 O   0  0  0  0  0  0  0  0  0  0  0  0
   22.1475  -10.4778  -13.3389 C   0  0  0  0  0  0  0  0  0  0  0  0
   22.4248  -10.3650  -14.8404 C   0  0  2  0  0  0  0  0  0  0  0  0
   23.7776  -11.0253  -15.0658 C   0  0  0  0  0  0  0  0  0  0  0  0
   22.4563   -8.9213  -15.2591 C   0  0  0  0  0  0  0  0  0  0  0  0
   21.1056   -8.3148  -15.1750 C   0  0  2  0  0  0  0  0  0  0  0  0
   20.2514   -8.7360  -16.2837 N   0  0  0  0  0  0  0  0  0  0  0  0
   21.1842   -6.8491  -15.2620 C   0  0  0  0  0  0  0  0  0  0  0  0
   21.4644   -5.9768  -14.2226 O   0  0  0  0  0  0  0  0  0  0  0  0
   20.9769   -6.2683  -16.3946 O   0  0  0  0  0  0  0  0  0  0  0  0
  2  1  1  6
  2  3  1  0
  4  3  1  0
  5  4  2  0
  6  5  1  0
  7  6  1  0
  7  8  2  0
  8  4  1  0
  9  2  1  0
 10  9  2  0
 12 14  1  0
 12 11  1  0
 13 12  2  0
 15 14  1  1
 15 16  1  0
 16  9  1  0
 17 15  1  0
 17 18  2  0
 20 19  1  1
 20 22  1  0
 20 21  1  0
 23 22  1  6
 23 24  1  0
 24 17  1  0
 25 23  1  0
 26 25  1  0
 27 25  2  0
M  END
$$$$
