HNL.pdb
     RDKit          3D

 27 27  0  0  1  0  0  0  0  0999 V2000
   15.4936  -13.2576  -18.1384 N   0  0  0  0  0  0  0  0  0  0  0  0
   16.3981  -12.7292  -17.1405 C   0  0  1  0  0  0  0  0  0  0  0  0
   17.5043  -13.7692  -16.9972 C   0  0  0  0  0  0  0  0  0  0  0  0
   16.9132  -14.9796  -16.3693 C   0  0  0  0  0  0  0  0  0  0  0  0
   16.6632  -15.1628  -15.0133 C   0  0  0  0  0  0  0  0  0  0  0  0
   16.1287  -16.3811  -14.8213 N   0  0  0  0  0  0  0  0  0  0  0  0
   16.0260  -16.9915  -16.0144 C   0  0  0  0  0  0  0  0  0  0  0  0
   16.5011  -16.1409  -16.9457 N   0  0  0  0  0  0  0  0  0  0  0  0
   16.9881  -11.4495  -17.6628 C   0  0  0  0  0  0  0  0  0  0  0  0
   16.6977  -11.1661  -18.8379 O   0  0  0  0  0  0  0  0  0  0  0  0
   17.4022   -5.9589  -18.4366 N   0  0  0  0  0  0  0  0  0  0  0  0
   18.1378   -7.1937  -18.3261 C   0  0  0  0  0  0  0  0  0  0  0  0
   19.3809   -7.2225  -18.5862 O   0  0  0  0  0  0  0  0  0  0  0  0
   17.3917   -8.3796  -17.9089 C   0  0  0  0  0  0  0  0  0  0  0  0
   18.2920   -9.3573  -17.1907 C   0  0  2  0  0  0  0  0  0  0  0  0
   17.8056  -10.6332  -16.8891 N   0  0  0  0  0  0  0  0  0  0  0  0
   19.1021   -8.6466  -16.2241 C   0  0  0  0  0  0  0  0  0  0  0  0
   18.5025   -8.1412  -15.2243 O   0  0  0  0  0  0  0  0  0  0  0  0
   22.1755  -10.3975  -13.5886 C   0  0  0  0  0  0  0  0  0  0  0  0
   22.6532  -10.0174  -14.9927 C   0  0  2  0  0  0  0  0  0  0  0  0
   24.0627  -10.5778  -15.1199 C   0  0  0  0  0  0  0  0  0  0  0  0
   22.6533   -8.5230  -15.1580 C   0  0  0  0  0  0  0  0  0  0  0  0
   21.2712   -7.9860  -15.1307 C   0  0  2  0  0  0  0  0  0  0  0  0
   20.4842   -8.4544  -16.2698 N   0  0  0  0  0  0  0  0  0  0  0  0
   21.2785   -6.5185  -15.2231 C   0  0  0  0  0  0  0  0  0  0  0  0
   20.7156   -5.7546  -16.2327 O   0  0  0  0  0  0  0  0  0  0  0  0
   21.8556   -5.8271  -14.2999 O   0  0  0  0  0  0  0  0  0  0  0  0
  2  1  1  6
  2  3  1  0
  4  3  1  0
  5  4  2  0
  6  5  1  0
  7  6  1  0
  7  8  2  0
  8  4  1  0
  9  2  1  0
 10  9  2  0
 12 14  1  0
 12 11  1  0
 13 12  2  0
 15 14  1  1
 15 16  1  0
 16  9  1  0
 17 15  1  0
 17 18  2  0
 20 19  1  1
 20 22  1  0
 20 21  1  0
 23 22  1  6
 23 24  1  0
 24 17  1  0
 25 23  1  0
 26 25  1  0
 27 25  2  0
M  END
$$$$
