YWK.pdb
     RDKit          3D

 36 38  0  0  1  0  0  0  0  0999 V2000
    6.9643  -13.4795   16.8678 O   0  0  0  0  0  0  0  0  0  0  0  0
    8.1371  -13.7097   17.6127 C   0  0  0  0  0  0  0  0  0  0  0  0
    8.8502  -14.8814   17.4842 C   0  0  0  0  0  0  0  0  0  0  0  0
    9.9976  -15.1297   18.2001 C   0  0  0  0  0  0  0  0  0  0  0  0
   10.4681  -14.1896   19.0809 C   0  0  0  0  0  0  0  0  0  0  0  0
   11.7023  -14.3904   19.8887 C   0  0  0  0  0  0  0  0  0  0  0  0
   11.6632  -15.6761   20.6803 C   0  0  2  0  0  0  0  0  0  0  0  0
   10.8515  -16.6651   20.0423 N   0  0  0  0  0  0  0  0  0  0  0  0
   11.1252  -15.3169   22.0343 C   0  0  0  0  0  0  0  0  0  0  0  0
   11.7149  -14.5575   22.8139 O   0  0  0  0  0  0  0  0  0  0  0  0
    9.7649  -13.0133   19.2194 C   0  0  0  0  0  0  0  0  0  0  0  0
    8.6148  -12.7691   18.4992 C   0  0  0  0  0  0  0  0  0  0  0  0
    9.8923  -15.8704   22.4345 N   0  0  0  0  0  0  0  0  0  0  0  0
    9.2137  -15.5324   23.6680 C   0  0  1  0  0  0  0  0  0  0  0  0
    7.7744  -15.1941   23.4660 C   0  0  0  0  0  0  0  0  0  0  0  0
    7.1962  -14.7659   24.7642 C   0  0  0  0  0  0  0  0  0  0  0  0
    6.3948  -15.5038   25.6406 C   0  0  0  0  0  0  0  0  0  0  0  0
    6.0715  -14.7577   26.7070 N   0  0  0  0  0  0  0  0  0  0  0  0
    6.6246  -13.5463   26.5817 C   0  0  0  0  0  0  0  0  0  0  0  0
    6.5928  -12.4353   27.3951 C   0  0  0  0  0  0  0  0  0  0  0  0
    7.2436  -11.2628   27.0746 C   0  0  0  0  0  0  0  0  0  0  0  0
    7.9418  -11.2576   25.8754 C   0  0  0  0  0  0  0  0  0  0  0  0
    7.9772  -12.3775   25.0497 C   0  0  0  0  0  0  0  0  0  0  0  0
    7.3239  -13.5223   25.3934 C   0  0  0  0  0  0  0  0  0  0  0  0
    9.4231  -16.5664   24.7129 C   0  0  0  0  0  0  0  0  0  0  0  0
    8.7841  -16.5490   25.7965 O   0  0  0  0  0  0  0  0  0  0  0  0
   10.3467  -17.6346   24.5669 N   0  0  0  0  0  0  0  0  0  0  0  0
   10.4647  -18.7111   25.5836 C   0  0  1  0  0  0  0  0  0  0  0  0
   10.9169  -19.9702   24.9284 C   0  0  0  0  0  0  0  0  0  0  0  0
   12.2968  -19.8445   24.3723 C   0  0  0  0  0  0  0  0  0  0  0  0
   12.1499  -19.9195   22.8451 C   0  0  0  0  0  0  0  0  0  0  0  0
   13.5088  -19.9077   22.1822 C   0  0  0  0  0  0  0  0  0  0  0  0
   13.3840  -19.9600   20.7472 N   0  0  0  0  0  0  0  0  0  0  0  0
   11.4503  -18.2325   26.5552 C   0  0  0  0  0  0  0  0  0  0  0  0
   12.0725  -17.1620   26.4101 O   0  0  0  0  0  0  0  0  0  0  0  0
   11.7314  -18.9664   27.6920 O   0  0  0  0  0  0  0  0  0  0  0  0
  2  1  1  0
  2 12  2  0
  3  2  1  0
  4  3  2  0
  4  5  1  0
  5 11  2  0
  6  5  1  0
  7  6  1  0
  7  8  1  6
  9 13  1  0
  9  7  1  0
 10  9  2  0
 11 12  1  0
 14 15  1  6
 14 13  1  0
 16 15  1  0
 17 16  2  0
 18 17  1  0
 19 24  2  0
 19 18  1  0
 20 19  1  0
 21 20  2  0
 21 22  1  0
 22 23  2  0
 23 24  1  0
 24 16  1  0
 25 14  1  0
 25 27  1  0
 26 25  2  0
 28 27  1  0
 28 29  1  6
 30 29  1  0
 31 32  1  0
 31 30  1  0
 32 33  1  0
 34 28  1  0
 35 34  2  0
 36 34  1  0
M  END
$$$$
