YWK.pdb
     RDKit          3D

 36 38  0  0  1  0  0  0  0  0999 V2000
    7.1112  -13.5276   15.8440 O   0  0  0  0  0  0  0  0  0  0  0  0
    7.4307  -13.7657   17.1947 C   0  0  0  0  0  0  0  0  0  0  0  0
    7.9391  -14.9773   17.6089 C   0  0  0  0  0  0  0  0  0  0  0  0
    8.2587  -15.2341   18.9213 C   0  0  0  0  0  0  0  0  0  0  0  0
    8.0726  -14.2621   19.8708 C   0  0  0  0  0  0  0  0  0  0  0  0
    8.3959  -14.4697   21.3090 C   0  0  0  0  0  0  0  0  0  0  0  0
    9.0231  -15.8199   21.5636 C   0  0  2  0  0  0  0  0  0  0  0  0
    8.1298  -16.8876   21.2381 N   0  0  0  0  0  0  0  0  0  0  0  0
    9.3941  -15.8408   23.0175 C   0  0  0  0  0  0  0  0  0  0  0  0
   10.2208  -15.0642   23.5132 O   0  0  0  0  0  0  0  0  0  0  0  0
    7.5649  -13.0457   19.4706 C   0  0  0  0  0  0  0  0  0  0  0  0
    7.2459  -12.7932   18.1533 C   0  0  0  0  0  0  0  0  0  0  0  0
    8.7718  -16.7885   23.8549 N   0  0  0  0  0  0  0  0  0  0  0  0
    9.0833  -16.9591   25.2585 C   0  0  1  0  0  0  0  0  0  0  0  0
    7.8770  -16.8908   26.1343 C   0  0  0  0  0  0  0  0  0  0  0  0
    7.2146  -15.5774   25.9357 C   0  0  0  0  0  0  0  0  0  0  0  0
    6.0630  -15.2916   25.1961 C   0  0  0  0  0  0  0  0  0  0  0  0
    5.7893  -13.9803   25.2596 N   0  0  0  0  0  0  0  0  0  0  0  0
    6.7123  -13.3732   26.0135 C   0  0  0  0  0  0  0  0  0  0  0  0
    6.8752  -12.0553   26.3795 C   0  0  0  0  0  0  0  0  0  0  0  0
    7.9153  -11.6309   27.1788 C   0  0  0  0  0  0  0  0  0  0  0  0
    8.8021  -12.6107   27.6021 C   0  0  0  0  0  0  0  0  0  0  0  0
    8.6422  -13.9438   27.2352 C   0  0  0  0  0  0  0  0  0  0  0  0
    7.6039  -14.3330   26.4440 C   0  0  0  0  0  0  0  0  0  0  0  0
    9.9026  -18.1742   25.4970 C   0  0  0  0  0  0  0  0  0  0  0  0
    9.4927  -19.3201   25.1777 O   0  0  0  0  0  0  0  0  0  0  0  0
   11.1897  -18.1317   26.0942 N   0  0  0  0  0  0  0  0  0  0  0  0
   11.9581  -19.3691   26.3856 C   0  0  1  0  0  0  0  0  0  0  0  0
   13.3784  -19.1839   25.9761 C   0  0  0  0  0  0  0  0  0  0  0  0
   14.2059  -20.3905   26.2736 C   0  0  0  0  0  0  0  0  0  0  0  0
   15.6350  -20.0487   25.8260 C   0  0  0  0  0  0  0  0  0  0  0  0
   16.5637  -21.2126   26.0888 C   0  0  0  0  0  0  0  0  0  0  0  0
   17.8692  -20.9685   25.5287 N   0  0  0  0  0  0  0  0  0  0  0  0
   11.8431  -19.5761   27.8308 C   0  0  0  0  0  0  0  0  0  0  0  0
   11.4481  -18.6853   28.6083 O   0  0  0  0  0  0  0  0  0  0  0  0
   12.1753  -20.7927   28.3960 O   0  0  0  0  0  0  0  0  0  0  0  0
  2  1  1  0
  2 12  2  0
  3  2  1  0
  4  3  2  0
  4  5  1  0
  5 11  2  0
  6  5  1  0
  7  6  1  0
  7  8  1  1
  9 13  1  0
  9  7  1  0
 10  9  2  0
 11 12  1  0
 14 15  1  1
 14 13  1  0
 16 15  1  0
 17 16  2  0
 18 17  1  0
 19 24  2  0
 19 18  1  0
 20 19  1  0
 21 20  2  0
 21 22  1  0
 22 23  2  0
 23 24  1  0
 24 16  1  0
 25 14  1  0
 25 27  1  0
 26 25  2  0
 28 27  1  0
 28 29  1  1
 30 29  1  0
 31 32  1  0
 31 30  1  0
 32 33  1  0
 34 28  1  0
 35 34  2  0
 36 34  1  0
M  END
$$$$
