YWK.pdb
     RDKit          3D

 36 38  0  0  1  0  0  0  0  0999 V2000
    7.0804  -13.7307   15.9076 O   0  0  0  0  0  0  0  0  0  0  0  0
    7.4707  -13.8554   17.2550 C   0  0  0  0  0  0  0  0  0  0  0  0
    7.4874  -12.7680   18.1007 C   0  0  0  0  0  0  0  0  0  0  0  0
    7.8644  -12.8640   19.4195 C   0  0  0  0  0  0  0  0  0  0  0  0
    8.2417  -14.0782   19.9337 C   0  0  0  0  0  0  0  0  0  0  0  0
    8.6617  -14.2565   21.3507 C   0  0  0  0  0  0  0  0  0  0  0  0
    9.1085  -15.6700   21.6398 C   0  0  2  0  0  0  0  0  0  0  0  0
    8.0757  -16.6183   21.3606 N   0  0  0  0  0  0  0  0  0  0  0  0
    9.4989  -15.6967   23.0885 C   0  0  0  0  0  0  0  0  0  0  0  0
   10.4112  -15.0012   23.5534 O   0  0  0  0  0  0  0  0  0  0  0  0
    8.2296  -15.1741   19.0992 C   0  0  0  0  0  0  0  0  0  0  0  0
    7.8508  -15.0725   17.7774 C   0  0  0  0  0  0  0  0  0  0  0  0
    8.7935  -16.5534   23.9575 N   0  0  0  0  0  0  0  0  0  0  0  0
    9.1880  -16.8272   25.3234 C   0  0  1  0  0  0  0  0  0  0  0  0
    8.0450  -16.7714   26.2811 C   0  0  0  0  0  0  0  0  0  0  0  0
    7.2360  -15.5611   25.9914 C   0  0  0  0  0  0  0  0  0  0  0  0
    6.0135  -15.4775   25.3182 C   0  0  0  0  0  0  0  0  0  0  0  0
    5.6081  -14.2006   25.2576 N   0  0  0  0  0  0  0  0  0  0  0  0
    6.5109  -13.4221   25.8641 C   0  0  0  0  0  0  0  0  0  0  0  0
    6.5583  -12.0607   26.0679 C   0  0  0  0  0  0  0  0  0  0  0  0
    7.5996  -11.4461   26.7304 C   0  0  0  0  0  0  0  0  0  0  0  0
    8.6112  -12.2784   27.1879 C   0  0  0  0  0  0  0  0  0  0  0  0
    8.5682  -13.6547   26.9848 C   0  0  0  0  0  0  0  0  0  0  0  0
    7.5256  -14.2335   26.3263 C   0  0  0  0  0  0  0  0  0  0  0  0
    9.9696  -18.0852   25.4291 C   0  0  0  0  0  0  0  0  0  0  0  0
    9.9335  -18.9627   24.5282 O   0  0  0  0  0  0  0  0  0  0  0  0
   10.8026  -18.3849   26.5388 N   0  0  0  0  0  0  0  0  0  0  0  0
   11.8230  -19.4630   26.4825 C   0  0  1  0  0  0  0  0  0  0  0  0
   12.8701  -19.1088   25.4839 C   0  0  0  0  0  0  0  0  0  0  0  0
   13.9439  -20.1435   25.4116 C   0  0  0  0  0  0  0  0  0  0  0  0
   14.9311  -19.6599   24.3388 C   0  0  0  0  0  0  0  0  0  0  0  0
   16.0957  -20.6171   24.2222 C   0  0  0  0  0  0  0  0  0  0  0  0
   16.9573  -20.2513   23.1260 N   0  0  0  0  0  0  0  0  0  0  0  0
   12.3826  -19.5501   27.8330 C   0  0  0  0  0  0  0  0  0  0  0  0
   12.1334  -18.7099   28.7196 O   0  0  0  0  0  0  0  0  0  0  0  0
   13.2247  -20.5894   28.1799 O   0  0  0  0  0  0  0  0  0  0  0  0
  2  1  1  0
  2 12  2  0
  3  2  1  0
  4  3  2  0
  4  5  1  0
  5 11  2  0
  6  5  1  0
  7  6  1  0
  7  8  1  1
  9 13  1  0
  9  7  1  0
 10  9  2  0
 11 12  1  0
 14 15  1  1
 14 13  1  0
 16 15  1  0
 17 16  2  0
 18 17  1  0
 19 24  2  0
 19 18  1  0
 20 19  1  0
 21 20  2  0
 21 22  1  0
 22 23  2  0
 23 24  1  0
 24 16  1  0
 25 14  1  0
 25 27  1  0
 26 25  2  0
 28 27  1  0
 28 29  1  6
 30 29  1  0
 31 32  1  0
 31 30  1  0
 32 33  1  0
 34 28  1  0
 35 34  2  0
 36 34  1  0
M  END
$$$$
