YWK.pdb
     RDKit          3D

 36 38  0  0  1  0  0  0  0  0999 V2000
    6.9877  -13.3296   15.8737 O   0  0  0  0  0  0  0  0  0  0  0  0
    7.3400  -13.5854   17.2130 C   0  0  0  0  0  0  0  0  0  0  0  0
    7.7621  -14.8327   17.6181 C   0  0  0  0  0  0  0  0  0  0  0  0
    8.1115  -15.1074   18.9193 C   0  0  0  0  0  0  0  0  0  0  0  0
    8.0448  -14.1175   19.8663 C   0  0  0  0  0  0  0  0  0  0  0  0
    8.4070  -14.3427   21.2925 C   0  0  0  0  0  0  0  0  0  0  0  0
    8.9583  -15.7288   21.5291 C   0  0  2  0  0  0  0  0  0  0  0  0
    7.9969  -16.7402   21.2183 N   0  0  0  0  0  0  0  0  0  0  0  0
    9.3572  -15.7786   22.9749 C   0  0  0  0  0  0  0  0  0  0  0  0
   10.1306  -14.9603   23.4891 O   0  0  0  0  0  0  0  0  0  0  0  0
    7.6244  -12.8654   19.4750 C   0  0  0  0  0  0  0  0  0  0  0  0
    7.2751  -12.5951   18.1689 C   0  0  0  0  0  0  0  0  0  0  0  0
    8.8258  -16.8045   23.7822 N   0  0  0  0  0  0  0  0  0  0  0  0
    9.1201  -16.9627   25.1910 C   0  0  1  0  0  0  0  0  0  0  0  0
    7.9076  -16.8537   26.0541 C   0  0  0  0  0  0  0  0  0  0  0  0
    7.2770  -15.5289   25.8292 C   0  0  0  0  0  0  0  0  0  0  0  0
    6.0874  -15.2397   25.1539 C   0  0  0  0  0  0  0  0  0  0  0  0
    5.8624  -13.9177   25.1641 N   0  0  0  0  0  0  0  0  0  0  0  0
    6.8548  -13.3066   25.8204 C   0  0  0  0  0  0  0  0  0  0  0  0
    7.0861  -11.9784   26.1024 C   0  0  0  0  0  0  0  0  0  0  0  0
    8.1923  -11.5516   26.8060 C   0  0  0  0  0  0  0  0  0  0  0  0
    9.0732  -12.5400   27.2215 C   0  0  0  0  0  0  0  0  0  0  0  0
    8.8442  -13.8836   26.9393 C   0  0  0  0  0  0  0  0  0  0  0  0
    7.7416  -14.2750   26.2417 C   0  0  0  0  0  0  0  0  0  0  0  0
    9.9080  -18.1933   25.4542 C   0  0  0  0  0  0  0  0  0  0  0  0
    9.3692  -19.3300   25.4778 O   0  0  0  0  0  0  0  0  0  0  0  0
   11.3070  -18.1768   25.6948 N   0  0  0  0  0  0  0  0  0  0  0  0
   12.0538  -19.4100   26.0527 C   0  0  1  0  0  0  0  0  0  0  0  0
   13.5173  -19.1326   26.0300 C   0  0  0  0  0  0  0  0  0  0  0  0
   14.3190  -20.3413   26.3839 C   0  0  0  0  0  0  0  0  0  0  0  0
   15.7914  -19.9068   26.3326 C   0  0  0  0  0  0  0  0  0  0  0  0
   16.6950  -21.0539   26.7248 C   0  0  0  0  0  0  0  0  0  0  0  0
   18.0824  -20.6752   26.6278 N   0  0  0  0  0  0  0  0  0  0  0  0
   11.6010  -19.7714   27.3977 C   0  0  0  0  0  0  0  0  0  0  0  0
   11.4141  -20.9528   27.7493 O   0  0  0  0  0  0  0  0  0  0  0  0
   11.3599  -18.7947   28.3451 O   0  0  0  0  0  0  0  0  0  0  0  0
  2  1  1  0
  2 12  2  0
  3  2  1  0
  4  3  2  0
  4  5  1  0
  5 11  2  0
  6  5  1  0
  7  6  1  0
  7  8  1  1
  9 13  1  0
  9  7  1  0
 10  9  2  0
 11 12  1  0
 14 15  1  1
 14 13  1  0
 16 15  1  0
 17 16  2  0
 18 17  1  0
 19 24  2  0
 19 18  1  0
 20 19  1  0
 21 20  2  0
 21 22  1  0
 22 23  2  0
 23 24  1  0
 24 16  1  0
 25 14  1  0
 25 27  1  0
 26 25  2  0
 28 27  1  0
 28 29  1  1
 30 29  1  0
 31 32  1  0
 31 30  1  0
 32 33  1  0
 34 28  1  0
 35 34  2  0
 36 34  1  0
M  END
$$$$
