YWK.pdb
     RDKit          3D

 36 38  0  0  1  0  0  0  0  0999 V2000
    8.1278  -11.5765   19.2456 O   0  0  0  0  0  0  0  0  0  0  0  0
    8.3574  -12.9656   19.2173 C   0  0  0  0  0  0  0  0  0  0  0  0
    7.3169  -13.8627   19.1136 C   0  0  0  0  0  0  0  0  0  0  0  0
    7.5151  -15.2230   19.0839 C   0  0  0  0  0  0  0  0  0  0  0  0
    8.7880  -15.7280   19.1590 C   0  0  0  0  0  0  0  0  0  0  0  0
    9.0773  -17.1881   19.1329 C   0  0  0  0  0  0  0  0  0  0  0  0
    8.6877  -17.8700   20.4230 C   0  0  2  0  0  0  0  0  0  0  0  0
    7.2791  -17.7954   20.6559 N   0  0  0  0  0  0  0  0  0  0  0  0
    9.4592  -17.1803   21.5096 C   0  0  0  0  0  0  0  0  0  0  0  0
   10.6923  -17.0729   21.4965 O   0  0  0  0  0  0  0  0  0  0  0  0
    9.8379  -14.8423   19.2629 C   0  0  0  0  0  0  0  0  0  0  0  0
    9.6338  -13.4791   19.2922 C   0  0  0  0  0  0  0  0  0  0  0  0
    8.7455  -16.6304   22.5936 N   0  0  0  0  0  0  0  0  0  0  0  0
    9.3638  -15.9332   23.7017 C   0  0  1  0  0  0  0  0  0  0  0  0
    8.9405  -14.5056   23.7993 C   0  0  0  0  0  0  0  0  0  0  0  0
    7.8017  -14.4072   24.7463 C   0  0  0  0  0  0  0  0  0  0  0  0
    6.7834  -15.3375   24.9753 C   0  0  0  0  0  0  0  0  0  0  0  0
    5.9383  -14.8741   25.9078 N   0  0  0  0  0  0  0  0  0  0  0  0
    6.3490  -13.6680   26.3148 C   0  0  0  0  0  0  0  0  0  0  0  0
    5.8342  -12.7886   27.2415 C   0  0  0  0  0  0  0  0  0  0  0  0
    6.4229  -11.5726   27.5166 C   0  0  0  0  0  0  0  0  0  0  0  0
    7.5754  -11.2744   26.8037 C   0  0  0  0  0  0  0  0  0  0  0  0
    8.0999  -12.1594   25.8661 C   0  0  0  0  0  0  0  0  0  0  0  0
    7.4957  -13.3543   25.6159 C   0  0  0  0  0  0  0  0  0  0  0  0
    9.1994  -16.6733   24.9784 C   0  0  0  0  0  0  0  0  0  0  0  0
    8.0898  -17.1548   25.3244 O   0  0  0  0  0  0  0  0  0  0  0  0
   10.2676  -16.8881   25.8884 N   0  0  0  0  0  0  0  0  0  0  0  0
   10.4819  -18.2023   26.5468 C   0  0  1  0  0  0  0  0  0  0  0  0
   11.5086  -18.9769   25.7950 C   0  0  0  0  0  0  0  0  0  0  0  0
   11.8463  -20.2619   26.4759 C   0  0  0  0  0  0  0  0  0  0  0  0
   12.7782  -21.0200   25.5187 C   0  0  0  0  0  0  0  0  0  0  0  0
   13.2250  -22.3246   26.1387 C   0  0  0  0  0  0  0  0  0  0  0  0
   12.8256  -23.4463   25.3263 N   0  0  0  0  0  0  0  0  0  0  0  0
   10.9350  -17.8960   27.9053 C   0  0  0  0  0  0  0  0  0  0  0  0
   10.9941  -18.7573   28.8047 O   0  0  0  0  0  0  0  0  0  0  0  0
   11.3218  -16.6137   28.2456 O   0  0  0  0  0  0  0  0  0  0  0  0
  2  1  1  0
  2 12  2  0
  3  2  1  0
  4  3  2  0
  4  5  1  0
  5 11  2  0
  6  5  1  0
  7  6  1  0
  7  8  1  1
  9 13  1  0
  9  7  1  0
 10  9  2  0
 11 12  1  0
 14 15  1  1
 14 13  1  0
 16 15  1  0
 17 16  2  0
 18 17  1  0
 19 24  2  0
 19 18  1  0
 20 19  1  0
 21 20  2  0
 21 22  1  0
 22 23  2  0
 23 24  1  0
 24 16  1  0
 25 14  1  0
 25 27  1  0
 26 25  2  0
 28 27  1  0
 28 29  1  6
 30 29  1  0
 31 32  1  0
 31 30  1  0
 32 33  1  0
 34 28  1  0
 35 34  2  0
 36 34  1  0
M  END
$$$$
