YWK.pdb
     RDKit          3D

 36 38  0  0  1  0  0  0  0  0999 V2000
    6.8689  -13.3380   15.8961 O   0  0  0  0  0  0  0  0  0  0  0  0
    7.3196  -13.5960   17.2051 C   0  0  0  0  0  0  0  0  0  0  0  0
    7.7521  -14.8488   17.5810 C   0  0  0  0  0  0  0  0  0  0  0  0
    8.1966  -15.1258   18.8524 C   0  0  0  0  0  0  0  0  0  0  0  0
    8.2188  -14.1327   19.7979 C   0  0  0  0  0  0  0  0  0  0  0  0
    8.6865  -14.3601   21.1928 C   0  0  0  0  0  0  0  0  0  0  0  0
    9.0441  -15.8055   21.4461 C   0  0  2  0  0  0  0  0  0  0  0  0
    7.9278  -16.6720   21.2295 N   0  0  0  0  0  0  0  0  0  0  0  0
    9.5230  -15.8747   22.8666 C   0  0  0  0  0  0  0  0  0  0  0  0
   10.4909  -15.2255   23.2837 O   0  0  0  0  0  0  0  0  0  0  0  0
    7.7892  -12.8750   19.4357 C   0  0  0  0  0  0  0  0  0  0  0  0
    7.3444  -12.6025   18.1595 C   0  0  0  0  0  0  0  0  0  0  0  0
    8.8380  -16.7175   23.7650 N   0  0  0  0  0  0  0  0  0  0  0  0
    9.2120  -16.8996   25.1518 C   0  0  1  0  0  0  0  0  0  0  0  0
    8.0490  -16.8170   26.0832 C   0  0  0  0  0  0  0  0  0  0  0  0
    7.2916  -15.5735   25.7947 C   0  0  0  0  0  0  0  0  0  0  0  0
    6.1061  -15.4309   25.0672 C   0  0  0  0  0  0  0  0  0  0  0  0
    5.7425  -14.1406   25.0286 N   0  0  0  0  0  0  0  0  0  0  0  0
    6.6377  -13.4099   25.7022 C   0  0  0  0  0  0  0  0  0  0  0  0
    6.7159  -12.0576   25.9518 C   0  0  0  0  0  0  0  0  0  0  0  0
    7.7417  -11.4967   26.6825 C   0  0  0  0  0  0  0  0  0  0  0  0
    8.7047  -12.3740   27.1605 C   0  0  0  0  0  0  0  0  0  0  0  0
    8.6304  -13.7414   26.9112 C   0  0  0  0  0  0  0  0  0  0  0  0
    7.6042  -14.2666   26.1856 C   0  0  0  0  0  0  0  0  0  0  0  0
   10.0224  -18.1283   25.3468 C   0  0  0  0  0  0  0  0  0  0  0  0
    9.5245  -19.2759   25.2127 O   0  0  0  0  0  0  0  0  0  0  0  0
   11.3986  -18.0976   25.6938 N   0  0  0  0  0  0  0  0  0  0  0  0
   12.1488  -19.3354   26.0282 C   0  0  1  0  0  0  0  0  0  0  0  0
   13.5850  -19.1609   25.6732 C   0  0  0  0  0  0  0  0  0  0  0  0
   14.4080  -20.3358   26.0871 C   0  0  0  0  0  0  0  0  0  0  0  0
   15.8610  -19.9850   25.7332 C   0  0  0  0  0  0  0  0  0  0  0  0
   16.7963  -21.0801   26.1937 C   0  0  0  0  0  0  0  0  0  0  0  0
   18.1661  -20.7526   25.8866 N   0  0  0  0  0  0  0  0  0  0  0  0
   11.9758  -19.5266   27.4697 C   0  0  0  0  0  0  0  0  0  0  0  0
   11.7276  -18.5848   28.2479 O   0  0  0  0  0  0  0  0  0  0  0  0
   12.0837  -20.7850   28.0305 O   0  0  0  0  0  0  0  0  0  0  0  0
  2  1  1  0
  2 12  2  0
  3  2  1  0
  4  3  2  0
  4  5  1  0
  5 11  2  0
  6  5  1  0
  7  6  1  0
  7  8  1  1
  9 13  1  0
  9  7  1  0
 10  9  2  0
 11 12  1  0
 14 15  1  1
 14 13  1  0
 16 15  1  0
 17 16  2  0
 18 17  1  0
 19 24  2  0
 19 18  1  0
 20 19  1  0
 21 20  2  0
 21 22  1  0
 22 23  2  0
 23 24  1  0
 24 16  1  0
 25 14  1  0
 25 27  1  0
 26 25  2  0
 28 27  1  0
 28 29  1  1
 30 29  1  0
 31 32  1  0
 31 30  1  0
 32 33  1  0
 34 28  1  0
 35 34  2  0
 36 34  1  0
M  END
$$$$
