YWK.pdb
     RDKit          3D

 36 38  0  0  1  0  0  0  0  0999 V2000
    7.4778  -14.1235   13.9308 O   0  0  0  0  0  0  0  0  0  0  0  0
    7.8392  -14.4470   15.2529 C   0  0  0  0  0  0  0  0  0  0  0  0
    8.1759  -15.7342   15.6101 C   0  0  0  0  0  0  0  0  0  0  0  0
    8.5321  -16.0751   16.8937 C   0  0  0  0  0  0  0  0  0  0  0  0
    8.5600  -15.1136   17.8713 C   0  0  0  0  0  0  0  0  0  0  0  0
    8.9354  -15.4101   19.2810 C   0  0  0  0  0  0  0  0  0  0  0  0
    8.6705  -14.2410   20.1998 C   0  0  2  0  0  0  0  0  0  0  0  0
    9.3299  -13.0550   19.7497 N   0  0  0  0  0  0  0  0  0  0  0  0
    9.1585  -14.6570   21.5566 C   0  0  0  0  0  0  0  0  0  0  0  0
   10.2442  -14.2895   22.0240 O   0  0  0  0  0  0  0  0  0  0  0  0
    8.2257  -13.8221   17.5281 C   0  0  0  0  0  0  0  0  0  0  0  0
    7.8692  -13.4855   16.2395 C   0  0  0  0  0  0  0  0  0  0  0  0
    8.3420  -15.5045   22.3322 N   0  0  0  0  0  0  0  0  0  0  0  0
    8.7102  -16.0149   23.6361 C   0  0  1  0  0  0  0  0  0  0  0  0
    7.5626  -16.0581   24.5889 C   0  0  0  0  0  0  0  0  0  0  0  0
    7.1188  -14.6694   24.8675 C   0  0  0  0  0  0  0  0  0  0  0  0
    6.1438  -13.9217   24.2004 C   0  0  0  0  0  0  0  0  0  0  0  0
    6.0397  -12.7042   24.7530 N   0  0  0  0  0  0  0  0  0  0  0  0
    6.9072  -12.6042   25.7661 C   0  0  0  0  0  0  0  0  0  0  0  0
    7.1846  -11.5740   26.6373 C   0  0  0  0  0  0  0  0  0  0  0  0
    8.1355  -11.6785   27.6302 C   0  0  0  0  0  0  0  0  0  0  0  0
    8.8084  -12.8894   27.7094 C   0  0  0  0  0  0  0  0  0  0  0  0
    8.5320  -13.9337   26.8316 C   0  0  0  0  0  0  0  0  0  0  0  0
    7.5863  -13.8007   25.8602 C   0  0  0  0  0  0  0  0  0  0  0  0
    9.4285  -17.3107   23.5374 C   0  0  0  0  0  0  0  0  0  0  0  0
    8.9292  -18.2986   22.9394 O   0  0  0  0  0  0  0  0  0  0  0  0
   10.7128  -17.5257   24.1029 N   0  0  0  0  0  0  0  0  0  0  0  0
   11.3936  -18.8433   24.0194 C   0  0  1  0  0  0  0  0  0  0  0  0
   12.8671  -18.6404   23.9368 C   0  0  0  0  0  0  0  0  0  0  0  0
   13.6093  -19.9358   23.9464 C   0  0  0  0  0  0  0  0  0  0  0  0
   15.0992  -19.5748   23.8488 C   0  0  0  0  0  0  0  0  0  0  0  0
   15.9465  -20.8269   23.8329 C   0  0  0  0  0  0  0  0  0  0  0  0
   17.3486  -20.5010   23.7581 N   0  0  0  0  0  0  0  0  0  0  0  0
   11.0223  -19.5596   25.2416 C   0  0  0  0  0  0  0  0  0  0  0  0
   10.5316  -18.9865   26.2340 O   0  0  0  0  0  0  0  0  0  0  0  0
   11.2063  -20.9257   25.3399 O   0  0  0  0  0  0  0  0  0  0  0  0
  2  1  1  0
  2 12  2  0
  3  2  1  0
  4  3  2  0
  4  5  1  0
  5 11  2  0
  6  5  1  0
  7  6  1  0
  7  8  1  6
  9 13  1  0
  9  7  1  0
 10  9  2  0
 11 12  1  0
 14 15  1  1
 14 13  1  0
 16 15  1  0
 17 16  2  0
 18 17  1  0
 19 24  2  0
 19 18  1  0
 20 19  1  0
 21 20  2  0
 21 22  1  0
 22 23  2  0
 23 24  1  0
 24 16  1  0
 25 14  1  0
 25 27  1  0
 26 25  2  0
 28 27  1  0
 28 29  1  1
 30 29  1  0
 31 32  1  0
 31 30  1  0
 32 33  1  0
 34 28  1  0
 35 34  2  0
 36 34  1  0
M  END
$$$$
