YWK.pdb
     RDKit          3D

 36 38  0  0  1  0  0  0  0  0999 V2000
    7.1304  -14.2659   15.8506 O   0  0  0  0  0  0  0  0  0  0  0  0
    7.4993  -14.2605   17.2097 C   0  0  0  0  0  0  0  0  0  0  0  0
    8.2070  -15.3038   17.7652 C   0  0  0  0  0  0  0  0  0  0  0  0
    8.5788  -15.3219   19.0888 C   0  0  0  0  0  0  0  0  0  0  0  0
    8.2431  -14.2724   19.9053 C   0  0  0  0  0  0  0  0  0  0  0  0
    8.6117  -14.2245   21.3468 C   0  0  0  0  0  0  0  0  0  0  0  0
    9.3817  -15.4495   21.7798 C   0  0  2  0  0  0  0  0  0  0  0  0
    8.5708  -16.6262   21.7366 N   0  0  0  0  0  0  0  0  0  0  0  0
    9.8648  -15.1688   23.1725 C   0  0  0  0  0  0  0  0  0  0  0  0
   10.5027  -14.1511   23.4721 O   0  0  0  0  0  0  0  0  0  0  0  0
    7.5355  -13.2223   19.3630 C   0  0  0  0  0  0  0  0  0  0  0  0
    7.1651  -13.2089   18.0351 C   0  0  0  0  0  0  0  0  0  0  0  0
    9.5781  -16.1076   24.1839 N   0  0  0  0  0  0  0  0  0  0  0  0
    9.9293  -15.9314   25.5774 C   0  0  1  0  0  0  0  0  0  0  0  0
    8.8082  -16.2605   26.5057 C   0  0  0  0  0  0  0  0  0  0  0  0
    7.6567  -15.3756   26.1988 C   0  0  0  0  0  0  0  0  0  0  0  0
    6.4504  -15.7091   25.5755 C   0  0  0  0  0  0  0  0  0  0  0  0
    5.6682  -14.6243   25.4770 N   0  0  0  0  0  0  0  0  0  0  0  0
    6.3018  -13.5739   26.0101 C   0  0  0  0  0  0  0  0  0  0  0  0
    5.9311  -12.2551   26.1525 C   0  0  0  0  0  0  0  0  0  0  0  0
    6.7486  -11.3147   26.7425 C   0  0  0  0  0  0  0  0  0  0  0  0
    7.9803  -11.7690   27.1920 C   0  0  0  0  0  0  0  0  0  0  0  0
    8.3600  -13.1006   27.0507 C   0  0  0  0  0  0  0  0  0  0  0  0
    7.5301  -14.0071   26.4631 C   0  0  0  0  0  0  0  0  0  0  0  0
   11.1899  -16.6367   25.9209 C   0  0  0  0  0  0  0  0  0  0  0  0
   11.7531  -16.4777   27.0347 O   0  0  0  0  0  0  0  0  0  0  0  0
   11.8420  -17.5290   25.0300 N   0  0  0  0  0  0  0  0  0  0  0  0
   12.3416  -18.8546   25.4769 C   0  0  1  0  0  0  0  0  0  0  0  0
   11.1922  -19.7126   25.8791 C   0  0  0  0  0  0  0  0  0  0  0  0
   11.6304  -21.0873   26.2628 C   0  0  0  0  0  0  0  0  0  0  0  0
   10.3453  -21.8902   26.5146 C   0  0  0  0  0  0  0  0  0  0  0  0
   10.6790  -23.3063   26.9262 C   0  0  0  0  0  0  0  0  0  0  0  0
   11.0550  -24.1013   25.7842 N   0  0  0  0  0  0  0  0  0  0  0  0
   13.0511  -19.4193   24.3269 C   0  0  0  0  0  0  0  0  0  0  0  0
   12.5334  -19.5113   23.1965 O   0  0  0  0  0  0  0  0  0  0  0  0
   14.3475  -19.8797   24.4568 O   0  0  0  0  0  0  0  0  0  0  0  0
  2  1  1  0
  2 12  2  0
  3  2  1  0
  4  3  2  0
  4  5  1  0
  5 11  2  0
  6  5  1  0
  7  6  1  0
  7  8  1  1
  9 13  1  0
  9  7  1  0
 10  9  2  0
 11 12  1  0
 14 15  1  1
 14 13  1  0
 16 15  1  0
 17 16  2  0
 18 17  1  0
 19 24  2  0
 19 18  1  0
 20 19  1  0
 21 20  2  0
 21 22  1  0
 22 23  2  0
 23 24  1  0
 24 16  1  0
 25 14  1  0
 25 27  1  0
 26 25  2  0
 28 27  1  0
 28 29  1  6
 30 29  1  0
 31 32  1  0
 31 30  1  0
 32 33  1  0
 34 28  1  0
 35 34  2  0
 36 34  1  0
M  END
$$$$
