YWK.pdb
     RDKit          3D

 36 38  0  0  1  0  0  0  0  0999 V2000
    7.2778  -13.5613   16.5112 O   0  0  0  0  0  0  0  0  0  0  0  0
    7.7547  -13.7463   17.8233 C   0  0  0  0  0  0  0  0  0  0  0  0
    8.5760  -14.8044   18.1455 C   0  0  0  0  0  0  0  0  0  0  0  0
    9.0546  -15.0065   19.4186 C   0  0  0  0  0  0  0  0  0  0  0  0
    8.7143  -14.1344   20.4210 C   0  0  0  0  0  0  0  0  0  0  0  0
    9.1947  -14.2911   21.8213 C   0  0  0  0  0  0  0  0  0  0  0  0
    9.5156  -15.7283   22.1569 C   0  0  2  0  0  0  0  0  0  0  0  0
    8.4162  -16.5962   21.8704 N   0  0  0  0  0  0  0  0  0  0  0  0
    9.8630  -15.7489   23.6166 C   0  0  0  0  0  0  0  0  0  0  0  0
   10.7589  -15.0487   24.1060 O   0  0  0  0  0  0  0  0  0  0  0  0
    7.8937  -13.0719   20.1128 C   0  0  0  0  0  0  0  0  0  0  0  0
    7.4164  -12.8736   18.8345 C   0  0  0  0  0  0  0  0  0  0  0  0
    9.1349  -16.6049   24.4673 N   0  0  0  0  0  0  0  0  0  0  0  0
    9.3952  -16.7542   25.8837 C   0  0  1  0  0  0  0  0  0  0  0  0
    8.1563  -16.6878   26.7128 C   0  0  0  0  0  0  0  0  0  0  0  0
    7.3010  -15.5845   26.2084 C   0  0  0  0  0  0  0  0  0  0  0  0
    6.1159  -15.6750   25.4719 C   0  0  0  0  0  0  0  0  0  0  0  0
    5.6464  -14.4479   25.2034 N   0  0  0  0  0  0  0  0  0  0  0  0
    6.4699  -13.5355   25.7309 C   0  0  0  0  0  0  0  0  0  0  0  0
    6.4322  -12.1586   25.7329 C   0  0  0  0  0  0  0  0  0  0  0  0
    7.3995  -11.3914   26.3466 C   0  0  0  0  0  0  0  0  0  0  0  0
    8.4268  -12.0845   26.9707 C   0  0  0  0  0  0  0  0  0  0  0  0
    8.4698  -13.4757   26.9718 C   0  0  0  0  0  0  0  0  0  0  0  0
    7.4990  -14.2071   26.3566 C   0  0  0  0  0  0  0  0  0  0  0  0
   10.2174  -17.9574   26.1686 C   0  0  0  0  0  0  0  0  0  0  0  0
   10.2334  -18.4917   27.3076 O   0  0  0  0  0  0  0  0  0  0  0  0
   11.0335  -18.5833   25.1901 N   0  0  0  0  0  0  0  0  0  0  0  0
   11.9169  -19.7296   25.5253 C   0  0  1  0  0  0  0  0  0  0  0  0
   12.3055  -20.4431   24.2767 C   0  0  0  0  0  0  0  0  0  0  0  0
   13.2360  -19.6312   23.4376 C   0  0  0  0  0  0  0  0  0  0  0  0
   13.5751  -20.4979   22.2155 C   0  0  0  0  0  0  0  0  0  0  0  0
   14.4431  -19.7281   21.2460 C   0  0  0  0  0  0  0  0  0  0  0  0
   14.6540  -20.4783   20.0334 N   0  0  0  0  0  0  0  0  0  0  0  0
   13.0841  -19.1489   26.1923 C   0  0  0  0  0  0  0  0  0  0  0  0
   13.8667  -19.8255   26.8879 O   0  0  0  0  0  0  0  0  0  0  0  0
   13.3655  -17.8014   26.0714 O   0  0  0  0  0  0  0  0  0  0  0  0
  2  1  1  0
  2 12  2  0
  3  2  1  0
  4  3  2  0
  4  5  1  0
  5 11  2  0
  6  5  1  0
  7  6  1  0
  7  8  1  1
  9 13  1  0
  9  7  1  0
 10  9  2  0
 11 12  1  0
 14 15  1  1
 14 13  1  0
 16 15  1  0
 17 16  2  0
 18 17  1  0
 19 24  2  0
 19 18  1  0
 20 19  1  0
 21 20  2  0
 21 22  1  0
 22 23  2  0
 23 24  1  0
 24 16  1  0
 25 14  1  0
 25 27  1  0
 26 25  2  0
 28 27  1  0
 28 29  1  6
 30 29  1  0
 31 32  1  0
 31 30  1  0
 32 33  1  0
 34 28  1  0
 35 34  2  0
 36 34  1  0
M  END
$$$$
