YWK.pdb
     RDKit          3D

 36 38  0  0  1  0  0  0  0  0999 V2000
   11.6215  -21.2716   15.1366 O   0  0  0  0  0  0  0  0  0  0  0  0
   11.4343  -20.5563   16.3351 C   0  0  0  0  0  0  0  0  0  0  0  0
   11.5069  -21.1797   17.5615 C   0  0  0  0  0  0  0  0  0  0  0  0
   11.3279  -20.5035   18.7453 C   0  0  0  0  0  0  0  0  0  0  0  0
   11.0662  -19.1574   18.7282 C   0  0  0  0  0  0  0  0  0  0  0  0
   10.8613  -18.3617   19.9697 C   0  0  0  0  0  0  0  0  0  0  0  0
   10.4457  -16.9401   19.6740 C   0  0  2  0  0  0  0  0  0  0  0  0
   11.4250  -16.2554   18.8892 N   0  0  0  0  0  0  0  0  0  0  0  0
   10.2500  -16.2765   21.0057 C   0  0  0  0  0  0  0  0  0  0  0  0
   11.1737  -15.7458   21.6362 O   0  0  0  0  0  0  0  0  0  0  0  0
   10.9908  -18.5212   17.5088 C   0  0  0  0  0  0  0  0  0  0  0  0
   11.1711  -19.2038   16.3246 C   0  0  0  0  0  0  0  0  0  0  0  0
    8.9551  -16.2577   21.5619 N   0  0  0  0  0  0  0  0  0  0  0  0
    8.6427  -15.7263   22.8719 C   0  0  1  0  0  0  0  0  0  0  0  0
    7.1917  -15.4245   23.0461 C   0  0  0  0  0  0  0  0  0  0  0  0
    6.9585  -14.9839   24.4442 C   0  0  0  0  0  0  0  0  0  0  0  0
    6.5290  -15.7489   25.5328 C   0  0  0  0  0  0  0  0  0  0  0  0
    6.4360  -14.9797   26.6274 N   0  0  0  0  0  0  0  0  0  0  0  0
    6.7864  -13.7268   26.3170 C   0  0  0  0  0  0  0  0  0  0  0  0
    6.8571  -12.5797   27.0761 C   0  0  0  0  0  0  0  0  0  0  0  0
    7.2499  -11.3666   26.5516 C   0  0  0  0  0  0  0  0  0  0  0  0
    7.5749  -11.3585   25.2027 C   0  0  0  0  0  0  0  0  0  0  0  0
    7.5053  -12.5148   24.4310 C   0  0  0  0  0  0  0  0  0  0  0  0
    7.1136  -13.6994   24.9776 C   0  0  0  0  0  0  0  0  0  0  0  0
    9.1898  -16.5795   23.9570 C   0  0  0  0  0  0  0  0  0  0  0  0
    8.8850  -17.7960   24.0577 O   0  0  0  0  0  0  0  0  0  0  0  0
   10.0838  -16.0912   24.9457 N   0  0  0  0  0  0  0  0  0  0  0  0
   10.8646  -17.0079   25.8156 C   0  0  1  0  0  0  0  0  0  0  0  0
   12.3105  -16.6574   25.7411 C   0  0  0  0  0  0  0  0  0  0  0  0
   13.1748  -17.7340   26.3094 C   0  0  0  0  0  0  0  0  0  0  0  0
   14.3400  -17.9104   25.3242 C   0  0  0  0  0  0  0  0  0  0  0  0
   15.2701  -19.0051   25.7962 C   0  0  0  0  0  0  0  0  0  0  0  0
   15.8239  -18.6906   27.0893 N   0  0  0  0  0  0  0  0  0  0  0  0
   10.3386  -16.8144   27.1686 C   0  0  0  0  0  0  0  0  0  0  0  0
   10.2086  -17.7520   27.9798 O   0  0  0  0  0  0  0  0  0  0  0  0
    9.9598  -15.5586   27.6033 O   0  0  0  0  0  0  0  0  0  0  0  0
  2  1  1  0
  2 12  2  0
  3  2  1  0
  4  3  2  0
  4  5  1  0
  5 11  2  0
  6  5  1  0
  7  6  1  0
  7  8  1  1
  9 13  1  0
  9  7  1  0
 10  9  2  0
 11 12  1  0
 14 15  1  1
 14 13  1  0
 16 15  1  0
 17 16  2  0
 18 17  1  0
 19 24  2  0
 19 18  1  0
 20 19  1  0
 21 20  2  0
 21 22  1  0
 22 23  2  0
 23 24  1  0
 24 16  1  0
 25 14  1  0
 25 27  1  0
 26 25  2  0
 28 27  1  0
 28 29  1  1
 30 29  1  0
 31 32  1  0
 31 30  1  0
 32 33  1  0
 34 28  1  0
 35 34  2  0
 36 34  1  0
M  END
$$$$
