KAG.pdb
     RDKit          3D

 19 18  0  0  1  0  0  0  0  0999 V2000
   18.4009  -13.3214  -15.8405 N   0  0  0  0  0  0  0  0  0  0  0  0
   19.4593  -12.6594  -16.5363 C   0  0  1  0  0  0  0  0  0  0  0  0
   19.0065  -12.0845  -17.8690 C   0  0  0  0  0  0  0  0  0  0  0  0
   18.4215  -13.1455  -18.7622 C   0  0  0  0  0  0  0  0  0  0  0  0
   19.4654  -13.6340  -19.7136 C   0  0  0  0  0  0  0  0  0  0  0  0
   18.9581  -14.6583  -20.6890 C   0  0  0  0  0  0  0  0  0  0  0  0
   20.0403  -15.0385  -21.5759 N   0  0  0  0  0  0  0  0  0  0  0  0
   20.1634  -11.6584  -15.7112 C   0  0  0  0  0  0  0  0  0  0  0  0
   19.4929  -10.7709  -15.1395 O   0  0  0  0  0  0  0  0  0  0  0  0
   23.7315  -10.9863  -14.5435 C   0  0  0  0  0  0  0  0  0  0  0  0
   22.2786  -10.6464  -14.7831 C   0  0  2  0  0  0  0  0  0  0  0  0
   21.5772  -11.6415  -15.5241 N   0  0  0  0  0  0  0  0  0  0  0  0
   22.1976   -9.2946  -15.3742 C   0  0  0  0  0  0  0  0  0  0  0  0
   22.2429   -9.1706  -16.6248 O   0  0  0  0  0  0  0  0  0  0  0  0
   22.0696   -8.0945  -14.6236 N   0  0  0  0  0  0  0  0  0  0  0  0
   21.8306   -6.8083  -15.2675 C   0  0  0  0  0  0  0  0  0  0  0  0
   21.8252   -5.7425  -14.2625 C   0  0  0  0  0  0  0  0  0  0  0  0
   21.7982   -4.4070  -14.6011 O   0  0  0  0  0  0  0  0  0  0  0  0
   21.8458   -6.0474  -13.0372 O   0  0  0  0  0  0  0  0  0  0  0  0
  2  1  1  1
  2  3  1  0
  4  3  1  0
  4  5  1  0
  6  5  1  0
  7  6  1  0
  8  2  1  0
  8 12  1  0
  9  8  2  0
 11 10  1  6
 11 12  1  0
 11 13  1  0
 13 15  1  0
 14 13  2  0
 15 16  1  0
 17 18  1  0
 17 16  1  0
 19 17  2  0
M  END
$$$$
