KAG.pdb
     RDKit          3D

 19 18  0  0  1  0  0  0  0  0999 V2000
   26.3911  -32.8132   -9.5563 N   0  0  0  0  0  0  0  0  0  0  0  0
   25.5652  -33.3919   -8.5435 C   0  0  1  0  0  0  0  0  0  0  0  0
   25.6176  -34.9114   -8.5511 C   0  0  0  0  0  0  0  0  0  0  0  0
   24.4901  -35.5026   -9.3541 C   0  0  0  0  0  0  0  0  0  0  0  0
   24.8074  -35.4091  -10.8116 C   0  0  0  0  0  0  0  0  0  0  0  0
   23.7280  -35.9621  -11.6987 C   0  0  0  0  0  0  0  0  0  0  0  0
   24.1370  -35.8171  -13.0822 N   0  0  0  0  0  0  0  0  0  0  0  0
   25.8140  -32.8352   -7.1994 C   0  0  0  0  0  0  0  0  0  0  0  0
   26.8762  -32.2071   -6.9954 O   0  0  0  0  0  0  0  0  0  0  0  0
   23.9373  -31.5208   -4.3789 C   0  0  0  0  0  0  0  0  0  0  0  0
   25.0980  -32.3797   -4.8246 C   0  0  2  0  0  0  0  0  0  0  0  0
   24.9071  -32.9714   -6.1071 N   0  0  0  0  0  0  0  0  0  0  0  0
   25.4057  -33.3545   -3.7576 C   0  0  0  0  0  0  0  0  0  0  0  0
   25.4721  -32.9564   -2.5667 O   0  0  0  0  0  0  0  0  0  0  0  0
   25.6381  -34.7396   -3.9758 N   0  0  0  0  0  0  0  0  0  0  0  0
   25.9114  -35.6547   -2.8741 C   0  0  0  0  0  0  0  0  0  0  0  0
   27.3456  -35.9476   -2.8152 C   0  0  0  0  0  0  0  0  0  0  0  0
   27.9932  -36.2375   -1.6338 O   0  0  0  0  0  0  0  0  0  0  0  0
   28.0236  -35.9368   -3.8805 O   0  0  0  0  0  0  0  0  0  0  0  0
  2  1  1  6
  2  3  1  0
  4  3  1  0
  4  5  1  0
  6  5  1  0
  7  6  1  0
  8  2  1  0
  8 12  1  0
  9  8  2  0
 11 10  1  1
 11 12  1  0
 11 13  1  0
 13 15  1  0
 14 13  2  0
 15 16  1  0
 17 18  1  0
 17 16  1  0
 19 17  2  0
M  END
$$$$
