KAG.pdb
     RDKit          3D

 19 18  0  0  1  0  0  0  0  0999 V2000
   16.4262  -11.0161  -16.2934 N   0  0  0  0  0  0  0  0  0  0  0  0
   17.7151  -10.8796  -15.6910 C   0  0  1  0  0  0  0  0  0  0  0  0
   18.8391  -11.2959  -16.6264 C   0  0  0  0  0  0  0  0  0  0  0  0
   19.2031  -12.7454  -16.4477 C   0  0  0  0  0  0  0  0  0  0  0  0
   18.8747  -13.5039  -17.6929 C   0  0  0  0  0  0  0  0  0  0  0  0
   19.2061  -14.9672  -17.6108 C   0  0  0  0  0  0  0  0  0  0  0  0
   18.8123  -15.6082  -18.8503 N   0  0  0  0  0  0  0  0  0  0  0  0
   17.9469   -9.5449  -15.1052 C   0  0  0  0  0  0  0  0  0  0  0  0
   17.9912   -8.5533  -15.8661 O   0  0  0  0  0  0  0  0  0  0  0  0
   17.7491   -7.8749  -11.7552 C   0  0  0  0  0  0  0  0  0  0  0  0
   18.3591   -8.0340  -13.1286 C   0  0  2  0  0  0  0  0  0  0  0  0
   18.1253   -9.3145  -13.7091 N   0  0  0  0  0  0  0  0  0  0  0  0
   19.7874   -7.6614  -13.0608 C   0  0  0  0  0  0  0  0  0  0  0  0
   20.6303   -8.5306  -12.7210 O   0  0  0  0  0  0  0  0  0  0  0  0
   20.2964   -6.3678  -13.3562 N   0  0  0  0  0  0  0  0  0  0  0  0
   21.7275   -6.1145  -13.4737 C   0  0  0  0  0  0  0  0  0  0  0  0
   21.9606   -4.6932  -13.7413 C   0  0  0  0  0  0  0  0  0  0  0  0
   23.2172   -4.1290  -13.6981 O   0  0  0  0  0  0  0  0  0  0  0  0
   20.9809   -3.9479  -14.0230 O   0  0  0  0  0  0  0  0  0  0  0  0
  2  1  1  6
  2  3  1  0
  4  3  1  0
  4  5  1  0
  6  5  1  0
  7  6  1  0
  8  2  1  0
  8 12  1  0
  9  8  2  0
 11 10  1  1
 11 12  1  0
 11 13  1  0
 13 15  1  0
 14 13  2  0
 15 16  1  0
 17 18  1  0
 17 16  1  0
 19 17  2  0
M  END
$$$$
