KAG.pdb
     RDKit          3D

 19 18  0  0  1  0  0  0  0  0999 V2000
   25.6764  -23.0888  -13.2100 N   0  0  0  0  0  0  0  0  0  0  0  0
   25.3660  -22.5491  -14.4966 C   0  0  1  0  0  0  0  0  0  0  0  0
   24.0299  -23.0451  -15.0262 C   0  0  0  0  0  0  0  0  0  0  0  0
   24.2088  -24.0689  -16.1149 C   0  0  0  0  0  0  0  0  0  0  0  0
   23.9511  -25.4356  -15.5677 C   0  0  0  0  0  0  0  0  0  0  0  0
   24.1395  -26.5328  -16.5770 C   0  0  0  0  0  0  0  0  0  0  0  0
   24.0070  -27.8129  -15.9091 N   0  0  0  0  0  0  0  0  0  0  0  0
   25.4736  -21.0782  -14.5536 C   0  0  0  0  0  0  0  0  0  0  0  0
   25.0212  -20.4045  -13.6019 O   0  0  0  0  0  0  0  0  0  0  0  0
   27.3179  -18.4695  -16.5649 C   0  0  0  0  0  0  0  0  0  0  0  0
   26.1609  -18.9507  -15.7202 C   0  0  2  0  0  0  0  0  0  0  0  0
   26.0684  -20.3707  -15.6397 N   0  0  0  0  0  0  0  0  0  0  0  0
   24.9226  -18.2980  -16.1935 C   0  0  0  0  0  0  0  0  0  0  0  0
   24.9037  -17.0479  -16.3282 O   0  0  0  0  0  0  0  0  0  0  0  0
   23.7225  -18.9875  -16.5164 N   0  0  0  0  0  0  0  0  0  0  0  0
   22.5334  -18.2825  -16.9799 C   0  0  0  0  0  0  0  0  0  0  0  0
   21.5416  -18.2194  -15.9036 C   0  0  0  0  0  0  0  0  0  0  0  0
   21.7604  -18.7776  -14.6628 O   0  0  0  0  0  0  0  0  0  0  0  0
   20.4416  -17.6342  -16.1094 O   0  0  0  0  0  0  0  0  0  0  0  0
  2  1  1  1
  2  3  1  0
  4  3  1  0
  4  5  1  0
  6  5  1  0
  7  6  1  0
  8  2  1  0
  8 12  1  0
  9  8  2  0
 11 10  1  6
 11 12  1  0
 11 13  1  0
 13 15  1  0
 14 13  2  0
 15 16  1  0
 17 18  1  0
 17 16  1  0
 19 17  2  0
M  END
$$$$
