KAG.pdb
     RDKit          3D

 19 18  0  0  1  0  0  0  0  0999 V2000
   24.9848  -29.7322  -18.3046 N   0  0  0  0  0  0  0  0  0  0  0  0
   26.3040  -29.7295  -17.7547 C   0  0  1  0  0  0  0  0  0  0  0  0
   27.1240  -30.9264  -18.2096 C   0  0  0  0  0  0  0  0  0  0  0  0
   26.6327  -32.2058  -17.5873 C   0  0  0  0  0  0  0  0  0  0  0  0
   27.2711  -32.3920  -16.2489 C   0  0  0  0  0  0  0  0  0  0  0  0
   28.1982  -33.5729  -16.1839 C   0  0  0  0  0  0  0  0  0  0  0  0
   28.6814  -33.7162  -14.8243 N   0  0  0  0  0  0  0  0  0  0  0  0
   27.0200  -28.4557  -17.9623 C   0  0  0  0  0  0  0  0  0  0  0  0
   26.6683  -27.7148  -18.9066 O   0  0  0  0  0  0  0  0  0  0  0  0
   29.1414  -26.0339  -16.1284 C   0  0  0  0  0  0  0  0  0  0  0  0
   28.8586  -26.8305  -17.3812 C   0  0  2  0  0  0  0  0  0  0  0  0
   28.1003  -28.0135  -17.1429 N   0  0  0  0  0  0  0  0  0  0  0  0
   30.1328  -27.0710  -18.0896 C   0  0  0  0  0  0  0  0  0  0  0  0
   30.8639  -26.0907  -18.3823 O   0  0  0  0  0  0  0  0  0  0  0  0
   30.6090  -28.3532  -18.4758 N   0  0  0  0  0  0  0  0  0  0  0  0
   31.9377  -28.5383  -19.0469 C   0  0  0  0  0  0  0  0  0  0  0  0
   32.8602  -29.0177  -18.0147 C   0  0  0  0  0  0  0  0  0  0  0  0
   33.9768  -29.7687  -18.3118 O   0  0  0  0  0  0  0  0  0  0  0  0
   32.6335  -28.7382  -16.8042 O   0  0  0  0  0  0  0  0  0  0  0  0
  2  1  1  6
  2  3  1  0
  4  3  1  0
  4  5  1  0
  6  5  1  0
  7  6  1  0
  8  2  1  0
  8 12  1  0
  9  8  2  0
 11 10  1  1
 11 12  1  0
 11 13  1  0
 13 15  1  0
 14 13  2  0
 15 16  1  0
 17 18  1  0
 17 16  1  0
 19 17  2  0
M  END
$$$$
