KAG.pdb
     RDKit          3D

 19 18  0  0  1  0  0  0  0  0999 V2000
   19.9207  -17.2579  -14.7385 N   0  0  0  0  0  0  0  0  0  0  0  0
   21.0742  -16.6806  -15.3541 C   0  0  1  0  0  0  0  0  0  0  0  0
   21.8431  -17.6834  -16.1995 C   0  0  0  0  0  0  0  0  0  0  0  0
   21.3101  -19.0805  -16.0271 C   0  0  0  0  0  0  0  0  0  0  0  0
   22.1196  -20.0327  -16.8465 C   0  0  0  0  0  0  0  0  0  0  0  0
   21.4974  -21.3943  -16.9759 C   0  0  0  0  0  0  0  0  0  0  0  0
   22.2010  -22.3167  -16.1061 N   0  0  0  0  0  0  0  0  0  0  0  0
   20.7796  -15.4397  -16.0969 C   0  0  0  0  0  0  0  0  0  0  0  0
   21.7277  -14.8077  -16.6127 O   0  0  0  0  0  0  0  0  0  0  0  0
   17.7508  -13.7260  -17.5628 C   0  0  0  0  0  0  0  0  0  0  0  0
   19.1591  -13.7393  -17.0147 C   0  0  2  0  0  0  0  0  0  0  0  0
   19.4654  -14.9116  -16.2642 N   0  0  0  0  0  0  0  0  0  0  0  0
   19.3944  -12.4805  -16.2775 C   0  0  0  0  0  0  0  0  0  0  0  0
   19.2203  -12.4597  -15.0323 O   0  0  0  0  0  0  0  0  0  0  0  0
   19.8120  -11.2622  -16.8785 N   0  0  0  0  0  0  0  0  0  0  0  0
   20.0062  -10.0474  -16.0958 C   0  0  0  0  0  0  0  0  0  0  0  0
   18.7105   -9.4231  -15.8172 C   0  0  0  0  0  0  0  0  0  0  0  0
   18.5901   -8.2710  -15.0706 O   0  0  0  0  0  0  0  0  0  0  0  0
   17.6582   -9.9517  -16.2730 O   0  0  0  0  0  0  0  0  0  0  0  0
  2  1  1  6
  2  3  1  0
  4  3  1  0
  4  5  1  0
  6  5  1  0
  7  6  1  0
  8  2  1  0
  8 12  1  0
  9  8  2  0
 11 10  1  1
 11 12  1  0
 11 13  1  0
 13 15  1  0
 14 13  2  0
 15 16  1  0
 17 18  1  0
 17 16  1  0
 19 17  2  0
M  END
$$$$
