KAG.pdb
     RDKit          3D

 19 18  0  0  1  0  0  0  0  0999 V2000
   14.6006  -21.9826   -2.2490 N   0  0  0  0  0  0  0  0  0  0  0  0
   13.8943  -22.4758   -1.1086 C   0  0  1  0  0  0  0  0  0  0  0  0
   14.0563  -23.9771   -0.9312 C   0  0  0  0  0  0  0  0  0  0  0  0
   13.2938  -24.7460   -1.9767 C   0  0  0  0  0  0  0  0  0  0  0  0
   14.0122  -26.0188   -2.2890 C   0  0  0  0  0  0  0  0  0  0  0  0
   13.3544  -26.8314   -3.3684 C   0  0  0  0  0  0  0  0  0  0  0  0
   14.1420  -28.0260   -3.6028 N   0  0  0  0  0  0  0  0  0  0  0  0
   14.1984  -21.7350    0.1312 C   0  0  0  0  0  0  0  0  0  0  0  0
   15.3274  -21.2119    0.2580 O   0  0  0  0  0  0  0  0  0  0  0  0
   12.2405  -20.2169    2.9697 C   0  0  0  0  0  0  0  0  0  0  0  0
   13.5061  -20.7689    2.3554 C   0  0  2  0  0  0  0  0  0  0  0  0
   13.2733  -21.5776    1.2051 N   0  0  0  0  0  0  0  0  0  0  0  0
   14.2918  -21.4432    3.4097 C   0  0  0  0  0  0  0  0  0  0  0  0
   14.1873  -22.6888    3.5475 O   0  0  0  0  0  0  0  0  0  0  0  0
   15.1773  -20.7799    4.3017 N   0  0  0  0  0  0  0  0  0  0  0  0
   15.8566  -21.4906    5.3785 C   0  0  0  0  0  0  0  0  0  0  0  0
   16.6464  -20.5484    6.1753 C   0  0  0  0  0  0  0  0  0  0  0  0
   17.2842  -20.9180    7.3396 O   0  0  0  0  0  0  0  0  0  0  0  0
   16.7536  -19.3506    5.7902 O   0  0  0  0  0  0  0  0  0  0  0  0
  2  1  1  6
  2  3  1  0
  4  3  1  0
  4  5  1  0
  6  5  1  0
  7  6  1  0
  8  2  1  0
  8 12  1  0
  9  8  2  0
 11 10  1  1
 11 12  1  0
 11 13  1  0
 13 15  1  0
 14 13  2  0
 15 16  1  0
 17 18  1  0
 17 16  1  0
 19 17  2  0
M  END
$$$$
