KAG.pdb
     RDKit          3D

 19 18  0  0  1  0  0  0  0  0999 V2000
   19.1869   -9.9229  -19.2687 N   0  0  0  0  0  0  0  0  0  0  0  0
   19.8744   -9.5699  -18.0664 C   0  0  1  0  0  0  0  0  0  0  0  0
   20.4928  -10.7757  -17.3769 C   0  0  0  0  0  0  0  0  0  0  0  0
   19.5226  -11.9230  -17.2871 C   0  0  0  0  0  0  0  0  0  0  0  0
   20.1983  -13.1067  -16.6741 C   0  0  0  0  0  0  0  0  0  0  0  0
   19.3585  -14.3526  -16.6880 C   0  0  0  0  0  0  0  0  0  0  0  0
   20.1437  -15.4540  -16.1656 N   0  0  0  0  0  0  0  0  0  0  0  0
   20.8487   -8.4767  -18.2510 C   0  0  0  0  0  0  0  0  0  0  0  0
   21.7800   -8.6329  -19.0711 O   0  0  0  0  0  0  0  0  0  0  0  0
   21.0693   -4.9982  -18.5085 C   0  0  0  0  0  0  0  0  0  0  0  0
   21.6885   -6.1515  -17.7533 C   0  0  2  0  0  0  0  0  0  0  0  0
   20.7922   -7.2397  -17.5436 N   0  0  0  0  0  0  0  0  0  0  0  0
   22.2992   -5.6337  -16.5114 C   0  0  0  0  0  0  0  0  0  0  0  0
   23.1856   -4.7452  -16.5905 O   0  0  0  0  0  0  0  0  0  0  0  0
   21.9562   -6.0706  -15.2032 N   0  0  0  0  0  0  0  0  0  0  0  0
   22.6205   -5.5409  -14.0183 C   0  0  0  0  0  0  0  0  0  0  0  0
   21.9768   -6.0651  -12.8112 C   0  0  0  0  0  0  0  0  0  0  0  0
   22.5637   -5.9868  -11.5668 O   0  0  0  0  0  0  0  0  0  0  0  0
   20.8419   -6.6111  -12.9027 O   0  0  0  0  0  0  0  0  0  0  0  0
  2  1  1  6
  2  3  1  0
  4  3  1  0
  4  5  1  0
  6  5  1  0
  7  6  1  0
  8  2  1  0
  8 12  1  0
  9  8  2  0
 11 10  1  1
 11 12  1  0
 11 13  1  0
 13 15  1  0
 14 13  2  0
 15 16  1  0
 17 18  1  0
 17 16  1  0
 19 17  2  0
M  END
$$$$
