YAP.pdb
     RDKit          3D

 25 26  0  0  1  0  0  0  0  0999 V2000
   22.5869  -21.6721   -7.4394 O   0  0  0  0  0  0  0  0  0  0  0  0
   23.3633  -21.3101   -8.5282 C   0  0  0  0  0  0  0  0  0  0  0  0
   24.7504  -21.1799   -8.3758 C   0  0  0  0  0  0  0  0  0  0  0  0
   25.5170  -20.8181   -9.4633 C   0  0  0  0  0  0  0  0  0  0  0  0
   24.9520  -20.5782  -10.7181 C   0  0  0  0  0  0  0  0  0  0  0  0
   25.7740  -20.1743  -11.8812 C   0  0  0  0  0  0  0  0  0  0  0  0
   25.6394  -21.1848  -13.0237 C   0  0  2  0  0  0  0  0  0  0  0  0
   26.2061  -22.4669  -12.5926 N   0  0  0  0  0  0  0  0  0  0  0  0
   26.3717  -20.6987  -14.2236 C   0  0  0  0  0  0  0  0  0  0  0  0
   27.5707  -20.3878  -14.0730 O   0  0  0  0  0  0  0  0  0  0  0  0
   23.5792  -20.7153  -10.8435 C   0  0  0  0  0  0  0  0  0  0  0  0
   22.7999  -21.0750   -9.7628 C   0  0  0  0  0  0  0  0  0  0  0  0
   25.8175  -20.6927  -17.9105 C   0  0  0  0  0  0  0  0  0  0  0  0
   26.4614  -20.1152  -16.6346 C   0  0  2  0  0  0  0  0  0  0  0  0
   25.7341  -20.6041  -15.4651 N   0  0  0  0  0  0  0  0  0  0  0  0
   26.4873  -18.6334  -16.6994 C   0  0  0  0  0  0  0  0  0  0  0  0
   25.6649  -17.9369  -16.0032 O   0  0  0  0  0  0  0  0  0  0  0  0
   27.3934  -17.9319  -17.5072 N   0  0  0  0  0  0  0  0  0  0  0  0
   28.3899  -18.4855  -18.4040 C   0  0  0  0  0  0  0  0  0  0  0  0
   29.4875  -17.4476  -18.4717 C   0  0  0  0  0  0  0  0  0  0  0  0
   29.0313  -16.3641  -17.5283 C   0  0  0  0  0  0  0  0  0  0  0  0
   27.5208  -16.4699  -17.5883 C   0  0  1  0  0  0  0  0  0  0  0  0
   27.1364  -16.0066  -18.9610 C   0  0  0  0  0  0  0  0  0  0  0  0
   26.8288  -16.7676  -19.9016 O   0  0  0  0  0  0  0  0  0  0  0  0
   27.1270  -14.6340  -19.1848 O   0  0  0  0  0  0  0  0  0  0  0  0
  2  1  1  0
  2 12  2  0
  3  2  1  0
  4  3  2  0
  4  5  1  0
  5 11  2  0
  6  5  1  0
  6  7  1  0
  7  8  1  1
  9 15  1  0
  9  7  1  0
 10  9  2  0
 11 12  1  0
 14 13  1  6
 14 16  1  0
 14 15  1  0
 16 17  2  0
 18 22  1  0
 18 16  1  0
 19 18  1  0
 20 19  1  0
 20 21  1  0
 21 22  1  0
 22 23  1  6
 23 24  2  0
 23 25  1  0
M  END
$$$$
