YAP.pdb
     RDKit          3D

 25 26  0  0  1  0  0  0  0  0999 V2000
   21.7542  -21.2855   -8.0283 O   0  0  0  0  0  0  0  0  0  0  0  0
   22.7588  -20.9492   -8.9211 C   0  0  0  0  0  0  0  0  0  0  0  0
   24.0697  -20.7793   -8.4553 C   0  0  0  0  0  0  0  0  0  0  0  0
   25.0644  -20.4436   -9.3491 C   0  0  0  0  0  0  0  0  0  0  0  0
   24.8056  -20.2686  -10.7106 C   0  0  0  0  0  0  0  0  0  0  0  0
   25.8714  -19.8924  -11.6669 C   0  0  0  0  0  0  0  0  0  0  0  0
   26.2272  -21.0689  -12.5801 C   0  0  2  0  0  0  0  0  0  0  0  0
   27.0086  -22.0452  -11.8137 N   0  0  0  0  0  0  0  0  0  0  0  0
   27.0303  -20.5914  -13.7374 C   0  0  0  0  0  0  0  0  0  0  0  0
   28.0795  -19.9655  -13.4843 O   0  0  0  0  0  0  0  0  0  0  0  0
   23.5024  -20.4440  -11.1465 C   0  0  0  0  0  0  0  0  0  0  0  0
   22.4968  -20.7783  -10.2623 C   0  0  0  0  0  0  0  0  0  0  0  0
   27.1817  -21.1845  -17.4091 C   0  0  0  0  0  0  0  0  0  0  0  0
   27.3522  -20.2728  -16.1780 C   0  0  2  0  0  0  0  0  0  0  0  0
   26.6196  -20.8449  -15.0504 N   0  0  0  0  0  0  0  0  0  0  0  0
   26.9051  -18.8943  -16.4954 C   0  0  0  0  0  0  0  0  0  0  0  0
   25.8171  -18.4319  -15.9968 O   0  0  0  0  0  0  0  0  0  0  0  0
   27.6335  -18.0430  -17.3382 N   0  0  0  0  0  0  0  0  0  0  0  0
   28.9125  -18.3068  -17.9693 C   0  0  0  0  0  0  0  0  0  0  0  0
   29.5553  -16.9503  -18.1525 C   0  0  0  0  0  0  0  0  0  0  0  0
   28.5708  -15.9881  -17.5384 C   0  0  0  0  0  0  0  0  0  0  0  0
   27.2397  -16.6845  -17.7378 C   0  0  1  0  0  0  0  0  0  0  0  0
   26.9811  -16.6493  -19.2138 C   0  0  0  0  0  0  0  0  0  0  0  0
   27.2418  -17.5850  -19.9979 O   0  0  0  0  0  0  0  0  0  0  0  0
   26.4122  -15.4890  -19.7278 O   0  0  0  0  0  0  0  0  0  0  0  0
  2  1  1  0
  2 12  2  0
  3  2  1  0
  4  3  2  0
  4  5  1  0
  5 11  2  0
  6  5  1  0
  6  7  1  0
  7  8  1  1
  9 15  1  0
  9  7  1  0
 10  9  2  0
 11 12  1  0
 14 13  1  6
 14 16  1  0
 14 15  1  0
 16 17  2  0
 18 22  1  0
 18 16  1  0
 19 18  1  0
 20 19  1  0
 20 21  1  0
 21 22  1  0
 22 23  1  6
 23 24  2  0
 23 25  1  0
M  END
$$$$
