YAP.pdb
     RDKit          3D

 25 26  0  0  1  0  0  0  0  0999 V2000
   14.4453  -21.4098   -8.9547 O   0  0  0  0  0  0  0  0  0  0  0  0
   14.9936  -20.8103  -10.0769 C   0  0  0  0  0  0  0  0  0  0  0  0
   15.6058  -21.6047  -11.0560 C   0  0  0  0  0  0  0  0  0  0  0  0
   16.1505  -21.0015  -12.1698 C   0  0  0  0  0  0  0  0  0  0  0  0
   16.1093  -19.6175  -12.3546 C   0  0  0  0  0  0  0  0  0  0  0  0
   16.7085  -18.9694  -13.5431 C   0  0  0  0  0  0  0  0  0  0  0  0
   15.6622  -18.7693  -14.6430 C   0  0  2  0  0  0  0  0  0  0  0  0
   15.2000  -20.0829  -15.1030 N   0  0  0  0  0  0  0  0  0  0  0  0
   16.2588  -18.0268  -15.7854 C   0  0  0  0  0  0  0  0  0  0  0  0
   17.0711  -18.6431  -16.5045 O   0  0  0  0  0  0  0  0  0  0  0  0
   15.4972  -18.8544  -11.3737 C   0  0  0  0  0  0  0  0  0  0  0  0
   14.9496  -19.4451  -10.2530 C   0  0  0  0  0  0  0  0  0  0  0  0
   15.8152  -14.6015  -17.3025 C   0  0  0  0  0  0  0  0  0  0  0  0
   16.4852  -15.9840  -17.1774 C   0  0  2  0  0  0  0  0  0  0  0  0
   15.9112  -16.6954  -16.0370 N   0  0  0  0  0  0  0  0  0  0  0  0
   17.9562  -15.8318  -17.0602 C   0  0  0  0  0  0  0  0  0  0  0  0
   18.5520  -16.0962  -15.9551 O   0  0  0  0  0  0  0  0  0  0  0  0
   18.7549  -15.4010  -18.1289 N   0  0  0  0  0  0  0  0  0  0  0  0
   18.3278  -15.0755  -19.4763 C   0  0  0  0  0  0  0  0  0  0  0  0
   19.5279  -15.3518  -20.3539 C   0  0  0  0  0  0  0  0  0  0  0  0
   20.5685  -15.8832  -19.4015 C   0  0  0  0  0  0  0  0  0  0  0  0
   20.2117  -15.2094  -18.0919 C   0  0  1  0  0  0  0  0  0  0  0  0
   20.5333  -13.7578  -18.2822 C   0  0  0  0  0  0  0  0  0  0  0  0
   19.7011  -12.8889  -18.6151 O   0  0  0  0  0  0  0  0  0  0  0  0
   21.8518  -13.3699  -18.0695 O   0  0  0  0  0  0  0  0  0  0  0  0
  2  1  1  0
  2 12  2  0
  3  2  1  0
  4  3  2  0
  4  5  1  0
  5 11  2  0
  6  5  1  0
  6  7  1  0
  7  8  1  6
  9 15  1  0
  9  7  1  0
 10  9  2  0
 11 12  1  0
 14 13  1  1
 14 16  1  0
 14 15  1  0
 16 17  2  0
 18 22  1  0
 18 16  1  0
 19 18  1  0
 20 19  1  0
 20 21  1  0
 21 22  1  0
 22 23  1  6
 23 24  2  0
 23 25  1  0
M  END
$$$$
