YAP.pdb
     RDKit          3D

 25 26  0  0  1  0  0  0  0  0999 V2000
   25.7528  -18.5008  -14.8863 O   0  0  0  0  0  0  0  0  0  0  0  0
   25.4735  -17.1518  -15.0332 C   0  0  0  0  0  0  0  0  0  0  0  0
   24.2050  -16.7524  -15.4756 C   0  0  0  0  0  0  0  0  0  0  0  0
   23.9340  -15.4083  -15.6208 C   0  0  0  0  0  0  0  0  0  0  0  0
   24.8880  -14.4279  -15.3376 C   0  0  0  0  0  0  0  0  0  0  0  0
   24.6013  -12.9857  -15.5090 C   0  0  0  0  0  0  0  0  0  0  0  0
   24.3191  -12.6547  -16.9771 C   0  0  2  0  0  0  0  0  0  0  0  0
   25.5370  -12.8902  -17.7594 N   0  0  0  0  0  0  0  0  0  0  0  0
   23.9136  -11.2297  -17.1099 C   0  0  0  0  0  0  0  0  0  0  0  0
   24.7574  -10.3651  -16.7979 O   0  0  0  0  0  0  0  0  0  0  0  0
   26.1335  -14.8481  -14.9001 C   0  0  0  0  0  0  0  0  0  0  0  0
   26.4186  -16.1903  -14.7523 C   0  0  0  0  0  0  0  0  0  0  0  0
   21.0297   -9.3610  -18.6120 C   0  0  0  0  0  0  0  0  0  0  0  0
   22.2400   -9.4827  -17.6651 C   0  0  2  0  0  0  0  0  0  0  0  0
   22.6391  -10.8855  -17.5722 N   0  0  0  0  0  0  0  0  0  0  0  0
   21.9131   -8.9039  -16.3389 C   0  0  0  0  0  0  0  0  0  0  0  0
   21.7659   -9.6637  -15.3155 O   0  0  0  0  0  0  0  0  0  0  0  0
   21.7523   -7.5256  -16.1390 N   0  0  0  0  0  0  0  0  0  0  0  0
   21.7643   -6.4796  -17.1438 C   0  0  0  0  0  0  0  0  0  0  0  0
   22.2422   -5.2388  -16.4236 C   0  0  0  0  0  0  0  0  0  0  0  0
   22.5243   -5.7108  -15.0201 C   0  0  0  0  0  0  0  0  0  0  0  0
   21.5540   -6.8613  -14.8430 C   0  0  1  0  0  0  0  0  0  0  0  0
   20.1911   -6.2390  -14.7999 C   0  0  0  0  0  0  0  0  0  0  0  0
   19.6682   -5.7568  -13.7740 O   0  0  0  0  0  0  0  0  0  0  0  0
   19.4746   -6.2045  -15.9914 O   0  0  0  0  0  0  0  0  0  0  0  0
  2  1  1  0
  2 12  2  0
  3  2  1  0
  4  3  2  0
  4  5  1  0
  5 11  2  0
  6  5  1  0
  6  7  1  0
  7  8  1  6
  9 15  1  0
  9  7  1  0
 10  9  2  0
 11 12  1  0
 14 13  1  6
 14 16  1  0
 14 15  1  0
 16 17  2  0
 18 22  1  0
 18 16  1  0
 19 18  1  0
 20 19  1  0
 20 21  1  0
 21 22  1  0
 22 23  1  6
 23 24  2  0
 23 25  1  0
M  END
$$$$
