YAP.pdb
     RDKit          3D

 25 26  0  0  1  0  0  0  0  0999 V2000
   23.4992  -20.9399   -7.5622 O   0  0  0  0  0  0  0  0  0  0  0  0
   23.9798  -20.7681   -8.8502 C   0  0  0  0  0  0  0  0  0  0  0  0
   23.0933  -20.4198   -9.8784 C   0  0  0  0  0  0  0  0  0  0  0  0
   23.5782  -20.2515  -11.1582 C   0  0  0  0  0  0  0  0  0  0  0  0
   24.9315  -20.4161  -11.4628 C   0  0  0  0  0  0  0  0  0  0  0  0
   25.4484  -20.2508  -12.8402 C   0  0  0  0  0  0  0  0  0  0  0  0
   24.8947  -21.3372  -13.7664 C   0  0  2  0  0  0  0  0  0  0  0  0
   25.5228  -22.6176  -13.4247 N   0  0  0  0  0  0  0  0  0  0  0  0
   25.1957  -21.0011  -15.1837 C   0  0  0  0  0  0  0  0  0  0  0  0
   26.3818  -21.1077  -15.5558 O   0  0  0  0  0  0  0  0  0  0  0  0
   25.7876  -20.7585  -10.4289 C   0  0  0  0  0  0  0  0  0  0  0  0
   25.3154  -20.9319   -9.1438 C   0  0  0  0  0  0  0  0  0  0  0  0
   23.1820  -20.2297  -18.2613 C   0  0  0  0  0  0  0  0  0  0  0  0
   24.4899  -20.2631  -17.4463 C   0  0  2  0  0  0  0  0  0  0  0  0
   24.1819  -20.5897  -16.0555 N   0  0  0  0  0  0  0  0  0  0  0  0
   25.2058  -18.9699  -17.5730 C   0  0  0  0  0  0  0  0  0  0  0  0
   25.2030  -18.1269  -16.6058 O   0  0  0  0  0  0  0  0  0  0  0  0
   25.9084  -18.6100  -18.7316 N   0  0  0  0  0  0  0  0  0  0  0  0
   25.9827  -19.3400  -19.9827 C   0  0  0  0  0  0  0  0  0  0  0  0
   27.3131  -18.9567  -20.5909 C   0  0  0  0  0  0  0  0  0  0  0  0
   27.9370  -18.0406  -19.5693 C   0  0  0  0  0  0  0  0  0  0  0  0
   26.7358  -17.4065  -18.8973 C   0  0  1  0  0  0  0  0  0  0  0  0
   26.1200  -16.5107  -19.9293 C   0  0  0  0  0  0  0  0  0  0  0  0
   25.1260  -16.8120  -20.6219 O   0  0  0  0  0  0  0  0  0  0  0  0
   26.7078  -15.2641  -20.1151 O   0  0  0  0  0  0  0  0  0  0  0  0
  2  1  1  0
  2 12  2  0
  3  2  1  0
  4  3  2  0
  4  5  1  0
  5 11  2  0
  6  5  1  0
  6  7  1  0
  7  8  1  1
  9 15  1  0
  9  7  1  0
 10  9  2  0
 11 12  1  0
 14 13  1  6
 14 16  1  0
 14 15  1  0
 16 17  2  0
 18 22  1  0
 18 16  1  0
 19 18  1  0
 20 19  1  0
 20 21  1  0
 21 22  1  0
 22 23  1  6
 23 24  2  0
 23 25  1  0
M  END
$$$$
