YAP.pdb
     RDKit          3D

 25 26  0  0  1  0  0  0  0  0999 V2000
   15.4054  -21.1637  -15.8876 O   0  0  0  0  0  0  0  0  0  0  0  0
   16.7399  -20.8450  -15.6960 C   0  0  0  0  0  0  0  0  0  0  0  0
   17.7313  -21.6162  -16.3179 C   0  0  0  0  0  0  0  0  0  0  0  0
   19.0577  -21.2941  -16.1219 C   0  0  0  0  0  0  0  0  0  0  0  0
   19.4456  -20.2174  -15.3211 C   0  0  0  0  0  0  0  0  0  0  0  0
   20.8703  -19.8822  -15.0985 C   0  0  0  0  0  0  0  0  0  0  0  0
   21.5165  -20.8639  -14.1172 C   0  0  2  0  0  0  0  0  0  0  0  0
   20.9870  -20.6095  -12.7734 N   0  0  0  0  0  0  0  0  0  0  0  0
   22.9926  -20.6809  -14.1101 C   0  0  0  0  0  0  0  0  0  0  0  0
   23.4394  -19.6708  -13.5297 O   0  0  0  0  0  0  0  0  0  0  0  0
   18.4470  -19.4695  -14.7190 C   0  0  0  0  0  0  0  0  0  0  0  0
   17.1157  -19.7820  -14.9051 C   0  0  0  0  0  0  0  0  0  0  0  0
   25.9859  -22.6423  -15.2810 C   0  0  0  0  0  0  0  0  0  0  0  0
   25.2686  -21.3513  -14.8396 C   0  0  2  0  0  0  0  0  0  0  0  0
   23.8350  -21.6121  -14.7265 N   0  0  0  0  0  0  0  0  0  0  0  0
   25.5647  -20.2504  -15.7889 C   0  0  0  0  0  0  0  0  0  0  0  0
   24.6290  -19.7333  -16.4983 O   0  0  0  0  0  0  0  0  0  0  0  0
   26.8551  -19.7285  -15.9560 N   0  0  0  0  0  0  0  0  0  0  0  0
   28.0797  -20.1797  -15.3230 C   0  0  0  0  0  0  0  0  0  0  0  0
   28.9715  -18.9600  -15.2626 C   0  0  0  0  0  0  0  0  0  0  0  0
   28.1273  -17.8549  -15.8442 C   0  0  0  0  0  0  0  0  0  0  0  0
   27.2185  -18.5886  -16.8098 C   0  0  1  0  0  0  0  0  0  0  0  0
   28.1049  -19.0570  -17.9241 C   0  0  0  0  0  0  0  0  0  0  0  0
   28.5364  -20.2227  -18.0394 O   0  0  0  0  0  0  0  0  0  0  0  0
   28.4609  -18.1172  -18.8854 O   0  0  0  0  0  0  0  0  0  0  0  0
  2  1  1  0
  2 12  2  0
  3  2  1  0
  4  3  2  0
  4  5  1  0
  5 11  2  0
  6  5  1  0
  6  7  1  0
  7  8  1  1
  9 15  1  0
  9  7  1  0
 10  9  2  0
 11 12  1  0
 14 13  1  6
 14 16  1  0
 14 15  1  0
 16 17  2  0
 18 22  1  0
 18 16  1  0
 19 18  1  0
 20 19  1  0
 20 21  1  0
 21 22  1  0
 22 23  1  6
 23 24  2  0
 23 25  1  0
M  END
$$$$
