HRY.pdb
     RDKit          3D

 34 35  0  0  1  0  0  0  0  0999 V2000
    7.9885  -20.5480   21.9433 N   0  0  0  0  0  0  0  0  0  0  0  0
    7.3905  -19.4552   22.6735 C   0  0  1  0  0  0  0  0  0  0  0  0
    7.0624  -19.9111   24.0761 C   0  0  0  0  0  0  0  0  0  0  0  0
    6.1077  -21.0190   24.0213 C   0  0  0  0  0  0  0  0  0  0  0  0
    5.6239  -21.6257   22.8823 C   0  0  0  0  0  0  0  0  0  0  0  0
    4.7621  -22.6101   23.2229 N   0  0  0  0  0  0  0  0  0  0  0  0
    4.7009  -22.6266   24.5577 C   0  0  0  0  0  0  0  0  0  0  0  0
    5.5095  -21.6704   25.0400 N   0  0  0  0  0  0  0  0  0  0  0  0
    8.3259  -18.3086   22.6654 C   0  0  0  0  0  0  0  0  0  0  0  0
    9.5412  -18.5121   22.7469 O   0  0  0  0  0  0  0  0  0  0  0  0
    8.6557  -14.8979   16.7865 N   0  0  0  0  0  0  0  0  0  0  0  0
    8.0924  -13.7868   17.4739 C   0  0  0  0  0  0  0  0  0  0  0  0
    8.5815  -12.6177   17.2102 N   0  0  0  0  0  0  0  0  0  0  0  0
    7.0362  -13.9282   18.4153 N   0  0  0  0  0  0  0  0  0  0  0  0
    7.3456  -13.7458   19.8013 C   0  0  0  0  0  0  0  0  0  0  0  0
    7.9052  -15.0027   20.4408 C   0  0  0  0  0  0  0  0  0  0  0  0
    8.2371  -14.6169   21.8891 C   0  0  0  0  0  0  0  0  0  0  0  0
    8.7277  -15.7967   22.6697 C   0  0  2  0  0  0  0  0  0  0  0  0
    7.8934  -16.9620   22.5672 N   0  0  0  0  0  0  0  0  0  0  0  0
    8.9331  -15.3679   24.0752 C   0  0  0  0  0  0  0  0  0  0  0  0
    8.6362  -14.2021   24.4550 O   0  0  0  0  0  0  0  0  0  0  0  0
    8.3199  -11.7670   17.7284 O   0  0  0  0  0  0  0  0  0  0  0  0
    6.8967  -10.1251   25.9949 C   0  0  0  0  0  0  0  0  0  0  0  0
    7.2796  -11.4364   26.2400 C   0  0  0  0  0  0  0  0  0  0  0  0
    8.5480  -11.7507   26.6713 C   0  0  0  0  0  0  0  0  0  0  0  0
    8.8729  -13.0748   26.8993 C   0  0  0  0  0  0  0  0  0  0  0  0
    7.9695  -14.0953   26.7095 C   0  0  0  0  0  0  0  0  0  0  0  0
    8.3177  -15.5097   26.9504 C   0  0  2  0  0  0  0  0  0  0  0  0
    9.6686  -15.9049   26.4197 N   0  0  0  0  0  0  0  0  0  0  0  0
    9.4740  -16.2824   25.0177 C   0  0  0  0  0  0  0  0  0  0  0  0
   10.2571  -17.0796   27.1058 O   0  0  0  0  0  0  0  0  0  0  0  0
   10.3462  -18.1943   26.5183 C   0  0  0  0  0  0  0  0  0  0  0  0
    6.6814  -13.7721   26.2712 C   0  0  0  0  0  0  0  0  0  0  0  0
    6.3638  -12.4413   26.0449 O   0  0  0  0  0  0  0  0  0  0  0  0
  2  1  1  6
  2  9  1  0
  2  3  1  0
  4  3  1  0
  4  5  2  0
  6  5  1  0
  7  8  2  0
  7  6  1  0
  8  4  1  0
  9 19  1  0
  9 10  2  0
 11 12  1  0
 12 14  1  0
 13 12  2  0
 15 14  1  0
 16 17  1  0
 16 15  1  0
 18 17  1  6
 19 18  1  0
 20 29  1  0
 20 18  1  0
 21 20  2  0
 22 23  1  0
 23 24  2  0
 24 25  1  0
 26 27  1  0
 26 25  2  0
 28 27  1  6
 28 30  1  0
 28 29  1  0
 30 34  1  0
 31 30  2  0
 32 26  1  0
 33 32  2  0
 33 23  1  0
M  END
$$$$
