HRY.pdb
     RDKit          3D

 34 35  0  0  1  0  0  0  0  0999 V2000
    7.0110  -16.4553   19.3659 N   0  0  0  0  0  0  0  0  0  0  0  0
    8.3095  -16.0121   19.8156 C   0  0  1  0  0  0  0  0  0  0  0  0
    8.2158  -14.5764   20.2771 C   0  0  0  0  0  0  0  0  0  0  0  0
    7.8641  -13.7189   19.1446 C   0  0  0  0  0  0  0  0  0  0  0  0
    7.7558  -14.1082   17.8270 C   0  0  0  0  0  0  0  0  0  0  0  0
    7.4136  -13.0447   17.0656 N   0  0  0  0  0  0  0  0  0  0  0  0
    7.3068  -11.9975   17.8887 C   0  0  0  0  0  0  0  0  0  0  0  0
    7.5773  -12.4007   19.1396 N   0  0  0  0  0  0  0  0  0  0  0  0
    8.7738  -16.9140   20.8930 C   0  0  0  0  0  0  0  0  0  0  0  0
    7.9888  -17.2562   21.7827 O   0  0  0  0  0  0  0  0  0  0  0  0
   14.9843  -19.7201   17.9163 N   0  0  0  0  0  0  0  0  0  0  0  0
   13.6103  -19.7138   17.5470 C   0  0  0  0  0  0  0  0  0  0  0  0
   13.3332  -19.8870   16.2945 N   0  0  0  0  0  0  0  0  0  0  0  0
   12.5668  -19.5272   18.4947 N   0  0  0  0  0  0  0  0  0  0  0  0
   12.6154  -20.2926   19.7038 C   0  0  0  0  0  0  0  0  0  0  0  0
   11.3885  -20.0842   20.5718 C   0  0  0  0  0  0  0  0  0  0  0  0
   11.8052  -19.0607   21.6373 C   0  0  0  0  0  0  0  0  0  0  0  0
   10.6552  -18.1887   22.0360 C   0  0  2  0  0  0  0  0  0  0  0  0
   10.0978  -17.4164   20.9602 N   0  0  0  0  0  0  0  0  0  0  0  0
   11.0895  -17.3434   23.1755 C   0  0  0  0  0  0  0  0  0  0  0  0
   11.9269  -16.4128   23.0198 O   0  0  0  0  0  0  0  0  0  0  0  0
   12.3707  -19.9383   15.9318 O   0  0  0  0  0  0  0  0  0  0  0  0
   10.9875  -14.0323   31.3956 C   0  0  0  0  0  0  0  0  0  0  0  0
   10.7090  -14.6096   30.1646 C   0  0  0  0  0  0  0  0  0  0  0  0
   10.4742  -15.9593   30.0354 C   0  0  0  0  0  0  0  0  0  0  0  0
   10.2018  -16.4786   28.7836 C   0  0  0  0  0  0  0  0  0  0  0  0
   10.1568  -15.6909   27.6562 C   0  0  0  0  0  0  0  0  0  0  0  0
    9.8686  -16.2464   26.3189 C   0  0  1  0  0  0  0  0  0  0  0  0
   11.0622  -16.8657   25.6447 N   0  0  0  0  0  0  0  0  0  0  0  0
   10.5561  -17.5802   24.4703 C   0  0  0  0  0  0  0  0  0  0  0  0
   11.7700  -17.8611   26.4844 O   0  0  0  0  0  0  0  0  0  0  0  0
   11.3965  -19.0674   26.5110 C   0  0  0  0  0  0  0  0  0  0  0  0
   10.3958  -14.3197   27.7913 C   0  0  0  0  0  0  0  0  0  0  0  0
   10.6683  -13.8070   29.0507 O   0  0  0  0  0  0  0  0  0  0  0  0
  2  1  1  1
  2  9  1  0
  2  3  1  0
  4  3  1  0
  4  5  2  0
  6  5  1  0
  7  8  2  0
  7  6  1  0
  8  4  1  0
  9 19  1  0
  9 10  2  0
 11 12  1  0
 12 14  1  0
 13 12  2  0
 15 14  1  0
 16 17  1  0
 16 15  1  0
 18 17  1  6
 19 18  1  0
 20 29  1  0
 20 18  1  0
 21 20  2  0
 22 23  1  0
 23 24  2  0
 24 25  1  0
 26 27  1  0
 26 25  2  0
 28 27  1  6
 28 30  1  0
 28 29  1  0
 30 34  1  0
 31 30  2  0
 32 26  1  0
 33 32  2  0
 33 23  1  0
M  END
$$$$
