HRY.pdb
     RDKit          3D

 34 35  0  0  1  0  0  0  0  0999 V2000
    9.0905  -13.1721   18.3102 N   0  0  0  0  0  0  0  0  0  0  0  0
    9.7772  -14.0827   19.1957 C   0  0  1  0  0  0  0  0  0  0  0  0
   11.1366  -13.5185   19.5373 C   0  0  0  0  0  0  0  0  0  0  0  0
   12.1329  -14.0363   18.5987 C   0  0  0  0  0  0  0  0  0  0  0  0
   11.8808  -14.5927   17.3633 C   0  0  0  0  0  0  0  0  0  0  0  0
   13.0461  -14.9569   16.7826 N   0  0  0  0  0  0  0  0  0  0  0  0
   14.0217  -14.6359   17.6375 C   0  0  0  0  0  0  0  0  0  0  0  0
   13.4747  -14.0820   18.7305 N   0  0  0  0  0  0  0  0  0  0  0  0
    8.9440  -14.2953   20.3999 C   0  0  0  0  0  0  0  0  0  0  0  0
    8.3093  -13.3497   20.8773 O   0  0  0  0  0  0  0  0  0  0  0  0
    7.9136  -21.3068   21.3264 N   0  0  0  0  0  0  0  0  0  0  0  0
    7.2378  -21.4343   22.5719 C   0  0  0  0  0  0  0  0  0  0  0  0
    7.4121  -22.5352   23.2300 N   0  0  0  0  0  0  0  0  0  0  0  0
    6.4007  -20.4101   23.0937 N   0  0  0  0  0  0  0  0  0  0  0  0
    6.2987  -19.1875   22.3554 C   0  0  0  0  0  0  0  0  0  0  0  0
    7.3761  -18.1891   22.7354 C   0  0  0  0  0  0  0  0  0  0  0  0
    7.0007  -16.8838   22.0201 C   0  0  0  0  0  0  0  0  0  0  0  0
    8.0477  -15.8320   22.2183 C   0  0  2  0  0  0  0  0  0  0  0  0
    8.8330  -15.5512   21.0483 N   0  0  0  0  0  0  0  0  0  0  0  0
    8.8821  -16.2237   23.3809 C   0  0  0  0  0  0  0  0  0  0  0  0
    9.3659  -17.3847   23.4793 O   0  0  0  0  0  0  0  0  0  0  0  0
    6.9465  -22.7361   24.1264 O   0  0  0  0  0  0  0  0  0  0  0  0
    5.9148  -10.3960   26.9248 C   0  0  0  0  0  0  0  0  0  0  0  0
    6.3901  -11.6923   26.7840 C   0  0  0  0  0  0  0  0  0  0  0  0
    5.7293  -12.6257   26.0186 C   0  0  0  0  0  0  0  0  0  0  0  0
    6.2500  -13.9020   25.9149 C   0  0  0  0  0  0  0  0  0  0  0  0
    7.4110  -14.2751   26.5523 C   0  0  0  0  0  0  0  0  0  0  0  0
    7.9653  -15.6391   26.4435 C   0  0  2  0  0  0  0  0  0  0  0  0
    9.3239  -15.6967   25.8003 N   0  0  0  0  0  0  0  0  0  0  0  0
    9.1461  -15.2786   24.4076 C   0  0  0  0  0  0  0  0  0  0  0  0
    9.9115  -17.0571   25.7714 O   0  0  0  0  0  0  0  0  0  0  0  0
    9.9077  -17.7410   24.7094 C   0  0  0  0  0  0  0  0  0  0  0  0
    8.0799  -13.3239   27.3292 C   0  0  0  0  0  0  0  0  0  0  0  0
    7.5508  -12.0459   27.4279 O   0  0  0  0  0  0  0  0  0  0  0  0
  2  1  1  6
  2  9  1  0
  2  3  1  0
  4  3  1  0
  4  5  2  0
  6  5  1  0
  7  8  2  0
  7  6  1  0
  8  4  1  0
  9 19  1  0
  9 10  2  0
 11 12  1  0
 12 14  1  0
 13 12  2  0
 15 14  1  0
 16 17  1  0
 16 15  1  0
 18 17  1  6
 19 18  1  0
 20 29  1  0
 20 18  1  0
 21 20  2  0
 22 23  1  0
 23 24  2  0
 24 25  1  0
 26 27  1  0
 26 25  2  0
 28 27  1  1
 28 30  1  0
 28 29  1  0
 30 34  1  0
 31 30  2  0
 32 26  1  0
 33 32  2  0
 33 23  1  0
M  END
$$$$
