HRY.pdb
     RDKit          3D

 34 35  0  0  1  0  0  0  0  0999 V2000
   13.0209  -14.4420   16.8355 N   0  0  0  0  0  0  0  0  0  0  0  0
   13.5481  -14.9280   18.0888 C   0  0  1  0  0  0  0  0  0  0  0  0
   14.3189  -13.8212   18.7699 C   0  0  0  0  0  0  0  0  0  0  0  0
   15.6208  -13.6588   18.1214 C   0  0  0  0  0  0  0  0  0  0  0  0
   16.1729  -12.4754   17.6809 C   0  0  0  0  0  0  0  0  0  0  0  0
   17.3861  -12.7154   17.1348 N   0  0  0  0  0  0  0  0  0  0  0  0
   17.5992  -14.0312   17.2280 C   0  0  0  0  0  0  0  0  0  0  0  0
   16.5387  -14.6007   17.8211 N   0  0  0  0  0  0  0  0  0  0  0  0
   12.4260  -15.4177   18.9197 C   0  0  0  0  0  0  0  0  0  0  0  0
   11.3014  -14.9280   18.7761 O   0  0  0  0  0  0  0  0  0  0  0  0
   11.2320  -21.7104   23.4109 N   0  0  0  0  0  0  0  0  0  0  0  0
    9.8238  -21.7439   23.2111 C   0  0  0  0  0  0  0  0  0  0  0  0
    9.1205  -22.4153   24.0655 N   0  0  0  0  0  0  0  0  0  0  0  0
    9.1914  -21.0762   22.1266 N   0  0  0  0  0  0  0  0  0  0  0  0
   10.0246  -20.3973   21.1806 C   0  0  0  0  0  0  0  0  0  0  0  0
   10.3788  -18.9904   21.6247 C   0  0  0  0  0  0  0  0  0  0  0  0
   11.1388  -18.3643   20.4471 C   0  0  0  0  0  0  0  0  0  0  0  0
   11.5390  -16.9525   20.7443 C   0  0  2  0  0  0  0  0  0  0  0  0
   12.5751  -16.4394   19.8913 N   0  0  0  0  0  0  0  0  0  0  0  0
   11.8932  -16.8655   22.1825 C   0  0  0  0  0  0  0  0  0  0  0  0
   12.9825  -17.3289   22.6187 O   0  0  0  0  0  0  0  0  0  0  0  0
    8.1042  -22.5543   23.9740 O   0  0  0  0  0  0  0  0  0  0  0  0
   10.6437  -14.5846   30.7220 C   0  0  0  0  0  0  0  0  0  0  0  0
   10.5828  -14.7571   29.3462 C   0  0  0  0  0  0  0  0  0  0  0  0
   11.7098  -15.0126   28.5989 C   0  0  0  0  0  0  0  0  0  0  0  0
   11.5883  -15.1756   27.2316 C   0  0  0  0  0  0  0  0  0  0  0  0
   10.3754  -15.0911   26.5873 C   0  0  0  0  0  0  0  0  0  0  0  0
   10.2465  -15.2624   25.1265 C   0  0  1  0  0  0  0  0  0  0  0  0
   11.3151  -16.1277   24.5165 N   0  0  0  0  0  0  0  0  0  0  0  0
   10.9935  -16.2494   23.0925 C   0  0  0  0  0  0  0  0  0  0  0  0
   11.3554  -17.5023   25.0695 O   0  0  0  0  0  0  0  0  0  0  0  0
   10.4648  -18.3465   24.7697 C   0  0  0  0  0  0  0  0  0  0  0  0
    9.2324  -14.8314   27.3499 C   0  0  0  0  0  0  0  0  0  0  0  0
    9.3630  -14.6693   28.7210 O   0  0  0  0  0  0  0  0  0  0  0  0
  2  1  1  6
  2  9  1  0
  2  3  1  0
  4  3  1  0
  4  5  2  0
  6  5  1  0
  7  8  2  0
  7  6  1  0
  8  4  1  0
  9 19  1  0
  9 10  2  0
 11 12  1  0
 12 14  1  0
 13 12  2  0
 15 14  1  0
 16 17  1  0
 16 15  1  0
 18 17  1  6
 19 18  1  0
 20 29  1  0
 20 18  1  0
 21 20  2  0
 22 23  1  0
 23 24  2  0
 24 25  1  0
 26 27  1  0
 26 25  2  0
 28 27  1  6
 28 30  1  0
 28 29  1  0
 30 34  1  0
 31 30  2  0
 32 26  1  0
 33 32  2  0
 33 23  1  0
M  END
$$$$
