HRY.pdb
     RDKit          3D

 34 35  0  0  1  0  0  0  0  0999 V2000
    7.2743  -16.9243   17.5403 N   0  0  0  0  0  0  0  0  0  0  0  0
    8.4900  -16.4149   18.1298 C   0  0  1  0  0  0  0  0  0  0  0  0
    8.5302  -14.9125   17.9738 C   0  0  0  0  0  0  0  0  0  0  0  0
    8.6097  -14.5686   16.5535 C   0  0  0  0  0  0  0  0  0  0  0  0
    7.6550  -13.8980   15.8200 C   0  0  0  0  0  0  0  0  0  0  0  0
    8.0762  -13.7617   14.5426 N   0  0  0  0  0  0  0  0  0  0  0  0
    9.2798  -14.3374   14.4682 C   0  0  0  0  0  0  0  0  0  0  0  0
    9.6027  -14.8234   15.6766 N   0  0  0  0  0  0  0  0  0  0  0  0
    8.5406  -16.8286   19.5496 C   0  0  0  0  0  0  0  0  0  0  0  0
    7.5177  -16.7698   20.2390 O   0  0  0  0  0  0  0  0  0  0  0  0
   12.5224  -19.0917   26.2121 N   0  0  0  0  0  0  0  0  0  0  0  0
   12.4747  -20.4508   25.7943 C   0  0  0  0  0  0  0  0  0  0  0  0
   12.6481  -21.3560   26.7032 N   0  0  0  0  0  0  0  0  0  0  0  0
   12.2476  -20.8252   24.4414 N   0  0  0  0  0  0  0  0  0  0  0  0
   12.3664  -19.8118   23.4370 C   0  0  0  0  0  0  0  0  0  0  0  0
   11.1040  -18.9816   23.2987 C   0  0  0  0  0  0  0  0  0  0  0  0
   11.0888  -18.4919   21.8439 C   0  0  0  0  0  0  0  0  0  0  0  0
    9.8523  -17.7017   21.5468 C   0  0  2  0  0  0  0  0  0  0  0  0
    9.7238  -17.2983   20.1738 N   0  0  0  0  0  0  0  0  0  0  0  0
    9.8026  -16.5516   22.4829 C   0  0  0  0  0  0  0  0  0  0  0  0
   10.6811  -15.6466   22.4568 O   0  0  0  0  0  0  0  0  0  0  0  0
   12.6681  -22.3649   26.4977 O   0  0  0  0  0  0  0  0  0  0  0  0
    6.0644  -10.6660   27.9015 C   0  0  0  0  0  0  0  0  0  0  0  0
    6.4118  -11.6112   26.9464 C   0  0  0  0  0  0  0  0  0  0  0  0
    7.2335  -11.3006   25.8872 C   0  0  0  0  0  0  0  0  0  0  0  0
    7.5455  -12.2832   24.9664 C   0  0  0  0  0  0  0  0  0  0  0  0
    7.0618  -13.5673   25.0709 C   0  0  0  0  0  0  0  0  0  0  0  0
    7.3930  -14.6158   24.0857 C   0  0  1  0  0  0  0  0  0  0  0  0
    8.6728  -15.3490   24.3812 N   0  0  0  0  0  0  0  0  0  0  0  0
    8.7481  -16.4605   23.4299 C   0  0  0  0  0  0  0  0  0  0  0  0
    8.7204  -15.9391   25.7400 O   0  0  0  0  0  0  0  0  0  0  0  0
    8.1678  -17.0486   25.9831 C   0  0  0  0  0  0  0  0  0  0  0  0
    6.2271  -13.8792   26.1487 C   0  0  0  0  0  0  0  0  0  0  0  0
    5.9191  -12.8876   27.0679 O   0  0  0  0  0  0  0  0  0  0  0  0
  2  1  1  1
  2  9  1  0
  2  3  1  0
  4  3  1  0
  4  5  2  0
  6  5  1  0
  7  8  2  0
  7  6  1  0
  8  4  1  0
  9 19  1  0
  9 10  2  0
 11 12  1  0
 12 14  1  0
 13 12  2  0
 15 14  1  0
 16 17  1  0
 16 15  1  0
 18 17  1  6
 19 18  1  0
 20 29  1  0
 20 18  1  0
 21 20  2  0
 22 23  1  0
 23 24  2  0
 24 25  1  0
 26 27  1  0
 26 25  2  0
 28 27  1  6
 28 30  1  0
 28 29  1  0
 30 34  1  0
 31 30  2  0
 32 26  1  0
 33 32  2  0
 33 23  1  0
M  END
$$$$
