HRY.pdb
     RDKit          3D

 34 35  0  0  1  0  0  0  0  0999 V2000
    9.4820  -15.7212   17.8665 N   0  0  0  0  0  0  0  0  0  0  0  0
    8.6081  -14.9335   18.7037 C   0  0  1  0  0  0  0  0  0  0  0  0
    7.2776  -14.7558   18.0102 C   0  0  0  0  0  0  0  0  0  0  0  0
    7.4959  -14.2751   16.6453 C   0  0  0  0  0  0  0  0  0  0  0  0
    7.8882  -13.0059   16.2784 C   0  0  0  0  0  0  0  0  0  0  0  0
    7.9866  -12.9320   14.9321 N   0  0  0  0  0  0  0  0  0  0  0  0
    7.6614  -14.1364   14.4533 C   0  0  0  0  0  0  0  0  0  0  0  0
    7.3659  -14.9458   15.4820 N   0  0  0  0  0  0  0  0  0  0  0  0
    8.4676  -15.6080   20.0132 C   0  0  0  0  0  0  0  0  0  0  0  0
    7.8469  -15.0500   20.9234 O   0  0  0  0  0  0  0  0  0  0  0  0
   11.1335  -23.5830   21.8788 N   0  0  0  0  0  0  0  0  0  0  0  0
   10.6497  -22.6667   20.9038 C   0  0  0  0  0  0  0  0  0  0  0  0
   10.6580  -23.0566   19.6695 N   0  0  0  0  0  0  0  0  0  0  0  0
   10.1717  -21.3717   21.2451 N   0  0  0  0  0  0  0  0  0  0  0  0
    9.5972  -21.1908   22.5441 C   0  0  0  0  0  0  0  0  0  0  0  0
    9.0886  -19.7780   22.7615 C   0  0  0  0  0  0  0  0  0  0  0  0
    9.3448  -19.0388   21.4408 C   0  0  0  0  0  0  0  0  0  0  0  0
    8.9051  -17.6098   21.5208 C   0  0  2  0  0  0  0  0  0  0  0  0
    9.0182  -16.8860   20.2848 N   0  0  0  0  0  0  0  0  0  0  0  0
    9.6468  -16.9593   22.6291 C   0  0  0  0  0  0  0  0  0  0  0  0
   10.8495  -16.6035   22.4931 O   0  0  0  0  0  0  0  0  0  0  0  0
   10.5057  -22.4185   18.8755 O   0  0  0  0  0  0  0  0  0  0  0  0
   10.7345  -13.8337   30.8948 C   0  0  0  0  0  0  0  0  0  0  0  0
   10.2175  -14.3259   29.7046 C   0  0  0  0  0  0  0  0  0  0  0  0
    9.8678  -15.6490   29.5605 C   0  0  0  0  0  0  0  0  0  0  0  0
    9.3576  -16.0827   28.3512 C   0  0  0  0  0  0  0  0  0  0  0  0
    9.1858  -15.2353   27.2807 C   0  0  0  0  0  0  0  0  0  0  0  0
    8.6435  -15.6996   25.9884 C   0  0  1  0  0  0  0  0  0  0  0  0
    9.6973  -16.0964   24.9911 N   0  0  0  0  0  0  0  0  0  0  0  0
    8.9968  -16.7288   23.8706 C   0  0  0  0  0  0  0  0  0  0  0  0
   10.6654  -17.0905   25.5120 O   0  0  0  0  0  0  0  0  0  0  0  0
   10.3447  -18.3068   25.6274 C   0  0  0  0  0  0  0  0  0  0  0  0
    9.5423  -13.8914   27.4309 C   0  0  0  0  0  0  0  0  0  0  0  0
   10.0533  -13.4646   28.6473 O   0  0  0  0  0  0  0  0  0  0  0  0
  2  1  1  6
  2  9  1  0
  2  3  1  0
  4  3  1  0
  4  5  2  0
  6  5  1  0
  7  8  2  0
  7  6  1  0
  8  4  1  0
  9 19  1  0
  9 10  2  0
 11 12  1  0
 12 14  1  0
 13 12  2  0
 15 14  1  0
 16 17  1  0
 16 15  1  0
 18 17  1  6
 19 18  1  0
 20 29  1  0
 20 18  1  0
 21 20  2  0
 22 23  1  0
 23 24  2  0
 24 25  1  0
 26 27  1  0
 26 25  2  0
 28 27  1  6
 28 30  1  0
 28 29  1  0
 30 34  1  0
 31 30  2  0
 32 26  1  0
 33 32  2  0
 33 23  1  0
M  END
$$$$
