HRY.pdb
     RDKit          3D

 34 35  0  0  1  0  0  0  0  0999 V2000
    6.8565  -19.9342   20.6418 N   0  0  0  0  0  0  0  0  0  0  0  0
    6.9882  -19.5323   22.0224 C   0  0  1  0  0  0  0  0  0  0  0  0
    7.2124  -20.7557   22.8803 C   0  0  0  0  0  0  0  0  0  0  0  0
    6.3484  -21.8432   22.4194 C   0  0  0  0  0  0  0  0  0  0  0  0
    5.5078  -21.8130   21.3277 C   0  0  0  0  0  0  0  0  0  0  0  0
    4.8692  -22.9991   21.2129 N   0  0  0  0  0  0  0  0  0  0  0  0
    5.2989  -23.7690   22.2170 C   0  0  0  0  0  0  0  0  0  0  0  0
    6.1886  -23.0758   22.9439 N   0  0  0  0  0  0  0  0  0  0  0  0
    8.1015  -18.5636   22.1323 C   0  0  0  0  0  0  0  0  0  0  0  0
    9.2413  -18.9041   21.8007 O   0  0  0  0  0  0  0  0  0  0  0  0
    7.5031  -12.2924   18.0020 N   0  0  0  0  0  0  0  0  0  0  0  0
    8.5602  -13.1407   18.4344 C   0  0  0  0  0  0  0  0  0  0  0  0
    9.6741  -13.0802   17.7778 N   0  0  0  0  0  0  0  0  0  0  0  0
    8.4242  -14.0265   19.5384 N   0  0  0  0  0  0  0  0  0  0  0  0
    7.1997  -13.9898   20.2796 C   0  0  0  0  0  0  0  0  0  0  0  0
    7.1844  -14.9858   21.4240 C   0  0  0  0  0  0  0  0  0  0  0  0
    8.5922  -14.9359   22.0340 C   0  0  0  0  0  0  0  0  0  0  0  0
    8.9468  -16.2314   22.6956 C   0  0  2  0  0  0  0  0  0  0  0  0
    7.9266  -17.2393   22.6073 N   0  0  0  0  0  0  0  0  0  0  0  0
    9.3390  -15.9425   24.0971 C   0  0  0  0  0  0  0  0  0  0  0  0
   10.1841  -15.0465   24.3700 O   0  0  0  0  0  0  0  0  0  0  0  0
   10.4852  -13.6795   17.9867 O   0  0  0  0  0  0  0  0  0  0  0  0
    5.8850  -10.9285   25.8898 C   0  0  0  0  0  0  0  0  0  0  0  0
    6.3324  -12.2026   26.2102 C   0  0  0  0  0  0  0  0  0  0  0  0
    5.6039  -13.3260   25.8926 C   0  0  0  0  0  0  0  0  0  0  0  0
    6.0997  -14.5696   26.2368 C   0  0  0  0  0  0  0  0  0  0  0  0
    7.3013  -14.7259   26.8889 C   0  0  0  0  0  0  0  0  0  0  0  0
    7.8291  -16.0542   27.2589 C   0  0  2  0  0  0  0  0  0  0  0  0
    9.1072  -16.4209   26.5555 N   0  0  0  0  0  0  0  0  0  0  0  0
    8.7556  -16.6848   25.1581 C   0  0  0  0  0  0  0  0  0  0  0  0
    9.7435  -17.6522   27.0810 O   0  0  0  0  0  0  0  0  0  0  0  0
   10.1355  -17.7165   28.2801 C   0  0  0  0  0  0  0  0  0  0  0  0
    8.0389  -13.5820   27.2100 C   0  0  0  0  0  0  0  0  0  0  0  0
    7.5344  -12.3383   26.8611 O   0  0  0  0  0  0  0  0  0  0  0  0
  2  1  1  6
  2  9  1  0
  2  3  1  0
  4  3  1  0
  4  5  2  0
  6  5  1  0
  7  8  2  0
  7  6  1  0
  8  4  1  0
  9 19  1  0
  9 10  2  0
 11 12  1  0
 12 14  1  0
 13 12  2  0
 15 14  1  0
 16 17  1  0
 16 15  1  0
 18 17  1  1
 19 18  1  0
 20 29  1  0
 20 18  1  0
 21 20  2  0
 22 23  1  0
 23 24  2  0
 24 25  1  0
 26 27  1  0
 26 25  2  0
 28 27  1  6
 28 30  1  0
 28 29  1  0
 30 34  1  0
 31 30  2  0
 32 26  1  0
 33 32  2  0
 33 23  1  0
M  END
$$$$
