HRY.pdb
     RDKit          3D

 34 35  0  0  1  0  0  0  0  0999 V2000
    8.1648  -17.4415   17.6285 N   0  0  0  0  0  0  0  0  0  0  0  0
    8.9985  -16.4757   18.3047 C   0  0  1  0  0  0  0  0  0  0  0  0
    8.3076  -15.1320   18.3053 C   0  0  0  0  0  0  0  0  0  0  0  0
    8.2944  -14.5864   16.9474 C   0  0  0  0  0  0  0  0  0  0  0  0
    8.8666  -15.1574   15.8312 C   0  0  0  0  0  0  0  0  0  0  0  0
    8.6514  -14.3673   14.7555 N   0  0  0  0  0  0  0  0  0  0  0  0
    7.9534  -13.3114   15.1840 C   0  0  0  0  0  0  0  0  0  0  0  0
    7.7376  -13.4411   16.5021 N   0  0  0  0  0  0  0  0  0  0  0  0
    9.2736  -16.9608   19.6753 C   0  0  0  0  0  0  0  0  0  0  0  0
    8.3469  -17.3953   20.3662 O   0  0  0  0  0  0  0  0  0  0  0  0
   16.9806  -19.1288   20.3913 N   0  0  0  0  0  0  0  0  0  0  0  0
   16.0539  -20.0621   19.8489 C   0  0  0  0  0  0  0  0  0  0  0  0
   16.5360  -21.0287   19.1355 N   0  0  0  0  0  0  0  0  0  0  0  0
   14.6525  -19.9596   20.0667 N   0  0  0  0  0  0  0  0  0  0  0  0
   14.1897  -18.9748   20.9973 C   0  0  0  0  0  0  0  0  0  0  0  0
   12.6791  -18.9760   21.1395 C   0  0  0  0  0  0  0  0  0  0  0  0
   12.3281  -17.6510   21.8306 C   0  0  0  0  0  0  0  0  0  0  0  0
   10.8935  -17.2835   21.6100 C   0  0  2  0  0  0  0  0  0  0  0  0
   10.5698  -16.9535   20.2496 N   0  0  0  0  0  0  0  0  0  0  0  0
   10.5444  -16.1952   22.5562 C   0  0  0  0  0  0  0  0  0  0  0  0
   10.9457  -15.0133   22.3729 O   0  0  0  0  0  0  0  0  0  0  0  0
   15.9556  -21.7829   18.7420 O   0  0  0  0  0  0  0  0  0  0  0  0
    5.7387  -10.9722   27.4898 C   0  0  0  0  0  0  0  0  0  0  0  0
    6.2798  -11.9522   26.6695 C   0  0  0  0  0  0  0  0  0  0  0  0
    5.7657  -13.2280   26.6312 C   0  0  0  0  0  0  0  0  0  0  0  0
    6.3461  -14.1629   25.7945 C   0  0  0  0  0  0  0  0  0  0  0  0
    7.4247  -13.8627   24.9945 C   0  0  0  0  0  0  0  0  0  0  0  0
    8.0460  -14.8623   24.1032 C   0  0  1  0  0  0  0  0  0  0  0  0
    9.3389  -15.4264   24.6255 N   0  0  0  0  0  0  0  0  0  0  0  0
    9.7428  -16.4816   23.6930 C   0  0  0  0  0  0  0  0  0  0  0  0
    9.2171  -16.0546   25.9625 O   0  0  0  0  0  0  0  0  0  0  0  0
    8.9703  -17.2880   26.0776 C   0  0  0  0  0  0  0  0  0  0  0  0
    7.9444  -12.5651   25.0361 C   0  0  0  0  0  0  0  0  0  0  0  0
    7.3563  -11.6333   25.8782 O   0  0  0  0  0  0  0  0  0  0  0  0
  2  1  1  1
  2  9  1  0
  2  3  1  0
  4  3  1  0
  4  5  2  0
  6  5  1  0
  7  8  2  0
  7  6  1  0
  8  4  1  0
  9 19  1  0
  9 10  2  0
 11 12  1  0
 12 14  1  0
 13 12  2  0
 15 14  1  0
 16 17  1  0
 16 15  1  0
 18 17  1  6
 19 18  1  0
 20 29  1  0
 20 18  1  0
 21 20  2  0
 22 23  1  0
 23 24  2  0
 24 25  1  0
 26 27  1  0
 26 25  2  0
 28 27  1  6
 28 30  1  0
 28 29  1  0
 30 34  1  0
 31 30  2  0
 32 26  1  0
 33 32  2  0
 33 23  1  0
M  END
$$$$
