HRY.pdb
     RDKit          3D

 34 35  0  0  1  0  0  0  0  0999 V2000
    9.7973  -15.1894   18.3628 N   0  0  0  0  0  0  0  0  0  0  0  0
    8.6296  -14.7398   19.0834 C   0  0  1  0  0  0  0  0  0  0  0  0
    7.4027  -14.9463   18.2260 C   0  0  0  0  0  0  0  0  0  0  0  0
    7.6346  -14.3855   16.8943 C   0  0  0  0  0  0  0  0  0  0  0  0
    7.8299  -13.0556   16.5898 C   0  0  0  0  0  0  0  0  0  0  0  0
    8.0121  -12.9164   15.2575 N   0  0  0  0  0  0  0  0  0  0  0  0
    7.9333  -14.1399   14.7260 C   0  0  0  0  0  0  0  0  0  0  0  0
    7.7063  -15.0250   15.7086 N   0  0  0  0  0  0  0  0  0  0  0  0
    8.5455  -15.4787   20.3626 C   0  0  0  0  0  0  0  0  0  0  0  0
    7.5653  -15.3184   21.0965 O   0  0  0  0  0  0  0  0  0  0  0  0
   12.0127  -23.0031   20.7203 N   0  0  0  0  0  0  0  0  0  0  0  0
   10.8149  -22.7834   19.9848 C   0  0  0  0  0  0  0  0  0  0  0  0
   10.4391  -23.7184   19.1723 N   0  0  0  0  0  0  0  0  0  0  0  0
   10.0448  -21.5955   20.1186 N   0  0  0  0  0  0  0  0  0  0  0  0
   10.4985  -20.6044   21.0471 C   0  0  0  0  0  0  0  0  0  0  0  0
    9.6246  -19.3641   21.0444 C   0  0  0  0  0  0  0  0  0  0  0  0
   10.2909  -18.3870   22.0230 C   0  0  0  0  0  0  0  0  0  0  0  0
    9.5724  -17.0738   22.0574 C   0  0  2  0  0  0  0  0  0  0  0  0
    9.5497  -16.3789   20.8000 N   0  0  0  0  0  0  0  0  0  0  0  0
   10.1579  -16.2551   23.1475 C   0  0  0  0  0  0  0  0  0  0  0  0
   10.9585  -15.3116   22.9013 O   0  0  0  0  0  0  0  0  0  0  0  0
    9.5889  -23.6554   18.5946 O   0  0  0  0  0  0  0  0  0  0  0  0
    5.4008  -10.8061   27.4316 C   0  0  0  0  0  0  0  0  0  0  0  0
    6.0208  -11.8572   26.7707 C   0  0  0  0  0  0  0  0  0  0  0  0
    5.6706  -13.1669   27.0068 C   0  0  0  0  0  0  0  0  0  0  0  0
    6.3229  -14.1728   26.3186 C   0  0  0  0  0  0  0  0  0  0  0  0
    7.3147  -13.9108   25.4014 C   0  0  0  0  0  0  0  0  0  0  0  0
    8.0131  -14.9856   24.6687 C   0  0  2  0  0  0  0  0  0  0  0  0
    9.2428  -15.5004   25.3655 N   0  0  0  0  0  0  0  0  0  0  0  0
    9.8150  -16.5325   24.4975 C   0  0  0  0  0  0  0  0  0  0  0  0
    8.9621  -16.1413   26.6721 O   0  0  0  0  0  0  0  0  0  0  0  0
    8.3654  -17.2531   26.7323 C   0  0  0  0  0  0  0  0  0  0  0  0
    7.6679  -12.5787   25.1641 C   0  0  0  0  0  0  0  0  0  0  0  0
    7.0086  -11.5757   25.8587 O   0  0  0  0  0  0  0  0  0  0  0  0
  2  1  1  6
  2  9  1  0
  2  3  1  0
  4  3  1  0
  4  5  2  0
  6  5  1  0
  7  8  2  0
  7  6  1  0
  8  4  1  0
  9 19  1  0
  9 10  2  0
 11 12  1  0
 12 14  1  0
 13 12  2  0
 15 14  1  0
 16 17  1  0
 16 15  1  0
 18 17  1  6
 19 18  1  0
 20 29  1  0
 20 18  1  0
 21 20  2  0
 22 23  1  0
 23 24  2  0
 24 25  1  0
 26 27  1  0
 26 25  2  0
 28 27  1  6
 28 30  1  0
 28 29  1  0
 30 34  1  0
 31 30  2  0
 32 26  1  0
 33 32  2  0
 33 23  1  0
M  END
$$$$
