HRY.pdb
     RDKit          3D

 34 35  0  0  1  0  0  0  0  0999 V2000
    8.5357  -16.2003   18.2340 N   0  0  0  0  0  0  0  0  0  0  0  0
    8.2209  -15.0698   19.0752 C   0  0  1  0  0  0  0  0  0  0  0  0
    7.1546  -14.2321   18.4087 C   0  0  0  0  0  0  0  0  0  0  0  0
    7.5485  -13.9432   17.0291 C   0  0  0  0  0  0  0  0  0  0  0  0
    8.1011  -12.7689   16.5655 C   0  0  0  0  0  0  0  0  0  0  0  0
    8.3329  -12.8690   15.2374 N   0  0  0  0  0  0  0  0  0  0  0  0
    7.9331  -14.0886   14.8653 C   0  0  0  0  0  0  0  0  0  0  0  0
    7.4609  -14.7364   15.9414 N   0  0  0  0  0  0  0  0  0  0  0  0
    7.7903  -15.5674   20.4005 C   0  0  0  0  0  0  0  0  0  0  0  0
    7.6196  -14.7682   21.3264 O   0  0  0  0  0  0  0  0  0  0  0  0
    9.3102  -22.8721   22.3806 N   0  0  0  0  0  0  0  0  0  0  0  0
    8.0082  -22.3130   22.2529 C   0  0  0  0  0  0  0  0  0  0  0  0
    7.4572  -22.3571   21.0825 N   0  0  0  0  0  0  0  0  0  0  0  0
    7.3200  -21.7248   23.3494 N   0  0  0  0  0  0  0  0  0  0  0  0
    6.1396  -20.9644   23.0691 C   0  0  0  0  0  0  0  0  0  0  0  0
    6.3550  -19.4730   23.2461 C   0  0  0  0  0  0  0  0  0  0  0  0
    6.8980  -18.9714   21.9007 C   0  0  0  0  0  0  0  0  0  0  0  0
    7.1595  -17.4975   21.9329 C   0  0  2  0  0  0  0  0  0  0  0  0
    7.5583  -16.9398   20.6702 N   0  0  0  0  0  0  0  0  0  0  0  0
    8.1441  -17.2261   23.0092 C   0  0  0  0  0  0  0  0  0  0  0  0
    9.3571  -17.5498   22.8850 O   0  0  0  0  0  0  0  0  0  0  0  0
    6.5329  -21.9511   20.8786 O   0  0  0  0  0  0  0  0  0  0  0  0
   11.0540  -13.5131   30.5640 C   0  0  0  0  0  0  0  0  0  0  0  0
   10.4064  -13.8945   29.3973 C   0  0  0  0  0  0  0  0  0  0  0  0
   10.9215  -14.8647   28.5684 C   0  0  0  0  0  0  0  0  0  0  0  0
   10.2323  -15.2037   27.4191 C   0  0  0  0  0  0  0  0  0  0  0  0
    9.0439  -14.6032   27.0719 C   0  0  0  0  0  0  0  0  0  0  0  0
    8.3095  -14.9636   25.8428 C   0  0  1  0  0  0  0  0  0  0  0  0
    8.6579  -16.3224   25.2995 N   0  0  0  0  0  0  0  0  0  0  0  0
    7.7205  -16.5894   24.2059 C   0  0  0  0  0  0  0  0  0  0  0  0
    8.4951  -17.4172   26.2854 O   0  0  0  0  0  0  0  0  0  0  0  0
    7.3568  -17.9119   26.5204 C   0  0  0  0  0  0  0  0  0  0  0  0
    8.5234  -13.6178   27.9166 C   0  0  0  0  0  0  0  0  0  0  0  0
    9.2211  -13.2837   29.0676 O   0  0  0  0  0  0  0  0  0  0  0  0
  2  1  1  6
  2  9  1  0
  2  3  1  0
  4  3  1  0
  4  5  2  0
  6  5  1  0
  7  8  2  0
  7  6  1  0
  8  4  1  0
  9 19  1  0
  9 10  2  0
 11 12  1  0
 12 14  1  0
 13 12  2  0
 15 14  1  0
 16 17  1  0
 16 15  1  0
 18 17  1  6
 19 18  1  0
 20 29  1  0
 20 18  1  0
 21 20  2  0
 22 23  1  0
 23 24  2  0
 24 25  1  0
 26 27  1  0
 26 25  2  0
 28 27  1  6
 28 30  1  0
 28 29  1  0
 30 34  1  0
 31 30  2  0
 32 26  1  0
 33 32  2  0
 33 23  1  0
M  END
$$$$
