TDN.pdb
     RDKit          3D

 24 23  0  0  1  0  0  0  0  0999 V2000
   26.4529  -10.7124  -14.9900 C   0  0  0  0  0  0  0  0  0  0  0  0
   26.1417  -11.4831  -16.2402 C   0  0  1  0  0  0  0  0  0  0  0  0
   27.1283  -12.4699  -16.3561 O   0  0  0  0  0  0  0  0  0  0  0  0
   24.7587  -12.1437  -16.1990 C   0  0  2  0  0  0  0  0  0  0  0  0
   24.6511  -12.8356  -17.5033 N   0  0  0  0  0  0  0  0  0  0  0  0
   23.7253  -11.1050  -16.1551 C   0  0  0  0  0  0  0  0  0  0  0  0
   23.4987  -10.4328  -17.2131 O   0  0  0  0  0  0  0  0  0  0  0  0
   22.9324  -10.7642  -15.0312 N   0  0  0  0  0  0  0  0  0  0  0  0
   21.9993   -9.6867  -15.1017 C   0  0  1  0  0  0  0  0  0  0  0  0
   20.7583   -9.9260  -14.2766 C   0  0  0  0  0  0  0  0  0  0  0  0
   19.7229   -8.8982  -14.4854 C   0  0  0  0  0  0  0  0  0  0  0  0
   19.3260   -8.2142  -13.5201 O   0  0  0  0  0  0  0  0  0  0  0  0
   22.5872   -8.4072  -14.5676 C   0  0  0  0  0  0  0  0  0  0  0  0
   23.7493   -8.4620  -14.1147 O   0  0  0  0  0  0  0  0  0  0  0  0
   19.1806   -8.6753  -15.7331 O   0  0  0  0  0  0  0  0  0  0  0  0
   25.1351   -4.4041  -15.8997 N   0  0  0  0  0  0  0  0  0  0  0  0
   23.8134   -4.5960  -16.3922 C   0  0  0  0  0  0  0  0  0  0  0  0
   23.2014   -3.6969  -17.0080 O   0  0  0  0  0  0  0  0  0  0  0  0
   23.1839   -5.9166  -16.1444 C   0  0  0  0  0  0  0  0  0  0  0  0
   22.5114   -5.9323  -14.7656 C   0  0  2  0  0  0  0  0  0  0  0  0
   21.8630   -7.1976  -14.5755 N   0  0  0  0  0  0  0  0  0  0  0  0
   21.5802   -4.7878  -14.6465 C   0  0  0  0  0  0  0  0  0  0  0  0
   20.3593   -4.7677  -15.2710 O   0  0  0  0  0  0  0  0  0  0  0  0
   21.8904   -3.7697  -13.9481 O   0  0  0  0  0  0  0  0  0  0  0  0
  2  1  1  1
  3  2  1  0
  4  2  1  0
  4  6  1  0
  4  5  1  6
  6  7  2  0
  8  9  1  0
  8  6  1  0
  9 13  1  0
  9 10  1  1
 11 10  1  0
 11 15  1  0
 12 11  2  0
 13 14  2  0
 17 16  1  0
 17 18  2  0
 19 17  1  0
 20 19  1  6
 21 20  1  0
 21 13  1  0
 22 23  1  0
 22 20  1  0
 24 22  2  0
M  END
$$$$
