TDN.pdb
     RDKit          3D

 24 23  0  0  1  0  0  0  0  0999 V2000
   17.4741   -7.7772  -17.9583 C   0  0  0  0  0  0  0  0  0  0  0  0
   16.8822   -8.6642  -16.9016 C   0  0  1  0  0  0  0  0  0  0  0  0
   15.6745   -9.1489  -17.4188 O   0  0  0  0  0  0  0  0  0  0  0  0
   17.7940   -9.8423  -16.5394 C   0  0  2  0  0  0  0  0  0  0  0  0
   17.0227  -10.5961  -15.5253 N   0  0  0  0  0  0  0  0  0  0  0  0
   19.0089   -9.3359  -15.8943 C   0  0  0  0  0  0  0  0  0  0  0  0
   18.9278   -8.9233  -14.6919 O   0  0  0  0  0  0  0  0  0  0  0  0
   20.2954   -9.2572  -16.4833 N   0  0  0  0  0  0  0  0  0  0  0  0
   21.4206   -8.8342  -15.7144 C   0  0  1  0  0  0  0  0  0  0  0  0
   22.7145   -9.4683  -16.1640 C   0  0  0  0  0  0  0  0  0  0  0  0
   22.7117  -10.9360  -16.0299 C   0  0  0  0  0  0  0  0  0  0  0  0
   22.1604  -11.4666  -15.0442 O   0  0  0  0  0  0  0  0  0  0  0  0
   21.6472   -7.3500  -15.8318 C   0  0  0  0  0  0  0  0  0  0  0  0
   22.2589   -6.9474  -16.8428 O   0  0  0  0  0  0  0  0  0  0  0  0
   23.3093  -11.7398  -16.9771 O   0  0  0  0  0  0  0  0  0  0  0  0
   17.8319   -4.8670  -15.3736 N   0  0  0  0  0  0  0  0  0  0  0  0
   19.1562   -4.5019  -15.7469 C   0  0  0  0  0  0  0  0  0  0  0  0
   19.4915   -4.3678  -16.9434 O   0  0  0  0  0  0  0  0  0  0  0  0
   20.1327   -4.2846  -14.6509 C   0  0  0  0  0  0  0  0  0  0  0  0
   21.4354   -5.0393  -14.9451 C   0  0  2  0  0  0  0  0  0  0  0  0
   21.1917   -6.4495  -14.8472 N   0  0  0  0  0  0  0  0  0  0  0  0
   22.5028   -4.5775  -14.0294 C   0  0  0  0  0  0  0  0  0  0  0  0
   22.9591   -3.2842  -14.0280 O   0  0  0  0  0  0  0  0  0  0  0  0
   23.0388   -5.3818  -13.2009 O   0  0  0  0  0  0  0  0  0  0  0  0
  2  1  1  6
  3  2  1  0
  4  2  1  0
  4  6  1  0
  4  5  1  1
  6  7  2  0
  8  9  1  0
  8  6  1  0
  9 13  1  0
  9 10  1  6
 11 10  1  0
 11 15  1  0
 12 11  2  0
 13 14  2  0
 17 16  1  0
 17 18  2  0
 19 17  1  0
 20 19  1  1
 21 20  1  0
 21 13  1  0
 22 23  1  0
 22 20  1  0
 24 22  2  0
M  END
$$$$
