TDN.pdb
     RDKit          3D

 24 23  0  0  1  0  0  0  0  0999 V2000
   17.6963  -13.3805  -14.8115 C   0  0  0  0  0  0  0  0  0  0  0  0
   18.0202  -11.9417  -15.0921 C   0  0  1  0  0  0  0  0  0  0  0  0
   19.2380  -11.9348  -15.7834 O   0  0  0  0  0  0  0  0  0  0  0  0
   16.9466  -11.2480  -15.9387 C   0  0  2  0  0  0  0  0  0  0  0  0
   17.1564  -11.7894  -17.3005 N   0  0  0  0  0  0  0  0  0  0  0  0
   17.2171   -9.8079  -15.9815 C   0  0  0  0  0  0  0  0  0  0  0  0
   17.9582   -9.3596  -16.9157 O   0  0  0  0  0  0  0  0  0  0  0  0
   16.7267   -8.8396  -15.0706 N   0  0  0  0  0  0  0  0  0  0  0  0
   17.0184   -7.4552  -15.2569 C   0  0  1  0  0  0  0  0  0  0  0  0
   15.9862   -6.5459  -14.6355 C   0  0  0  0  0  0  0  0  0  0  0  0
   14.6619   -6.6611  -15.2719 C   0  0  0  0  0  0  0  0  0  0  0  0
   14.5571   -6.5402  -16.5095 O   0  0  0  0  0  0  0  0  0  0  0  0
   18.3230   -7.0706  -14.6102 C   0  0  0  0  0  0  0  0  0  0  0  0
   18.9372   -7.9664  -13.9946 O   0  0  0  0  0  0  0  0  0  0  0  0
   13.5294   -6.9013  -14.5235 O   0  0  0  0  0  0  0  0  0  0  0  0
   22.6205   -4.9623  -13.3385 N   0  0  0  0  0  0  0  0  0  0  0  0
   22.5452   -5.9002  -14.4066 C   0  0  0  0  0  0  0  0  0  0  0  0
   23.5679   -6.4238  -14.8986 O   0  0  0  0  0  0  0  0  0  0  0  0
   21.1935   -6.2358  -14.9186 C   0  0  0  0  0  0  0  0  0  0  0  0
   20.1280   -5.4208  -14.1743 C   0  0  2  0  0  0  0  0  0  0  0  0
   18.8337   -5.7591  -14.6920 N   0  0  0  0  0  0  0  0  0  0  0  0
   20.4299   -3.9760  -14.2861 C   0  0  0  0  0  0  0  0  0  0  0  0
   21.2380   -3.3242  -13.3900 O   0  0  0  0  0  0  0  0  0  0  0  0
   19.9395   -3.2829  -15.2346 O   0  0  0  0  0  0  0  0  0  0  0  0
  2  1  1  6
  3  2  1  0
  4  2  1  0
  4  6  1  0
  4  5  1  6
  6  7  2  0
  8  9  1  0
  8  6  1  0
  9 13  1  0
  9 10  1  1
 11 10  1  0
 11 15  1  0
 12 11  2  0
 13 14  2  0
 17 16  1  0
 17 18  2  0
 19 17  1  0
 20 19  1  6
 21 20  1  0
 21 13  1  0
 22 23  1  0
 22 20  1  0
 24 22  2  0
M  END
$$$$
