TDN.pdb
     RDKit          3D

 24 23  0  0  1  0  0  0  0  0999 V2000
   15.4429   -5.5333   -8.8690 C   0  0  0  0  0  0  0  0  0  0  0  0
   14.8672   -6.7153   -8.1445 C   0  0  1  0  0  0  0  0  0  0  0  0
   13.9922   -6.2033   -7.1786 O   0  0  0  0  0  0  0  0  0  0  0  0
   14.1039   -7.6652   -9.0750 C   0  0  2  0  0  0  0  0  0  0  0  0
   13.8480   -8.8598   -8.2391 N   0  0  0  0  0  0  0  0  0  0  0  0
   14.9782   -8.0693  -10.1800 C   0  0  0  0  0  0  0  0  0  0  0  0
   15.8873   -8.9308   -9.9475 O   0  0  0  0  0  0  0  0  0  0  0  0
   14.9144   -7.5907  -11.5123 N   0  0  0  0  0  0  0  0  0  0  0  0
   15.8135   -8.0845  -12.5043 C   0  0  1  0  0  0  0  0  0  0  0  0
   15.1269   -8.4294  -13.8035 C   0  0  0  0  0  0  0  0  0  0  0  0
   16.0547   -8.9530  -14.8219 C   0  0  0  0  0  0  0  0  0  0  0  0
   16.2774   -8.2904  -15.8556 O   0  0  0  0  0  0  0  0  0  0  0  0
   16.8554   -7.0600  -12.8688 C   0  0  0  0  0  0  0  0  0  0  0  0
   16.4806   -5.8716  -12.9454 O   0  0  0  0  0  0  0  0  0  0  0  0
   16.6856  -10.1673  -14.6550 O   0  0  0  0  0  0  0  0  0  0  0  0
   22.8332   -6.1708  -13.4923 N   0  0  0  0  0  0  0  0  0  0  0  0
   21.5083   -5.7209  -13.2308 C   0  0  0  0  0  0  0  0  0  0  0  0
   21.1936   -4.5138  -13.3086 O   0  0  0  0  0  0  0  0  0  0  0  0
   20.5053   -6.7493  -12.8590 C   0  0  0  0  0  0  0  0  0  0  0  0
   19.1670   -6.4580  -13.5500 C   0  0  2  0  0  0  0  0  0  0  0  0
   18.1962   -7.4199  -13.1143 N   0  0  0  0  0  0  0  0  0  0  0  0
   19.3493   -6.4532  -15.0190 C   0  0  0  0  0  0  0  0  0  0  0  0
   19.7319   -5.3300  -15.7068 O   0  0  0  0  0  0  0  0  0  0  0  0
   19.1529   -7.5106  -15.7000 O   0  0  0  0  0  0  0  0  0  0  0  0
  2  1  1  6
  3  2  1  0
  4  2  1  0
  4  6  1  0
  4  5  1  1
  6  7  2  0
  8  9  1  0
  8  6  1  0
  9 13  1  0
  9 10  1  6
 11 10  1  0
 11 15  1  0
 12 11  2  0
 13 14  2  0
 17 16  1  0
 17 18  2  0
 19 17  1  0
 20 19  1  1
 21 20  1  0
 21 13  1  0
 22 23  1  0
 22 20  1  0
 24 22  2  0
M  END
$$$$
