TDN.pdb
     RDKit          3D

 24 23  0  0  1  0  0  0  0  0999 V2000
   17.3758  -10.4512  -10.7797 C   0  0  0  0  0  0  0  0  0  0  0  0
   15.9352  -10.5967  -11.1761 C   0  0  1  0  0  0  0  0  0  0  0  0
   15.6792  -11.9714  -11.2503 O   0  0  0  0  0  0  0  0  0  0  0  0
   14.9765   -9.9507  -10.1691 C   0  0  2  0  0  0  0  0  0  0  0  0
   13.6310  -10.2548  -10.7066 N   0  0  0  0  0  0  0  0  0  0  0  0
   15.1522   -8.4956  -10.1957 C   0  0  0  0  0  0  0  0  0  0  0  0
   14.8146   -7.8652  -11.2499 O   0  0  0  0  0  0  0  0  0  0  0  0
   15.6695   -7.6985   -9.1446 N   0  0  0  0  0  0  0  0  0  0  0  0
   15.8512   -6.2941   -9.3211 C   0  0  1  0  0  0  0  0  0  0  0  0
   15.5276   -5.4968   -8.0810 C   0  0  0  0  0  0  0  0  0  0  0  0
   14.0791   -5.3223   -7.8723 C   0  0  0  0  0  0  0  0  0  0  0  0
   13.2836   -5.5931   -8.7947 O   0  0  0  0  0  0  0  0  0  0  0  0
   17.2824   -5.9557   -9.6451 C   0  0  0  0  0  0  0  0  0  0  0  0
   18.1368   -6.2045   -8.7694 O   0  0  0  0  0  0  0  0  0  0  0  0
   13.5818   -4.8631   -6.6713 O   0  0  0  0  0  0  0  0  0  0  0  0
   21.5193   -5.3946  -12.2329 N   0  0  0  0  0  0  0  0  0  0  0  0
   20.9973   -6.6712  -11.8811 C   0  0  0  0  0  0  0  0  0  0  0  0
   21.6896   -7.7095  -11.9504 O   0  0  0  0  0  0  0  0  0  0  0  0
   19.5863   -6.7229  -11.4245 C   0  0  0  0  0  0  0  0  0  0  0  0
   19.0185   -5.3035  -11.2977 C   0  0  2  0  0  0  0  0  0  0  0  0
   17.6484   -5.3830  -10.8803 N   0  0  0  0  0  0  0  0  0  0  0  0
   19.1864   -4.5777  -12.5768 C   0  0  0  0  0  0  0  0  0  0  0  0
   20.2718   -3.7782  -12.8293 O   0  0  0  0  0  0  0  0  0  0  0  0
   18.3126   -4.6757  -13.4972 O   0  0  0  0  0  0  0  0  0  0  0  0
  2  1  1  1
  3  2  1  0
  4  2  1  0
  4  6  1  0
  4  5  1  6
  6  7  2  0
  8  9  1  0
  8  6  1  0
  9 13  1  0
  9 10  1  1
 11 10  1  0
 11 15  1  0
 12 11  2  0
 13 14  2  0
 17 16  1  0
 17 18  2  0
 19 17  1  0
 20 19  1  6
 21 20  1  0
 21 13  1  0
 22 23  1  0
 22 20  1  0
 24 22  2  0
M  END
$$$$
