TDN.pdb
     RDKit          3D

 24 23  0  0  1  0  0  0  0  0999 V2000
   23.3396  -12.5303  -18.0365 C   0  0  0  0  0  0  0  0  0  0  0  0
   22.1850  -11.5748  -17.9504 C   0  0  1  0  0  0  0  0  0  0  0  0
   21.0209  -12.3526  -17.9806 O   0  0  0  0  0  0  0  0  0  0  0  0
   22.2067  -10.7348  -16.6679 C   0  0  2  0  0  0  0  0  0  0  0  0
   22.1607  -11.7376  -15.5798 N   0  0  0  0  0  0  0  0  0  0  0  0
   20.9819   -9.9330  -16.5916 C   0  0  0  0  0  0  0  0  0  0  0  0
   20.8518   -8.9506  -17.3919 O   0  0  0  0  0  0  0  0  0  0  0  0
   19.9013  -10.1436  -15.6995 N   0  0  0  0  0  0  0  0  0  0  0  0
   18.8059   -9.2299  -15.6585 C   0  0  1  0  0  0  0  0  0  0  0  0
   17.5230   -9.8677  -15.1836 C   0  0  0  0  0  0  0  0  0  0  0  0
   16.3797   -8.9377  -15.1978 C   0  0  0  0  0  0  0  0  0  0  0  0
   16.1679   -8.2020  -14.2124 O   0  0  0  0  0  0  0  0  0  0  0  0
   19.0625   -8.0981  -14.6987 C   0  0  0  0  0  0  0  0  0  0  0  0
   19.3908   -8.4049  -13.5340 O   0  0  0  0  0  0  0  0  0  0  0  0
   15.5343   -8.8633  -16.2842 O   0  0  0  0  0  0  0  0  0  0  0  0
   21.3570   -3.9211  -13.3651 N   0  0  0  0  0  0  0  0  0  0  0  0
   22.0366   -4.9362  -14.0959 C   0  0  0  0  0  0  0  0  0  0  0  0
   23.2781   -4.9274  -14.2394 O   0  0  0  0  0  0  0  0  0  0  0  0
   21.2069   -6.0155  -14.6864 C   0  0  0  0  0  0  0  0  0  0  0  0
   19.7175   -5.7121  -14.4789 C   0  0  2  0  0  0  0  0  0  0  0  0
   18.9389   -6.7496  -15.0913 N   0  0  0  0  0  0  0  0  0  0  0  0
   19.3987   -4.3676  -15.0097 C   0  0  0  0  0  0  0  0  0  0  0  0
   19.5529   -3.2284  -14.2618 O   0  0  0  0  0  0  0  0  0  0  0  0
   18.9641   -4.2261  -16.1978 O   0  0  0  0  0  0  0  0  0  0  0  0
  2  1  1  1
  3  2  1  0
  4  2  1  0
  4  6  1  0
  4  5  1  1
  6  7  2  0
  8  9  1  0
  8  6  1  0
  9 13  1  0
  9 10  1  1
 11 10  1  0
 11 15  1  0
 12 11  2  0
 13 14  2  0
 17 16  1  0
 17 18  2  0
 19 17  1  0
 20 19  1  6
 21 20  1  0
 21 13  1  0
 22 23  1  0
 22 20  1  0
 24 22  2  0
M  END
$$$$
