CMW.pdb
     RDKit          3D

 29 30  0  0  1  0  0  0  0  0999 V2000
   11.9200  -17.4406   17.8646 N   0  0  0  0  0  0  0  0  0  0  0  0
   10.9101  -18.0333   18.7098 C   0  0  1  0  0  0  0  0  0  0  0  0
   11.5452  -19.1982   19.4572 C   0  0  0  0  0  0  0  0  0  0  0  0
   13.3041  -18.9415   19.7543 S   0  0  0  0  0  0  0  0  0  0  0  0
   10.5171  -17.0439   19.7555 C   0  0  0  0  0  0  0  0  0  0  0  0
   11.3315  -16.1263   20.0008 O   0  0  0  0  0  0  0  0  0  0  0  0
    8.5763  -12.5603   19.3813 C   0  0  0  0  0  0  0  0  0  0  0  0
    7.1027  -13.3674   19.9553 S   0  0  0  0  0  0  0  0  0  0  0  0
    7.0785  -15.1397   19.8560 C   0  0  0  0  0  0  0  0  0  0  0  0
    7.4662  -15.8177   21.1325 C   0  0  0  0  0  0  0  0  0  0  0  0
    8.8942  -15.9929   21.3397 C   0  0  2  0  0  0  0  0  0  0  0  0
    9.2814  -17.1334   20.4423 N   0  0  0  0  0  0  0  0  0  0  0  0
    9.4283  -16.3861   22.6338 C   0  0  0  0  0  0  0  0  0  0  0  0
   10.0322  -17.5330   22.6865 O   0  0  0  0  0  0  0  0  0  0  0  0
    9.4057  -15.7263   23.8711 N   0  0  0  0  0  0  0  0  0  0  0  0
    9.9113  -16.3257   25.1231 C   0  0  1  0  0  0  0  0  0  0  0  0
    9.7188  -15.3954   26.2586 C   0  0  0  0  0  0  0  0  0  0  0  0
    8.3470  -14.8865   26.3631 C   0  0  0  0  0  0  0  0  0  0  0  0
    7.1785  -15.6472   26.3290 C   0  0  0  0  0  0  0  0  0  0  0  0
    6.0955  -14.8614   26.4099 N   0  0  0  0  0  0  0  0  0  0  0  0
    6.5270  -13.5999   26.4975 C   0  0  0  0  0  0  0  0  0  0  0  0
    5.7572  -12.4359   26.6211 C   0  0  0  0  0  0  0  0  0  0  0  0
    6.4524  -11.2537   26.7187 C   0  0  0  0  0  0  0  0  0  0  0  0
    7.8263  -11.2086   26.6971 C   0  0  0  0  0  0  0  0  0  0  0  0
    8.5616  -12.3562   26.5747 C   0  0  0  0  0  0  0  0  0  0  0  0
    7.9036  -13.5643   26.4731 C   0  0  0  0  0  0  0  0  0  0  0  0
    9.3471  -17.6482   25.3845 C   0  0  0  0  0  0  0  0  0  0  0  0
    8.3279  -18.0254   24.7472 O   0  0  0  0  0  0  0  0  0  0  0  0
    9.9076  -18.4893   26.3029 O   0  0  0  0  0  0  0  0  0  0  0  0
  2  1  1  6
  3  4  1  0
  3  2  1  0
  5  2  1  0
  6  5  2  0
  7  8  1  0
  8  9  1  0
  9 10  1  0
 11 12  1  0
 11 10  1  1
 12  5  1  0
 13 11  1  0
 14 13  2  0
 15 13  1  0
 16 17  1  1
 16 15  1  0
 17 18  1  0
 18 19  2  0
 19 20  1  0
 21 22  2  0
 21 20  1  0
 23 22  1  0
 24 23  2  0
 25 24  1  0
 25 26  2  0
 26 18  1  0
 26 21  1  0
 27 29  1  0
 27 16  1  0
 28 27  2  0
M  END
$$$$
