CMW.pdb
     RDKit          3D

 29 30  0  0  1  0  0  0  0  0999 V2000
   10.4937  -18.7098   18.1797 N   0  0  0  0  0  0  0  0  0  0  0  0
    9.8359  -18.8930   19.4522 C   0  0  1  0  0  0  0  0  0  0  0  0
   10.5337  -20.0318   20.1839 C   0  0  0  0  0  0  0  0  0  0  0  0
    9.7813  -21.6314   19.8334 S   0  0  0  0  0  0  0  0  0  0  0  0
   10.0568  -17.6762   20.2873 C   0  0  0  0  0  0  0  0  0  0  0  0
   11.1331  -17.0612   20.1176 O   0  0  0  0  0  0  0  0  0  0  0  0
    6.7585  -12.8233   19.4272 C   0  0  0  0  0  0  0  0  0  0  0  0
    7.0071  -12.6166   21.1730 S   0  0  0  0  0  0  0  0  0  0  0  0
    8.2332  -13.6546   21.9285 C   0  0  0  0  0  0  0  0  0  0  0  0
    8.2430  -15.0544   21.3995 C   0  0  0  0  0  0  0  0  0  0  0  0
    9.3219  -15.8992   21.8842 C   0  0  2  0  0  0  0  0  0  0  0  0
    9.0972  -17.2325   21.2300 N   0  0  0  0  0  0  0  0  0  0  0  0
    9.4466  -16.2326   23.2942 C   0  0  0  0  0  0  0  0  0  0  0  0
    8.8578  -17.3199   23.6863 O   0  0  0  0  0  0  0  0  0  0  0  0
   10.1098  -15.5677   24.3358 N   0  0  0  0  0  0  0  0  0  0  0  0
   10.1470  -16.0651   25.7263 C   0  0  1  0  0  0  0  0  0  0  0  0
    8.8281  -16.6122   26.1173 C   0  0  0  0  0  0  0  0  0  0  0  0
    7.7363  -15.6420   25.9812 C   0  0  0  0  0  0  0  0  0  0  0  0
    6.4643  -15.8957   25.4684 C   0  0  0  0  0  0  0  0  0  0  0  0
    5.7258  -14.7772   25.4500 N   0  0  0  0  0  0  0  0  0  0  0  0
    6.4848  -13.7933   25.9409 C   0  0  0  0  0  0  0  0  0  0  0  0
    6.1321  -12.4510   26.1327 C   0  0  0  0  0  0  0  0  0  0  0  0
    7.0971  -11.6404   26.6823 C   0  0  0  0  0  0  0  0  0  0  0  0
    8.3409  -12.1136   27.0271 C   0  0  0  0  0  0  0  0  0  0  0  0
    8.6679  -13.4279   26.8316 C   0  0  0  0  0  0  0  0  0  0  0  0
    7.7290  -14.2758   26.2816 C   0  0  0  0  0  0  0  0  0  0  0  0
   11.2346  -17.0134   25.9582 C   0  0  0  0  0  0  0  0  0  0  0  0
   11.4229  -17.4710   27.1169 O   0  0  0  0  0  0  0  0  0  0  0  0
   12.0491  -17.4209   24.9406 O   0  0  0  0  0  0  0  0  0  0  0  0
  2  1  1  6
  3  4  1  0
  3  2  1  0
  5  2  1  0
  6  5  2  0
  7  8  1  0
  8  9  1  0
  9 10  1  0
 11 12  1  0
 11 10  1  1
 12  5  1  0
 13 11  1  0
 14 13  2  0
 15 13  1  0
 16 17  1  6
 16 15  1  0
 17 18  1  0
 18 19  2  0
 19 20  1  0
 21 22  2  0
 21 20  1  0
 23 22  1  0
 24 23  2  0
 25 24  1  0
 25 26  2  0
 26 18  1  0
 26 21  1  0
 27 29  1  0
 27 16  1  0
 28 27  2  0
M  END
$$$$
