CMW.pdb
     RDKit          3D

 29 30  0  0  1  0  0  0  0  0999 V2000
    9.2134  -19.1376   17.9216 N   0  0  0  0  0  0  0  0  0  0  0  0
    8.4681  -18.7022   19.0794 C   0  0  1  0  0  0  0  0  0  0  0  0
    8.1903  -19.9223   19.9473 C   0  0  0  0  0  0  0  0  0  0  0  0
    8.5542  -21.4662   19.0918 S   0  0  0  0  0  0  0  0  0  0  0  0
    9.3349  -17.8071   19.9005 C   0  0  0  0  0  0  0  0  0  0  0  0
   10.5720  -17.9482   19.7767 O   0  0  0  0  0  0  0  0  0  0  0  0
    6.2419  -12.0826   19.7288 C   0  0  0  0  0  0  0  0  0  0  0  0
    7.9081  -12.6220   20.0208 S   0  0  0  0  0  0  0  0  0  0  0  0
    8.1060  -14.2314   20.7434 C   0  0  0  0  0  0  0  0  0  0  0  0
    9.5349  -14.6232   20.9539 C   0  0  0  0  0  0  0  0  0  0  0  0
    9.7447  -15.9461   21.5183 C   0  0  2  0  0  0  0  0  0  0  0  0
    8.7896  -16.8406   20.7809 N   0  0  0  0  0  0  0  0  0  0  0  0
    9.4580  -16.2265   22.9160 C   0  0  0  0  0  0  0  0  0  0  0  0
    8.2214  -16.1055   23.2890 O   0  0  0  0  0  0  0  0  0  0  0  0
   10.3059  -16.6159   23.9631 N   0  0  0  0  0  0  0  0  0  0  0  0
   10.2294  -16.0511   25.3260 C   0  0  1  0  0  0  0  0  0  0  0  0
    9.0355  -16.5650   26.0346 C   0  0  0  0  0  0  0  0  0  0  0  0
    7.8749  -15.6734   25.9341 C   0  0  0  0  0  0  0  0  0  0  0  0
    6.6291  -15.9959   25.3964 C   0  0  0  0  0  0  0  0  0  0  0  0
    5.8090  -14.9360   25.4242 N   0  0  0  0  0  0  0  0  0  0  0  0
    6.4887  -13.9234   25.9700 C   0  0  0  0  0  0  0  0  0  0  0  0
    6.0350  -12.6221   26.2225 C   0  0  0  0  0  0  0  0  0  0  0  0
    6.9328  -11.7697   26.8206 C   0  0  0  0  0  0  0  0  0  0  0  0
    8.2062  -12.1651   27.1552 C   0  0  0  0  0  0  0  0  0  0  0  0
    8.6321  -13.4403   26.8999 C   0  0  0  0  0  0  0  0  0  0  0  0
    7.7632  -14.3279   26.3000 C   0  0  0  0  0  0  0  0  0  0  0  0
   11.4593  -16.2499   26.0899 C   0  0  0  0  0  0  0  0  0  0  0  0
   11.5096  -15.8798   27.2932 O   0  0  0  0  0  0  0  0  0  0  0  0
   12.5564  -16.8371   25.5271 O   0  0  0  0  0  0  0  0  0  0  0  0
  2  1  1  6
  3  4  1  0
  3  2  1  0
  5  2  1  0
  6  5  2  0
  7  8  1  0
  8  9  1  0
  9 10  1  0
 11 12  1  0
 11 10  1  1
 12  5  1  0
 13 11  1  0
 14 13  2  0
 15 13  1  0
 16 17  1  1
 16 15  1  0
 17 18  1  0
 18 19  2  0
 19 20  1  0
 21 22  2  0
 21 20  1  0
 23 22  1  0
 24 23  2  0
 25 24  1  0
 25 26  2  0
 26 18  1  0
 26 21  1  0
 27 29  1  0
 27 16  1  0
 28 27  2  0
M  END
$$$$
