CMW.pdb
     RDKit          3D

 29 30  0  0  1  0  0  0  0  0999 V2000
    6.6225  -20.0270   21.2006 N   0  0  0  0  0  0  0  0  0  0  0  0
    6.1267  -18.6900   21.4290 C   0  0  1  0  0  0  0  0  0  0  0  0
    5.4619  -18.6615   22.7988 C   0  0  0  0  0  0  0  0  0  0  0  0
    6.6043  -19.1001   24.1218 S   0  0  0  0  0  0  0  0  0  0  0  0
    7.2868  -17.7558   21.5197 C   0  0  0  0  0  0  0  0  0  0  0  0
    8.4265  -18.2709   21.5563 O   0  0  0  0  0  0  0  0  0  0  0  0
    8.1269  -11.4849   19.2145 C   0  0  0  0  0  0  0  0  0  0  0  0
    7.1801  -12.9127   18.7483 S   0  0  0  0  0  0  0  0  0  0  0  0
    7.5962  -14.4386   19.5543 C   0  0  0  0  0  0  0  0  0  0  0  0
    8.0218  -14.2684   20.9789 C   0  0  0  0  0  0  0  0  0  0  0  0
    8.3423  -15.4962   21.6875 C   0  0  2  0  0  0  0  0  0  0  0  0
    7.1133  -16.3507   21.5629 N   0  0  0  0  0  0  0  0  0  0  0  0
    8.6096  -15.4971   23.1169 C   0  0  0  0  0  0  0  0  0  0  0  0
    8.2096  -14.4572   23.7813 O   0  0  0  0  0  0  0  0  0  0  0  0
    9.2417  -16.4504   23.9284 N   0  0  0  0  0  0  0  0  0  0  0  0
   10.0316  -16.1040   25.1278 C   0  0  1  0  0  0  0  0  0  0  0  0
    9.2016  -16.2227   26.3479 C   0  0  0  0  0  0  0  0  0  0  0  0
    7.9642  -15.4372   26.2842 C   0  0  0  0  0  0  0  0  0  0  0  0
    6.6857  -15.9292   26.0227 C   0  0  0  0  0  0  0  0  0  0  0  0
    5.7878  -14.9342   25.9984 N   0  0  0  0  0  0  0  0  0  0  0  0
    6.4486  -13.7983   26.2394 C   0  0  0  0  0  0  0  0  0  0  0  0
    5.9237  -12.5025   26.3309 C   0  0  0  0  0  0  0  0  0  0  0  0
    6.8214  -11.5006   26.6152 C   0  0  0  0  0  0  0  0  0  0  0  0
    8.1607  -11.7489   26.8007 C   0  0  0  0  0  0  0  0  0  0  0  0
    8.6555  -13.0213   26.7065 C   0  0  0  0  0  0  0  0  0  0  0  0
    7.7891  -14.0562   26.4219 C   0  0  0  0  0  0  0  0  0  0  0  0
   11.2757  -16.8647   25.2241 C   0  0  0  0  0  0  0  0  0  0  0  0
   12.0894  -16.6093   26.1514 O   0  0  0  0  0  0  0  0  0  0  0  0
   11.5725  -17.8547   24.3313 O   0  0  0  0  0  0  0  0  0  0  0  0
  2  1  1  1
  3  4  1  0
  3  2  1  0
  5  2  1  0
  6  5  2  0
  7  8  1  0
  8  9  1  0
  9 10  1  0
 11 12  1  0
 11 10  1  1
 12  5  1  0
 13 11  1  0
 14 13  2  0
 15 13  1  0
 16 17  1  1
 16 15  1  0
 17 18  1  0
 18 19  2  0
 19 20  1  0
 21 22  2  0
 21 20  1  0
 23 22  1  0
 24 23  2  0
 25 24  1  0
 25 26  2  0
 26 18  1  0
 26 21  1  0
 27 29  1  0
 27 16  1  0
 28 27  2  0
M  END
$$$$
