CMW.pdb
     RDKit          3D

 29 30  0  0  1  0  0  0  0  0999 V2000
   10.9682  -18.4597   19.0774 N   0  0  0  0  0  0  0  0  0  0  0  0
    9.7892  -18.4803   19.9111 C   0  0  1  0  0  0  0  0  0  0  0  0
    9.9483  -19.6057   20.9246 C   0  0  0  0  0  0  0  0  0  0  0  0
   11.3345  -19.3276   22.0422 S   0  0  0  0  0  0  0  0  0  0  0  0
    9.7411  -17.2190   20.7071 C   0  0  0  0  0  0  0  0  0  0  0  0
   10.7875  -16.5342   20.7460 O   0  0  0  0  0  0  0  0  0  0  0  0
    7.1882  -12.1342   18.8110 C   0  0  0  0  0  0  0  0  0  0  0  0
    7.7803  -13.0789   20.1929 S   0  0  0  0  0  0  0  0  0  0  0  0
    6.7364  -14.3992   20.7572 C   0  0  0  0  0  0  0  0  0  0  0  0
    7.1960  -15.0221   22.0380 C   0  0  0  0  0  0  0  0  0  0  0  0
    8.5802  -15.4648   22.0574 C   0  0  2  0  0  0  0  0  0  0  0  0
    8.5690  -16.8100   21.3892 N   0  0  0  0  0  0  0  0  0  0  0  0
    9.2766  -15.7162   23.3090 C   0  0  0  0  0  0  0  0  0  0  0  0
   10.3197  -14.9832   23.5485 O   0  0  0  0  0  0  0  0  0  0  0  0
    9.0130  -16.6376   24.3330 N   0  0  0  0  0  0  0  0  0  0  0  0
    9.8901  -16.8233   25.5072 C   0  0  1  0  0  0  0  0  0  0  0  0
    9.2566  -16.2624   26.7221 C   0  0  0  0  0  0  0  0  0  0  0  0
    8.0308  -15.5079   26.4392 C   0  0  0  0  0  0  0  0  0  0  0  0
    6.7850  -16.0458   26.1171 C   0  0  0  0  0  0  0  0  0  0  0  0
    5.8928  -15.0739   25.8803 N   0  0  0  0  0  0  0  0  0  0  0  0
    6.5252  -13.9079   26.0410 C   0  0  0  0  0  0  0  0  0  0  0  0
    5.9923  -12.6181   25.9175 C   0  0  0  0  0  0  0  0  0  0  0  0
    6.8562  -11.5765   26.1609 C   0  0  0  0  0  0  0  0  0  0  0  0
    8.1709  -11.7816   26.5067 C   0  0  0  0  0  0  0  0  0  0  0  0
    8.6740  -13.0490   26.6217 C   0  0  0  0  0  0  0  0  0  0  0  0
    7.8413  -14.1230   26.3851 C   0  0  0  0  0  0  0  0  0  0  0  0
   10.3069  -18.2125   25.6869 C   0  0  0  0  0  0  0  0  0  0  0  0
    9.7927  -19.1126   24.9708 O   0  0  0  0  0  0  0  0  0  0  0  0
   11.2506  -18.5555   26.6126 O   0  0  0  0  0  0  0  0  0  0  0  0
  2  1  1  6
  3  4  1  0
  3  2  1  0
  5  2  1  0
  6  5  2  0
  7  8  1  0
  8  9  1  0
  9 10  1  0
 11 12  1  0
 11 10  1  1
 12  5  1  0
 13 11  1  0
 14 13  2  0
 15 13  1  0
 16 17  1  1
 16 15  1  0
 17 18  1  0
 18 19  2  0
 19 20  1  0
 21 22  2  0
 21 20  1  0
 23 22  1  0
 24 23  2  0
 25 24  1  0
 25 26  2  0
 26 18  1  0
 26 21  1  0
 27 29  1  0
 27 16  1  0
 28 27  2  0
M  END
$$$$
