CMW.pdb
     RDKit          3D

 29 30  0  0  1  0  0  0  0  0999 V2000
    8.6626  -20.1863   20.1866 N   0  0  0  0  0  0  0  0  0  0  0  0
    7.9131  -19.5838   21.2640 C   0  0  1  0  0  0  0  0  0  0  0  0
    8.4136  -20.1755   22.5749 C   0  0  0  0  0  0  0  0  0  0  0  0
    7.4951  -19.5587   23.9975 S   0  0  0  0  0  0  0  0  0  0  0  0
    8.2401  -18.1290   21.3225 C   0  0  0  0  0  0  0  0  0  0  0  0
    9.4260  -17.8058   21.0886 O   0  0  0  0  0  0  0  0  0  0  0  0
    8.3581  -11.5346   19.4559 C   0  0  0  0  0  0  0  0  0  0  0  0
    8.1292  -13.2030   20.0184 S   0  0  0  0  0  0  0  0  0  0  0  0
    6.7396  -13.4979   21.0831 C   0  0  0  0  0  0  0  0  0  0  0  0
    6.5068  -14.9463   21.3788 C   0  0  0  0  0  0  0  0  0  0  0  0
    7.6955  -15.7188   21.6995 C   0  0  2  0  0  0  0  0  0  0  0  0
    7.2589  -17.1542   21.6280 N   0  0  0  0  0  0  0  0  0  0  0  0
    8.3299  -15.6242   23.0045 C   0  0  0  0  0  0  0  0  0  0  0  0
    7.8111  -14.7790   23.8406 O   0  0  0  0  0  0  0  0  0  0  0  0
    9.4357  -16.3046   23.5352 N   0  0  0  0  0  0  0  0  0  0  0  0
   10.0557  -15.9643   24.8322 C   0  0  1  0  0  0  0  0  0  0  0  0
    9.1187  -16.2422   25.9441 C   0  0  0  0  0  0  0  0  0  0  0  0
    7.8899  -15.4436   25.8782 C   0  0  0  0  0  0  0  0  0  0  0  0
    6.6301  -15.8962   25.4871 C   0  0  0  0  0  0  0  0  0  0  0  0
    5.7379  -14.8959   25.5030 N   0  0  0  0  0  0  0  0  0  0  0  0
    6.3842  -13.7950   25.8973 C   0  0  0  0  0  0  0  0  0  0  0  0
    5.8574  -12.5100   26.0821 C   0  0  0  0  0  0  0  0  0  0  0  0
    6.7368  -11.5488   26.5215 C   0  0  0  0  0  0  0  0  0  0  0  0
    8.0606  -11.8258   26.7681 C   0  0  0  0  0  0  0  0  0  0  0  0
    8.5576  -13.0870   26.5810 C   0  0  0  0  0  0  0  0  0  0  0  0
    7.7093  -14.0814   26.1400 C   0  0  0  0  0  0  0  0  0  0  0  0
   11.3540  -16.6072   25.0237 C   0  0  0  0  0  0  0  0  0  0  0  0
   12.0132  -16.3752   26.0720 O   0  0  0  0  0  0  0  0  0  0  0  0
   11.8662  -17.4627   24.0904 O   0  0  0  0  0  0  0  0  0  0  0  0
  2  1  1  6
  3  4  1  0
  3  2  1  0
  5  2  1  0
  6  5  2  0
  7  8  1  0
  8  9  1  0
  9 10  1  0
 11 12  1  0
 11 10  1  1
 12  5  1  0
 13 11  1  0
 14 13  2  0
 15 13  1  0
 16 17  1  1
 16 15  1  0
 17 18  1  0
 18 19  2  0
 19 20  1  0
 21 22  2  0
 21 20  1  0
 23 22  1  0
 24 23  2  0
 25 24  1  0
 25 26  2  0
 26 18  1  0
 26 21  1  0
 27 29  1  0
 27 16  1  0
 28 27  2  0
M  END
$$$$
