RIF.pdb
     RDKit          3D

 31 31  0  0  1  0  0  0  0  0999 V2000
   30.6140  -16.6210  -19.4087 N   0  0  0  0  0  0  0  0  0  0  0  0
   29.2015  -16.7458  -19.1302 C   0  0  0  0  0  0  0  0  0  0  0  0
   28.3457  -16.1992  -19.9022 N   0  0  0  0  0  0  0  0  0  0  0  0
   28.7594  -17.4764  -17.9914 N   0  0  0  0  0  0  0  0  0  0  0  0
   29.7066  -18.0469  -17.0691 C   0  0  0  0  0  0  0  0  0  0  0  0
   29.8503  -19.5279  -17.2681 C   0  0  0  0  0  0  0  0  0  0  0  0
   28.5525  -20.2756  -17.3721 C   0  0  0  0  0  0  0  0  0  0  0  0
   28.8283  -21.7435  -17.3499 C   0  0  2  0  0  0  0  0  0  0  0  0
   29.7074  -22.0959  -18.4230 N   0  0  0  0  0  0  0  0  0  0  0  0
   27.5668  -22.5398  -17.4790 C   0  0  0  0  0  0  0  0  0  0  0  0
   26.9846  -22.6229  -18.5974 O   0  0  0  0  0  0  0  0  0  0  0  0
   27.3249  -16.2847  -19.7472 C   0  0  0  0  0  0  0  0  0  0  0  0
   26.5534  -26.7243  -17.6819 C   0  0  0  0  0  0  0  0  0  0  0  0
   26.7689  -26.2020  -16.2799 C   0  0  1  0  0  0  0  0  0  0  0  0
   25.7470  -25.2489  -15.7927 C   0  0  0  0  0  0  0  0  0  0  0  0
   24.3836  -25.8612  -16.2114 C   0  0  2  0  0  0  0  0  0  0  0  0
   25.7363  -23.8751  -16.3132 N   0  0  0  0  0  0  0  0  0  0  0  0
   27.0103  -23.2021  -16.3703 C   0  0  0  0  0  0  0  0  0  0  0  0
   24.5684  -23.0255  -16.0558 O   0  0  0  0  0  0  0  0  0  0  0  0
   24.2625  -22.7305  -14.8797 N   0  0  0  0  0  0  0  0  0  0  0  0
   23.7475  -22.5022  -17.0645 C   0  0  2  0  0  0  0  0  0  0  0  0
   22.5564  -21.6903  -16.7646 C   0  0  0  0  0  0  0  0  0  0  0  0
   22.2608  -20.6818  -17.8093 C   0  0  0  0  0  0  0  0  0  0  0  0
   21.0218  -19.9214  -17.5307 C   0  0  0  0  0  0  0  0  0  0  0  0
   21.0197  -18.7406  -16.7984 C   0  0  0  0  0  0  0  0  0  0  0  0
   19.8891  -18.0286  -16.5332 C   0  0  0  0  0  0  0  0  0  0  0  0
   18.6620  -18.4944  -17.0118 C   0  0  0  0  0  0  0  0  0  0  0  0
   18.6306  -19.6620  -17.7407 C   0  0  0  0  0  0  0  0  0  0  0  0
   19.8112  -20.3719  -17.9982 C   0  0  0  0  0  0  0  0  0  0  0  0
   21.3701  -22.5971  -16.5167 O   0  0  0  0  0  0  0  0  0  0  0  0
   20.6150  -22.4044  -15.5419 O   0  0  0  0  0  0  0  0  0  0  0  0
  2  1  1  0
  2  3  2  0
  4  2  1  0
  5  4  1  0
  6  5  1  0
  7  6  1  0
  8  7  1  0
  8  9  1  6
 10 11  2  0
 10  8  1  0
 13 14  1  0
 13 12  1  0
 14 15  1  1
 16 17  1  6
 16 14  1  0
 17 10  1  0
 18 16  1  0
 19 18  2  0
 20 18  1  0
 21 20  1  0
 21 22  1  1
 22 23  1  0
 23 24  2  0
 24 25  1  0
 26 25  2  0
 27 26  1  0
 28 27  2  0
 28 23  1  0
 29 21  1  0
 29 31  1  0
 30 29  2  0
M  END
$$$$
