RIF.pdb
     RDKit          3D

 31 31  0  0  1  0  0  0  0  0999 V2000
   20.6466  -21.4490  -11.8324 N   0  0  0  0  0  0  0  0  0  0  0  0
   19.5369  -22.0795  -12.5101 C   0  0  0  0  0  0  0  0  0  0  0  0
   18.3694  -22.0440  -11.9973 N   0  0  0  0  0  0  0  0  0  0  0  0
   19.7424  -22.7456  -13.7511 N   0  0  0  0  0  0  0  0  0  0  0  0
   21.0655  -22.8848  -14.3019 C   0  0  0  0  0  0  0  0  0  0  0  0
   21.5720  -24.2926  -14.1774 C   0  0  0  0  0  0  0  0  0  0  0  0
   22.9375  -24.4161  -13.5658 C   0  0  0  0  0  0  0  0  0  0  0  0
   23.9487  -23.8385  -14.5013 C   0  0  2  0  0  0  0  0  0  0  0  0
   24.4702  -24.8614  -15.3560 N   0  0  0  0  0  0  0  0  0  0  0  0
   25.0844  -23.2062  -13.7580 C   0  0  0  0  0  0  0  0  0  0  0  0
   25.9968  -23.9288  -13.2662 O   0  0  0  0  0  0  0  0  0  0  0  0
   17.5342  -22.4018  -12.4949 C   0  0  0  0  0  0  0  0  0  0  0  0
   28.3373  -17.9668  -13.8434 C   0  0  0  0  0  0  0  0  0  0  0  0
   27.8150  -19.1125  -13.0070 C   0  0  2  0  0  0  0  0  0  0  0  0
   26.6932  -19.8733  -13.6011 C   0  0  0  0  0  0  0  0  0  0  0  0
   25.4982  -18.8833  -13.6318 C   0  0  2  0  0  0  0  0  0  0  0  0
   26.1919  -21.0718  -12.9151 N   0  0  0  0  0  0  0  0  0  0  0  0
   25.1563  -21.8114  -13.5929 C   0  0  0  0  0  0  0  0  0  0  0  0
   26.1392  -21.0832  -11.4490 O   0  0  0  0  0  0  0  0  0  0  0  0
   25.0319  -21.0918  -10.8677 N   0  0  0  0  0  0  0  0  0  0  0  0
   27.2754  -21.0882  -10.6280 C   0  0  1  0  0  0  0  0  0  0  0  0
   27.1884  -20.9315   -9.1666 C   0  0  0  0  0  0  0  0  0  0  0  0
   28.4356  -20.4078   -8.5617 C   0  0  0  0  0  0  0  0  0  0  0  0
   28.2940  -20.1350   -7.1138 C   0  0  0  0  0  0  0  0  0  0  0  0
   27.6835  -18.9856   -6.6272 C   0  0  0  0  0  0  0  0  0  0  0  0
   27.5448  -18.7193   -5.2985 C   0  0  0  0  0  0  0  0  0  0  0  0
   28.0360  -19.6350   -4.3646 C   0  0  0  0  0  0  0  0  0  0  0  0
   28.6467  -20.7837   -4.8150 C   0  0  0  0  0  0  0  0  0  0  0  0
   28.7735  -21.0303   -6.1888 C   0  0  0  0  0  0  0  0  0  0  0  0
   25.9960  -20.0676   -8.8163 O   0  0  0  0  0  0  0  0  0  0  0  0
   25.1398  -20.4658   -8.0001 O   0  0  0  0  0  0  0  0  0  0  0  0
  2  1  1  0
  2  3  2  0
  4  2  1  0
  5  4  1  0
  6  5  1  0
  7  6  1  0
  8  7  1  0
  8  9  1  6
 10 11  2  0
 10  8  1  0
 13 14  1  0
 13 12  1  0
 14 15  1  6
 16 17  1  1
 16 14  1  0
 17 10  1  0
 18 16  1  0
 19 18  2  0
 20 18  1  0
 21 20  1  0
 21 22  1  6
 22 23  1  0
 23 24  2  0
 24 25  1  0
 26 25  2  0
 27 26  1  0
 28 27  2  0
 28 23  1  0
 29 21  1  0
 29 31  1  0
 30 29  2  0
M  END
$$$$
