RIF.pdb
     RDKit          3D

 31 31  0  0  1  0  0  0  0  0999 V2000
   19.3085  -19.8350  -12.3655 N   0  0  0  0  0  0  0  0  0  0  0  0
   19.2165  -20.3132  -13.7261 C   0  0  0  0  0  0  0  0  0  0  0  0
   18.0749  -20.4962  -14.2650 N   0  0  0  0  0  0  0  0  0  0  0  0
   20.3995  -20.5853  -14.4695 N   0  0  0  0  0  0  0  0  0  0  0  0
   21.1336  -19.5198  -15.1014 C   0  0  0  0  0  0  0  0  0  0  0  0
   22.1236  -18.8957  -14.1611 C   0  0  0  0  0  0  0  0  0  0  0  0
   23.0492  -19.8680  -13.4890 C   0  0  0  0  0  0  0  0  0  0  0  0
   24.1936  -20.1675  -14.4011 C   0  0  2  0  0  0  0  0  0  0  0  0
   23.7419  -20.9322  -15.5236 N   0  0  0  0  0  0  0  0  0  0  0  0
   25.2693  -20.9348  -13.6967 C   0  0  0  0  0  0  0  0  0  0  0  0
   25.1192  -22.1688  -13.4703 O   0  0  0  0  0  0  0  0  0  0  0  0
   17.9692  -20.8360  -15.2379 C   0  0  0  0  0  0  0  0  0  0  0  0
   30.5625  -22.0307  -12.3975 C   0  0  0  0  0  0  0  0  0  0  0  0
   29.9859  -20.7450  -11.8505 C   0  0  2  0  0  0  0  0  0  0  0  0
   28.8296  -20.1994  -12.5957 C   0  0  0  0  0  0  0  0  0  0  0  0
   28.5636  -18.8027  -11.9731 C   0  0  2  0  0  0  0  0  0  0  0  0
   27.5413  -20.9036  -12.5437 N   0  0  0  0  0  0  0  0  0  0  0  0
   26.4538  -20.3040  -13.2763 C   0  0  0  0  0  0  0  0  0  0  0  0
   27.1747  -21.6276  -11.3215 O   0  0  0  0  0  0  0  0  0  0  0  0
   27.7820  -22.6772  -11.0159 N   0  0  0  0  0  0  0  0  0  0  0  0
   26.1636  -21.2131  -10.4434 C   0  0  1  0  0  0  0  0  0  0  0  0
   26.4233  -20.9412   -9.0199 C   0  0  0  0  0  0  0  0  0  0  0  0
   27.5599  -20.0158   -8.8016 C   0  0  0  0  0  0  0  0  0  0  0  0
   27.8411  -19.7899   -7.3660 C   0  0  0  0  0  0  0  0  0  0  0  0
   27.1900  -18.8128   -6.6229 C   0  0  0  0  0  0  0  0  0  0  0  0
   27.4365  -18.5918   -5.3016 C   0  0  0  0  0  0  0  0  0  0  0  0
   28.3888  -19.3756   -4.6452 C   0  0  0  0  0  0  0  0  0  0  0  0
   29.0516  -20.3521   -5.3541 C   0  0  0  0  0  0  0  0  0  0  0  0
   28.7753  -20.5564   -6.7128 C   0  0  0  0  0  0  0  0  0  0  0  0
   25.1597  -20.4343   -8.3586 O   0  0  0  0  0  0  0  0  0  0  0  0
   24.6852  -21.0176   -7.3625 O   0  0  0  0  0  0  0  0  0  0  0  0
  2  1  1  0
  2  3  2  0
  4  2  1  0
  5  4  1  0
  6  5  1  0
  7  6  1  0
  8  7  1  0
  8  9  1  6
 10 11  2  0
 10  8  1  0
 13 14  1  0
 13 12  1  0
 14 15  1  1
 16 17  1  1
 16 14  1  0
 17 10  1  0
 18 16  1  0
 19 18  2  0
 20 18  1  0
 21 20  1  0
 21 22  1  1
 22 23  1  0
 23 24  2  0
 24 25  1  0
 26 25  2  0
 27 26  1  0
 28 27  2  0
 28 23  1  0
 29 21  1  0
 29 31  1  0
 30 29  2  0
M  END
$$$$
