RIF.pdb
     RDKit          3D

 31 31  0  0  1  0  0  0  0  0999 V2000
   18.6920  -18.9852  -16.0681 N   0  0  0  0  0  0  0  0  0  0  0  0
   18.7287  -17.6474  -15.5227 C   0  0  0  0  0  0  0  0  0  0  0  0
   17.7633  -16.8416  -15.7368 N   0  0  0  0  0  0  0  0  0  0  0  0
   19.8439  -17.2222  -14.7471 N   0  0  0  0  0  0  0  0  0  0  0  0
   20.9047  -18.1387  -14.4182 C   0  0  0  0  0  0  0  0  0  0  0  0
   20.4893  -19.1053  -13.3472 C   0  0  0  0  0  0  0  0  0  0  0  0
   21.5965  -19.5401  -12.4311 C   0  0  0  0  0  0  0  0  0  0  0  0
   22.5138  -20.4583  -13.1706 C   0  0  2  0  0  0  0  0  0  0  0  0
   21.8108  -21.6386  -13.5723 N   0  0  0  0  0  0  0  0  0  0  0  0
   23.6849  -20.8582  -12.3276 C   0  0  0  0  0  0  0  0  0  0  0  0
   23.5110  -21.5891  -11.3117 O   0  0  0  0  0  0  0  0  0  0  0  0
   17.7649  -15.8680  -15.3828 C   0  0  0  0  0  0  0  0  0  0  0  0
   27.0021  -21.0228  -15.2100 C   0  0  0  0  0  0  0  0  0  0  0  0
   27.4261  -21.7042  -13.9291 C   0  0  2  0  0  0  0  0  0  0  0  0
   27.4239  -20.8472  -12.7225 C   0  0  0  0  0  0  0  0  0  0  0  0
   28.4806  -21.4736  -11.7738 C   0  0  2  0  0  0  0  0  0  0  0  0
   26.1974  -20.7324  -11.9222 N   0  0  0  0  0  0  0  0  0  0  0  0
   24.9868  -20.4316  -12.6453 C   0  0  0  0  0  0  0  0  0  0  0  0
   26.2845  -20.1980  -10.5587 O   0  0  0  0  0  0  0  0  0  0  0  0
   25.9612  -19.0107  -10.3355 N   0  0  0  0  0  0  0  0  0  0  0  0
   26.7145  -20.9462   -9.4540 C   0  0  1  0  0  0  0  0  0  0  0  0
   27.4432  -20.3370   -8.3291 C   0  0  0  0  0  0  0  0  0  0  0  0
   26.7373  -20.4770   -7.0337 C   0  0  0  0  0  0  0  0  0  0  0  0
   27.5024  -19.9020   -5.9046 C   0  0  0  0  0  0  0  0  0  0  0  0
   28.1201  -20.6918   -4.9426 C   0  0  0  0  0  0  0  0  0  0  0  0
   28.8278  -20.1791   -3.8977 C   0  0  0  0  0  0  0  0  0  0  0  0
   28.9477  -18.7931   -3.7701 C   0  0  0  0  0  0  0  0  0  0  0  0
   28.3467  -17.9829   -4.7070 C   0  0  0  0  0  0  0  0  0  0  0  0
   27.6258  -18.5403   -5.7719 C   0  0  0  0  0  0  0  0  0  0  0  0
   28.8448  -20.9044   -8.2619 O   0  0  0  0  0  0  0  0  0  0  0  0
   29.0657  -22.0923   -8.5746 O   0  0  0  0  0  0  0  0  0  0  0  0
  2  1  1  0
  2  3  2  0
  4  2  1  0
  5  4  1  0
  6  5  1  0
  7  6  1  0
  8  7  1  0
  8  9  1  1
 10 11  2  0
 10  8  1  0
 13 14  1  0
 13 12  1  0
 14 15  1  1
 16 17  1  1
 16 14  1  0
 17 10  1  0
 18 16  1  0
 19 18  2  0
 20 18  1  0
 21 20  1  0
 21 22  1  6
 22 23  1  0
 23 24  2  0
 24 25  1  0
 26 25  2  0
 27 26  1  0
 28 27  2  0
 28 23  1  0
 29 21  1  0
 29 31  1  0
 30 29  2  0
M  END
$$$$
