RIF.pdb
     RDKit          3D

 31 31  0  0  1  0  0  0  0  0999 V2000
   30.9751  -23.8174  -16.8980 N   0  0  0  0  0  0  0  0  0  0  0  0
   30.6361  -23.8019  -18.3027 C   0  0  0  0  0  0  0  0  0  0  0  0
   30.8022  -24.8482  -19.0133 N   0  0  0  0  0  0  0  0  0  0  0  0
   30.1185  -22.6181  -18.9000 N   0  0  0  0  0  0  0  0  0  0  0  0
   29.7596  -21.4817  -18.0918 C   0  0  0  0  0  0  0  0  0  0  0  0
   28.2710  -21.3563  -17.9425 C   0  0  0  0  0  0  0  0  0  0  0  0
   27.8169  -20.8156  -16.6175 C   0  0  0  0  0  0  0  0  0  0  0  0
   27.8234  -21.9176  -15.6091 C   0  0  2  0  0  0  0  0  0  0  0  0
   27.9361  -23.1848  -16.2648 N   0  0  0  0  0  0  0  0  0  0  0  0
   26.5744  -21.9116  -14.7832 C   0  0  0  0  0  0  0  0  0  0  0  0
   25.5422  -22.5125  -15.1957 O   0  0  0  0  0  0  0  0  0  0  0  0
   30.6270  -24.8585  -20.0343 C   0  0  0  0  0  0  0  0  0  0  0  0
   25.0526  -20.7510   -8.7952 C   0  0  0  0  0  0  0  0  0  0  0  0
   24.6271  -20.9996  -10.2241 C   0  0  2  0  0  0  0  0  0  0  0  0
   25.7264  -21.0609  -11.2130 C   0  0  0  0  0  0  0  0  0  0  0  0
   26.4836  -19.7139  -11.0672 C   0  0  2  0  0  0  0  0  0  0  0  0
   25.4049  -21.1773  -12.6418 N   0  0  0  0  0  0  0  0  0  0  0  0
   26.5254  -21.2431  -13.5469 C   0  0  0  0  0  0  0  0  0  0  0  0
   24.1979  -20.5206  -13.1556 O   0  0  0  0  0  0  0  0  0  0  0  0
   24.2263  -19.3028  -13.4384 N   0  0  0  0  0  0  0  0  0  0  0  0
   22.9786  -21.1810  -13.3613 C   0  0  1  0  0  0  0  0  0  0  0  0
   21.7801  -20.4810  -13.8526 C   0  0  0  0  0  0  0  0  0  0  0  0
   21.3977  -20.8764  -15.2286 C   0  0  0  0  0  0  0  0  0  0  0  0
   20.1894  -20.1687  -15.7082 C   0  0  0  0  0  0  0  0  0  0  0  0
   18.9253  -20.7446  -15.6762 C   0  0  0  0  0  0  0  0  0  0  0  0
   17.8034  -20.1075  -16.1132 C   0  0  0  0  0  0  0  0  0  0  0  0
   17.9103  -18.8112  -16.6233 C   0  0  0  0  0  0  0  0  0  0  0  0
   19.1493  -18.2129  -16.6687 C   0  0  0  0  0  0  0  0  0  0  0  0
   20.2855  -18.8937  -16.2106 C   0  0  0  0  0  0  0  0  0  0  0  0
   20.6379  -20.6808  -12.8798 O   0  0  0  0  0  0  0  0  0  0  0  0
   20.4529  -21.7882  -12.3347 O   0  0  0  0  0  0  0  0  0  0  0  0
  2  1  1  0
  2  3  2  0
  4  2  1  0
  5  4  1  0
  6  5  1  0
  7  6  1  0
  8  7  1  0
  8  9  1  6
 10 11  2  0
 10  8  1  0
 13 14  1  0
 13 12  1  0
 14 15  1  6
 16 17  1  6
 16 14  1  0
 17 10  1  0
 18 16  1  0
 19 18  2  0
 20 18  1  0
 21 20  1  0
 21 22  1  1
 22 23  1  0
 23 24  2  0
 24 25  1  0
 26 25  2  0
 27 26  1  0
 28 27  2  0
 28 23  1  0
 29 21  1  0
 29 31  1  0
 30 29  2  0
M  END
$$$$
