RIF.pdb
     RDKit          3D

 31 31  0  0  1  0  0  0  0  0999 V2000
   23.5796  -10.6301  -21.3847 N   0  0  0  0  0  0  0  0  0  0  0  0
   22.7890  -11.6840  -21.9786 C   0  0  0  0  0  0  0  0  0  0  0  0
   22.7709  -11.8351  -23.2451 N   0  0  0  0  0  0  0  0  0  0  0  0
   22.0244  -12.5557  -21.1530 N   0  0  0  0  0  0  0  0  0  0  0  0
   22.0657  -12.4360  -19.7186 C   0  0  0  0  0  0  0  0  0  0  0  0
   21.4673  -13.6370  -19.0452 C   0  0  0  0  0  0  0  0  0  0  0  0
   22.3696  -14.8353  -18.9824 C   0  0  0  0  0  0  0  0  0  0  0  0
   22.7873  -15.0619  -17.5662 C   0  0  2  0  0  0  0  0  0  0  0  0
   21.7314  -15.6956  -16.8366 N   0  0  0  0  0  0  0  0  0  0  0  0
   23.1384  -13.7750  -16.8860 C   0  0  0  0  0  0  0  0  0  0  0  0
   22.2429  -13.1104  -16.2919 O   0  0  0  0  0  0  0  0  0  0  0  0
   22.2125  -12.5754  -23.7072 C   0  0  0  0  0  0  0  0  0  0  0  0
   28.4780  -12.9879  -15.0572 C   0  0  0  0  0  0  0  0  0  0  0  0
   26.9947  -13.1292  -15.3113 C   0  0  2  0  0  0  0  0  0  0  0  0
   26.3543  -11.9816  -15.9919 C   0  0  0  0  0  0  0  0  0  0  0  0
   26.4964  -10.7905  -15.0069 C   0  0  1  0  0  0  0  0  0  0  0  0
   24.9249  -12.0471  -16.3245 N   0  0  0  0  0  0  0  0  0  0  0  0
   24.4566  -13.2851  -16.8964 C   0  0  0  0  0  0  0  0  0  0  0  0
   24.2425  -10.8291  -16.7751 O   0  0  0  0  0  0  0  0  0  0  0  0
   24.5726  -10.2968  -17.8575 N   0  0  0  0  0  0  0  0  0  0  0  0
   23.2135  -10.2017  -16.0591 C   0  0  1  0  0  0  0  0  0  0  0  0
   22.4852   -9.0372  -16.5896 C   0  0  0  0  0  0  0  0  0  0  0  0
   21.3167   -9.4104  -17.4209 C   0  0  0  0  0  0  0  0  0  0  0  0
   20.2926  -10.1592  -16.6584 C   0  0  0  0  0  0  0  0  0  0  0  0
   19.3063   -9.5257  -15.9124 C   0  0  0  0  0  0  0  0  0  0  0  0
   18.3567  -10.1993  -15.2053 C   0  0  0  0  0  0  0  0  0  0  0  0
   18.3602  -11.5964  -15.2180 C   0  0  0  0  0  0  0  0  0  0  0  0
   19.3250  -12.2539  -15.9476 C   0  0  0  0  0  0  0  0  0  0  0  0
   20.2884  -11.5329  -16.6660 C   0  0  0  0  0  0  0  0  0  0  0  0
   22.0873   -8.1224  -15.4512 O   0  0  0  0  0  0  0  0  0  0  0  0
   21.6268   -6.9852  -15.6803 O   0  0  0  0  0  0  0  0  0  0  0  0
  2  1  1  0
  2  3  2  0
  4  2  1  0
  5  4  1  0
  6  5  1  0
  7  6  1  0
  8  7  1  0
  8  9  1  1
 10 11  2  0
 10  8  1  0
 13 14  1  0
 13 12  1  0
 14 15  1  6
 16 17  1  1
 16 14  1  0
 17 10  1  0
 18 16  1  0
 19 18  2  0
 20 18  1  0
 21 20  1  0
 21 22  1  6
 22 23  1  0
 23 24  2  0
 24 25  1  0
 26 25  2  0
 27 26  1  0
 28 27  2  0
 28 23  1  0
 29 21  1  0
 29 31  1  0
 30 29  2  0
M  END
$$$$
