RIF.pdb
     RDKit          3D

 31 31  0  0  1  0  0  0  0  0999 V2000
   18.1160  -24.0107   -8.9654 N   0  0  0  0  0  0  0  0  0  0  0  0
   17.1038  -23.6471   -9.9306 C   0  0  0  0  0  0  0  0  0  0  0  0
   15.9103  -23.4089   -9.5484 N   0  0  0  0  0  0  0  0  0  0  0  0
   17.4336  -23.5564  -11.3123 N   0  0  0  0  0  0  0  0  0  0  0  0
   18.8076  -23.5009  -11.7394 C   0  0  0  0  0  0  0  0  0  0  0  0
   19.2255  -22.0997  -12.0800 C   0  0  0  0  0  0  0  0  0  0  0  0
   20.5933  -21.9835  -12.6880 C   0  0  0  0  0  0  0  0  0  0  0  0
   21.5978  -21.7771  -11.6018 C   0  0  2  0  0  0  0  0  0  0  0  0
   21.0012  -21.0760  -10.5058 N   0  0  0  0  0  0  0  0  0  0  0  0
   22.7783  -20.9953  -12.0888 C   0  0  0  0  0  0  0  0  0  0  0  0
   22.6905  -19.7429  -12.2312 O   0  0  0  0  0  0  0  0  0  0  0  0
   15.1490  -23.1858  -10.2147 C   0  0  0  0  0  0  0  0  0  0  0  0
   26.3763  -20.3963  -10.0629 C   0  0  0  0  0  0  0  0  0  0  0  0
   26.6047  -21.6553  -10.8676 C   0  0  1  0  0  0  0  0  0  0  0  0
   26.4635  -21.5071  -12.3333 C   0  0  0  0  0  0  0  0  0  0  0  0
   27.5347  -20.4617  -12.7441 C   0  0  2  0  0  0  0  0  0  0  0  0
   25.1975  -21.0103  -12.8888 N   0  0  0  0  0  0  0  0  0  0  0  0
   23.9939  -21.6325  -12.3956 C   0  0  0  0  0  0  0  0  0  0  0  0
   25.1627  -20.5518  -14.2820 O   0  0  0  0  0  0  0  0  0  0  0  0
   24.9715  -21.3765  -15.2024 N   0  0  0  0  0  0  0  0  0  0  0  0
   25.3306  -19.2143  -14.6670 C   0  0  2  0  0  0  0  0  0  0  0  0
   25.1416  -18.7682  -16.0573 C   0  0  0  0  0  0  0  0  0  0  0  0
   24.4666  -17.4531  -16.1604 C   0  0  0  0  0  0  0  0  0  0  0  0
   24.2231  -17.0477  -17.5630 C   0  0  0  0  0  0  0  0  0  0  0  0
   23.0854  -17.4296  -18.2634 C   0  0  0  0  0  0  0  0  0  0  0  0
   22.8458  -17.0654  -19.5539 C   0  0  0  0  0  0  0  0  0  0  0  0
   23.7798  -16.2701  -20.2226 C   0  0  0  0  0  0  0  0  0  0  0  0
   24.9179  -15.8752  -19.5560 C   0  0  0  0  0  0  0  0  0  0  0  0
   25.1359  -16.2653  -18.2276 C   0  0  0  0  0  0  0  0  0  0  0  0
   26.4725  -18.7673  -16.7782 O   0  0  0  0  0  0  0  0  0  0  0  0
   27.4868  -18.2776  -16.2406 O   0  0  0  0  0  0  0  0  0  0  0  0
  2  1  1  0
  2  3  2  0
  4  2  1  0
  5  4  1  0
  6  5  1  0
  7  6  1  0
  8  7  1  0
  8  9  1  1
 10 11  2  0
 10  8  1  0
 13 14  1  0
 13 12  1  0
 14 15  1  1
 16 17  1  1
 16 14  1  0
 17 10  1  0
 18 16  1  0
 19 18  2  0
 20 18  1  0
 21 20  1  0
 21 22  1  6
 22 23  1  0
 23 24  2  0
 24 25  1  0
 26 25  2  0
 27 26  1  0
 28 27  2  0
 28 23  1  0
 29 21  1  0
 29 31  1  0
 30 29  2  0
M  END
$$$$
