RIF.pdb
     RDKit          3D

 31 31  0  0  1  0  0  0  0  0999 V2000
   18.5519  -19.3166  -15.0788 N   0  0  0  0  0  0  0  0  0  0  0  0
   19.2996  -18.2812  -15.7550 C   0  0  0  0  0  0  0  0  0  0  0  0
   18.7148  -17.5036  -16.5799 N   0  0  0  0  0  0  0  0  0  0  0  0
   20.6924  -18.1267  -15.5057 N   0  0  0  0  0  0  0  0  0  0  0  0
   21.4109  -19.0933  -14.7164 C   0  0  0  0  0  0  0  0  0  0  0  0
   20.8855  -19.1619  -13.3117 C   0  0  0  0  0  0  0  0  0  0  0  0
   21.6029  -20.1342  -12.4206 C   0  0  0  0  0  0  0  0  0  0  0  0
   22.7138  -20.7750  -13.1866 C   0  0  2  0  0  0  0  0  0  0  0  0
   22.2225  -21.9053  -13.9144 N   0  0  0  0  0  0  0  0  0  0  0  0
   23.8150  -21.2279  -12.2787 C   0  0  0  0  0  0  0  0  0  0  0  0
   23.6279  -22.2030  -11.4973 O   0  0  0  0  0  0  0  0  0  0  0  0
   19.2234  -16.7715  -17.1077 C   0  0  0  0  0  0  0  0  0  0  0  0
   30.0052  -21.1928  -11.9024 C   0  0  0  0  0  0  0  0  0  0  0  0
   28.6691  -21.2772  -11.2006 C   0  0  2  0  0  0  0  0  0  0  0  0
   27.5125  -20.7719  -11.9733 C   0  0  0  0  0  0  0  0  0  0  0  0
   27.7960  -19.2620  -12.1943 C   0  0  2  0  0  0  0  0  0  0  0  0
   26.1684  -20.8363  -11.3837 N   0  0  0  0  0  0  0  0  0  0  0  0
   25.0648  -20.5831  -12.2765 C   0  0  0  0  0  0  0  0  0  0  0  0
   25.9812  -20.4158   -9.9907 O   0  0  0  0  0  0  0  0  0  0  0  0
   25.4268  -19.3229   -9.7413 N   0  0  0  0  0  0  0  0  0  0  0  0
   26.3890  -21.1756   -8.8855 C   0  0  1  0  0  0  0  0  0  0  0  0
   26.7210  -20.5604   -7.5897 C   0  0  0  0  0  0  0  0  0  0  0  0
   27.6067  -21.4048   -6.7540 C   0  0  0  0  0  0  0  0  0  0  0  0
   28.0299  -20.7257   -5.5087 C   0  0  0  0  0  0  0  0  0  0  0  0
   29.2541  -20.0790   -5.3904 C   0  0  0  0  0  0  0  0  0  0  0  0
   29.6589  -19.4493   -4.2524 C   0  0  0  0  0  0  0  0  0  0  0  0
   28.8152  -19.4446   -3.1388 C   0  0  0  0  0  0  0  0  0  0  0  0
   27.5953  -20.0771   -3.2240 C   0  0  0  0  0  0  0  0  0  0  0  0
   27.2063  -20.7157   -4.4094 C   0  0  0  0  0  0  0  0  0  0  0  0
   27.3142  -19.1861   -7.8144 O   0  0  0  0  0  0  0  0  0  0  0  0
   28.3062  -19.0351   -8.5565 O   0  0  0  0  0  0  0  0  0  0  0  0
  2  1  1  0
  2  3  2  0
  4  2  1  0
  5  4  1  0
  6  5  1  0
  7  6  1  0
  8  7  1  0
  8  9  1  1
 10 11  2  0
 10  8  1  0
 13 14  1  0
 13 12  1  0
 14 15  1  6
 16 17  1  1
 16 14  1  0
 17 10  1  0
 18 16  1  0
 19 18  2  0
 20 18  1  0
 21 20  1  0
 21 22  1  6
 22 23  1  0
 23 24  2  0
 24 25  1  0
 26 25  2  0
 27 26  1  0
 28 27  2  0
 28 23  1  0
 29 21  1  0
 29 31  1  0
 30 29  2  0
M  END
$$$$
