RIF.pdb
     RDKit          3D

 31 31  0  0  1  0  0  0  0  0999 V2000
   19.6345  -19.0760  -18.1993 N   0  0  0  0  0  0  0  0  0  0  0  0
   18.8930  -19.1515  -16.9612 C   0  0  0  0  0  0  0  0  0  0  0  0
   17.6235  -19.0272  -16.9662 N   0  0  0  0  0  0  0  0  0  0  0  0
   19.5765  -19.3616  -15.7305 N   0  0  0  0  0  0  0  0  0  0  0  0
   21.0135  -19.4451  -15.6910 C   0  0  0  0  0  0  0  0  0  0  0  0
   21.6019  -18.4291  -14.7554 C   0  0  0  0  0  0  0  0  0  0  0  0
   22.4983  -18.9986  -13.6943 C   0  0  0  0  0  0  0  0  0  0  0  0
   23.5034  -19.9006  -14.3326 C   0  0  2  0  0  0  0  0  0  0  0  0
   22.8431  -20.9876  -14.9892 N   0  0  0  0  0  0  0  0  0  0  0  0
   24.4596  -20.4565  -13.3233 C   0  0  0  0  0  0  0  0  0  0  0  0
   24.0639  -21.3153  -12.4851 O   0  0  0  0  0  0  0  0  0  0  0  0
   17.0567  -19.0913  -16.1014 C   0  0  0  0  0  0  0  0  0  0  0  0
   29.0784  -22.4095  -11.3912 C   0  0  0  0  0  0  0  0  0  0  0  0
   29.2121  -20.9629  -11.8085 C   0  0  2  0  0  0  0  0  0  0  0  0
   28.1749  -20.4727  -12.7434 C   0  0  0  0  0  0  0  0  0  0  0  0
   28.6052  -19.0274  -13.1108 C   0  0  2  0  0  0  0  0  0  0  0  0
   26.7840  -20.3628  -12.2835 N   0  0  0  0  0  0  0  0  0  0  0  0
   25.8015  -20.0373  -13.2874 C   0  0  0  0  0  0  0  0  0  0  0  0
   26.5189  -19.8557  -10.9326 O   0  0  0  0  0  0  0  0  0  0  0  0
   26.9379  -18.7252  -10.6006 N   0  0  0  0  0  0  0  0  0  0  0  0
   25.8054  -20.5680   -9.9586 C   0  0  2  0  0  0  0  0  0  0  0  0
   26.2818  -20.6922   -8.5710 C   0  0  0  0  0  0  0  0  0  0  0  0
   26.6001  -19.3872   -7.9454 C   0  0  0  0  0  0  0  0  0  0  0  0
   27.2619  -19.5341   -6.6296 C   0  0  0  0  0  0  0  0  0  0  0  0
   26.5725  -19.9200   -5.4865 C   0  0  0  0  0  0  0  0  0  0  0  0
   27.1659  -20.0601   -4.2684 C   0  0  0  0  0  0  0  0  0  0  0  0
   28.5340  -19.8060   -4.1431 C   0  0  0  0  0  0  0  0  0  0  0  0
   29.2453  -19.4215   -5.2574 C   0  0  0  0  0  0  0  0  0  0  0  0
   28.6067  -19.2869   -6.4977 C   0  0  0  0  0  0  0  0  0  0  0  0
   25.2726  -21.4688   -7.7528 O   0  0  0  0  0  0  0  0  0  0  0  0
   24.1007  -21.6120   -8.1573 O   0  0  0  0  0  0  0  0  0  0  0  0
  2  1  1  0
  2  3  2  0
  4  2  1  0
  5  4  1  0
  6  5  1  0
  7  6  1  0
  8  7  1  0
  8  9  1  1
 10 11  2  0
 10  8  1  0
 13 14  1  0
 13 12  1  0
 14 15  1  1
 16 17  1  1
 16 14  1  0
 17 10  1  0
 18 16  1  0
 19 18  2  0
 20 18  1  0
 21 20  1  0
 21 22  1  6
 22 23  1  0
 23 24  2  0
 24 25  1  0
 26 25  2  0
 27 26  1  0
 28 27  2  0
 28 23  1  0
 29 21  1  0
 29 31  1  0
 30 29  2  0
M  END
$$$$
