IED.pdb
     RDKit          3D

 26 25  0  0  1  0  0  0  0  0999 V2000
   25.6383  -13.2016  -15.8183 C   0  0  0  0  0  0  0  0  0  0  0  0
   24.1485  -13.3051  -16.0468 C   0  0  0  0  0  0  0  0  0  0  0  0
   23.4530  -11.9729  -16.0900 C   0  0  2  0  0  0  0  0  0  0  0  0
   23.6528  -11.3143  -14.7301 C   0  0  0  0  0  0  0  0  0  0  0  0
   21.9928  -12.0649  -16.4271 C   0  0  2  0  0  0  0  0  0  0  0  0
   21.9307  -12.7523  -17.7418 N   0  0  0  0  0  0  0  0  0  0  0  0
   21.3220  -10.7500  -16.6146 C   0  0  0  0  0  0  0  0  0  0  0  0
   21.9641   -9.8501  -17.2584 O   0  0  0  0  0  0  0  0  0  0  0  0
   20.0478  -10.4065  -16.1530 N   0  0  0  0  0  0  0  0  0  0  0  0
   19.3594   -9.1692  -16.2602 C   0  0  1  0  0  0  0  0  0  0  0  0
   17.8589   -9.2059  -16.3744 C   0  0  0  0  0  0  0  0  0  0  0  0
   17.3034   -9.8826  -17.5689 C   0  0  0  0  0  0  0  0  0  0  0  0
   15.8124   -9.9804  -17.3559 C   0  0  0  0  0  0  0  0  0  0  0  0
   15.2338   -9.4147  -16.3954 O   0  0  0  0  0  0  0  0  0  0  0  0
   19.7741   -8.2157  -15.2431 C   0  0  0  0  0  0  0  0  0  0  0  0
   19.9327   -8.6520  -14.0548 O   0  0  0  0  0  0  0  0  0  0  0  0
   15.0122  -10.7138  -18.2314 O   0  0  0  0  0  0  0  0  0  0  0  0
   20.0213   -6.8445  -15.4392 N   0  0  0  0  0  0  0  0  0  0  0  0
   20.4388   -5.9310  -14.3931 C   0  0  1  0  0  0  0  0  0  0  0  0
   21.9580   -5.7298  -14.4527 C   0  0  0  0  0  0  0  0  0  0  0  0
   22.4232   -4.7661  -13.4308 C   0  0  0  0  0  0  0  0  0  0  0  0
   22.5399   -3.5271  -13.6662 O   0  0  0  0  0  0  0  0  0  0  0  0
   19.7037   -4.6597  -14.5788 C   0  0  0  0  0  0  0  0  0  0  0  0
   19.0927   -4.3421  -15.8044 O   0  0  0  0  0  0  0  0  0  0  0  0
   22.7656   -5.1575  -12.1362 O   0  0  0  0  0  0  0  0  0  0  0  0
   19.5720   -3.7882  -13.6797 O   0  0  0  0  0  0  0  0  0  0  0  0
  2  1  1  0
  2  3  1  0
  3  4  1  1
  5  3  1  0
  5  6  1  6
  7  5  1  0
  8  7  2  0
  9  7  1  0
 10  9  1  0
 11 12  1  0
 10 11  1  1
 12 13  1  0
 13 17  1  0
 14 13  2  0
 15 10  1  0
 15 18  1  0
 16 15  2  0
 19 23  1  0
 19 18  1  0
 20 21  1  0
 19 20  1  6
 21 22  2  0
 23 24  1  0
 25 21  1  0
 26 23  2  0
M  END
$$$$
