IED.pdb
     RDKit          3D

 26 25  0  0  1  0  0  0  0  0999 V2000
   25.2760  -14.6867  -17.9015 C   0  0  0  0  0  0  0  0  0  0  0  0
   24.4579  -14.1557  -16.7478 C   0  0  0  0  0  0  0  0  0  0  0  0
   23.8727  -12.7944  -17.0022 C   0  0  2  0  0  0  0  0  0  0  0  0
   25.0303  -11.8589  -17.3303 C   0  0  0  0  0  0  0  0  0  0  0  0
   23.0658  -12.2600  -15.8543 C   0  0  2  0  0  0  0  0  0  0  0  0
   22.0142  -13.2770  -15.5998 N   0  0  0  0  0  0  0  0  0  0  0  0
   22.3507  -10.9882  -16.1460 C   0  0  0  0  0  0  0  0  0  0  0  0
   23.0653   -9.9518  -16.3736 O   0  0  0  0  0  0  0  0  0  0  0  0
   20.9636  -10.8210  -16.1978 N   0  0  0  0  0  0  0  0  0  0  0  0
   20.2121   -9.6471  -16.4692 C   0  0  1  0  0  0  0  0  0  0  0  0
   18.7600   -9.8085  -16.8312 C   0  0  0  0  0  0  0  0  0  0  0  0
   18.4331  -10.8953  -17.7828 C   0  0  0  0  0  0  0  0  0  0  0  0
   17.5898  -11.8928  -17.0265 C   0  0  0  0  0  0  0  0  0  0  0  0
   18.0853  -12.9032  -16.4687 O   0  0  0  0  0  0  0  0  0  0  0  0
   20.3748   -8.6353  -15.4369 C   0  0  0  0  0  0  0  0  0  0  0  0
   20.4252   -9.0314  -14.2253 O   0  0  0  0  0  0  0  0  0  0  0  0
   16.2095  -11.7255  -16.9189 O   0  0  0  0  0  0  0  0  0  0  0  0
   20.4838   -7.2475  -15.6416 N   0  0  0  0  0  0  0  0  0  0  0  0
   20.6053   -6.2709  -14.5764 C   0  0  1  0  0  0  0  0  0  0  0  0
   22.0859   -5.9804  -14.3021 C   0  0  0  0  0  0  0  0  0  0  0  0
   22.2565   -4.9196  -13.2847 C   0  0  0  0  0  0  0  0  0  0  0  0
   22.4330   -3.7035  -13.5918 O   0  0  0  0  0  0  0  0  0  0  0  0
   19.8688   -5.0546  -14.9878 C   0  0  0  0  0  0  0  0  0  0  0  0
   19.3674   -4.1483  -14.0373 O   0  0  0  0  0  0  0  0  0  0  0  0
   22.2345   -5.1873  -11.9157 O   0  0  0  0  0  0  0  0  0  0  0  0
   19.6403   -4.7454  -16.1867 O   0  0  0  0  0  0  0  0  0  0  0  0
  2  1  1  0
  2  3  1  0
  3  4  1  1
  5  3  1  0
  5  6  1  6
  7  5  1  0
  8  7  2  0
  9  7  1  0
 10  9  1  0
 11 12  1  0
 10 11  1  1
 12 13  1  0
 13 17  1  0
 14 13  2  0
 15 10  1  0
 15 18  1  0
 16 15  2  0
 19 23  1  0
 19 18  1  0
 20 21  1  0
 19 20  1  6
 21 22  2  0
 23 24  1  0
 25 21  1  0
 26 23  2  0
M  END
$$$$
