IED.pdb
     RDKit          3D

 26 25  0  0  1  0  0  0  0  0999 V2000
   19.4507  -14.9768  -16.6289 C   0  0  0  0  0  0  0  0  0  0  0  0
   19.5241  -13.6303  -17.3099 C   0  0  0  0  0  0  0  0  0  0  0  0
   19.2903  -12.4725  -16.3797 C   0  0  2  0  0  0  0  0  0  0  0  0
   17.9256  -12.6802  -15.7338 C   0  0  0  0  0  0  0  0  0  0  0  0
   19.3616  -11.1328  -17.0537 C   0  0  2  0  0  0  0  0  0  0  0  0
   20.7560  -11.0105  -17.5492 N   0  0  0  0  0  0  0  0  0  0  0  0
   19.1418   -9.9757  -16.1444 C   0  0  0  0  0  0  0  0  0  0  0  0
   18.0043   -9.8924  -15.5648 O   0  0  0  0  0  0  0  0  0  0  0  0
   20.0687   -8.9682  -15.8609 N   0  0  0  0  0  0  0  0  0  0  0  0
   19.9249   -7.8268  -15.0285 C   0  0  1  0  0  0  0  0  0  0  0  0
   21.1697   -7.0693  -14.6510 C   0  0  0  0  0  0  0  0  0  0  0  0
   20.9940   -5.9315  -13.7194 C   0  0  0  0  0  0  0  0  0  0  0  0
   22.3606   -5.3237  -13.5167 C   0  0  0  0  0  0  0  0  0  0  0  0
   22.6355   -4.6086  -12.5215 O   0  0  0  0  0  0  0  0  0  0  0  0
   18.8963   -6.9177  -15.5093 C   0  0  0  0  0  0  0  0  0  0  0  0
   18.9141   -6.6078  -16.7467 O   0  0  0  0  0  0  0  0  0  0  0  0
   23.3820   -5.5376  -14.4418 O   0  0  0  0  0  0  0  0  0  0  0  0
   17.8711   -6.3387  -14.7389 N   0  0  0  0  0  0  0  0  0  0  0  0
   16.8512   -5.4536  -15.2678 C   0  0  1  0  0  0  0  0  0  0  0  0
   15.4714   -5.8829  -14.7543 C   0  0  0  0  0  0  0  0  0  0  0  0
   14.4070   -4.9607  -15.2080 C   0  0  0  0  0  0  0  0  0  0  0  0
   14.4727   -4.3321  -16.3057 O   0  0  0  0  0  0  0  0  0  0  0  0
   17.1901   -4.0723  -14.8576 C   0  0  0  0  0  0  0  0  0  0  0  0
   16.5139   -2.9640  -15.3970 O   0  0  0  0  0  0  0  0  0  0  0  0
   13.2565   -4.7204  -14.4563 O   0  0  0  0  0  0  0  0  0  0  0  0
   18.0846   -3.7898  -14.0179 O   0  0  0  0  0  0  0  0  0  0  0  0
  2  1  1  0
  2  3  1  0
  3  4  1  6
  5  3  1  0
  5  6  1  1
  7  5  1  0
  8  7  2  0
  9  7  1  0
 10  9  1  0
 11 12  1  0
 10 11  1  6
 12 13  1  0
 13 17  1  0
 14 13  2  0
 15 10  1  0
 15 18  1  0
 16 15  2  0
 19 23  1  0
 19 18  1  0
 20 21  1  0
 19 20  1  1
 21 22  2  0
 23 24  1  0
 25 21  1  0
 26 23  2  0
M  END
$$$$
