IED.pdb
     RDKit          3D

 26 25  0  0  1  0  0  0  0  0999 V2000
   29.6394  -12.3944  -18.2052 C   0  0  0  0  0  0  0  0  0  0  0  0
   28.8075  -12.1299  -16.9722 C   0  0  0  0  0  0  0  0  0  0  0  0
   27.5382  -11.3749  -17.2540 C   0  0  2  0  0  0  0  0  0  0  0  0
   27.9252  -10.1010  -17.9957 C   0  0  0  0  0  0  0  0  0  0  0  0
   26.7416  -11.0525  -16.0229 C   0  0  2  0  0  0  0  0  0  0  0  0
   26.3856  -12.3641  -15.4247 N   0  0  0  0  0  0  0  0  0  0  0  0
   25.4543  -10.3554  -16.2896 C   0  0  0  0  0  0  0  0  0  0  0  0
   25.5164   -9.1779  -16.7860 O   0  0  0  0  0  0  0  0  0  0  0  0
   24.1774  -10.8719  -16.0500 N   0  0  0  0  0  0  0  0  0  0  0  0
   22.9115  -10.3229  -16.3853 C   0  0  1  0  0  0  0  0  0  0  0  0
   21.7131  -11.2321  -16.3311 C   0  0  0  0  0  0  0  0  0  0  0  0
   20.4220  -10.6503  -16.7647 C   0  0  0  0  0  0  0  0  0  0  0  0
   19.3904  -11.7447  -16.6379 C   0  0  0  0  0  0  0  0  0  0  0  0
   19.3745  -12.7427  -17.4002 O   0  0  0  0  0  0  0  0  0  0  0  0
   22.6444   -9.0783  -15.6815 C   0  0  0  0  0  0  0  0  0  0  0  0
   22.8586   -9.0539  -14.4241 O   0  0  0  0  0  0  0  0  0  0  0  0
   18.4030  -11.6855  -15.6548 O   0  0  0  0  0  0  0  0  0  0  0  0
   22.1685   -7.8842  -16.2537 N   0  0  0  0  0  0  0  0  0  0  0  0
   21.9636   -6.6505  -15.5194 C   0  0  1  0  0  0  0  0  0  0  0  0
   22.0784   -5.4529  -16.4705 C   0  0  0  0  0  0  0  0  0  0  0  0
   21.8327   -4.1725  -15.7708 C   0  0  0  0  0  0  0  0  0  0  0  0
   22.0653   -4.0157  -14.5357 O   0  0  0  0  0  0  0  0  0  0  0  0
   20.6332   -6.7203  -14.8743 C   0  0  0  0  0  0  0  0  0  0  0  0
   19.4828   -7.0584  -15.6082 O   0  0  0  0  0  0  0  0  0  0  0  0
   21.3273   -3.0488  -16.4253 O   0  0  0  0  0  0  0  0  0  0  0  0
   20.4333   -6.4889  -13.6529 O   0  0  0  0  0  0  0  0  0  0  0  0
  2  1  1  0
  2  3  1  0
  3  4  1  1
  5  3  1  0
  5  6  1  6
  7  5  1  0
  8  7  2  0
  9  7  1  0
 10  9  1  0
 11 12  1  0
 10 11  1  1
 12 13  1  0
 13 17  1  0
 14 13  2  0
 15 10  1  0
 15 18  1  0
 16 15  2  0
 19 23  1  0
 19 18  1  0
 20 21  1  0
 19 20  1  6
 21 22  2  0
 23 24  1  0
 25 21  1  0
 26 23  2  0
M  END
$$$$
