IED.pdb
     RDKit          3D

 26 25  0  0  1  0  0  0  0  0999 V2000
   19.4771  -15.5495  -18.1133 C   0  0  0  0  0  0  0  0  0  0  0  0
   19.4892  -14.6660  -16.8880 C   0  0  0  0  0  0  0  0  0  0  0  0
   19.4696  -13.1967  -17.2060 C   0  0  2  0  0  0  0  0  0  0  0  0
   20.7495  -12.8828  -17.9716 C   0  0  0  0  0  0  0  0  0  0  0  0
   19.3454  -12.3185  -15.9946 C   0  0  2  0  0  0  0  0  0  0  0  0
   18.0792  -12.7272  -15.3352 N   0  0  0  0  0  0  0  0  0  0  0  0
   19.2050  -10.8688  -16.2991 C   0  0  0  0  0  0  0  0  0  0  0  0
   20.2082  -10.2814  -16.8332 O   0  0  0  0  0  0  0  0  0  0  0  0
   18.0719  -10.0863  -16.0574 N   0  0  0  0  0  0  0  0  0  0  0  0
   17.8804   -8.6960  -16.2738 C   0  0  1  0  0  0  0  0  0  0  0  0
   16.4675   -8.1891  -16.3865 C   0  0  0  0  0  0  0  0  0  0  0  0
   16.3045   -6.7562  -16.7238 C   0  0  0  0  0  0  0  0  0  0  0  0
   14.8207   -6.4801  -16.7314 C   0  0  0  0  0  0  0  0  0  0  0  0
   14.2147   -6.1002  -17.7638 O   0  0  0  0  0  0  0  0  0  0  0  0
   18.6460   -7.8809  -15.3436 C   0  0  0  0  0  0  0  0  0  0  0  0
   18.6861   -8.2563  -14.1250 O   0  0  0  0  0  0  0  0  0  0  0  0
   14.0584   -6.6391  -15.5745 O   0  0  0  0  0  0  0  0  0  0  0  0
   19.3556   -6.7066  -15.6553 N   0  0  0  0  0  0  0  0  0  0  0  0
   20.1043   -5.9234  -14.6914 C   0  0  1  0  0  0  0  0  0  0  0  0
   21.6057   -6.1869  -14.8596 C   0  0  0  0  0  0  0  0  0  0  0  0
   22.4176   -5.2947  -14.0026 C   0  0  0  0  0  0  0  0  0  0  0  0
   23.2092   -4.4282  -14.4786 O   0  0  0  0  0  0  0  0  0  0  0  0
   19.7649   -4.4979  -14.9010 C   0  0  0  0  0  0  0  0  0  0  0  0
   19.8609   -3.5632  -13.8554 O   0  0  0  0  0  0  0  0  0  0  0  0
   22.3661   -5.3475  -12.6094 O   0  0  0  0  0  0  0  0  0  0  0  0
   19.3747   -4.0246  -16.0006 O   0  0  0  0  0  0  0  0  0  0  0  0
  2  1  1  0
  2  3  1  0
  3  4  1  1
  5  3  1  0
  5  6  1  6
  7  5  1  0
  8  7  2  0
  9  7  1  0
 10  9  1  0
 11 12  1  0
 10 11  1  1
 12 13  1  0
 13 17  1  0
 14 13  2  0
 15 10  1  0
 15 18  1  0
 16 15  2  0
 19 23  1  0
 19 18  1  0
 20 21  1  0
 19 20  1  6
 21 22  2  0
 23 24  1  0
 25 21  1  0
 26 23  2  0
M  END
$$$$
