IED.pdb
     RDKit          3D

 26 25  0  0  1  0  0  0  0  0999 V2000
   24.7665  -14.2246  -19.0004 C   0  0  0  0  0  0  0  0  0  0  0  0
   24.7340  -13.2919  -17.8124 C   0  0  0  0  0  0  0  0  0  0  0  0
   23.6876  -12.2177  -17.9199 C   0  0  2  0  0  0  0  0  0  0  0  0
   24.0066  -11.3989  -19.1651 C   0  0  0  0  0  0  0  0  0  0  0  0
   23.6033  -11.3338  -16.7092 C   0  0  2  0  0  0  0  0  0  0  0  0
   23.3203  -12.2444  -15.5709 N   0  0  0  0  0  0  0  0  0  0  0  0
   22.4856  -10.3520  -16.7425 C   0  0  0  0  0  0  0  0  0  0  0  0
   22.5661   -9.3997  -17.5929 O   0  0  0  0  0  0  0  0  0  0  0  0
   21.3489  -10.3760  -15.9288 N   0  0  0  0  0  0  0  0  0  0  0  0
   20.2508   -9.4764  -15.8970 C   0  0  1  0  0  0  0  0  0  0  0  0
   18.8850  -10.0422  -15.6138 C   0  0  0  0  0  0  0  0  0  0  0  0
   17.7572   -9.0822  -15.6220 C   0  0  0  0  0  0  0  0  0  0  0  0
   16.5268   -9.8574  -15.2178 C   0  0  0  0  0  0  0  0  0  0  0  0
   16.5934  -11.0070  -14.7164 O   0  0  0  0  0  0  0  0  0  0  0  0
   20.5102   -8.3164  -15.0585 C   0  0  0  0  0  0  0  0  0  0  0  0
   21.0995   -8.5137  -13.9443 O   0  0  0  0  0  0  0  0  0  0  0  0
   15.2530   -9.3165  -15.3898 O   0  0  0  0  0  0  0  0  0  0  0  0
   20.1735   -6.9829  -15.3554 N   0  0  0  0  0  0  0  0  0  0  0  0
   20.4633   -5.8546  -14.4916 C   0  0  1  0  0  0  0  0  0  0  0  0
   21.8405   -5.2745  -14.8366 C   0  0  0  0  0  0  0  0  0  0  0  0
   22.1292   -4.0496  -14.0583 C   0  0  0  0  0  0  0  0  0  0  0  0
   21.3692   -3.6351  -13.1338 O   0  0  0  0  0  0  0  0  0  0  0  0
   19.3827   -4.8582  -14.6662 C   0  0  0  0  0  0  0  0  0  0  0  0
   18.8667   -4.5564  -15.9386 O   0  0  0  0  0  0  0  0  0  0  0  0
   23.2604   -3.2667  -14.2905 O   0  0  0  0  0  0  0  0  0  0  0  0
   18.8563   -4.2212  -13.7163 O   0  0  0  0  0  0  0  0  0  0  0  0
  2  1  1  0
  2  3  1  0
  3  4  1  6
  5  3  1  0
  5  6  1  1
  7  5  1  0
  8  7  2  0
  9  7  1  0
 10  9  1  0
 11 12  1  0
 10 11  1  1
 12 13  1  0
 13 17  1  0
 14 13  2  0
 15 10  1  0
 15 18  1  0
 16 15  2  0
 19 23  1  0
 19 18  1  0
 20 21  1  0
 19 20  1  6
 21 22  2  0
 23 24  1  0
 25 21  1  0
 26 23  2  0
M  END
$$$$
