IED.pdb
     RDKit          3D

 26 25  0  0  1  0  0  0  0  0999 V2000
   25.0209  -15.9719  -15.8699 C   0  0  0  0  0  0  0  0  0  0  0  0
   23.8267  -15.1477  -15.4495 C   0  0  0  0  0  0  0  0  0  0  0  0
   23.8484  -13.7422  -15.9828 C   0  0  2  0  0  0  0  0  0  0  0  0
   25.1194  -13.0811  -15.4629 C   0  0  0  0  0  0  0  0  0  0  0  0
   22.6382  -12.9359  -15.6090 C   0  0  2  0  0  0  0  0  0  0  0  0
   21.4797  -13.6708  -16.1772 N   0  0  0  0  0  0  0  0  0  0  0  0
   22.5991  -11.5740  -16.2073 C   0  0  0  0  0  0  0  0  0  0  0  0
   23.4550  -10.7224  -15.7844 O   0  0  0  0  0  0  0  0  0  0  0  0
   21.7117  -11.1380  -17.1957 N   0  0  0  0  0  0  0  0  0  0  0  0
   21.5230   -9.8307  -17.7169 C   0  0  1  0  0  0  0  0  0  0  0  0
   20.5977   -9.6683  -18.8930 C   0  0  0  0  0  0  0  0  0  0  0  0
   20.9050  -10.4806  -20.0927 C   0  0  0  0  0  0  0  0  0  0  0  0
   19.7832  -10.2433  -21.0743 C   0  0  0  0  0  0  0  0  0  0  0  0
   19.2168  -11.1832  -21.6852 O   0  0  0  0  0  0  0  0  0  0  0  0
   21.2093   -8.8614  -16.6787 C   0  0  0  0  0  0  0  0  0  0  0  0
   20.4548   -9.2432  -15.7235 O   0  0  0  0  0  0  0  0  0  0  0  0
   19.3292   -8.9521  -21.3419 O   0  0  0  0  0  0  0  0  0  0  0  0
   21.6591   -7.5295  -16.6203 N   0  0  0  0  0  0  0  0  0  0  0  0
   21.3233   -6.5987  -15.5602 C   0  0  1  0  0  0  0  0  0  0  0  0
   22.5691   -6.2960  -14.7185 C   0  0  0  0  0  0  0  0  0  0  0  0
   22.3004   -5.2618  -13.6950 C   0  0  0  0  0  0  0  0  0  0  0  0
   21.6457   -5.5035  -12.6381 O   0  0  0  0  0  0  0  0  0  0  0  0
   20.7669   -5.3779  -16.1855 C   0  0  0  0  0  0  0  0  0  0  0  0
   19.8566   -4.5558  -15.4986 O   0  0  0  0  0  0  0  0  0  0  0  0
   22.7509   -3.9478  -13.8249 O   0  0  0  0  0  0  0  0  0  0  0  0
   21.0568   -4.9913  -17.3481 O   0  0  0  0  0  0  0  0  0  0  0  0
  2  1  1  0
  2  3  1  0
  3  4  1  1
  5  3  1  0
  5  6  1  6
  7  5  1  0
  8  7  2  0
  9  7  1  0
 10  9  1  0
 11 12  1  0
 10 11  1  6
 12 13  1  0
 13 17  1  0
 14 13  2  0
 15 10  1  0
 15 18  1  0
 16 15  2  0
 19 23  1  0
 19 18  1  0
 20 21  1  0
 19 20  1  6
 21 22  2  0
 23 24  1  0
 25 21  1  0
 26 23  2  0
M  END
$$$$
