FNG.pdb
     RDKit          3D

 24 24  0  0  1  0  0  0  0  0999 V2000
   25.9549  -22.6147  -10.8764 N   0  0  0  0  0  0  0  0  0  0  0  0
   25.5767  -21.2405  -10.9981 C   0  0  1  0  0  0  0  0  0  0  0  0
   26.7325  -20.2828  -10.9786 C   0  0  0  0  0  0  0  0  0  0  0  0
   27.3634  -20.1401   -9.6544 C   0  0  0  0  0  0  0  0  0  0  0  0
   26.7327  -19.6493   -8.5532 C   0  0  0  0  0  0  0  0  0  0  0  0
   27.3835  -19.5475   -7.3645 C   0  0  0  0  0  0  0  0  0  0  0  0
   28.6999  -19.9301   -7.2095 C   0  0  0  0  0  0  0  0  0  0  0  0
   29.3410  -20.4271   -8.3219 C   0  0  0  0  0  0  0  0  0  0  0  0
   28.6946  -20.5360   -9.5323 C   0  0  0  0  0  0  0  0  0  0  0  0
   24.7979  -21.0602  -12.2521 C   0  0  0  0  0  0  0  0  0  0  0  0
   25.2090  -21.4847  -13.3625 O   0  0  0  0  0  0  0  0  0  0  0  0
   20.2470  -21.6175  -11.2340 N   0  0  0  0  0  0  0  0  0  0  0  0
   20.9331  -21.6276  -12.4771 C   0  0  0  0  0  0  0  0  0  0  0  0
   21.2534  -22.7361  -12.9651 O   0  0  0  0  0  0  0  0  0  0  0  0
   21.2541  -20.3521  -13.1661 C   0  0  0  0  0  0  0  0  0  0  0  0
   22.7343  -20.2311  -13.4448 C   0  0  2  0  0  0  0  0  0  0  0  0
   23.5338  -20.3916  -12.2646 N   0  0  0  0  0  0  0  0  0  0  0  0
   23.0820  -19.0352  -14.2379 C   0  0  0  0  0  0  0  0  0  0  0  0
   23.0324  -17.8689  -13.7930 O   0  0  0  0  0  0  0  0  0  0  0  0
   23.4964  -19.2298  -15.5837 N   0  0  0  0  0  0  0  0  0  0  0  0
   22.7572  -18.7190  -16.7103 C   0  0  0  0  0  0  0  0  0  0  0  0
   23.4371  -19.1507  -17.9566 C   0  0  0  0  0  0  0  0  0  0  0  0
   23.9507  -18.2084  -18.8311 O   0  0  0  0  0  0  0  0  0  0  0  0
   23.5622  -20.3595  -18.2450 O   0  0  0  0  0  0  0  0  0  0  0  0
  2  1  1  6
  2 10  1  0
  3  2  1  0
  4  9  2  0
  4  3  1  0
  5  4  1  0
  6  7  1  0
  6  5  2  0
  7  8  2  0
  8  9  1  0
 10 11  2  0
 13 12  1  0
 13 15  1  0
 14 13  2  0
 16 15  1  1
 16 18  1  0
 17 10  1  0
 17 16  1  0
 18 20  1  0
 19 18  2  0
 20 21  1  0
 22 23  1  0
 22 21  1  0
 24 22  2  0
M  END
$$$$
