FNG.pdb
     RDKit          3D

 24 24  0  0  1  0  0  0  0  0999 V2000
   26.7011  -21.9932  -14.3132 N   0  0  0  0  0  0  0  0  0  0  0  0
   25.9134  -21.1761  -13.4424 C   0  0  1  0  0  0  0  0  0  0  0  0
   26.6798  -20.0656  -12.7845 C   0  0  0  0  0  0  0  0  0  0  0  0
   27.8029  -20.5310  -11.9515 C   0  0  0  0  0  0  0  0  0  0  0  0
   27.6607  -21.1373  -10.7417 C   0  0  0  0  0  0  0  0  0  0  0  0
   28.7475  -21.5385  -10.0311 C   0  0  0  0  0  0  0  0  0  0  0  0
   30.0361  -21.3567  -10.4890 C   0  0  0  0  0  0  0  0  0  0  0  0
   30.1834  -20.7436  -11.7128 C   0  0  0  0  0  0  0  0  0  0  0  0
   29.0920  -20.3319  -12.4438 C   0  0  0  0  0  0  0  0  0  0  0  0
   24.7707  -20.6111  -14.2080 C   0  0  0  0  0  0  0  0  0  0  0  0
   24.8276  -20.4158  -15.4494 O   0  0  0  0  0  0  0  0  0  0  0  0
   21.2411  -22.6097  -13.3762 N   0  0  0  0  0  0  0  0  0  0  0  0
   21.2111  -21.3336  -12.7544 C   0  0  0  0  0  0  0  0  0  0  0  0
   21.2873  -21.2843  -11.5048 O   0  0  0  0  0  0  0  0  0  0  0  0
   21.0925  -20.1024  -13.5758 C   0  0  0  0  0  0  0  0  0  0  0  0
   22.3879  -19.7836  -14.2853 C   0  0  2  0  0  0  0  0  0  0  0  0
   23.5393  -20.2572  -13.5727 N   0  0  0  0  0  0  0  0  0  0  0  0
   22.4901  -18.3718  -14.7053 C   0  0  0  0  0  0  0  0  0  0  0  0
   22.5662  -17.4140  -13.9068 O   0  0  0  0  0  0  0  0  0  0  0  0
   22.5025  -18.0941  -16.0993 N   0  0  0  0  0  0  0  0  0  0  0  0
   22.7023  -16.7694  -16.6302 C   0  0  0  0  0  0  0  0  0  0  0  0
   22.5914  -16.8311  -18.1087 C   0  0  0  0  0  0  0  0  0  0  0  0
   22.7073  -15.6765  -18.8637 O   0  0  0  0  0  0  0  0  0  0  0  0
   22.3935  -17.9119  -18.7023 O   0  0  0  0  0  0  0  0  0  0  0  0
  2  1  1  6
  2 10  1  0
  3  2  1  0
  4  9  2  0
  4  3  1  0
  5  4  1  0
  6  7  1  0
  6  5  2  0
  7  8  2  0
  8  9  1  0
 10 11  2  0
 13 12  1  0
 13 15  1  0
 14 13  2  0
 16 15  1  1
 16 18  1  0
 17 10  1  0
 17 16  1  0
 18 20  1  0
 19 18  2  0
 20 21  1  0
 22 23  1  0
 22 21  1  0
 24 22  2  0
M  END
$$$$
