FNG.pdb
     RDKit          3D

 24 24  0  0  1  0  0  0  0  0999 V2000
   24.8953  -21.0833   -8.2938 N   0  0  0  0  0  0  0  0  0  0  0  0
   25.4599  -20.3768   -9.4022 C   0  0  1  0  0  0  0  0  0  0  0  0
   26.9498  -20.5157   -9.5226 C   0  0  0  0  0  0  0  0  0  0  0  0
   27.6891  -20.0283   -8.3446 C   0  0  0  0  0  0  0  0  0  0  0  0
   28.6257  -20.7519   -7.6735 C   0  0  0  0  0  0  0  0  0  0  0  0
   29.2656  -20.2322   -6.5930 C   0  0  0  0  0  0  0  0  0  0  0  0
   29.0056  -18.9615   -6.1228 C   0  0  0  0  0  0  0  0  0  0  0  0
   28.0584  -18.2267   -6.7997 C   0  0  0  0  0  0  0  0  0  0  0  0
   27.4023  -18.7399   -7.8956 C   0  0  0  0  0  0  0  0  0  0  0  0
   24.8104  -20.8418  -10.6564 C   0  0  0  0  0  0  0  0  0  0  0  0
   25.1759  -21.8879  -11.2517 O   0  0  0  0  0  0  0  0  0  0  0  0
   20.4451  -19.6978  -10.5637 N   0  0  0  0  0  0  0  0  0  0  0  0
   20.9641  -20.5979  -11.5313 C   0  0  0  0  0  0  0  0  0  0  0  0
   20.7463  -21.8218  -11.3752 O   0  0  0  0  0  0  0  0  0  0  0  0
   21.7406  -20.0874  -12.6894 C   0  0  0  0  0  0  0  0  0  0  0  0
   23.2091  -20.4190  -12.5605 C   0  0  2  0  0  0  0  0  0  0  0  0
   23.7303  -20.1225  -11.2573 N   0  0  0  0  0  0  0  0  0  0  0  0
   24.0278  -19.8774  -13.6634 C   0  0  0  0  0  0  0  0  0  0  0  0
   24.5218  -18.7300  -13.6623 O   0  0  0  0  0  0  0  0  0  0  0  0
   24.2634  -20.7152  -14.7874 N   0  0  0  0  0  0  0  0  0  0  0  0
   24.7731  -22.0577  -14.6679 C   0  0  0  0  0  0  0  0  0  0  0  0
   26.2454  -22.0221  -14.8500 C   0  0  0  0  0  0  0  0  0  0  0  0
   26.7941  -22.1722  -16.1122 O   0  0  0  0  0  0  0  0  0  0  0  0
   27.0175  -21.8579  -13.8821 O   0  0  0  0  0  0  0  0  0  0  0  0
  2  1  1  1
  2 10  1  0
  3  2  1  0
  4  9  2  0
  4  3  1  0
  5  4  1  0
  6  7  1  0
  6  5  2  0
  7  8  2  0
  8  9  1  0
 10 11  2  0
 13 12  1  0
 13 15  1  0
 14 13  2  0
 16 15  1  1
 16 18  1  0
 17 10  1  0
 17 16  1  0
 18 20  1  0
 19 18  2  0
 20 21  1  0
 22 23  1  0
 22 21  1  0
 24 22  2  0
M  END
$$$$
