FNG.pdb
     RDKit          3D

 24 24  0  0  1  0  0  0  0  0999 V2000
   28.0711  -21.0729   -9.3111 N   0  0  0  0  0  0  0  0  0  0  0  0
   26.7454  -20.6096   -9.0385 C   0  0  1  0  0  0  0  0  0  0  0  0
   26.6877  -19.4227   -8.1211 C   0  0  0  0  0  0  0  0  0  0  0  0
   27.4190  -19.6135   -6.8559 C   0  0  0  0  0  0  0  0  0  0  0  0
   28.6851  -19.1708   -6.6276 C   0  0  0  0  0  0  0  0  0  0  0  0
   29.2940  -19.3865   -5.4319 C   0  0  0  0  0  0  0  0  0  0  0  0
   28.6725  -20.0562   -4.3982 C   0  0  0  0  0  0  0  0  0  0  0  0
   27.3912  -20.5055   -4.6260 C   0  0  0  0  0  0  0  0  0  0  0  0
   26.7619  -20.2943   -5.8319 C   0  0  0  0  0  0  0  0  0  0  0  0
   26.0710  -20.2831  -10.3230 C   0  0  0  0  0  0  0  0  0  0  0  0
   26.6368  -19.6137  -11.2251 O   0  0  0  0  0  0  0  0  0  0  0  0
   26.1950  -22.9804  -12.7388 N   0  0  0  0  0  0  0  0  0  0  0  0
   25.0098  -22.3234  -13.1627 C   0  0  0  0  0  0  0  0  0  0  0  0
   24.0823  -23.0237  -13.6307 O   0  0  0  0  0  0  0  0  0  0  0  0
   24.8888  -20.8480  -13.0478 C   0  0  0  0  0  0  0  0  0  0  0  0
   24.0648  -20.4524  -11.8445 C   0  0  2  0  0  0  0  0  0  0  0  0
   24.7368  -20.7141  -10.6044 N   0  0  0  0  0  0  0  0  0  0  0  0
   22.6823  -20.9685  -11.8898 C   0  0  0  0  0  0  0  0  0  0  0  0
   22.2442  -21.8479  -11.1182 O   0  0  0  0  0  0  0  0  0  0  0  0
   21.8051  -20.4292  -12.8698 N   0  0  0  0  0  0  0  0  0  0  0  0
   21.3046  -19.0791  -12.8119 C   0  0  0  0  0  0  0  0  0  0  0  0
   19.9012  -19.1155  -12.3309 C   0  0  0  0  0  0  0  0  0  0  0  0
   19.2872  -20.3281  -12.0680 O   0  0  0  0  0  0  0  0  0  0  0  0
   19.2465  -18.0669  -12.1530 O   0  0  0  0  0  0  0  0  0  0  0  0
  2  1  1  6
  2 10  1  0
  3  2  1  0
  4  9  2  0
  4  3  1  0
  5  4  1  0
  6  7  1  0
  6  5  2  0
  7  8  2  0
  8  9  1  0
 10 11  2  0
 13 12  1  0
 13 15  1  0
 14 13  2  0
 16 15  1  6
 16 18  1  0
 17 10  1  0
 17 16  1  0
 18 20  1  0
 19 18  2  0
 20 21  1  0
 22 23  1  0
 22 21  1  0
 24 22  2  0
M  END
$$$$
