FNG.pdb
     RDKit          3D

 24 24  0  0  1  0  0  0  0  0999 V2000
   27.3530  -19.6182  -11.3923 N   0  0  0  0  0  0  0  0  0  0  0  0
   27.6052  -20.8980  -11.9796 C   0  0  1  0  0  0  0  0  0  0  0  0
   27.8480  -21.9930  -10.9818 C   0  0  0  0  0  0  0  0  0  0  0  0
   28.9724  -21.7250  -10.0675 C   0  0  0  0  0  0  0  0  0  0  0  0
   30.2827  -21.8915  -10.3940 C   0  0  0  0  0  0  0  0  0  0  0  0
   31.2649  -21.6232   -9.4937 C   0  0  0  0  0  0  0  0  0  0  0  0
   30.9930  -21.1741   -8.2179 C   0  0  0  0  0  0  0  0  0  0  0  0
   29.6681  -21.0046   -7.8844 C   0  0  0  0  0  0  0  0  0  0  0  0
   28.6627  -21.2723   -8.7858 C   0  0  0  0  0  0  0  0  0  0  0  0
   26.4615  -21.2640  -12.8566 C   0  0  0  0  0  0  0  0  0  0  0  0
   26.5068  -22.2462  -13.6412 O   0  0  0  0  0  0  0  0  0  0  0  0
   22.6155  -19.1153  -11.8627 N   0  0  0  0  0  0  0  0  0  0  0  0
   22.4752  -20.4505  -11.4005 C   0  0  0  0  0  0  0  0  0  0  0  0
   21.7667  -20.6526  -10.3871 O   0  0  0  0  0  0  0  0  0  0  0  0
   23.1552  -21.5641  -12.1091 C   0  0  0  0  0  0  0  0  0  0  0  0
   23.9804  -21.0595  -13.2699 C   0  0  2  0  0  0  0  0  0  0  0  0
   25.2422  -20.5167  -12.8562 N   0  0  0  0  0  0  0  0  0  0  0  0
   23.2255  -20.1763  -14.1811 C   0  0  0  0  0  0  0  0  0  0  0  0
   22.0626  -20.4129  -14.5715 O   0  0  0  0  0  0  0  0  0  0  0  0
   23.8647  -18.9908  -14.6357 N   0  0  0  0  0  0  0  0  0  0  0  0
   23.2564  -18.0884  -15.5802 C   0  0  0  0  0  0  0  0  0  0  0  0
   23.2109  -18.7525  -16.9065 C   0  0  0  0  0  0  0  0  0  0  0  0
   24.3720  -18.9176  -17.6421 O   0  0  0  0  0  0  0  0  0  0  0  0
   22.1380  -19.1743  -17.3870 O   0  0  0  0  0  0  0  0  0  0  0  0
  2  1  1  1
  2 10  1  0
  3  2  1  0
  4  9  2  0
  4  3  1  0
  5  4  1  0
  6  7  1  0
  6  5  2  0
  7  8  2  0
  8  9  1  0
 10 11  2  0
 13 12  1  0
 13 15  1  0
 14 13  2  0
 16 15  1  1
 16 18  1  0
 17 10  1  0
 17 16  1  0
 18 20  1  0
 19 18  2  0
 20 21  1  0
 22 23  1  0
 22 21  1  0
 24 22  2  0
M  END
$$$$
