FNG.pdb
     RDKit          3D

 24 24  0  0  1  0  0  0  0  0999 V2000
   23.6492  -15.0407  -19.6952 N   0  0  0  0  0  0  0  0  0  0  0  0
   23.4092  -13.6435  -19.8870 C   0  0  1  0  0  0  0  0  0  0  0  0
   21.9912  -13.3094  -20.2488 C   0  0  0  0  0  0  0  0  0  0  0  0
   21.5694  -13.8448  -21.5555 C   0  0  0  0  0  0  0  0  0  0  0  0
   21.6825  -13.1721  -22.7327 C   0  0  0  0  0  0  0  0  0  0  0  0
   21.2694  -13.7340  -23.8991 C   0  0  0  0  0  0  0  0  0  0  0  0
   20.7206  -14.9985  -23.9546 C   0  0  0  0  0  0  0  0  0  0  0  0
   20.6048  -15.6820  -22.7652 C   0  0  0  0  0  0  0  0  0  0  0  0
   21.0189  -15.1256  -21.5761 C   0  0  0  0  0  0  0  0  0  0  0  0
   23.7975  -12.9100  -18.6531 C   0  0  0  0  0  0  0  0  0  0  0  0
   24.1911  -13.5042  -17.6167 O   0  0  0  0  0  0  0  0  0  0  0  0
   26.5549  -11.0144  -14.7565 N   0  0  0  0  0  0  0  0  0  0  0  0
   26.1456  -10.3256  -15.9287 C   0  0  0  0  0  0  0  0  0  0  0  0
   26.1978   -9.0738  -15.9259 O   0  0  0  0  0  0  0  0  0  0  0  0
   25.6721  -11.0819  -17.1155 C   0  0  0  0  0  0  0  0  0  0  0  0
   24.2440  -10.7304  -17.4621 C   0  0  2  0  0  0  0  0  0  0  0  0
   23.7446  -11.4829  -18.5767 N   0  0  0  0  0  0  0  0  0  0  0  0
   24.0134   -9.2766  -17.5776 C   0  0  0  0  0  0  0  0  0  0  0  0
   24.5056   -8.5653  -18.4790 O   0  0  0  0  0  0  0  0  0  0  0  0
   23.1826   -8.6579  -16.6043 N   0  0  0  0  0  0  0  0  0  0  0  0
   22.8150   -7.2657  -16.6621 C   0  0  0  0  0  0  0  0  0  0  0  0
   21.8545   -6.9845  -15.5665 C   0  0  0  0  0  0  0  0  0  0  0  0
   22.1043   -5.9617  -14.6677 O   0  0  0  0  0  0  0  0  0  0  0  0
   20.8094   -7.6545  -15.4289 O   0  0  0  0  0  0  0  0  0  0  0  0
  2  1  1  1
  2 10  1  0
  3  2  1  0
  4  9  2  0
  4  3  1  0
  5  4  1  0
  6  7  1  0
  6  5  2  0
  7  8  2  0
  8  9  1  0
 10 11  2  0
 13 12  1  0
 13 15  1  0
 14 13  2  0
 16 15  1  6
 16 18  1  0
 17 10  1  0
 17 16  1  0
 18 20  1  0
 19 18  2  0
 20 21  1  0
 22 23  1  0
 22 21  1  0
 24 22  2  0
M  END
$$$$
