FNG.pdb
     RDKit          3D

 24 24  0  0  1  0  0  0  0  0999 V2000
   26.7034  -22.3972  -11.4959 N   0  0  0  0  0  0  0  0  0  0  0  0
   25.8033  -21.4133  -10.9783 C   0  0  1  0  0  0  0  0  0  0  0  0
   26.4522  -20.0988  -10.6549 C   0  0  0  0  0  0  0  0  0  0  0  0
   27.3168  -20.1406   -9.4621 C   0  0  0  0  0  0  0  0  0  0  0  0
   28.6141  -20.5509   -9.4692 C   0  0  0  0  0  0  0  0  0  0  0  0
   29.3480  -20.5617   -8.3255 C   0  0  0  0  0  0  0  0  0  0  0  0
   28.8273  -20.1635   -7.1115 C   0  0  0  0  0  0  0  0  0  0  0  0
   27.5149  -19.7477   -7.1009 C   0  0  0  0  0  0  0  0  0  0  0  0
   26.7594  -19.7314   -8.2515 C   0  0  0  0  0  0  0  0  0  0  0  0
   24.7015  -21.2013  -11.9543 C   0  0  0  0  0  0  0  0  0  0  0  0
   24.8895  -21.2492  -13.1971 O   0  0  0  0  0  0  0  0  0  0  0  0
   20.7407  -22.5142   -9.7574 N   0  0  0  0  0  0  0  0  0  0  0  0
   20.8613  -22.3720  -11.1650 C   0  0  0  0  0  0  0  0  0  0  0  0
   20.9115  -23.4126  -11.8609 O   0  0  0  0  0  0  0  0  0  0  0  0
   20.9248  -21.0216  -11.7790 C   0  0  0  0  0  0  0  0  0  0  0  0
   22.2617  -20.7760  -12.4390 C   0  0  2  0  0  0  0  0  0  0  0  0
   23.3624  -20.9303  -11.5320 N   0  0  0  0  0  0  0  0  0  0  0  0
   22.3060  -19.5217  -13.2166 C   0  0  0  0  0  0  0  0  0  0  0  0
   22.2436  -18.3844  -12.7035 O   0  0  0  0  0  0  0  0  0  0  0  0
   22.4270  -19.6216  -14.6294 N   0  0  0  0  0  0  0  0  0  0  0  0
   22.5493  -18.4696  -15.4864 C   0  0  0  0  0  0  0  0  0  0  0  0
   22.6268  -18.9336  -16.8938 C   0  0  0  0  0  0  0  0  0  0  0  0
   22.7354  -18.0153  -17.9241 O   0  0  0  0  0  0  0  0  0  0  0  0
   22.5967  -20.1486  -17.1815 O   0  0  0  0  0  0  0  0  0  0  0  0
  2  1  1  6
  2 10  1  0
  3  2  1  0
  4  9  2  0
  4  3  1  0
  5  4  1  0
  6  7  1  0
  6  5  2  0
  7  8  2  0
  8  9  1  0
 10 11  2  0
 13 12  1  0
 13 15  1  0
 14 13  2  0
 16 15  1  1
 16 18  1  0
 17 10  1  0
 17 16  1  0
 18 20  1  0
 19 18  2  0
 20 21  1  0
 22 23  1  0
 22 21  1  0
 24 22  2  0
M  END
$$$$
