FNG.pdb
     RDKit          3D

 24 24  0  0  1  0  0  0  0  0999 V2000
   26.9660  -24.2955  -18.4346 N   0  0  0  0  0  0  0  0  0  0  0  0
   26.7458  -24.4604  -17.0308 C   0  0  1  0  0  0  0  0  0  0  0  0
   27.7754  -23.7923  -16.1664 C   0  0  0  0  0  0  0  0  0  0  0  0
   29.1526  -24.2513  -16.4204 C   0  0  0  0  0  0  0  0  0  0  0  0
   30.1128  -23.4990  -17.0233 C   0  0  0  0  0  0  0  0  0  0  0  0
   31.3626  -23.9939  -17.2234 C   0  0  0  0  0  0  0  0  0  0  0  0
   31.7228  -25.2671  -16.8328 C   0  0  0  0  0  0  0  0  0  0  0  0
   30.7535  -26.0309  -16.2224 C   0  0  0  0  0  0  0  0  0  0  0  0
   29.4834  -25.5430  -16.0131 C   0  0  0  0  0  0  0  0  0  0  0  0
   25.3935  -23.9460  -16.6873 C   0  0  0  0  0  0  0  0  0  0  0  0
   24.8593  -22.9956  -17.3147 O   0  0  0  0  0  0  0  0  0  0  0  0
   22.6518  -27.6321  -15.6411 N   0  0  0  0  0  0  0  0  0  0  0  0
   22.3036  -26.2851  -15.9242 C   0  0  0  0  0  0  0  0  0  0  0  0
   21.9089  -26.0085  -17.0807 O   0  0  0  0  0  0  0  0  0  0  0  0
   22.4096  -25.2460  -14.8689 C   0  0  0  0  0  0  0  0  0  0  0  0
   23.2834  -24.0953  -15.3111 C   0  0  2  0  0  0  0  0  0  0  0  0
   24.6227  -24.5058  -15.6207 N   0  0  0  0  0  0  0  0  0  0  0  0
   23.2148  -22.9304  -14.4065 C   0  0  0  0  0  0  0  0  0  0  0  0
   24.0012  -22.7444  -13.4536 O   0  0  0  0  0  0  0  0  0  0  0  0
   22.1934  -21.9697  -14.6391 N   0  0  0  0  0  0  0  0  0  0  0  0
   22.0267  -20.7935  -13.8235 C   0  0  0  0  0  0  0  0  0  0  0  0
   20.9031  -19.9938  -14.3712 C   0  0  0  0  0  0  0  0  0  0  0  0
   20.4865  -18.8440  -13.7224 O   0  0  0  0  0  0  0  0  0  0  0  0
   20.3121  -20.3328  -15.4179 O   0  0  0  0  0  0  0  0  0  0  0  0
  2  1  1  6
  2 10  1  0
  3  2  1  0
  4  9  2  0
  4  3  1  0
  5  4  1  0
  6  7  1  0
  6  5  2  0
  7  8  2  0
  8  9  1  0
 10 11  2  0
 13 12  1  0
 13 15  1  0
 14 13  2  0
 16 15  1  1
 16 18  1  0
 17 10  1  0
 17 16  1  0
 18 20  1  0
 19 18  2  0
 20 21  1  0
 22 23  1  0
 22 21  1  0
 24 22  2  0
M  END
$$$$
