DKD.pdb
     RDKit          3D

 26 25  0  0  1  0  0  0  0  0999 V2000
   11.0978  -18.2003   15.4066 N   0  0  0  0  0  0  0  0  0  0  0  0
   10.3784  -18.4714   16.6001 C   0  0  1  0  0  0  0  0  0  0  0  0
   10.4238  -19.8929   17.0545 C   0  0  0  0  0  0  0  0  0  0  0  0
   11.7479  -20.5259   16.8357 C   0  0  0  0  0  0  0  0  0  0  0  0
   12.7834  -20.0738   17.3794 O   0  0  0  0  0  0  0  0  0  0  0  0
   10.8915  -17.6045   17.6906 C   0  0  0  0  0  0  0  0  0  0  0  0
   12.1020  -17.2700   17.7353 O   0  0  0  0  0  0  0  0  0  0  0  0
   11.8483  -21.6316   16.0210 O   0  0  0  0  0  0  0  0  0  0  0  0
    9.9942  -17.1596   18.6804 N   0  0  0  0  0  0  0  0  0  0  0  0
   10.3975  -16.2683   19.7563 C   0  0  1  0  0  0  0  0  0  0  0  0
    9.2223  -15.5130   20.3162 C   0  0  0  0  0  0  0  0  0  0  0  0
    8.6616  -14.5153   19.3314 C   0  0  0  0  0  0  0  0  0  0  0  0
    7.4066  -13.9033   19.9480 C   0  0  0  0  0  0  0  0  0  0  0  0
    6.8413  -12.9485   18.9094 C   0  0  0  0  0  0  0  0  0  0  0  0
    5.5474  -12.4332   19.2947 N   0  0  0  0  0  0  0  0  0  0  0  0
   11.1405  -17.0090   20.8006 C   0  0  0  0  0  0  0  0  0  0  0  0
   10.8869  -18.2227   21.0075 O   0  0  0  0  0  0  0  0  0  0  0  0
   12.1312  -16.3479   21.5600 N   0  0  0  0  0  0  0  0  0  0  0  0
   12.9065  -17.0428   22.6233 C   0  0  1  0  0  0  0  0  0  0  0  0
   14.2950  -16.4524   22.6335 C   0  0  0  0  0  0  0  0  0  0  0  0
   15.1729  -16.9430   23.6888 C   0  0  0  0  0  0  0  0  0  0  0  0
   15.3426  -18.1567   23.8923 O   0  0  0  0  0  0  0  0  0  0  0  0
   12.2299  -16.7551   23.9176 C   0  0  0  0  0  0  0  0  0  0  0  0
   12.0449  -17.5930   24.8188 O   0  0  0  0  0  0  0  0  0  0  0  0
   15.8799  -16.0744   24.5398 O   0  0  0  0  0  0  0  0  0  0  0  0
   11.7531  -15.4650   24.1805 O   0  0  0  0  0  0  0  0  0  0  0  0
  2  1  1  6
  2  3  1  0
  3  4  1  0
  4  8  1  0
  4  5  2  0
  6  2  1  0
  7  6  2  0
  9  6  1  0
 10  9  1  0
 10 11  1  1
 11 12  1  0
 13 14  1  0
 13 12  1  0
 15 14  1  0
 16 17  2  0
 16 10  1  0
 18 16  1  0
 19 18  1  0
 19 20  1  1
 20 21  1  0
 21 25  1  0
 21 22  2  0
 23 19  1  0
 24 23  2  0
 26 23  1  0
M  END
$$$$
