DKD.pdb
     RDKit          3D

 26 25  0  0  1  0  0  0  0  0999 V2000
    8.9335  -17.9081   16.4825 N   0  0  0  0  0  0  0  0  0  0  0  0
   10.2490  -18.1835   16.9398 C   0  0  1  0  0  0  0  0  0  0  0  0
   11.3284  -17.9436   15.9366 C   0  0  0  0  0  0  0  0  0  0  0  0
   11.1754  -18.7734   14.7158 C   0  0  0  0  0  0  0  0  0  0  0  0
   12.0531  -18.7819   13.8204 O   0  0  0  0  0  0  0  0  0  0  0  0
   10.5298  -17.3679   18.1481 C   0  0  0  0  0  0  0  0  0  0  0  0
   11.6753  -17.3503   18.6644 O   0  0  0  0  0  0  0  0  0  0  0  0
   10.0502  -19.5512   14.5573 O   0  0  0  0  0  0  0  0  0  0  0  0
    9.4853  -16.6089   18.7100 N   0  0  0  0  0  0  0  0  0  0  0  0
    9.6746  -15.7651   19.8790 C   0  0  1  0  0  0  0  0  0  0  0  0
    8.4734  -14.8938   20.1303 C   0  0  0  0  0  0  0  0  0  0  0  0
    8.6854  -13.9466   21.2867 C   0  0  0  0  0  0  0  0  0  0  0  0
    7.4514  -13.0547   21.3939 C   0  0  0  0  0  0  0  0  0  0  0  0
    7.7190  -12.0891   22.5367 C   0  0  0  0  0  0  0  0  0  0  0  0
    6.6133  -12.0286   23.4650 N   0  0  0  0  0  0  0  0  0  0  0  0
   10.0370  -16.5795   21.0608 C   0  0  0  0  0  0  0  0  0  0  0  0
    9.3859  -17.6213   21.3266 O   0  0  0  0  0  0  0  0  0  0  0  0
   11.1133  -16.1815   21.8845 N   0  0  0  0  0  0  0  0  0  0  0  0
   11.5396  -16.9778   23.0672 C   0  0  1  0  0  0  0  0  0  0  0  0
   13.0027  -16.6944   23.3031 C   0  0  0  0  0  0  0  0  0  0  0  0
   13.5787  -17.3313   24.4811 C   0  0  0  0  0  0  0  0  0  0  0  0
   12.9390  -18.1446   25.1685 O   0  0  0  0  0  0  0  0  0  0  0  0
   10.7424  -16.4977   24.2289 C   0  0  0  0  0  0  0  0  0  0  0  0
   10.2900  -15.3445   24.3463 O   0  0  0  0  0  0  0  0  0  0  0  0
   14.8912  -17.0645   24.9110 O   0  0  0  0  0  0  0  0  0  0  0  0
   10.4587  -17.3720   25.2855 O   0  0  0  0  0  0  0  0  0  0  0  0
  2  1  1  6
  2  3  1  0
  3  4  1  0
  4  8  1  0
  4  5  2  0
  6  2  1  0
  7  6  2  0
  9  6  1  0
 10  9  1  0
 10 11  1  1
 11 12  1  0
 13 14  1  0
 13 12  1  0
 15 14  1  0
 16 17  2  0
 16 10  1  0
 18 16  1  0
 19 18  1  0
 19 20  1  1
 20 21  1  0
 21 25  1  0
 21 22  2  0
 23 19  1  0
 24 23  2  0
 26 23  1  0
M  END
$$$$
