DKD.pdb
     RDKit          3D

 26 25  0  0  1  0  0  0  0  0999 V2000
    7.0603  -17.3769   19.5933 N   0  0  0  0  0  0  0  0  0  0  0  0
    8.4290  -17.0549   19.3973 C   0  0  1  0  0  0  0  0  0  0  0  0
    8.7177  -16.2452   18.1766 C   0  0  0  0  0  0  0  0  0  0  0  0
    8.3901  -16.9617   16.9190 C   0  0  0  0  0  0  0  0  0  0  0  0
    9.1505  -16.9099   15.9233 O   0  0  0  0  0  0  0  0  0  0  0  0
    8.9369  -16.3249   20.5860 C   0  0  0  0  0  0  0  0  0  0  0  0
   10.1564  -16.0430   20.6994 O   0  0  0  0  0  0  0  0  0  0  0  0
    7.2302  -17.6993   16.8374 O   0  0  0  0  0  0  0  0  0  0  0  0
    8.0246  -15.9504   21.5911 N   0  0  0  0  0  0  0  0  0  0  0  0
    8.4370  -15.2586   22.8018 C   0  0  1  0  0  0  0  0  0  0  0  0
    7.2980  -14.4853   23.4101 C   0  0  0  0  0  0  0  0  0  0  0  0
    7.7042  -13.7684   24.6751 C   0  0  0  0  0  0  0  0  0  0  0  0
    6.5143  -12.9354   25.1441 C   0  0  0  0  0  0  0  0  0  0  0  0
    6.9945  -12.1431   26.3488 C   0  0  0  0  0  0  0  0  0  0  0  0
    5.9369  -11.3501   26.9324 N   0  0  0  0  0  0  0  0  0  0  0  0
    9.0532  -16.2024   23.7614 C   0  0  0  0  0  0  0  0  0  0  0  0
    8.4163  -17.2195   24.1356 O   0  0  0  0  0  0  0  0  0  0  0  0
   10.3544  -15.9552   24.2522 N   0  0  0  0  0  0  0  0  0  0  0  0
   11.1488  -17.0036   24.9482 C   0  0  1  0  0  0  0  0  0  0  0  0
   12.6070  -16.6494   24.7902 C   0  0  0  0  0  0  0  0  0  0  0  0
   13.5455  -17.5938   25.3837 C   0  0  0  0  0  0  0  0  0  0  0  0
   13.5768  -17.8097   26.6067 O   0  0  0  0  0  0  0  0  0  0  0  0
   10.7740  -16.9536   26.3878 C   0  0  0  0  0  0  0  0  0  0  0  0
   10.7855  -17.9336   27.1546 O   0  0  0  0  0  0  0  0  0  0  0  0
   14.4713  -18.3169   24.6100 O   0  0  0  0  0  0  0  0  0  0  0  0
   10.3745  -15.7394   26.9599 O   0  0  0  0  0  0  0  0  0  0  0  0
  2  1  1  1
  2  3  1  0
  3  4  1  0
  4  8  1  0
  4  5  2  0
  6  2  1  0
  7  6  2  0
  9  6  1  0
 10  9  1  0
 10 11  1  1
 11 12  1  0
 13 14  1  0
 13 12  1  0
 15 14  1  0
 16 17  2  0
 16 10  1  0
 18 16  1  0
 19 18  1  0
 19 20  1  1
 20 21  1  0
 21 25  1  0
 21 22  2  0
 23 19  1  0
 24 23  2  0
 26 23  1  0
M  END
$$$$
