DKD.pdb
     RDKit          3D

 26 25  0  0  1  0  0  0  0  0999 V2000
   11.7412  -17.5458   16.8782 N   0  0  0  0  0  0  0  0  0  0  0  0
   12.7753  -16.6347   17.2188 C   0  0  1  0  0  0  0  0  0  0  0  0
   12.9724  -15.5145   16.2517 C   0  0  0  0  0  0  0  0  0  0  0  0
   13.3375  -15.9842   14.8922 C   0  0  0  0  0  0  0  0  0  0  0  0
   12.4933  -16.5319   14.1442 O   0  0  0  0  0  0  0  0  0  0  0  0
   12.5044  -16.0641   18.5623 C   0  0  0  0  0  0  0  0  0  0  0  0
   13.3291  -15.2946   19.1163 O   0  0  0  0  0  0  0  0  0  0  0  0
   14.6267  -15.8183   14.4374 O   0  0  0  0  0  0  0  0  0  0  0  0
   11.3003  -16.4006   19.2102 N   0  0  0  0  0  0  0  0  0  0  0  0
   10.9444  -15.8755   20.5187 C   0  0  1  0  0  0  0  0  0  0  0  0
    9.4519  -15.8319   20.7078 C   0  0  0  0  0  0  0  0  0  0  0  0
    8.7573  -15.0700   19.6049 C   0  0  0  0  0  0  0  0  0  0  0  0
    8.5166  -13.6460   20.0991 C   0  0  0  0  0  0  0  0  0  0  0  0
    7.7988  -12.9181   18.9745 C   0  0  0  0  0  0  0  0  0  0  0  0
    7.5454  -11.5333   19.3004 N   0  0  0  0  0  0  0  0  0  0  0  0
   11.6264  -16.6338   21.5915 C   0  0  0  0  0  0  0  0  0  0  0  0
   11.4957  -17.8824   21.6558 O   0  0  0  0  0  0  0  0  0  0  0  0
   12.4210  -15.9502   22.5384 N   0  0  0  0  0  0  0  0  0  0  0  0
   13.0959  -16.6568   23.6608 C   0  0  1  0  0  0  0  0  0  0  0  0
   14.3819  -15.9234   23.9524 C   0  0  0  0  0  0  0  0  0  0  0  0
   15.3866  -15.9838   22.8978 C   0  0  0  0  0  0  0  0  0  0  0  0
   15.5029  -16.9733   22.1558 O   0  0  0  0  0  0  0  0  0  0  0  0
   12.1914  -16.5706   24.8398 C   0  0  0  0  0  0  0  0  0  0  0  0
   12.4143  -17.1052   25.9411 O   0  0  0  0  0  0  0  0  0  0  0  0
   16.2841  -14.9281   22.6564 O   0  0  0  0  0  0  0  0  0  0  0  0
   10.9957  -15.8476   24.7465 O   0  0  0  0  0  0  0  0  0  0  0  0
  2  1  1  6
  2  3  1  0
  3  4  1  0
  4  8  1  0
  4  5  2  0
  6  2  1  0
  7  6  2  0
  9  6  1  0
 10  9  1  0
 10 11  1  1
 11 12  1  0
 13 14  1  0
 13 12  1  0
 15 14  1  0
 16 17  2  0
 16 10  1  0
 18 16  1  0
 19 18  1  0
 19 20  1  1
 20 21  1  0
 21 25  1  0
 21 22  2  0
 23 19  1  0
 24 23  2  0
 26 23  1  0
M  END
$$$$
