DKD.pdb
     RDKit          3D

 26 25  0  0  1  0  0  0  0  0999 V2000
    8.3942  -16.9929   20.2660 N   0  0  0  0  0  0  0  0  0  0  0  0
    9.7837  -16.9311   20.5505 C   0  0  1  0  0  0  0  0  0  0  0  0
   10.6234  -16.3400   19.4667 C   0  0  0  0  0  0  0  0  0  0  0  0
   10.4654  -17.0405   18.1681 C   0  0  0  0  0  0  0  0  0  0  0  0
   10.4225  -18.2921   18.1047 O   0  0  0  0  0  0  0  0  0  0  0  0
    9.9958  -16.1535   21.7972 C   0  0  0  0  0  0  0  0  0  0  0  0
   11.1520  -15.8313   22.1695 O   0  0  0  0  0  0  0  0  0  0  0  0
   10.3634  -16.3078   17.0067 O   0  0  0  0  0  0  0  0  0  0  0  0
    8.8733  -15.7799   22.5609 N   0  0  0  0  0  0  0  0  0  0  0  0
    8.9915  -15.1383   23.8605 C   0  0  1  0  0  0  0  0  0  0  0  0
    7.7611  -14.3383   24.1943 C   0  0  0  0  0  0  0  0  0  0  0  0
    7.8656  -13.6627   25.5404 C   0  0  0  0  0  0  0  0  0  0  0  0
    6.6256  -12.7921   25.7250 C   0  0  0  0  0  0  0  0  0  0  0  0
    6.7828  -12.1028   27.0703 C   0  0  0  0  0  0  0  0  0  0  0  0
    5.6907  -11.1977   27.3463 N   0  0  0  0  0  0  0  0  0  0  0  0
    9.3192  -16.1314   24.9081 C   0  0  0  0  0  0  0  0  0  0  0  0
    8.5519  -17.1069   25.1078 O   0  0  0  0  0  0  0  0  0  0  0  0
   10.4930  -15.9779   25.6787 N   0  0  0  0  0  0  0  0  0  0  0  0
   10.8877  -16.9629   26.7221 C   0  0  1  0  0  0  0  0  0  0  0  0
   12.3884  -17.1085   26.6658 C   0  0  0  0  0  0  0  0  0  0  0  0
   12.9222  -17.5708   25.3904 C   0  0  0  0  0  0  0  0  0  0  0  0
   12.3454  -18.4359   24.7105 O   0  0  0  0  0  0  0  0  0  0  0  0
   10.4886  -16.3914   28.0373 C   0  0  0  0  0  0  0  0  0  0  0  0
    9.9972  -15.2591   28.1951 O   0  0  0  0  0  0  0  0  0  0  0  0
   14.1204  -17.0672   24.8526 O   0  0  0  0  0  0  0  0  0  0  0  0
   10.6609  -17.1467   29.2039 O   0  0  0  0  0  0  0  0  0  0  0  0
  2  1  1  6
  2  3  1  0
  3  4  1  0
  4  8  1  0
  4  5  2  0
  6  2  1  0
  7  6  2  0
  9  6  1  0
 10  9  1  0
 10 11  1  1
 11 12  1  0
 13 14  1  0
 13 12  1  0
 15 14  1  0
 16 17  2  0
 16 10  1  0
 18 16  1  0
 19 18  1  0
 19 20  1  1
 20 21  1  0
 21 25  1  0
 21 22  2  0
 23 19  1  0
 24 23  2  0
 26 23  1  0
M  END
$$$$
