DKD.pdb
     RDKit          3D

 26 25  0  0  1  0  0  0  0  0999 V2000
    8.2774  -17.0836   18.8675 N   0  0  0  0  0  0  0  0  0  0  0  0
    9.6377  -17.2861   19.2202 C   0  0  1  0  0  0  0  0  0  0  0  0
   10.6259  -16.8921   18.1727 C   0  0  0  0  0  0  0  0  0  0  0  0
   10.6905  -17.8586   17.0485 C   0  0  0  0  0  0  0  0  0  0  0  0
    9.8895  -18.8201   16.9699 O   0  0  0  0  0  0  0  0  0  0  0  0
    9.9386  -16.5380   20.4666 C   0  0  0  0  0  0  0  0  0  0  0  0
   11.1248  -16.3285   20.8246 O   0  0  0  0  0  0  0  0  0  0  0  0
   11.6462  -17.7022   16.0695 O   0  0  0  0  0  0  0  0  0  0  0  0
    8.8666  -16.0632   21.2465 N   0  0  0  0  0  0  0  0  0  0  0  0
    9.0651  -15.3953   22.5228 C   0  0  1  0  0  0  0  0  0  0  0  0
    7.7946  -14.7548   23.0134 C   0  0  0  0  0  0  0  0  0  0  0  0
    7.9896  -14.0241   24.3200 C   0  0  0  0  0  0  0  0  0  0  0  0
    6.6525  -13.4012   24.7125 C   0  0  0  0  0  0  0  0  0  0  0  0
    6.8902  -12.6668   26.0216 C   0  0  0  0  0  0  0  0  0  0  0  0
    5.6819  -12.0568   26.5277 N   0  0  0  0  0  0  0  0  0  0  0  0
    9.6474  -16.3252   23.5166 C   0  0  0  0  0  0  0  0  0  0  0  0
    9.1248  -17.4538   23.6992 O   0  0  0  0  0  0  0  0  0  0  0  0
   10.7880  -15.9394   24.2552 N   0  0  0  0  0  0  0  0  0  0  0  0
   11.5098  -16.8874   25.1468 C   0  0  1  0  0  0  0  0  0  0  0  0
   12.9204  -16.3764   25.3074 C   0  0  0  0  0  0  0  0  0  0  0  0
   13.7561  -16.4689   24.1165 C   0  0  0  0  0  0  0  0  0  0  0  0
   13.4304  -17.1589   23.1362 O   0  0  0  0  0  0  0  0  0  0  0  0
   10.8157  -16.8652   26.4633 C   0  0  0  0  0  0  0  0  0  0  0  0
    9.9076  -16.0713   26.7692 O   0  0  0  0  0  0  0  0  0  0  0  0
   14.9798  -15.7845   24.0047 O   0  0  0  0  0  0  0  0  0  0  0  0
   11.1787  -17.7843   27.4556 O   0  0  0  0  0  0  0  0  0  0  0  0
  2  1  1  6
  2  3  1  0
  3  4  1  0
  4  8  1  0
  4  5  2  0
  6  2  1  0
  7  6  2  0
  9  6  1  0
 10  9  1  0
 10 11  1  1
 11 12  1  0
 13 14  1  0
 13 12  1  0
 15 14  1  0
 16 17  2  0
 16 10  1  0
 18 16  1  0
 19 18  1  0
 19 20  1  1
 20 21  1  0
 21 25  1  0
 21 22  2  0
 23 19  1  0
 24 23  2  0
 26 23  1  0
M  END
$$$$
