DKD.pdb
     RDKit          3D

 26 25  0  0  1  0  0  0  0  0999 V2000
    9.6520  -17.7636   17.4737 N   0  0  0  0  0  0  0  0  0  0  0  0
   10.5681  -18.3694   18.3734 C   0  0  1  0  0  0  0  0  0  0  0  0
   11.9109  -18.6736   17.7961 C   0  0  0  0  0  0  0  0  0  0  0  0
   11.8376  -19.5279   16.5849 C   0  0  0  0  0  0  0  0  0  0  0  0
   11.9161  -19.0348   15.4348 O   0  0  0  0  0  0  0  0  0  0  0  0
   10.7448  -17.4932   19.5587 C   0  0  0  0  0  0  0  0  0  0  0  0
   11.8544  -16.9585   19.8078 O   0  0  0  0  0  0  0  0  0  0  0  0
   11.6803  -20.8893   16.7200 O   0  0  0  0  0  0  0  0  0  0  0  0
    9.6419  -17.2690   20.4049 N   0  0  0  0  0  0  0  0  0  0  0  0
    9.7194  -16.4144   21.5789 C   0  0  1  0  0  0  0  0  0  0  0  0
    8.3630  -15.8950   21.9732 C   0  0  0  0  0  0  0  0  0  0  0  0
    7.6466  -15.2331   20.8208 C   0  0  0  0  0  0  0  0  0  0  0  0
    8.2215  -13.8288   20.6564 C   0  0  0  0  0  0  0  0  0  0  0  0
    7.4370  -13.1740   19.5314 C   0  0  0  0  0  0  0  0  0  0  0  0
    7.8136  -11.7919   19.3413 N   0  0  0  0  0  0  0  0  0  0  0  0
   10.4007  -17.1128   22.6921 C   0  0  0  0  0  0  0  0  0  0  0  0
   10.0698  -18.2886   22.9894 O   0  0  0  0  0  0  0  0  0  0  0  0
   11.4198  -16.4543   23.4154 N   0  0  0  0  0  0  0  0  0  0  0  0
   12.2152  -17.1448   24.4666 C   0  0  1  0  0  0  0  0  0  0  0  0
   13.4892  -16.3604   24.6618 C   0  0  0  0  0  0  0  0  0  0  0  0
   14.2934  -16.1692   23.4611 C   0  0  0  0  0  0  0  0  0  0  0  0
   14.6404  -17.1217   22.7429 O   0  0  0  0  0  0  0  0  0  0  0  0
   11.4096  -17.1118   25.7179 C   0  0  0  0  0  0  0  0  0  0  0  0
   10.3141  -16.5338   25.8370 O   0  0  0  0  0  0  0  0  0  0  0  0
   14.7253  -14.8975   23.0429 O   0  0  0  0  0  0  0  0  0  0  0  0
   11.8803  -17.7636   26.8645 O   0  0  0  0  0  0  0  0  0  0  0  0
  2  1  1  6
  2  3  1  0
  3  4  1  0
  4  8  1  0
  4  5  2  0
  6  2  1  0
  7  6  2  0
  9  6  1  0
 10  9  1  0
 10 11  1  1
 11 12  1  0
 13 14  1  0
 13 12  1  0
 15 14  1  0
 16 17  2  0
 16 10  1  0
 18 16  1  0
 19 18  1  0
 19 20  1  1
 20 21  1  0
 21 25  1  0
 21 22  2  0
 23 19  1  0
 24 23  2  0
 26 23  1  0
M  END
$$$$
