DKD.pdb
     RDKit          3D

 26 25  0  0  1  0  0  0  0  0999 V2000
   12.8270  -17.5491   17.0109 N   0  0  0  0  0  0  0  0  0  0  0  0
   11.9043  -18.0725   17.9544 C   0  0  1  0  0  0  0  0  0  0  0  0
   12.1655  -19.4803   18.3776 C   0  0  0  0  0  0  0  0  0  0  0  0
   11.5151  -20.4783   17.4928 C   0  0  0  0  0  0  0  0  0  0  0  0
   11.2877  -20.2275   16.2855 O   0  0  0  0  0  0  0  0  0  0  0  0
   11.8896  -17.2060   19.1598 C   0  0  0  0  0  0  0  0  0  0  0  0
   12.9392  -16.6483   19.5680 O   0  0  0  0  0  0  0  0  0  0  0  0
   11.1519  -21.7054   18.0012 O   0  0  0  0  0  0  0  0  0  0  0  0
   10.6728  -17.0173   19.8428 N   0  0  0  0  0  0  0  0  0  0  0  0
   10.5445  -16.1130   20.9743 C   0  0  1  0  0  0  0  0  0  0  0  0
    9.1708  -15.5014   21.0383 C   0  0  0  0  0  0  0  0  0  0  0  0
    8.9345  -14.5080   19.9263 C   0  0  0  0  0  0  0  0  0  0  0  0
    7.4870  -14.0330   20.0223 C   0  0  0  0  0  0  0  0  0  0  0  0
    7.2691  -13.0850   18.8546 C   0  0  0  0  0  0  0  0  0  0  0  0
    5.9012  -12.6258   18.7775 N   0  0  0  0  0  0  0  0  0  0  0  0
   10.9174  -16.7937   22.2348 C   0  0  0  0  0  0  0  0  0  0  0  0
   10.5162  -17.9642   22.4566 O   0  0  0  0  0  0  0  0  0  0  0  0
   11.7225  -16.1241   23.1829 N   0  0  0  0  0  0  0  0  0  0  0  0
   12.1632  -16.7757   24.4461 C   0  0  1  0  0  0  0  0  0  0  0  0
   13.4230  -16.0809   24.9009 C   0  0  0  0  0  0  0  0  0  0  0  0
   14.6000  -16.3213   24.0752 C   0  0  0  0  0  0  0  0  0  0  0  0
   14.5775  -17.1014   23.1086 O   0  0  0  0  0  0  0  0  0  0  0  0
   11.0836  -16.5629   25.4485 C   0  0  0  0  0  0  0  0  0  0  0  0
   11.0716  -17.0600   26.5892 O   0  0  0  0  0  0  0  0  0  0  0  0
   15.8308  -15.6867   24.3217 O   0  0  0  0  0  0  0  0  0  0  0  0
    9.9866  -15.7540   25.1269 O   0  0  0  0  0  0  0  0  0  0  0  0
  2  1  1  6
  2  3  1  0
  3  4  1  0
  4  8  1  0
  4  5  2  0
  6  2  1  0
  7  6  2  0
  9  6  1  0
 10  9  1  0
 10 11  1  1
 11 12  1  0
 13 14  1  0
 13 12  1  0
 15 14  1  0
 16 17  2  0
 16 10  1  0
 18 16  1  0
 19 18  1  0
 19 20  1  1
 20 21  1  0
 21 25  1  0
 21 22  2  0
 23 19  1  0
 24 23  2  0
 26 23  1  0
M  END
$$$$
