DKD.pdb
     RDKit          3D

 26 25  0  0  1  0  0  0  0  0999 V2000
    7.8720  -14.9394   19.3202 N   0  0  0  0  0  0  0  0  0  0  0  0
    8.3998  -16.0557   20.0208 C   0  0  1  0  0  0  0  0  0  0  0  0
    9.4985  -16.7804   19.3160 C   0  0  0  0  0  0  0  0  0  0  0  0
    9.1273  -17.1918   17.9394 C   0  0  0  0  0  0  0  0  0  0  0  0
    8.1908  -17.9991   17.7315 O   0  0  0  0  0  0  0  0  0  0  0  0
    8.8943  -15.6131   21.3488 C   0  0  0  0  0  0  0  0  0  0  0  0
   10.0865  -15.2484   21.5061 O   0  0  0  0  0  0  0  0  0  0  0  0
    9.8210  -16.6808   16.8651 O   0  0  0  0  0  0  0  0  0  0  0  0
    8.0001  -15.6081   22.4365 N   0  0  0  0  0  0  0  0  0  0  0  0
    8.4031  -15.2134   23.7768 C   0  0  1  0  0  0  0  0  0  0  0  0
    7.2409  -14.6716   24.5648 C   0  0  0  0  0  0  0  0  0  0  0  0
    7.4984  -13.2750   25.0772 C   0  0  0  0  0  0  0  0  0  0  0  0
    6.2494  -12.8118   25.8224 C   0  0  0  0  0  0  0  0  0  0  0  0
    6.5723  -11.4381   26.3868 C   0  0  0  0  0  0  0  0  0  0  0  0
    5.4592  -10.8774   27.1179 N   0  0  0  0  0  0  0  0  0  0  0  0
    9.0823  -16.3307   24.4708 C   0  0  0  0  0  0  0  0  0  0  0  0
    8.5400  -17.4640   24.5124 O   0  0  0  0  0  0  0  0  0  0  0  0
   10.3372  -16.1176   25.0833 N   0  0  0  0  0  0  0  0  0  0  0  0
   11.0947  -17.2193   25.7368 C   0  0  1  0  0  0  0  0  0  0  0  0
   12.5457  -16.8083   25.7838 C   0  0  0  0  0  0  0  0  0  0  0  0
   13.1898  -16.6462   24.4861 C   0  0  0  0  0  0  0  0  0  0  0  0
   12.7784  -17.2303   23.4698 O   0  0  0  0  0  0  0  0  0  0  0  0
   10.5664  -17.3525   27.1220 C   0  0  0  0  0  0  0  0  0  0  0  0
    9.7214  -16.5942   27.6311 O   0  0  0  0  0  0  0  0  0  0  0  0
   14.3141  -15.8206   24.3053 O   0  0  0  0  0  0  0  0  0  0  0  0
   11.0254  -18.3894   27.9438 O   0  0  0  0  0  0  0  0  0  0  0  0
  2  1  1  6
  2  3  1  0
  3  4  1  0
  4  8  1  0
  4  5  2  0
  6  2  1  0
  7  6  2  0
  9  6  1  0
 10  9  1  0
 10 11  1  1
 11 12  1  0
 13 14  1  0
 13 12  1  0
 15 14  1  0
 16 17  2  0
 16 10  1  0
 18 16  1  0
 19 18  1  0
 19 20  1  1
 20 21  1  0
 21 25  1  0
 21 22  2  0
 23 19  1  0
 24 23  2  0
 26 23  1  0
M  END
$$$$
