MVI.pdb
     RDKit          3D

 24 23  0  0  1  0  0  0  0  0999 V2000
    5.0476  -13.2012   26.2886 C   0  0  0  0  0  0  0  0  0  0  0  0
    6.1773  -14.0447   27.4002 S   0  0  0  0  0  0  0  0  0  0  0  0
    6.3653  -15.7843   27.0384 C   0  0  0  0  0  0  0  0  0  0  0  0
    5.4616  -16.1857   25.9309 C   0  0  0  0  0  0  0  0  0  0  0  0
    5.8260  -17.3976   25.1548 C   0  0  2  0  0  0  0  0  0  0  0  0
    6.0039  -18.6064   25.9025 N   0  0  0  0  0  0  0  0  0  0  0  0
    7.0629  -17.1772   24.3380 C   0  0  0  0  0  0  0  0  0  0  0  0
    7.9945  -18.0272   24.3054 O   0  0  0  0  0  0  0  0  0  0  0  0
    8.0199  -13.2854   22.5550 C   0  0  0  0  0  0  0  0  0  0  0  0
    8.2051  -14.5922   21.8392 C   0  0  1  0  0  0  0  0  0  0  0  0
    9.4044  -14.3990   20.8976 C   0  0  0  0  0  0  0  0  0  0  0  0
    8.4147  -15.7862   22.7221 C   0  0  2  0  0  0  0  0  0  0  0  0
    7.2346  -16.0077   23.5697 N   0  0  0  0  0  0  0  0  0  0  0  0
    9.6272  -15.6633   23.5634 C   0  0  0  0  0  0  0  0  0  0  0  0
   10.6320  -14.9819   23.1339 O   0  0  0  0  0  0  0  0  0  0  0  0
   10.0672  -14.6248   28.8957 C   0  0  0  0  0  0  0  0  0  0  0  0
    9.6002  -14.7776   27.4648 C   0  0  0  0  0  0  0  0  0  0  0  0
   10.7408  -14.6452   26.4978 C   0  0  2  0  0  0  0  0  0  0  0  0
   10.6270  -13.4118   25.6362 C   0  0  0  0  0  0  0  0  0  0  0  0
   10.9897  -15.8642   25.6699 C   0  0  2  0  0  0  0  0  0  0  0  0
    9.8350  -16.2202   24.8378 N   0  0  0  0  0  0  0  0  0  0  0  0
   11.3163  -17.0500   26.4858 C   0  0  0  0  0  0  0  0  0  0  0  0
   10.4586  -17.9554   26.6262 O   0  0  0  0  0  0  0  0  0  0  0  0
   12.5451  -17.2177   27.1175 O   0  0  0  0  0  0  0  0  0  0  0  0
  1  2  1  0
  3  2  1  0
  4  3  1  0
  5  6  1  1
  5  4  1  0
  7  5  1  0
  8  7  2  0
 10  9  1  1
 10 12  1  0
 11 10  1  0
 12 14  1  0
 12 13  1  1
 13  7  1  0
 14 15  2  0
 16 17  1  0
 18 17  1  0
 18 19  1  6
 18 20  1  0
 20 22  1  0
 20 21  1  1
 21 14  1  0
 22 23  2  0
 22 24  1  0
M  END
$$$$
