MVI.pdb
     RDKit          3D

 24 23  0  0  1  0  0  0  0  0999 V2000
    2.7740  -19.0238   22.4475 C   0  0  0  0  0  0  0  0  0  0  0  0
    4.0520  -18.4613   23.5761 S   0  0  0  0  0  0  0  0  0  0  0  0
    5.6917  -18.4927   22.8670 C   0  0  0  0  0  0  0  0  0  0  0  0
    5.6270  -18.2868   21.3981 C   0  0  0  0  0  0  0  0  0  0  0  0
    6.8861  -18.4465   20.6281 C   0  0  2  0  0  0  0  0  0  0  0  0
    7.6015  -19.6727   20.8192 N   0  0  0  0  0  0  0  0  0  0  0  0
    7.8360  -17.3163   20.8853 C   0  0  0  0  0  0  0  0  0  0  0  0
    8.9903  -17.5156   21.3539 O   0  0  0  0  0  0  0  0  0  0  0  0
    6.5241  -13.1744   20.7155 C   0  0  0  0  0  0  0  0  0  0  0  0
    7.8483  -13.6145   20.1613 C   0  0  1  0  0  0  0  0  0  0  0  0
    8.8096  -12.4312   20.3572 C   0  0  0  0  0  0  0  0  0  0  0  0
    8.4176  -14.8625   20.7676 C   0  0  2  0  0  0  0  0  0  0  0  0
    7.4769  -15.9808   20.6116 N   0  0  0  0  0  0  0  0  0  0  0  0
    8.7676  -14.6900   22.1962 C   0  0  0  0  0  0  0  0  0  0  0  0
    9.8185  -14.0179   22.5161 O   0  0  0  0  0  0  0  0  0  0  0  0
    6.6958  -12.4197   27.1653 C   0  0  0  0  0  0  0  0  0  0  0  0
    7.6430  -13.5068   26.7066 C   0  0  0  0  0  0  0  0  0  0  0  0
    7.3389  -13.9438   25.3030 C   0  0  2  0  0  0  0  0  0  0  0  0
    5.9764  -14.5800   25.1788 C   0  0  0  0  0  0  0  0  0  0  0  0
    8.3957  -14.7994   24.6829 C   0  0  2  0  0  0  0  0  0  0  0  0
    8.0645  -15.1881   23.3075 N   0  0  0  0  0  0  0  0  0  0  0  0
    8.6361  -16.0447   25.4379 C   0  0  0  0  0  0  0  0  0  0  0  0
    8.1636  -17.1252   25.0087 O   0  0  0  0  0  0  0  0  0  0  0  0
    9.3707  -16.0824   26.6194 O   0  0  0  0  0  0  0  0  0  0  0  0
  1  2  1  0
  3  2  1  0
  4  3  1  0
  5  6  1  1
  5  4  1  0
  7  5  1  0
  8  7  2  0
 10  9  1  1
 10 12  1  0
 11 10  1  0
 12 14  1  0
 12 13  1  1
 13  7  1  0
 14 15  2  0
 16 17  1  0
 18 17  1  0
 18 19  1  1
 18 20  1  0
 20 22  1  0
 20 21  1  6
 21 14  1  0
 22 23  2  0
 22 24  1  0
M  END
$$$$
