MVI.pdb
     RDKit          3D

 24 23  0  0  1  0  0  0  0  0999 V2000
    7.5398  -20.4430   21.7735 C   0  0  0  0  0  0  0  0  0  0  0  0
    8.2263  -20.0200   20.1694 S   0  0  0  0  0  0  0  0  0  0  0  0
    8.0866  -18.2839   19.7711 C   0  0  0  0  0  0  0  0  0  0  0  0
    8.4673  -17.4501   20.9391 C   0  0  0  0  0  0  0  0  0  0  0  0
    8.2594  -15.9842   20.8309 C   0  0  2  0  0  0  0  0  0  0  0  0
    8.9105  -15.3248   19.7386 N   0  0  0  0  0  0  0  0  0  0  0  0
    8.6517  -15.2777   22.0929 C   0  0  0  0  0  0  0  0  0  0  0  0
    9.8341  -14.8852   22.2913 O   0  0  0  0  0  0  0  0  0  0  0  0
    5.8727  -14.7235   25.5733 C   0  0  0  0  0  0  0  0  0  0  0  0
    6.8510  -13.7405   24.9981 C   0  0  1  0  0  0  0  0  0  0  0  0
    7.2469  -12.8048   26.1515 C   0  0  0  0  0  0  0  0  0  0  0  0
    8.0702  -14.3411   24.3640 C   0  0  2  0  0  0  0  0  0  0  0  0
    7.7115  -15.0214   23.1116 N   0  0  0  0  0  0  0  0  0  0  0  0
    8.7748  -15.2798   25.2670 C   0  0  0  0  0  0  0  0  0  0  0  0
    8.5829  -16.5470   25.1413 O   0  0  0  0  0  0  0  0  0  0  0  0
   11.0372  -13.9687   30.3564 C   0  0  0  0  0  0  0  0  0  0  0  0
   10.2058  -14.5486   29.2331 C   0  0  0  0  0  0  0  0  0  0  0  0
   11.0438  -15.3714   28.2980 C   0  0  2  0  0  0  0  0  0  0  0  0
   12.2655  -14.6302   27.8138 C   0  0  0  0  0  0  0  0  0  0  0  0
   10.2852  -15.9701   27.1580 C   0  0  2  0  0  0  0  0  0  0  0  0
    9.6751  -14.9516   26.2961 N   0  0  0  0  0  0  0  0  0  0  0  0
    9.1998  -16.8656   27.6038 C   0  0  0  0  0  0  0  0  0  0  0  0
    9.4869  -17.9919   28.0769 O   0  0  0  0  0  0  0  0  0  0  0  0
    7.8541  -16.5196   27.5246 O   0  0  0  0  0  0  0  0  0  0  0  0
  1  2  1  0
  3  2  1  0
  4  3  1  0
  5  6  1  6
  5  4  1  0
  7  5  1  0
  8  7  2  0
 10  9  1  1
 10 12  1  0
 11 10  1  0
 12 14  1  0
 12 13  1  6
 13  7  1  0
 14 15  2  0
 16 17  1  0
 18 17  1  0
 18 19  1  6
 18 20  1  0
 20 22  1  0
 20 21  1  1
 21 14  1  0
 22 23  2  0
 22 24  1  0
M  END
$$$$
