MVI.pdb
     RDKit          3D

 24 23  0  0  1  0  0  0  0  0999 V2000
    6.1341  -19.9958   28.0389 C   0  0  0  0  0  0  0  0  0  0  0  0
    7.3976  -18.8447   27.4895 S   0  0  0  0  0  0  0  0  0  0  0  0
    8.2556  -19.3798   26.0165 C   0  0  0  0  0  0  0  0  0  0  0  0
    7.3155  -20.0460   25.0802 C   0  0  0  0  0  0  0  0  0  0  0  0
    6.5920  -19.1869   24.1095 C   0  0  2  0  0  0  0  0  0  0  0  0
    5.8148  -19.8618   23.1133 N   0  0  0  0  0  0  0  0  0  0  0  0
    7.5227  -18.2464   23.4058 C   0  0  0  0  0  0  0  0  0  0  0  0
    8.7721  -18.4212   23.4155 O   0  0  0  0  0  0  0  0  0  0  0  0
    5.7199  -15.4907   21.0470 C   0  0  0  0  0  0  0  0  0  0  0  0
    7.2096  -15.3083   21.0867 C   0  0  1  0  0  0  0  0  0  0  0  0
    7.4522  -13.8036   21.2852 C   0  0  0  0  0  0  0  0  0  0  0  0
    7.9278  -16.1014   22.1377 C   0  0  2  0  0  0  0  0  0  0  0  0
    7.0374  -17.1259   22.7013 N   0  0  0  0  0  0  0  0  0  0  0  0
    8.4686  -15.2485   23.2207 C   0  0  0  0  0  0  0  0  0  0  0  0
    9.3417  -14.3440   22.9411 O   0  0  0  0  0  0  0  0  0  0  0  0
    6.7961  -11.3048   27.1890 C   0  0  0  0  0  0  0  0  0  0  0  0
    7.9340  -12.2507   26.8735 C   0  0  0  0  0  0  0  0  0  0  0  0
    7.5169  -13.3013   25.8857 C   0  0  2  0  0  0  0  0  0  0  0  0
    6.2440  -14.0024   26.2916 C   0  0  0  0  0  0  0  0  0  0  0  0
    8.5905  -14.2823   25.5414 C   0  0  2  0  0  0  0  0  0  0  0  0
    8.1344  -15.2977   24.5858 N   0  0  0  0  0  0  0  0  0  0  0  0
    9.1054  -15.0014   26.7231 C   0  0  0  0  0  0  0  0  0  0  0  0
    8.8367  -16.2187   26.8678 O   0  0  0  0  0  0  0  0  0  0  0  0
    9.8851  -14.3891   27.7000 O   0  0  0  0  0  0  0  0  0  0  0  0
  1  2  1  0
  3  2  1  0
  4  3  1  0
  5  6  1  6
  5  4  1  0
  7  5  1  0
  8  7  2  0
 10  9  1  1
 10 12  1  0
 11 10  1  0
 12 14  1  0
 12 13  1  1
 13  7  1  0
 14 15  2  0
 16 17  1  0
 18 17  1  0
 18 19  1  1
 18 20  1  0
 20 22  1  0
 20 21  1  6
 21 14  1  0
 22 23  2  0
 22 24  1  0
M  END
$$$$
