MVI.pdb
     RDKit          3D

 24 23  0  0  1  0  0  0  0  0999 V2000
    7.7434  -12.2195   26.5051 C   0  0  0  0  0  0  0  0  0  0  0  0
    7.2821  -12.1906   24.7702 S   0  0  0  0  0  0  0  0  0  0  0  0
    6.2300  -13.5528   24.2909 C   0  0  0  0  0  0  0  0  0  0  0  0
    6.2610  -13.7407   22.8185 C   0  0  0  0  0  0  0  0  0  0  0  0
    7.5435  -14.1757   22.2105 C   0  0  2  0  0  0  0  0  0  0  0  0
    7.5429  -14.3782   20.7924 N   0  0  0  0  0  0  0  0  0  0  0  0
    8.0609  -15.4271   22.8524 C   0  0  0  0  0  0  0  0  0  0  0  0
    7.2814  -16.3052   23.3137 O   0  0  0  0  0  0  0  0  0  0  0  0
   12.0307  -16.8562   22.1371 C   0  0  0  0  0  0  0  0  0  0  0  0
   10.8729  -17.6307   22.6972 C   0  0  1  0  0  0  0  0  0  0  0  0
   11.4774  -18.8546   23.4038 C   0  0  0  0  0  0  0  0  0  0  0  0
    9.9806  -16.8694   23.6319 C   0  0  2  0  0  0  0  0  0  0  0  0
    9.4442  -15.6744   22.9655 N   0  0  0  0  0  0  0  0  0  0  0  0
   10.6689  -16.4849   24.8854 C   0  0  0  0  0  0  0  0  0  0  0  0
   11.7422  -15.7754   24.8289 O   0  0  0  0  0  0  0  0  0  0  0  0
    9.2792  -13.1773   28.3375 C   0  0  0  0  0  0  0  0  0  0  0  0
    9.9947  -14.1653   27.4424 C   0  0  0  0  0  0  0  0  0  0  0  0
   10.4206  -15.3872   28.2034 C   0  0  2  0  0  0  0  0  0  0  0  0
   11.2476  -15.0508   29.4197 C   0  0  0  0  0  0  0  0  0  0  0  0
   11.0861  -16.4316   27.3668 C   0  0  2  0  0  0  0  0  0  0  0  0
   10.2825  -16.8077   26.1984 N   0  0  0  0  0  0  0  0  0  0  0  0
   11.3634  -17.6717   28.1178 C   0  0  0  0  0  0  0  0  0  0  0  0
   10.4860  -18.5673   28.1719 O   0  0  0  0  0  0  0  0  0  0  0  0
   12.5660  -17.9016   28.7795 O   0  0  0  0  0  0  0  0  0  0  0  0
  1  2  1  0
  3  2  1  0
  4  3  1  0
  5  6  1  6
  5  4  1  0
  7  5  1  0
  8  7  2  0
 10  9  1  1
 10 12  1  0
 11 10  1  0
 12 14  1  0
 12 13  1  6
 13  7  1  0
 14 15  2  0
 16 17  1  0
 18 17  1  0
 18 19  1  1
 18 20  1  0
 20 22  1  0
 20 21  1  6
 21 14  1  0
 22 23  2  0
 22 24  1  0
M  END
$$$$
