MVI.pdb
     RDKit          3D

 24 23  0  0  1  0  0  0  0  0999 V2000
   14.8582  -18.4479   23.0466 C   0  0  0  0  0  0  0  0  0  0  0  0
   14.2588  -19.8301   22.0701 S   0  0  0  0  0  0  0  0  0  0  0  0
   13.0382  -19.3642   20.8515 C   0  0  0  0  0  0  0  0  0  0  0  0
   12.3131  -18.1424   21.2825 C   0  0  0  0  0  0  0  0  0  0  0  0
   11.2939  -17.5882   20.3562 C   0  0  2  0  0  0  0  0  0  0  0  0
   11.7468  -17.2359   19.0437 N   0  0  0  0  0  0  0  0  0  0  0  0
   10.6101  -16.3905   20.9424 C   0  0  0  0  0  0  0  0  0  0  0  0
   11.1126  -15.2361   20.8616 O   0  0  0  0  0  0  0  0  0  0  0  0
    7.2841  -15.0956   19.9727 C   0  0  0  0  0  0  0  0  0  0  0  0
    7.2803  -15.2655   21.4645 C   0  0  1  0  0  0  0  0  0  0  0  0
    6.4769  -16.5448   21.7482 C   0  0  0  0  0  0  0  0  0  0  0  0
    8.6331  -15.3387   22.1078 C   0  0  2  0  0  0  0  0  0  0  0  0
    9.3731  -16.5063   21.6086 N   0  0  0  0  0  0  0  0  0  0  0  0
    8.5562  -15.3814   23.5861 C   0  0  0  0  0  0  0  0  0  0  0  0
    9.0776  -16.3732   24.2209 O   0  0  0  0  0  0  0  0  0  0  0  0
    5.5759  -11.7686   27.0228 C   0  0  0  0  0  0  0  0  0  0  0  0
    6.0405  -12.9736   26.2346 C   0  0  0  0  0  0  0  0  0  0  0  0
    7.4524  -13.3465   26.5828 C   0  0  2  0  0  0  0  0  0  0  0  0
    8.4118  -12.1942   26.4153 C   0  0  0  0  0  0  0  0  0  0  0  0
    7.9524  -14.5737   25.8919 C   0  0  2  0  0  0  0  0  0  0  0  0
    7.9594  -14.4297   24.4319 N   0  0  0  0  0  0  0  0  0  0  0  0
    7.1478  -15.7710   26.2042 C   0  0  0  0  0  0  0  0  0  0  0  0
    6.3251  -16.1972   25.3577 O   0  0  0  0  0  0  0  0  0  0  0  0
    7.2561  -16.4616   27.4077 O   0  0  0  0  0  0  0  0  0  0  0  0
  1  2  1  0
  3  2  1  0
  4  3  1  0
  5  6  1  6
  5  4  1  0
  7  5  1  0
  8  7  2  0
 10  9  1  6
 10 12  1  0
 11 10  1  0
 12 14  1  0
 12 13  1  6
 13  7  1  0
 14 15  2  0
 16 17  1  0
 18 17  1  0
 18 19  1  6
 18 20  1  0
 20 22  1  0
 20 21  1  6
 21 14  1  0
 22 23  2  0
 22 24  1  0
M  END
$$$$
