MVI.pdb
     RDKit          3D

 24 23  0  0  1  0  0  0  0  0999 V2000
    5.4443  -13.9042   26.7695 C   0  0  0  0  0  0  0  0  0  0  0  0
    6.0395  -15.1489   25.6206 S   0  0  0  0  0  0  0  0  0  0  0  0
    6.3324  -16.7383   26.3822 C   0  0  0  0  0  0  0  0  0  0  0  0
    5.8957  -17.8349   25.4816 C   0  0  0  0  0  0  0  0  0  0  0  0
    5.7754  -17.5258   24.0346 C   0  0  2  0  0  0  0  0  0  0  0  0
    5.1329  -18.5141   23.2208 N   0  0  0  0  0  0  0  0  0  0  0  0
    7.1100  -17.2248   23.4230 C   0  0  0  0  0  0  0  0  0  0  0  0
    8.0047  -18.1082   23.3192 O   0  0  0  0  0  0  0  0  0  0  0  0
    7.5037  -14.3435   20.5336 C   0  0  0  0  0  0  0  0  0  0  0  0
    8.6323  -14.3658   21.5235 C   0  0  1  0  0  0  0  0  0  0  0  0
    8.4467  -13.1264   22.4135 C   0  0  0  0  0  0  0  0  0  0  0  0
    8.7303  -15.6063   22.3607 C   0  0  2  0  0  0  0  0  0  0  0  0
    7.4193  -15.9384   22.9363 N   0  0  0  0  0  0  0  0  0  0  0  0
    9.7405  -15.4857   23.4367 C   0  0  0  0  0  0  0  0  0  0  0  0
   10.8763  -14.9345   23.1829 O   0  0  0  0  0  0  0  0  0  0  0  0
   10.8529  -13.2582   28.7498 C   0  0  0  0  0  0  0  0  0  0  0  0
   11.3307  -14.3134   27.7763 C   0  0  0  0  0  0  0  0  0  0  0  0
   10.3413  -14.5260   26.6676 C   0  0  2  0  0  0  0  0  0  0  0  0
    8.9199  -14.5986   27.1683 C   0  0  0  0  0  0  0  0  0  0  0  0
   10.6604  -15.6786   25.7714 C   0  0  2  0  0  0  0  0  0  0  0  0
    9.6144  -15.9145   24.7701 N   0  0  0  0  0  0  0  0  0  0  0  0
   10.8427  -16.9424   26.5118 C   0  0  0  0  0  0  0  0  0  0  0  0
    9.9746  -17.8434   26.4139 O   0  0  0  0  0  0  0  0  0  0  0  0
   11.9444  -17.1894   27.3256 O   0  0  0  0  0  0  0  0  0  0  0  0
  1  2  1  0
  3  2  1  0
  4  3  1  0
  5  6  1  6
  5  4  1  0
  7  5  1  0
  8  7  2  0
 10  9  1  6
 10 12  1  0
 11 10  1  0
 12 14  1  0
 12 13  1  1
 13  7  1  0
 14 15  2  0
 16 17  1  0
 18 17  1  0
 18 19  1  1
 18 20  1  0
 20 22  1  0
 20 21  1  6
 21 14  1  0
 22 23  2  0
 22 24  1  0
M  END
$$$$
