MVI.pdb
     RDKit          3D

 24 23  0  0  1  0  0  0  0  0999 V2000
    5.7583  -11.6769   26.3361 C   0  0  0  0  0  0  0  0  0  0  0  0
    5.0065  -12.7879   27.5294 S   0  0  0  0  0  0  0  0  0  0  0  0
    4.6868  -14.4208   26.8783 C   0  0  0  0  0  0  0  0  0  0  0  0
    5.8980  -14.9606   26.2104 C   0  0  0  0  0  0  0  0  0  0  0  0
    5.7222  -16.1329   25.3167 C   0  0  2  0  0  0  0  0  0  0  0  0
    5.3123  -17.3560   25.9395 N   0  0  0  0  0  0  0  0  0  0  0  0
    6.9641  -16.4141   24.5265 C   0  0  0  0  0  0  0  0  0  0  0  0
    7.6342  -17.4689   24.7001 O   0  0  0  0  0  0  0  0  0  0  0  0
    7.4544  -14.6649   20.7532 C   0  0  0  0  0  0  0  0  0  0  0  0
    8.6932  -14.8004   21.5906 C   0  0  1  0  0  0  0  0  0  0  0  0
    9.0004  -13.3950   22.1321 C   0  0  0  0  0  0  0  0  0  0  0  0
    8.6065  -15.7908   22.7135 C   0  0  2  0  0  0  0  0  0  0  0  0
    7.4339  -15.5088   23.5534 N   0  0  0  0  0  0  0  0  0  0  0  0
    9.8317  -15.8139   23.5448 C   0  0  0  0  0  0  0  0  0  0  0  0
   10.9715  -15.5555   23.0039 O   0  0  0  0  0  0  0  0  0  0  0  0
   10.4670  -14.1514   28.8821 C   0  0  0  0  0  0  0  0  0  0  0  0
   10.2738  -15.1987   27.8075 C   0  0  0  0  0  0  0  0  0  0  0  0
   11.2566  -15.0231   26.6865 C   0  0  2  0  0  0  0  0  0  0  0  0
   11.1886  -13.6481   26.0691 C   0  0  0  0  0  0  0  0  0  0  0  0
   11.1952  -16.0903   25.6421 C   0  0  2  0  0  0  0  0  0  0  0  0
    9.9179  -16.0934   24.9203 N   0  0  0  0  0  0  0  0  0  0  0  0
   11.3796  -17.4445   26.1998 C   0  0  0  0  0  0  0  0  0  0  0  0
   10.4237  -18.2571   26.1707 O   0  0  0  0  0  0  0  0  0  0  0  0
   12.5771  -17.8723   26.7654 O   0  0  0  0  0  0  0  0  0  0  0  0
  1  2  1  0
  3  2  1  0
  4  3  1  0
  5  6  1  1
  5  4  1  0
  7  5  1  0
  8  7  2  0
 10  9  1  1
 10 12  1  0
 11 10  1  0
 12 14  1  0
 12 13  1  1
 13  7  1  0
 14 15  2  0
 16 17  1  0
 18 17  1  0
 18 19  1  6
 18 20  1  0
 20 22  1  0
 20 21  1  1
 21 14  1  0
 22 23  2  0
 22 24  1  0
M  END
$$$$
