MVI.pdb
     RDKit          3D

 24 23  0  0  1  0  0  0  0  0999 V2000
    6.4197  -20.7445   26.7996 C   0  0  0  0  0  0  0  0  0  0  0  0
    5.9676  -21.3384   25.1667 S   0  0  0  0  0  0  0  0  0  0  0  0
    5.7505  -20.0307   23.9688 C   0  0  0  0  0  0  0  0  0  0  0  0
    6.4873  -18.8124   24.3896 C   0  0  0  0  0  0  0  0  0  0  0  0
    6.4401  -17.6366   23.4845 C   0  0  2  0  0  0  0  0  0  0  0  0
    6.7263  -17.8815   22.1025 N   0  0  0  0  0  0  0  0  0  0  0  0
    7.3502  -16.5428   23.9546 C   0  0  0  0  0  0  0  0  0  0  0  0
    8.5403  -16.4510   23.5464 O   0  0  0  0  0  0  0  0  0  0  0  0
    6.4947  -12.6946   24.2789 C   0  0  0  0  0  0  0  0  0  0  0  0
    7.0818  -13.2336   25.5513 C   0  0  1  0  0  0  0  0  0  0  0  0
    5.9144  -13.3572   26.5435 C   0  0  0  0  0  0  0  0  0  0  0  0
    7.8059  -14.5408   25.4235 C   0  0  2  0  0  0  0  0  0  0  0  0
    6.9106  -15.5686   24.8739 N   0  0  0  0  0  0  0  0  0  0  0  0
    8.3766  -15.0009   26.7101 C   0  0  0  0  0  0  0  0  0  0  0  0
    7.6700  -15.7446   27.4887 O   0  0  0  0  0  0  0  0  0  0  0  0
   13.7410  -17.5169   27.1872 C   0  0  0  0  0  0  0  0  0  0  0  0
   12.5258  -17.1130   27.9931 C   0  0  0  0  0  0  0  0  0  0  0  0
   11.6971  -16.0953   27.2645 C   0  0  2  0  0  0  0  0  0  0  0  0
   12.4959  -14.8790   26.8655 C   0  0  0  0  0  0  0  0  0  0  0  0
   10.4371  -15.7096   27.9695 C   0  0  2  0  0  0  0  0  0  0  0  0
    9.6570  -14.7195   27.2188 N   0  0  0  0  0  0  0  0  0  0  0  0
   10.6850  -15.1395   29.3082 C   0  0  0  0  0  0  0  0  0  0  0  0
   11.2844  -15.8288   30.1689 O   0  0  0  0  0  0  0  0  0  0  0  0
   10.2816  -13.8577   29.6704 O   0  0  0  0  0  0  0  0  0  0  0  0
  1  2  1  0
  3  2  1  0
  4  3  1  0
  5  6  1  6
  5  4  1  0
  7  5  1  0
  8  7  2  0
 10  9  1  6
 10 12  1  0
 11 10  1  0
 12 14  1  0
 12 13  1  1
 13  7  1  0
 14 15  2  0
 16 17  1  0
 18 17  1  0
 18 19  1  1
 18 20  1  0
 20 22  1  0
 20 21  1  6
 21 14  1  0
 22 23  2  0
 22 24  1  0
M  END
$$$$
