MVI.pdb
     RDKit          3D

 24 23  0  0  1  0  0  0  0  0999 V2000
   14.7795  -18.0855   22.7008 C   0  0  0  0  0  0  0  0  0  0  0  0
   14.9600  -17.7661   20.9433 S   0  0  0  0  0  0  0  0  0  0  0  0
   13.4957  -18.1532   19.9957 C   0  0  0  0  0  0  0  0  0  0  0  0
   12.3353  -17.3685   20.4878 C   0  0  0  0  0  0  0  0  0  0  0  0
   11.0189  -17.6187   19.8489 C   0  0  2  0  0  0  0  0  0  0  0  0
   10.9128  -17.2993   18.4565 N   0  0  0  0  0  0  0  0  0  0  0  0
    9.9134  -16.9072   20.5683 C   0  0  0  0  0  0  0  0  0  0  0  0
    9.4634  -15.8011   20.1613 O   0  0  0  0  0  0  0  0  0  0  0  0
    7.4133  -19.0838   23.2847 C   0  0  0  0  0  0  0  0  0  0  0  0
    7.0606  -17.8313   22.5355 C   0  0  1  0  0  0  0  0  0  0  0  0
    5.8661  -17.2102   23.2771 C   0  0  0  0  0  0  0  0  0  0  0  0
    8.1700  -16.8323   22.3926 C   0  0  2  0  0  0  0  0  0  0  0  0
    9.3294  -17.4481   21.7317 N   0  0  0  0  0  0  0  0  0  0  0  0
    8.5777  -16.2482   23.6909 C   0  0  0  0  0  0  0  0  0  0  0  0
    9.5424  -16.7848   24.3539 O   0  0  0  0  0  0  0  0  0  0  0  0
    6.0252  -11.9112   26.7504 C   0  0  0  0  0  0  0  0  0  0  0  0
    6.4639  -13.2831   26.2869 C   0  0  0  0  0  0  0  0  0  0  0  0
    7.9367  -13.3206   25.9993 C   0  0  2  0  0  0  0  0  0  0  0  0
    8.3510  -12.2946   24.9736 C   0  0  0  0  0  0  0  0  0  0  0  0
    8.4612  -14.6764   25.6530 C   0  0  2  0  0  0  0  0  0  0  0  0
    8.0218  -15.1238   24.3267 N   0  0  0  0  0  0  0  0  0  0  0  0
    8.0444  -15.7122   26.6185 C   0  0  0  0  0  0  0  0  0  0  0  0
    7.0695  -16.4530   26.3432 O   0  0  0  0  0  0  0  0  0  0  0  0
    8.6865  -15.9119   27.8370 O   0  0  0  0  0  0  0  0  0  0  0  0
  1  2  1  0
  3  2  1  0
  4  3  1  0
  5  6  1  6
  5  4  1  0
  7  5  1  0
  8  7  2  0
 10  9  1  1
 10 12  1  0
 11 10  1  0
 12 14  1  0
 12 13  1  1
 13  7  1  0
 14 15  2  0
 16 17  1  0
 18 17  1  0
 18 19  1  6
 18 20  1  0
 20 22  1  0
 20 21  1  6
 21 14  1  0
 22 23  2  0
 22 24  1  0
M  END
$$$$
