LEY.pdb
     RDKit          3D

 30 30  0  0  1  0  0  0  0  0999 V2000
    7.6837  -11.5712   20.8901 C   0  0  0  0  0  0  0  0  0  0  0  0
    7.6927  -13.0092   20.3698 C   0  0  1  0  0  0  0  0  0  0  0  0
    8.8035  -13.0530   19.3058 C   0  0  0  0  0  0  0  0  0  0  0  0
    8.1062  -13.8903   21.5417 C   0  0  0  0  0  0  0  0  0  0  0  0
    8.0725  -15.3645   21.2020 C   0  0  2  0  0  0  0  0  0  0  0  0
    6.6611  -15.7473   20.9957 N   0  0  0  0  0  0  0  0  0  0  0  0
    8.5841  -16.2368   22.2612 C   0  0  0  0  0  0  0  0  0  0  0  0
    7.8378  -16.7863   23.1062 O   0  0  0  0  0  0  0  0  0  0  0  0
    9.9973  -16.5012   22.3692 N   0  0  0  0  0  0  0  0  0  0  0  0
   10.5477  -17.3627   23.3950 C   0  0  1  0  0  0  0  0  0  0  0  0
   11.9736  -17.7794   23.0501 C   0  0  0  0  0  0  0  0  0  0  0  0
   12.5158  -18.7335   24.0996 C   0  0  0  0  0  0  0  0  0  0  0  0
   13.8526  -19.1841   23.5667 C   0  0  0  0  0  0  0  0  0  0  0  0
   14.1721  -20.4043   23.5704 O   0  0  0  0  0  0  0  0  0  0  0  0
   10.6339  -16.6135   24.6605 C   0  0  0  0  0  0  0  0  0  0  0  0
   11.2084  -15.5082   24.6878 O   0  0  0  0  0  0  0  0  0  0  0  0
   14.7757  -18.2591   23.0505 O   0  0  0  0  0  0  0  0  0  0  0  0
    6.0914  -12.0084   24.8241 O   0  0  0  0  0  0  0  0  0  0  0  0
    6.7416  -13.0318   25.5009 C   0  0  0  0  0  0  0  0  0  0  0  0
    6.2972  -14.3362   25.3876 C   0  0  0  0  0  0  0  0  0  0  0  0
    6.9359  -15.3703   26.0563 C   0  0  0  0  0  0  0  0  0  0  0  0
    8.0272  -15.0882   26.8427 C   0  0  0  0  0  0  0  0  0  0  0  0
    8.7242  -16.1452   27.5621 C   0  0  0  0  0  0  0  0  0  0  0  0
   10.1261  -16.4157   27.1196 C   0  0  2  0  0  0  0  0  0  0  0  0
   10.0715  -17.1330   25.8568 N   0  0  0  0  0  0  0  0  0  0  0  0
   10.8741  -17.2765   28.0694 C   0  0  0  0  0  0  0  0  0  0  0  0
   11.2547  -18.4578   27.7942 O   0  0  0  0  0  0  0  0  0  0  0  0
    8.5037  -13.7834   26.9795 C   0  0  0  0  0  0  0  0  0  0  0  0
    7.8390  -12.7588   26.2928 C   0  0  0  0  0  0  0  0  0  0  0  0
   11.2113  -16.8409   29.3428 O   0  0  0  0  0  0  0  0  0  0  0  0
  2  3  1  6
  2  1  1  0
  4  2  1  0
  5  7  1  0
  5  4  1  0
  5  6  1  1
  7  8  2  0
  9 10  1  0
  9  7  1  0
 10 11  1  6
 12 11  1  0
 13 12  1  0
 13 17  1  0
 14 13  2  0
 15 16  2  0
 15 10  1  0
 19 20  2  0
 19 18  1  0
 21 20  1  0
 22 21  2  0
 23 22  1  0
 24 23  1  1
 24 25  1  0
 25 15  1  0
 26 24  1  0
 26 30  1  0
 27 26  2  0
 28 22  1  0
 28 29  2  0
 29 19  1  0
M  END
$$$$
