LEY.pdb
     RDKit          3D

 30 30  0  0  1  0  0  0  0  0999 V2000
    7.6311  -11.9851   19.8551 C   0  0  0  0  0  0  0  0  0  0  0  0
    8.0107  -13.4114   19.4550 C   0  0  1  0  0  0  0  0  0  0  0  0
    9.3657  -13.2884   18.7361 C   0  0  0  0  0  0  0  0  0  0  0  0
    8.2160  -14.1840   20.7518 C   0  0  0  0  0  0  0  0  0  0  0  0
    8.7042  -15.5969   20.5167 C   0  0  2  0  0  0  0  0  0  0  0  0
    7.6017  -16.3566   19.8932 N   0  0  0  0  0  0  0  0  0  0  0  0
    9.0614  -16.3201   21.7390 C   0  0  0  0  0  0  0  0  0  0  0  0
    8.2051  -16.8385   22.4947 O   0  0  0  0  0  0  0  0  0  0  0  0
   10.4436  -16.4658   22.1226 N   0  0  0  0  0  0  0  0  0  0  0  0
   10.8487  -17.2333   23.2820 C   0  0  1  0  0  0  0  0  0  0  0  0
   12.1574  -17.9704   23.0181 C   0  0  0  0  0  0  0  0  0  0  0  0
   12.5545  -18.7959   24.2292 C   0  0  0  0  0  0  0  0  0  0  0  0
   13.8018  -19.5326   23.8098 C   0  0  0  0  0  0  0  0  0  0  0  0
   14.7362  -19.7414   24.6309 O   0  0  0  0  0  0  0  0  0  0  0  0
   11.1143  -16.3137   24.4019 C   0  0  0  0  0  0  0  0  0  0  0  0
   11.7944  -15.2870   24.2120 O   0  0  0  0  0  0  0  0  0  0  0  0
   13.9555  -20.0073   22.4964 O   0  0  0  0  0  0  0  0  0  0  0  0
    5.1445  -13.3806   26.4278 O   0  0  0  0  0  0  0  0  0  0  0  0
    6.5088  -13.6317   26.4890 C   0  0  0  0  0  0  0  0  0  0  0  0
    7.3266  -12.8543   27.2882 C   0  0  0  0  0  0  0  0  0  0  0  0
    8.6913  -13.0924   27.3612 C   0  0  0  0  0  0  0  0  0  0  0  0
    9.2341  -14.1185   26.6253 C   0  0  0  0  0  0  0  0  0  0  0  0
   10.6620  -14.3996   26.6733 C   0  0  0  0  0  0  0  0  0  0  0  0
   11.0346  -15.8333   26.8731 C   0  0  2  0  0  0  0  0  0  0  0  0
   10.6069  -16.5794   25.7016 N   0  0  0  0  0  0  0  0  0  0  0  0
   10.3577  -16.4469   28.0426 C   0  0  0  0  0  0  0  0  0  0  0  0
   10.4463  -15.9874   29.2245 O   0  0  0  0  0  0  0  0  0  0  0  0
    8.4386  -14.9238   25.8086 C   0  0  0  0  0  0  0  0  0  0  0  0
    7.0635  -14.6604   25.7540 C   0  0  0  0  0  0  0  0  0  0  0  0
    9.5710  -17.5833   27.9202 O   0  0  0  0  0  0  0  0  0  0  0  0
  2  3  1  1
  2  1  1  0
  4  2  1  0
  5  7  1  0
  5  4  1  0
  5  6  1  1
  7  8  2  0
  9 10  1  0
  9  7  1  0
 10 11  1  6
 12 11  1  0
 13 12  1  0
 13 17  1  0
 14 13  2  0
 15 16  2  0
 15 10  1  0
 19 20  2  0
 19 18  1  0
 21 20  1  0
 22 21  2  0
 23 22  1  0
 24 23  1  6
 24 25  1  0
 25 15  1  0
 26 24  1  0
 26 30  1  0
 27 26  2  0
 28 22  1  0
 28 29  2  0
 29 19  1  0
M  END
$$$$
