LEY.pdb
     RDKit          3D

 30 30  0  0  1  0  0  0  0  0999 V2000
    7.3945  -12.2268   20.0113 C   0  0  0  0  0  0  0  0  0  0  0  0
    7.6048  -13.5618   19.2956 C   0  0  1  0  0  0  0  0  0  0  0  0
    8.4924  -13.2399   18.0805 C   0  0  0  0  0  0  0  0  0  0  0  0
    8.3930  -14.4462   20.2534 C   0  0  0  0  0  0  0  0  0  0  0  0
    8.7752  -15.7748   19.6381 C   0  0  2  0  0  0  0  0  0  0  0  0
    7.5281  -16.4923   19.3046 N   0  0  0  0  0  0  0  0  0  0  0  0
    9.5295  -16.6560   20.5322 C   0  0  0  0  0  0  0  0  0  0  0  0
    8.9954  -17.2740   21.4838 O   0  0  0  0  0  0  0  0  0  0  0  0
   10.9456  -16.8487   20.3420 N   0  0  0  0  0  0  0  0  0  0  0  0
   11.7451  -17.6546   21.2413 C   0  0  1  0  0  0  0  0  0  0  0  0
   13.1439  -17.8776   20.6764 C   0  0  0  0  0  0  0  0  0  0  0  0
   13.1032  -18.8877   19.5432 C   0  0  0  0  0  0  0  0  0  0  0  0
   14.4841  -18.8539   18.9381 C   0  0  0  0  0  0  0  0  0  0  0  0
   14.7896  -17.9890   18.0723 O   0  0  0  0  0  0  0  0  0  0  0  0
   11.9260  -16.9280   22.5101 C   0  0  0  0  0  0  0  0  0  0  0  0
   12.0180  -15.6854   22.5043 O   0  0  0  0  0  0  0  0  0  0  0  0
   15.4665  -19.7816   19.3233 O   0  0  0  0  0  0  0  0  0  0  0  0
    9.7347  -13.7994   30.1319 O   0  0  0  0  0  0  0  0  0  0  0  0
    9.9722  -14.3909   28.8982 C   0  0  0  0  0  0  0  0  0  0  0  0
    9.2169  -15.4733   28.4860 C   0  0  0  0  0  0  0  0  0  0  0  0
    9.4408  -16.0751   27.2563 C   0  0  0  0  0  0  0  0  0  0  0  0
   10.4304  -15.5838   26.4387 C   0  0  0  0  0  0  0  0  0  0  0  0
   10.6976  -16.1885   25.1413 C   0  0  0  0  0  0  0  0  0  0  0  0
   11.9854  -16.9389   25.0281 C   0  0  2  0  0  0  0  0  0  0  0  0
   11.9990  -17.6236   23.7463 N   0  0  0  0  0  0  0  0  0  0  0  0
   12.1382  -17.9819   26.0728 C   0  0  0  0  0  0  0  0  0  0  0  0
   11.6342  -19.1453   25.9806 O   0  0  0  0  0  0  0  0  0  0  0  0
   11.2115  -14.4924   26.8222 C   0  0  0  0  0  0  0  0  0  0  0  0
   10.9635  -13.9045   28.0695 C   0  0  0  0  0  0  0  0  0  0  0  0
   12.8527  -17.7507   27.2394 O   0  0  0  0  0  0  0  0  0  0  0  0
  2  3  1  6
  2  1  1  0
  4  2  1  0
  5  7  1  0
  5  4  1  0
  5  6  1  1
  7  8  2  0
  9 10  1  0
  9  7  1  0
 10 11  1  6
 12 11  1  0
 13 12  1  0
 13 17  1  0
 14 13  2  0
 15 16  2  0
 15 10  1  0
 19 20  2  0
 19 18  1  0
 21 20  1  0
 22 21  2  0
 23 22  1  0
 24 23  1  1
 24 25  1  0
 25 15  1  0
 26 24  1  0
 26 30  1  0
 27 26  2  0
 28 22  1  0
 28 29  2  0
 29 19  1  0
M  END
$$$$
