LEY.pdb
     RDKit          3D

 30 30  0  0  1  0  0  0  0  0999 V2000
    6.7666  -12.5170   19.3399 C   0  0  0  0  0  0  0  0  0  0  0  0
    8.0272  -13.3794   19.2644 C   0  0  1  0  0  0  0  0  0  0  0  0
    9.2027  -12.3864   19.2502 C   0  0  0  0  0  0  0  0  0  0  0  0
    8.0817  -14.1797   20.5595 C   0  0  0  0  0  0  0  0  0  0  0  0
    9.4345  -14.8158   20.7943 C   0  0  2  0  0  0  0  0  0  0  0  0
    9.7229  -15.6983   19.6457 N   0  0  0  0  0  0  0  0  0  0  0  0
    9.5018  -15.6608   21.9886 C   0  0  0  0  0  0  0  0  0  0  0  0
    8.5873  -15.6962   22.8461 O   0  0  0  0  0  0  0  0  0  0  0  0
   10.6488  -16.5023   22.2228 N   0  0  0  0  0  0  0  0  0  0  0  0
   10.7439  -17.3797   23.3711 C   0  0  1  0  0  0  0  0  0  0  0  0
   11.7966  -18.4600   23.1464 C   0  0  0  0  0  0  0  0  0  0  0  0
   11.2836  -19.5057   22.1721 C   0  0  0  0  0  0  0  0  0  0  0  0
   12.5109  -20.2573   21.7215 C   0  0  0  0  0  0  0  0  0  0  0  0
   12.6351  -21.4908   21.9537 O   0  0  0  0  0  0  0  0  0  0  0  0
   11.1964  -16.6020   24.5376 C   0  0  0  0  0  0  0  0  0  0  0  0
   12.1321  -15.7885   24.4142 O   0  0  0  0  0  0  0  0  0  0  0  0
   13.5460  -19.6058   21.0300 O   0  0  0  0  0  0  0  0  0  0  0  0
    5.4045  -12.8421   26.5487 O   0  0  0  0  0  0  0  0  0  0  0  0
    6.7285  -13.2600   26.5721 C   0  0  0  0  0  0  0  0  0  0  0  0
    7.6141  -12.7228   27.4881 C   0  0  0  0  0  0  0  0  0  0  0  0
    8.9398  -13.1299   27.5252 C   0  0  0  0  0  0  0  0  0  0  0  0
    9.3746  -14.0826   26.6352 C   0  0  0  0  0  0  0  0  0  0  0  0
   10.7585  -14.5354   26.6409 C   0  0  0  0  0  0  0  0  0  0  0  0
   10.9675  -15.9791   26.9674 C   0  0  2  0  0  0  0  0  0  0  0  0
   10.5820  -16.7656   25.8077 N   0  0  0  0  0  0  0  0  0  0  0  0
   10.1251  -16.4418   28.0982 C   0  0  0  0  0  0  0  0  0  0  0  0
    9.2055  -17.3110   27.9774 O   0  0  0  0  0  0  0  0  0  0  0  0
    8.5082  -14.6470   25.6975 C   0  0  0  0  0  0  0  0  0  0  0  0
    7.1749  -14.2168   25.6826 C   0  0  0  0  0  0  0  0  0  0  0  0
   10.2884  -15.9459   29.3837 O   0  0  0  0  0  0  0  0  0  0  0  0
  2  3  1  1
  2  1  1  0
  4  2  1  0
  5  7  1  0
  5  4  1  0
  5  6  1  6
  7  8  2  0
  9 10  1  0
  9  7  1  0
 10 11  1  6
 12 11  1  0
 13 12  1  0
 13 17  1  0
 14 13  2  0
 15 16  2  0
 15 10  1  0
 19 20  2  0
 19 18  1  0
 21 20  1  0
 22 21  2  0
 23 22  1  0
 24 23  1  6
 24 25  1  0
 25 15  1  0
 26 24  1  0
 26 30  1  0
 27 26  2  0
 28 22  1  0
 28 29  2  0
 29 19  1  0
M  END
$$$$
