LEY.pdb
     RDKit          3D

 30 30  0  0  1  0  0  0  0  0999 V2000
    6.7858  -12.0551   20.4992 C   0  0  0  0  0  0  0  0  0  0  0  0
    7.4848  -13.3677   20.1428 C   0  0  1  0  0  0  0  0  0  0  0  0
    8.8778  -12.9636   19.6289 C   0  0  0  0  0  0  0  0  0  0  0  0
    7.6515  -14.1367   21.4473 C   0  0  0  0  0  0  0  0  0  0  0  0
    8.4962  -15.3817   21.2853 C   0  0  2  0  0  0  0  0  0  0  0  0
    7.7601  -16.3146   20.4083 N   0  0  0  0  0  0  0  0  0  0  0  0
    8.7473  -16.1039   22.5343 C   0  0  0  0  0  0  0  0  0  0  0  0
    7.8428  -16.3541   23.3662 O   0  0  0  0  0  0  0  0  0  0  0  0
   10.0752  -16.5645   22.8561 N   0  0  0  0  0  0  0  0  0  0  0  0
   10.3675  -17.2974   24.0705 C   0  0  1  0  0  0  0  0  0  0  0  0
   11.6539  -18.1032   23.9250 C   0  0  0  0  0  0  0  0  0  0  0  0
   11.8752  -18.9743   25.1490 C   0  0  0  0  0  0  0  0  0  0  0  0
   13.0533  -19.8488   24.8001 C   0  0  0  0  0  0  0  0  0  0  0  0
   14.2344  -19.4318   24.9484 O   0  0  0  0  0  0  0  0  0  0  0  0
   10.6035  -16.3419   25.1668 C   0  0  0  0  0  0  0  0  0  0  0  0
   11.3785  -15.3815   24.9949 O   0  0  0  0  0  0  0  0  0  0  0  0
   12.8675  -21.1500   24.3036 O   0  0  0  0  0  0  0  0  0  0  0  0
    6.4538  -11.5191   24.7205 O   0  0  0  0  0  0  0  0  0  0  0  0
    7.1084  -12.4027   25.5684 C   0  0  0  0  0  0  0  0  0  0  0  0
    6.6497  -13.6988   25.7150 C   0  0  0  0  0  0  0  0  0  0  0  0
    7.2924  -14.5942   26.5574 C   0  0  0  0  0  0  0  0  0  0  0  0
    8.4023  -14.1812   27.2550 C   0  0  0  0  0  0  0  0  0  0  0  0
    9.1041  -15.0902   28.1504 C   0  0  0  0  0  0  0  0  0  0  0  0
   10.3380  -15.7246   27.5942 C   0  0  2  0  0  0  0  0  0  0  0  0
    9.9604  -16.4985   26.4235 N   0  0  0  0  0  0  0  0  0  0  0  0
   10.9784  -16.6686   28.5435 C   0  0  0  0  0  0  0  0  0  0  0  0
   11.4327  -16.3208   29.6787 O   0  0  0  0  0  0  0  0  0  0  0  0
    8.8935  -12.8806   27.1308 C   0  0  0  0  0  0  0  0  0  0  0  0
    8.2243  -11.9976   26.2731 C   0  0  0  0  0  0  0  0  0  0  0  0
   11.1270  -18.0161   28.2481 O   0  0  0  0  0  0  0  0  0  0  0  0
  2  3  1  1
  2  1  1  0
  4  2  1  0
  5  7  1  0
  5  4  1  0
  5  6  1  6
  7  8  2  0
  9 10  1  0
  9  7  1  0
 10 11  1  6
 12 11  1  0
 13 12  1  0
 13 17  1  0
 14 13  2  0
 15 16  2  0
 15 10  1  0
 19 20  2  0
 19 18  1  0
 21 20  1  0
 22 21  2  0
 23 22  1  0
 24 23  1  1
 24 25  1  0
 25 15  1  0
 26 24  1  0
 26 30  1  0
 27 26  2  0
 28 22  1  0
 28 29  2  0
 29 19  1  0
M  END
$$$$
