LEY.pdb
     RDKit          3D

 30 30  0  0  1  0  0  0  0  0999 V2000
    6.1801  -12.9124   18.3226 C   0  0  0  0  0  0  0  0  0  0  0  0
    7.6774  -13.2223   18.3449 C   0  0  1  0  0  0  0  0  0  0  0  0
    8.3634  -11.9015   18.7360 C   0  0  0  0  0  0  0  0  0  0  0  0
    7.8931  -14.2329   19.4642 C   0  0  0  0  0  0  0  0  0  0  0  0
    9.3520  -14.3889   19.8346 C   0  0  2  0  0  0  0  0  0  0  0  0
   10.0939  -14.7379   18.6062 N   0  0  0  0  0  0  0  0  0  0  0  0
    9.6166  -15.4637   20.7935 C   0  0  0  0  0  0  0  0  0  0  0  0
    8.9102  -15.6519   21.8126 O   0  0  0  0  0  0  0  0  0  0  0  0
   10.7239  -16.3648   20.5918 N   0  0  0  0  0  0  0  0  0  0  0  0
   11.0109  -17.4547   21.5012 C   0  0  1  0  0  0  0  0  0  0  0  0
   12.1390  -18.3297   20.9651 C   0  0  0  0  0  0  0  0  0  0  0  0
   11.8173  -18.8076   19.5601 C   0  0  0  0  0  0  0  0  0  0  0  0
   13.0492  -19.5502   19.1069 C   0  0  0  0  0  0  0  0  0  0  0  0
   13.9366  -18.9725   18.4215 O   0  0  0  0  0  0  0  0  0  0  0  0
   11.4915  -16.9034   22.7801 C   0  0  0  0  0  0  0  0  0  0  0  0
   12.3317  -15.9833   22.7810 O   0  0  0  0  0  0  0  0  0  0  0  0
   13.2425  -20.9021   19.4371 O   0  0  0  0  0  0  0  0  0  0  0  0
   10.9583  -14.4053   31.1964 O   0  0  0  0  0  0  0  0  0  0  0  0
   10.7848  -14.8370   29.8881 C   0  0  0  0  0  0  0  0  0  0  0  0
   10.8663  -13.9387   28.8400 C   0  0  0  0  0  0  0  0  0  0  0  0
   10.6962  -14.3537   27.5272 C   0  0  0  0  0  0  0  0  0  0  0  0
   10.4428  -15.6797   27.2699 C   0  0  0  0  0  0  0  0  0  0  0  0
   10.2567  -16.1548   25.9060 C   0  0  0  0  0  0  0  0  0  0  0  0
   11.4283  -16.8558   25.2976 C   0  0  2  0  0  0  0  0  0  0  0  0
   11.0120  -17.4065   24.0188 N   0  0  0  0  0  0  0  0  0  0  0  0
   11.9082  -17.9950   26.1189 C   0  0  0  0  0  0  0  0  0  0  0  0
   11.4184  -19.1658   26.0477 O   0  0  0  0  0  0  0  0  0  0  0  0
   10.3546  -16.6142   28.3030 C   0  0  0  0  0  0  0  0  0  0  0  0
   10.5304  -16.1669   29.6191 C   0  0  0  0  0  0  0  0  0  0  0  0
   12.9402  -17.8534   27.0354 O   0  0  0  0  0  0  0  0  0  0  0  0
  2  3  1  1
  2  1  1  0
  4  2  1  0
  5  7  1  0
  5  4  1  0
  5  6  1  6
  7  8  2  0
  9 10  1  0
  9  7  1  0
 10 11  1  6
 12 11  1  0
 13 12  1  0
 13 17  1  0
 14 13  2  0
 15 16  2  0
 15 10  1  0
 19 20  2  0
 19 18  1  0
 21 20  1  0
 22 21  2  0
 23 22  1  0
 24 23  1  1
 24 25  1  0
 25 15  1  0
 26 24  1  0
 26 30  1  0
 27 26  2  0
 28 22  1  0
 28 29  2  0
 29 19  1  0
M  END
$$$$
