LEY.pdb
     RDKit          3D

 30 30  0  0  1  0  0  0  0  0999 V2000
    7.1584  -12.2433   19.7195 C   0  0  0  0  0  0  0  0  0  0  0  0
    7.6375  -13.5058   19.0019 C   0  0  1  0  0  0  0  0  0  0  0  0
    8.9099  -13.0884   18.2439 C   0  0  0  0  0  0  0  0  0  0  0  0
    8.0229  -14.5011   20.0889 C   0  0  0  0  0  0  0  0  0  0  0  0
    8.6122  -15.7769   19.5279 C   0  0  2  0  0  0  0  0  0  0  0  0
    7.4961  -16.6124   19.0404 N   0  0  0  0  0  0  0  0  0  0  0  0
    9.3338  -16.5882   20.5106 C   0  0  0  0  0  0  0  0  0  0  0  0
    8.7819  -17.0688   21.5291 O   0  0  0  0  0  0  0  0  0  0  0  0
   10.7368  -16.8701   20.3345 N   0  0  0  0  0  0  0  0  0  0  0  0
   11.4937  -17.6574   21.2856 C   0  0  1  0  0  0  0  0  0  0  0  0
   12.8862  -17.9707   20.7485 C   0  0  0  0  0  0  0  0  0  0  0  0
   12.8059  -19.0016   19.6363 C   0  0  0  0  0  0  0  0  0  0  0  0
   14.1857  -19.0307   19.0284 C   0  0  0  0  0  0  0  0  0  0  0  0
   15.1515  -19.5614   19.6420 O   0  0  0  0  0  0  0  0  0  0  0  0
   11.6953  -16.8692   22.5138 C   0  0  0  0  0  0  0  0  0  0  0  0
   12.1536  -15.7130   22.4391 O   0  0  0  0  0  0  0  0  0  0  0  0
   14.4318  -18.4707   17.7635 O   0  0  0  0  0  0  0  0  0  0  0  0
   10.3122  -14.0861   30.7474 O   0  0  0  0  0  0  0  0  0  0  0  0
   10.2981  -14.6425   29.4753 C   0  0  0  0  0  0  0  0  0  0  0  0
   10.4075  -16.0110   29.3106 C   0  0  0  0  0  0  0  0  0  0  0  0
   10.3944  -16.5829   28.0468 C   0  0  0  0  0  0  0  0  0  0  0  0
   10.2704  -15.7718   26.9442 C   0  0  0  0  0  0  0  0  0  0  0  0
   10.2540  -16.3331   25.6007 C   0  0  0  0  0  0  0  0  0  0  0  0
   11.5903  -16.6713   25.0225 C   0  0  2  0  0  0  0  0  0  0  0  0
   11.3759  -17.4082   23.7884 N   0  0  0  0  0  0  0  0  0  0  0  0
   12.3971  -17.5460   25.9093 C   0  0  0  0  0  0  0  0  0  0  0  0
   13.2465  -17.1040   26.7455 O   0  0  0  0  0  0  0  0  0  0  0  0
   10.1570  -14.3866   27.0731 C   0  0  0  0  0  0  0  0  0  0  0  0
   10.1735  -13.8364   28.3615 C   0  0  0  0  0  0  0  0  0  0  0  0
   12.2757  -18.9279   25.8821 O   0  0  0  0  0  0  0  0  0  0  0  0
  2  3  1  6
  2  1  1  0
  4  2  1  0
  5  7  1  0
  5  4  1  0
  5  6  1  1
  7  8  2  0
  9 10  1  0
  9  7  1  0
 10 11  1  6
 12 11  1  0
 13 12  1  0
 13 17  1  0
 14 13  2  0
 15 16  2  0
 15 10  1  0
 19 20  2  0
 19 18  1  0
 21 20  1  0
 22 21  2  0
 23 22  1  0
 24 23  1  1
 24 25  1  0
 25 15  1  0
 26 24  1  0
 26 30  1  0
 27 26  2  0
 28 22  1  0
 28 29  2  0
 29 19  1  0
M  END
$$$$
