RQA.pdb
     RDKit          3D

 26 25  0  0  1  0  0  0  0  0999 V2000
   36.7325  -33.4818  -12.9241 N   0  0  0  0  0  0  0  0  0  0  0  0
   35.3644  -33.5486  -12.6097 C   0  0  0  0  0  0  0  0  0  0  0  0
   34.5166  -33.2930  -13.5528 N   0  0  0  0  0  0  0  0  0  0  0  0
   34.9727  -33.8865  -11.2987 N   0  0  0  0  0  0  0  0  0  0  0  0
   35.8970  -34.6738  -10.4799 C   0  0  0  0  0  0  0  0  0  0  0  0
   35.5501  -36.1273  -10.5868 C   0  0  0  0  0  0  0  0  0  0  0  0
   34.6591  -36.6159   -9.5060 C   0  0  0  0  0  0  0  0  0  0  0  0
   35.1185  -36.4295   -8.1102 C   0  0  2  0  0  0  0  0  0  0  0  0
   36.2499  -37.2310   -7.7946 N   0  0  0  0  0  0  0  0  0  0  0  0
   33.9664  -36.6880   -7.1737 C   0  0  0  0  0  0  0  0  0  0  0  0
   33.8894  -37.8020   -6.5964 O   0  0  0  0  0  0  0  0  0  0  0  0
   33.4875  -33.2318  -13.4086 N   0  0  0  0  0  0  0  0  0  0  0  0
   30.4466  -32.2024   -4.4274 C   0  0  0  0  0  0  0  0  0  0  0  0
   29.8517  -33.3871   -3.9230 O   0  0  0  0  0  0  0  0  0  0  0  0
   28.9074  -33.2583   -3.1182 C   0  0  0  0  0  0  0  0  0  0  0  0
   30.3808  -34.6847   -4.3756 C   0  0  0  0  0  0  0  0  0  0  0  0
   31.4753  -34.6190   -5.3732 C   0  0  1  0  0  0  0  0  0  0  0  0
   32.0060  -35.9593   -5.7917 N   0  0  0  0  0  0  0  0  0  0  0  0
   32.9696  -35.7293   -6.9182 C   0  0  0  0  0  0  0  0  0  0  0  0
   30.9682  -36.9042   -6.2795 O   0  0  0  0  0  0  0  0  0  0  0  0
   30.4781  -36.7451   -7.4614 C   0  0  0  0  0  0  0  0  0  0  0  0
   29.3771  -40.0994   -5.2311 C   0  0  2  0  0  0  0  0  0  0  0  0
   29.3521  -38.8217   -6.0782 N   0  0  0  0  0  0  0  0  0  0  0  0
   30.4406  -37.9949   -5.5784 C   0  0  0  0  0  0  0  0  0  0  0  0
   28.0573  -38.1529   -6.0147 O   0  0  0  0  0  0  0  0  0  0  0  0
   26.9458  -38.6573   -6.6638 O   0  0  0  0  0  0  0  0  0  0  0  0
  2  3  2  0
  2  1  1  0
  4  2  1  0
  5  6  1  0
  5  4  1  0
  6  7  1  0
  7  8  1  0
  8  9  1  1
 10  8  1  0
 10 18  1  0
 11 10  2  0
 13 15  1  0
 13 12  1  0
 14 13  2  0
 17 16  1  1
 16 15  1  0
 17 18  1  0
 19 17  1  0
 20 19  2  0
 22 21  1  6
 22 24  1  0
 22 23  1  0
 23 19  1  0
 24 25  1  0
 26 24  2  0
M  END
$$$$
