RQA.pdb
     RDKit          3D

 26 25  0  0  1  0  0  0  0  0999 V2000
   14.4762  -25.6423  -13.5320 N   0  0  0  0  0  0  0  0  0  0  0  0
   14.1961  -24.8698  -12.3918 C   0  0  0  0  0  0  0  0  0  0  0  0
   12.9653  -24.7990  -11.9999 N   0  0  0  0  0  0  0  0  0  0  0  0
   15.2504  -24.2111  -11.7278 N   0  0  0  0  0  0  0  0  0  0  0  0
   16.6202  -24.6612  -11.9842 C   0  0  0  0  0  0  0  0  0  0  0  0
   17.0876  -24.1233  -13.3021 C   0  0  0  0  0  0  0  0  0  0  0  0
   18.3846  -23.4065  -13.2353 C   0  0  0  0  0  0  0  0  0  0  0  0
   19.5620  -24.0747  -13.8363 C   0  0  2  0  0  0  0  0  0  0  0  0
   19.8952  -25.2914  -13.1800 N   0  0  0  0  0  0  0  0  0  0  0  0
   20.7196  -23.1099  -13.8554 C   0  0  0  0  0  0  0  0  0  0  0  0
   20.6897  -22.1082  -13.0967 O   0  0  0  0  0  0  0  0  0  0  0  0
   12.6595  -24.3199  -11.1279 N   0  0  0  0  0  0  0  0  0  0  0  0
   26.6422  -24.2960  -15.6365 C   0  0  0  0  0  0  0  0  0  0  0  0
   26.6764  -22.8884  -15.4657 O   0  0  0  0  0  0  0  0  0  0  0  0
   27.7684  -22.3136  -15.6482 C   0  0  0  0  0  0  0  0  0  0  0  0
   25.4323  -22.1980  -15.0862 C   0  0  0  0  0  0  0  0  0  0  0  0
   24.2271  -23.0553  -14.9865 C   0  0  1  0  0  0  0  0  0  0  0  0
   22.9790  -22.3174  -14.5980 N   0  0  0  0  0  0  0  0  0  0  0  0
   21.8370  -23.2857  -14.6914 C   0  0  0  0  0  0  0  0  0  0  0  0
   22.6542  -21.1603  -15.4718 O   0  0  0  0  0  0  0  0  0  0  0  0
   22.1400  -21.3748  -16.6345 C   0  0  0  0  0  0  0  0  0  0  0  0
   22.1696  -17.5256  -15.2926 C   0  0  2  0  0  0  0  0  0  0  0  0
   22.6325  -18.7299  -16.1210 N   0  0  0  0  0  0  0  0  0  0  0  0
   22.8454  -19.8077  -15.1664 C   0  0  0  0  0  0  0  0  0  0  0  0
   23.8236  -18.4241  -16.9054 O   0  0  0  0  0  0  0  0  0  0  0  0
   23.7622  -17.6495  -18.0489 O   0  0  0  0  0  0  0  0  0  0  0  0
  2  3  2  0
  2  1  1  0
  4  2  1  0
  5  6  1  0
  5  4  1  0
  6  7  1  0
  7  8  1  0
  8  9  1  1
 10  8  1  0
 10 18  1  0
 11 10  2  0
 13 15  1  0
 13 12  1  0
 14 13  2  0
 17 16  1  1
 16 15  1  0
 17 18  1  0
 19 17  1  0
 20 19  2  0
 22 21  1  6
 22 24  1  0
 22 23  1  0
 23 19  1  0
 24 25  1  0
 26 24  2  0
M  END
$$$$
