RQA.pdb
     RDKit          3D

 26 25  0  0  1  0  0  0  0  0999 V2000
   12.0965  -13.6350  -10.0996 N   0  0  0  0  0  0  0  0  0  0  0  0
   11.4260  -12.5485  -10.6871 C   0  0  0  0  0  0  0  0  0  0  0  0
   10.2670  -12.2271  -10.2107 N   0  0  0  0  0  0  0  0  0  0  0  0
   12.0319  -11.8599  -11.7572 N   0  0  0  0  0  0  0  0  0  0  0  0
   12.5010  -10.4922  -11.5248 C   0  0  0  0  0  0  0  0  0  0  0  0
   13.9202  -10.3623  -11.9869 C   0  0  0  0  0  0  0  0  0  0  0  0
   14.9257  -10.6207  -10.9273 C   0  0  0  0  0  0  0  0  0  0  0  0
   16.3529  -10.4657  -11.2924 C   0  0  2  0  0  0  0  0  0  0  0  0
   17.1014  -11.6583  -11.0937 N   0  0  0  0  0  0  0  0  0  0  0  0
   16.9332   -9.3030  -10.5290 C   0  0  0  0  0  0  0  0  0  0  0  0
   17.3178   -9.4827   -9.3459 O   0  0  0  0  0  0  0  0  0  0  0  0
    9.6989  -11.4256  -10.5547 N   0  0  0  0  0  0  0  0  0  0  0  0
   20.8411   -4.9677  -12.2228 C   0  0  0  0  0  0  0  0  0  0  0  0
   21.0099   -6.3219  -11.8361 O   0  0  0  0  0  0  0  0  0  0  0  0
   22.1120   -6.8548  -12.0755 C   0  0  0  0  0  0  0  0  0  0  0  0
   19.8838   -7.0097  -11.1825 C   0  0  0  0  0  0  0  0  0  0  0  0
   18.6551   -6.2005  -11.0014 C   0  0  2  0  0  0  0  0  0  0  0  0
   17.5690   -6.8963  -10.2335 N   0  0  0  0  0  0  0  0  0  0  0  0
   17.0624   -8.0194  -11.0892 C   0  0  0  0  0  0  0  0  0  0  0  0
   16.4070   -6.0335   -9.8975 O   0  0  0  0  0  0  0  0  0  0  0  0
   15.7108   -5.5162  -10.8515 C   0  0  0  0  0  0  0  0  0  0  0  0
   14.5202   -4.9321   -6.8765 C   0  0  2  0  0  0  0  0  0  0  0  0
   14.8913   -4.7503   -8.3531 N   0  0  0  0  0  0  0  0  0  0  0  0
   15.9583   -5.7056   -8.6128 C   0  0  0  0  0  0  0  0  0  0  0  0
   15.2768   -3.3754   -8.6511 O   0  0  0  0  0  0  0  0  0  0  0  0
   14.3374   -2.3706   -8.7893 O   0  0  0  0  0  0  0  0  0  0  0  0
  2  3  2  0
  2  1  1  0
  4  2  1  0
  5  6  1  0
  5  4  1  0
  6  7  1  0
  7  8  1  0
  8  9  1  1
 10  8  1  0
 10 18  1  0
 11 10  2  0
 13 15  1  0
 13 12  1  0
 14 13  2  0
 17 16  1  1
 16 15  1  0
 17 18  1  0
 19 17  1  0
 20 19  2  0
 22 21  1  6
 22 24  1  0
 22 23  1  0
 23 19  1  0
 24 25  1  0
 26 24  2  0
M  END
$$$$
