RQA.pdb
     RDKit          3D

 26 25  0  0  1  0  0  0  0  0999 V2000
   16.8563  -20.9127  -16.4634 N   0  0  0  0  0  0  0  0  0  0  0  0
   16.2264  -19.6596  -16.3736 C   0  0  0  0  0  0  0  0  0  0  0  0
   15.1652  -19.5703  -15.6392 N   0  0  0  0  0  0  0  0  0  0  0  0
   16.7659  -18.5635  -17.0763 N   0  0  0  0  0  0  0  0  0  0  0  0
   18.1895  -18.5921  -17.4188 C   0  0  0  0  0  0  0  0  0  0  0  0
   19.0077  -18.3463  -16.1881 C   0  0  0  0  0  0  0  0  0  0  0  0
   20.4609  -18.2021  -16.4486 C   0  0  0  0  0  0  0  0  0  0  0  0
   21.2595  -19.4453  -16.5518 C   0  0  2  0  0  0  0  0  0  0  0  0
   20.6770  -20.5306  -15.8413 N   0  0  0  0  0  0  0  0  0  0  0  0
   22.6683  -19.1652  -16.0956 C   0  0  0  0  0  0  0  0  0  0  0  0
   23.2388  -18.1168  -16.4902 O   0  0  0  0  0  0  0  0  0  0  0  0
   14.6128  -18.6962  -15.5195 N   0  0  0  0  0  0  0  0  0  0  0  0
   25.9964  -22.0114  -11.4742 C   0  0  0  0  0  0  0  0  0  0  0  0
   26.9348  -21.0988  -12.0203 O   0  0  0  0  0  0  0  0  0  0  0  0
   28.0395  -20.9999  -11.4495 C   0  0  0  0  0  0  0  0  0  0  0  0
   26.5508  -20.3304  -13.2164 C   0  0  0  0  0  0  0  0  0  0  0  0
   25.1540  -20.5150  -13.6770 C   0  0  1  0  0  0  0  0  0  0  0  0
   24.8010  -19.7216  -14.9013 N   0  0  0  0  0  0  0  0  0  0  0  0
   23.3737  -20.0329  -15.2426 C   0  0  0  0  0  0  0  0  0  0  0  0
   25.6243  -20.0402  -16.0965 O   0  0  0  0  0  0  0  0  0  0  0  0
   25.2316  -20.9674  -16.9018 C   0  0  0  0  0  0  0  0  0  0  0  0
   26.4743  -18.8925  -18.7653 C   0  0  2  0  0  0  0  0  0  0  0  0
   27.4329  -19.5744  -17.7819 N   0  0  0  0  0  0  0  0  0  0  0  0
   26.8246  -19.4235  -16.4683 C   0  0  0  0  0  0  0  0  0  0  0  0
   28.7760  -19.0098  -17.8526 O   0  0  0  0  0  0  0  0  0  0  0  0
   29.5766  -19.1755  -18.9674 O   0  0  0  0  0  0  0  0  0  0  0  0
  2  3  2  0
  2  1  1  0
  4  2  1  0
  5  6  1  0
  5  4  1  0
  6  7  1  0
  7  8  1  0
  8  9  1  1
 10  8  1  0
 10 18  1  0
 11 10  2  0
 13 15  1  0
 13 12  1  0
 14 13  2  0
 17 16  1  1
 16 15  1  0
 17 18  1  0
 19 17  1  0
 20 19  2  0
 22 21  1  6
 22 24  1  0
 22 23  1  0
 23 19  1  0
 24 25  1  0
 26 24  2  0
M  END
$$$$
