RQA.pdb
     RDKit          3D

 26 25  0  0  1  0  0  0  0  0999 V2000
   32.7211  -20.8703  -10.9163 N   0  0  0  0  0  0  0  0  0  0  0  0
   31.8779  -21.9882  -11.0365 C   0  0  0  0  0  0  0  0  0  0  0  0
   32.4223  -23.1608  -10.9915 N   0  0  0  0  0  0  0  0  0  0  0  0
   30.4916  -21.7932  -11.1990 N   0  0  0  0  0  0  0  0  0  0  0  0
   30.0414  -20.6784  -12.0353 C   0  0  0  0  0  0  0  0  0  0  0  0
   30.3871  -20.9525  -13.4671 C   0  0  0  0  0  0  0  0  0  0  0  0
   29.2486  -21.4486  -14.2783 C   0  0  0  0  0  0  0  0  0  0  0  0
   28.2219  -20.4610  -14.6840 C   0  0  2  0  0  0  0  0  0  0  0  0
   28.5045  -19.1510  -14.2087 N   0  0  0  0  0  0  0  0  0  0  0  0
   26.8678  -20.9441  -14.2319 C   0  0  0  0  0  0  0  0  0  0  0  0
   26.4449  -22.0509  -14.6517 O   0  0  0  0  0  0  0  0  0  0  0  0
   33.4196  -23.3298  -10.7458 N   0  0  0  0  0  0  0  0  0  0  0  0
   24.3718  -20.5157   -8.6596 C   0  0  0  0  0  0  0  0  0  0  0  0
   23.2944  -21.0907   -9.3810 O   0  0  0  0  0  0  0  0  0  0  0  0
   22.3179  -21.5034   -8.7238 C   0  0  0  0  0  0  0  0  0  0  0  0
   23.3941  -21.1654  -10.8484 C   0  0  0  0  0  0  0  0  0  0  0  0
   24.6537  -20.6473  -11.4335 C   0  0  1  0  0  0  0  0  0  0  0  0
   24.7341  -20.7725  -12.9272 N   0  0  0  0  0  0  0  0  0  0  0  0
   26.0545  -20.2035  -13.3554 C   0  0  0  0  0  0  0  0  0  0  0  0
   23.6728  -20.0365  -13.6618 O   0  0  0  0  0  0  0  0  0  0  0  0
   23.6754  -18.7472  -13.6462 C   0  0  0  0  0  0  0  0  0  0  0  0
   21.3864  -20.4344  -16.4300 C   0  0  2  0  0  0  0  0  0  0  0  0
   21.5780  -19.8207  -15.0380 N   0  0  0  0  0  0  0  0  0  0  0  0
   22.6289  -20.6022  -14.4030 C   0  0  0  0  0  0  0  0  0  0  0  0
   20.3366  -19.8125  -14.2723 O   0  0  0  0  0  0  0  0  0  0  0  0
   20.1240  -20.6865  -13.2225 O   0  0  0  0  0  0  0  0  0  0  0  0
  2  3  2  0
  2  1  1  0
  4  2  1  0
  5  6  1  0
  5  4  1  0
  6  7  1  0
  7  8  1  0
  8  9  1  1
 10  8  1  0
 10 18  1  0
 11 10  2  0
 13 15  1  0
 13 12  1  0
 14 13  2  0
 17 16  1  1
 16 15  1  0
 17 18  1  0
 19 17  1  0
 20 19  2  0
 22 21  1  6
 22 24  1  0
 22 23  1  0
 23 19  1  0
 24 25  1  0
 26 24  2  0
M  END
$$$$
