RQA.pdb
     RDKit          3D

 26 25  0  0  1  0  0  0  0  0999 V2000
   31.3325  -20.9330  -10.0956 N   0  0  0  0  0  0  0  0  0  0  0  0
   31.4232  -21.5741  -11.3429 C   0  0  0  0  0  0  0  0  0  0  0  0
   32.3839  -22.4231  -11.5152 N   0  0  0  0  0  0  0  0  0  0  0  0
   30.4785  -21.2729  -12.3445 N   0  0  0  0  0  0  0  0  0  0  0  0
   29.4276  -20.3005  -12.0367 C   0  0  0  0  0  0  0  0  0  0  0  0
   28.3190  -20.9777  -11.2904 C   0  0  0  0  0  0  0  0  0  0  0  0
   27.1140  -21.2462  -12.1129 C   0  0  0  0  0  0  0  0  0  0  0  0
   25.8969  -21.7063  -11.4051 C   0  0  2  0  0  0  0  0  0  0  0  0
   26.0864  -22.9497  -10.7418 N   0  0  0  0  0  0  0  0  0  0  0  0
   24.7495  -21.7578  -12.3808 C   0  0  0  0  0  0  0  0  0  0  0  0
   24.6046  -22.7809  -13.0967 O   0  0  0  0  0  0  0  0  0  0  0  0
   32.5583  -22.9306  -12.4072 N   0  0  0  0  0  0  0  0  0  0  0  0
   19.0296  -20.1971  -11.2282 C   0  0  0  0  0  0  0  0  0  0  0  0
   18.9165  -20.4831  -12.6128 O   0  0  0  0  0  0  0  0  0  0  0  0
   17.7690  -20.5183  -13.1006 C   0  0  0  0  0  0  0  0  0  0  0  0
   20.1494  -20.7194  -13.3827 C   0  0  0  0  0  0  0  0  0  0  0  0
   21.4136  -20.6290  -12.6139 C   0  0  1  0  0  0  0  0  0  0  0  0
   22.6480  -20.8817  -13.4298 N   0  0  0  0  0  0  0  0  0  0  0  0
   23.8300  -20.7031  -12.5235 C   0  0  0  0  0  0  0  0  0  0  0  0
   22.8235  -19.9555  -14.5783 O   0  0  0  0  0  0  0  0  0  0  0  0
   23.1168  -18.7206  -14.3515 C   0  0  0  0  0  0  0  0  0  0  0  0
   23.0695  -20.1680  -18.2877 C   0  0  2  0  0  0  0  0  0  0  0  0
   22.9308  -19.3284  -17.0123 N   0  0  0  0  0  0  0  0  0  0  0  0
   22.7068  -20.2808  -15.9347 C   0  0  0  0  0  0  0  0  0  0  0  0
   21.8642  -18.3400  -17.1259 O   0  0  0  0  0  0  0  0  0  0  0  0
   22.0481  -17.1456  -17.7973 O   0  0  0  0  0  0  0  0  0  0  0  0
  2  3  2  0
  2  1  1  0
  4  2  1  0
  5  6  1  0
  5  4  1  0
  6  7  1  0
  7  8  1  0
  8  9  1  6
 10  8  1  0
 10 18  1  0
 11 10  2  0
 13 15  1  0
 13 12  1  0
 14 13  2  0
 17 16  1  1
 16 15  1  0
 17 18  1  0
 19 17  1  0
 20 19  2  0
 22 21  1  1
 22 24  1  0
 22 23  1  0
 23 19  1  0
 24 25  1  0
 26 24  2  0
M  END
$$$$
