RQA.pdb
     RDKit          3D

 26 25  0  0  1  0  0  0  0  0999 V2000
   28.3419  -21.0572  -21.8098 N   0  0  0  0  0  0  0  0  0  0  0  0
   27.2658  -20.1548  -21.8613 C   0  0  0  0  0  0  0  0  0  0  0  0
   26.5823  -20.0945  -22.9579 N   0  0  0  0  0  0  0  0  0  0  0  0
   26.9755  -19.3611  -20.7334 N   0  0  0  0  0  0  0  0  0  0  0  0
   27.6263  -19.6947  -19.4646 C   0  0  0  0  0  0  0  0  0  0  0  0
   26.9724  -20.9026  -18.8665 C   0  0  0  0  0  0  0  0  0  0  0  0
   26.8980  -20.8772  -17.3852 C   0  0  0  0  0  0  0  0  0  0  0  0
   25.9242  -19.9462  -16.7696 C   0  0  2  0  0  0  0  0  0  0  0  0
   26.5291  -18.7411  -16.3180 N   0  0  0  0  0  0  0  0  0  0  0  0
   25.1939  -20.6594  -15.6608 C   0  0  0  0  0  0  0  0  0  0  0  0
   24.9838  -21.8943  -15.7661 O   0  0  0  0  0  0  0  0  0  0  0  0
   25.7501  -19.4836  -23.0916 N   0  0  0  0  0  0  0  0  0  0  0  0
   26.1959  -20.1368   -9.7383 C   0  0  0  0  0  0  0  0  0  0  0  0
   25.0314  -20.9455   -9.6961 O   0  0  0  0  0  0  0  0  0  0  0  0
   24.6979  -21.4156   -8.5898 C   0  0  0  0  0  0  0  0  0  0  0  0
   24.2944  -21.1790  -10.9494 C   0  0  0  0  0  0  0  0  0  0  0  0
   24.8989  -20.5913  -12.1687 C   0  0  1  0  0  0  0  0  0  0  0  0
   24.0877  -20.7941  -13.4153 N   0  0  0  0  0  0  0  0  0  0  0  0
   24.7359  -19.9965  -14.5080 C   0  0  0  0  0  0  0  0  0  0  0  0
   22.6770  -20.3397  -13.3092 O   0  0  0  0  0  0  0  0  0  0  0  0
   22.4274  -19.0777  -13.2235 C   0  0  0  0  0  0  0  0  0  0  0  0
   19.2504  -21.6500  -13.7378 C   0  0  2  0  0  0  0  0  0  0  0  0
   20.1941  -20.6540  -13.0536 N   0  0  0  0  0  0  0  0  0  0  0  0
   21.5393  -21.1550  -13.2945 C   0  0  0  0  0  0  0  0  0  0  0  0
   19.8907  -20.5050  -11.6346 O   0  0  0  0  0  0  0  0  0  0  0  0
   18.9653  -19.5831  -11.1819 O   0  0  0  0  0  0  0  0  0  0  0  0
  2  3  2  0
  2  1  1  0
  4  2  1  0
  5  6  1  0
  5  4  1  0
  6  7  1  0
  7  8  1  0
  8  9  1  1
 10  8  1  0
 10 18  1  0
 11 10  2  0
 13 15  1  0
 13 12  1  0
 14 13  2  0
 17 16  1  6
 16 15  1  0
 17 18  1  0
 19 17  1  0
 20 19  2  0
 22 21  1  6
 22 24  1  0
 22 23  1  0
 23 19  1  0
 24 25  1  0
 26 24  2  0
M  END
$$$$
