RKS.pdb
     RDKit          3D

 27 26  0  0  1  0  0  0  0  0999 V2000
   22.9764  -17.6776  -17.7559 N   0  0  0  0  0  0  0  0  0  0  0  0
   22.0522  -16.8260  -17.1297 C   0  0  0  0  0  0  0  0  0  0  0  0
   21.5652  -15.8075  -17.7534 N   0  0  0  0  0  0  0  0  0  0  0  0
   21.6385  -17.0726  -15.7983 N   0  0  0  0  0  0  0  0  0  0  0  0
   22.1516  -18.2506  -15.0771 C   0  0  0  0  0  0  0  0  0  0  0  0
   21.1370  -19.3315  -15.2988 C   0  0  0  0  0  0  0  0  0  0  0  0
   20.6091  -19.8790  -14.0382 C   0  0  0  0  0  0  0  0  0  0  0  0
   21.5724  -20.6921  -13.2300 C   0  0  2  0  0  0  0  0  0  0  0  0
   22.7262  -21.1662  -13.9205 N   0  0  0  0  0  0  0  0  0  0  0  0
   20.8036  -21.9033  -12.7674 C   0  0  0  0  0  0  0  0  0  0  0  0
   20.8056  -22.9332  -13.4515 O   0  0  0  0  0  0  0  0  0  0  0  0
   20.9883  -15.0728  -17.3051 N   0  0  0  0  0  0  0  0  0  0  0  0
   20.0889  -21.8291  -11.5420 C   0  0  2  0  0  0  0  0  0  0  0  0
   19.4199  -23.0175  -11.0631 C   0  0  0  0  0  0  0  0  0  0  0  0
   19.4195  -23.0001   -9.5535 C   0  0  0  0  0  0  0  0  0  0  0  0
   18.7684  -24.2288   -9.0191 C   0  0  0  0  0  0  0  0  0  0  0  0
   18.7921  -24.3555   -7.5172 C   0  0  0  0  0  0  0  0  0  0  0  0
   18.0756  -25.6060   -7.1129 N   0  0  0  0  0  0  0  0  0  0  0  0
   18.1651  -25.6926   -5.6601 C   0  0  0  0  0  0  0  0  0  0  0  0
   18.0856  -23.0877  -11.6592 O   0  0  0  0  0  0  0  0  0  0  0  0
   17.3146  -22.1039  -11.5220 O   0  0  0  0  0  0  0  0  0  0  0  0
   17.0275  -25.8103  -14.5007 C   0  0  0  0  0  0  0  0  0  0  0  0
   16.3523  -24.5959  -14.3877 C   0  0  1  0  0  0  0  0  0  0  0  0
   16.2708  -24.1407  -12.9419 N   0  0  0  0  0  0  0  0  0  0  0  0
   17.5991  -24.2024  -12.3888 C   0  0  0  0  0  0  0  0  0  0  0  0
   15.3094  -24.9562  -12.1691 O   0  0  0  0  0  0  0  0  0  0  0  0
   14.1262  -25.0945  -12.5375 O   0  0  0  0  0  0  0  0  0  0  0  0
  2  1  1  0
  3  2  2  0
  4  2  1  0
  5  6  1  0
  5  4  1  0
  7  6  1  0
  8  7  1  0
  8  9  1  6
 10  8  1  0
 11 10  2  0
 12 10  1  0
 13 12  1  0
 13 14  1  1
 14 15  1  0
 15 16  1  0
 16 17  1  0
 17 18  1  0
 19 13  1  0
 20 19  2  0
 22 21  1  0
 23 22  1  6
 23 24  1  0
 24 19  1  0
 25 23  1  0
 25 27  1  0
 26 25  2  0
M  END
$$$$
