RKS.pdb
     RDKit          3D

 27 26  0  0  1  0  0  0  0  0999 V2000
   26.8465  -20.6394  -10.7621 N   0  0  0  0  0  0  0  0  0  0  0  0
   25.4809  -20.5660  -11.0802 C   0  0  0  0  0  0  0  0  0  0  0  0
   24.6781  -19.8390  -10.3796 N   0  0  0  0  0  0  0  0  0  0  0  0
   24.9611  -21.2915  -12.1792 N   0  0  0  0  0  0  0  0  0  0  0  0
   25.8207  -22.2470  -12.8998 C   0  0  0  0  0  0  0  0  0  0  0  0
   26.0810  -21.6239  -14.2381 C   0  0  0  0  0  0  0  0  0  0  0  0
   25.4956  -22.3974  -15.3456 C   0  0  0  0  0  0  0  0  0  0  0  0
   25.1500  -23.8202  -15.0318 C   0  0  2  0  0  0  0  0  0  0  0  0
   25.9057  -24.8153  -15.7185 N   0  0  0  0  0  0  0  0  0  0  0  0
   23.7101  -23.9953  -15.4420 C   0  0  0  0  0  0  0  0  0  0  0  0
   23.4328  -24.2804  -16.6127 O   0  0  0  0  0  0  0  0  0  0  0  0
   23.6552  -19.7865  -10.5362 N   0  0  0  0  0  0  0  0  0  0  0  0
   22.6972  -23.8272  -14.4604 C   0  0  2  0  0  0  0  0  0  0  0  0
   21.3202  -24.0277  -14.8519 C   0  0  0  0  0  0  0  0  0  0  0  0
   20.5361  -24.4948  -13.6493 C   0  0  0  0  0  0  0  0  0  0  0  0
   20.8169  -25.9311  -13.3709 C   0  0  0  0  0  0  0  0  0  0  0  0
   19.9221  -26.5615  -12.3344 C   0  0  0  0  0  0  0  0  0  0  0  0
   20.3121  -27.9945  -12.1471 N   0  0  0  0  0  0  0  0  0  0  0  0
   19.3600  -28.5713  -11.2053 C   0  0  0  0  0  0  0  0  0  0  0  0
   20.8105  -22.7958  -15.4545 O   0  0  0  0  0  0  0  0  0  0  0  0
   21.1419  -21.6959  -14.9431 O   0  0  0  0  0  0  0  0  0  0  0  0
   18.1832  -22.6078  -18.7309 C   0  0  0  0  0  0  0  0  0  0  0  0
   19.2021  -21.6694  -18.5744 C   0  0  1  0  0  0  0  0  0  0  0  0
   19.5585  -21.4785  -17.1112 N   0  0  0  0  0  0  0  0  0  0  0  0
   19.9594  -22.7592  -16.5884 C   0  0  0  0  0  0  0  0  0  0  0  0
   18.4328  -20.8959  -16.3496 O   0  0  0  0  0  0  0  0  0  0  0  0
   17.9530  -21.4698  -15.3521 O   0  0  0  0  0  0  0  0  0  0  0  0
  2  1  1  0
  3  2  2  0
  4  2  1  0
  5  6  1  0
  5  4  1  0
  7  6  1  0
  8  7  1  0
  8  9  1  6
 10  8  1  0
 11 10  2  0
 12 10  1  0
 13 12  1  0
 13 14  1  1
 14 15  1  0
 15 16  1  0
 16 17  1  0
 17 18  1  0
 19 13  1  0
 20 19  2  0
 22 21  1  0
 23 22  1  6
 23 24  1  0
 24 19  1  0
 25 23  1  0
 25 27  1  0
 26 25  2  0
M  END
$$$$
