RKS.pdb
     RDKit          3D

 27 26  0  0  1  0  0  0  0  0999 V2000
   25.7442  -25.3372  -14.7936 N   0  0  0  0  0  0  0  0  0  0  0  0
   25.3855  -25.6919  -16.1040 C   0  0  0  0  0  0  0  0  0  0  0  0
   26.1677  -26.4171  -16.8292 N   0  0  0  0  0  0  0  0  0  0  0  0
   24.1547  -25.2574  -16.6525 N   0  0  0  0  0  0  0  0  0  0  0  0
   23.0525  -24.8612  -15.7584 C   0  0  0  0  0  0  0  0  0  0  0  0
   22.1860  -26.0770  -15.6248 C   0  0  0  0  0  0  0  0  0  0  0  0
   21.0977  -25.8916  -14.6506 C   0  0  0  0  0  0  0  0  0  0  0  0
   21.4758  -26.0724  -13.2131 C   0  0  2  0  0  0  0  0  0  0  0  0
   22.2094  -27.2546  -12.9015 N   0  0  0  0  0  0  0  0  0  0  0  0
   20.1775  -26.1422  -12.4504 C   0  0  0  0  0  0  0  0  0  0  0  0
   19.2223  -26.7746  -12.9157 O   0  0  0  0  0  0  0  0  0  0  0  0
   25.9807  -26.6636  -17.8180 N   0  0  0  0  0  0  0  0  0  0  0  0
   20.0845  -25.4722  -11.2013 C   0  0  1  0  0  0  0  0  0  0  0  0
   18.8477  -25.5688  -10.4595 C   0  0  0  0  0  0  0  0  0  0  0  0
   19.1045  -25.1552   -9.0305 C   0  0  0  0  0  0  0  0  0  0  0  0
   17.8314  -25.1373   -8.2572 C   0  0  0  0  0  0  0  0  0  0  0  0
   17.8509  -25.9489   -6.9870 C   0  0  0  0  0  0  0  0  0  0  0  0
   17.3441  -25.1113   -5.8547 N   0  0  0  0  0  0  0  0  0  0  0  0
   17.4392  -25.9279   -4.6503 C   0  0  0  0  0  0  0  0  0  0  0  0
   17.8219  -24.7741  -11.1353 O   0  0  0  0  0  0  0  0  0  0  0  0
   18.1624  -23.6932  -11.6801 O   0  0  0  0  0  0  0  0  0  0  0  0
   14.8166  -25.8969  -13.4438 C   0  0  0  0  0  0  0  0  0  0  0  0
   14.3863  -25.0685  -12.4084 C   0  0  2  0  0  0  0  0  0  0  0  0
   15.5301  -24.2412  -11.8501 N   0  0  0  0  0  0  0  0  0  0  0  0
   16.4556  -25.1455  -11.2180 C   0  0  0  0  0  0  0  0  0  0  0  0
   15.0438  -23.2025  -10.9166 O   0  0  0  0  0  0  0  0  0  0  0  0
   15.2918  -23.2540   -9.6958 O   0  0  0  0  0  0  0  0  0  0  0  0
  2  1  1  0
  3  2  2  0
  4  2  1  0
  5  6  1  0
  5  4  1  0
  7  6  1  0
  8  7  1  0
  8  9  1  6
 10  8  1  0
 11 10  2  0
 12 10  1  0
 13 12  1  0
 13 14  1  6
 14 15  1  0
 15 16  1  0
 16 17  1  0
 17 18  1  0
 19 13  1  0
 20 19  2  0
 22 21  1  0
 23 22  1  6
 23 24  1  0
 24 19  1  0
 25 23  1  0
 25 27  1  0
 26 25  2  0
M  END
$$$$
