RKS.pdb
     RDKit          3D

 27 26  0  0  1  0  0  0  0  0999 V2000
   31.7375  -20.7939  -10.3819 N   0  0  0  0  0  0  0  0  0  0  0  0
   30.9805  -21.9741  -10.3076 C   0  0  0  0  0  0  0  0  0  0  0  0
   31.5396  -23.0998  -10.0180 N   0  0  0  0  0  0  0  0  0  0  0  0
   29.5859  -21.9473  -10.5503 N   0  0  0  0  0  0  0  0  0  0  0  0
   28.9353  -20.6876  -10.9514 C   0  0  0  0  0  0  0  0  0  0  0  0
   28.1782  -21.0071  -12.2050 C   0  0  0  0  0  0  0  0  0  0  0  0
   26.8563  -20.3602  -12.2478 C   0  0  0  0  0  0  0  0  0  0  0  0
   25.6795  -21.2852  -12.2044 C   0  0  2  0  0  0  0  0  0  0  0  0
   25.8423  -22.5385  -12.8644 N   0  0  0  0  0  0  0  0  0  0  0  0
   24.5578  -20.5590  -12.9021 C   0  0  0  0  0  0  0  0  0  0  0  0
   24.2241  -19.4305  -12.5229 O   0  0  0  0  0  0  0  0  0  0  0  0
   31.0486  -24.0122  -10.0281 N   0  0  0  0  0  0  0  0  0  0  0  0
   23.9064  -21.1977  -13.9908 C   0  0  1  0  0  0  0  0  0  0  0  0
   22.9034  -20.4571  -14.7223 C   0  0  0  0  0  0  0  0  0  0  0  0
   23.0346  -20.7813  -16.1909 C   0  0  0  0  0  0  0  0  0  0  0  0
   23.1805  -19.5316  -16.9886 C   0  0  0  0  0  0  0  0  0  0  0  0
   24.6041  -19.1160  -17.2589 C   0  0  0  0  0  0  0  0  0  0  0  0
   24.6086  -17.8538  -18.0636 N   0  0  0  0  0  0  0  0  0  0  0  0
   25.9877  -17.3818  -18.1005 C   0  0  0  0  0  0  0  0  0  0  0  0
   21.5855  -20.7552  -14.1611 O   0  0  0  0  0  0  0  0  0  0  0  0
   21.4104  -21.8656  -13.5977 O   0  0  0  0  0  0  0  0  0  0  0  0
   18.6199  -17.9504  -13.4050 C   0  0  0  0  0  0  0  0  0  0  0  0
   18.7907  -19.1349  -12.6901 C   0  0  1  0  0  0  0  0  0  0  0  0
   19.2427  -20.2669  -13.5949 N   0  0  0  0  0  0  0  0  0  0  0  0
   20.4815  -19.8662  -14.2105 C   0  0  0  0  0  0  0  0  0  0  0  0
   18.2096  -20.6069  -14.5968 O   0  0  0  0  0  0  0  0  0  0  0  0
   18.4133  -20.4651  -15.8187 O   0  0  0  0  0  0  0  0  0  0  0  0
  2  1  1  0
  3  2  2  0
  4  2  1  0
  5  6  1  0
  5  4  1  0
  7  6  1  0
  8  7  1  0
  8  9  1  6
 10  8  1  0
 11 10  2  0
 12 10  1  0
 13 12  1  0
 13 14  1  1
 14 15  1  0
 15 16  1  0
 16 17  1  0
 17 18  1  0
 19 13  1  0
 20 19  2  0
 22 21  1  0
 23 22  1  1
 23 24  1  0
 24 19  1  0
 25 23  1  0
 25 27  1  0
 26 25  2  0
M  END
$$$$
