YHG.pdb
     RDKit          3D

 27 28  0  0  1  0  0  0  0  0999 V2000
    7.1307  -12.5265   17.6042 O   0  0  0  0  0  0  0  0  0  0  0  0
    7.3838  -13.0352   18.8680 C   0  0  0  0  0  0  0  0  0  0  0  0
    8.6614  -13.1702   19.3718 C   0  0  0  0  0  0  0  0  0  0  0  0
    8.8388  -13.6890   20.6494 C   0  0  0  0  0  0  0  0  0  0  0  0
    7.7611  -14.0633   21.4037 C   0  0  0  0  0  0  0  0  0  0  0  0
    7.9392  -14.6151   22.7609 C   0  0  0  0  0  0  0  0  0  0  0  0
    8.2786  -16.1052   22.6290 C   0  0  2  0  0  0  0  0  0  0  0  0
    7.0583  -16.7836   22.2909 N   0  0  0  0  0  0  0  0  0  0  0  0
    8.7685  -16.5278   23.9782 C   0  0  0  0  0  0  0  0  0  0  0  0
    8.1037  -16.4016   25.0086 O   0  0  0  0  0  0  0  0  0  0  0  0
    6.4705  -13.9368   20.9188 C   0  0  0  0  0  0  0  0  0  0  0  0
    6.3233  -13.4234   19.6582 C   0  0  0  0  0  0  0  0  0  0  0  0
   10.0495  -17.0972   24.0794 N   0  0  0  0  0  0  0  0  0  0  0  0
   10.7756  -17.4375   25.2233 C   0  0  1  0  0  0  0  0  0  0  0  0
   10.7461  -18.8016   25.8015 C   0  0  0  0  0  0  0  0  0  0  0  0
    9.3558  -19.3470   25.8311 C   0  0  0  0  0  0  0  0  0  0  0  0
    8.6558  -19.8056   24.6969 C   0  0  0  0  0  0  0  0  0  0  0  0
    7.4436  -20.2318   25.0407 N   0  0  0  0  0  0  0  0  0  0  0  0
    7.3290  -20.0649   26.3729 C   0  0  0  0  0  0  0  0  0  0  0  0
    8.4733  -19.5409   26.8115 N   0  0  0  0  0  0  0  0  0  0  0  0
   12.1293  -16.8799   25.1645 C   0  0  0  0  0  0  0  0  0  0  0  0
   12.8840  -16.9639   26.1956 O   0  0  0  0  0  0  0  0  0  0  0  0
   12.7168  -16.2360   24.0552 N   0  0  0  0  0  0  0  0  0  0  0  0
   14.0660  -15.6870   24.0875 C   0  0  0  0  0  0  0  0  0  0  0  0
   15.0767  -16.7377   23.8388 C   0  0  0  0  0  0  0  0  0  0  0  0
   14.6964  -17.9111   23.6571 O   0  0  0  0  0  0  0  0  0  0  0  0
   16.4292  -16.4572   23.8018 O   0  0  0  0  0  0  0  0  0  0  0  0
  1  2  1  0
  2 12  2  0
  3  4  2  0
  3  2  1  0
  4  5  1  0
  5  6  1  0
  5 11  2  0
  6  7  1  0
  7  9  1  0
  7  8  1  1
  9 10  2  0
 12 11  1  0
 13 14  1  0
 13  9  1  0
 14 21  1  0
 14 15  1  6
 16 15  1  0
 17 16  2  0
 18 17  1  0
 19 18  1  0
 19 20  2  0
 20 16  1  0
 21 22  2  0
 21 23  1  0
 23 24  1  0
 24 25  1  0
 25 27  1  0
 26 25  2  0
M  END
$$$$
