YHG.pdb
     RDKit          3D

 27 28  0  0  1  0  0  0  0  0999 V2000
    7.3869  -11.1657   26.7127 O   0  0  0  0  0  0  0  0  0  0  0  0
    7.2644  -12.5131   26.4133 C   0  0  0  0  0  0  0  0  0  0  0  0
    8.3524  -13.3115   26.1253 C   0  0  0  0  0  0  0  0  0  0  0  0
    8.1528  -14.6562   25.8339 C   0  0  0  0  0  0  0  0  0  0  0  0
    6.8925  -15.1874   25.8313 C   0  0  0  0  0  0  0  0  0  0  0  0
    6.6703  -16.6136   25.5232 C   0  0  0  0  0  0  0  0  0  0  0  0
    6.4566  -16.7466   24.0100 C   0  0  2  0  0  0  0  0  0  0  0  0
    5.7897  -17.9999   23.7905 N   0  0  0  0  0  0  0  0  0  0  0  0
    7.8268  -16.7583   23.4090 C   0  0  0  0  0  0  0  0  0  0  0  0
    8.4967  -17.7843   23.2735 O   0  0  0  0  0  0  0  0  0  0  0  0
    5.7864  -14.4054   26.1172 C   0  0  0  0  0  0  0  0  0  0  0  0
    6.0103  -13.0848   26.4008 C   0  0  0  0  0  0  0  0  0  0  0  0
    8.3808  -15.5411   22.9766 N   0  0  0  0  0  0  0  0  0  0  0  0
    9.5532  -15.3136   22.2518 C   0  0  1  0  0  0  0  0  0  0  0  0
    9.7462  -14.1021   21.4205 C   0  0  0  0  0  0  0  0  0  0  0  0
    8.7759  -14.0644   20.2854 C   0  0  0  0  0  0  0  0  0  0  0  0
    7.9119  -15.1232   19.9407 C   0  0  0  0  0  0  0  0  0  0  0  0
    7.1683  -14.7917   18.8888 N   0  0  0  0  0  0  0  0  0  0  0  0
    7.5220  -13.5410   18.5331 C   0  0  0  0  0  0  0  0  0  0  0  0
    8.4728  -13.1380   19.3757 N   0  0  0  0  0  0  0  0  0  0  0  0
   10.7333  -15.6376   23.0576 C   0  0  0  0  0  0  0  0  0  0  0  0
   11.8969  -15.5172   22.5365 O   0  0  0  0  0  0  0  0  0  0  0  0
   10.7304  -16.0845   24.3957 N   0  0  0  0  0  0  0  0  0  0  0  0
   11.9547  -16.3120   25.1522 C   0  0  0  0  0  0  0  0  0  0  0  0
   12.3378  -17.7403   25.1319 C   0  0  0  0  0  0  0  0  0  0  0  0
   11.7618  -18.5093   24.3374 O   0  0  0  0  0  0  0  0  0  0  0  0
   13.3149  -18.2471   25.9672 O   0  0  0  0  0  0  0  0  0  0  0  0
  1  2  1  0
  2 12  2  0
  3  4  2  0
  3  2  1  0
  4  5  1  0
  5  6  1  0
  5 11  2  0
  6  7  1  0
  7  9  1  0
  7  8  1  1
  9 10  2  0
 12 11  1  0
 13 14  1  0
 13  9  1  0
 14 21  1  0
 14 15  1  1
 16 15  1  0
 17 16  2  0
 18 17  1  0
 19 18  1  0
 19 20  2  0
 20 16  1  0
 21 22  2  0
 21 23  1  0
 23 24  1  0
 24 25  1  0
 25 27  1  0
 26 25  2  0
M  END
$$$$
