YHG.pdb
     RDKit          3D

 27 28  0  0  1  0  0  0  0  0999 V2000
    0.3176  -21.1947   21.4290 O   0  0  0  0  0  0  0  0  0  0  0  0
    1.4593  -20.4716   21.7351 C   0  0  0  0  0  0  0  0  0  0  0  0
    1.6528  -19.1737   21.3081 C   0  0  0  0  0  0  0  0  0  0  0  0
    2.8244  -18.5100   21.6542 C   0  0  0  0  0  0  0  0  0  0  0  0
    3.7789  -19.1328   22.4102 C   0  0  0  0  0  0  0  0  0  0  0  0
    5.0259  -18.4367   22.7827 C   0  0  0  0  0  0  0  0  0  0  0  0
    5.8863  -18.2922   21.5210 C   0  0  2  0  0  0  0  0  0  0  0  0
    6.3392  -19.6097   21.1706 N   0  0  0  0  0  0  0  0  0  0  0  0
    7.0360  -17.4194   21.9151 C   0  0  0  0  0  0  0  0  0  0  0  0
    8.1390  -17.8618   22.2431 O   0  0  0  0  0  0  0  0  0  0  0  0
    3.6062  -20.4342   22.8497 C   0  0  0  0  0  0  0  0  0  0  0  0
    2.4440  -21.0651   22.4952 C   0  0  0  0  0  0  0  0  0  0  0  0
    6.8530  -16.0259   21.9125 N   0  0  0  0  0  0  0  0  0  0  0  0
    7.7982  -15.0118   22.0849 C   0  0  1  0  0  0  0  0  0  0  0  0
    7.6234  -13.6608   21.5015 C   0  0  0  0  0  0  0  0  0  0  0  0
    7.6930  -13.7022   20.0100 C   0  0  0  0  0  0  0  0  0  0  0  0
    8.4083  -12.7797   19.2201 C   0  0  0  0  0  0  0  0  0  0  0  0
    8.2821  -13.0775   17.9299 N   0  0  0  0  0  0  0  0  0  0  0  0
    7.5015  -14.1731   17.8516 C   0  0  0  0  0  0  0  0  0  0  0  0
    7.1692  -14.5186   19.0953 N   0  0  0  0  0  0  0  0  0  0  0  0
    8.2681  -14.9698   23.4721 C   0  0  0  0  0  0  0  0  0  0  0  0
    7.5570  -14.3727   24.3540 O   0  0  0  0  0  0  0  0  0  0  0  0
    9.4629  -15.5363   23.9637 N   0  0  0  0  0  0  0  0  0  0  0  0
    9.8347  -15.4905   25.3717 C   0  0  0  0  0  0  0  0  0  0  0  0
   11.1145  -16.1924   25.6096 C   0  0  0  0  0  0  0  0  0  0  0  0
   11.7212  -16.6884   24.6398 O   0  0  0  0  0  0  0  0  0  0  0  0
   11.6574  -16.3145   26.8744 O   0  0  0  0  0  0  0  0  0  0  0  0
  1  2  1  0
  2 12  2  0
  3  4  2  0
  3  2  1  0
  4  5  1  0
  5  6  1  0
  5 11  2  0
  6  7  1  0
  7  9  1  0
  7  8  1  1
  9 10  2  0
 12 11  1  0
 13 14  1  0
 13  9  1  0
 14 21  1  0
 14 15  1  1
 16 15  1  0
 17 16  2  0
 18 17  1  0
 19 18  1  0
 19 20  2  0
 20 16  1  0
 21 22  2  0
 21 23  1  0
 23 24  1  0
 24 25  1  0
 25 27  1  0
 26 25  2  0
M  END
$$$$
