YHG.pdb
     RDKit          3D

 27 28  0  0  1  0  0  0  0  0999 V2000
    7.1029  -13.5084   15.6821 O   0  0  0  0  0  0  0  0  0  0  0  0
    7.3405  -13.8008   17.0155 C   0  0  0  0  0  0  0  0  0  0  0  0
    6.9430  -14.9871   17.5977 C   0  0  0  0  0  0  0  0  0  0  0  0
    7.2159  -15.2114   18.9423 C   0  0  0  0  0  0  0  0  0  0  0  0
    7.8717  -14.2688   19.6853 C   0  0  0  0  0  0  0  0  0  0  0  0
    8.1660  -14.4976   21.1134 C   0  0  0  0  0  0  0  0  0  0  0  0
    9.6199  -14.9728   21.2303 C   0  0  2  0  0  0  0  0  0  0  0  0
    9.7142  -16.2115   20.5091 N   0  0  0  0  0  0  0  0  0  0  0  0
    9.8576  -15.1864   22.6921 C   0  0  0  0  0  0  0  0  0  0  0  0
    9.6979  -14.3046   23.5387 O   0  0  0  0  0  0  0  0  0  0  0  0
    8.2798  -13.0717   19.1224 C   0  0  0  0  0  0  0  0  0  0  0  0
    7.9989  -12.8757   17.7969 C   0  0  0  0  0  0  0  0  0  0  0  0
   10.2840  -16.4537   23.1249 N   0  0  0  0  0  0  0  0  0  0  0  0
   10.6108  -16.8818   24.4140 C   0  0  1  0  0  0  0  0  0  0  0  0
    9.7408  -17.7997   25.1864 C   0  0  0  0  0  0  0  0  0  0  0  0
    8.2964  -17.5346   24.9131 C   0  0  0  0  0  0  0  0  0  0  0  0
    7.4885  -16.6652   25.6733 C   0  0  0  0  0  0  0  0  0  0  0  0
    6.2513  -16.6362   25.1858 N   0  0  0  0  0  0  0  0  0  0  0  0
    6.2255  -17.4651   24.1237 C   0  0  0  0  0  0  0  0  0  0  0  0
    7.4469  -17.9807   23.9874 N   0  0  0  0  0  0  0  0  0  0  0  0
   12.0277  -17.2453   24.4972 C   0  0  0  0  0  0  0  0  0  0  0  0
   12.5077  -17.6323   25.6196 O   0  0  0  0  0  0  0  0  0  0  0  0
   12.9583  -17.2157   23.4373 N   0  0  0  0  0  0  0  0  0  0  0  0
   14.3283  -17.6909   23.5792 C   0  0  0  0  0  0  0  0  0  0  0  0
   15.2662  -16.5652   23.7808 C   0  0  0  0  0  0  0  0  0  0  0  0
   14.8140  -15.4048   23.8385 O   0  0  0  0  0  0  0  0  0  0  0  0
   16.6280  -16.7619   23.9070 O   0  0  0  0  0  0  0  0  0  0  0  0
  1  2  1  0
  2 12  2  0
  3  4  2  0
  3  2  1  0
  4  5  1  0
  5  6  1  0
  5 11  2  0
  6  7  1  0
  7  9  1  0
  7  8  1  6
  9 10  2  0
 12 11  1  0
 13 14  1  0
 13  9  1  0
 14 21  1  0
 14 15  1  6
 16 15  1  0
 17 16  2  0
 18 17  1  0
 19 18  1  0
 19 20  2  0
 20 16  1  0
 21 22  2  0
 21 23  1  0
 23 24  1  0
 24 25  1  0
 25 27  1  0
 26 25  2  0
M  END
$$$$
