YHG.pdb
     RDKit          3D

 27 28  0  0  1  0  0  0  0  0999 V2000
    7.8854  -12.1442   16.8479 O   0  0  0  0  0  0  0  0  0  0  0  0
    7.7464  -12.6896   18.1141 C   0  0  0  0  0  0  0  0  0  0  0  0
    6.7804  -13.6275   18.4165 C   0  0  0  0  0  0  0  0  0  0  0  0
    6.7005  -14.1307   19.7100 C   0  0  0  0  0  0  0  0  0  0  0  0
    7.5684  -13.7038   20.6771 C   0  0  0  0  0  0  0  0  0  0  0  0
    7.4915  -14.2320   22.0530 C   0  0  0  0  0  0  0  0  0  0  0  0
    8.4351  -15.4372   22.1544 C   0  0  2  0  0  0  0  0  0  0  0  0
    8.1115  -16.3145   21.0640 N   0  0  0  0  0  0  0  0  0  0  0  0
    8.1255  -16.0818   23.4687 C   0  0  0  0  0  0  0  0  0  0  0  0
    6.9793  -16.2154   23.9026 O   0  0  0  0  0  0  0  0  0  0  0  0
    8.5452  -12.7638   20.3965 C   0  0  0  0  0  0  0  0  0  0  0  0
    8.6025  -12.2843   19.1154 C   0  0  0  0  0  0  0  0  0  0  0  0
    9.1916  -16.5599   24.2499 N   0  0  0  0  0  0  0  0  0  0  0  0
    9.4792  -17.8691   24.6433 C   0  0  1  0  0  0  0  0  0  0  0  0
    9.2209  -19.0335   23.7638 C   0  0  0  0  0  0  0  0  0  0  0  0
    7.7671  -19.1586   23.4442 C   0  0  0  0  0  0  0  0  0  0  0  0
    6.7295  -19.0217   24.3883 C   0  0  0  0  0  0  0  0  0  0  0  0
    5.5459  -19.1846   23.8037 N   0  0  0  0  0  0  0  0  0  0  0  0
    5.7793  -19.4252   22.4985 C   0  0  0  0  0  0  0  0  0  0  0  0
    7.0995  -19.4037   22.3165 N   0  0  0  0  0  0  0  0  0  0  0  0
   10.7868  -17.9389   25.3007 C   0  0  0  0  0  0  0  0  0  0  0  0
   11.1972  -19.0633   25.7558 O   0  0  0  0  0  0  0  0  0  0  0  0
   11.6790  -16.8634   25.4953 N   0  0  0  0  0  0  0  0  0  0  0  0
   12.4976  -16.3157   24.4217 C   0  0  0  0  0  0  0  0  0  0  0  0
   13.6590  -17.1861   24.1378 C   0  0  0  0  0  0  0  0  0  0  0  0
   13.4616  -18.3849   23.8577 O   0  0  0  0  0  0  0  0  0  0  0  0
   14.9556  -16.7101   24.1738 O   0  0  0  0  0  0  0  0  0  0  0  0
  1  2  1  0
  2 12  2  0
  3  4  2  0
  3  2  1  0
  4  5  1  0
  5  6  1  0
  5 11  2  0
  6  7  1  0
  7  9  1  0
  7  8  1  6
  9 10  2  0
 12 11  1  0
 13 14  1  0
 13  9  1  0
 14 21  1  0
 14 15  1  6
 16 15  1  0
 17 16  2  0
 18 17  1  0
 19 18  1  0
 19 20  2  0
 20 16  1  0
 21 22  2  0
 21 23  1  0
 23 24  1  0
 24 25  1  0
 25 27  1  0
 26 25  2  0
M  END
$$$$
