YHG.pdb
     RDKit          3D

 27 28  0  0  1  0  0  0  0  0999 V2000
    6.6623  -10.8285   26.5903 O   0  0  0  0  0  0  0  0  0  0  0  0
    6.7888  -12.2046   26.4888 C   0  0  0  0  0  0  0  0  0  0  0  0
    5.7424  -13.0672   26.7443 C   0  0  0  0  0  0  0  0  0  0  0  0
    5.9434  -14.4374   26.6219 C   0  0  0  0  0  0  0  0  0  0  0  0
    7.1643  -14.9308   26.2522 C   0  0  0  0  0  0  0  0  0  0  0  0
    7.3875  -16.3836   26.1196 C   0  0  0  0  0  0  0  0  0  0  0  0
    6.5672  -16.8849   24.9242 C   0  0  2  0  0  0  0  0  0  0  0  0
    6.4335  -18.3071   25.0757 N   0  0  0  0  0  0  0  0  0  0  0  0
    7.3772  -16.5507   23.7113 C   0  0  0  0  0  0  0  0  0  0  0  0
    8.2202  -17.3113   23.2310 O   0  0  0  0  0  0  0  0  0  0  0  0
    8.2281  -14.0843   25.9909 C   0  0  0  0  0  0  0  0  0  0  0  0
    8.0038  -12.7398   26.1187 C   0  0  0  0  0  0  0  0  0  0  0  0
    7.1694  -15.3092   23.0861 N   0  0  0  0  0  0  0  0  0  0  0  0
    7.6049  -14.8682   21.8341 C   0  0  1  0  0  0  0  0  0  0  0  0
    7.1236  -13.6034   21.2303 C   0  0  0  0  0  0  0  0  0  0  0  0
    7.6835  -13.4109   19.8589 C   0  0  0  0  0  0  0  0  0  0  0  0
    6.9835  -13.6862   18.6669 C   0  0  0  0  0  0  0  0  0  0  0  0
    7.7428  -13.4140   17.6093 N   0  0  0  0  0  0  0  0  0  0  0  0
    8.9250  -12.9663   18.0762 C   0  0  0  0  0  0  0  0  0  0  0  0
    8.8601  -12.9757   19.4074 N   0  0  0  0  0  0  0  0  0  0  0  0
    9.0531  -15.0427   21.6965 C   0  0  0  0  0  0  0  0  0  0  0  0
    9.6057  -14.8044   20.5662 O   0  0  0  0  0  0  0  0  0  0  0  0
    9.9412  -15.4599   22.7102 N   0  0  0  0  0  0  0  0  0  0  0  0
   11.3758  -15.5941   22.4936 C   0  0  0  0  0  0  0  0  0  0  0  0
   12.0574  -16.0790   23.7132 C   0  0  0  0  0  0  0  0  0  0  0  0
   13.3017  -16.1577   23.7194 O   0  0  0  0  0  0  0  0  0  0  0  0
   11.3561  -16.4471   24.8455 O   0  0  0  0  0  0  0  0  0  0  0  0
  1  2  1  0
  2 12  2  0
  3  4  2  0
  3  2  1  0
  4  5  1  0
  5  6  1  0
  5 11  2  0
  6  7  1  0
  7  9  1  0
  7  8  1  1
  9 10  2  0
 12 11  1  0
 13 14  1  0
 13  9  1  0
 14 21  1  0
 14 15  1  1
 16 15  1  0
 17 16  2  0
 18 17  1  0
 19 18  1  0
 19 20  2  0
 20 16  1  0
 21 22  2  0
 21 23  1  0
 23 24  1  0
 24 25  1  0
 25 27  1  0
 26 25  2  0
M  END
$$$$
