YHG.pdb
     RDKit          3D

 27 28  0  0  1  0  0  0  0  0999 V2000
    6.1497  -10.6944   27.0492 O   0  0  0  0  0  0  0  0  0  0  0  0
    6.5572  -11.9409   26.6017 C   0  0  0  0  0  0  0  0  0  0  0  0
    7.6054  -12.1069   25.7197 C   0  0  0  0  0  0  0  0  0  0  0  0
    7.9583  -13.3890   25.3142 C   0  0  0  0  0  0  0  0  0  0  0  0
    7.2765  -14.4785   25.7819 C   0  0  0  0  0  0  0  0  0  0  0  0
    7.6435  -15.8435   25.3573 C   0  0  0  0  0  0  0  0  0  0  0  0
    7.0036  -16.1051   23.9879 C   0  0  2  0  0  0  0  0  0  0  0  0
    5.9743  -17.0870   24.1881 N   0  0  0  0  0  0  0  0  0  0  0  0
    8.1006  -16.6489   23.1279 C   0  0  0  0  0  0  0  0  0  0  0  0
    8.2651  -17.8534   22.9233 O   0  0  0  0  0  0  0  0  0  0  0  0
    6.2217  -14.3359   26.6672 C   0  0  0  0  0  0  0  0  0  0  0  0
    5.8945  -13.0630   27.0506 C   0  0  0  0  0  0  0  0  0  0  0  0
    8.9894  -15.7445   22.5216 N   0  0  0  0  0  0  0  0  0  0  0  0
    9.9640  -15.9831   21.5496 C   0  0  1  0  0  0  0  0  0  0  0  0
   10.2419  -15.0221   20.4563 C   0  0  0  0  0  0  0  0  0  0  0  0
    8.9778  -14.4435   19.9099 C   0  0  0  0  0  0  0  0  0  0  0  0
    7.8977  -15.2069   19.4229 C   0  0  0  0  0  0  0  0  0  0  0  0
    6.9172  -14.4105   19.0063 N   0  0  0  0  0  0  0  0  0  0  0  0
    7.3256  -13.1422   19.2073 C   0  0  0  0  0  0  0  0  0  0  0  0
    8.5456  -13.1935   19.7416 N   0  0  0  0  0  0  0  0  0  0  0  0
   11.1870  -16.5122   22.1588 C   0  0  0  0  0  0  0  0  0  0  0  0
   12.1098  -16.9777   21.4028 O   0  0  0  0  0  0  0  0  0  0  0  0
   11.4725  -16.5677   23.5393 N   0  0  0  0  0  0  0  0  0  0  0  0
   12.5447  -17.3869   24.0890 C   0  0  0  0  0  0  0  0  0  0  0  0
   13.8153  -16.6327   24.1513 C   0  0  0  0  0  0  0  0  0  0  0  0
   14.8109  -17.1684   24.6769 O   0  0  0  0  0  0  0  0  0  0  0  0
   13.9313  -15.3526   23.6442 O   0  0  0  0  0  0  0  0  0  0  0  0
  1  2  1  0
  2 12  2  0
  3  4  2  0
  3  2  1  0
  4  5  1  0
  5  6  1  0
  5 11  2  0
  6  7  1  0
  7  9  1  0
  7  8  1  1
  9 10  2  0
 12 11  1  0
 13 14  1  0
 13  9  1  0
 14 21  1  0
 14 15  1  1
 16 15  1  0
 17 16  2  0
 18 17  1  0
 19 18  1  0
 19 20  2  0
 20 16  1  0
 21 22  2  0
 21 23  1  0
 23 24  1  0
 24 25  1  0
 25 27  1  0
 26 25  2  0
M  END
$$$$
