SRH.pdb
     RDKit          3D

 28 28  0  0  1  0  0  0  0  0999 V2000
    5.0560  -19.5975   25.0650 O   0  0  0  0  0  0  0  0  0  0  0  0
    4.1787  -19.0740   24.1153 C   0  0  0  0  0  0  0  0  0  0  0  0
    4.7849  -19.3277   22.7514 C   0  0  2  0  0  0  0  0  0  0  0  0
    5.0476  -20.7322   22.5934 N   0  0  0  0  0  0  0  0  0  0  0  0
    6.0022  -18.5435   22.5231 C   0  0  0  0  0  0  0  0  0  0  0  0
    7.1533  -19.0265   22.7328 O   0  0  0  0  0  0  0  0  0  0  0  0
    8.3560  -11.8359   18.4507 N   0  0  0  0  0  0  0  0  0  0  0  0
    9.4825  -12.6774   18.6090 C   0  0  0  0  0  0  0  0  0  0  0  0
   10.6621  -12.1735   18.7205 N   0  0  0  0  0  0  0  0  0  0  0  0
    9.3661  -14.1114   18.6523 N   0  0  0  0  0  0  0  0  0  0  0  0
    8.1383  -14.7481   19.1419 C   0  0  0  0  0  0  0  0  0  0  0  0
    7.9425  -14.3814   20.6321 C   0  0  0  0  0  0  0  0  0  0  0  0
    6.7906  -15.1895   21.0868 C   0  0  0  0  0  0  0  0  0  0  0  0
    7.0901  -16.3235   22.0346 C   0  0  2  0  0  0  0  0  0  0  0  0
    5.9030  -17.2138   22.0568 N   0  0  0  0  0  0  0  0  0  0  0  0
    7.4834  -15.9443   23.3814 C   0  0  0  0  0  0  0  0  0  0  0  0
    6.5891  -15.4167   24.1320 O   0  0  0  0  0  0  0  0  0  0  0  0
   11.4815  -12.7751   18.8923 N   0  0  0  0  0  0  0  0  0  0  0  0
    8.7482  -16.0931   23.9702 C   0  0  1  0  0  0  0  0  0  0  0  0
    9.0924  -15.6610   25.3119 C   0  0  0  0  0  0  0  0  0  0  0  0
    7.9254  -15.8111   26.2618 C   0  0  0  0  0  0  0  0  0  0  0  0
    7.1764  -14.5526   26.4570 C   0  0  0  0  0  0  0  0  0  0  0  0
    7.4981  -13.3252   25.9319 N   0  0  0  0  0  0  0  0  0  0  0  0
    6.5867  -12.4136   26.3224 C   0  0  0  0  0  0  0  0  0  0  0  0
    5.6906  -13.0521   27.0900 N   0  0  0  0  0  0  0  0  0  0  0  0
    6.0560  -14.3555   27.1680 C   0  0  0  0  0  0  0  0  0  0  0  0
   10.2180  -16.4088   25.8822 O   0  0  0  0  0  0  0  0  0  0  0  0
   10.8461  -17.3758   25.1414 O   0  0  0  0  0  0  0  0  0  0  0  0
  2  1  1  0
  3  2  1  0
  3  4  1  1
  5  3  1  0
  5  6  2  0
  7  8  1  0
  8  9  2  0
 10  8  1  0
 10 11  1  0
 11 12  1  0
 12 13  1  0
 14 13  1  6
 14 15  1  0
 15  5  1  0
 16 14  1  0
 17 16  2  0
 18 16  1  0
 19 18  1  0
 19 20  1  1
 20 21  1  0
 21 22  2  0
 22 23  1  0
 24 23  1  0
 25 21  1  0
 25 24  2  0
 26 27  1  0
 26 19  1  0
 28 26  2  0
M  END
$$$$
