SRH.pdb
     RDKit          3D

 28 28  0  0  1  0  0  0  0  0999 V2000
   16.1030  -18.9236   14.3776 O   0  0  0  0  0  0  0  0  0  0  0  0
   14.8632  -18.5772   14.9148 C   0  0  0  0  0  0  0  0  0  0  0  0
   15.0053  -17.2008   15.5292 C   0  0  2  0  0  0  0  0  0  0  0  0
   16.3912  -16.9352   15.8035 N   0  0  0  0  0  0  0  0  0  0  0  0
   14.1967  -17.0405   16.7413 C   0  0  0  0  0  0  0  0  0  0  0  0
   13.5594  -15.9730   16.9790 O   0  0  0  0  0  0  0  0  0  0  0  0
    9.5750  -23.2189   20.6025 N   0  0  0  0  0  0  0  0  0  0  0  0
    8.9903  -21.9374   20.7369 C   0  0  0  0  0  0  0  0  0  0  0  0
    7.7253  -21.8167   20.9443 N   0  0  0  0  0  0  0  0  0  0  0  0
    9.7674  -20.7290   20.6500 N   0  0  0  0  0  0  0  0  0  0  0  0
   11.2082  -20.7838   20.3788 C   0  0  0  0  0  0  0  0  0  0  0  0
   11.7738  -19.3438   20.3771 C   0  0  0  0  0  0  0  0  0  0  0  0
   12.5629  -19.2338   19.1314 C   0  0  0  0  0  0  0  0  0  0  0  0
   13.3279  -17.9508   18.9246 C   0  0  2  0  0  0  0  0  0  0  0  0
   14.1170  -18.0963   17.6762 N   0  0  0  0  0  0  0  0  0  0  0  0
   14.1716  -17.5244   20.0287 C   0  0  0  0  0  0  0  0  0  0  0  0
   15.3150  -18.0894   20.1515 O   0  0  0  0  0  0  0  0  0  0  0  0
    7.2896  -20.8868   21.0368 N   0  0  0  0  0  0  0  0  0  0  0  0
   13.8797  -16.5470   20.9919 C   0  0  2  0  0  0  0  0  0  0  0  0
   14.0114  -16.7321   22.4250 C   0  0  0  0  0  0  0  0  0  0  0  0
   12.9561  -17.6713   22.9645 C   0  0  0  0  0  0  0  0  0  0  0  0
   11.6257  -17.0386   23.0772 C   0  0  0  0  0  0  0  0  0  0  0  0
   10.9666  -16.3499   22.0888 N   0  0  0  0  0  0  0  0  0  0  0  0
    9.7788  -15.9179   22.5540 C   0  0  0  0  0  0  0  0  0  0  0  0
    9.6792  -16.3265   23.8281 N   0  0  0  0  0  0  0  0  0  0  0  0
   10.8083  -17.0089   24.1406 C   0  0  0  0  0  0  0  0  0  0  0  0
   15.3177  -17.2744   22.8137 O   0  0  0  0  0  0  0  0  0  0  0  0
   16.3844  -16.4330   22.9944 O   0  0  0  0  0  0  0  0  0  0  0  0
  2  1  1  0
  3  2  1  0
  3  4  1  1
  5  3  1  0
  5  6  2  0
  7  8  1  0
  8  9  2  0
 10  8  1  0
 10 11  1  0
 11 12  1  0
 12 13  1  0
 14 13  1  1
 14 15  1  0
 15  5  1  0
 16 14  1  0
 17 16  2  0
 18 16  1  0
 19 18  1  0
 19 20  1  6
 20 21  1  0
 21 22  2  0
 22 23  1  0
 24 23  1  0
 25 21  1  0
 25 24  2  0
 26 27  1  0
 26 19  1  0
 28 26  2  0
M  END
$$$$
