SRH.pdb
     RDKit          3D

 28 28  0  0  1  0  0  0  0  0999 V2000
    7.4860  -12.5918   27.6711 O   0  0  0  0  0  0  0  0  0  0  0  0
    6.9727  -12.0509   26.4922 C   0  0  0  0  0  0  0  0  0  0  0  0
    6.1153  -13.1159   25.8420 C   0  0  2  0  0  0  0  0  0  0  0  0
    5.3991  -13.8435   26.8540 N   0  0  0  0  0  0  0  0  0  0  0  0
    6.8951  -14.0286   25.0008 C   0  0  0  0  0  0  0  0  0  0  0  0
    6.8359  -15.2842   25.1498 O   0  0  0  0  0  0  0  0  0  0  0  0
    7.3436  -15.9239   17.4356 N   0  0  0  0  0  0  0  0  0  0  0  0
    7.9630  -14.7135   17.0440 C   0  0  0  0  0  0  0  0  0  0  0  0
    8.4471  -14.5829   15.8581 N   0  0  0  0  0  0  0  0  0  0  0  0
    8.0796  -13.5901   17.9363 N   0  0  0  0  0  0  0  0  0  0  0  0
    7.4415  -13.6143   19.2573 C   0  0  0  0  0  0  0  0  0  0  0  0
    8.5028  -13.9838   20.3206 C   0  0  0  0  0  0  0  0  0  0  0  0
    7.9891  -13.4358   21.5944 C   0  0  0  0  0  0  0  0  0  0  0  0
    8.1029  -14.3225   22.8088 C   0  0  2  0  0  0  0  0  0  0  0  0
    7.7378  -13.5075   23.9940 N   0  0  0  0  0  0  0  0  0  0  0  0
    9.3846  -14.9802   23.0024 C   0  0  0  0  0  0  0  0  0  0  0  0
    9.8595  -15.6504   22.0191 O   0  0  0  0  0  0  0  0  0  0  0  0
    8.8799  -13.6970   15.5567 N   0  0  0  0  0  0  0  0  0  0  0  0
   10.1804  -14.9655   24.1577 C   0  0  2  0  0  0  0  0  0  0  0  0
   11.0149  -16.0663   24.6017 C   0  0  0  0  0  0  0  0  0  0  0  0
   10.4708  -16.7054   25.8597 C   0  0  0  0  0  0  0  0  0  0  0  0
   10.2934  -15.7411   26.9649 C   0  0  0  0  0  0  0  0  0  0  0  0
   10.6110  -14.4054   26.9374 N   0  0  0  0  0  0  0  0  0  0  0  0
   10.3096  -13.8447   28.1244 C   0  0  0  0  0  0  0  0  0  0  0  0
    9.8041  -14.8129   28.9036 N   0  0  0  0  0  0  0  0  0  0  0  0
    9.7971  -15.9662   28.1908 C   0  0  0  0  0  0  0  0  0  0  0  0
   11.1464  -17.1259   23.5960 O   0  0  0  0  0  0  0  0  0  0  0  0
   12.3253  -17.2842   22.9151 O   0  0  0  0  0  0  0  0  0  0  0  0
  2  1  1  0
  3  2  1  0
  3  4  1  1
  5  3  1  0
  5  6  2  0
  7  8  1  0
  8  9  2  0
 10  8  1  0
 10 11  1  0
 11 12  1  0
 12 13  1  0
 14 13  1  6
 14 15  1  0
 15  5  1  0
 16 14  1  0
 17 16  2  0
 18 16  1  0
 19 18  1  0
 19 20  1  1
 20 21  1  0
 21 22  2  0
 22 23  1  0
 24 23  1  0
 25 21  1  0
 25 24  2  0
 26 27  1  0
 26 19  1  0
 28 26  2  0
M  END
$$$$
