SRH.pdb
     RDKit          3D

 28 28  0  0  1  0  0  0  0  0999 V2000
    8.2030  -12.0045   20.9544 O   0  0  0  0  0  0  0  0  0  0  0  0
    9.0773  -12.2577   19.8974 C   0  0  0  0  0  0  0  0  0  0  0  0
    8.5146  -13.4255   19.1152 C   0  0  2  0  0  0  0  0  0  0  0  0
    7.2959  -13.0284   18.4643 N   0  0  0  0  0  0  0  0  0  0  0  0
    8.2938  -14.6082   19.9526 C   0  0  0  0  0  0  0  0  0  0  0  0
    7.1326  -14.9601   20.3133 O   0  0  0  0  0  0  0  0  0  0  0  0
    9.6234  -16.5605   16.5873 N   0  0  0  0  0  0  0  0  0  0  0  0
   10.5339  -17.5904   16.2524 C   0  0  0  0  0  0  0  0  0  0  0  0
   10.9995  -17.6851   15.0557 N   0  0  0  0  0  0  0  0  0  0  0  0
   10.9757  -18.5642   17.2159 N   0  0  0  0  0  0  0  0  0  0  0  0
   10.3020  -18.6927   18.5128 C   0  0  0  0  0  0  0  0  0  0  0  0
   10.6534  -17.4642   19.3850 C   0  0  0  0  0  0  0  0  0  0  0  0
    9.9904  -17.7035   20.6849 C   0  0  0  0  0  0  0  0  0  0  0  0
    9.2061  -16.5548   21.2675 C   0  0  2  0  0  0  0  0  0  0  0  0
    9.3958  -15.3847   20.3745 N   0  0  0  0  0  0  0  0  0  0  0  0
    9.5047  -16.2117   22.6480 C   0  0  0  0  0  0  0  0  0  0  0  0
   10.4914  -15.4226   22.8609 O   0  0  0  0  0  0  0  0  0  0  0  0
   11.5929  -18.4816   14.7792 N   0  0  0  0  0  0  0  0  0  0  0  0
    8.8264  -16.6465   23.7966 C   0  0  1  0  0  0  0  0  0  0  0  0
    9.1959  -16.3007   25.1564 C   0  0  0  0  0  0  0  0  0  0  0  0
    7.9863  -15.9301   25.9850 C   0  0  0  0  0  0  0  0  0  0  0  0
    7.4932  -14.5656   25.7056 C   0  0  0  0  0  0  0  0  0  0  0  0
    8.0555  -13.6590   24.8410 N   0  0  0  0  0  0  0  0  0  0  0  0
    7.3326  -12.5226   24.8446 C   0  0  0  0  0  0  0  0  0  0  0  0
    6.3174  -12.7009   25.7035 N   0  0  0  0  0  0  0  0  0  0  0  0
    6.4213  -13.9482   26.2248 C   0  0  0  0  0  0  0  0  0  0  0  0
    9.8866  -17.3895   25.8557 O   0  0  0  0  0  0  0  0  0  0  0  0
   10.3831  -17.1895   27.1174 O   0  0  0  0  0  0  0  0  0  0  0  0
  2  1  1  0
  3  2  1  0
  3  4  1  1
  5  3  1  0
  5  6  2  0
  7  8  1  0
  8  9  2  0
 10  8  1  0
 10 11  1  0
 11 12  1  0
 12 13  1  0
 14 13  1  6
 14 15  1  0
 15  5  1  0
 16 14  1  0
 17 16  2  0
 18 16  1  0
 19 18  1  0
 19 20  1  1
 20 21  1  0
 21 22  2  0
 22 23  1  0
 24 23  1  0
 25 21  1  0
 25 24  2  0
 26 27  1  0
 26 19  1  0
 28 26  2  0
M  END
$$$$
