SRH.pdb
     RDKit          3D

 28 28  0  0  1  0  0  0  0  0999 V2000
    9.2173  -17.2623   18.1621 O   0  0  0  0  0  0  0  0  0  0  0  0
    8.9785  -18.6260   17.9915 C   0  0  0  0  0  0  0  0  0  0  0  0
    7.4950  -18.8534   18.1901 C   0  0  2  0  0  0  0  0  0  0  0  0
    6.7607  -18.1865   17.1496 N   0  0  0  0  0  0  0  0  0  0  0  0
    7.0322  -18.4194   19.5115 C   0  0  0  0  0  0  0  0  0  0  0  0
    6.3243  -17.3806   19.6599 O   0  0  0  0  0  0  0  0  0  0  0  0
    8.9497  -19.8063   26.5883 N   0  0  0  0  0  0  0  0  0  0  0  0
    7.8073  -20.3715   27.2028 C   0  0  0  0  0  0  0  0  0  0  0  0
    7.6670  -20.3291   28.4819 N   0  0  0  0  0  0  0  0  0  0  0  0
    6.7657  -21.0095   26.4412 N   0  0  0  0  0  0  0  0  0  0  0  0
    6.8786  -21.1432   24.9845 C   0  0  0  0  0  0  0  0  0  0  0  0
    6.8305  -19.7349   24.3459 C   0  0  0  0  0  0  0  0  0  0  0  0
    6.9000  -19.9634   22.8866 C   0  0  0  0  0  0  0  0  0  0  0  0
    6.9470  -18.7373   22.0100 C   0  0  2  0  0  0  0  0  0  0  0  0
    7.3769  -19.1704   20.6572 N   0  0  0  0  0  0  0  0  0  0  0  0
    7.7673  -17.6382   22.4914 C   0  0  0  0  0  0  0  0  0  0  0  0
    9.0393  -17.7791   22.4304 O   0  0  0  0  0  0  0  0  0  0  0  0
    6.8442  -20.7497   28.9393 N   0  0  0  0  0  0  0  0  0  0  0  0
    7.3243  -16.4170   23.0213 C   0  0  2  0  0  0  0  0  0  0  0  0
    8.1920  -15.3792   23.5460 C   0  0  0  0  0  0  0  0  0  0  0  0
    7.6660  -13.9983   23.2246 C   0  0  0  0  0  0  0  0  0  0  0  0
    7.8166  -13.6422   21.7987 C   0  0  0  0  0  0  0  0  0  0  0  0
    8.4597  -14.3845   20.8388 N   0  0  0  0  0  0  0  0  0  0  0  0
    8.3941  -13.7462   19.6547 C   0  0  0  0  0  0  0  0  0  0  0  0
    7.7155  -12.6063   19.8554 N   0  0  0  0  0  0  0  0  0  0  0  0
    7.3665  -12.5493   21.1643 C   0  0  0  0  0  0  0  0  0  0  0  0
    8.3586  -15.4548   25.0013 O   0  0  0  0  0  0  0  0  0  0  0  0
    9.2486  -14.6271   25.6347 O   0  0  0  0  0  0  0  0  0  0  0  0
  2  1  1  0
  3  2  1  0
  3  4  1  6
  5  3  1  0
  5  6  2  0
  7  8  1  0
  8  9  2  0
 10  8  1  0
 10 11  1  0
 11 12  1  0
 12 13  1  0
 14 13  1  1
 14 15  1  0
 15  5  1  0
 16 14  1  0
 17 16  2  0
 18 16  1  0
 19 18  1  0
 19 20  1  6
 20 21  1  0
 21 22  2  0
 22 23  1  0
 24 23  1  0
 25 21  1  0
 25 24  2  0
 26 27  1  0
 26 19  1  0
 28 26  2  0
M  END
$$$$
