SRH.pdb
     RDKit          3D

 28 28  0  0  1  0  0  0  0  0999 V2000
   11.9379  -15.9321   15.7095 O   0  0  0  0  0  0  0  0  0  0  0  0
   12.2296  -17.2704   15.4462 C   0  0  0  0  0  0  0  0  0  0  0  0
   10.9217  -18.0324   15.4753 C   0  0  2  0  0  0  0  0  0  0  0  0
   10.0062  -17.4565   14.5283 N   0  0  0  0  0  0  0  0  0  0  0  0
   10.3255  -18.0739   16.8139 C   0  0  0  0  0  0  0  0  0  0  0  0
    9.1978  -17.5522   17.0558 O   0  0  0  0  0  0  0  0  0  0  0  0
   11.4342  -25.2054   21.0866 N   0  0  0  0  0  0  0  0  0  0  0  0
   10.4735  -25.0785   20.0556 C   0  0  0  0  0  0  0  0  0  0  0  0
    9.8742  -26.1192   19.5913 N   0  0  0  0  0  0  0  0  0  0  0  0
   10.1262  -23.8029   19.4863 N   0  0  0  0  0  0  0  0  0  0  0  0
   10.7358  -22.5674   19.9908 C   0  0  0  0  0  0  0  0  0  0  0  0
   10.1326  -21.3630   19.2298 C   0  0  0  0  0  0  0  0  0  0  0  0
   10.8125  -20.1708   19.7803 C   0  0  0  0  0  0  0  0  0  0  0  0
   10.4015  -18.8346   19.2151 C   0  0  2  0  0  0  0  0  0  0  0  0
   11.0156  -18.7094   17.8699 N   0  0  0  0  0  0  0  0  0  0  0  0
   10.7019  -17.6733   20.0361 C   0  0  0  0  0  0  0  0  0  0  0  0
   11.8719  -17.1618   19.9310 O   0  0  0  0  0  0  0  0  0  0  0  0
    9.1494  -26.0329   18.8631 N   0  0  0  0  0  0  0  0  0  0  0  0
    9.8465  -17.0314   20.9442 C   0  0  2  0  0  0  0  0  0  0  0  0
   10.2255  -15.9158   21.7910 C   0  0  0  0  0  0  0  0  0  0  0  0
    9.0641  -14.9767   22.0277 C   0  0  0  0  0  0  0  0  0  0  0  0
    8.6350  -14.2714   20.8024 C   0  0  0  0  0  0  0  0  0  0  0  0
    9.2279  -14.3544   19.5666 N   0  0  0  0  0  0  0  0  0  0  0  0
    8.5625  -13.5749   18.6928 C   0  0  0  0  0  0  0  0  0  0  0  0
    7.5534  -12.9988   19.3636 N   0  0  0  0  0  0  0  0  0  0  0  0
    7.6035  -13.4276   20.6489 C   0  0  0  0  0  0  0  0  0  0  0  0
   10.7199  -16.3382   23.1058 O   0  0  0  0  0  0  0  0  0  0  0  0
   11.3398  -15.4348   23.9292 O   0  0  0  0  0  0  0  0  0  0  0  0
  2  1  1  0
  3  2  1  0
  3  4  1  6
  5  3  1  0
  5  6  2  0
  7  8  1  0
  8  9  2  0
 10  8  1  0
 10 11  1  0
 11 12  1  0
 12 13  1  0
 14 13  1  1
 14 15  1  0
 15  5  1  0
 16 14  1  0
 17 16  2  0
 18 16  1  0
 19 18  1  0
 19 20  1  6
 20 21  1  0
 21 22  2  0
 22 23  1  0
 24 23  1  0
 25 21  1  0
 25 24  2  0
 26 27  1  0
 26 19  1  0
 28 26  2  0
M  END
$$$$
