SRH.pdb
     RDKit          3D

 28 28  0  0  1  0  0  0  0  0999 V2000
   10.5271  -12.4162   20.2450 O   0  0  0  0  0  0  0  0  0  0  0  0
   10.4719  -13.2294   19.1130 C   0  0  0  0  0  0  0  0  0  0  0  0
    9.0397  -13.6962   18.9611 C   0  0  2  0  0  0  0  0  0  0  0  0
    8.1659  -12.5572   18.8867 N   0  0  0  0  0  0  0  0  0  0  0  0
    8.6255  -14.5981   20.0400 C   0  0  0  0  0  0  0  0  0  0  0  0
    7.7761  -14.2473   20.9104 O   0  0  0  0  0  0  0  0  0  0  0  0
    9.7633  -23.0339   19.6077 N   0  0  0  0  0  0  0  0  0  0  0  0
    9.1779  -22.3933   20.7253 C   0  0  0  0  0  0  0  0  0  0  0  0
    8.9481  -23.0517   21.8076 N   0  0  0  0  0  0  0  0  0  0  0  0
    8.8176  -20.9999   20.7065 N   0  0  0  0  0  0  0  0  0  0  0  0
    9.0781  -20.1755   19.5211 C   0  0  0  0  0  0  0  0  0  0  0  0
    8.4729  -18.7694   19.7446 C   0  0  0  0  0  0  0  0  0  0  0  0
    9.2350  -18.1888   20.8709 C   0  0  0  0  0  0  0  0  0  0  0  0
    8.8801  -16.7800   21.2749 C   0  0  2  0  0  0  0  0  0  0  0  0
    9.1798  -15.8947   20.1221 N   0  0  0  0  0  0  0  0  0  0  0  0
    9.5072  -16.2858   22.4894 C   0  0  0  0  0  0  0  0  0  0  0  0
   10.7109  -15.8558   22.4003 O   0  0  0  0  0  0  0  0  0  0  0  0
    8.4953  -22.6006   22.6166 N   0  0  0  0  0  0  0  0  0  0  0  0
    8.9402  -16.2188   23.7709 C   0  0  2  0  0  0  0  0  0  0  0  0
    9.6378  -15.7720   24.9622 C   0  0  0  0  0  0  0  0  0  0  0  0
    8.6732  -15.3287   26.0391 C   0  0  0  0  0  0  0  0  0  0  0  0
    9.3538  -14.8263   27.2504 C   0  0  0  0  0  0  0  0  0  0  0  0
   10.7105  -14.7318   27.4406 N   0  0  0  0  0  0  0  0  0  0  0  0
   10.9613  -14.2281   28.6643 C   0  0  0  0  0  0  0  0  0  0  0  0
    9.7761  -14.0026   29.2512 N   0  0  0  0  0  0  0  0  0  0  0  0
    8.8005  -14.3694   28.3840 C   0  0  0  0  0  0  0  0  0  0  0  0
   10.4958  -16.8090   25.5451 O   0  0  0  0  0  0  0  0  0  0  0  0
   10.3689  -18.1125   25.1411 O   0  0  0  0  0  0  0  0  0  0  0  0
  2  1  1  0
  3  2  1  0
  3  4  1  1
  5  3  1  0
  5  6  2  0
  7  8  1  0
  8  9  2  0
 10  8  1  0
 10 11  1  0
 11 12  1  0
 12 13  1  0
 14 13  1  6
 14 15  1  0
 15  5  1  0
 16 14  1  0
 17 16  2  0
 18 16  1  0
 19 18  1  0
 19 20  1  6
 20 21  1  0
 21 22  2  0
 22 23  1  0
 24 23  1  0
 25 21  1  0
 25 24  2  0
 26 27  1  0
 26 19  1  0
 28 26  2  0
M  END
$$$$
