SRH.pdb
     RDKit          3D

 28 28  0  0  1  0  0  0  0  0999 V2000
    7.9946  -20.1282   23.2704 O   0  0  0  0  0  0  0  0  0  0  0  0
    6.8795  -19.7595   22.5178 C   0  0  0  0  0  0  0  0  0  0  0  0
    7.3827  -19.2506   21.1837 C   0  0  2  0  0  0  0  0  0  0  0  0
    7.9347  -20.3417   20.4278 N   0  0  0  0  0  0  0  0  0  0  0  0
    8.3637  -18.1710   21.3281 C   0  0  0  0  0  0  0  0  0  0  0  0
    9.6088  -18.3986   21.3203 O   0  0  0  0  0  0  0  0  0  0  0  0
    8.3654  -13.7658   15.6061 N   0  0  0  0  0  0  0  0  0  0  0  0
    8.5322  -13.6747   17.0082 C   0  0  0  0  0  0  0  0  0  0  0  0
    9.5085  -14.2806   17.5892 N   0  0  0  0  0  0  0  0  0  0  0  0
    7.6348  -12.9141   17.8376 N   0  0  0  0  0  0  0  0  0  0  0  0
    7.6511  -13.0695   19.2964 C   0  0  0  0  0  0  0  0  0  0  0  0
    8.4359  -14.3535   19.6557 C   0  0  0  0  0  0  0  0  0  0  0  0
    8.3231  -14.4841   21.1243 C   0  0  0  0  0  0  0  0  0  0  0  0
    8.8875  -15.7404   21.7385 C   0  0  2  0  0  0  0  0  0  0  0  0
    7.9224  -16.8378   21.4800 N   0  0  0  0  0  0  0  0  0  0  0  0
    9.2269  -15.6655   23.1498 C   0  0  0  0  0  0  0  0  0  0  0  0
    8.3204  -15.9927   23.9940 O   0  0  0  0  0  0  0  0  0  0  0  0
    9.6347  -14.2242   18.6109 N   0  0  0  0  0  0  0  0  0  0  0  0
   10.4528  -15.2737   23.7085 C   0  0  1  0  0  0  0  0  0  0  0  0
   10.7476  -15.2587   25.1291 C   0  0  0  0  0  0  0  0  0  0  0  0
    9.4874  -15.1515   25.9582 C   0  0  0  0  0  0  0  0  0  0  0  0
    9.7593  -15.0173   27.4043 C   0  0  0  0  0  0  0  0  0  0  0  0
   10.9967  -14.9540   27.9965 N   0  0  0  0  0  0  0  0  0  0  0  0
   10.8538  -14.8318   29.3301 C   0  0  0  0  0  0  0  0  0  0  0  0
    9.5372  -14.8171   29.5884 N   0  0  0  0  0  0  0  0  0  0  0  0
    8.8760  -14.9306   28.4102 C   0  0  0  0  0  0  0  0  0  0  0  0
   11.4637  -16.4579   25.5771 O   0  0  0  0  0  0  0  0  0  0  0  0
   11.0291  -17.7003   25.1952 O   0  0  0  0  0  0  0  0  0  0  0  0
  2  1  1  0
  3  2  1  0
  3  4  1  1
  5  3  1  0
  5  6  2  0
  7  8  1  0
  8  9  2  0
 10  8  1  0
 10 11  1  0
 11 12  1  0
 12 13  1  0
 14 13  1  1
 14 15  1  0
 15  5  1  0
 16 14  1  0
 17 16  2  0
 18 16  1  0
 19 18  1  0
 19 20  1  1
 20 21  1  0
 21 22  2  0
 22 23  1  0
 24 23  1  0
 25 21  1  0
 25 24  2  0
 26 27  1  0
 26 19  1  0
 28 26  2  0
M  END
$$$$
