SRH.pdb
     RDKit          3D

 28 28  0  0  1  0  0  0  0  0999 V2000
   12.9347  -18.9746   23.3548 O   0  0  0  0  0  0  0  0  0  0  0  0
   12.4253  -19.0318   22.0575 C   0  0  0  0  0  0  0  0  0  0  0  0
   12.5613  -17.6487   21.4570 C   0  0  2  0  0  0  0  0  0  0  0  0
   13.9513  -17.3480   21.2469 N   0  0  0  0  0  0  0  0  0  0  0  0
   11.9254  -16.6147   22.2788 C   0  0  0  0  0  0  0  0  0  0  0  0
   12.6071  -15.8006   22.9679 O   0  0  0  0  0  0  0  0  0  0  0  0
    6.6853  -16.5453   18.2805 N   0  0  0  0  0  0  0  0  0  0  0  0
    5.8778  -17.2592   19.1972 C   0  0  0  0  0  0  0  0  0  0  0  0
    5.1319  -18.2274   18.7923 N   0  0  0  0  0  0  0  0  0  0  0  0
    5.8518  -16.9433   20.6012 N   0  0  0  0  0  0  0  0  0  0  0  0
    6.6487  -15.8321   21.1331 C   0  0  0  0  0  0  0  0  0  0  0  0
    7.7227  -16.3985   22.0919 C   0  0  0  0  0  0  0  0  0  0  0  0
    8.4906  -15.2240   22.5584 C   0  0  0  0  0  0  0  0  0  0  0  0
    9.8464  -15.4959   23.1599 C   0  0  2  0  0  0  0  0  0  0  0  0
   10.5170  -16.5122   22.3115 N   0  0  0  0  0  0  0  0  0  0  0  0
    9.8576  -15.8934   24.5579 C   0  0  0  0  0  0  0  0  0  0  0  0
    9.5164  -17.0974   24.8329 O   0  0  0  0  0  0  0  0  0  0  0  0
    4.6193  -18.8184   19.4638 N   0  0  0  0  0  0  0  0  0  0  0  0
   10.2075  -15.1025   25.6627 C   0  0  2  0  0  0  0  0  0  0  0  0
    9.7414  -15.3229   27.0190 C   0  0  0  0  0  0  0  0  0  0  0  0
    8.2316  -15.2946   27.1004 C   0  0  0  0  0  0  0  0  0  0  0  0
    7.6679  -13.9478   26.8742 C   0  0  0  0  0  0  0  0  0  0  0  0
    8.3805  -12.7941   26.6572 N   0  0  0  0  0  0  0  0  0  0  0  0
    7.5306  -11.7626   26.4906 C   0  0  0  0  0  0  0  0  0  0  0  0
    6.2862  -12.2521   26.6000 N   0  0  0  0  0  0  0  0  0  0  0  0
    6.3772  -13.5845   26.8339 C   0  0  0  0  0  0  0  0  0  0  0  0
   10.1842  -16.6063   27.5743 O   0  0  0  0  0  0  0  0  0  0  0  0
   10.8792  -17.4904   26.7909 O   0  0  0  0  0  0  0  0  0  0  0  0
  2  1  1  0
  3  2  1  0
  3  4  1  1
  5  3  1  0
  5  6  2  0
  7  8  1  0
  8  9  2  0
 10  8  1  0
 10 11  1  0
 11 12  1  0
 12 13  1  0
 14 13  1  6
 14 15  1  0
 15  5  1  0
 16 14  1  0
 17 16  2  0
 18 16  1  0
 19 18  1  0
 19 20  1  6
 20 21  1  0
 21 22  2  0
 22 23  1  0
 24 23  1  0
 25 21  1  0
 25 24  2  0
 26 27  1  0
 26 19  1  0
 28 26  2  0
M  END
$$$$
