SRH.pdb
     RDKit          3D

 28 28  0  0  1  0  0  0  0  0999 V2000
   16.6503  -18.0940   16.0290 O   0  0  0  0  0  0  0  0  0  0  0  0
   15.3511  -18.4908   15.7122 C   0  0  0  0  0  0  0  0  0  0  0  0
   14.5476  -17.2358   15.4452 C   0  0  2  0  0  0  0  0  0  0  0  0
   15.2675  -16.3856   14.5367 N   0  0  0  0  0  0  0  0  0  0  0  0
   14.2098  -16.5129   16.6749 C   0  0  0  0  0  0  0  0  0  0  0  0
   14.9531  -15.5962   17.1326 O   0  0  0  0  0  0  0  0  0  0  0  0
    7.2042  -12.3873   21.2359 N   0  0  0  0  0  0  0  0  0  0  0  0
    8.1018  -12.5364   20.1523 C   0  0  0  0  0  0  0  0  0  0  0  0
    8.6816  -11.5074   19.6397 N   0  0  0  0  0  0  0  0  0  0  0  0
    8.4046  -13.8224   19.5811 N   0  0  0  0  0  0  0  0  0  0  0  0
    9.6729  -14.0497   18.8795 C   0  0  0  0  0  0  0  0  0  0  0  0
   10.4518  -15.1743   19.6021 C   0  0  0  0  0  0  0  0  0  0  0  0
   11.0950  -15.9595   18.5267 C   0  0  0  0  0  0  0  0  0  0  0  0
   12.6003  -16.0437   18.5563 C   0  0  2  0  0  0  0  0  0  0  0  0
   13.0276  -16.8366   17.3769 N   0  0  0  0  0  0  0  0  0  0  0  0
   13.1875  -16.5677   19.7782 C   0  0  0  0  0  0  0  0  0  0  0  0
   13.0567  -17.8217   20.0064 O   0  0  0  0  0  0  0  0  0  0  0  0
    9.2863  -11.5982   18.8096 N   0  0  0  0  0  0  0  0  0  0  0  0
   13.8971  -15.8518   20.7541 C   0  0  2  0  0  0  0  0  0  0  0  0
   14.3927  -16.4146   21.9962 C   0  0  0  0  0  0  0  0  0  0  0  0
   15.3903  -15.4957   22.6651 C   0  0  0  0  0  0  0  0  0  0  0  0
   16.6650  -15.3935   21.9251 C   0  0  0  0  0  0  0  0  0  0  0  0
   17.0114  -16.1015   20.8007 N   0  0  0  0  0  0  0  0  0  0  0  0
   18.2481  -15.7440   20.4046 C   0  0  0  0  0  0  0  0  0  0  0  0
   18.6884  -14.8160   21.2678 N   0  0  0  0  0  0  0  0  0  0  0  0
   17.7187  -14.6071   22.1920 C   0  0  0  0  0  0  0  0  0  0  0  0
   13.3270  -16.6827   22.9678 O   0  0  0  0  0  0  0  0  0  0  0  0
   12.0211  -16.4209   22.6447 O   0  0  0  0  0  0  0  0  0  0  0  0
  2  1  1  0
  3  2  1  0
  3  4  1  6
  5  3  1  0
  5  6  2  0
  7  8  1  0
  8  9  2  0
 10  8  1  0
 10 11  1  0
 11 12  1  0
 12 13  1  0
 14 13  1  1
 14 15  1  0
 15  5  1  0
 16 14  1  0
 17 16  2  0
 18 16  1  0
 19 18  1  0
 19 20  1  6
 20 21  1  0
 21 22  2  0
 22 23  1  0
 24 23  1  0
 25 21  1  0
 25 24  2  0
 26 27  1  0
 26 19  1  0
 28 26  2  0
M  END
$$$$
