SRH.pdb
     RDKit          3D

 28 28  0  0  1  0  0  0  0  0999 V2000
   15.4030  -17.1866   19.6860 O   0  0  0  0  0  0  0  0  0  0  0  0
   15.2192  -17.1099   18.3054 C   0  0  0  0  0  0  0  0  0  0  0  0
   15.0372  -15.6485   17.9541 C   0  0  2  0  0  0  0  0  0  0  0  0
   16.3053  -14.9746   18.0200 N   0  0  0  0  0  0  0  0  0  0  0  0
   14.0512  -14.9834   18.8109 C   0  0  0  0  0  0  0  0  0  0  0  0
   14.3863  -14.4088   19.8879 O   0  0  0  0  0  0  0  0  0  0  0  0
    6.7446  -12.9194   15.5046 N   0  0  0  0  0  0  0  0  0  0  0  0
    7.4771  -14.0793   15.8513 C   0  0  0  0  0  0  0  0  0  0  0  0
    7.3676  -15.1534   15.1499 N   0  0  0  0  0  0  0  0  0  0  0  0
    8.3641  -14.1137   16.9844 N   0  0  0  0  0  0  0  0  0  0  0  0
    8.3048  -13.0693   18.0132 C   0  0  0  0  0  0  0  0  0  0  0  0
    9.3095  -13.4148   19.1378 C   0  0  0  0  0  0  0  0  0  0  0  0
   10.4869  -13.9866   18.4497 C   0  0  0  0  0  0  0  0  0  0  0  0
   11.6612  -14.3650   19.3168 C   0  0  2  0  0  0  0  0  0  0  0  0
   12.6890  -14.9751   18.4372 N   0  0  0  0  0  0  0  0  0  0  0  0
   11.3676  -15.2252   20.4510 C   0  0  0  0  0  0  0  0  0  0  0  0
   11.3153  -16.4874   20.2377 O   0  0  0  0  0  0  0  0  0  0  0  0
    7.9586  -15.9757   15.3434 N   0  0  0  0  0  0  0  0  0  0  0  0
   11.1339  -14.8313   21.7772 C   0  0  2  0  0  0  0  0  0  0  0  0
   10.6843  -15.7156   22.8360 C   0  0  0  0  0  0  0  0  0  0  0  0
    9.5455  -16.5988   22.3779 C   0  0  0  0  0  0  0  0  0  0  0  0
    8.3609  -15.8310   21.9417 C   0  0  0  0  0  0  0  0  0  0  0  0
    8.0283  -14.5574   22.3329 N   0  0  0  0  0  0  0  0  0  0  0  0
    6.8831  -14.1840   21.7303 C   0  0  0  0  0  0  0  0  0  0  0  0
    6.4870  -15.2094   20.9609 N   0  0  0  0  0  0  0  0  0  0  0  0
    7.3922  -16.2100   21.0946 C   0  0  0  0  0  0  0  0  0  0  0  0
   11.7459  -16.5964   23.3348 O   0  0  0  0  0  0  0  0  0  0  0  0
   12.6051  -17.2025   22.4556 O   0  0  0  0  0  0  0  0  0  0  0  0
  2  1  1  0
  3  2  1  0
  3  4  1  1
  5  3  1  0
  5  6  2  0
  7  8  1  0
  8  9  2  0
 10  8  1  0
 10 11  1  0
 11 12  1  0
 12 13  1  0
 14 13  1  6
 14 15  1  0
 15  5  1  0
 16 14  1  0
 17 16  2  0
 18 16  1  0
 19 18  1  0
 19 20  1  1
 20 21  1  0
 21 22  2  0
 22 23  1  0
 24 23  1  0
 25 21  1  0
 25 24  2  0
 26 27  1  0
 26 19  1  0
 28 26  2  0
M  END
$$$$
