PKG.pdb
     RDKit          3D

 21 21  0  0  1  0  0  0  0  0999 V2000
    8.1050  -15.1322   19.8336 N   0  0  0  0  0  0  0  0  0  0  0  0
    7.6075  -14.6896   18.5651 C   0  0  0  0  0  0  0  0  0  0  0  0
    7.2457  -13.2322   18.6929 C   0  0  0  0  0  0  0  0  0  0  0  0
    7.1167  -13.0926   20.2150 C   0  0  0  0  0  0  0  0  0  0  0  0
    8.2425  -13.9622   20.6792 C   0  0  1  0  0  0  0  0  0  0  0  0
    8.1547  -14.3067   22.1154 C   0  0  0  0  0  0  0  0  0  0  0  0
    8.2490  -13.3627   22.9388 O   0  0  0  0  0  0  0  0  0  0  0  0
    7.9738  -15.6173   22.6006 N   0  0  0  0  0  0  0  0  0  0  0  0
    7.9252  -15.8463   24.0291 C   0  0  1  0  0  0  0  0  0  0  0  0
    7.0476  -17.0492   24.2428 C   0  0  0  0  0  0  0  0  0  0  0  0
    6.9349  -17.5122   25.6499 C   0  0  0  0  0  0  0  0  0  0  0  0
    7.2501  -18.9541   25.8801 C   0  0  0  0  0  0  0  0  0  0  0  0
    7.0744  -19.4661   27.2626 C   0  0  0  0  0  0  0  0  0  0  0  0
    7.4072  -20.8471   27.4747 N   0  0  0  0  0  0  0  0  0  0  0  0
    9.2823  -16.0006   24.6034 C   0  0  0  0  0  0  0  0  0  0  0  0
    9.4494  -16.0867   25.8424 O   0  0  0  0  0  0  0  0  0  0  0  0
   10.4606  -16.0593   23.7942 N   0  0  0  0  0  0  0  0  0  0  0  0
   11.7479  -16.2615   24.3954 C   0  0  0  0  0  0  0  0  0  0  0  0
   12.8532  -16.2365   23.4247 C   0  0  0  0  0  0  0  0  0  0  0  0
   12.6081  -16.1240   22.2118 O   0  0  0  0  0  0  0  0  0  0  0  0
   14.1650  -16.3377   23.8554 O   0  0  0  0  0  0  0  0  0  0  0  0
  2  1  1  0
  3  2  1  0
  4  5  1  0
  4  3  1  0
  5  1  1  0
  6  8  1  0
  5  6  1  1
  7  6  2  0
  9  8  1  0
  9 10  1  6
 10 11  1  0
 11 12  1  0
 12 13  1  0
 13 14  1  0
 15  9  1  0
 16 15  2  0
 17 15  1  0
 18 19  1  0
 18 17  1  0
 19 21  1  0
 20 19  2  0
M  END
$$$$
