PKG.pdb
     RDKit          3D

 21 21  0  0  1  0  0  0  0  0999 V2000
    7.4659  -14.9434   20.0166 N   0  0  0  0  0  0  0  0  0  0  0  0
    6.9303  -14.2779   18.8665 C   0  0  0  0  0  0  0  0  0  0  0  0
    7.6834  -12.9848   18.6874 C   0  0  0  0  0  0  0  0  0  0  0  0
    8.2824  -12.7961   20.0869 C   0  0  0  0  0  0  0  0  0  0  0  0
    8.6412  -14.2058   20.4378 C   0  0  1  0  0  0  0  0  0  0  0  0
    8.9213  -14.3912   21.8788 C   0  0  0  0  0  0  0  0  0  0  0  0
   10.0133  -13.9474   22.3129 O   0  0  0  0  0  0  0  0  0  0  0  0
    8.0413  -15.0292   22.7756 N   0  0  0  0  0  0  0  0  0  0  0  0
    8.4146  -15.1568   24.1684 C   0  0  1  0  0  0  0  0  0  0  0  0
    7.2598  -14.6274   24.9740 C   0  0  0  0  0  0  0  0  0  0  0  0
    7.3591  -13.1974   25.3642 C   0  0  0  0  0  0  0  0  0  0  0  0
    6.2760  -12.6993   26.2642 C   0  0  0  0  0  0  0  0  0  0  0  0
    6.3537  -11.2768   26.6826 C   0  0  0  0  0  0  0  0  0  0  0  0
    5.2689  -10.7930   27.4901 N   0  0  0  0  0  0  0  0  0  0  0  0
    8.7780  -16.5519   24.5103 C   0  0  0  0  0  0  0  0  0  0  0  0
    7.9163  -17.4616   24.4972 O   0  0  0  0  0  0  0  0  0  0  0  0
   10.1083  -16.9371   24.8689 N   0  0  0  0  0  0  0  0  0  0  0  0
   10.4050  -18.2984   25.2125 C   0  0  0  0  0  0  0  0  0  0  0  0
   11.7881  -18.4931   25.6747 C   0  0  0  0  0  0  0  0  0  0  0  0
   12.5802  -17.5359   25.6748 O   0  0  0  0  0  0  0  0  0  0  0  0
   12.2119  -19.7373   26.1094 O   0  0  0  0  0  0  0  0  0  0  0  0
  2  1  1  0
  3  2  1  0
  4  5  1  0
  4  3  1  0
  5  1  1  0
  6  8  1  0
  5  6  1  1
  7  6  2  0
  9  8  1  0
  9 10  1  1
 10 11  1  0
 11 12  1  0
 12 13  1  0
 13 14  1  0
 15  9  1  0
 16 15  2  0
 17 15  1  0
 18 19  1  0
 18 17  1  0
 19 21  1  0
 20 19  2  0
M  END
$$$$
