PKG.pdb
     RDKit          3D

 21 21  0  0  1  0  0  0  0  0999 V2000
    7.6048  -15.5121   19.6658 N   0  0  0  0  0  0  0  0  0  0  0  0
    6.9755  -15.3198   18.3932 C   0  0  0  0  0  0  0  0  0  0  0  0
    7.5652  -14.0820   17.7676 C   0  0  0  0  0  0  0  0  0  0  0  0
    8.1588  -13.3839   18.9978 C   0  0  0  0  0  0  0  0  0  0  0  0
    8.6895  -14.5547   19.7637 C   0  0  1  0  0  0  0  0  0  0  0  0
    9.0120  -14.2289   21.1705 C   0  0  0  0  0  0  0  0  0  0  0  0
   10.0119  -13.4966   21.3753 O   0  0  0  0  0  0  0  0  0  0  0  0
    8.2683  -14.6898   22.2752 N   0  0  0  0  0  0  0  0  0  0  0  0
    8.5886  -14.2038   23.6006 C   0  0  1  0  0  0  0  0  0  0  0  0
    7.2822  -13.8497   24.2569 C   0  0  0  0  0  0  0  0  0  0  0  0
    7.3955  -13.1594   25.5675 C   0  0  0  0  0  0  0  0  0  0  0  0
    6.1202  -12.6097   26.1176 C   0  0  0  0  0  0  0  0  0  0  0  0
    6.2077  -11.8721   27.4032 C   0  0  0  0  0  0  0  0  0  0  0  0
    4.9740  -11.3478   27.9190 N   0  0  0  0  0  0  0  0  0  0  0  0
    9.3815  -15.1930   24.3676 C   0  0  0  0  0  0  0  0  0  0  0  0
    9.7926  -14.9305   25.5218 O   0  0  0  0  0  0  0  0  0  0  0  0
    9.7189  -16.4821   23.8469 N   0  0  0  0  0  0  0  0  0  0  0  0
   10.5423  -17.3809   24.6042 C   0  0  0  0  0  0  0  0  0  0  0  0
    9.7690  -18.3449   25.4025 C   0  0  0  0  0  0  0  0  0  0  0  0
    8.6671  -18.0152   25.8724 O   0  0  0  0  0  0  0  0  0  0  0  0
   10.2625  -19.6177   25.6330 O   0  0  0  0  0  0  0  0  0  0  0  0
  2  1  1  0
  3  2  1  0
  4  5  1  0
  4  3  1  0
  5  1  1  0
  6  8  1  0
  5  6  1  1
  7  6  2  0
  9  8  1  0
  9 10  1  1
 10 11  1  0
 11 12  1  0
 12 13  1  0
 13 14  1  0
 15  9  1  0
 16 15  2  0
 17 15  1  0
 18 19  1  0
 18 17  1  0
 19 21  1  0
 20 19  2  0
M  END
$$$$
