PKG.pdb
     RDKit          3D

 21 21  0  0  1  0  0  0  0  0999 V2000
    7.5834  -15.2986   19.2317 N   0  0  0  0  0  0  0  0  0  0  0  0
    7.0349  -14.9109   17.9662 C   0  0  0  0  0  0  0  0  0  0  0  0
    7.6950  -13.6211   17.5514 C   0  0  0  0  0  0  0  0  0  0  0  0
    8.2356  -13.1203   18.8967 C   0  0  0  0  0  0  0  0  0  0  0  0
    8.6873  -14.4036   19.5198 C   0  0  1  0  0  0  0  0  0  0  0  0
    8.9365  -14.2859   20.9735 C   0  0  0  0  0  0  0  0  0  0  0  0
    9.9195  -13.5911   21.3328 O   0  0  0  0  0  0  0  0  0  0  0  0
    8.1418  -14.9023   21.9605 N   0  0  0  0  0  0  0  0  0  0  0  0
    8.4410  -14.6752   23.3585 C   0  0  1  0  0  0  0  0  0  0  0  0
    7.1580  -14.2320   24.0070 C   0  0  0  0  0  0  0  0  0  0  0  0
    7.2499  -13.9327   25.4592 C   0  0  0  0  0  0  0  0  0  0  0  0
    6.4641  -12.7502   25.9234 C   0  0  0  0  0  0  0  0  0  0  0  0
    6.5476  -12.4150   27.3674 C   0  0  0  0  0  0  0  0  0  0  0  0
    5.7999  -11.2661   27.7962 N   0  0  0  0  0  0  0  0  0  0  0  0
    9.0342  -15.8763   23.9916 C   0  0  0  0  0  0  0  0  0  0  0  0
    8.5452  -17.0133   23.7959 O   0  0  0  0  0  0  0  0  0  0  0  0
   10.1785  -15.8116   24.8477 N   0  0  0  0  0  0  0  0  0  0  0  0
   10.7863  -17.0135   25.3435 C   0  0  0  0  0  0  0  0  0  0  0  0
   10.3656  -17.3562   26.7110 C   0  0  0  0  0  0  0  0  0  0  0  0
    9.4111  -16.7559   27.2328 O   0  0  0  0  0  0  0  0  0  0  0  0
   11.0276  -18.3442   27.4197 O   0  0  0  0  0  0  0  0  0  0  0  0
  2  1  1  0
  3  2  1  0
  4  5  1  0
  4  3  1  0
  5  1  1  0
  6  8  1  0
  5  6  1  1
  7  6  2  0
  9  8  1  0
  9 10  1  1
 10 11  1  0
 11 12  1  0
 12 13  1  0
 13 14  1  0
 15  9  1  0
 16 15  2  0
 17 15  1  0
 18 19  1  0
 18 17  1  0
 19 21  1  0
 20 19  2  0
M  END
$$$$
