PKG.pdb
     RDKit          3D

 21 21  0  0  1  0  0  0  0  0999 V2000
    7.4750  -15.2024   19.3857 N   0  0  0  0  0  0  0  0  0  0  0  0
    6.9024  -14.7799   18.1423 C   0  0  0  0  0  0  0  0  0  0  0  0
    7.6210  -13.5301   17.7029 C   0  0  0  0  0  0  0  0  0  0  0  0
    8.2411  -13.0655   19.0267 C   0  0  0  0  0  0  0  0  0  0  0  0
    8.6400  -14.3747   19.6317 C   0  0  1  0  0  0  0  0  0  0  0  0
    8.9510  -14.2756   21.0748 C   0  0  0  0  0  0  0  0  0  0  0  0
   10.0295  -13.7152   21.3923 O   0  0  0  0  0  0  0  0  0  0  0  0
    8.1143  -14.7689   22.0957 N   0  0  0  0  0  0  0  0  0  0  0  0
    8.4539  -14.5127   23.4794 C   0  0  1  0  0  0  0  0  0  0  0  0
    7.2628  -13.8316   24.0962 C   0  0  0  0  0  0  0  0  0  0  0  0
    7.4199  -13.4433   25.5215 C   0  0  0  0  0  0  0  0  0  0  0  0
    6.2833  -12.6710   26.1070 C   0  0  0  0  0  0  0  0  0  0  0  0
    6.4125  -12.2624   27.5286 C   0  0  0  0  0  0  0  0  0  0  0  0
    5.3815  -11.4016   28.0374 N   0  0  0  0  0  0  0  0  0  0  0  0
    8.8490  -15.7552   24.1833 C   0  0  0  0  0  0  0  0  0  0  0  0
    8.0991  -16.7591   24.1842 O   0  0  0  0  0  0  0  0  0  0  0  0
   10.0863  -15.8813   24.8904 N   0  0  0  0  0  0  0  0  0  0  0  0
   10.5466  -17.1677   25.3293 C   0  0  0  0  0  0  0  0  0  0  0  0
   10.3063  -17.4141   26.7598 C   0  0  0  0  0  0  0  0  0  0  0  0
    9.3763  -16.8291   27.3400 O   0  0  0  0  0  0  0  0  0  0  0  0
   11.1108  -18.2944   27.4629 O   0  0  0  0  0  0  0  0  0  0  0  0
  2  1  1  0
  3  2  1  0
  4  5  1  0
  4  3  1  0
  5  1  1  0
  6  8  1  0
  5  6  1  1
  7  6  2  0
  9  8  1  0
  9 10  1  1
 10 11  1  0
 11 12  1  0
 12 13  1  0
 13 14  1  0
 15  9  1  0
 16 15  2  0
 17 15  1  0
 18 19  1  0
 18 17  1  0
 19 21  1  0
 20 19  2  0
M  END
$$$$
