PKG.pdb
     RDKit          3D

 21 21  0  0  1  0  0  0  0  0999 V2000
    7.5676  -15.3079   18.9688 N   0  0  0  0  0  0  0  0  0  0  0  0
    6.9207  -15.0270   17.7217 C   0  0  0  0  0  0  0  0  0  0  0  0
    7.4432  -13.7067   17.2165 C   0  0  0  0  0  0  0  0  0  0  0  0
    8.0093  -13.1002   18.5067 C   0  0  0  0  0  0  0  0  0  0  0  0
    8.6034  -14.3105   19.1558 C   0  0  1  0  0  0  0  0  0  0  0  0
    8.9188  -14.1048   20.5867 C   0  0  0  0  0  0  0  0  0  0  0  0
    9.9321  -13.4136   20.8575 O   0  0  0  0  0  0  0  0  0  0  0  0
    8.1543  -14.6352   21.6450 N   0  0  0  0  0  0  0  0  0  0  0  0
    8.5944  -14.4362   23.0096 C   0  0  1  0  0  0  0  0  0  0  0  0
    7.4250  -13.8594   23.7596 C   0  0  0  0  0  0  0  0  0  0  0  0
    7.6998  -13.4753   25.1681 C   0  0  0  0  0  0  0  0  0  0  0  0
    6.5734  -12.8042   25.8836 C   0  0  0  0  0  0  0  0  0  0  0  0
    6.8128  -12.4174   27.2969 C   0  0  0  0  0  0  0  0  0  0  0  0
    5.7351  -11.7376   27.9599 N   0  0  0  0  0  0  0  0  0  0  0  0
    9.1120  -15.6907   23.6044 C   0  0  0  0  0  0  0  0  0  0  0  0
    8.3343  -16.6229   23.9150 O   0  0  0  0  0  0  0  0  0  0  0  0
   10.5034  -15.9092   23.8550 N   0  0  0  0  0  0  0  0  0  0  0  0
   10.9449  -17.0987   24.5257 C   0  0  0  0  0  0  0  0  0  0  0  0
   12.3811  -17.0872   24.8444 C   0  0  0  0  0  0  0  0  0  0  0  0
   13.0764  -16.1069   24.5295 O   0  0  0  0  0  0  0  0  0  0  0  0
   12.9623  -18.1631   25.4936 O   0  0  0  0  0  0  0  0  0  0  0  0
  2  1  1  0
  3  2  1  0
  4  5  1  0
  4  3  1  0
  5  1  1  0
  6  8  1  0
  5  6  1  1
  7  6  2  0
  9  8  1  0
  9 10  1  1
 10 11  1  0
 11 12  1  0
 12 13  1  0
 13 14  1  0
 15  9  1  0
 16 15  2  0
 17 15  1  0
 18 19  1  0
 18 17  1  0
 19 21  1  0
 20 19  2  0
M  END
$$$$
