PKG.pdb
     RDKit          3D

 21 21  0  0  1  0  0  0  0  0999 V2000
    8.5906  -14.6541   19.8327 N   0  0  0  0  0  0  0  0  0  0  0  0
    8.3052  -13.6680   18.8333 C   0  0  0  0  0  0  0  0  0  0  0  0
    7.9627  -12.3806   19.5381 C   0  0  0  0  0  0  0  0  0  0  0  0
    7.6041  -12.8966   20.9374 C   0  0  0  0  0  0  0  0  0  0  0  0
    8.6239  -13.9772   21.1146 C   0  0  1  0  0  0  0  0  0  0  0  0
    8.3076  -14.8952   22.2311 C   0  0  0  0  0  0  0  0  0  0  0  0
    8.2412  -14.3972   23.3824 O   0  0  0  0  0  0  0  0  0  0  0  0
    8.0806  -16.2770   22.0733 N   0  0  0  0  0  0  0  0  0  0  0  0
    7.8905  -17.1048   23.2455 C   0  0  1  0  0  0  0  0  0  0  0  0
    7.1056  -18.3084   22.8002 C   0  0  0  0  0  0  0  0  0  0  0  0
    5.6714  -18.0583   22.5042 C   0  0  0  0  0  0  0  0  0  0  0  0
    4.8966  -19.2433   22.0279 C   0  0  0  0  0  0  0  0  0  0  0  0
    3.4434  -19.0451   21.7971 C   0  0  0  0  0  0  0  0  0  0  0  0
    2.7129  -20.1910   21.3322 N   0  0  0  0  0  0  0  0  0  0  0  0
    9.1818  -17.4500   23.8849 C   0  0  0  0  0  0  0  0  0  0  0  0
   10.2604  -17.3332   23.2579 O   0  0  0  0  0  0  0  0  0  0  0  0
    9.2733  -17.9282   25.2301 N   0  0  0  0  0  0  0  0  0  0  0  0
   10.5438  -18.2933   25.7886 C   0  0  0  0  0  0  0  0  0  0  0  0
   10.4697  -18.6585   27.2119 C   0  0  0  0  0  0  0  0  0  0  0  0
    9.3817  -18.6006   27.8091 O   0  0  0  0  0  0  0  0  0  0  0  0
   11.6060  -19.0664   27.8896 O   0  0  0  0  0  0  0  0  0  0  0  0
  2  1  1  0
  3  2  1  0
  4  5  1  0
  4  3  1  0
  5  1  1  0
  6  8  1  0
  5  6  1  1
  7  6  2  0
  9  8  1  0
  9 10  1  6
 10 11  1  0
 11 12  1  0
 12 13  1  0
 13 14  1  0
 15  9  1  0
 16 15  2  0
 17 15  1  0
 18 19  1  0
 18 17  1  0
 19 21  1  0
 20 19  2  0
M  END
$$$$
