YPP.pdb
     RDKit          3D

 27 29  0  0  1  0  0  0  0  0999 V2000
   19.9495  -19.2763  -12.2042 O   0  0  0  0  0  0  0  0  0  0  0  0
   21.3393  -19.3794  -12.0986 C   0  0  0  0  0  0  0  0  0  0  0  0
   22.1628  -19.3262  -13.1972 C   0  0  0  0  0  0  0  0  0  0  0  0
   23.5429  -19.4314  -13.0632 C   0  0  0  0  0  0  0  0  0  0  0  0
   24.1424  -19.5925  -11.8318 C   0  0  0  0  0  0  0  0  0  0  0  0
   25.5931  -19.7052  -11.6772 C   0  0  0  0  0  0  0  0  0  0  0  0
   26.1047  -21.1154  -11.5415 C   0  0  2  0  0  0  0  0  0  0  0  0
   25.1859  -22.1090  -11.9666 N   0  0  0  0  0  0  0  0  0  0  0  0
   26.6531  -21.4216  -10.2285 C   0  0  0  0  0  0  0  0  0  0  0  0
   25.8535  -21.9612   -9.3945 O   0  0  0  0  0  0  0  0  0  0  0  0
   23.3095  -19.6450  -10.7332 C   0  0  0  0  0  0  0  0  0  0  0  0
   21.9248  -19.5400  -10.8621 C   0  0  0  0  0  0  0  0  0  0  0  0
   27.9739  -21.1765   -9.8063 N   0  0  0  0  0  0  0  0  0  0  0  0
   29.0143  -20.6148  -10.6822 C   0  0  0  0  0  0  0  0  0  0  0  0
   30.1982  -21.4804  -10.3541 C   0  0  0  0  0  0  0  0  0  0  0  0
   30.1255  -21.5131   -8.8396 C   0  0  0  0  0  0  0  0  0  0  0  0
   28.6467  -21.3598   -8.5400 C   0  0  1  0  0  0  0  0  0  0  0  0
   28.4053  -20.2233   -7.6159 C   0  0  0  0  0  0  0  0  0  0  0  0
   27.9189  -19.1765   -8.1270 O   0  0  0  0  0  0  0  0  0  0  0  0
   28.6794  -20.2464   -6.2446 N   0  0  0  0  0  0  0  0  0  0  0  0
   29.2342  -21.3927   -5.5314 C   0  0  0  0  0  0  0  0  0  0  0  0
   28.6535  -21.3377   -4.1447 C   0  0  0  0  0  0  0  0  0  0  0  0
   27.9277  -20.0266   -4.0428 C   0  0  0  0  0  0  0  0  0  0  0  0
   28.5181  -19.2425   -5.2087 C   0  0  1  0  0  0  0  0  0  0  0  0
   29.7784  -18.6148   -4.8200 C   0  0  0  0  0  0  0  0  0  0  0  0
   30.8888  -19.0777   -5.1741 O   0  0  0  0  0  0  0  0  0  0  0  0
   29.7639  -17.4749   -4.0381 O   0  0  0  0  0  0  0  0  0  0  0  0
  2  1  1  0
  3  2  2  0
  4  3  1  0
  5 11  1  0
  5  4  2  0
  6  5  1  0
  7  6  1  0
  7  8  1  1
  9 13  1  0
  9  7  1  0
 10  9  2  0
 11 12  2  0
 12  2  1  0
 13 17  1  0
 14 13  1  0
 14 15  1  0
 15 16  1  0
 17 16  1  0
 18 20  1  0
 17 18  1  1
 19 18  2  0
 20 21  1  0
 22 21  1  0
 23 22  1  0
 24 23  1  0
 24 20  1  0
 24 25  1  1
 26 25  2  0
 27 25  1  0
M  END
$$$$
