YPP.pdb
     RDKit          3D

 27 29  0  0  1  0  0  0  0  0999 V2000
   21.8316  -18.4345  -16.0244 O   0  0  0  0  0  0  0  0  0  0  0  0
   22.5049  -18.8738  -14.8812 C   0  0  0  0  0  0  0  0  0  0  0  0
   21.9291  -19.7344  -13.9780 C   0  0  0  0  0  0  0  0  0  0  0  0
   22.6222  -20.1556  -12.8484 C   0  0  0  0  0  0  0  0  0  0  0  0
   23.9081  -19.7321  -12.5858 C   0  0  0  0  0  0  0  0  0  0  0  0
   24.6479  -20.1672  -11.4007 C   0  0  0  0  0  0  0  0  0  0  0  0
   25.5678  -21.3383  -11.6270 C   0  0  2  0  0  0  0  0  0  0  0  0
   24.9366  -22.4676  -12.2086 N   0  0  0  0  0  0  0  0  0  0  0  0
   26.3529  -21.7078  -10.4584 C   0  0  0  0  0  0  0  0  0  0  0  0
   25.8361  -22.5788   -9.6835 O   0  0  0  0  0  0  0  0  0  0  0  0
   24.4799  -18.8682  -13.4969 C   0  0  0  0  0  0  0  0  0  0  0  0
   23.7891  -18.4427  -14.6313 C   0  0  0  0  0  0  0  0  0  0  0  0
   27.6177  -21.1928  -10.1152 N   0  0  0  0  0  0  0  0  0  0  0  0
   28.4212  -20.3496  -11.0144 C   0  0  0  0  0  0  0  0  0  0  0  0
   29.7941  -20.9382  -10.8491 C   0  0  0  0  0  0  0  0  0  0  0  0
   29.8688  -21.0866   -9.3416 C   0  0  0  0  0  0  0  0  0  0  0  0
   28.4269  -21.2990   -8.9221 C   0  0  1  0  0  0  0  0  0  0  0  0
   28.0217  -20.3123   -7.8894 C   0  0  0  0  0  0  0  0  0  0  0  0
   27.2170  -19.4118   -8.2571 O   0  0  0  0  0  0  0  0  0  0  0  0
   28.4698  -20.3241   -6.5646 N   0  0  0  0  0  0  0  0  0  0  0  0
   29.4691  -21.2485   -6.0378 C   0  0  0  0  0  0  0  0  0  0  0  0
   29.0964  -21.4850   -4.5996 C   0  0  0  0  0  0  0  0  0  0  0  0
   27.9922  -20.5164   -4.2850 C   0  0  0  0  0  0  0  0  0  0  0  0
   28.1210  -19.5053   -5.4180 C   0  0  1  0  0  0  0  0  0  0  0  0
   29.1364  -18.5044   -5.1004 C   0  0  0  0  0  0  0  0  0  0  0  0
   30.2057  -18.4131   -5.7492 O   0  0  0  0  0  0  0  0  0  0  0  0
   28.9275  -17.6236   -4.0558 O   0  0  0  0  0  0  0  0  0  0  0  0
  2  1  1  0
  3  2  2  0
  4  3  1  0
  5 11  1  0
  5  4  2  0
  6  5  1  0
  7  6  1  0
  7  8  1  1
  9 13  1  0
  9  7  1  0
 10  9  2  0
 11 12  2  0
 12  2  1  0
 13 17  1  0
 14 13  1  0
 14 15  1  0
 15 16  1  0
 17 16  1  0
 18 20  1  0
 17 18  1  1
 19 18  2  0
 20 21  1  0
 22 21  1  0
 23 22  1  0
 24 23  1  0
 24 20  1  0
 24 25  1  1
 26 25  2  0
 27 25  1  0
M  END
$$$$
