YPP.pdb
     RDKit          3D

 27 29  0  0  1  0  0  0  0  0999 V2000
   17.8090  -17.0227  -17.6421 O   0  0  0  0  0  0  0  0  0  0  0  0
   18.9099  -17.6455  -17.0475 C   0  0  0  0  0  0  0  0  0  0  0  0
   18.8927  -18.9699  -16.6824 C   0  0  0  0  0  0  0  0  0  0  0  0
   20.0028  -19.5643  -16.0924 C   0  0  0  0  0  0  0  0  0  0  0  0
   21.1615  -18.8572  -15.8489 C   0  0  0  0  0  0  0  0  0  0  0  0
   22.3360  -19.4705  -15.2282 C   0  0  0  0  0  0  0  0  0  0  0  0
   23.3827  -19.9514  -16.1987 C   0  0  2  0  0  0  0  0  0  0  0  0
   22.9123  -20.9127  -17.1298 N   0  0  0  0  0  0  0  0  0  0  0  0
   24.6217  -20.3811  -15.5671 C   0  0  0  0  0  0  0  0  0  0  0  0
   24.8661  -21.6323  -15.5967 O   0  0  0  0  0  0  0  0  0  0  0  0
   21.1716  -17.5279  -16.2181 C   0  0  0  0  0  0  0  0  0  0  0  0
   20.0610  -16.9270  -16.8102 C   0  0  0  0  0  0  0  0  0  0  0  0
   25.5612  -19.5441  -14.9350 N   0  0  0  0  0  0  0  0  0  0  0  0
   25.6406  -18.0933  -15.1673 C   0  0  0  0  0  0  0  0  0  0  0  0
   27.1226  -17.8792  -15.2962 C   0  0  0  0  0  0  0  0  0  0  0  0
   27.6388  -18.6999  -14.1300 C   0  0  0  0  0  0  0  0  0  0  0  0
   26.6070  -19.7999  -13.9703 C   0  0  1  0  0  0  0  0  0  0  0  0
   26.0813  -19.8400  -12.5824 C   0  0  0  0  0  0  0  0  0  0  0  0
   24.9096  -19.4022  -12.4121 O   0  0  0  0  0  0  0  0  0  0  0  0
   26.7934  -20.3237  -11.4802 N   0  0  0  0  0  0  0  0  0  0  0  0
   28.2261  -20.6032  -11.4790 C   0  0  0  0  0  0  0  0  0  0  0  0
   28.4220  -21.7553  -10.5317 C   0  0  0  0  0  0  0  0  0  0  0  0
   27.0992  -21.9746   -9.8546 C   0  0  0  0  0  0  0  0  0  0  0  0
   26.3764  -20.6619  -10.1316 C   0  0  1  0  0  0  0  0  0  0  0  0
   26.7521  -19.6507   -9.1468 C   0  0  0  0  0  0  0  0  0  0  0  0
   27.6088  -18.7687   -9.3932 O   0  0  0  0  0  0  0  0  0  0  0  0
   26.1544  -19.6524   -7.9003 O   0  0  0  0  0  0  0  0  0  0  0  0
  2  1  1  0
  3  2  2  0
  4  3  1  0
  5 11  1  0
  5  4  2  0
  6  5  1  0
  7  6  1  0
  7  8  1  1
  9 13  1  0
  9  7  1  0
 10  9  2  0
 11 12  2  0
 12  2  1  0
 13 17  1  0
 14 13  1  0
 14 15  1  0
 15 16  1  0
 17 16  1  0
 18 20  1  0
 17 18  1  1
 19 18  2  0
 20 21  1  0
 22 21  1  0
 23 22  1  0
 24 23  1  0
 24 20  1  0
 24 25  1  1
 26 25  2  0
 27 25  1  0
M  END
$$$$
