YPP.pdb
     RDKit          3D

 27 29  0  0  1  0  0  0  0  0999 V2000
   23.1294  -18.3462  -16.4260 O   0  0  0  0  0  0  0  0  0  0  0  0
   23.6810  -18.7562  -15.2091 C   0  0  0  0  0  0  0  0  0  0  0  0
   25.0197  -18.6224  -14.9302 C   0  0  0  0  0  0  0  0  0  0  0  0
   25.5420  -19.0390  -13.7106 C   0  0  0  0  0  0  0  0  0  0  0  0
   24.7465  -19.6006  -12.7340 C   0  0  0  0  0  0  0  0  0  0  0  0
   25.2837  -20.0436  -11.4471 C   0  0  0  0  0  0  0  0  0  0  0  0
   26.0920  -21.3133  -11.5052 C   0  0  2  0  0  0  0  0  0  0  0  0
   25.3939  -22.4207  -12.0515 N   0  0  0  0  0  0  0  0  0  0  0  0
   26.7422  -21.6583  -10.2495 C   0  0  0  0  0  0  0  0  0  0  0  0
   26.0610  -22.3669   -9.4371 O   0  0  0  0  0  0  0  0  0  0  0  0
   23.4034  -19.7318  -13.0209 C   0  0  0  0  0  0  0  0  0  0  0  0
   22.8746  -19.3156  -14.2425 C   0  0  0  0  0  0  0  0  0  0  0  0
   28.0420  -21.2816   -9.8605 N   0  0  0  0  0  0  0  0  0  0  0  0
   29.0135  -20.6590  -10.7736 C   0  0  0  0  0  0  0  0  0  0  0  0
   30.2757  -21.4035  -10.4401 C   0  0  0  0  0  0  0  0  0  0  0  0
   30.2303  -21.3911   -8.9242 C   0  0  0  0  0  0  0  0  0  0  0  0
   28.7486  -21.3609   -8.6018 C   0  0  1  0  0  0  0  0  0  0  0  0
   28.4205  -20.2199   -7.7105 C   0  0  0  0  0  0  0  0  0  0  0  0
   27.8305  -19.2402   -8.2452 O   0  0  0  0  0  0  0  0  0  0  0  0
   28.7205  -20.1703   -6.3454 N   0  0  0  0  0  0  0  0  0  0  0  0
   29.4937  -21.1817   -5.6313 C   0  0  0  0  0  0  0  0  0  0  0  0
   28.9397  -21.2149   -4.2330 C   0  0  0  0  0  0  0  0  0  0  0  0
   27.9835  -20.0611   -4.1303 C   0  0  0  0  0  0  0  0  0  0  0  0
   28.3940  -19.1985   -5.3178 C   0  0  1  0  0  0  0  0  0  0  0  0
   29.5218  -18.3404   -4.9639 C   0  0  0  0  0  0  0  0  0  0  0  0
   29.3755  -17.2968   -4.2840 O   0  0  0  0  0  0  0  0  0  0  0  0
   30.7958  -18.6748   -5.3834 O   0  0  0  0  0  0  0  0  0  0  0  0
  2  1  1  0
  3  2  2  0
  4  3  1  0
  5 11  1  0
  5  4  2  0
  6  5  1  0
  7  6  1  0
  7  8  1  1
  9 13  1  0
  9  7  1  0
 10  9  2  0
 11 12  2  0
 12  2  1  0
 13 17  1  0
 14 13  1  0
 14 15  1  0
 15 16  1  0
 17 16  1  0
 18 20  1  0
 17 18  1  1
 19 18  2  0
 20 21  1  0
 22 21  1  0
 23 22  1  0
 24 23  1  0
 24 20  1  0
 24 25  1  1
 26 25  2  0
 27 25  1  0
M  END
$$$$
