YPP.pdb
     RDKit          3D

 27 29  0  0  1  0  0  0  0  0999 V2000
   18.8806  -19.2231  -10.8931 O   0  0  0  0  0  0  0  0  0  0  0  0
   20.0845  -19.2898  -11.5998 C   0  0  0  0  0  0  0  0  0  0  0  0
   21.3047  -19.2926  -10.9683 C   0  0  0  0  0  0  0  0  0  0  0  0
   22.4875  -19.3597  -11.6966 C   0  0  0  0  0  0  0  0  0  0  0  0
   22.4891  -19.4259  -13.0741 C   0  0  0  0  0  0  0  0  0  0  0  0
   23.7265  -19.4962  -13.8520 C   0  0  0  0  0  0  0  0  0  0  0  0
   24.3045  -20.8801  -13.9926 C   0  0  2  0  0  0  0  0  0  0  0  0
   23.4384  -21.8089  -14.6243 N   0  0  0  0  0  0  0  0  0  0  0  0
   24.8564  -21.4184  -12.7580 C   0  0  0  0  0  0  0  0  0  0  0  0
   24.0711  -22.1351  -12.0539 O   0  0  0  0  0  0  0  0  0  0  0  0
   21.2604  -19.4227  -13.7014 C   0  0  0  0  0  0  0  0  0  0  0  0
   20.0713  -19.3556  -12.9757 C   0  0  0  0  0  0  0  0  0  0  0  0
   26.1662  -21.2186  -12.2814 N   0  0  0  0  0  0  0  0  0  0  0  0
   27.2311  -20.5868  -13.0765 C   0  0  0  0  0  0  0  0  0  0  0  0
   28.4034  -21.4842  -12.7958 C   0  0  0  0  0  0  0  0  0  0  0  0
   28.2905  -21.6506  -11.2926 C   0  0  0  0  0  0  0  0  0  0  0  0
   26.8048  -21.5169  -11.0193 C   0  0  1  0  0  0  0  0  0  0  0  0
   26.5422  -20.4656  -10.0045 C   0  0  0  0  0  0  0  0  0  0  0  0
   26.2222  -19.3265  -10.4447 O   0  0  0  0  0  0  0  0  0  0  0  0
   26.6270  -20.6611   -8.6222 N   0  0  0  0  0  0  0  0  0  0  0  0
   26.9394  -21.9367   -7.9851 C   0  0  0  0  0  0  0  0  0  0  0  0
   26.1907  -21.9416   -6.6803 C   0  0  0  0  0  0  0  0  0  0  0  0
   25.6218  -20.5613   -6.5148 C   0  0  0  0  0  0  0  0  0  0  0  0
   26.4522  -19.7523   -7.5040 C   0  0  1  0  0  0  0  0  0  0  0  0
   27.7163  -19.3415   -6.8984 C   0  0  0  0  0  0  0  0  0  0  0  0
   28.8019  -19.9027   -7.1802 O   0  0  0  0  0  0  0  0  0  0  0  0
   27.7338  -18.3041   -5.9850 O   0  0  0  0  0  0  0  0  0  0  0  0
  2  1  1  0
  3  2  2  0
  4  3  1  0
  5 11  1  0
  5  4  2  0
  6  5  1  0
  7  6  1  0
  7  8  1  1
  9 13  1  0
  9  7  1  0
 10  9  2  0
 11 12  2  0
 12  2  1  0
 13 17  1  0
 14 13  1  0
 14 15  1  0
 15 16  1  0
 17 16  1  0
 18 20  1  0
 17 18  1  1
 19 18  2  0
 20 21  1  0
 22 21  1  0
 23 22  1  0
 24 23  1  0
 24 20  1  0
 24 25  1  1
 26 25  2  0
 27 25  1  0
M  END
$$$$
