YPP.pdb
     RDKit          3D

 27 29  0  0  1  0  0  0  0  0999 V2000
   28.1679  -22.5256  -17.8604 O   0  0  0  0  0  0  0  0  0  0  0  0
   28.1179  -22.0229  -16.5573 C   0  0  0  0  0  0  0  0  0  0  0  0
   27.4551  -22.6754  -15.5459 C   0  0  0  0  0  0  0  0  0  0  0  0
   27.4214  -22.1523  -14.2579 C   0  0  0  0  0  0  0  0  0  0  0  0
   28.0466  -20.9649  -13.9401 C   0  0  0  0  0  0  0  0  0  0  0  0
   28.0181  -20.4034  -12.5891 C   0  0  0  0  0  0  0  0  0  0  0  0
   26.6432  -20.0607  -12.0782 C   0  0  2  0  0  0  0  0  0  0  0  0
   25.8970  -19.2180  -12.9414 N   0  0  0  0  0  0  0  0  0  0  0  0
   26.6270  -19.5705  -10.7078 C   0  0  0  0  0  0  0  0  0  0  0  0
   27.1695  -18.4338  -10.5084 O   0  0  0  0  0  0  0  0  0  0  0  0
   28.7102  -20.3153  -14.9604 C   0  0  0  0  0  0  0  0  0  0  0  0
   28.7470  -20.8356  -16.2538 C   0  0  0  0  0  0  0  0  0  0  0  0
   26.0704  -20.2352   -9.5983 N   0  0  0  0  0  0  0  0  0  0  0  0
   25.3207  -21.4972   -9.7011 C   0  0  0  0  0  0  0  0  0  0  0  0
   24.1531  -21.2409   -8.7904 C   0  0  0  0  0  0  0  0  0  0  0  0
   24.8477  -20.6256   -7.5908 C   0  0  0  0  0  0  0  0  0  0  0  0
   26.0649  -19.9415   -8.1828 C   0  0  1  0  0  0  0  0  0  0  0  0
   27.3103  -20.4008   -7.5179 C   0  0  0  0  0  0  0  0  0  0  0  0
   27.9352  -21.3412   -8.0825 O   0  0  0  0  0  0  0  0  0  0  0  0
   27.8179  -19.8635   -6.3306 N   0  0  0  0  0  0  0  0  0  0  0  0
   27.2747  -18.6887   -5.6558 C   0  0  0  0  0  0  0  0  0  0  0  0
   28.4453  -18.0124   -4.9960 C   0  0  0  0  0  0  0  0  0  0  0  0
   29.6125  -18.9456   -5.1481 C   0  0  0  0  0  0  0  0  0  0  0  0
   28.9263  -20.2644   -5.4834 C   0  0  1  0  0  0  0  0  0  0  0  0
   28.4968  -20.9446   -4.2643 C   0  0  0  0  0  0  0  0  0  0  0  0
   27.2861  -21.0593   -3.9582 O   0  0  0  0  0  0  0  0  0  0  0  0
   29.4413  -21.4840   -3.4111 O   0  0  0  0  0  0  0  0  0  0  0  0
  2  1  1  0
  3  2  2  0
  4  3  1  0
  5 11  1  0
  5  4  2  0
  6  5  1  0
  7  6  1  0
  7  8  1  6
  9 13  1  0
  9  7  1  0
 10  9  2  0
 11 12  2  0
 12  2  1  0
 13 17  1  0
 14 13  1  0
 14 15  1  0
 15 16  1  0
 17 16  1  0
 18 20  1  0
 17 18  1  1
 19 18  2  0
 20 21  1  0
 22 21  1  0
 23 22  1  0
 24 23  1  0
 24 20  1  0
 24 25  1  1
 26 25  2  0
 27 25  1  0
M  END
$$$$
