YPP.pdb
     RDKit          3D

 27 29  0  0  1  0  0  0  0  0999 V2000
   16.9307  -24.1953  -13.4091 O   0  0  0  0  0  0  0  0  0  0  0  0
   18.0375  -23.3436  -13.3565 C   0  0  0  0  0  0  0  0  0  0  0  0
   17.9255  -22.0183  -13.0114 C   0  0  0  0  0  0  0  0  0  0  0  0
   19.0439  -21.1931  -12.9671 C   0  0  0  0  0  0  0  0  0  0  0  0
   20.3055  -21.6637  -13.2650 C   0  0  0  0  0  0  0  0  0  0  0  0
   21.4901  -20.8057  -13.2228 C   0  0  0  0  0  0  0  0  0  0  0  0
   22.3371  -20.9615  -11.9870 C   0  0  2  0  0  0  0  0  0  0  0  0
   21.6576  -20.6670  -10.7772 N   0  0  0  0  0  0  0  0  0  0  0  0
   23.6199  -20.2776  -12.0594 C   0  0  0  0  0  0  0  0  0  0  0  0
   23.6904  -19.1466  -11.4747 O   0  0  0  0  0  0  0  0  0  0  0  0
   20.4105  -22.9952  -13.6106 C   0  0  0  0  0  0  0  0  0  0  0  0
   19.2920  -23.8270  -13.6566 C   0  0  0  0  0  0  0  0  0  0  0  0
   24.7744  -20.7521  -12.7110 N   0  0  0  0  0  0  0  0  0  0  0  0
   25.0273  -22.1769  -12.9782 C   0  0  0  0  0  0  0  0  0  0  0  0
   26.4754  -22.3124  -12.6002 C   0  0  0  0  0  0  0  0  0  0  0  0
   27.0674  -21.0854  -13.2665 C   0  0  0  0  0  0  0  0  0  0  0  0
   25.9288  -20.0835  -13.2678 C   0  0  1  0  0  0  0  0  0  0  0  0
   25.6668  -19.5766  -14.6384 C   0  0  0  0  0  0  0  0  0  0  0  0
   24.7340  -20.1386  -15.2769 O   0  0  0  0  0  0  0  0  0  0  0  0
   26.3773  -18.5370  -15.2470 N   0  0  0  0  0  0  0  0  0  0  0  0
   27.5832  -17.9262  -14.6962 C   0  0  0  0  0  0  0  0  0  0  0  0
   27.5538  -16.4866  -15.1322 C   0  0  0  0  0  0  0  0  0  0  0  0
   26.4149  -16.3630  -16.1036 C   0  0  0  0  0  0  0  0  0  0  0  0
   26.1633  -17.8160  -16.4884 C   0  0  1  0  0  0  0  0  0  0  0  0
   27.0726  -18.2301  -17.5539 C   0  0  0  0  0  0  0  0  0  0  0  0
   26.9558  -17.8083  -18.7291 O   0  0  0  0  0  0  0  0  0  0  0  0
   28.0986  -19.1135  -17.2747 O   0  0  0  0  0  0  0  0  0  0  0  0
  2  1  1  0
  3  2  2  0
  4  3  1  0
  5 11  1  0
  5  4  2  0
  6  5  1  0
  7  6  1  0
  7  8  1  1
  9 13  1  0
  9  7  1  0
 10  9  2  0
 11 12  2  0
 12  2  1  0
 13 17  1  0
 14 13  1  0
 14 15  1  0
 15 16  1  0
 17 16  1  0
 18 20  1  0
 17 18  1  6
 19 18  2  0
 20 21  1  0
 22 21  1  0
 23 22  1  0
 24 23  1  0
 24 20  1  0
 24 25  1  6
 26 25  2  0
 27 25  1  0
M  END
$$$$
