RPR.pdb
     RDKit          3D

 30 30  0  0  1  0  0  0  0  0999 V2000
   18.3389  -18.2978    2.8757 N   0  0  0  0  0  0  0  0  0  0  0  0
   17.2611  -18.7823    2.0789 C   0  0  0  0  0  0  0  0  0  0  0  0
   17.2232  -18.5022    0.8268 N   0  0  0  0  0  0  0  0  0  0  0  0
   16.2319  -19.5691    2.6552 N   0  0  0  0  0  0  0  0  0  0  0  0
   16.4861  -20.5307    3.7233 C   0  0  0  0  0  0  0  0  0  0  0  0
   15.2251  -21.3001    3.9865 C   0  0  0  0  0  0  0  0  0  0  0  0
   15.4412  -22.3365    5.0504 C   0  0  0  0  0  0  0  0  0  0  0  0
   14.5764  -22.0608    6.2783 C   0  0  2  0  0  0  0  0  0  0  0  0
   13.3222  -21.6120    5.8243 N   0  0  0  0  0  0  0  0  0  0  0  0
   15.3499  -21.2365    7.1989 C   0  0  0  0  0  0  0  0  0  0  0  0
   15.2430  -19.9681    6.9424 O   0  0  0  0  0  0  0  0  0  0  0  0
   16.4950  -18.8294    0.1783 N   0  0  0  0  0  0  0  0  0  0  0  0
   16.1626  -21.5866    8.2814 C   0  0  0  0  0  0  0  0  0  0  0  0
   15.6890  -22.4645    9.3965 C   0  0  0  0  0  0  0  0  0  0  0  0
   16.8354  -23.4752    9.4319 C   0  0  0  0  0  0  0  0  0  0  0  0
   18.0354  -22.7645    8.7960 C   0  0  2  0  0  0  0  0  0  0  0  0
   17.4974  -21.3351    8.6981 C   0  0  0  0  0  0  0  0  0  0  0  0
   18.3746  -20.4452    7.9977 O   0  0  0  0  0  0  0  0  0  0  0  0
   18.6618  -20.5471    6.7972 N   0  0  0  0  0  0  0  0  0  0  0  0
   16.5688  -13.2992    5.3562 C   0  0  0  0  0  0  0  0  0  0  0  0
   17.9632  -13.1381    5.1672 N   0  0  0  0  0  0  0  0  0  0  0  0
   18.3414  -12.1188    4.4641 N   0  0  0  0  0  0  0  0  0  0  0  0
   18.9212  -14.0242    5.7045 C   0  0  0  0  0  0  0  0  0  0  0  0
   18.3937  -15.1740    6.4707 C   0  0  0  0  0  0  0  0  0  0  0  0
   19.4602  -16.1397    6.7928 C   0  0  0  0  0  0  0  0  0  0  0  0
   19.0736  -17.3028    7.5621 C   0  0  2  0  0  0  0  0  0  0  0  0
   19.9413  -18.4291    7.9322 N   0  0  0  0  0  0  0  0  0  0  0  0
   18.9978  -19.3359    8.6776 C   0  0  0  0  0  0  0  0  0  0  0  0
   21.0794  -18.2730    8.8050 O   0  0  0  0  0  0  0  0  0  0  0  0
   20.9641  -18.5475   10.0606 O   0  0  0  0  0  0  0  0  0  0  0  0
  1  2  1  0
  2  4  1  0
  3  2  2  0
  4  5  1  0
  6  7  1  0
  6  5  1  0
  7  8  1  0
  8  9  1  6
 10 12  1  0
 10  8  1  0
 11 10  2  0
 12 16  1  0
 13 14  1  0
 13 12  1  0
 14 15  1  0
 16 15  1  0
 16 17  1  6
 17 27  1  0
 18 17  2  0
 20 19  1  0
 20 22  1  0
 21 20  2  0
 22 23  1  0
 23 24  1  0
 24 25  1  0
 26 27  1  0
 26 28  1  0
 26 25  1  6
 28 29  2  0
 28 30  1  0
M  END
$$$$
