RPR.pdb
     RDKit          3D

 30 30  0  0  1  0  0  0  0  0999 V2000
   23.4225  -16.5655  -16.9455 N   0  0  0  0  0  0  0  0  0  0  0  0
   22.2844  -17.3109  -17.3703 C   0  0  0  0  0  0  0  0  0  0  0  0
   21.4549  -16.7848  -18.1965 N   0  0  0  0  0  0  0  0  0  0  0  0
   22.0600  -18.6258  -16.8893 N   0  0  0  0  0  0  0  0  0  0  0  0
   23.1157  -19.4269  -16.2777 C   0  0  0  0  0  0  0  0  0  0  0  0
   23.4650  -20.5511  -17.2080 C   0  0  0  0  0  0  0  0  0  0  0  0
   24.8805  -20.4272  -17.6915 C   0  0  0  0  0  0  0  0  0  0  0  0
   25.7708  -21.5108  -17.0873 C   0  0  2  0  0  0  0  0  0  0  0  0
   25.1832  -22.7562  -17.3778 N   0  0  0  0  0  0  0  0  0  0  0  0
   26.0479  -21.1469  -15.7031 C   0  0  0  0  0  0  0  0  0  0  0  0
   25.2183  -21.6948  -14.8679 O   0  0  0  0  0  0  0  0  0  0  0  0
   20.6082  -17.2509  -18.5484 N   0  0  0  0  0  0  0  0  0  0  0  0
   27.0368  -20.3269  -15.1511 C   0  0  0  0  0  0  0  0  0  0  0  0
   28.3736  -20.1292  -15.7932 C   0  0  0  0  0  0  0  0  0  0  0  0
   28.4400  -18.6019  -15.7824 C   0  0  0  0  0  0  0  0  0  0  0  0
   27.4851  -18.1525  -14.6707 C   0  0  2  0  0  0  0  0  0  0  0  0
   27.1729  -19.4957  -14.0069 C   0  0  0  0  0  0  0  0  0  0  0  0
   26.1691  -19.4060  -12.9888 O   0  0  0  0  0  0  0  0  0  0  0  0
   25.3157  -18.5106  -12.9249 N   0  0  0  0  0  0  0  0  0  0  0  0
   18.6275  -20.0094  -10.7947 C   0  0  0  0  0  0  0  0  0  0  0  0
   19.2213  -20.4423  -12.0055 N   0  0  0  0  0  0  0  0  0  0  0  0
   18.8968  -19.7930  -13.0776 N   0  0  0  0  0  0  0  0  0  0  0  0
   20.1262  -21.5228  -12.0769 C   0  0  0  0  0  0  0  0  0  0  0  0
   21.4737  -21.2158  -12.6036 C   0  0  0  0  0  0  0  0  0  0  0  0
   22.4359  -20.9782  -11.5122 C   0  0  0  0  0  0  0  0  0  0  0  0
   23.7838  -20.6214  -11.8997 C   0  0  1  0  0  0  0  0  0  0  0  0
   24.9191  -20.3977  -10.9945 N   0  0  0  0  0  0  0  0  0  0  0  0
   26.0923  -20.3922  -11.9388 C   0  0  0  0  0  0  0  0  0  0  0  0
   25.2767  -21.3351   -9.9577 O   0  0  0  0  0  0  0  0  0  0  0  0
   24.6253  -21.3347   -8.8437 O   0  0  0  0  0  0  0  0  0  0  0  0
  1  2  1  0
  2  4  1  0
  3  2  2  0
  4  5  1  0
  6  7  1  0
  6  5  1  0
  7  8  1  0
  8  9  1  1
 10 12  1  0
 10  8  1  0
 11 10  2  0
 12 16  1  0
 13 14  1  0
 13 12  1  0
 14 15  1  0
 16 15  1  0
 16 17  1  6
 17 27  1  0
 18 17  2  0
 20 19  1  0
 20 22  1  0
 21 20  2  0
 22 23  1  0
 23 24  1  0
 24 25  1  0
 26 27  1  0
 26 28  1  0
 26 25  1  6
 28 29  2  0
 28 30  1  0
M  END
$$$$
