RPR.pdb
     RDKit          3D

 30 30  0  0  1  0  0  0  0  0999 V2000
   24.0976  -28.0950  -18.1023 N   0  0  0  0  0  0  0  0  0  0  0  0
   23.4049  -27.2054  -17.2305 C   0  0  0  0  0  0  0  0  0  0  0  0
   22.1267  -27.2766  -17.1379 N   0  0  0  0  0  0  0  0  0  0  0  0
   24.1131  -26.2438  -16.4662 N   0  0  0  0  0  0  0  0  0  0  0  0
   25.5698  -26.1532  -16.4769 C   0  0  0  0  0  0  0  0  0  0  0  0
   25.9725  -24.9990  -17.3469 C   0  0  0  0  0  0  0  0  0  0  0  0
   26.5262  -23.8735  -16.5225 C   0  0  0  0  0  0  0  0  0  0  0  0
   26.1616  -22.5161  -17.1193 C   0  0  2  0  0  0  0  0  0  0  0  0
   27.2312  -22.1096  -17.9388 N   0  0  0  0  0  0  0  0  0  0  0  0
   25.7127  -21.6522  -16.0343 C   0  0  0  0  0  0  0  0  0  0  0  0
   26.6687  -21.3511  -15.2088 O   0  0  0  0  0  0  0  0  0  0  0  0
   21.5462  -26.6356  -16.5811 N   0  0  0  0  0  0  0  0  0  0  0  0
   24.4538  -21.1130  -15.7527 C   0  0  0  0  0  0  0  0  0  0  0  0
   23.5838  -20.5000  -16.8042 C   0  0  0  0  0  0  0  0  0  0  0  0
   22.2776  -21.2422  -16.5213 C   0  0  0  0  0  0  0  0  0  0  0  0
   22.3729  -21.7101  -15.0647 C   0  0  2  0  0  0  0  0  0  0  0  0
   23.6257  -20.9588  -14.6085 C   0  0  0  0  0  0  0  0  0  0  0  0
   24.0520  -21.3152  -13.2881 O   0  0  0  0  0  0  0  0  0  0  0  0
   23.8534  -22.4194  -12.7631 N   0  0  0  0  0  0  0  0  0  0  0  0
   31.8761  -21.0408  -10.9610 C   0  0  0  0  0  0  0  0  0  0  0  0
   31.2979  -22.0984  -10.2172 N   0  0  0  0  0  0  0  0  0  0  0  0
   32.1122  -22.9739   -9.7207 N   0  0  0  0  0  0  0  0  0  0  0  0
   29.9080  -22.2227  -10.0069 C   0  0  0  0  0  0  0  0  0  0  0  0
   29.0446  -21.2883  -10.7612 C   0  0  0  0  0  0  0  0  0  0  0  0
   27.6172  -21.5368  -10.4887 C   0  0  0  0  0  0  0  0  0  0  0  0
   26.6670  -20.6852  -11.1714 C   0  0  2  0  0  0  0  0  0  0  0  0
   25.2031  -20.7634  -11.0759 N   0  0  0  0  0  0  0  0  0  0  0  0
   24.7649  -20.3712  -12.4624 C   0  0  0  0  0  0  0  0  0  0  0  0
   24.4406  -19.9189  -10.1887 O   0  0  0  0  0  0  0  0  0  0  0  0
   23.8273  -18.8859  -10.6600 O   0  0  0  0  0  0  0  0  0  0  0  0
  1  2  1  0
  2  4  1  0
  3  2  2  0
  4  5  1  0
  6  7  1  0
  6  5  1  0
  7  8  1  0
  8  9  1  1
 10 12  1  0
 10  8  1  0
 11 10  2  0
 12 16  1  0
 13 14  1  0
 13 12  1  0
 14 15  1  0
 16 15  1  0
 16 17  1  1
 17 27  1  0
 18 17  2  0
 20 19  1  0
 20 22  1  0
 21 20  2  0
 22 23  1  0
 23 24  1  0
 24 25  1  0
 26 27  1  0
 26 28  1  0
 26 25  1  6
 28 29  2  0
 28 30  1  0
M  END
$$$$
