RPR.pdb
     RDKit          3D

 30 30  0  0  1  0  0  0  0  0999 V2000
   22.6995  -15.1220  -16.1463 N   0  0  0  0  0  0  0  0  0  0  0  0
   21.9822  -16.1454  -16.8313 C   0  0  0  0  0  0  0  0  0  0  0  0
   21.0505  -15.8242  -17.6538 N   0  0  0  0  0  0  0  0  0  0  0  0
   22.2871  -17.5128  -16.6130 N   0  0  0  0  0  0  0  0  0  0  0  0
   23.4030  -17.9426  -15.7761 C   0  0  0  0  0  0  0  0  0  0  0  0
   24.3306  -18.7802  -16.6061 C   0  0  0  0  0  0  0  0  0  0  0  0
   23.9418  -20.2288  -16.5484 C   0  0  0  0  0  0  0  0  0  0  0  0
   25.1106  -21.1000  -16.0937 C   0  0  2  0  0  0  0  0  0  0  0  0
   25.2563  -22.1405  -17.0301 N   0  0  0  0  0  0  0  0  0  0  0  0
   24.9151  -21.4172  -14.6843 C   0  0  0  0  0  0  0  0  0  0  0  0
   23.7622  -21.9678  -14.4525 O   0  0  0  0  0  0  0  0  0  0  0  0
   20.4760  -16.4988  -18.1760 N   0  0  0  0  0  0  0  0  0  0  0  0
   25.7489  -21.2286  -13.5779 C   0  0  0  0  0  0  0  0  0  0  0  0
   27.2217  -21.4879  -13.6226 C   0  0  0  0  0  0  0  0  0  0  0  0
   27.7318  -20.1720  -13.0347 C   0  0  0  0  0  0  0  0  0  0  0  0
   26.5659  -19.6020  -12.2191 C   0  0  2  0  0  0  0  0  0  0  0  0
   25.6029  -20.7914  -12.2340 C   0  0  0  0  0  0  0  0  0  0  0  0
   24.3295  -20.4983  -11.6470 O   0  0  0  0  0  0  0  0  0  0  0  0
   23.5639  -19.6095  -12.0447 N   0  0  0  0  0  0  0  0  0  0  0  0
   18.3432  -24.7248   -7.2007 C   0  0  0  0  0  0  0  0  0  0  0  0
   18.9745  -24.4865   -8.4461 N   0  0  0  0  0  0  0  0  0  0  0  0
   18.5687  -25.1967   -9.4496 N   0  0  0  0  0  0  0  0  0  0  0  0
   19.9973  -23.5301   -8.6211 C   0  0  0  0  0  0  0  0  0  0  0  0
   20.6829  -23.0712   -7.3936 C   0  0  0  0  0  0  0  0  0  0  0  0
   21.6710  -22.0185   -7.6917 C   0  0  0  0  0  0  0  0  0  0  0  0
   22.2697  -22.0426   -9.0090 C   0  0  1  0  0  0  0  0  0  0  0  0
   22.5423  -20.8783   -9.8624 N   0  0  0  0  0  0  0  0  0  0  0  0
   23.8475  -21.2511  -10.5147 C   0  0  0  0  0  0  0  0  0  0  0  0
   22.7569  -19.5579   -9.3221 O   0  0  0  0  0  0  0  0  0  0  0  0
   23.9389  -19.2080   -8.9403 O   0  0  0  0  0  0  0  0  0  0  0  0
  1  2  1  0
  2  4  1  0
  3  2  2  0
  4  5  1  0
  6  7  1  0
  6  5  1  0
  7  8  1  0
  8  9  1  6
 10 12  1  0
 10  8  1  0
 11 10  2  0
 12 16  1  0
 13 14  1  0
 13 12  1  0
 14 15  1  0
 16 15  1  0
 16 17  1  1
 17 27  1  0
 18 17  2  0
 20 19  1  0
 20 22  1  0
 21 20  2  0
 22 23  1  0
 23 24  1  0
 24 25  1  0
 26 27  1  0
 26 28  1  0
 26 25  1  6
 28 29  2  0
 28 30  1  0
M  END
$$$$
