RPR.pdb
     RDKit          3D

 30 30  0  0  1  0  0  0  0  0999 V2000
   19.0212  -25.0984  -10.4500 N   0  0  0  0  0  0  0  0  0  0  0  0
   18.1952  -24.0571   -9.9356 C   0  0  0  0  0  0  0  0  0  0  0  0
   17.6583  -23.2167  -10.7438 N   0  0  0  0  0  0  0  0  0  0  0  0
   17.9617  -23.9404   -8.5420 N   0  0  0  0  0  0  0  0  0  0  0  0
   18.5350  -24.8676   -7.5714 C   0  0  0  0  0  0  0  0  0  0  0  0
   17.4851  -25.2086   -6.5553 C   0  0  0  0  0  0  0  0  0  0  0  0
   18.0356  -26.1254   -5.5021 C   0  0  0  0  0  0  0  0  0  0  0  0
   16.9947  -27.1512   -5.0592 C   0  0  2  0  0  0  0  0  0  0  0  0
   16.1675  -27.4236   -6.1648 N   0  0  0  0  0  0  0  0  0  0  0  0
   16.4037  -26.6841   -3.8112 C   0  0  0  0  0  0  0  0  0  0  0  0
   15.6222  -25.6612   -3.9818 O   0  0  0  0  0  0  0  0  0  0  0  0
   17.0932  -22.4080  -10.4530 N   0  0  0  0  0  0  0  0  0  0  0  0
   16.5412  -27.1510   -2.5005 C   0  0  0  0  0  0  0  0  0  0  0  0
   16.7256  -28.5993   -2.1739 C   0  0  0  0  0  0  0  0  0  0  0  0
   17.9453  -28.5023   -1.2573 C   0  0  0  0  0  0  0  0  0  0  0  0
   17.9461  -27.0677   -0.7174 C   0  0  2  0  0  0  0  0  0  0  0  0
   16.5757  -26.5847   -1.1978 C   0  0  0  0  0  0  0  0  0  0  0  0
   16.3456  -25.1927   -0.9502 O   0  0  0  0  0  0  0  0  0  0  0  0
   17.0544  -24.2773   -1.3906 N   0  0  0  0  0  0  0  0  0  0  0  0
   10.4342  -20.0937   -3.2042 C   0  0  0  0  0  0  0  0  0  0  0  0
   10.9643  -19.3749   -2.1049 N   0  0  0  0  0  0  0  0  0  0  0  0
   10.8367  -18.0869   -2.1356 N   0  0  0  0  0  0  0  0  0  0  0  0
   11.6050  -19.9986   -1.0131 C   0  0  0  0  0  0  0  0  0  0  0  0
   12.2498  -21.3009   -1.2880 C   0  0  0  0  0  0  0  0  0  0  0  0
   12.8830  -21.8533   -0.0767 C   0  0  0  0  0  0  0  0  0  0  0  0
   13.6365  -23.0784   -0.2378 C   0  0  1  0  0  0  0  0  0  0  0  0
   15.0362  -23.2966    0.1515 N   0  0  0  0  0  0  0  0  0  0  0  0
   15.2314  -24.7608   -0.1420 C   0  0  0  0  0  0  0  0  0  0  0  0
   15.4973  -23.1212    1.5073 O   0  0  0  0  0  0  0  0  0  0  0  0
   15.8321  -21.9457    1.9213 O   0  0  0  0  0  0  0  0  0  0  0  0
  1  2  1  0
  2  4  1  0
  3  2  2  0
  4  5  1  0
  6  7  1  0
  6  5  1  0
  7  8  1  0
  8  9  1  6
 10 12  1  0
 10  8  1  0
 11 10  2  0
 12 16  1  0
 13 14  1  0
 13 12  1  0
 14 15  1  0
 16 15  1  0
 16 17  1  6
 17 27  1  0
 18 17  2  0
 20 19  1  0
 20 22  1  0
 21 20  2  0
 22 23  1  0
 23 24  1  0
 24 25  1  0
 26 27  1  0
 26 28  1  0
 26 25  1  6
 28 29  2  0
 28 30  1  0
M  END
$$$$
