RPR.pdb
     RDKit          3D

 30 30  0  0  1  0  0  0  0  0999 V2000
   23.2734  -21.0336   -8.6322 N   0  0  0  0  0  0  0  0  0  0  0  0
   22.3592  -21.2029   -9.7125 C   0  0  0  0  0  0  0  0  0  0  0  0
   21.1374  -21.5094   -9.4662 N   0  0  0  0  0  0  0  0  0  0  0  0
   22.7860  -21.0368  -11.0544 N   0  0  0  0  0  0  0  0  0  0  0  0
   23.5146  -22.0737  -11.7786 C   0  0  0  0  0  0  0  0  0  0  0  0
   24.9859  -21.8336  -11.6092 C   0  0  0  0  0  0  0  0  0  0  0  0
   25.7235  -22.0983  -12.8894 C   0  0  0  0  0  0  0  0  0  0  0  0
   26.7762  -21.0249  -13.1562 C   0  0  2  0  0  0  0  0  0  0  0  0
   27.4806  -20.8111  -11.9567 N   0  0  0  0  0  0  0  0  0  0  0  0
   26.1201  -19.9046  -13.8193 C   0  0  0  0  0  0  0  0  0  0  0  0
   24.9181  -19.6965  -13.3742 O   0  0  0  0  0  0  0  0  0  0  0  0
   20.4263  -21.6936  -10.1861 N   0  0  0  0  0  0  0  0  0  0  0  0
   26.5685  -19.0455  -14.8270 C   0  0  0  0  0  0  0  0  0  0  0  0
   27.8133  -18.2261  -14.6955 C   0  0  0  0  0  0  0  0  0  0  0  0
   28.4993  -18.5883  -16.0128 C   0  0  0  0  0  0  0  0  0  0  0  0
   27.3798  -19.0576  -16.9487 C   0  0  2  0  0  0  0  0  0  0  0  0
   26.1464  -18.6688  -16.1304 C   0  0  0  0  0  0  0  0  0  0  0  0
   24.9160  -19.1205  -16.7086 O   0  0  0  0  0  0  0  0  0  0  0  0
   24.7534  -20.2341  -17.2258 N   0  0  0  0  0  0  0  0  0  0  0  0
   24.5108  -24.2185  -15.0240 C   0  0  0  0  0  0  0  0  0  0  0  0
   23.3325  -24.4473  -15.7758 N   0  0  0  0  0  0  0  0  0  0  0  0
   22.8105  -25.6293  -15.6944 N   0  0  0  0  0  0  0  0  0  0  0  0
   22.7294  -23.4594  -16.5832 C   0  0  0  0  0  0  0  0  0  0  0  0
   23.1431  -22.0624  -16.3288 C   0  0  0  0  0  0  0  0  0  0  0  0
   21.9917  -21.2205  -15.9561 C   0  0  0  0  0  0  0  0  0  0  0  0
   22.2319  -19.7968  -15.8578 C   0  0  2  0  0  0  0  0  0  0  0  0
   22.3896  -18.8615  -16.9796 N   0  0  0  0  0  0  0  0  0  0  0  0
   23.7506  -18.2703  -16.7219 C   0  0  0  0  0  0  0  0  0  0  0  0
   21.5178  -17.7275  -17.1683 O   0  0  0  0  0  0  0  0  0  0  0  0
   20.8414  -17.6164  -18.2617 O   0  0  0  0  0  0  0  0  0  0  0  0
  1  2  1  0
  2  4  1  0
  3  2  2  0
  4  5  1  0
  6  7  1  0
  6  5  1  0
  7  8  1  0
  8  9  1  1
 10 12  1  0
 10  8  1  0
 11 10  2  0
 12 16  1  0
 13 14  1  0
 13 12  1  0
 14 15  1  0
 16 15  1  0
 16 17  1  1
 17 27  1  0
 18 17  2  0
 20 19  1  0
 20 22  1  0
 21 20  2  0
 22 23  1  0
 23 24  1  0
 24 25  1  0
 26 27  1  0
 26 28  1  0
 26 25  1  6
 28 29  2  0
 28 30  1  0
M  END
$$$$
