FAG.pdb
     RDKit          3D

 21 21  0  0  1  0  0  0  0  0999 V2000
    6.0121  -18.0424   25.3698 N   0  0  0  0  0  0  0  0  0  0  0  0
    6.4249  -16.6653   25.2172 C   0  0  1  0  0  0  0  0  0  0  0  0
    7.2237  -16.2606   26.4308 C   0  0  0  0  0  0  0  0  0  0  0  0
    7.3227  -14.7758   26.4268 C   0  0  0  0  0  0  0  0  0  0  0  0
    6.1914  -13.9766   26.5120 C   0  0  0  0  0  0  0  0  0  0  0  0
    6.3129  -12.6170   26.5061 C   0  0  0  0  0  0  0  0  0  0  0  0
    7.5376  -12.0040   26.4171 C   0  0  0  0  0  0  0  0  0  0  0  0
    8.6763  -12.7956   26.3314 C   0  0  0  0  0  0  0  0  0  0  0  0
    8.5537  -14.1801   26.3373 C   0  0  0  0  0  0  0  0  0  0  0  0
    7.1786  -16.5417   23.9639 C   0  0  0  0  0  0  0  0  0  0  0  0
    7.9370  -17.4558   23.5478 O   0  0  0  0  0  0  0  0  0  0  0  0
    7.1889  -14.0819   21.1030 C   0  0  0  0  0  0  0  0  0  0  0  0
    7.7069  -15.3423   21.8113 C   0  0  2  0  0  0  0  0  0  0  0  0
    7.1037  -15.3727   23.1271 N   0  0  0  0  0  0  0  0  0  0  0  0
    9.1678  -15.1415   21.9726 C   0  0  0  0  0  0  0  0  0  0  0  0
    9.8811  -15.0874   20.9425 O   0  0  0  0  0  0  0  0  0  0  0  0
    9.7756  -15.0098   23.2552 N   0  0  0  0  0  0  0  0  0  0  0  0
   11.1887  -14.6967   23.2932 C   0  0  0  0  0  0  0  0  0  0  0  0
   11.9801  -15.9309   23.5095 C   0  0  0  0  0  0  0  0  0  0  0  0
   11.5053  -17.0664   23.2934 O   0  0  0  0  0  0  0  0  0  0  0  0
   13.2971  -15.8719   23.9669 O   0  0  0  0  0  0  0  0  0  0  0  0
  2  1  1  1
  2  3  1  0
  3  4  1  0
  4  5  2  0
  5  6  1  0
  7  6  2  0
  8  7  1  0
  9  4  1  0
  9  8  2  0
 10 14  1  0
 10  2  1  0
 11 10  2  0
 13 12  1  6
 13 14  1  0
 15 13  1  0
 15 17  1  0
 16 15  2  0
 18 17  1  0
 18 19  1  0
 19 21  1  0
 20 19  2  0
M  END
$$$$
