FAG.pdb
     RDKit          3D

 21 21  0  0  1  0  0  0  0  0999 V2000
    6.6421  -17.0106   25.8932 N   0  0  0  0  0  0  0  0  0  0  0  0
    6.8928  -15.8145   25.1209 C   0  0  1  0  0  0  0  0  0  0  0  0
    8.0497  -15.0706   25.7396 C   0  0  0  0  0  0  0  0  0  0  0  0
    7.5215  -13.7860   26.2739 C   0  0  0  0  0  0  0  0  0  0  0  0
    8.1059  -13.1647   27.3686 C   0  0  0  0  0  0  0  0  0  0  0  0
    7.5997  -11.9867   27.8368 C   0  0  0  0  0  0  0  0  0  0  0  0
    6.5135  -11.3863   27.2508 C   0  0  0  0  0  0  0  0  0  0  0  0
    5.9214  -12.0006   26.1542 C   0  0  0  0  0  0  0  0  0  0  0  0
    6.4360  -13.2002   25.6766 C   0  0  0  0  0  0  0  0  0  0  0  0
    7.1375  -16.2035   23.7270 C   0  0  0  0  0  0  0  0  0  0  0  0
    7.0808  -17.4024   23.3484 O   0  0  0  0  0  0  0  0  0  0  0  0
    7.6848  -14.3806   20.4712 C   0  0  0  0  0  0  0  0  0  0  0  0
    7.6925  -15.6532   21.3311 C   0  0  2  0  0  0  0  0  0  0  0  0
    7.4576  -15.2463   22.7005 N   0  0  0  0  0  0  0  0  0  0  0  0
    9.0701  -16.1949   21.2354 C   0  0  0  0  0  0  0  0  0  0  0  0
    9.4662  -16.6292   20.1275 O   0  0  0  0  0  0  0  0  0  0  0  0
    9.9466  -16.2343   22.3588 N   0  0  0  0  0  0  0  0  0  0  0  0
   11.2908  -16.7245   22.1376 C   0  0  0  0  0  0  0  0  0  0  0  0
   12.1677  -15.6219   21.6774 C   0  0  0  0  0  0  0  0  0  0  0  0
   12.0085  -15.0708   20.5672 O   0  0  0  0  0  0  0  0  0  0  0  0
   13.2139  -15.1529   22.4729 O   0  0  0  0  0  0  0  0  0  0  0  0
  2  1  1  1
  2  3  1  0
  3  4  1  0
  4  5  2  0
  5  6  1  0
  7  6  2  0
  8  7  1  0
  9  4  1  0
  9  8  2  0
 10 14  1  0
 10  2  1  0
 11 10  2  0
 13 12  1  6
 13 14  1  0
 15 13  1  0
 15 17  1  0
 16 15  2  0
 18 17  1  0
 18 19  1  0
 19 21  1  0
 20 19  2  0
M  END
$$$$
