FAG.pdb
     RDKit          3D

 21 21  0  0  1  0  0  0  0  0999 V2000
    6.8069  -16.9696   25.7825 N   0  0  0  0  0  0  0  0  0  0  0  0
    7.0431  -15.7727   25.0068 C   0  0  1  0  0  0  0  0  0  0  0  0
    8.0971  -14.9455   25.6992 C   0  0  0  0  0  0  0  0  0  0  0  0
    7.4162  -13.7703   26.3070 C   0  0  0  0  0  0  0  0  0  0  0  0
    7.8613  -13.2142   27.4980 C   0  0  0  0  0  0  0  0  0  0  0  0
    7.2166  -12.1360   28.0321 C   0  0  0  0  0  0  0  0  0  0  0  0
    6.1244  -11.5743   27.4197 C   0  0  0  0  0  0  0  0  0  0  0  0
    5.6710  -12.1239   26.2268 C   0  0  0  0  0  0  0  0  0  0  0  0
    6.3267  -13.2217   25.6821 C   0  0  0  0  0  0  0  0  0  0  0  0
    7.4232  -16.1680   23.6454 C   0  0  0  0  0  0  0  0  0  0  0  0
    7.8724  -17.3142   23.3837 O   0  0  0  0  0  0  0  0  0  0  0  0
    6.9925  -14.6624   20.2197 C   0  0  0  0  0  0  0  0  0  0  0  0
    7.5606  -15.7290   21.1676 C   0  0  2  0  0  0  0  0  0  0  0  0
    7.3097  -15.2775   22.5201 N   0  0  0  0  0  0  0  0  0  0  0  0
    9.0265  -15.7293   20.9405 C   0  0  0  0  0  0  0  0  0  0  0  0
    9.4517  -15.5198   19.7794 O   0  0  0  0  0  0  0  0  0  0  0  0
    9.9551  -15.9593   21.9974 N   0  0  0  0  0  0  0  0  0  0  0  0
   11.3584  -16.0258   21.6477 C   0  0  0  0  0  0  0  0  0  0  0  0
   12.1856  -16.1374   22.8723 C   0  0  0  0  0  0  0  0  0  0  0  0
   11.6759  -16.3086   24.0004 O   0  0  0  0  0  0  0  0  0  0  0  0
   13.5773  -16.0549   22.8123 O   0  0  0  0  0  0  0  0  0  0  0  0
  2  1  1  1
  2  3  1  0
  3  4  1  0
  4  5  2  0
  5  6  1  0
  7  6  2  0
  8  7  1  0
  9  4  1  0
  9  8  2  0
 10 14  1  0
 10  2  1  0
 11 10  2  0
 13 12  1  6
 13 14  1  0
 15 13  1  0
 15 17  1  0
 16 15  2  0
 18 17  1  0
 18 19  1  0
 19 21  1  0
 20 19  2  0
M  END
$$$$
