FAG.pdb
     RDKit          3D

 21 21  0  0  1  0  0  0  0  0999 V2000
    8.6598  -14.2307   23.1016 N   0  0  0  0  0  0  0  0  0  0  0  0
    8.7557  -14.7053   24.4638 C   0  0  1  0  0  0  0  0  0  0  0  0
    7.3651  -14.8252   25.0352 C   0  0  0  0  0  0  0  0  0  0  0  0
    7.0944  -13.5885   25.8173 C   0  0  0  0  0  0  0  0  0  0  0  0
    6.1815  -12.6407   25.3762 C   0  0  0  0  0  0  0  0  0  0  0  0
    5.9536  -11.5156   26.1149 C   0  0  0  0  0  0  0  0  0  0  0  0
    6.6084  -11.2869   27.2991 C   0  0  0  0  0  0  0  0  0  0  0  0
    7.5243  -12.2299   27.7491 C   0  0  0  0  0  0  0  0  0  0  0  0
    7.7572  -13.3759   26.9979 C   0  0  0  0  0  0  0  0  0  0  0  0
    9.4898  -15.9763   24.4630 C   0  0  0  0  0  0  0  0  0  0  0  0
    9.5967  -16.6864   25.4966 O   0  0  0  0  0  0  0  0  0  0  0  0
   10.8771  -18.3051   21.8894 C   0  0  0  0  0  0  0  0  0  0  0  0
   10.8798  -17.7385   23.3169 C   0  0  2  0  0  0  0  0  0  0  0  0
   10.1354  -16.4972   23.2865 N   0  0  0  0  0  0  0  0  0  0  0  0
   12.2971  -17.4251   23.6226 C   0  0  0  0  0  0  0  0  0  0  0  0
   13.0658  -18.3681   23.9270 O   0  0  0  0  0  0  0  0  0  0  0  0
   12.8028  -16.0930   23.5797 N   0  0  0  0  0  0  0  0  0  0  0  0
   14.1831  -15.8923   23.9678 C   0  0  0  0  0  0  0  0  0  0  0  0
   15.0475  -15.8256   22.7658 C   0  0  0  0  0  0  0  0  0  0  0  0
   14.6270  -16.1392   21.6316 O   0  0  0  0  0  0  0  0  0  0  0  0
   16.3756  -15.4066   22.8552 O   0  0  0  0  0  0  0  0  0  0  0  0
  2  1  1  6
  2  3  1  0
  3  4  1  0
  4  5  2  0
  5  6  1  0
  7  6  2  0
  8  7  1  0
  9  4  1  0
  9  8  2  0
 10 14  1  0
 10  2  1  0
 11 10  2  0
 13 12  1  6
 13 14  1  0
 15 13  1  0
 15 17  1  0
 16 15  2  0
 18 17  1  0
 18 19  1  0
 19 21  1  0
 20 19  2  0
M  END
$$$$
