FAG.pdb
     RDKit          3D

 21 21  0  0  1  0  0  0  0  0999 V2000
    6.9117  -16.2912   25.7924 N   0  0  0  0  0  0  0  0  0  0  0  0
    7.6935  -15.5879   24.8003 C   0  0  1  0  0  0  0  0  0  0  0  0
    8.5460  -14.5563   25.4958 C   0  0  0  0  0  0  0  0  0  0  0  0
    7.6471  -13.4545   25.9344 C   0  0  0  0  0  0  0  0  0  0  0  0
    6.6949  -12.9164   25.0802 C   0  0  0  0  0  0  0  0  0  0  0  0
    5.8839  -11.9060   25.5103 C   0  0  0  0  0  0  0  0  0  0  0  0
    5.9809  -11.3963   26.7808 C   0  0  0  0  0  0  0  0  0  0  0  0
    6.9312  -11.9285   27.6435 C   0  0  0  0  0  0  0  0  0  0  0  0
    7.7575  -12.9572   27.2067 C   0  0  0  0  0  0  0  0  0  0  0  0
    8.4796  -16.5707   24.0451 C   0  0  0  0  0  0  0  0  0  0  0  0
    8.6222  -17.7571   24.4398 O   0  0  0  0  0  0  0  0  0  0  0  0
   10.0456  -16.6840   20.6252 C   0  0  0  0  0  0  0  0  0  0  0  0
    9.8388  -17.2544   22.0361 C   0  0  2  0  0  0  0  0  0  0  0  0
    9.1390  -16.2483   22.8067 N   0  0  0  0  0  0  0  0  0  0  0  0
   11.1981  -17.4175   22.6073 C   0  0  0  0  0  0  0  0  0  0  0  0
   11.8897  -18.3953   22.2353 O   0  0  0  0  0  0  0  0  0  0  0  0
   11.7332  -16.5006   23.5587 N   0  0  0  0  0  0  0  0  0  0  0  0
   13.0468  -16.7886   24.0948 C   0  0  0  0  0  0  0  0  0  0  0  0
   14.0791  -16.0222   23.3576 C   0  0  0  0  0  0  0  0  0  0  0  0
   13.8629  -15.5451   22.2230 O   0  0  0  0  0  0  0  0  0  0  0  0
   15.3429  -15.8022   23.9067 O   0  0  0  0  0  0  0  0  0  0  0  0
  2  1  1  1
  2  3  1  0
  3  4  1  0
  4  5  2  0
  5  6  1  0
  7  6  2  0
  8  7  1  0
  9  4  1  0
  9  8  2  0
 10 14  1  0
 10  2  1  0
 11 10  2  0
 13 12  1  6
 13 14  1  0
 15 13  1  0
 15 17  1  0
 16 15  2  0
 18 17  1  0
 18 19  1  0
 19 21  1  0
 20 19  2  0
M  END
$$$$
