FAG.pdb
     RDKit          3D

 21 21  0  0  1  0  0  0  0  0999 V2000
    6.6327  -17.2776   25.8889 N   0  0  0  0  0  0  0  0  0  0  0  0
    6.8921  -15.9984   25.2675 C   0  0  1  0  0  0  0  0  0  0  0  0
    7.8878  -15.2419   26.1107 C   0  0  0  0  0  0  0  0  0  0  0  0
    7.2831  -13.9233   26.4425 C   0  0  0  0  0  0  0  0  0  0  0  0
    7.9908  -12.9623   27.1508 C   0  0  0  0  0  0  0  0  0  0  0  0
    7.4102  -11.7614   27.4409 C   0  0  0  0  0  0  0  0  0  0  0  0
    6.1282  -11.4682   27.0486 C   0  0  0  0  0  0  0  0  0  0  0  0
    5.4114  -12.4238   26.3389 C   0  0  0  0  0  0  0  0  0  0  0  0
    6.0016  -13.6469   26.0430 C   0  0  0  0  0  0  0  0  0  0  0  0
    7.3593  -16.2335   23.8961 C   0  0  0  0  0  0  0  0  0  0  0  0
    7.8449  -17.3373   23.5361 O   0  0  0  0  0  0  0  0  0  0  0  0
    7.2603  -14.3167   20.6481 C   0  0  0  0  0  0  0  0  0  0  0  0
    7.7425  -15.4851   21.5204 C   0  0  2  0  0  0  0  0  0  0  0  0
    7.2954  -15.2235   22.8723 N   0  0  0  0  0  0  0  0  0  0  0  0
    9.2243  -15.4188   21.4982 C   0  0  0  0  0  0  0  0  0  0  0  0
    9.8138  -15.5821   20.4034 O   0  0  0  0  0  0  0  0  0  0  0  0
    9.9878  -15.1767   22.6774 N   0  0  0  0  0  0  0  0  0  0  0  0
   11.4255  -15.0860   22.5326 C   0  0  0  0  0  0  0  0  0  0  0  0
   12.0465  -16.4129   22.7559 C   0  0  0  0  0  0  0  0  0  0  0  0
   11.4469  -17.3302   23.3565 O   0  0  0  0  0  0  0  0  0  0  0  0
   13.3358  -16.6914   22.3004 O   0  0  0  0  0  0  0  0  0  0  0  0
  2  1  1  1
  2  3  1  0
  3  4  1  0
  4  5  2  0
  5  6  1  0
  7  6  2  0
  8  7  1  0
  9  4  1  0
  9  8  2  0
 10 14  1  0
 10  2  1  0
 11 10  2  0
 13 12  1  6
 13 14  1  0
 15 13  1  0
 15 17  1  0
 16 15  2  0
 18 17  1  0
 18 19  1  0
 19 21  1  0
 20 19  2  0
M  END
$$$$
