FAG.pdb
     RDKit          3D

 21 21  0  0  1  0  0  0  0  0999 V2000
    6.4209  -17.3412   26.0232 N   0  0  0  0  0  0  0  0  0  0  0  0
    6.6246  -16.0848   25.3378 C   0  0  1  0  0  0  0  0  0  0  0  0
    7.7967  -15.3734   25.9660 C   0  0  0  0  0  0  0  0  0  0  0  0
    7.3216  -14.0358   26.4127 C   0  0  0  0  0  0  0  0  0  0  0  0
    8.1995  -13.0934   26.9295 C   0  0  0  0  0  0  0  0  0  0  0  0
    7.7348  -11.8744   27.3314 C   0  0  0  0  0  0  0  0  0  0  0  0
    6.4058  -11.5445   27.2396 C   0  0  0  0  0  0  0  0  0  0  0  0
    5.5189  -12.4813   26.7235 C   0  0  0  0  0  0  0  0  0  0  0  0
    5.9909  -13.7229   26.3140 C   0  0  0  0  0  0  0  0  0  0  0  0
    6.8162  -16.3600   23.9089 C   0  0  0  0  0  0  0  0  0  0  0  0
    5.9156  -16.8840   23.2031 O   0  0  0  0  0  0  0  0  0  0  0  0
    7.2802  -14.2841   21.7804 C   0  0  0  0  0  0  0  0  0  0  0  0
    8.0439  -15.6154   21.8378 C   0  0  2  0  0  0  0  0  0  0  0  0
    8.0411  -16.0517   23.2182 N   0  0  0  0  0  0  0  0  0  0  0  0
    9.4402  -15.2952   21.4527 C   0  0  0  0  0  0  0  0  0  0  0  0
    9.6538  -14.8373   20.3048 O   0  0  0  0  0  0  0  0  0  0  0  0
   10.5344  -15.4925   22.3447 N   0  0  0  0  0  0  0  0  0  0  0  0
   11.8261  -15.7843   21.7594 C   0  0  0  0  0  0  0  0  0  0  0  0
   12.8605  -15.8646   22.8176 C   0  0  0  0  0  0  0  0  0  0  0  0
   12.5663  -16.0704   24.0145 O   0  0  0  0  0  0  0  0  0  0  0  0
   14.2143  -15.7119   22.5156 O   0  0  0  0  0  0  0  0  0  0  0  0
  2  1  1  1
  2  3  1  0
  3  4  1  0
  4  5  2  0
  5  6  1  0
  7  6  2  0
  8  7  1  0
  9  4  1  0
  9  8  2  0
 10 14  1  0
 10  2  1  0
 11 10  2  0
 13 12  1  1
 13 14  1  0
 15 13  1  0
 15 17  1  0
 16 15  2  0
 18 17  1  0
 18 19  1  0
 19 21  1  0
 20 19  2  0
M  END
$$$$
