FAG.pdb
     RDKit          3D

 21 21  0  0  1  0  0  0  0  0999 V2000
    6.5687  -18.1726   25.7346 N   0  0  0  0  0  0  0  0  0  0  0  0
    6.7061  -16.7658   25.4309 C   0  0  1  0  0  0  0  0  0  0  0  0
    7.5063  -16.1083   26.5273 C   0  0  0  0  0  0  0  0  0  0  0  0
    7.2389  -14.6460   26.4614 C   0  0  0  0  0  0  0  0  0  0  0  0
    8.2722  -13.7281   26.3361 C   0  0  0  0  0  0  0  0  0  0  0  0
    7.9967  -12.3924   26.2781 C   0  0  0  0  0  0  0  0  0  0  0  0
    6.7099  -11.9193   26.3405 C   0  0  0  0  0  0  0  0  0  0  0  0
    5.6684  -12.8305   26.4659 C   0  0  0  0  0  0  0  0  0  0  0  0
    5.9478  -14.1907   26.5251 C   0  0  0  0  0  0  0  0  0  0  0  0
    7.3259  -16.6340   24.1070 C   0  0  0  0  0  0  0  0  0  0  0  0
    8.1089  -17.5050   23.6465 O   0  0  0  0  0  0  0  0  0  0  0  0
    6.8988  -14.2511   21.2066 C   0  0  0  0  0  0  0  0  0  0  0  0
    7.4940  -15.5077   21.8589 C   0  0  2  0  0  0  0  0  0  0  0  0
    7.0830  -15.5054   23.2470 N   0  0  0  0  0  0  0  0  0  0  0  0
    8.9656  -15.3287   21.8079 C   0  0  0  0  0  0  0  0  0  0  0  0
    9.5236  -15.2803   20.6858 O   0  0  0  0  0  0  0  0  0  0  0  0
    9.7542  -15.2115   22.9897 N   0  0  0  0  0  0  0  0  0  0  0  0
   11.1915  -15.1500   22.8274 C   0  0  0  0  0  0  0  0  0  0  0  0
   11.7810  -16.5016   22.9756 C   0  0  0  0  0  0  0  0  0  0  0  0
   11.4066  -17.4660   22.2745 O   0  0  0  0  0  0  0  0  0  0  0  0
   12.7852  -16.7516   23.9117 O   0  0  0  0  0  0  0  0  0  0  0  0
  2  1  1  1
  2  3  1  0
  3  4  1  0
  4  5  2  0
  5  6  1  0
  7  6  2  0
  8  7  1  0
  9  4  1  0
  9  8  2  0
 10 14  1  0
 10  2  1  0
 11 10  2  0
 13 12  1  6
 13 14  1  0
 15 13  1  0
 15 17  1  0
 16 15  2  0
 18 17  1  0
 18 19  1  0
 19 21  1  0
 20 19  2  0
M  END
$$$$
