FAG.pdb
     RDKit          3D

 21 21  0  0  1  0  0  0  0  0999 V2000
    6.2037  -17.8295   25.6760 N   0  0  0  0  0  0  0  0  0  0  0  0
    6.5697  -16.4804   25.3073 C   0  0  1  0  0  0  0  0  0  0  0  0
    7.4687  -15.9118   26.3764 C   0  0  0  0  0  0  0  0  0  0  0  0
    7.3683  -14.4289   26.3037 C   0  0  0  0  0  0  0  0  0  0  0  0
    6.1957  -13.7673   26.6400 C   0  0  0  0  0  0  0  0  0  0  0  0
    6.1329  -12.4058   26.5636 C   0  0  0  0  0  0  0  0  0  0  0  0
    7.2093  -11.6571   26.1583 C   0  0  0  0  0  0  0  0  0  0  0  0
    8.3879  -12.3102   25.8194 C   0  0  0  0  0  0  0  0  0  0  0  0
    8.4530  -13.6965   25.8969 C   0  0  0  0  0  0  0  0  0  0  0  0
    7.2005  -16.5151   23.9826 C   0  0  0  0  0  0  0  0  0  0  0  0
    7.8630  -17.5082   23.5842 O   0  0  0  0  0  0  0  0  0  0  0  0
    7.0251  -14.3540   20.9006 C   0  0  0  0  0  0  0  0  0  0  0  0
    7.5995  -15.5365   21.6947 C   0  0  2  0  0  0  0  0  0  0  0  0
    7.1063  -15.4216   23.0510 N   0  0  0  0  0  0  0  0  0  0  0  0
    9.0686  -15.3326   21.7138 C   0  0  0  0  0  0  0  0  0  0  0  0
    9.6947  -15.3922   20.6287 O   0  0  0  0  0  0  0  0  0  0  0  0
    9.7801  -15.0733   22.9215 N   0  0  0  0  0  0  0  0  0  0  0  0
   11.2148  -14.9041   22.8257 C   0  0  0  0  0  0  0  0  0  0  0  0
   11.9054  -16.1430   23.2548 C   0  0  0  0  0  0  0  0  0  0  0  0
   12.9841  -16.1135   23.8852 O   0  0  0  0  0  0  0  0  0  0  0  0
   11.3735  -17.4010   22.9690 O   0  0  0  0  0  0  0  0  0  0  0  0
  2  1  1  1
  2  3  1  0
  3  4  1  0
  4  5  2  0
  5  6  1  0
  7  6  2  0
  8  7  1  0
  9  4  1  0
  9  8  2  0
 10 14  1  0
 10  2  1  0
 11 10  2  0
 13 12  1  6
 13 14  1  0
 15 13  1  0
 15 17  1  0
 16 15  2  0
 18 17  1  0
 18 19  1  0
 19 21  1  0
 20 19  2  0
M  END
$$$$
