YKV.pdb
     RDKit          3D

 29 29  0  0  1  0  0  0  0  0999 V2000
   22.9187  -21.7997   -6.5323 O   0  0  0  0  0  0  0  0  0  0  0  0
   23.6025  -21.4130   -7.6603 C   0  0  0  0  0  0  0  0  0  0  0  0
   22.8797  -21.2367   -8.8196 C   0  0  0  0  0  0  0  0  0  0  0  0
   23.5384  -20.8494   -9.9659 C   0  0  0  0  0  0  0  0  0  0  0  0
   24.8961  -20.6293  -10.0046 C   0  0  0  0  0  0  0  0  0  0  0  0
   25.5316  -20.2135  -11.2773 C   0  0  0  0  0  0  0  0  0  0  0  0
   25.2139  -21.1836  -12.3937 C   0  0  2  0  0  0  0  0  0  0  0  0
   26.2413  -22.2059  -12.4658 N   0  0  0  0  0  0  0  0  0  0  0  0
   25.1111  -20.4921  -13.7057 C   0  0  0  0  0  0  0  0  0  0  0  0
   26.1497  -20.2176  -14.3738 O   0  0  0  0  0  0  0  0  0  0  0  0
   25.5952  -20.8150   -8.8226 C   0  0  0  0  0  0  0  0  0  0  0  0
   24.9508  -21.2032   -7.6640 C   0  0  0  0  0  0  0  0  0  0  0  0
   23.8687  -20.1079  -14.2716 N   0  0  0  0  0  0  0  0  0  0  0  0
   23.8130  -19.4963  -15.6248 C   0  0  1  0  0  0  0  0  0  0  0  0
   22.7589  -20.1616  -16.4412 C   0  0  0  0  0  0  0  0  0  0  0  0
   22.6590  -19.5905  -17.8196 C   0  0  0  0  0  0  0  0  0  0  0  0
   21.6544  -20.3565  -18.6725 C   0  0  0  0  0  0  0  0  0  0  0  0
   21.7414  -19.7664  -20.0718 C   0  0  0  0  0  0  0  0  0  0  0  0
   22.8124  -20.3607  -20.8345 N   0  0  0  0  0  0  0  0  0  0  0  0
   23.6316  -18.0384  -15.4648 C   0  0  0  0  0  0  0  0  0  0  0  0
   22.7815  -17.5380  -14.7005 O   0  0  0  0  0  0  0  0  0  0  0  0
   26.5371  -15.3084  -15.0785 C   0  0  0  0  0  0  0  0  0  0  0  0
   25.5788  -14.9271  -16.1688 C   0  0  2  0  0  0  0  0  0  0  0  0
   25.3339  -13.4168  -16.0748 C   0  0  0  0  0  0  0  0  0  0  0  0
   24.2654  -15.6806  -16.0909 C   0  0  2  0  0  0  0  0  0  0  0  0
   24.4360  -17.0934  -16.1914 N   0  0  0  0  0  0  0  0  0  0  0  0
   23.3821  -15.1221  -17.1417 C   0  0  0  0  0  0  0  0  0  0  0  0
   23.3910  -15.5453  -18.3244 O   0  0  0  0  0  0  0  0  0  0  0  0
   22.5088  -14.1003  -16.8392 O   0  0  0  0  0  0  0  0  0  0  0  0
  2  1  1  0
  3  2  2  0
  4  3  1  0
  5  4  2  0
  5 11  1  0
  6  5  1  0
  6  7  1  0
  7  9  1  0
  7  8  1  6
  9 10  2  0
 11 12  2  0
 12  2  1  0
 13 14  1  0
 13  9  1  0
 14 15  1  6
 16 15  1  0
 17 16  1  0
 18 19  1  0
 18 17  1  0
 20 26  1  0
 20 14  1  0
 21 20  2  0
 23 22  1  1
 23 24  1  0
 25 26  1  6
 25 23  1  0
 27 29  1  0
 27 25  1  0
 28 27  2  0
M  END
$$$$
