YKV.pdb
     RDKit          3D

 29 29  0  0  1  0  0  0  0  0999 V2000
   29.4940  -19.9823   -3.6963 O   0  0  0  0  0  0  0  0  0  0  0  0
   28.7941  -19.8864   -4.8755 C   0  0  0  0  0  0  0  0  0  0  0  0
   27.7750  -20.7876   -5.0915 C   0  0  0  0  0  0  0  0  0  0  0  0
   27.0561  -20.7156   -6.2646 C   0  0  0  0  0  0  0  0  0  0  0  0
   27.3128  -19.7767   -7.2371 C   0  0  0  0  0  0  0  0  0  0  0  0
   26.4940  -19.7635   -8.4724 C   0  0  0  0  0  0  0  0  0  0  0  0
   26.9119  -20.8649   -9.4214 C   0  0  2  0  0  0  0  0  0  0  0  0
   28.3220  -20.7337   -9.7384 N   0  0  0  0  0  0  0  0  0  0  0  0
   26.1175  -20.8345  -10.6775 C   0  0  0  0  0  0  0  0  0  0  0  0
   26.3033  -19.9250  -11.5370 O   0  0  0  0  0  0  0  0  0  0  0  0
   28.3439  -18.8844   -6.9904 C   0  0  0  0  0  0  0  0  0  0  0  0
   29.0750  -18.9422   -5.8198 C   0  0  0  0  0  0  0  0  0  0  0  0
   25.1259  -21.8030  -10.9780 N   0  0  0  0  0  0  0  0  0  0  0  0
   24.4555  -21.8098  -12.3042 C   0  0  1  0  0  0  0  0  0  0  0  0
   24.6893  -23.1139  -12.9861 C   0  0  0  0  0  0  0  0  0  0  0  0
   24.1005  -23.1533  -14.3601 C   0  0  0  0  0  0  0  0  0  0  0  0
   24.3538  -24.4935  -15.0405 C   0  0  0  0  0  0  0  0  0  0  0  0
   23.7816  -24.3766  -16.4451 C   0  0  0  0  0  0  0  0  0  0  0  0
   24.7853  -24.6259  -17.4512 N   0  0  0  0  0  0  0  0  0  0  0  0
   23.0307  -21.4736  -12.1024 C   0  0  0  0  0  0  0  0  0  0  0  0
   22.3301  -21.9876  -11.2066 O   0  0  0  0  0  0  0  0  0  0  0  0
   20.9527  -18.6269  -14.7663 C   0  0  0  0  0  0  0  0  0  0  0  0
   20.6071  -18.8460  -13.3223 C   0  0  2  0  0  0  0  0  0  0  0  0
   21.3455  -17.7880  -12.4948 C   0  0  0  0  0  0  0  0  0  0  0  0
   20.9596  -20.2378  -12.8352 C   0  0  2  0  0  0  0  0  0  0  0  0
   22.3545  -20.5191  -12.9388 N   0  0  0  0  0  0  0  0  0  0  0  0
   20.1134  -21.1897  -13.5928 C   0  0  0  0  0  0  0  0  0  0  0  0
   20.5733  -21.9232  -14.5029 O   0  0  0  0  0  0  0  0  0  0  0  0
   18.7691  -21.2955  -13.3101 O   0  0  0  0  0  0  0  0  0  0  0  0
  2  1  1  0
  3  2  2  0
  4  3  1  0
  5  4  2  0
  5 11  1  0
  6  5  1  0
  6  7  1  0
  7  9  1  0
  7  8  1  6
  9 10  2  0
 11 12  2  0
 12  2  1  0
 13 14  1  0
 13  9  1  0
 14 15  1  1
 16 15  1  0
 17 16  1  0
 18 19  1  0
 18 17  1  0
 20 26  1  0
 20 14  1  0
 21 20  2  0
 23 22  1  6
 23 24  1  0
 25 26  1  6
 25 23  1  0
 27 29  1  0
 27 25  1  0
 28 27  2  0
M  END
$$$$
