YKV.pdb
     RDKit          3D

 29 29  0  0  1  0  0  0  0  0999 V2000
   22.0604  -20.4840  -12.6463 O   0  0  0  0  0  0  0  0  0  0  0  0
   22.6941  -21.4373  -13.4073 C   0  0  0  0  0  0  0  0  0  0  0  0
   23.8583  -21.9829  -12.9130 C   0  0  0  0  0  0  0  0  0  0  0  0
   24.5152  -22.9407  -13.6539 C   0  0  0  0  0  0  0  0  0  0  0  0
   24.0569  -23.3797  -14.8748 C   0  0  0  0  0  0  0  0  0  0  0  0
   24.8205  -24.4145  -15.6115 C   0  0  0  0  0  0  0  0  0  0  0  0
   26.0206  -23.8176  -16.3128 C   0  0  2  0  0  0  0  0  0  0  0  0
   25.5861  -22.8078  -17.2603 N   0  0  0  0  0  0  0  0  0  0  0  0
   26.8101  -24.8568  -17.0246 C   0  0  0  0  0  0  0  0  0  0  0  0
   26.4303  -25.3000  -18.1470 O   0  0  0  0  0  0  0  0  0  0  0  0
   22.8835  -22.8119  -15.3449 C   0  0  0  0  0  0  0  0  0  0  0  0
   22.2118  -21.8503  -14.6151 C   0  0  0  0  0  0  0  0  0  0  0  0
   28.0092  -25.4001  -16.4971 N   0  0  0  0  0  0  0  0  0  0  0  0
   28.8225  -26.3518  -17.2977 C   0  0  1  0  0  0  0  0  0  0  0  0
   30.2209  -25.8512  -17.4172 C   0  0  0  0  0  0  0  0  0  0  0  0
   30.3134  -24.6067  -18.2411 C   0  0  0  0  0  0  0  0  0  0  0  0
   31.7236  -24.0284  -18.2270 C   0  0  0  0  0  0  0  0  0  0  0  0
   31.6803  -22.7712  -19.0822 C   0  0  0  0  0  0  0  0  0  0  0  0
   32.9735  -22.1361  -19.1609 N   0  0  0  0  0  0  0  0  0  0  0  0
   28.7040  -27.6904  -16.6829 C   0  0  0  0  0  0  0  0  0  0  0  0
   28.8111  -27.8876  -15.4553 O   0  0  0  0  0  0  0  0  0  0  0  0
   27.2331  -31.1107  -18.9608 C   0  0  0  0  0  0  0  0  0  0  0  0
   27.1958  -30.9664  -17.4673 C   0  0  2  0  0  0  0  0  0  0  0  0
   25.8743  -30.2864  -17.0920 C   0  0  0  0  0  0  0  0  0  0  0  0
   28.3694  -30.1773  -16.9207 C   0  0  2  0  0  0  0  0  0  0  0  0
   28.4544  -28.8651  -17.4740 N   0  0  0  0  0  0  0  0  0  0  0  0
   29.5857  -30.9907  -17.1552 C   0  0  0  0  0  0  0  0  0  0  0  0
   30.4716  -30.6556  -17.9804 O   0  0  0  0  0  0  0  0  0  0  0  0
   29.7788  -32.1625  -16.4568 O   0  0  0  0  0  0  0  0  0  0  0  0
  2  1  1  0
  3  2  2  0
  4  3  1  0
  5  4  2  0
  5 11  1  0
  6  5  1  0
  6  7  1  0
  7  9  1  0
  7  8  1  6
  9 10  2  0
 11 12  2  0
 12  2  1  0
 13 14  1  0
 13  9  1  0
 14 15  1  1
 16 15  1  0
 17 16  1  0
 18 19  1  0
 18 17  1  0
 20 26  1  0
 20 14  1  0
 21 20  2  0
 23 22  1  6
 23 24  1  0
 25 26  1  6
 25 23  1  0
 27 29  1  0
 27 25  1  0
 28 27  2  0
M  END
$$$$
