YKV.pdb
     RDKit          3D

 29 29  0  0  1  0  0  0  0  0999 V2000
   38.7099  -30.8149  -23.0453 O   0  0  0  0  0  0  0  0  0  0  0  0
   37.6511  -30.7571  -22.1705 C   0  0  0  0  0  0  0  0  0  0  0  0
   36.3941  -31.0244  -22.6665 C   0  0  0  0  0  0  0  0  0  0  0  0
   35.3139  -30.9740  -21.8130 C   0  0  0  0  0  0  0  0  0  0  0  0
   35.4356  -30.6663  -20.4774 C   0  0  0  0  0  0  0  0  0  0  0  0
   34.2248  -30.6329  -19.6232 C   0  0  0  0  0  0  0  0  0  0  0  0
   33.5398  -29.2859  -19.6920 C   0  0  2  0  0  0  0  0  0  0  0  0
   34.3307  -28.2941  -18.9871 N   0  0  0  0  0  0  0  0  0  0  0  0
   32.1743  -29.3368  -19.1069 C   0  0  0  0  0  0  0  0  0  0  0  0
   32.0014  -29.2146  -17.8596 O   0  0  0  0  0  0  0  0  0  0  0  0
   36.7127  -30.4024  -20.0088 C   0  0  0  0  0  0  0  0  0  0  0  0
   37.8070  -30.4485  -20.8505 C   0  0  0  0  0  0  0  0  0  0  0  0
   31.0110  -29.5220  -19.8968 N   0  0  0  0  0  0  0  0  0  0  0  0
   29.6664  -29.5498  -19.2647 C   0  0  1  0  0  0  0  0  0  0  0  0
   28.6896  -28.8107  -20.1131 C   0  0  0  0  0  0  0  0  0  0  0  0
   27.3054  -28.8402  -19.5479 C   0  0  0  0  0  0  0  0  0  0  0  0
   26.3026  -28.1780  -20.4856 C   0  0  0  0  0  0  0  0  0  0  0  0
   25.4634  -27.2446  -19.6264 C   0  0  0  0  0  0  0  0  0  0  0  0
   24.4307  -26.5959  -20.3974 N   0  0  0  0  0  0  0  0  0  0  0  0
   29.3068  -30.9599  -19.0074 C   0  0  0  0  0  0  0  0  0  0  0  0
   29.4847  -31.8710  -19.8415 O   0  0  0  0  0  0  0  0  0  0  0  0
   27.3827  -32.1399  -15.2330 C   0  0  0  0  0  0  0  0  0  0  0  0
   28.3094  -33.0324  -16.0059 C   0  0  2  0  0  0  0  0  0  0  0  0
   29.7135  -32.8844  -15.4092 C   0  0  0  0  0  0  0  0  0  0  0  0
   28.3305  -32.7193  -17.4892 C   0  0  2  0  0  0  0  0  0  0  0  0
   28.7210  -31.3743  -17.7611 N   0  0  0  0  0  0  0  0  0  0  0  0
   26.9903  -33.0584  -18.0231 C   0  0  0  0  0  0  0  0  0  0  0  0
   26.1348  -32.1821  -18.3024 O   0  0  0  0  0  0  0  0  0  0  0  0
   26.6422  -34.3751  -18.2311 O   0  0  0  0  0  0  0  0  0  0  0  0
  2  1  1  0
  3  2  2  0
  4  3  1  0
  5  4  2  0
  5 11  1  0
  6  5  1  0
  6  7  1  0
  7  9  1  0
  7  8  1  1
  9 10  2  0
 11 12  2  0
 12  2  1  0
 13 14  1  0
 13  9  1  0
 14 15  1  6
 16 15  1  0
 17 16  1  0
 18 19  1  0
 18 17  1  0
 20 26  1  0
 20 14  1  0
 21 20  2  0
 23 22  1  1
 23 24  1  0
 25 26  1  1
 25 23  1  0
 27 29  1  0
 27 25  1  0
 28 27  2  0
M  END
$$$$
