YKV.pdb
     RDKit          3D

 29 29  0  0  1  0  0  0  0  0999 V2000
   11.5956  -13.8145  -19.1534 O   0  0  0  0  0  0  0  0  0  0  0  0
   12.8507  -13.5238  -18.6740 C   0  0  0  0  0  0  0  0  0  0  0  0
   13.5709  -12.5409  -19.3163 C   0  0  0  0  0  0  0  0  0  0  0  0
   14.8318  -12.2282  -18.8580 C   0  0  0  0  0  0  0  0  0  0  0  0
   15.4081  -12.8587  -17.7793 C   0  0  0  0  0  0  0  0  0  0  0  0
   16.7698  -12.4650  -17.3462 C   0  0  0  0  0  0  0  0  0  0  0  0
   17.8128  -12.8899  -18.3562 C   0  0  2  0  0  0  0  0  0  0  0  0
   18.0419  -14.3194  -18.2565 N   0  0  0  0  0  0  0  0  0  0  0  0
   19.0961  -12.1677  -18.1530 C   0  0  0  0  0  0  0  0  0  0  0  0
   19.9247  -12.5569  -17.2799 O   0  0  0  0  0  0  0  0  0  0  0  0
   14.6587  -13.8427  -17.1545 C   0  0  0  0  0  0  0  0  0  0  0  0
   13.3928  -14.1690  -17.6007 C   0  0  0  0  0  0  0  0  0  0  0  0
   19.4576  -11.0243  -18.9104 N   0  0  0  0  0  0  0  0  0  0  0  0
   20.7411  -10.3220  -18.6502 C   0  0  1  0  0  0  0  0  0  0  0  0
   21.1047   -9.4755  -19.8213 C   0  0  0  0  0  0  0  0  0  0  0  0
   22.4361   -8.8147  -19.6567 C   0  0  0  0  0  0  0  0  0  0  0  0
   22.8326   -8.0340  -20.9044 C   0  0  0  0  0  0  0  0  0  0  0  0
   24.1913   -7.4165  -20.6103 C   0  0  0  0  0  0  0  0  0  0  0  0
   24.7547   -6.7875  -21.7803 N   0  0  0  0  0  0  0  0  0  0  0  0
   20.6116   -9.5808  -17.3783 C   0  0  0  0  0  0  0  0  0  0  0  0
   19.6124   -8.8903  -17.0913 O   0  0  0  0  0  0  0  0  0  0  0  0
   23.8423   -9.6441  -14.3927 C   0  0  0  0  0  0  0  0  0  0  0  0
   22.3871   -9.5223  -14.0461 C   0  0  2  0  0  0  0  0  0  0  0  0
   21.8584  -10.9259  -13.7299 C   0  0  0  0  0  0  0  0  0  0  0  0
   21.5677   -8.8863  -15.1519 C   0  0  2  0  0  0  0  0  0  0  0  0
   21.6450   -9.6105  -16.3787 N   0  0  0  0  0  0  0  0  0  0  0  0
   22.0204   -7.4804  -15.2733 C   0  0  0  0  0  0  0  0  0  0  0  0
   21.8310   -6.6310  -14.3675 O   0  0  0  0  0  0  0  0  0  0  0  0
   22.6758   -7.0612  -16.4103 O   0  0  0  0  0  0  0  0  0  0  0  0
  2  1  1  0
  3  2  2  0
  4  3  1  0
  5  4  2  0
  5 11  1  0
  6  5  1  0
  6  7  1  0
  7  9  1  0
  7  8  1  1
  9 10  2  0
 11 12  2  0
 12  2  1  0
 13 14  1  0
 13  9  1  0
 14 15  1  6
 16 15  1  0
 17 16  1  0
 18 19  1  0
 18 17  1  0
 20 26  1  0
 20 14  1  0
 21 20  2  0
 23 22  1  6
 23 24  1  0
 25 26  1  6
 25 23  1  0
 27 29  1  0
 27 25  1  0
 28 27  2  0
M  END
$$$$
