YKV.pdb
     RDKit          3D

 29 29  0  0  1  0  0  0  0  0999 V2000
   10.5215  -23.0301   -6.9200 O   0  0  0  0  0  0  0  0  0  0  0  0
   11.0526  -22.9066   -5.6581 C   0  0  0  0  0  0  0  0  0  0  0  0
   11.7376  -23.9846   -5.1422 C   0  0  0  0  0  0  0  0  0  0  0  0
   12.2809  -23.8897   -3.8798 C   0  0  0  0  0  0  0  0  0  0  0  0
   12.1688  -22.7577   -3.1056 C   0  0  0  0  0  0  0  0  0  0  0  0
   12.7820  -22.7331   -1.7565 C   0  0  0  0  0  0  0  0  0  0  0  0
   14.1290  -22.0449   -1.7768 C   0  0  2  0  0  0  0  0  0  0  0  0
   15.0732  -22.8321   -2.5481 N   0  0  0  0  0  0  0  0  0  0  0  0
   14.6597  -21.8422   -0.4030 C   0  0  0  0  0  0  0  0  0  0  0  0
   15.5303  -22.6258    0.0748 O   0  0  0  0  0  0  0  0  0  0  0  0
   11.4741  -21.6906   -3.6523 C   0  0  0  0  0  0  0  0  0  0  0  0
   10.9229  -21.7685   -4.9166 C   0  0  0  0  0  0  0  0  0  0  0  0
   14.2291  -20.7809    0.4335 N   0  0  0  0  0  0  0  0  0  0  0  0
   14.8580  -20.5651    1.7625 C   0  0  1  0  0  0  0  0  0  0  0  0
   14.7550  -19.1292    2.1473 C   0  0  0  0  0  0  0  0  0  0  0  0
   15.4380  -18.8355    3.4447 C   0  0  0  0  0  0  0  0  0  0  0  0
   15.4444  -17.3420    3.7495 C   0  0  0  0  0  0  0  0  0  0  0  0
   16.1695  -17.1780    5.0766 C   0  0  0  0  0  0  0  0  0  0  0  0
   16.2610  -15.7916    5.4655 N   0  0  0  0  0  0  0  0  0  0  0  0
   14.2375  -21.5004    2.7237 C   0  0  0  0  0  0  0  0  0  0  0  0
   13.0135  -21.7430    2.7443 O   0  0  0  0  0  0  0  0  0  0  0  0
   16.6639  -24.2200    5.0498 C   0  0  0  0  0  0  0  0  0  0  0  0
   15.2011  -24.4004    4.7665 C   0  0  2  0  0  0  0  0  0  0  0  0
   15.0675  -25.1869    3.4577 C   0  0  0  0  0  0  0  0  0  0  0  0
   14.4514  -23.0861    4.6714 C   0  0  2  0  0  0  0  0  0  0  0  0
   15.0185  -22.1987    3.7089 N   0  0  0  0  0  0  0  0  0  0  0  0
   14.4040  -22.5139    6.0376 C   0  0  0  0  0  0  0  0  0  0  0  0
   15.1288  -21.5505    6.3902 O   0  0  0  0  0  0  0  0  0  0  0  0
   13.5428  -23.0379    6.9768 O   0  0  0  0  0  0  0  0  0  0  0  0
  2  1  1  0
  3  2  2  0
  4  3  1  0
  5  4  2  0
  5 11  1  0
  6  5  1  0
  6  7  1  0
  7  9  1  0
  7  8  1  6
  9 10  2  0
 11 12  2  0
 12  2  1  0
 13 14  1  0
 13  9  1  0
 14 15  1  1
 16 15  1  0
 17 16  1  0
 18 19  1  0
 18 17  1  0
 20 26  1  0
 20 14  1  0
 21 20  2  0
 23 22  1  6
 23 24  1  0
 25 26  1  6
 25 23  1  0
 27 29  1  0
 27 25  1  0
 28 27  2  0
M  END
$$$$
