CER.pdb
     RDKit          3D

 27 26  0  0  1  0  0  0  0  0999 V2000
   20.6508  -11.8638  -15.8841 N   0  0  0  0  0  0  0  0  0  0  0  0
   19.6589  -10.8754  -16.3051 C   0  0  1  0  0  0  0  0  0  0  0  0
   18.3412  -11.6383  -16.4499 C   0  0  0  0  0  0  0  0  0  0  0  0
   18.4310  -12.5870  -18.0022 S   0  0  0  0  0  0  0  0  0  0  0  0
   19.5239   -9.9145  -15.1844 C   0  0  0  0  0  0  0  0  0  0  0  0
   19.5558  -10.3799  -14.0185 O   0  0  0  0  0  0  0  0  0  0  0  0
   19.3629   -8.5195  -15.3368 N   0  0  0  0  0  0  0  0  0  0  0  0
   19.4070   -7.6614  -14.2055 C   0  0  1  0  0  0  0  0  0  0  0  0
   20.6174   -6.7565  -14.1750 C   0  0  0  0  0  0  0  0  0  0  0  0
   20.6307   -5.9050  -12.9186 C   0  0  0  0  0  0  0  0  0  0  0  0
   21.8961   -5.1392  -12.7969 C   0  0  0  0  0  0  0  0  0  0  0  0
   22.8087   -5.5801  -12.0544 O   0  0  0  0  0  0  0  0  0  0  0  0
   18.1810   -6.7892  -14.2595 C   0  0  0  0  0  0  0  0  0  0  0  0
   17.9057   -6.1866  -15.3316 O   0  0  0  0  0  0  0  0  0  0  0  0
   22.1037   -3.9564  -13.4736 O   0  0  0  0  0  0  0  0  0  0  0  0
   13.7886   -8.8179   -8.1596 N   0  0  0  0  0  0  0  0  0  0  0  0
   14.3524   -7.5145   -8.2919 C   0  0  0  0  0  0  0  0  0  0  0  0
   14.8184   -6.9261   -7.2462 N   0  0  0  0  0  0  0  0  0  0  0  0
   14.4182   -6.8429   -9.5365 N   0  0  0  0  0  0  0  0  0  0  0  0
   13.8058   -7.4099  -10.7460 C   0  0  0  0  0  0  0  0  0  0  0  0
   14.0561   -6.5097  -11.9363 C   0  0  0  0  0  0  0  0  0  0  0  0
   15.4193   -5.8653  -11.8191 C   0  0  0  0  0  0  0  0  0  0  0  0
   16.1253   -5.8138  -13.1565 C   0  0  2  0  0  0  0  0  0  0  0  0
   17.3289   -6.6194  -13.1599 N   0  0  0  0  0  0  0  0  0  0  0  0
   16.4956   -4.4213  -13.4514 C   0  0  0  0  0  0  0  0  0  0  0  0
   17.5693   -3.9508  -13.0361 O   0  0  0  0  0  0  0  0  0  0  0  0
   15.6473   -3.6300  -14.1938 O   0  0  0  0  0  0  0  0  0  0  0  0
  2  1  1  1
  2  3  1  0
  3  4  1  0
  5  6  2  0
  5  2  1  0
  7  5  1  0
  8  7  1  0
  8  9  1  6
 10 11  1  0
 10  9  1  0
 11 15  1  0
 12 11  2  0
 13 24  1  0
 13  8  1  0
 14 13  2  0
 17 16  1  0
 18 17  2  0
 19 17  1  0
 20 19  1  0
 21 20  1  0
 22 21  1  0
 23 22  1  1
 23 24  1  0
 25 23  1  0
 25 27  1  0
 26 25  2  0
M  END
$$$$
