CER.pdb
     RDKit          3D

 27 26  0  0  1  0  0  0  0  0999 V2000
   25.2039  -19.8161   -8.6031 N   0  0  0  0  0  0  0  0  0  0  0  0
   25.0121  -21.0078   -9.4283 C   0  0  1  0  0  0  0  0  0  0  0  0
   23.6421  -21.5687   -9.0440 C   0  0  0  0  0  0  0  0  0  0  0  0
   22.4433  -20.2024   -9.1630 S   0  0  0  0  0  0  0  0  0  0  0  0
   24.9497  -20.5385  -10.8331 C   0  0  0  0  0  0  0  0  0  0  0  0
   24.5833  -19.3536  -11.0296 O   0  0  0  0  0  0  0  0  0  0  0  0
   25.2720  -21.3278  -11.9593 N   0  0  0  0  0  0  0  0  0  0  0  0
   25.2334  -20.7696  -13.2651 C   0  0  1  0  0  0  0  0  0  0  0  0
   26.3769  -21.2109  -14.1496 C   0  0  0  0  0  0  0  0  0  0  0  0
   26.3119  -20.5315  -15.5053 C   0  0  0  0  0  0  0  0  0  0  0  0
   27.3804  -21.0242  -16.4097 C   0  0  0  0  0  0  0  0  0  0  0  0
   28.1729  -21.9069  -15.9960 O   0  0  0  0  0  0  0  0  0  0  0  0
   23.9509  -21.2272  -13.9076 C   0  0  0  0  0  0  0  0  0  0  0  0
   23.5866  -22.4248  -13.7612 O   0  0  0  0  0  0  0  0  0  0  0  0
   27.5323  -20.5437  -17.6927 O   0  0  0  0  0  0  0  0  0  0  0  0
   18.7185  -19.8576  -11.2126 N   0  0  0  0  0  0  0  0  0  0  0  0
   18.1334  -21.0845  -11.6444 C   0  0  0  0  0  0  0  0  0  0  0  0
   17.9232  -22.0149  -10.7802 N   0  0  0  0  0  0  0  0  0  0  0  0
   17.7742  -21.3160  -12.9942 N   0  0  0  0  0  0  0  0  0  0  0  0
   18.5304  -20.7151  -14.1017 C   0  0  0  0  0  0  0  0  0  0  0  0
   19.9831  -20.5402  -13.7156 C   0  0  0  0  0  0  0  0  0  0  0  0
   20.7441  -19.8891  -14.8489 C   0  0  0  0  0  0  0  0  0  0  0  0
   21.9001  -20.7508  -15.3080 C   0  0  2  0  0  0  0  0  0  0  0  0
   23.1415  -20.3706  -14.6660 N   0  0  0  0  0  0  0  0  0  0  0  0
   22.0627  -20.6023  -16.7621 C   0  0  0  0  0  0  0  0  0  0  0  0
   22.5178  -19.5496  -17.2435 O   0  0  0  0  0  0  0  0  0  0  0  0
   21.7086  -21.6367  -17.5997 O   0  0  0  0  0  0  0  0  0  0  0  0
  2  1  1  1
  2  3  1  0
  3  4  1  0
  5  6  2  0
  5  2  1  0
  7  5  1  0
  8  7  1  0
  8  9  1  6
 10 11  1  0
 10  9  1  0
 11 15  1  0
 12 11  2  0
 13 24  1  0
 13  8  1  0
 14 13  2  0
 17 16  1  0
 18 17  2  0
 19 17  1  0
 20 19  1  0
 21 20  1  0
 22 21  1  0
 23 22  1  1
 23 24  1  0
 25 23  1  0
 25 27  1  0
 26 25  2  0
M  END
$$$$
