CER.pdb
     RDKit          3D

 27 26  0  0  1  0  0  0  0  0999 V2000
   18.3861  -12.1852  -15.1156 N   0  0  0  0  0  0  0  0  0  0  0  0
   17.7914  -10.8580  -15.2666 C   0  0  1  0  0  0  0  0  0  0  0  0
   16.2861  -11.0478  -15.0732 C   0  0  0  0  0  0  0  0  0  0  0  0
   15.5840  -11.5028  -16.6912 S   0  0  0  0  0  0  0  0  0  0  0  0
   18.3087  -10.0376  -14.1455 C   0  0  0  0  0  0  0  0  0  0  0  0
   18.3921  -10.5869  -13.0194 O   0  0  0  0  0  0  0  0  0  0  0  0
   18.7119   -8.6884  -14.2560 N   0  0  0  0  0  0  0  0  0  0  0  0
   19.2865   -8.0149  -13.1451 C   0  0  1  0  0  0  0  0  0  0  0  0
   20.3245   -6.9851  -13.5282 C   0  0  0  0  0  0  0  0  0  0  0  0
   20.8674   -6.2749  -12.3015 C   0  0  0  0  0  0  0  0  0  0  0  0
   21.9474   -5.3225  -12.6608 C   0  0  0  0  0  0  0  0  0  0  0  0
   22.6685   -5.5646  -13.6608 O   0  0  0  0  0  0  0  0  0  0  0  0
   18.1702   -7.3002  -12.4310 C   0  0  0  0  0  0  0  0  0  0  0  0
   17.2928   -6.7030  -13.1105 O   0  0  0  0  0  0  0  0  0  0  0  0
   22.1861   -4.1777  -11.9312 O   0  0  0  0  0  0  0  0  0  0  0  0
   11.8468   -9.5841   -7.5911 N   0  0  0  0  0  0  0  0  0  0  0  0
   12.0333   -9.1422   -8.9343 C   0  0  0  0  0  0  0  0  0  0  0  0
   11.2244   -9.5556   -9.8462 N   0  0  0  0  0  0  0  0  0  0  0  0
   13.0799   -8.2622   -9.3013 N   0  0  0  0  0  0  0  0  0  0  0  0
   13.9888   -7.6922   -8.2970 C   0  0  0  0  0  0  0  0  0  0  0  0
   14.9536   -6.7243   -8.9469 C   0  0  0  0  0  0  0  0  0  0  0  0
   16.0703   -7.4855   -9.6259 C   0  0  0  0  0  0  0  0  0  0  0  0
   17.0571   -6.5490  -10.2885 C   0  0  2  0  0  0  0  0  0  0  0  0
   18.0667   -7.2722  -11.0337 N   0  0  0  0  0  0  0  0  0  0  0  0
   17.7268   -5.7461   -9.2542 C   0  0  0  0  0  0  0  0  0  0  0  0
   18.9016   -5.9896   -8.9263 O   0  0  0  0  0  0  0  0  0  0  0  0
   17.0488   -4.7151   -8.6422 O   0  0  0  0  0  0  0  0  0  0  0  0
  2  1  1  1
  2  3  1  0
  3  4  1  0
  5  6  2  0
  5  2  1  0
  7  5  1  0
  8  7  1  0
  8  9  1  6
 10 11  1  0
 10  9  1  0
 11 15  1  0
 12 11  2  0
 13 24  1  0
 13  8  1  0
 14 13  2  0
 17 16  1  0
 18 17  2  0
 19 17  1  0
 20 19  1  0
 21 20  1  0
 22 21  1  0
 23 22  1  1
 23 24  1  0
 25 23  1  0
 25 27  1  0
 26 25  2  0
M  END
$$$$
