CER.pdb
     RDKit          3D

 27 26  0  0  1  0  0  0  0  0999 V2000
   21.0459  -31.3494   -1.9942 N   0  0  0  0  0  0  0  0  0  0  0  0
   19.6611  -31.0667   -2.3690 C   0  0  1  0  0  0  0  0  0  0  0  0
   18.8071  -32.0977   -1.6294 C   0  0  0  0  0  0  0  0  0  0  0  0
   19.4436  -32.2085    0.0737 S   0  0  0  0  0  0  0  0  0  0  0  0
   19.3472  -29.7227   -1.8282 C   0  0  0  0  0  0  0  0  0  0  0  0
   20.2340  -29.1547   -1.1442 O   0  0  0  0  0  0  0  0  0  0  0  0
   18.1264  -29.0409   -2.0280 N   0  0  0  0  0  0  0  0  0  0  0  0
   17.9718  -27.6976   -1.5925 C   0  0  1  0  0  0  0  0  0  0  0  0
   16.9075  -26.9324   -2.3453 C   0  0  0  0  0  0  0  0  0  0  0  0
   17.4826  -26.2763   -3.5872 C   0  0  0  0  0  0  0  0  0  0  0  0
   16.4718  -25.4318   -4.2709 C   0  0  0  0  0  0  0  0  0  0  0  0
   15.8378  -25.9058   -5.2466 O   0  0  0  0  0  0  0  0  0  0  0  0
   17.5681  -27.7428   -0.1427 C   0  0  0  0  0  0  0  0  0  0  0  0
   17.1682  -28.8328    0.3473 O   0  0  0  0  0  0  0  0  0  0  0  0
   16.2047  -24.1405   -3.8695 O   0  0  0  0  0  0  0  0  0  0  0  0
   17.3518  -21.1163    5.7189 N   0  0  0  0  0  0  0  0  0  0  0  0
   16.2227  -21.8542    5.2552 C   0  0  0  0  0  0  0  0  0  0  0  0
   15.0600  -21.3032    5.2874 N   0  0  0  0  0  0  0  0  0  0  0  0
   16.3359  -23.1754    4.7592 N   0  0  0  0  0  0  0  0  0  0  0  0
   17.6114  -23.9039    4.8048 C   0  0  0  0  0  0  0  0  0  0  0  0
   17.4456  -25.2951    4.2328 C   0  0  0  0  0  0  0  0  0  0  0  0
   17.5687  -25.2522    2.7260 C   0  0  0  0  0  0  0  0  0  0  0  0
   17.3594  -26.6199    2.1133 C   0  0  2  0  0  0  0  0  0  0  0  0
   17.6194  -26.6155    0.6885 N   0  0  0  0  0  0  0  0  0  0  0  0
   15.9659  -27.0365    2.3316 C   0  0  0  0  0  0  0  0  0  0  0  0
   15.0609  -26.6376    1.5775 O   0  0  0  0  0  0  0  0  0  0  0  0
   15.6586  -27.8755    3.3797 O   0  0  0  0  0  0  0  0  0  0  0  0
  2  1  1  1
  2  3  1  0
  3  4  1  0
  5  6  2  0
  5  2  1  0
  7  5  1  0
  8  7  1  0
  8  9  1  6
 10 11  1  0
 10  9  1  0
 11 15  1  0
 12 11  2  0
 13 24  1  0
 13  8  1  0
 14 13  2  0
 17 16  1  0
 18 17  2  0
 19 17  1  0
 20 19  1  0
 21 20  1  0
 22 21  1  0
 23 22  1  6
 23 24  1  0
 25 23  1  0
 25 27  1  0
 26 25  2  0
M  END
$$$$
