CER.pdb
     RDKit          3D

 27 26  0  0  1  0  0  0  0  0999 V2000
   26.4684  -18.7720  -16.6084 N   0  0  0  0  0  0  0  0  0  0  0  0
   25.8521  -17.9149  -15.5966 C   0  0  1  0  0  0  0  0  0  0  0  0
   26.9579  -17.5902  -14.5912 C   0  0  0  0  0  0  0  0  0  0  0  0
   26.9500  -18.9062  -13.3317 S   0  0  0  0  0  0  0  0  0  0  0  0
   25.4648  -16.6625  -16.2887 C   0  0  0  0  0  0  0  0  0  0  0  0
   26.3316  -16.1105  -17.0103 O   0  0  0  0  0  0  0  0  0  0  0  0
   24.1951  -16.0509  -16.1930 N   0  0  0  0  0  0  0  0  0  0  0  0
   23.9055  -14.8728  -16.9320 C   0  0  1  0  0  0  0  0  0  0  0  0
   23.2307  -15.1371  -18.2586 C   0  0  0  0  0  0  0  0  0  0  0  0
   22.9853  -13.8434  -19.0134 C   0  0  0  0  0  0  0  0  0  0  0  0
   22.3556  -14.0975  -20.3330 C   0  0  0  0  0  0  0  0  0  0  0  0
   21.1204  -13.9107  -20.4673 O   0  0  0  0  0  0  0  0  0  0  0  0
   22.9689  -14.0413  -16.0964 C   0  0  0  0  0  0  0  0  0  0  0  0
   22.0180  -14.6091  -15.4950 O   0  0  0  0  0  0  0  0  0  0  0  0
   23.0834  -14.5331  -21.4195 O   0  0  0  0  0  0  0  0  0  0  0  0
   22.6927   -5.1485  -15.1152 N   0  0  0  0  0  0  0  0  0  0  0  0
   21.3953   -5.7043  -15.3205 C   0  0  0  0  0  0  0  0  0  0  0  0
   20.4196   -4.9199  -15.6196 N   0  0  0  0  0  0  0  0  0  0  0  0
   21.1419   -7.0926  -15.2068 N   0  0  0  0  0  0  0  0  0  0  0  0
   22.1364   -8.0079  -14.6301 C   0  0  0  0  0  0  0  0  0  0  0  0
   21.6178   -9.4295  -14.6466 C   0  0  0  0  0  0  0  0  0  0  0  0
   22.6248  -10.3390  -15.3146 C   0  0  0  0  0  0  0  0  0  0  0  0
   22.1810  -11.7850  -15.2704 C   0  0  2  0  0  0  0  0  0  0  0  0
   23.1126  -12.6540  -15.9594 N   0  0  0  0  0  0  0  0  0  0  0  0
   20.8659  -11.9044  -15.9180 C   0  0  0  0  0  0  0  0  0  0  0  0
   19.8279  -11.9641  -15.2354 O   0  0  0  0  0  0  0  0  0  0  0  0
   20.7811  -11.9505  -17.2919 O   0  0  0  0  0  0  0  0  0  0  0  0
  2  1  1  6
  2  3  1  0
  3  4  1  0
  5  6  2  0
  5  2  1  0
  7  5  1  0
  8  7  1  0
  8  9  1  6
 10 11  1  0
 10  9  1  0
 11 15  1  0
 12 11  2  0
 13 24  1  0
 13  8  1  0
 14 13  2  0
 17 16  1  0
 18 17  2  0
 19 17  1  0
 20 19  1  0
 21 20  1  0
 22 21  1  0
 23 22  1  6
 23 24  1  0
 25 23  1  0
 25 27  1  0
 26 25  2  0
M  END
$$$$
