CER.pdb
     RDKit          3D

 27 26  0  0  1  0  0  0  0  0999 V2000
   29.7984  -21.6539  -12.7349 N   0  0  0  0  0  0  0  0  0  0  0  0
   29.2385  -20.4027  -12.2259 C   0  0  1  0  0  0  0  0  0  0  0  0
   28.7907  -19.6119  -13.4560 C   0  0  0  0  0  0  0  0  0  0  0  0
   30.2414  -18.6988  -14.0721 S   0  0  0  0  0  0  0  0  0  0  0  0
   28.0357  -20.7711  -11.4416 C   0  0  0  0  0  0  0  0  0  0  0  0
   27.3696  -21.7593  -11.8371 O   0  0  0  0  0  0  0  0  0  0  0  0
   27.5899  -20.0909  -10.2866 N   0  0  0  0  0  0  0  0  0  0  0  0
   26.3864  -20.4810   -9.6404 C   0  0  1  0  0  0  0  0  0  0  0  0
   26.2932  -20.0264   -8.2018 C   0  0  0  0  0  0  0  0  0  0  0  0
   27.5045  -20.4789   -7.4070 C   0  0  0  0  0  0  0  0  0  0  0  0
   27.5364  -19.8497   -6.0633 C   0  0  0  0  0  0  0  0  0  0  0  0
   26.6018  -19.0808   -5.7257 O   0  0  0  0  0  0  0  0  0  0  0  0
   25.2488  -19.8491  -10.3978 C   0  0  0  0  0  0  0  0  0  0  0  0
   25.4082  -18.7032  -10.8973 O   0  0  0  0  0  0  0  0  0  0  0  0
   28.5607  -20.0819   -5.1706 O   0  0  0  0  0  0  0  0  0  0  0  0
   26.7512  -22.8175  -16.0129 N   0  0  0  0  0  0  0  0  0  0  0  0
   25.7643  -23.7396  -15.5546 C   0  0  0  0  0  0  0  0  0  0  0  0
   26.0039  -25.0017  -15.6332 N   0  0  0  0  0  0  0  0  0  0  0  0
   24.5266  -23.3144  -15.0145 N   0  0  0  0  0  0  0  0  0  0  0  0
   24.2727  -21.9013  -14.7012 C   0  0  0  0  0  0  0  0  0  0  0  0
   23.8015  -21.7540  -13.2707 C   0  0  0  0  0  0  0  0  0  0  0  0
   23.5227  -20.2990  -12.9658 C   0  0  0  0  0  0  0  0  0  0  0  0
   23.0150  -20.1160  -11.5522 C   0  0  2  0  0  0  0  0  0  0  0  0
   24.0132  -20.4874  -10.5707 N   0  0  0  0  0  0  0  0  0  0  0  0
   21.8286  -20.9623  -11.3539 C   0  0  0  0  0  0  0  0  0  0  0  0
   21.8760  -21.9517  -10.6018 O   0  0  0  0  0  0  0  0  0  0  0  0
   20.6542  -20.6581  -12.0059 O   0  0  0  0  0  0  0  0  0  0  0  0
  2  1  1  6
  2  3  1  0
  3  4  1  0
  5  6  2  0
  5  2  1  0
  7  5  1  0
  8  7  1  0
  8  9  1  1
 10 11  1  0
 10  9  1  0
 11 15  1  0
 12 11  2  0
 13 24  1  0
 13  8  1  0
 14 13  2  0
 17 16  1  0
 18 17  2  0
 19 17  1  0
 20 19  1  0
 21 20  1  0
 22 21  1  0
 23 22  1  6
 23 24  1  0
 25 23  1  0
 25 27  1  0
 26 25  2  0
M  END
$$$$
