CER.pdb
     RDKit          3D

 27 26  0  0  1  0  0  0  0  0999 V2000
   27.7578  -21.1691  -16.6929 N   0  0  0  0  0  0  0  0  0  0  0  0
   26.3949  -21.5354  -17.0752 C   0  0  1  0  0  0  0  0  0  0  0  0
   26.1712  -22.9472  -16.5311 C   0  0  0  0  0  0  0  0  0  0  0  0
   26.1171  -22.8266  -14.7143 S   0  0  0  0  0  0  0  0  0  0  0  0
   25.4936  -20.6061  -16.3530 C   0  0  0  0  0  0  0  0  0  0  0  0
   25.8627  -20.2080  -15.2207 O   0  0  0  0  0  0  0  0  0  0  0  0
   24.2553  -20.1402  -16.8479 N   0  0  0  0  0  0  0  0  0  0  0  0
   23.4927  -19.1972  -16.1082 C   0  0  1  0  0  0  0  0  0  0  0  0
   22.7562  -18.1988  -16.9718 C   0  0  0  0  0  0  0  0  0  0  0  0
   23.6996  -17.1341  -17.5009 C   0  0  0  0  0  0  0  0  0  0  0  0
   23.0064  -15.8331  -17.6721 C   0  0  0  0  0  0  0  0  0  0  0  0
   21.7557  -15.7873  -17.5619 O   0  0  0  0  0  0  0  0  0  0  0  0
   22.4679  -19.9710  -15.3223 C   0  0  0  0  0  0  0  0  0  0  0  0
   21.9805  -21.0212  -15.8199 O   0  0  0  0  0  0  0  0  0  0  0  0
   23.6919  -14.6696  -17.9488 O   0  0  0  0  0  0  0  0  0  0  0  0
   18.2435  -22.2820   -9.2593 N   0  0  0  0  0  0  0  0  0  0  0  0
   19.4377  -22.0944   -8.5024 C   0  0  0  0  0  0  0  0  0  0  0  0
   19.7786  -22.9882   -7.6412 N   0  0  0  0  0  0  0  0  0  0  0  0
   20.2642  -20.9565   -8.6654 N   0  0  0  0  0  0  0  0  0  0  0  0
   19.9176  -19.8877   -9.6125 C   0  0  0  0  0  0  0  0  0  0  0  0
   19.9136  -20.4186  -11.0296 C   0  0  0  0  0  0  0  0  0  0  0  0
   21.0284  -19.7766  -11.8250 C   0  0  0  0  0  0  0  0  0  0  0  0
   21.0304  -20.2529  -13.2613 C   0  0  2  0  0  0  0  0  0  0  0  0
   22.0317  -19.5684  -14.0527 N   0  0  0  0  0  0  0  0  0  0  0  0
   19.7099  -19.9946  -13.8553 C   0  0  0  0  0  0  0  0  0  0  0  0
   19.4421  -18.8819  -14.3421 O   0  0  0  0  0  0  0  0  0  0  0  0
   18.7606  -20.9924  -13.8736 O   0  0  0  0  0  0  0  0  0  0  0  0
  2  1  1  1
  2  3  1  0
  3  4  1  0
  5  6  2  0
  5  2  1  0
  7  5  1  0
  8  7  1  0
  8  9  1  6
 10 11  1  0
 10  9  1  0
 11 15  1  0
 12 11  2  0
 13 24  1  0
 13  8  1  0
 14 13  2  0
 17 16  1  0
 18 17  2  0
 19 17  1  0
 20 19  1  0
 21 20  1  0
 22 21  1  0
 23 22  1  1
 23 24  1  0
 25 23  1  0
 25 27  1  0
 26 25  2  0
M  END
$$$$
