LYH.pdb
     RDKit          3D

 31 32  0  0  1  0  0  0  0  0999 V2000
    7.4225  -12.1510   18.8760 C   0  0  0  0  0  0  0  0  0  0  0  0
    7.7343  -13.5737   19.2517 C   0  0  1  0  0  0  0  0  0  0  0  0
    8.3703  -14.2554   18.0617 C   0  0  0  0  0  0  0  0  0  0  0  0
    8.5410  -13.6918   20.5040 C   0  0  0  0  0  0  0  0  0  0  0  0
    8.7621  -15.1281   20.9259 C   0  0  2  0  0  0  0  0  0  0  0  0
    7.5355  -15.8639   20.8329 N   0  0  0  0  0  0  0  0  0  0  0  0
    9.3373  -15.1450   22.2964 C   0  0  0  0  0  0  0  0  0  0  0  0
   10.4216  -14.5693   22.5746 O   0  0  0  0  0  0  0  0  0  0  0  0
    5.8329  -10.8521   26.9822 O   0  0  0  0  0  0  0  0  0  0  0  0
    6.3673  -12.0802   26.6258 C   0  0  0  0  0  0  0  0  0  0  0  0
    7.7183  -12.3166   26.6243 C   0  0  0  0  0  0  0  0  0  0  0  0
    8.2482  -13.5388   26.2696 C   0  0  0  0  0  0  0  0  0  0  0  0
    7.3920  -14.5502   25.9065 C   0  0  0  0  0  0  0  0  0  0  0  0
    7.8823  -15.8600   25.5238 C   0  0  0  0  0  0  0  0  0  0  0  0
    9.1481  -15.9016   24.7054 C   0  0  2  0  0  0  0  0  0  0  0  0
    8.6482  -15.8237   23.3060 N   0  0  0  0  0  0  0  0  0  0  0  0
    9.8840  -17.1660   24.8005 C   0  0  0  0  0  0  0  0  0  0  0  0
   10.1349  -17.8411   23.7449 O   0  0  0  0  0  0  0  0  0  0  0  0
    6.0276  -14.3185   25.9058 C   0  0  0  0  0  0  0  0  0  0  0  0
    5.4910  -13.0919   26.2615 C   0  0  0  0  0  0  0  0  0  0  0  0
   10.3592  -17.7114   26.0244 N   0  0  0  0  0  0  0  0  0  0  0  0
   11.2383  -18.8451   26.0862 C   0  0  1  0  0  0  0  0  0  0  0  0
   12.5233  -18.4084   25.3584 C   0  0  0  0  0  0  0  0  0  0  0  0
   12.4664  -18.7710   23.9334 C   0  0  0  0  0  0  0  0  0  0  0  0
   11.4615  -19.3794   23.2143 C   0  0  0  0  0  0  0  0  0  0  0  0
   11.8748  -19.5059   21.9210 N   0  0  0  0  0  0  0  0  0  0  0  0
   13.1039  -18.9896   21.8400 C   0  0  0  0  0  0  0  0  0  0  0  0
   13.4680  -18.5424   23.0569 N   0  0  0  0  0  0  0  0  0  0  0  0
   11.5563  -19.3250   27.4377 C   0  0  0  0  0  0  0  0  0  0  0  0
   11.0026  -18.6887   28.5703 O   0  0  0  0  0  0  0  0  0  0  0  0
   12.3071  -20.2918   27.7213 O   0  0  0  0  0  0  0  0  0  0  0  0
  2  1  1  6
  3  2  1  0
  4  2  1  0
  5  4  1  0
  5  6  1  1
  7  5  1  0
  7  8  2  0
  9 10  1  0
 10 20  2  0
 10 11  1  0
 11 12  2  0
 12 13  1  0
 13 14  1  0
 15 14  1  1
 15 16  1  0
 16  7  1  0
 17 21  1  0
 17 15  1  0
 18 17  2  0
 19 13  2  0
 20 19  1  0
 22 21  1  0
 22 29  1  0
 22 23  1  1
 24 23  1  0
 24 25  2  0
 26 25  1  0
 27 26  1  0
 28 27  2  0
 28 24  1  0
 29 31  2  0
 29 30  1  0
M  END
$$$$
