LYH.pdb
     RDKit          3D

 31 32  0  0  1  0  0  0  0  0999 V2000
    8.5008  -12.2130   18.1536 C   0  0  0  0  0  0  0  0  0  0  0  0
    8.2843  -13.5366   18.8346 C   0  0  1  0  0  0  0  0  0  0  0  0
    7.0185  -14.1559   18.2871 C   0  0  0  0  0  0  0  0  0  0  0  0
    9.4697  -14.4430   18.7569 C   0  0  0  0  0  0  0  0  0  0  0  0
    9.3185  -15.6810   19.6138 C   0  0  2  0  0  0  0  0  0  0  0  0
    8.0148  -16.2491   19.4340 N   0  0  0  0  0  0  0  0  0  0  0  0
    9.5973  -15.3245   21.0296 C   0  0  0  0  0  0  0  0  0  0  0  0
   10.7071  -14.8571   21.3964 O   0  0  0  0  0  0  0  0  0  0  0  0
    6.6446  -12.2277   28.7696 O   0  0  0  0  0  0  0  0  0  0  0  0
    6.8089  -12.8457   27.5400 C   0  0  0  0  0  0  0  0  0  0  0  0
    6.6325  -14.1953   27.3710 C   0  0  0  0  0  0  0  0  0  0  0  0
    6.7964  -14.8083   26.1472 C   0  0  0  0  0  0  0  0  0  0  0  0
    7.1477  -14.0391   25.0642 C   0  0  0  0  0  0  0  0  0  0  0  0
    7.3345  -14.6194   23.7486 C   0  0  0  0  0  0  0  0  0  0  0  0
    8.7290  -15.0710   23.3946 C   0  0  2  0  0  0  0  0  0  0  0  0
    8.5913  -15.5162   21.9814 N   0  0  0  0  0  0  0  0  0  0  0  0
    9.1890  -16.2443   24.1436 C   0  0  0  0  0  0  0  0  0  0  0  0
    9.2450  -17.3861   23.5725 O   0  0  0  0  0  0  0  0  0  0  0  0
    7.3273  -12.6767   25.2277 C   0  0  0  0  0  0  0  0  0  0  0  0
    7.1637  -12.0566   26.4557 C   0  0  0  0  0  0  0  0  0  0  0  0
    9.5961  -16.2006   25.5051 N   0  0  0  0  0  0  0  0  0  0  0  0
   10.1451  -17.3347   26.1938 C   0  0  1  0  0  0  0  0  0  0  0  0
   11.4558  -17.6675   25.4571 C   0  0  0  0  0  0  0  0  0  0  0  0
   11.1831  -18.3902   24.2047 C   0  0  0  0  0  0  0  0  0  0  0  0
   11.3820  -18.0030   22.8979 C   0  0  0  0  0  0  0  0  0  0  0  0
   10.9741  -19.0170   22.0825 N   0  0  0  0  0  0  0  0  0  0  0  0
   10.5337  -20.0073   22.8630 C   0  0  0  0  0  0  0  0  0  0  0  0
   10.6579  -19.6331   24.1507 N   0  0  0  0  0  0  0  0  0  0  0  0
   10.4015  -17.1399   27.6271 C   0  0  0  0  0  0  0  0  0  0  0  0
   10.9986  -18.1662   28.3918 O   0  0  0  0  0  0  0  0  0  0  0  0
   10.1366  -16.1072   28.2918 O   0  0  0  0  0  0  0  0  0  0  0  0
  2  1  1  6
  3  2  1  0
  4  2  1  0
  5  4  1  0
  5  6  1  1
  7  5  1  0
  7  8  2  0
  9 10  1  0
 10 20  2  0
 10 11  1  0
 11 12  2  0
 12 13  1  0
 13 14  1  0
 15 14  1  1
 15 16  1  0
 16  7  1  0
 17 21  1  0
 17 15  1  0
 18 17  2  0
 19 13  2  0
 20 19  1  0
 22 21  1  0
 22 29  1  0
 22 23  1  6
 24 23  1  0
 24 25  2  0
 26 25  1  0
 27 26  1  0
 28 27  2  0
 28 24  1  0
 29 31  2  0
 29 30  1  0
M  END
$$$$
