LYH.pdb
     RDKit          3D

 31 32  0  0  1  0  0  0  0  0999 V2000
    7.8192  -12.6079   17.5428 C   0  0  0  0  0  0  0  0  0  0  0  0
    8.0130  -14.0230   18.0144 C   0  0  1  0  0  0  0  0  0  0  0  0
    7.8581  -14.9487   16.8293 C   0  0  0  0  0  0  0  0  0  0  0  0
    9.2895  -14.2275   18.7638 C   0  0  0  0  0  0  0  0  0  0  0  0
    9.2784  -15.4821   19.6098 C   0  0  2  0  0  0  0  0  0  0  0  0
    8.0295  -16.1688   19.4573 N   0  0  0  0  0  0  0  0  0  0  0  0
    9.5606  -15.1139   21.0220 C   0  0  0  0  0  0  0  0  0  0  0  0
   10.6215  -14.5278   21.3621 O   0  0  0  0  0  0  0  0  0  0  0  0
    6.7982  -12.1585   28.8373 O   0  0  0  0  0  0  0  0  0  0  0  0
    6.9434  -12.7322   27.5840 C   0  0  0  0  0  0  0  0  0  0  0  0
    6.5864  -14.0317   27.3293 C   0  0  0  0  0  0  0  0  0  0  0  0
    6.7315  -14.6006   26.0821 C   0  0  0  0  0  0  0  0  0  0  0  0
    7.2508  -13.8380   25.0639 C   0  0  0  0  0  0  0  0  0  0  0  0
    7.4286  -14.3735   23.7282 C   0  0  0  0  0  0  0  0  0  0  0  0
    8.7592  -15.0133   23.4219 C   0  0  2  0  0  0  0  0  0  0  0  0
    8.6141  -15.4309   22.0010 N   0  0  0  0  0  0  0  0  0  0  0  0
    9.0237  -16.2414   24.1776 C   0  0  0  0  0  0  0  0  0  0  0  0
    8.2830  -17.2688   24.0081 O   0  0  0  0  0  0  0  0  0  0  0  0
    7.6132  -12.5260   25.3141 C   0  0  0  0  0  0  0  0  0  0  0  0
    7.4691  -11.9504   26.5658 C   0  0  0  0  0  0  0  0  0  0  0  0
   10.0846  -16.3776   25.1142 N   0  0  0  0  0  0  0  0  0  0  0  0
   10.2475  -17.5351   25.9483 C   0  0  1  0  0  0  0  0  0  0  0  0
   11.7011  -17.9955   25.7324 C   0  0  0  0  0  0  0  0  0  0  0  0
   11.9160  -18.4132   24.3379 C   0  0  0  0  0  0  0  0  0  0  0  0
   11.0582  -18.3769   23.2608 C   0  0  0  0  0  0  0  0  0  0  0  0
   11.7134  -18.8737   22.1729 N   0  0  0  0  0  0  0  0  0  0  0  0
   12.9453  -19.2093   22.5649 C   0  0  0  0  0  0  0  0  0  0  0  0
   13.0741  -18.9324   23.8765 N   0  0  0  0  0  0  0  0  0  0  0  0
    9.9867  -17.3247   27.3786 C   0  0  0  0  0  0  0  0  0  0  0  0
   10.0192  -18.4129   28.2781 O   0  0  0  0  0  0  0  0  0  0  0  0
    9.7227  -16.2261   27.9281 O   0  0  0  0  0  0  0  0  0  0  0  0
  2  1  1  6
  3  2  1  0
  4  2  1  0
  5  4  1  0
  5  6  1  1
  7  5  1  0
  7  8  2  0
  9 10  1  0
 10 20  2  0
 10 11  1  0
 11 12  2  0
 12 13  1  0
 13 14  1  0
 15 14  1  1
 15 16  1  0
 16  7  1  0
 17 21  1  0
 17 15  1  0
 18 17  2  0
 19 13  2  0
 20 19  1  0
 22 21  1  0
 22 29  1  0
 22 23  1  1
 24 23  1  0
 24 25  2  0
 26 25  1  0
 27 26  1  0
 28 27  2  0
 28 24  1  0
 29 31  2  0
 29 30  1  0
M  END
$$$$
