LYH.pdb
     RDKit          3D

 31 32  0  0  1  0  0  0  0  0999 V2000
    1.0601  -19.2717   21.3893 C   0  0  0  0  0  0  0  0  0  0  0  0
    2.2838  -19.6718   22.1671 C   0  0  1  0  0  0  0  0  0  0  0  0
    1.9299  -20.8511   23.0443 C   0  0  0  0  0  0  0  0  0  0  0  0
    3.4806  -19.9118   21.3052 C   0  0  0  0  0  0  0  0  0  0  0  0
    4.7855  -19.7117   22.0447 C   0  0  2  0  0  0  0  0  0  0  0  0
    4.5355  -19.1744   23.3498 N   0  0  0  0  0  0  0  0  0  0  0  0
    5.6740  -18.8433   21.2287 C   0  0  0  0  0  0  0  0  0  0  0  0
    6.0131  -19.1469   20.0550 O   0  0  0  0  0  0  0  0  0  0  0  0
    8.8290  -10.6973   19.4782 O   0  0  0  0  0  0  0  0  0  0  0  0
    8.2741  -11.8562   19.9974 C   0  0  0  0  0  0  0  0  0  0  0  0
    7.5100  -12.7047   19.2377 C   0  0  0  0  0  0  0  0  0  0  0  0
    6.9588  -13.8572   19.7559 C   0  0  0  0  0  0  0  0  0  0  0  0
    7.1846  -14.1621   21.0764 C   0  0  0  0  0  0  0  0  0  0  0  0
    6.6362  -15.3589   21.6843 C   0  0  0  0  0  0  0  0  0  0  0  0
    6.9591  -16.6718   21.0166 C   0  0  2  0  0  0  0  0  0  0  0  0
    6.1460  -17.6515   21.7869 N   0  0  0  0  0  0  0  0  0  0  0  0
    8.3537  -17.0970   21.1699 C   0  0  0  0  0  0  0  0  0  0  0  0
    9.1000  -17.2257   20.1406 O   0  0  0  0  0  0  0  0  0  0  0  0
    7.9547  -13.3103   21.8488 C   0  0  0  0  0  0  0  0  0  0  0  0
    8.5104  -12.1513   21.3321 C   0  0  0  0  0  0  0  0  0  0  0  0
    8.9577  -17.3811   22.4251 N   0  0  0  0  0  0  0  0  0  0  0  0
   10.3716  -17.2779   22.6537 C   0  0  1  0  0  0  0  0  0  0  0  0
   10.7299  -15.8104   22.3541 C   0  0  0  0  0  0  0  0  0  0  0  0
   11.2908  -15.6747   21.0005 C   0  0  0  0  0  0  0  0  0  0  0  0
   11.5586  -16.6376   20.0526 C   0  0  0  0  0  0  0  0  0  0  0  0
   12.0750  -16.0232   18.9502 N   0  0  0  0  0  0  0  0  0  0  0  0
   12.1262  -14.7136   19.2075 C   0  0  0  0  0  0  0  0  0  0  0  0
   11.6522  -14.4962   20.4490 N   0  0  0  0  0  0  0  0  0  0  0  0
   10.8221  -17.6472   24.0023 C   0  0  0  0  0  0  0  0  0  0  0  0
    9.9984  -17.4017   25.1228 O   0  0  0  0  0  0  0  0  0  0  0  0
   11.9185  -18.1876   24.2933 O   0  0  0  0  0  0  0  0  0  0  0  0
  2  1  1  6
  3  2  1  0
  4  2  1  0
  5  4  1  0
  5  6  1  1
  7  5  1  0
  7  8  2  0
  9 10  1  0
 10 20  2  0
 10 11  1  0
 11 12  2  0
 12 13  1  0
 13 14  1  0
 15 14  1  1
 15 16  1  0
 16  7  1  0
 17 21  1  0
 17 15  1  0
 18 17  2  0
 19 13  2  0
 20 19  1  0
 22 21  1  0
 22 29  1  0
 22 23  1  1
 24 23  1  0
 24 25  2  0
 26 25  1  0
 27 26  1  0
 28 27  2  0
 28 24  1  0
 29 31  2  0
 29 30  1  0
M  END
$$$$
