LYH.pdb
     RDKit          3D

 31 32  0  0  1  0  0  0  0  0999 V2000
    7.1487  -13.5355   17.5347 C   0  0  0  0  0  0  0  0  0  0  0  0
    7.8125  -14.7877   18.0387 C   0  0  1  0  0  0  0  0  0  0  0  0
    8.1902  -15.6418   16.8499 C   0  0  0  0  0  0  0  0  0  0  0  0
    8.9550  -14.5205   18.9640 C   0  0  0  0  0  0  0  0  0  0  0  0
    9.1802  -15.6404   19.9564 C   0  0  2  0  0  0  0  0  0  0  0  0
    8.0026  -16.4509   20.0610 N   0  0  0  0  0  0  0  0  0  0  0  0
    9.5897  -15.0548   21.2597 C   0  0  0  0  0  0  0  0  0  0  0  0
   10.6203  -14.3418   21.3792 O   0  0  0  0  0  0  0  0  0  0  0  0
    6.6298  -11.4466   28.7831 O   0  0  0  0  0  0  0  0  0  0  0  0
    6.9124  -12.2611   27.6980 C   0  0  0  0  0  0  0  0  0  0  0  0
    8.1169  -12.9023   27.5597 C   0  0  0  0  0  0  0  0  0  0  0  0
    8.3963  -13.7121   26.4796 C   0  0  0  0  0  0  0  0  0  0  0  0
    7.4346  -13.8799   25.5128 C   0  0  0  0  0  0  0  0  0  0  0  0
    7.6622  -14.7188   24.3523 C   0  0  0  0  0  0  0  0  0  0  0  0
    9.0088  -14.6057   23.6830 C   0  0  2  0  0  0  0  0  0  0  0  0
    8.8016  -15.3066   22.3868 N   0  0  0  0  0  0  0  0  0  0  0  0
   10.0826  -15.3326   24.3669 C   0  0  0  0  0  0  0  0  0  0  0  0
   10.9816  -14.6904   25.0091 O   0  0  0  0  0  0  0  0  0  0  0  0
    6.2170  -13.2358   25.6462 C   0  0  0  0  0  0  0  0  0  0  0  0
    5.9320  -12.4212   26.7298 C   0  0  0  0  0  0  0  0  0  0  0  0
   10.1967  -16.7497   24.3714 N   0  0  0  0  0  0  0  0  0  0  0  0
   11.1495  -17.4549   25.1818 C   0  0  1  0  0  0  0  0  0  0  0  0
   10.9641  -16.9029   26.6075 C   0  0  0  0  0  0  0  0  0  0  0  0
   10.3019  -17.8940   27.4703 C   0  0  0  0  0  0  0  0  0  0  0  0
    9.6927  -19.0854   27.1438 C   0  0  0  0  0  0  0  0  0  0  0  0
    9.2226  -19.6557   28.2898 N   0  0  0  0  0  0  0  0  0  0  0  0
    9.5321  -18.8394   29.3006 C   0  0  0  0  0  0  0  0  0  0  0  0
   10.1865  -17.7696   28.8100 N   0  0  0  0  0  0  0  0  0  0  0  0
   11.0192  -18.9181   25.1811 C   0  0  0  0  0  0  0  0  0  0  0  0
    9.9165  -19.5367   24.5521 O   0  0  0  0  0  0  0  0  0  0  0  0
   11.8204  -19.7319   25.7050 O   0  0  0  0  0  0  0  0  0  0  0  0
  2  1  1  6
  3  2  1  0
  4  2  1  0
  5  4  1  0
  5  6  1  1
  7  5  1  0
  7  8  2  0
  9 10  1  0
 10 20  2  0
 10 11  1  0
 11 12  2  0
 12 13  1  0
 13 14  1  0
 15 14  1  1
 15 16  1  0
 16  7  1  0
 17 21  1  0
 17 15  1  0
 18 17  2  0
 19 13  2  0
 20 19  1  0
 22 21  1  0
 22 29  1  0
 22 23  1  1
 24 23  1  0
 24 25  2  0
 26 25  1  0
 27 26  1  0
 28 27  2  0
 28 24  1  0
 29 31  2  0
 29 30  1  0
M  END
$$$$
