LYH.pdb
     RDKit          3D

 31 32  0  0  1  0  0  0  0  0999 V2000
    7.6317  -12.2407   19.2566 C   0  0  0  0  0  0  0  0  0  0  0  0
    8.1770  -13.6008   19.5964 C   0  0  1  0  0  0  0  0  0  0  0  0
    9.5148  -13.7655   18.9119 C   0  0  0  0  0  0  0  0  0  0  0  0
    8.2255  -13.8688   21.0656 C   0  0  0  0  0  0  0  0  0  0  0  0
    8.7141  -15.2634   21.3915 C   0  0  2  0  0  0  0  0  0  0  0  0
    8.1720  -16.2066   20.4583 N   0  0  0  0  0  0  0  0  0  0  0  0
    8.3589  -15.5821   22.7993 C   0  0  0  0  0  0  0  0  0  0  0  0
    8.6171  -14.7974   23.7491 O   0  0  0  0  0  0  0  0  0  0  0  0
    3.1007  -18.9120   19.9273 O   0  0  0  0  0  0  0  0  0  0  0  0
    3.7880  -18.4376   21.0334 C   0  0  0  0  0  0  0  0  0  0  0  0
    4.4301  -17.2256   21.0302 C   0  0  0  0  0  0  0  0  0  0  0  0
    5.1132  -16.7553   22.1314 C   0  0  0  0  0  0  0  0  0  0  0  0
    5.1497  -17.5284   23.2666 C   0  0  0  0  0  0  0  0  0  0  0  0
    5.8487  -17.0931   24.4601 C   0  0  0  0  0  0  0  0  0  0  0  0
    7.3517  -17.2145   24.4523 C   0  0  2  0  0  0  0  0  0  0  0  0
    7.7173  -16.7939   23.0725 N   0  0  0  0  0  0  0  0  0  0  0  0
    7.8445  -18.5874   24.5987 C   0  0  0  0  0  0  0  0  0  0  0  0
    7.3146  -19.5329   23.9217 O   0  0  0  0  0  0  0  0  0  0  0  0
    4.5040  -18.7524   23.2766 C   0  0  0  0  0  0  0  0  0  0  0  0
    3.8164  -19.2289   22.1724 C   0  0  0  0  0  0  0  0  0  0  0  0
    8.9096  -18.9543   25.4660 N   0  0  0  0  0  0  0  0  0  0  0  0
   10.1722  -19.4451   24.9895 C   0  0  1  0  0  0  0  0  0  0  0  0
   10.7258  -18.3356   24.0762 C   0  0  0  0  0  0  0  0  0  0  0  0
   11.9654  -18.7725   23.4146 C   0  0  0  0  0  0  0  0  0  0  0  0
   12.7094  -19.9174   23.5959 C   0  0  0  0  0  0  0  0  0  0  0  0
   13.7781  -19.8737   22.7501 N   0  0  0  0  0  0  0  0  0  0  0  0
   13.6991  -18.7317   22.0621 C   0  0  0  0  0  0  0  0  0  0  0  0
   12.6022  -18.0597   22.4606 N   0  0  0  0  0  0  0  0  0  0  0  0
   11.1517  -19.7842   26.0304 C   0  0  0  0  0  0  0  0  0  0  0  0
   11.9973  -20.9049   25.8777 O   0  0  0  0  0  0  0  0  0  0  0  0
   11.3367  -19.1577   27.1037 O   0  0  0  0  0  0  0  0  0  0  0  0
  2  1  1  1
  3  2  1  0
  4  2  1  0
  5  4  1  0
  5  6  1  6
  7  5  1  0
  7  8  2  0
  9 10  1  0
 10 20  2  0
 10 11  1  0
 11 12  2  0
 12 13  1  0
 13 14  1  0
 15 14  1  6
 15 16  1  0
 16  7  1  0
 17 21  1  0
 17 15  1  0
 18 17  2  0
 19 13  2  0
 20 19  1  0
 22 21  1  0
 22 29  1  0
 22 23  1  6
 24 23  1  0
 24 25  2  0
 26 25  1  0
 27 26  1  0
 28 27  2  0
 28 24  1  0
 29 31  2  0
 29 30  1  0
M  END
$$$$
