AKY.pdb
     RDKit          3D

 27 27  0  0  1  0  0  0  0  0999 V2000
   21.3182  -14.4103  -19.8637 C   0  0  0  0  0  0  0  0  0  0  0  0
   21.8334  -13.4869  -18.7886 C   0  0  2  0  0  0  0  0  0  0  0  0
   22.0112  -14.1220  -17.5174 N   0  0  0  0  0  0  0  0  0  0  0  0
   21.0029  -12.2499  -18.6902 C   0  0  0  0  0  0  0  0  0  0  0  0
   20.8747  -11.5280  -19.7069 O   0  0  0  0  0  0  0  0  0  0  0  0
   20.3799  -11.9160  -17.4618 N   0  0  0  0  0  0  0  0  0  0  0  0
   19.5429  -10.6796  -17.3706 C   0  0  1  0  0  0  0  0  0  0  0  0
   18.3459  -11.0559  -16.5591 C   0  0  0  0  0  0  0  0  0  0  0  0
   17.3875   -9.9728  -16.2326 C   0  0  0  0  0  0  0  0  0  0  0  0
   16.2271  -10.5420  -15.4505 C   0  0  0  0  0  0  0  0  0  0  0  0
   15.2553   -9.4728  -15.0069 C   0  0  0  0  0  0  0  0  0  0  0  0
   14.1939  -10.0823  -14.2298 N   0  0  0  0  0  0  0  0  0  0  0  0
   20.4058   -9.6564  -16.7433 C   0  0  0  0  0  0  0  0  0  0  0  0
   21.1862   -9.9777  -15.7781 O   0  0  0  0  0  0  0  0  0  0  0  0
   18.0411   -4.1477  -20.7284 O   0  0  0  0  0  0  0  0  0  0  0  0
   19.0241   -4.7293  -19.9304 C   0  0  0  0  0  0  0  0  0  0  0  0
   19.5267   -5.9631  -20.2740 C   0  0  0  0  0  0  0  0  0  0  0  0
   20.5044   -6.5830  -19.5141 C   0  0  0  0  0  0  0  0  0  0  0  0
   20.9850   -5.9550  -18.3921 C   0  0  0  0  0  0  0  0  0  0  0  0
   22.0051   -6.6094  -17.5735 C   0  0  0  0  0  0  0  0  0  0  0  0
   21.3322   -7.3802  -16.4612 C   0  0  2  0  0  0  0  0  0  0  0  0
   20.4262   -8.3285  -17.1497 N   0  0  0  0  0  0  0  0  0  0  0  0
   20.5347   -6.5112  -15.5690 C   0  0  0  0  0  0  0  0  0  0  0  0
   21.1414   -5.6739  -14.8306 O   0  0  0  0  0  0  0  0  0  0  0  0
   20.4816   -4.7247  -18.0523 C   0  0  0  0  0  0  0  0  0  0  0  0
   19.5083   -4.0967  -18.7999 C   0  0  0  0  0  0  0  0  0  0  0  0
   19.1552   -6.5891  -15.5234 O   0  0  0  0  0  0  0  0  0  0  0  0
  2  1  1  6
  3  2  1  0
  4  5  2  0
  4  2  1  0
  6  4  1  0
  7  6  1  0
  7  8  1  1
  8  9  1  0
 10  9  1  0
 11 12  1  0
 11 10  1  0
 13  7  1  0
 14 13  2  0
 15 16  1  0
 16 26  2  0
 17 18  2  0
 17 16  1  0
 18 19  1  0
 19 20  1  0
 19 25  2  0
 21 20  1  6
 21 23  1  0
 21 22  1  0
 22 13  1  0
 23 27  1  0
 24 23  2  0
 26 25  1  0
M  END
$$$$
