ITG.pdb
     RDKit          3D

 20 19  0  0  1  0  0  0  0  0999 V2000
   26.7163  -19.5997   -6.4157 C   0  0  0  0  0  0  0  0  0  0  0  0
   25.8723  -20.2289   -7.4841 C   0  0  0  0  0  0  0  0  0  0  0  0
   26.4170  -19.9183   -8.8866 C   0  0  2  0  0  0  0  0  0  0  0  0
   26.5311  -18.4354   -8.9867 C   0  0  0  0  0  0  0  0  0  0  0  0
   25.4478  -20.5525   -9.8458 C   0  0  2  0  0  0  0  0  0  0  0  0
   25.4956  -21.9995   -9.5571 N   0  0  0  0  0  0  0  0  0  0  0  0
   25.7977  -20.4105  -11.2653 C   0  0  0  0  0  0  0  0  0  0  0  0
   26.9702  -20.6033  -11.7076 O   0  0  0  0  0  0  0  0  0  0  0  0
   26.0266  -22.1746  -13.8197 C   0  0  0  0  0  0  0  0  0  0  0  0
   24.9845  -21.2000  -14.3327 C   0  0  1  0  0  0  0  0  0  0  0  0
   23.6996  -21.6985  -14.1602 O   0  0  0  0  0  0  0  0  0  0  0  0
   25.1636  -19.8613  -13.6450 C   0  0  2  0  0  0  0  0  0  0  0  0
   24.8334  -20.0444  -12.2455 N   0  0  0  0  0  0  0  0  0  0  0  0
   24.2241  -18.9106  -14.3053 C   0  0  0  0  0  0  0  0  0  0  0  0
   23.1777  -18.5570  -13.7053 O   0  0  0  0  0  0  0  0  0  0  0  0
   24.4607  -18.3804  -15.5965 N   0  0  0  0  0  0  0  0  0  0  0  0
   23.6642  -17.3433  -16.2057 C   0  0  0  0  0  0  0  0  0  0  0  0
   22.4434  -17.9281  -16.7713 C   0  0  0  0  0  0  0  0  0  0  0  0
   22.0913  -19.0771  -16.4409 O   0  0  0  0  0  0  0  0  0  0  0  0
   21.6445  -17.2396  -17.6808 O   0  0  0  0  0  0  0  0  0  0  0  0
  1  2  1  0
  2  3  1  0
  3  4  1  6
  5  3  1  0
  5  6  1  1
  7  5  1  0
  7  8  2  0
 10  9  1  1
 10 12  1  0
 10 11  1  0
 12 13  1  1
 13  7  1  0
 14 12  1  0
 15 14  2  0
 16 14  1  0
 17 16  1  0
 18 20  1  0
 18 17  1  0
 19 18  2  0
M  END
$$$$
