ITG.pdb
     RDKit          3D

 20 19  0  0  1  0  0  0  0  0999 V2000
   18.2788  -12.9884  -17.0166 C   0  0  0  0  0  0  0  0  0  0  0  0
   19.1115  -12.2660  -15.9995 C   0  0  0  0  0  0  0  0  0  0  0  0
   20.3146  -11.5676  -16.6514 C   0  0  2  0  0  0  0  0  0  0  0  0
   21.0655  -12.6131  -17.4030 C   0  0  0  0  0  0  0  0  0  0  0  0
   21.0695  -10.9245  -15.5209 C   0  0  2  0  0  0  0  0  0  0  0  0
   20.0685  -10.1371  -14.7744 N   0  0  0  0  0  0  0  0  0  0  0  0
   22.1096   -9.9723  -15.9323 C   0  0  0  0  0  0  0  0  0  0  0  0
   23.3087  -10.3176  -16.1567 O   0  0  0  0  0  0  0  0  0  0  0  0
   22.2882   -7.8773  -19.0212 C   0  0  0  0  0  0  0  0  0  0  0  0
   22.2068   -6.9584  -17.8179 C   0  0  1  0  0  0  0  0  0  0  0  0
   20.8984   -6.5612  -17.5741 O   0  0  0  0  0  0  0  0  0  0  0  0
   22.8169   -7.6482  -16.6141 C   0  0  2  0  0  0  0  0  0  0  0  0
   21.8354   -8.5871  -16.1078 N   0  0  0  0  0  0  0  0  0  0  0  0
   23.1157   -6.5828  -15.6149 C   0  0  0  0  0  0  0  0  0  0  0  0
   24.0270   -5.7501  -15.8514 O   0  0  0  0  0  0  0  0  0  0  0  0
   22.4090   -6.4650  -14.3939 N   0  0  0  0  0  0  0  0  0  0  0  0
   22.6550   -5.4387  -13.4103 C   0  0  0  0  0  0  0  0  0  0  0  0
   21.7764   -4.2918  -13.6650 C   0  0  0  0  0  0  0  0  0  0  0  0
   20.8981   -4.3627  -14.5465 O   0  0  0  0  0  0  0  0  0  0  0  0
   21.8842   -3.1023  -12.9488 O   0  0  0  0  0  0  0  0  0  0  0  0
  1  2  1  0
  2  3  1  0
  3  4  1  1
  5  3  1  0
  5  6  1  1
  7  5  1  0
  7  8  2  0
 10  9  1  6
 10 12  1  0
 10 11  1  0
 12 13  1  1
 13  7  1  0
 14 12  1  0
 15 14  2  0
 16 14  1  0
 17 16  1  0
 18 20  1  0
 18 17  1  0
 19 18  2  0
M  END
$$$$
