ITG.pdb
     RDKit          3D

 20 19  0  0  1  0  0  0  0  0999 V2000
   16.9745  -13.0015  -15.6629 C   0  0  0  0  0  0  0  0  0  0  0  0
   18.1533  -12.4602  -16.4160 C   0  0  0  0  0  0  0  0  0  0  0  0
   18.8754  -11.3642  -15.6176 C   0  0  2  0  0  0  0  0  0  0  0  0
   17.8654  -10.3083  -15.3229 C   0  0  0  0  0  0  0  0  0  0  0  0
   20.0261  -10.9270  -16.4815 C   0  0  2  0  0  0  0  0  0  0  0  0
   20.8181  -12.1473  -16.7325 N   0  0  0  0  0  0  0  0  0  0  0  0
   20.9452   -9.9694  -15.8522 C   0  0  0  0  0  0  0  0  0  0  0  0
   21.6443  -10.2544  -14.8337 O   0  0  0  0  0  0  0  0  0  0  0  0
   23.9443   -8.5510  -16.9053 C   0  0  0  0  0  0  0  0  0  0  0  0
   23.0773   -7.3271  -16.6829 C   0  0  1  0  0  0  0  0  0  0  0  0
   22.5781   -6.8378  -17.8832 O   0  0  0  0  0  0  0  0  0  0  0  0
   21.9658   -7.6663  -15.7100 C   0  0  2  0  0  0  0  0  0  0  0  0
   21.1121   -8.6471  -16.3506 N   0  0  0  0  0  0  0  0  0  0  0  0
   21.2295   -6.3981  -15.4408 C   0  0  0  0  0  0  0  0  0  0  0  0
   20.1655   -6.1555  -16.0643 O   0  0  0  0  0  0  0  0  0  0  0  0
   21.6814   -5.4408  -14.5008 N   0  0  0  0  0  0  0  0  0  0  0  0
   20.9702   -4.2297  -14.1710 C   0  0  0  0  0  0  0  0  0  0  0  0
   21.8034   -3.3903  -13.3029 C   0  0  0  0  0  0  0  0  0  0  0  0
   22.8914   -3.8224  -12.8755 O   0  0  0  0  0  0  0  0  0  0  0  0
   21.4222   -2.1043  -12.9283 O   0  0  0  0  0  0  0  0  0  0  0  0
  1  2  1  0
  2  3  1  0
  3  4  1  6
  5  3  1  0
  5  6  1  1
  7  5  1  0
  7  8  2  0
 10  9  1  6
 10 12  1  0
 10 11  1  0
 12 13  1  6
 13  7  1  0
 14 12  1  0
 15 14  2  0
 16 14  1  0
 17 16  1  0
 18 20  1  0
 18 17  1  0
 19 18  2  0
M  END
$$$$
