ITG.pdb
     RDKit          3D

 20 19  0  0  1  0  0  0  0  0999 V2000
   23.4926  -14.9412  -20.2356 C   0  0  0  0  0  0  0  0  0  0  0  0
   23.1325  -13.4884  -20.3337 C   0  0  0  0  0  0  0  0  0  0  0  0
   23.0668  -12.8306  -18.9470 C   0  0  2  0  0  0  0  0  0  0  0  0
   22.0369  -13.5726  -18.1655 C   0  0  0  0  0  0  0  0  0  0  0  0
   22.7567  -11.3813  -19.2018 C   0  0  2  0  0  0  0  0  0  0  0  0
   23.8325  -10.8969  -20.0891 N   0  0  0  0  0  0  0  0  0  0  0  0
   22.7941  -10.5207  -18.0120 C   0  0  0  0  0  0  0  0  0  0  0  0
   22.0247  -10.6868  -17.0181 O   0  0  0  0  0  0  0  0  0  0  0  0
   25.4548  -10.0127  -15.7032 C   0  0  0  0  0  0  0  0  0  0  0  0
   25.1510   -8.6064  -16.1817 C   0  0  1  0  0  0  0  0  0  0  0  0
   26.0902   -8.1756  -17.1099 O   0  0  0  0  0  0  0  0  0  0  0  0
   23.7442   -8.5574  -16.7434 C   0  0  2  0  0  0  0  0  0  0  0  0
   23.7062   -9.4345  -17.8968 N   0  0  0  0  0  0  0  0  0  0  0  0
   23.4854   -7.1407  -17.1292 C   0  0  0  0  0  0  0  0  0  0  0  0
   23.6032   -6.7951  -18.3319 O   0  0  0  0  0  0  0  0  0  0  0  0
   23.1074   -6.1528  -16.1882 N   0  0  0  0  0  0  0  0  0  0  0  0
   22.8546   -4.7717  -16.5198 C   0  0  0  0  0  0  0  0  0  0  0  0
   22.4740   -4.0363  -15.3087 C   0  0  0  0  0  0  0  0  0  0  0  0
   22.3551   -4.6394  -14.2245 O   0  0  0  0  0  0  0  0  0  0  0  0
   22.2351   -2.6644  -15.3192 O   0  0  0  0  0  0  0  0  0  0  0  0
  1  2  1  0
  2  3  1  0
  3  4  1  1
  5  3  1  0
  5  6  1  6
  7  5  1  0
  7  8  2  0
 10  9  1  6
 10 12  1  0
 10 11  1  0
 12 13  1  6
 13  7  1  0
 14 12  1  0
 15 14  2  0
 16 14  1  0
 17 16  1  0
 18 20  1  0
 18 17  1  0
 19 18  2  0
M  END
$$$$
