ITG.pdb
     RDKit          3D

 20 19  0  0  1  0  0  0  0  0999 V2000
   24.1098  -15.0684  -17.3040 C   0  0  0  0  0  0  0  0  0  0  0  0
   24.6523  -13.7980  -16.7194 C   0  0  0  0  0  0  0  0  0  0  0  0
   23.7890  -12.5876  -17.1062 C   0  0  2  0  0  0  0  0  0  0  0  0
   23.7183  -12.5658  -18.5950 C   0  0  0  0  0  0  0  0  0  0  0  0
   24.4595  -11.3965  -16.4791 C   0  0  2  0  0  0  0  0  0  0  0  0
   24.4785  -11.6715  -15.0288 N   0  0  0  0  0  0  0  0  0  0  0  0
   23.7427  -10.1247  -16.6412 C   0  0  0  0  0  0  0  0  0  0  0  0
   23.8158   -9.4231  -17.6947 O   0  0  0  0  0  0  0  0  0  0  0  0
   20.4120   -9.4000  -17.1457 C   0  0  0  0  0  0  0  0  0  0  0  0
   20.7037   -8.7011  -15.8321 C   0  0  1  0  0  0  0  0  0  0  0  0
   20.3077   -9.4761  -14.7496 O   0  0  0  0  0  0  0  0  0  0  0  0
   22.1769   -8.3519  -15.7626 C   0  0  2  0  0  0  0  0  0  0  0  0
   22.9111   -9.5931  -15.6162 N   0  0  0  0  0  0  0  0  0  0  0  0
   22.3536   -7.4722  -14.5719 C   0  0  0  0  0  0  0  0  0  0  0  0
   22.8689   -7.9419  -13.5261 O   0  0  0  0  0  0  0  0  0  0  0  0
   21.9613   -6.1120  -14.5660 N   0  0  0  0  0  0  0  0  0  0  0  0
   22.1259   -5.2255  -13.4398 C   0  0  0  0  0  0  0  0  0  0  0  0
   21.7352   -3.8644  -13.8233 C   0  0  0  0  0  0  0  0  0  0  0  0
   21.3932   -3.6211  -14.9968 O   0  0  0  0  0  0  0  0  0  0  0  0
   21.7302   -2.8106  -12.9129 O   0  0  0  0  0  0  0  0  0  0  0  0
  1  2  1  0
  2  3  1  0
  3  4  1  6
  5  3  1  0
  5  6  1  1
  7  5  1  0
  7  8  2  0
 10  9  1  6
 10 12  1  0
 10 11  1  0
 12 13  1  1
 13  7  1  0
 14 12  1  0
 15 14  2  0
 16 14  1  0
 17 16  1  0
 18 20  1  0
 18 17  1  0
 19 18  2  0
M  END
$$$$
