ITG.pdb
     RDKit          3D

 20 19  0  0  1  0  0  0  0  0999 V2000
   20.4785  -18.4082  -17.7340 C   0  0  0  0  0  0  0  0  0  0  0  0
   20.5095  -16.9575  -18.1142 C   0  0  0  0  0  0  0  0  0  0  0  0
   20.5471  -16.0520  -16.8738 C   0  0  2  0  0  0  0  0  0  0  0  0
   19.3776  -16.4277  -16.0294 C   0  0  0  0  0  0  0  0  0  0  0  0
   20.5305  -14.6437  -17.4012 C   0  0  2  0  0  0  0  0  0  0  0  0
   21.6278  -14.5777  -18.3866 N   0  0  0  0  0  0  0  0  0  0  0  0
   20.8183  -13.6046  -16.4037 C   0  0  0  0  0  0  0  0  0  0  0  0
   20.1255  -13.4482  -15.3535 O   0  0  0  0  0  0  0  0  0  0  0  0
   24.1136  -12.7442  -14.6220 C   0  0  0  0  0  0  0  0  0  0  0  0
   23.6545  -11.5348  -15.4129 C   0  0  1  0  0  0  0  0  0  0  0  0
   24.3409  -11.4285  -16.6157 O   0  0  0  0  0  0  0  0  0  0  0  0
   22.1561  -11.6111  -15.6272 C   0  0  2  0  0  0  0  0  0  0  0  0
   21.9046  -12.6977  -16.5531 N   0  0  0  0  0  0  0  0  0  0  0  0
   21.7374  -10.3003  -16.2009 C   0  0  0  0  0  0  0  0  0  0  0  0
   21.5143  -10.2071  -17.4343 O   0  0  0  0  0  0  0  0  0  0  0  0
   21.5776   -9.1387  -15.4075 N   0  0  0  0  0  0  0  0  0  0  0  0
   21.1966   -7.8479  -15.9270 C   0  0  0  0  0  0  0  0  0  0  0  0
   21.0972   -6.8837  -14.8258 C   0  0  0  0  0  0  0  0  0  0  0  0
   21.2501   -7.2636  -13.6487 O   0  0  0  0  0  0  0  0  0  0  0  0
   20.8337   -5.5338  -15.0444 O   0  0  0  0  0  0  0  0  0  0  0  0
  1  2  1  0
  2  3  1  0
  3  4  1  1
  5  3  1  0
  5  6  1  6
  7  5  1  0
  7  8  2  0
 10  9  1  6
 10 12  1  0
 10 11  1  0
 12 13  1  6
 13  7  1  0
 14 12  1  0
 15 14  2  0
 16 14  1  0
 17 16  1  0
 18 20  1  0
 18 17  1  0
 19 18  2  0
M  END
$$$$
