ITG.pdb
     RDKit          3D

 20 19  0  0  1  0  0  0  0  0999 V2000
   28.8566  -12.8638  -16.0140 C   0  0  0  0  0  0  0  0  0  0  0  0
   27.3627  -12.9646  -16.1035 C   0  0  0  0  0  0  0  0  0  0  0  0
   26.7163  -11.5834  -16.2900 C   0  0  2  0  0  0  0  0  0  0  0  0
   27.0083  -10.7999  -15.0561 C   0  0  0  0  0  0  0  0  0  0  0  0
   25.2594  -11.8512  -16.5494 C   0  0  2  0  0  0  0  0  0  0  0  0
   25.2232  -12.7187  -17.7432 N   0  0  0  0  0  0  0  0  0  0  0  0
   24.4613  -10.6648  -16.8859 C   0  0  0  0  0  0  0  0  0  0  0  0
   24.6589   -9.9767  -17.9322 O   0  0  0  0  0  0  0  0  0  0  0  0
   20.4141   -8.1276  -16.8719 C   0  0  0  0  0  0  0  0  0  0  0  0
   21.2279   -9.3749  -16.5874 C   0  0  1  0  0  0  0  0  0  0  0  0
   21.1327  -10.2879  -17.6297 O   0  0  0  0  0  0  0  0  0  0  0  0
   22.6668   -8.9866  -16.3117 C   0  0  2  0  0  0  0  0  0  0  0  0
   23.4037  -10.2072  -16.0510 N   0  0  0  0  0  0  0  0  0  0  0  0
   22.6493   -8.0963  -15.1160 C   0  0  0  0  0  0  0  0  0  0  0  0
   22.8170   -8.5914  -13.9729 O   0  0  0  0  0  0  0  0  0  0  0  0
   22.4495   -6.6980  -15.2113 N   0  0  0  0  0  0  0  0  0  0  0  0
   22.5151   -5.7912  -14.0911 C   0  0  0  0  0  0  0  0  0  0  0  0
   22.1842   -4.4333  -14.5369 C   0  0  0  0  0  0  0  0  0  0  0  0
   21.9572   -4.2104  -15.7419 O   0  0  0  0  0  0  0  0  0  0  0  0
   22.1113   -3.3602  -13.6523 O   0  0  0  0  0  0  0  0  0  0  0  0
  1  2  1  0
  2  3  1  0
  3  4  1  1
  5  3  1  0
  5  6  1  6
  7  5  1  0
  7  8  2  0
 10  9  1  6
 10 12  1  0
 10 11  1  0
 12 13  1  1
 13  7  1  0
 14 12  1  0
 15 14  2  0
 16 14  1  0
 17 16  1  0
 18 20  1  0
 18 17  1  0
 19 18  2  0
M  END
$$$$
