ITG.pdb
     RDKit          3D

 20 19  0  0  1  0  0  0  0  0999 V2000
   25.7176  -14.4965  -18.3215 C   0  0  0  0  0  0  0  0  0  0  0  0
   25.4776  -13.5870  -17.1532 C   0  0  0  0  0  0  0  0  0  0  0  0
   25.4077  -12.1161  -17.5907 C   0  0  2  0  0  0  0  0  0  0  0  0
   26.6833  -11.8158  -18.3011 C   0  0  0  0  0  0  0  0  0  0  0  0
   25.1762  -11.3301  -16.3297 C   0  0  2  0  0  0  0  0  0  0  0  0
   23.9905  -11.9397  -15.6959 N   0  0  0  0  0  0  0  0  0  0  0  0
   24.8439   -9.9140  -16.5338 C   0  0  0  0  0  0  0  0  0  0  0  0
   25.6928   -9.0575  -16.9252 O   0  0  0  0  0  0  0  0  0  0  0  0
   22.3021   -8.6412  -18.8585 C   0  0  0  0  0  0  0  0  0  0  0  0
   21.9203   -8.1048  -17.4926 C   0  0  1  0  0  0  0  0  0  0  0  0
   20.9134   -8.8673  -16.9148 O   0  0  0  0  0  0  0  0  0  0  0  0
   23.1525   -8.0433  -16.6122 C   0  0  2  0  0  0  0  0  0  0  0  0
   23.5343   -9.4072  -16.3037 N   0  0  0  0  0  0  0  0  0  0  0  0
   22.7638   -7.2962  -15.3820 C   0  0  0  0  0  0  0  0  0  0  0  0
   22.6524   -7.9128  -14.2924 O   0  0  0  0  0  0  0  0  0  0  0  0
   22.5108   -5.9033  -15.3858 N   0  0  0  0  0  0  0  0  0  0  0  0
   22.1732   -5.1372  -14.2108 C   0  0  0  0  0  0  0  0  0  0  0  0
   22.0402   -3.7205  -14.5681 C   0  0  0  0  0  0  0  0  0  0  0  0
   22.3478   -3.3345  -15.7125 O   0  0  0  0  0  0  0  0  0  0  0  0
   21.5753   -2.7688  -13.6640 O   0  0  0  0  0  0  0  0  0  0  0  0
  1  2  1  0
  2  3  1  0
  3  4  1  1
  5  3  1  0
  5  6  1  6
  7  5  1  0
  7  8  2  0
 10  9  1  6
 10 12  1  0
 10 11  1  0
 12 13  1  1
 13  7  1  0
 14 12  1  0
 15 14  2  0
 16 14  1  0
 17 16  1  0
 18 20  1  0
 18 17  1  0
 19 18  2  0
M  END
$$$$
