LMI.pdb
     RDKit          3D

 25 24  0  0  1  0  0  0  0  0999 V2000
   10.8338  -19.2343   19.8885 C   0  0  0  0  0  0  0  0  0  0  0  0
   11.7328  -18.0423   19.6885 C   0  0  2  0  0  0  0  0  0  0  0  0
   13.1831  -18.4531   19.7481 C   0  0  0  0  0  0  0  0  0  0  0  0
   11.4018  -16.9251   20.6226 C   0  0  0  0  0  0  0  0  0  0  0  0
    9.9167  -16.6523   20.7110 C   0  0  2  0  0  0  0  0  0  0  0  0
    9.3941  -15.9836   19.5700 N   0  0  0  0  0  0  0  0  0  0  0  0
    9.6541  -16.0063   21.9970 C   0  0  0  0  0  0  0  0  0  0  0  0
   10.5255  -15.1776   22.4083 O   0  0  0  0  0  0  0  0  0  0  0  0
    6.4398  -12.2189   23.8825 C   0  0  0  0  0  0  0  0  0  0  0  0
    6.1987  -12.8807   25.5452 S   0  0  0  0  0  0  0  0  0  0  0  0
    6.5638  -14.6310   25.6317 C   0  0  0  0  0  0  0  0  0  0  0  0
    6.8804  -15.2683   24.3227 C   0  0  0  0  0  0  0  0  0  0  0  0
    8.3640  -15.4489   24.0664 C   0  0  2  0  0  0  0  0  0  0  0  0
    8.5366  -16.2150   22.8136 N   0  0  0  0  0  0  0  0  0  0  0  0
    9.0967  -16.1466   25.1146 C   0  0  0  0  0  0  0  0  0  0  0  0
    9.3113  -17.4079   25.0662 O   0  0  0  0  0  0  0  0  0  0  0  0
   10.3570  -12.9521   29.3144 C   0  0  0  0  0  0  0  0  0  0  0  0
   10.5904  -13.9347   28.1827 C   0  0  0  0  0  0  0  0  0  0  0  0
   10.2624  -15.3462   28.6040 C   0  0  2  0  0  0  0  0  0  0  0  0
   11.2710  -15.9169   29.5490 C   0  0  0  0  0  0  0  0  0  0  0  0
   10.3625  -16.2074   27.3154 C   0  0  2  0  0  0  0  0  0  0  0  0
    9.6461  -15.4970   26.2758 N   0  0  0  0  0  0  0  0  0  0  0  0
    9.8316  -17.5509   27.5986 C   0  0  0  0  0  0  0  0  0  0  0  0
   10.6514  -18.6338   27.8673 O   0  0  0  0  0  0  0  0  0  0  0  0
    8.5950  -17.7393   27.6007 O   0  0  0  0  0  0  0  0  0  0  0  0
  2  1  1  1
  3  2  1  0
  4  2  1  0
  4  5  1  0
  5  6  1  6
  7  8  2  0
  7  5  1  0
 10 11  1  0
 10  9  1  0
 11 12  1  0
 13 12  1  1
 13 14  1  0
 14  7  1  0
 15 16  2  0
 15 13  1  0
 18 19  1  0
 18 17  1  0
 19 21  1  0
 19 20  1  1
 21 22  1  6
 22 15  1  0
 23 21  1  0
 24 23  1  0
 25 23  2  0
M  END
$$$$
