LMI.pdb
     RDKit          3D

 25 24  0  0  1  0  0  0  0  0999 V2000
    8.4223  -14.3433   17.8162 C   0  0  0  0  0  0  0  0  0  0  0  0
    7.7974  -13.4641   18.8677 C   0  0  2  0  0  0  0  0  0  0  0  0
    7.6511  -12.0505   18.3617 C   0  0  0  0  0  0  0  0  0  0  0  0
    8.5193  -13.5474   20.1723 C   0  0  0  0  0  0  0  0  0  0  0  0
    8.4433  -14.9213   20.8004 C   0  0  2  0  0  0  0  0  0  0  0  0
    7.1977  -15.5736   20.5883 N   0  0  0  0  0  0  0  0  0  0  0  0
    8.8638  -14.8012   22.1964 C   0  0  0  0  0  0  0  0  0  0  0  0
   10.0798  -14.4942   22.4021 O   0  0  0  0  0  0  0  0  0  0  0  0
    5.4902  -12.2099   26.9007 C   0  0  0  0  0  0  0  0  0  0  0  0
    6.8997  -12.7764   27.8769 S   0  0  0  0  0  0  0  0  0  0  0  0
    8.0215  -13.7865   26.9148 C   0  0  0  0  0  0  0  0  0  0  0  0
    7.6144  -13.9947   25.4968 C   0  0  0  0  0  0  0  0  0  0  0  0
    8.6015  -14.8098   24.6841 C   0  0  2  0  0  0  0  0  0  0  0  0
    8.0547  -14.9922   23.3225 N   0  0  0  0  0  0  0  0  0  0  0  0
    8.9066  -16.1307   25.2175 C   0  0  0  0  0  0  0  0  0  0  0  0
    8.0519  -17.0838   25.1956 O   0  0  0  0  0  0  0  0  0  0  0  0
   12.9836  -18.4698   23.5490 C   0  0  0  0  0  0  0  0  0  0  0  0
   11.6537  -18.3107   24.2610 C   0  0  0  0  0  0  0  0  0  0  0  0
   11.8368  -18.2347   25.7570 C   0  0  2  0  0  0  0  0  0  0  0  0
   12.1302  -19.5657   26.3721 C   0  0  0  0  0  0  0  0  0  0  0  0
   10.4599  -17.8029   26.3313 C   0  0  2  0  0  0  0  0  0  0  0  0
   10.1745  -16.4860   25.7993 N   0  0  0  0  0  0  0  0  0  0  0  0
   10.5198  -17.8556   27.8012 C   0  0  0  0  0  0  0  0  0  0  0  0
   10.7804  -16.7381   28.5760 O   0  0  0  0  0  0  0  0  0  0  0  0
   10.3306  -18.9433   28.3891 O   0  0  0  0  0  0  0  0  0  0  0  0
  2  1  1  6
  3  2  1  0
  4  2  1  0
  4  5  1  0
  5  6  1  1
  7  8  2  0
  7  5  1  0
 10 11  1  0
 10  9  1  0
 11 12  1  0
 13 12  1  1
 13 14  1  0
 14  7  1  0
 15 16  2  0
 15 13  1  0
 18 19  1  0
 18 17  1  0
 19 21  1  0
 19 20  1  1
 21 22  1  1
 22 15  1  0
 23 21  1  0
 24 23  1  0
 25 23  2  0
M  END
$$$$
