LMI.pdb
     RDKit          3D

 25 24  0  0  1  0  0  0  0  0999 V2000
    7.9716  -19.4983   20.0530 C   0  0  0  0  0  0  0  0  0  0  0  0
    9.4374  -19.5937   20.3865 C   0  0  2  0  0  0  0  0  0  0  0  0
    9.7792  -20.9720   20.8954 C   0  0  0  0  0  0  0  0  0  0  0  0
    9.8768  -18.5036   21.3078 C   0  0  0  0  0  0  0  0  0  0  0  0
    9.3268  -17.1487   20.9212 C   0  0  2  0  0  0  0  0  0  0  0  0
    9.9639  -16.5818   19.7833 N   0  0  0  0  0  0  0  0  0  0  0  0
    9.3124  -16.3106   22.1200 C   0  0  0  0  0  0  0  0  0  0  0  0
   10.3803  -15.6744   22.3849 O   0  0  0  0  0  0  0  0  0  0  0  0
    6.2190  -11.7666   24.0817 C   0  0  0  0  0  0  0  0  0  0  0  0
    6.1453  -12.4409   25.7552 S   0  0  0  0  0  0  0  0  0  0  0  0
    6.9073  -14.0572   25.8630 C   0  0  0  0  0  0  0  0  0  0  0  0
    6.9534  -14.8127   24.5798 C   0  0  0  0  0  0  0  0  0  0  0  0
    8.3473  -15.2433   24.1663 C   0  0  2  0  0  0  0  0  0  0  0  0
    8.2361  -16.1444   22.9993 N   0  0  0  0  0  0  0  0  0  0  0  0
    9.1133  -15.9407   25.1906 C   0  0  0  0  0  0  0  0  0  0  0  0
    8.9271  -17.1809   25.4485 O   0  0  0  0  0  0  0  0  0  0  0  0
    9.6968  -13.2283   29.4501 C   0  0  0  0  0  0  0  0  0  0  0  0
   10.2786  -13.9218   28.2330 C   0  0  0  0  0  0  0  0  0  0  0  0
   10.2628  -15.4220   28.3952 C   0  0  2  0  0  0  0  0  0  0  0  0
   11.1928  -15.8979   29.4652 C   0  0  0  0  0  0  0  0  0  0  0  0
   10.8240  -15.9982   27.0666 C   0  0  2  0  0  0  0  0  0  0  0  0
   10.1374  -15.3177   25.9876 N   0  0  0  0  0  0  0  0  0  0  0  0
   10.6413  -17.4589   27.0667 C   0  0  0  0  0  0  0  0  0  0  0  0
    9.3904  -18.0524   27.0752 O   0  0  0  0  0  0  0  0  0  0  0  0
   11.6434  -18.2074   27.0590 O   0  0  0  0  0  0  0  0  0  0  0  0
  2  1  1  1
  3  2  1  0
  4  2  1  0
  4  5  1  0
  5  6  1  6
  7  8  2  0
  7  5  1  0
 10 11  1  0
 10  9  1  0
 11 12  1  0
 13 12  1  1
 13 14  1  0
 14  7  1  0
 15 16  2  0
 15 13  1  0
 18 19  1  0
 18 17  1  0
 19 21  1  0
 19 20  1  1
 21 22  1  6
 22 15  1  0
 23 21  1  0
 24 23  1  0
 25 23  2  0
M  END
$$$$
