LMI.pdb
     RDKit          3D

 25 24  0  0  1  0  0  0  0  0999 V2000
    5.7070  -20.3435   26.9626 C   0  0  0  0  0  0  0  0  0  0  0  0
    7.2039  -20.4953   26.8895 C   0  0  2  0  0  0  0  0  0  0  0  0
    7.8112  -20.4567   28.2698 C   0  0  0  0  0  0  0  0  0  0  0  0
    7.8234  -19.5141   25.9494 C   0  0  0  0  0  0  0  0  0  0  0  0
    7.1930  -19.5372   24.5747 C   0  0  2  0  0  0  0  0  0  0  0  0
    7.3589  -20.7754   23.8955 N   0  0  0  0  0  0  0  0  0  0  0  0
    7.6522  -18.3526   23.8496 C   0  0  0  0  0  0  0  0  0  0  0  0
    8.7073  -18.4827   23.1532 O   0  0  0  0  0  0  0  0  0  0  0  0
    8.5078  -12.6702   20.0417 C   0  0  0  0  0  0  0  0  0  0  0  0
    6.8672  -13.0952   20.6649 S   0  0  0  0  0  0  0  0  0  0  0  0
    6.7222  -14.8391   21.0422 C   0  0  0  0  0  0  0  0  0  0  0  0
    6.5169  -15.1509   22.4845 C   0  0  0  0  0  0  0  0  0  0  0  0
    7.6357  -15.9642   23.1059 C   0  0  2  0  0  0  0  0  0  0  0  0
    7.0401  -17.0938   23.8513 N   0  0  0  0  0  0  0  0  0  0  0  0
    8.4989  -15.2352   24.0256 C   0  0  0  0  0  0  0  0  0  0  0  0
    9.0326  -14.1151   23.7096 O   0  0  0  0  0  0  0  0  0  0  0  0
    6.7678  -12.1224   26.0409 C   0  0  0  0  0  0  0  0  0  0  0  0
    7.8850  -13.0814   25.6765 C   0  0  0  0  0  0  0  0  0  0  0  0
    8.3354  -13.8812   26.8744 C   0  0  2  0  0  0  0  0  0  0  0  0
    8.9971  -13.0380   27.9171 C   0  0  0  0  0  0  0  0  0  0  0  0
    9.4377  -14.8426   26.3524 C   0  0  2  0  0  0  0  0  0  0  0  0
    8.8203  -15.6903   25.3529 N   0  0  0  0  0  0  0  0  0  0  0  0
   10.0070  -15.5780   27.4934 C   0  0  0  0  0  0  0  0  0  0  0  0
    9.8326  -16.9412   27.6621 O   0  0  0  0  0  0  0  0  0  0  0  0
   10.6766  -14.9637   28.3530 O   0  0  0  0  0  0  0  0  0  0  0  0
  2  1  1  1
  3  2  1  0
  4  2  1  0
  4  5  1  0
  5  6  1  6
  7  8  2  0
  7  5  1  0
 10 11  1  0
 10  9  1  0
 11 12  1  0
 13 12  1  1
 13 14  1  0
 14  7  1  0
 15 16  2  0
 15 13  1  0
 18 19  1  0
 18 17  1  0
 19 21  1  0
 19 20  1  1
 21 22  1  6
 22 15  1  0
 23 21  1  0
 24 23  1  0
 25 23  2  0
M  END
$$$$
