LMI.pdb
     RDKit          3D

 25 24  0  0  1  0  0  0  0  0999 V2000
    7.9255  -18.8594   19.5672 C   0  0  0  0  0  0  0  0  0  0  0  0
    9.3284  -19.0467   20.0829 C   0  0  2  0  0  0  0  0  0  0  0  0
    9.5647  -20.4844   20.4737 C   0  0  0  0  0  0  0  0  0  0  0  0
    9.6607  -18.0813   21.1727 C   0  0  0  0  0  0  0  0  0  0  0  0
    9.2623  -16.6602   20.8420 C   0  0  2  0  0  0  0  0  0  0  0  0
    9.9824  -16.1097   19.7463 N   0  0  0  0  0  0  0  0  0  0  0  0
    9.3038  -15.8820   22.0800 C   0  0  0  0  0  0  0  0  0  0  0  0
   10.4106  -15.3285   22.3697 O   0  0  0  0  0  0  0  0  0  0  0  0
    5.5912  -12.3987   26.6850 C   0  0  0  0  0  0  0  0  0  0  0  0
    5.6152  -12.0949   24.9052 S   0  0  0  0  0  0  0  0  0  0  0  0
    6.8593  -13.0762   24.0723 C   0  0  0  0  0  0  0  0  0  0  0  0
    7.1516  -14.3890   24.7134 C   0  0  0  0  0  0  0  0  0  0  0  0
    8.4590  -15.0157   24.2694 C   0  0  2  0  0  0  0  0  0  0  0  0
    8.2421  -15.6907   22.9719 N   0  0  0  0  0  0  0  0  0  0  0  0
    9.0233  -15.9960   25.1876 C   0  0  0  0  0  0  0  0  0  0  0  0
    9.1726  -17.2244   24.8588 O   0  0  0  0  0  0  0  0  0  0  0  0
   11.0343  -13.3335   29.1892 C   0  0  0  0  0  0  0  0  0  0  0  0
   11.1956  -14.3651   28.0889 C   0  0  0  0  0  0  0  0  0  0  0  0
   10.7663  -15.7353   28.5530 C   0  0  2  0  0  0  0  0  0  0  0  0
   11.8818  -16.5096   29.1793 C   0  0  0  0  0  0  0  0  0  0  0  0
   10.3841  -16.5182   27.2672 C   0  0  2  0  0  0  0  0  0  0  0  0
    9.4661  -15.6822   26.5209 N   0  0  0  0  0  0  0  0  0  0  0  0
    9.8264  -17.8245   27.6537 C   0  0  0  0  0  0  0  0  0  0  0  0
    8.4659  -18.0818   27.6556 O   0  0  0  0  0  0  0  0  0  0  0  0
   10.5965  -18.7487   27.9963 O   0  0  0  0  0  0  0  0  0  0  0  0
  2  1  1  1
  3  2  1  0
  4  2  1  0
  4  5  1  0
  5  6  1  6
  7  8  2  0
  7  5  1  0
 10 11  1  0
 10  9  1  0
 11 12  1  0
 13 12  1  1
 13 14  1  0
 14  7  1  0
 15 16  2  0
 15 13  1  0
 18 19  1  0
 18 17  1  0
 19 21  1  0
 19 20  1  6
 21 22  1  1
 22 15  1  0
 23 21  1  0
 24 23  1  0
 25 23  2  0
M  END
$$$$
