LMI.pdb
     RDKit          3D

 25 24  0  0  1  0  0  0  0  0999 V2000
    9.1936  -14.7522   19.3225 C   0  0  0  0  0  0  0  0  0  0  0  0
    7.8083  -14.1608   19.3326 C   0  0  2  0  0  0  0  0  0  0  0  0
    7.8650  -12.6679   19.1239 C   0  0  0  0  0  0  0  0  0  0  0  0
    7.0380  -14.5531   20.5503 C   0  0  0  0  0  0  0  0  0  0  0  0
    6.9798  -16.0509   20.7528 C   0  0  2  0  0  0  0  0  0  0  0  0
    6.0480  -16.7028   19.8991 N   0  0  0  0  0  0  0  0  0  0  0  0
    6.8105  -16.3049   22.1835 C   0  0  0  0  0  0  0  0  0  0  0  0
    5.7211  -15.9133   22.7080 O   0  0  0  0  0  0  0  0  0  0  0  0
    7.2655  -21.6353   25.7010 C   0  0  0  0  0  0  0  0  0  0  0  0
    6.2306  -21.1457   24.3047 S   0  0  0  0  0  0  0  0  0  0  0  0
    6.2779  -19.3791   24.0195 C   0  0  0  0  0  0  0  0  0  0  0  0
    7.3939  -18.6660   24.7020 C   0  0  0  0  0  0  0  0  0  0  0  0
    7.4168  -17.1708   24.4507 C   0  0  2  0  0  0  0  0  0  0  0  0
    7.7331  -16.9366   23.0255 N   0  0  0  0  0  0  0  0  0  0  0  0
    8.3800  -16.4204   25.2454 C   0  0  0  0  0  0  0  0  0  0  0  0
    9.5815  -16.2268   24.8477 O   0  0  0  0  0  0  0  0  0  0  0  0
    6.9121  -12.0497   27.5827 C   0  0  0  0  0  0  0  0  0  0  0  0
    7.7904  -13.1418   27.0026 C   0  0  0  0  0  0  0  0  0  0  0  0
    8.3690  -14.0163   28.0879 C   0  0  2  0  0  0  0  0  0  0  0  0
    9.4399  -13.3300   28.8742 C   0  0  0  0  0  0  0  0  0  0  0  0
    9.0748  -15.1900   27.3555 C   0  0  2  0  0  0  0  0  0  0  0  0
    8.0768  -15.8294   26.5225 N   0  0  0  0  0  0  0  0  0  0  0  0
    9.6792  -16.0820   28.3586 C   0  0  0  0  0  0  0  0  0  0  0  0
   10.9771  -15.9202   28.8127 O   0  0  0  0  0  0  0  0  0  0  0  0
    9.0088  -17.0273   28.8293 O   0  0  0  0  0  0  0  0  0  0  0  0
  2  1  1  1
  3  2  1  0
  4  2  1  0
  4  5  1  0
  5  6  1  6
  7  8  2  0
  7  5  1  0
 10 11  1  0
 10  9  1  0
 11 12  1  0
 13 12  1  1
 13 14  1  0
 14  7  1  0
 15 16  2  0
 15 13  1  0
 18 19  1  0
 18 17  1  0
 19 21  1  0
 19 20  1  6
 21 22  1  1
 22 15  1  0
 23 21  1  0
 24 23  1  0
 25 23  2  0
M  END
$$$$
