LMI.pdb
     RDKit          3D

 25 24  0  0  1  0  0  0  0  0999 V2000
    6.4230  -13.0411   24.8321 C   0  0  0  0  0  0  0  0  0  0  0  0
    5.8483  -13.7335   26.0402 C   0  0  2  0  0  0  0  0  0  0  0  0
    6.1978  -12.9826   27.3009 C   0  0  0  0  0  0  0  0  0  0  0  0
    6.2268  -15.1770   26.0943 C   0  0  0  0  0  0  0  0  0  0  0  0
    5.8871  -15.9227   24.8229 C   0  0  2  0  0  0  0  0  0  0  0  0
    5.0484  -17.0514   25.0344 N   0  0  0  0  0  0  0  0  0  0  0  0
    7.1366  -16.1890   24.1104 C   0  0  0  0  0  0  0  0  0  0  0  0
    7.6643  -17.3312   24.2902 O   0  0  0  0  0  0  0  0  0  0  0  0
    8.9057  -11.8610   19.8078 C   0  0  0  0  0  0  0  0  0  0  0  0
    8.4885  -13.4935   19.1587 S   0  0  0  0  0  0  0  0  0  0  0  0
    8.2564  -14.6968   20.4637 C   0  0  0  0  0  0  0  0  0  0  0  0
    9.3575  -14.7515   21.4657 C   0  0  0  0  0  0  0  0  0  0  0  0
    9.0885  -15.6866   22.6287 C   0  0  2  0  0  0  0  0  0  0  0  0
    7.8027  -15.3065   23.2521 N   0  0  0  0  0  0  0  0  0  0  0  0
   10.1025  -15.6875   23.6747 C   0  0  0  0  0  0  0  0  0  0  0  0
   11.2643  -15.1813   23.4920 O   0  0  0  0  0  0  0  0  0  0  0  0
   10.6835  -13.4369   28.9401 C   0  0  0  0  0  0  0  0  0  0  0  0
   11.1342  -14.6003   28.0774 C   0  0  0  0  0  0  0  0  0  0  0  0
   10.1682  -14.8517   26.9455 C   0  0  2  0  0  0  0  0  0  0  0  0
    8.8497  -15.3769   27.4163 C   0  0  0  0  0  0  0  0  0  0  0  0
   10.7949  -15.9930   26.0988 C   0  0  2  0  0  0  0  0  0  0  0  0
    9.8967  -16.2376   24.9889 N   0  0  0  0  0  0  0  0  0  0  0  0
   11.0111  -17.1639   26.9644 C   0  0  0  0  0  0  0  0  0  0  0  0
   10.3116  -18.3479   26.8033 O   0  0  0  0  0  0  0  0  0  0  0  0
   11.8550  -17.1043   27.8857 O   0  0  0  0  0  0  0  0  0  0  0  0
  2  1  1  6
  3  2  1  0
  4  2  1  0
  4  5  1  0
  5  6  1  1
  7  8  2  0
  7  5  1  0
 10 11  1  0
 10  9  1  0
 11 12  1  0
 13 12  1  6
 13 14  1  0
 14  7  1  0
 15 16  2  0
 15 13  1  0
 18 19  1  0
 18 17  1  0
 19 21  1  0
 19 20  1  1
 21 22  1  6
 22 15  1  0
 23 21  1  0
 24 23  1  0
 25 23  2  0
M  END
$$$$
