HAS.pdb
     RDKit          3D

 22 22  0  0  1  0  0  0  0  0999 V2000
   10.6569  -14.2218   18.1764 N   0  0  0  0  0  0  0  0  0  0  0  0
    9.3638  -14.1730   18.8008 C   0  0  1  0  0  0  0  0  0  0  0  0
    8.4058  -15.1604   18.2004 C   0  0  0  0  0  0  0  0  0  0  0  0
    8.1554  -14.7849   16.7756 C   0  0  0  0  0  0  0  0  0  0  0  0
    7.8582  -13.5227   16.2977 C   0  0  0  0  0  0  0  0  0  0  0  0
    7.7083  -13.6170   14.9703 N   0  0  0  0  0  0  0  0  0  0  0  0
    7.9035  -14.8977   14.6137 C   0  0  0  0  0  0  0  0  0  0  0  0
    8.1761  -15.6014   15.7266 N   0  0  0  0  0  0  0  0  0  0  0  0
    9.4830  -14.4574   20.2706 C   0  0  0  0  0  0  0  0  0  0  0  0
   10.3832  -15.2048   20.7256 O   0  0  0  0  0  0  0  0  0  0  0  0
    7.7184  -13.3140   23.4321 C   0  0  0  0  0  0  0  0  0  0  0  0
    8.7263  -14.0971   22.6262 C   0  0  2  0  0  0  0  0  0  0  0  0
    8.5835  -13.8942   21.2134 N   0  0  0  0  0  0  0  0  0  0  0  0
    8.7800  -15.5162   23.0069 C   0  0  0  0  0  0  0  0  0  0  0  0
    7.9347  -16.3080   22.5466 O   0  0  0  0  0  0  0  0  0  0  0  0
   12.0791  -17.1063   24.5042 O   0  0  0  0  0  0  0  0  0  0  0  0
   11.1290  -17.9476   23.9091 C   0  0  0  0  0  0  0  0  0  0  0  0
    9.7612  -17.3850   24.2630 C   0  0  2  0  0  0  0  0  0  0  0  0
    9.7703  -15.9888   23.8811 N   0  0  0  0  0  0  0  0  0  0  0  0
    9.5138  -17.4724   25.7156 C   0  0  0  0  0  0  0  0  0  0  0  0
    9.3615  -16.4209   26.3763 O   0  0  0  0  0  0  0  0  0  0  0  0
    9.4428  -18.6828   26.3838 O   0  0  0  0  0  0  0  0  0  0  0  0
  2  1  1  6
  2  9  1  0
  2  3  1  0
  3  4  1  0
  4  5  2  0
  4  8  1  0
  5  6  1  0
  6  7  1  0
  8  7  2  0
  9 10  2  0
  9 13  1  0
 12 11  1  1
 12 14  1  0
 13 12  1  0
 14 15  2  0
 14 19  1  0
 16 17  1  0
 18 20  1  0
 18 17  1  1
 19 18  1  0
 20 22  1  0
 21 20  2  0
M  END
$$$$
