HAS.pdb
     RDKit          3D

 22 22  0  0  1  0  0  0  0  0999 V2000
    9.7123  -13.5865   17.2796 N   0  0  0  0  0  0  0  0  0  0  0  0
   10.0764  -14.5971   18.2337 C   0  0  1  0  0  0  0  0  0  0  0  0
   11.5345  -14.5460   18.5865 C   0  0  0  0  0  0  0  0  0  0  0  0
   12.3263  -15.1044   17.4485 C   0  0  0  0  0  0  0  0  0  0  0  0
   11.8358  -15.8477   16.3918 C   0  0  0  0  0  0  0  0  0  0  0  0
   12.8689  -16.1508   15.5955 N   0  0  0  0  0  0  0  0  0  0  0  0
   13.9819  -15.6179   16.1274 C   0  0  0  0  0  0  0  0  0  0  0  0
   13.6364  -14.9808   17.2601 N   0  0  0  0  0  0  0  0  0  0  0  0
    9.2749  -14.4379   19.4938 C   0  0  0  0  0  0  0  0  0  0  0  0
    9.3295  -13.3883   20.1804 O   0  0  0  0  0  0  0  0  0  0  0  0
    6.4449  -16.2830   21.1690 C   0  0  0  0  0  0  0  0  0  0  0  0
    7.5936  -15.3045   21.1289 C   0  0  2  0  0  0  0  0  0  0  0  0
    8.4188  -15.4667   19.9668 N   0  0  0  0  0  0  0  0  0  0  0  0
    8.3581  -15.2730   22.3845 C   0  0  0  0  0  0  0  0  0  0  0  0
    9.5204  -15.7223   22.4072 O   0  0  0  0  0  0  0  0  0  0  0  0
    6.5309  -14.2776   25.8005 O   0  0  0  0  0  0  0  0  0  0  0  0
    7.8547  -13.8194   25.7522 C   0  0  0  0  0  0  0  0  0  0  0  0
    8.5918  -14.7093   24.7636 C   0  0  2  0  0  0  0  0  0  0  0  0
    7.7952  -14.7439   23.5555 N   0  0  0  0  0  0  0  0  0  0  0  0
    8.7164  -16.0855   25.2828 C   0  0  0  0  0  0  0  0  0  0  0  0
    9.4988  -16.3145   26.2318 O   0  0  0  0  0  0  0  0  0  0  0  0
    7.9953  -17.1441   24.7572 O   0  0  0  0  0  0  0  0  0  0  0  0
  2  1  1  6
  2  9  1  0
  2  3  1  0
  3  4  1  0
  4  5  2  0
  4  8  1  0
  5  6  1  0
  6  7  1  0
  8  7  2  0
  9 10  2  0
  9 13  1  0
 12 11  1  1
 12 14  1  0
 13 12  1  0
 14 15  2  0
 14 19  1  0
 16 17  1  0
 18 20  1  0
 18 17  1  1
 19 18  1  0
 20 22  1  0
 21 20  2  0
M  END
$$$$
