HAS.pdb
     RDKit          3D

 22 22  0  0  1  0  0  0  0  0999 V2000
   10.0213  -15.2305   14.9314 N   0  0  0  0  0  0  0  0  0  0  0  0
    9.2213  -15.8536   15.9492 C   0  0  1  0  0  0  0  0  0  0  0  0
    9.5038  -17.3226   16.0734 C   0  0  0  0  0  0  0  0  0  0  0  0
    9.1491  -17.9929   14.7855 C   0  0  0  0  0  0  0  0  0  0  0  0
    7.8957  -18.0510   14.2064 C   0  0  0  0  0  0  0  0  0  0  0  0
    8.0087  -18.7406   13.0641 N   0  0  0  0  0  0  0  0  0  0  0  0
    9.2925  -19.1101   12.9197 C   0  0  0  0  0  0  0  0  0  0  0  0
    9.9792  -18.6467   13.9788 N   0  0  0  0  0  0  0  0  0  0  0  0
    9.4730  -15.2053   17.2803 C   0  0  0  0  0  0  0  0  0  0  0  0
   10.5715  -15.3286   17.8754 O   0  0  0  0  0  0  0  0  0  0  0  0
    7.5177  -13.0062   19.6803 C   0  0  0  0  0  0  0  0  0  0  0  0
    8.6674  -13.8807   19.2419 C   0  0  2  0  0  0  0  0  0  0  0  0
    8.4805  -14.4232   17.9272 N   0  0  0  0  0  0  0  0  0  0  0  0
    9.0244  -14.8956   20.2440 C   0  0  0  0  0  0  0  0  0  0  0  0
    8.6409  -16.0715   20.0907 O   0  0  0  0  0  0  0  0  0  0  0  0
   12.0037  -16.1763   23.6925 O   0  0  0  0  0  0  0  0  0  0  0  0
   11.6276  -15.2260   22.7333 C   0  0  0  0  0  0  0  0  0  0  0  0
   10.2340  -15.6081   22.2594 C   0  0  2  0  0  0  0  0  0  0  0  0
    9.7906  -14.5564   21.3691 N   0  0  0  0  0  0  0  0  0  0  0  0
    9.2939  -15.6891   23.3946 C   0  0  0  0  0  0  0  0  0  0  0  0
    8.4796  -14.7584   23.5843 O   0  0  0  0  0  0  0  0  0  0  0  0
    9.2762  -16.7640   24.2669 O   0  0  0  0  0  0  0  0  0  0  0  0
  2  1  1  6
  2  9  1  0
  2  3  1  0
  3  4  1  0
  4  5  2  0
  4  8  1  0
  5  6  1  0
  6  7  1  0
  8  7  2  0
  9 10  2  0
  9 13  1  0
 12 11  1  1
 12 14  1  0
 13 12  1  0
 14 15  2  0
 14 19  1  0
 16 17  1  0
 18 20  1  0
 18 17  1  1
 19 18  1  0
 20 22  1  0
 21 20  2  0
M  END
$$$$
