HAS.pdb
     RDKit          3D

 22 22  0  0  1  0  0  0  0  0999 V2000
    7.3732  -19.6523   14.1183 N   0  0  0  0  0  0  0  0  0  0  0  0
    7.2982  -18.5581   15.0464 C   0  0  1  0  0  0  0  0  0  0  0  0
    5.9539  -17.8904   15.0295 C   0  0  0  0  0  0  0  0  0  0  0  0
    5.7557  -17.2379   13.6995 C   0  0  0  0  0  0  0  0  0  0  0  0
    6.6206  -17.2859   12.6228 C   0  0  0  0  0  0  0  0  0  0  0  0
    6.0719  -16.5739   11.6303 N   0  0  0  0  0  0  0  0  0  0  0  0
    4.8954  -16.0877   12.0604 C   0  0  0  0  0  0  0  0  0  0  0  0
    4.7139  -16.5009   13.3270 N   0  0  0  0  0  0  0  0  0  0  0  0
    7.5748  -19.0380   16.4423 C   0  0  0  0  0  0  0  0  0  0  0  0
    7.5259  -18.2612   17.4273 O   0  0  0  0  0  0  0  0  0  0  0  0
    7.7040  -22.3447   18.1806 C   0  0  0  0  0  0  0  0  0  0  0  0
    8.0770  -20.8880   18.0475 C   0  0  2  0  0  0  0  0  0  0  0  0
    7.9045  -20.3921   16.7126 N   0  0  0  0  0  0  0  0  0  0  0  0
    9.4000  -20.5856   18.6132 C   0  0  0  0  0  0  0  0  0  0  0  0
   10.3445  -20.3044   17.8502 O   0  0  0  0  0  0  0  0  0  0  0  0
   12.0409  -19.1280   22.1980 O   0  0  0  0  0  0  0  0  0  0  0  0
   10.7562  -19.4643   21.7493 C   0  0  0  0  0  0  0  0  0  0  0  0
   10.9358  -20.3314   20.5130 C   0  0  2  0  0  0  0  0  0  0  0  0
    9.6113  -20.6100   19.9999 N   0  0  0  0  0  0  0  0  0  0  0  0
   11.5849  -21.6121   20.8560 C   0  0  0  0  0  0  0  0  0  0  0  0
   12.7983  -21.6227   21.1603 O   0  0  0  0  0  0  0  0  0  0  0  0
   10.8986  -22.8145   20.8545 O   0  0  0  0  0  0  0  0  0  0  0  0
  2  1  1  6
  2  9  1  0
  2  3  1  0
  3  4  1  0
  4  5  2  0
  4  8  1  0
  5  6  1  0
  6  7  1  0
  8  7  2  0
  9 10  2  0
  9 13  1  0
 12 11  1  6
 12 14  1  0
 13 12  1  0
 14 15  2  0
 14 19  1  0
 16 17  1  0
 18 20  1  0
 18 17  1  1
 19 18  1  0
 20 22  1  0
 21 20  2  0
M  END
$$$$
