HAS.pdb
     RDKit          3D

 22 22  0  0  1  0  0  0  0  0999 V2000
    8.8887  -17.3783   15.5765 N   0  0  0  0  0  0  0  0  0  0  0  0
    9.7628  -16.4159   16.1879 C   0  0  1  0  0  0  0  0  0  0  0  0
    9.0364  -15.1666   16.5941 C   0  0  0  0  0  0  0  0  0  0  0  0
    8.5630  -14.4619   15.3640 C   0  0  0  0  0  0  0  0  0  0  0  0
    8.7166  -14.8914   14.0595 C   0  0  0  0  0  0  0  0  0  0  0  0
    8.1534  -13.9747   13.2622 N   0  0  0  0  0  0  0  0  0  0  0  0
    7.6569  -12.9927   14.0334 C   0  0  0  0  0  0  0  0  0  0  0  0
    7.9139  -13.3027   15.3164 N   0  0  0  0  0  0  0  0  0  0  0  0
   10.4169  -17.0043   17.4050 C   0  0  0  0  0  0  0  0  0  0  0  0
    9.7472  -17.5688   18.3044 O   0  0  0  0  0  0  0  0  0  0  0  0
   13.9115  -17.9143   18.4399 C   0  0  0  0  0  0  0  0  0  0  0  0
   12.4698  -17.5637   18.7181 C   0  0  2  0  0  0  0  0  0  0  0  0
   11.8227  -16.9495   17.5948 N   0  0  0  0  0  0  0  0  0  0  0  0
   12.2986  -16.8117   19.9699 C   0  0  0  0  0  0  0  0  0  0  0  0
   12.4508  -15.5747   19.9690 O   0  0  0  0  0  0  0  0  0  0  0  0
   10.3347  -18.3956   23.0223 O   0  0  0  0  0  0  0  0  0  0  0  0
   10.4288  -17.0006   22.9243 C   0  0  0  0  0  0  0  0  0  0  0  0
   11.8125  -16.6912   22.3744 C   0  0  2  0  0  0  0  0  0  0  0  0
   11.9664  -17.4695   21.1636 N   0  0  0  0  0  0  0  0  0  0  0  0
   12.8629  -17.0964   23.3291 C   0  0  0  0  0  0  0  0  0  0  0  0
   13.5790  -18.0887   23.0686 O   0  0  0  0  0  0  0  0  0  0  0  0
   13.0905  -16.4161   24.5132 O   0  0  0  0  0  0  0  0  0  0  0  0
  2  1  1  1
  2  9  1  0
  2  3  1  0
  3  4  1  0
  4  5  2  0
  4  8  1  0
  5  6  1  0
  6  7  1  0
  8  7  2  0
  9 10  2  0
  9 13  1  0
 12 11  1  6
 12 14  1  0
 13 12  1  0
 14 15  2  0
 14 19  1  0
 16 17  1  0
 18 20  1  0
 18 17  1  1
 19 18  1  0
 20 22  1  0
 21 20  2  0
M  END
$$$$
