HAS.pdb
     RDKit          3D

 22 22  0  0  1  0  0  0  0  0999 V2000
    8.6061  -16.0653   16.5454 N   0  0  0  0  0  0  0  0  0  0  0  0
    9.8874  -16.1225   17.1930 C   0  0  1  0  0  0  0  0  0  0  0  0
   10.9767  -15.5256   16.3501 C   0  0  0  0  0  0  0  0  0  0  0  0
   10.9283  -16.1437   14.9902 C   0  0  0  0  0  0  0  0  0  0  0  0
   11.1604  -17.4705   14.6810 C   0  0  0  0  0  0  0  0  0  0  0  0
   11.0183  -17.6088   13.3567 N   0  0  0  0  0  0  0  0  0  0  0  0
   10.7058  -16.4090   12.8385 C   0  0  0  0  0  0  0  0  0  0  0  0
   10.6538  -15.5220   13.8477 N   0  0  0  0  0  0  0  0  0  0  0  0
    9.8428  -15.3903   18.5034 C   0  0  0  0  0  0  0  0  0  0  0  0
   10.8511  -15.3095   19.2470 O   0  0  0  0  0  0  0  0  0  0  0  0
    7.3517  -13.2878   20.4267 C   0  0  0  0  0  0  0  0  0  0  0  0
    8.5485  -14.1958   20.2780 C   0  0  2  0  0  0  0  0  0  0  0  0
    8.6587  -14.7556   18.9619 N   0  0  0  0  0  0  0  0  0  0  0  0
    8.6353  -15.2019   21.3466 C   0  0  0  0  0  0  0  0  0  0  0  0
    7.7880  -16.1143   21.4014 O   0  0  0  0  0  0  0  0  0  0  0  0
   11.9738  -16.4775   22.7238 O   0  0  0  0  0  0  0  0  0  0  0  0
   10.7696  -17.1807   22.8658 C   0  0  0  0  0  0  0  0  0  0  0  0
    9.7245  -16.1744   23.3216 C   0  0  2  0  0  0  0  0  0  0  0  0
    9.6594  -15.1471   22.3039 N   0  0  0  0  0  0  0  0  0  0  0  0
   10.1178  -15.5458   24.5980 C   0  0  0  0  0  0  0  0  0  0  0  0
   10.2595  -16.2600   25.6154 O   0  0  0  0  0  0  0  0  0  0  0  0
   10.3386  -14.1842   24.7166 O   0  0  0  0  0  0  0  0  0  0  0  0
  2  1  1  6
  2  9  1  0
  2  3  1  0
  3  4  1  0
  4  5  2  0
  4  8  1  0
  5  6  1  0
  6  7  1  0
  8  7  2  0
  9 10  2  0
  9 13  1  0
 12 11  1  6
 12 14  1  0
 13 12  1  0
 14 15  2  0
 14 19  1  0
 16 17  1  0
 18 20  1  0
 18 17  1  6
 19 18  1  0
 20 22  1  0
 21 20  2  0
M  END
$$$$
