HAS.pdb
     RDKit          3D

 22 22  0  0  1  0  0  0  0  0999 V2000
    9.1118  -15.0703   14.0404 N   0  0  0  0  0  0  0  0  0  0  0  0
    8.5533  -15.6018   15.2527 C   0  0  1  0  0  0  0  0  0  0  0  0
    8.7670  -17.0825   15.3749 C   0  0  0  0  0  0  0  0  0  0  0  0
    7.9258  -17.7775   14.3536 C   0  0  0  0  0  0  0  0  0  0  0  0
    6.7216  -18.4175   14.5774 C   0  0  0  0  0  0  0  0  0  0  0  0
    6.2982  -18.9060   13.4046 N   0  0  0  0  0  0  0  0  0  0  0  0
    7.2031  -18.5876   12.4638 C   0  0  0  0  0  0  0  0  0  0  0  0
    8.1933  -17.8977   13.0570 N   0  0  0  0  0  0  0  0  0  0  0  0
    9.1674  -14.9311   16.4480 C   0  0  0  0  0  0  0  0  0  0  0  0
   10.4085  -14.9304   16.6371 O   0  0  0  0  0  0  0  0  0  0  0  0
    7.9172  -12.9134   19.4111 C   0  0  0  0  0  0  0  0  0  0  0  0
    8.9393  -13.6615   18.5898 C   0  0  2  0  0  0  0  0  0  0  0  0
    8.3731  -14.2669   17.4191 N   0  0  0  0  0  0  0  0  0  0  0  0
    9.7441  -14.5927   19.3940 C   0  0  0  0  0  0  0  0  0  0  0  0
    9.4441  -15.8022   19.4166 O   0  0  0  0  0  0  0  0  0  0  0  0
   13.5704  -14.1158   19.9231 O   0  0  0  0  0  0  0  0  0  0  0  0
   12.9795  -14.4182   21.1576 C   0  0  0  0  0  0  0  0  0  0  0  0
   11.6529  -15.0973   20.8550 C   0  0  2  0  0  0  0  0  0  0  0  0
   10.8442  -14.1364   20.1353 N   0  0  0  0  0  0  0  0  0  0  0  0
   10.9501  -15.4623   22.1007 C   0  0  0  0  0  0  0  0  0  0  0  0
   11.4538  -16.3191   22.8606 O   0  0  0  0  0  0  0  0  0  0  0  0
    9.7440  -14.8894   22.4664 O   0  0  0  0  0  0  0  0  0  0  0  0
  2  1  1  6
  2  9  1  0
  2  3  1  0
  3  4  1  0
  4  5  2  0
  4  8  1  0
  5  6  1  0
  6  7  1  0
  8  7  2  0
  9 10  2  0
  9 13  1  0
 12 11  1  1
 12 14  1  0
 13 12  1  0
 14 15  2  0
 14 19  1  0
 16 17  1  0
 18 20  1  0
 18 17  1  1
 19 18  1  0
 20 22  1  0
 21 20  2  0
M  END
$$$$
