HAS.pdb
     RDKit          3D

 22 22  0  0  1  0  0  0  0  0999 V2000
   14.0917  -13.5889   16.3047 N   0  0  0  0  0  0  0  0  0  0  0  0
   14.0668  -14.8296   17.0287 C   0  0  1  0  0  0  0  0  0  0  0  0
   15.2705  -15.6791   16.7411 C   0  0  0  0  0  0  0  0  0  0  0  0
   15.2193  -16.1216   15.3145 C   0  0  0  0  0  0  0  0  0  0  0  0
   14.4084  -17.1093   14.7883 C   0  0  0  0  0  0  0  0  0  0  0  0
   14.6709  -17.1936   13.4779 N   0  0  0  0  0  0  0  0  0  0  0  0
   15.6184  -16.2890   13.1785 C   0  0  0  0  0  0  0  0  0  0  0  0
   15.9450  -15.6403   14.3101 N   0  0  0  0  0  0  0  0  0  0  0  0
   14.0084  -14.5700   18.5068 C   0  0  0  0  0  0  0  0  0  0  0  0
   14.8890  -13.8928   19.0915 O   0  0  0  0  0  0  0  0  0  0  0  0
   11.6523  -15.3970   21.3628 C   0  0  0  0  0  0  0  0  0  0  0  0
   12.9591  -14.9674   20.7412 C   0  0  2  0  0  0  0  0  0  0  0  0
   12.9548  -15.0783   19.3110 N   0  0  0  0  0  0  0  0  0  0  0  0
   14.1250  -15.6052   21.3700 C   0  0  0  0  0  0  0  0  0  0  0  0
   14.5809  -16.6611   20.8897 O   0  0  0  0  0  0  0  0  0  0  0  0
   18.1306  -15.1393   23.6681 O   0  0  0  0  0  0  0  0  0  0  0  0
   16.9539  -14.5391   23.1993 C   0  0  0  0  0  0  0  0  0  0  0  0
   15.9287  -15.6504   23.0365 C   0  0  2  0  0  0  0  0  0  0  0  0
   14.7296  -15.0401   22.5027 N   0  0  0  0  0  0  0  0  0  0  0  0
   15.6030  -16.2634   24.3392 C   0  0  0  0  0  0  0  0  0  0  0  0
   14.5335  -15.9566   24.9113 O   0  0  0  0  0  0  0  0  0  0  0  0
   16.4413  -17.1735   24.9603 O   0  0  0  0  0  0  0  0  0  0  0  0
  2  1  1  6
  2  9  1  0
  2  3  1  0
  3  4  1  0
  4  5  2  0
  4  8  1  0
  5  6  1  0
  6  7  1  0
  8  7  2  0
  9 10  2  0
  9 13  1  0
 12 11  1  1
 12 14  1  0
 13 12  1  0
 14 15  2  0
 14 19  1  0
 16 17  1  0
 18 20  1  0
 18 17  1  1
 19 18  1  0
 20 22  1  0
 21 20  2  0
M  END
$$$$
