RSL.pdb
     RDKit          3D

 26 25  0  0  1  0  0  0  0  0999 V2000
   12.4173  -16.3002   17.9767 N   0  0  0  0  0  0  0  0  0  0  0  0
   13.4019  -15.2774   18.0347 C   0  0  0  0  0  0  0  0  0  0  0  0
   14.3257  -15.2488   17.1206 N   0  0  0  0  0  0  0  0  0  0  0  0
   13.4431  -14.2738   19.0368 N   0  0  0  0  0  0  0  0  0  0  0  0
   12.6341  -14.3792   20.2322 C   0  0  0  0  0  0  0  0  0  0  0  0
   11.2215  -13.9392   19.9164 C   0  0  0  0  0  0  0  0  0  0  0  0
   10.3710  -15.0775   19.4366 C   0  0  0  0  0  0  0  0  0  0  0  0
    8.9586  -14.5291   19.2193 C   0  0  2  0  0  0  0  0  0  0  0  0
    9.0455  -13.1909   18.7199 N   0  0  0  0  0  0  0  0  0  0  0  0
    8.2472  -14.6520   20.5132 C   0  0  0  0  0  0  0  0  0  0  0  0
    7.9513  -13.5830   21.1034 O   0  0  0  0  0  0  0  0  0  0  0  0
   15.0483  -14.5214   17.0438 O   0  0  0  0  0  0  0  0  0  0  0  0
    7.5434  -18.2260   22.3143 C   0  0  0  0  0  0  0  0  0  0  0  0
    6.4810  -17.3173   22.4396 C   0  0  1  0  0  0  0  0  0  0  0  0
    7.0848  -15.9365   22.2630 N   0  0  0  0  0  0  0  0  0  0  0  0
    7.9134  -15.9011   21.0652 C   0  0  0  0  0  0  0  0  0  0  0  0
    7.9049  -15.5675   23.4567 O   0  0  0  0  0  0  0  0  0  0  0  0
    9.1622  -15.6955   23.4460 C   0  0  0  0  0  0  0  0  0  0  0  0
    7.8333  -11.5557   25.3228 C   0  0  2  0  0  0  0  0  0  0  0  0
    6.8152  -12.4706   25.9319 C   0  0  0  0  0  0  0  0  0  0  0  0
    5.7939  -11.7254   26.7429 C   0  0  0  0  0  0  0  0  0  0  0  0
    7.3022  -13.6967   26.5448 C   0  0  2  0  0  0  0  0  0  0  0  0
    8.1144  -14.6838   25.8239 N   0  0  0  0  0  0  0  0  0  0  0  0
    7.3029  -15.0624   24.6381 C   0  0  0  0  0  0  0  0  0  0  0  0
    8.4286  -15.9507   26.5000 O   0  0  0  0  0  0  0  0  0  0  0  0
    9.3539  -15.9950   27.3398 O   0  0  0  0  0  0  0  0  0  0  0  0
  1  2  1  0
  2  3  2  0
  4  2  1  0
  5  4  1  0
  6  5  1  0
  7  8  1  0
  7  6  1  0
  8  9  1  1
 10 15  1  0
 10  8  1  0
 11 10  2  0
 14 13  1  6
 13 12  1  0
 14 15  1  0
 16 17  2  0
 16 14  1  0
 19 18  1  6
 19 21  1  0
 20 19  1  0
 22 21  1  6
 22 23  1  0
 23 16  1  0
 24 22  1  0
 25 24  2  0
 26 24  1  0
M  END
$$$$
