RSL.pdb
     RDKit          3D

 26 25  0  0  1  0  0  0  0  0999 V2000
    9.4722  -14.1947   15.1268 N   0  0  0  0  0  0  0  0  0  0  0  0
    8.1774  -13.6512   15.3434 C   0  0  0  0  0  0  0  0  0  0  0  0
    7.3633  -13.5587   14.3342 N   0  0  0  0  0  0  0  0  0  0  0  0
    7.7096  -13.1977   16.6038 N   0  0  0  0  0  0  0  0  0  0  0  0
    8.5206  -13.3359   17.7946 C   0  0  0  0  0  0  0  0  0  0  0  0
    8.7226  -14.8057   18.0901 C   0  0  0  0  0  0  0  0  0  0  0  0
    9.5068  -15.0243   19.3497 C   0  0  0  0  0  0  0  0  0  0  0  0
    9.5218  -16.5309   19.6197 C   0  0  2  0  0  0  0  0  0  0  0  0
    8.7840  -17.2001   18.5923 N   0  0  0  0  0  0  0  0  0  0  0  0
    8.9811  -16.7272   20.9851 C   0  0  0  0  0  0  0  0  0  0  0  0
    7.7428  -16.5747   21.1339 O   0  0  0  0  0  0  0  0  0  0  0  0
    6.4535  -13.0804   14.3603 O   0  0  0  0  0  0  0  0  0  0  0  0
   11.1734  -18.0186   24.3570 C   0  0  0  0  0  0  0  0  0  0  0  0
    9.8530  -18.4199   24.1011 C   0  0  1  0  0  0  0  0  0  0  0  0
    9.1927  -17.2597   23.3798 N   0  0  0  0  0  0  0  0  0  0  0  0
    9.8051  -17.0685   22.0718 C   0  0  0  0  0  0  0  0  0  0  0  0
    9.3149  -16.0059   24.1840 O   0  0  0  0  0  0  0  0  0  0  0  0
   10.2469  -15.1812   23.9641 C   0  0  0  0  0  0  0  0  0  0  0  0
    5.5478  -12.1668   26.8612 C   0  0  1  0  0  0  0  0  0  0  0  0
    6.9842  -12.5750   26.7381 C   0  0  0  0  0  0  0  0  0  0  0  0
    7.8798  -11.4136   26.4141 C   0  0  0  0  0  0  0  0  0  0  0  0
    7.2704  -13.7908   25.9924 C   0  0  2  0  0  0  0  0  0  0  0  0
    8.5552  -14.4955   26.0735 N   0  0  0  0  0  0  0  0  0  0  0  0
    8.3923  -15.6991   25.2174 C   0  0  0  0  0  0  0  0  0  0  0  0
    8.9853  -15.0058   27.3832 O   0  0  0  0  0  0  0  0  0  0  0  0
    8.6157  -16.1389   27.7614 O   0  0  0  0  0  0  0  0  0  0  0  0
  1  2  1  0
  2  3  2  0
  4  2  1  0
  5  4  1  0
  6  5  1  0
  7  8  1  0
  7  6  1  0
  8  9  1  6
 10 15  1  0
 10  8  1  0
 11 10  2  0
 14 13  1  6
 13 12  1  0
 14 15  1  0
 16 17  2  0
 16 14  1  0
 19 18  1  1
 19 21  1  0
 20 19  1  0
 22 21  1  6
 22 23  1  0
 23 16  1  0
 24 22  1  0
 25 24  2  0
 26 24  1  0
M  END
$$$$
