RSL.pdb
     RDKit          3D

 26 25  0  0  1  0  0  0  0  0999 V2000
   10.3770  -19.7622   22.9743 N   0  0  0  0  0  0  0  0  0  0  0  0
   10.4293  -19.9048   21.5616 C   0  0  0  0  0  0  0  0  0  0  0  0
    9.3330  -20.1865   20.9225 N   0  0  0  0  0  0  0  0  0  0  0  0
   11.6136  -19.7582   20.7941 N   0  0  0  0  0  0  0  0  0  0  0  0
   12.4367  -18.5735   20.9111 C   0  0  0  0  0  0  0  0  0  0  0  0
   11.8726  -17.4870   20.0223 C   0  0  0  0  0  0  0  0  0  0  0  0
   12.6787  -16.2245   20.0952 C   0  0  0  0  0  0  0  0  0  0  0  0
   12.0215  -15.2109   19.1553 C   0  0  2  0  0  0  0  0  0  0  0  0
   13.0393  -14.4376   18.5120 N   0  0  0  0  0  0  0  0  0  0  0  0
   11.0778  -14.4152   19.9749 C   0  0  0  0  0  0  0  0  0  0  0  0
   11.5703  -13.5023   20.6840 O   0  0  0  0  0  0  0  0  0  0  0  0
    9.2657  -20.3059   19.9035 O   0  0  0  0  0  0  0  0  0  0  0  0
    7.0083  -15.0800   20.0561 C   0  0  0  0  0  0  0  0  0  0  0  0
    7.4367  -13.7434   20.0741 C   0  0  1  0  0  0  0  0  0  0  0  0
    8.8194  -13.7529   20.6987 N   0  0  0  0  0  0  0  0  0  0  0  0
    9.6936  -14.6608   19.9680 C   0  0  0  0  0  0  0  0  0  0  0  0
    8.7431  -14.1682   22.1324 O   0  0  0  0  0  0  0  0  0  0  0  0
    9.3320  -15.2098   22.5393 C   0  0  0  0  0  0  0  0  0  0  0  0
    5.4211  -12.1580   26.9581 C   0  0  1  0  0  0  0  0  0  0  0  0
    6.6423  -12.9177   26.5382 C   0  0  0  0  0  0  0  0  0  0  0  0
    7.7844  -12.7329   27.4960 C   0  0  0  0  0  0  0  0  0  0  0  0
    7.0119  -12.8619   25.1323 C   0  0  2  0  0  0  0  0  0  0  0  0
    7.9460  -13.8090   24.5123 N   0  0  0  0  0  0  0  0  0  0  0  0
    8.0104  -13.4105   23.0822 C   0  0  0  0  0  0  0  0  0  0  0  0
    7.5850  -15.2339   24.5026 O   0  0  0  0  0  0  0  0  0  0  0  0
    8.2649  -16.0525   25.1592 O   0  0  0  0  0  0  0  0  0  0  0  0
  1  2  1  0
  2  3  2  0
  4  2  1  0
  5  4  1  0
  6  5  1  0
  7  8  1  0
  7  6  1  0
  8  9  1  1
 10 15  1  0
 10  8  1  0
 11 10  2  0
 14 13  1  6
 13 12  1  0
 14 15  1  0
 16 17  2  0
 16 14  1  0
 19 18  1  1
 19 21  1  0
 20 19  1  0
 22 21  1  1
 22 23  1  0
 23 16  1  0
 24 22  1  0
 25 24  2  0
 26 24  1  0
M  END
$$$$
