RSL.pdb
     RDKit          3D

 26 25  0  0  1  0  0  0  0  0999 V2000
    8.4979  -13.5898   15.9262 N   0  0  0  0  0  0  0  0  0  0  0  0
    8.9503  -14.9231   16.1165 C   0  0  0  0  0  0  0  0  0  0  0  0
   10.1664  -15.2243   15.7698 N   0  0  0  0  0  0  0  0  0  0  0  0
    8.1524  -15.9593   16.6667 N   0  0  0  0  0  0  0  0  0  0  0  0
    8.6809  -17.2953   16.8416 C   0  0  0  0  0  0  0  0  0  0  0  0
    8.8683  -17.5658   18.3182 C   0  0  0  0  0  0  0  0  0  0  0  0
   10.0679  -16.8570   18.8729 C   0  0  0  0  0  0  0  0  0  0  0  0
   10.0943  -17.1204   20.3805 C   0  0  2  0  0  0  0  0  0  0  0  0
    9.1506  -18.1492   20.6947 N   0  0  0  0  0  0  0  0  0  0  0  0
    9.8274  -15.8241   21.0469 C   0  0  0  0  0  0  0  0  0  0  0  0
   10.8181  -15.0833   21.2672 O   0  0  0  0  0  0  0  0  0  0  0  0
   10.5534  -16.1769   15.7665 O   0  0  0  0  0  0  0  0  0  0  0  0
    6.0780  -14.6387   22.1960 C   0  0  0  0  0  0  0  0  0  0  0  0
    6.9025  -13.6321   21.6696 C   0  0  1  0  0  0  0  0  0  0  0  0
    8.3294  -14.0792   21.9267 N   0  0  0  0  0  0  0  0  0  0  0  0
    8.5306  -15.4303   21.4201 C   0  0  0  0  0  0  0  0  0  0  0  0
    8.6358  -14.0361   23.3889 O   0  0  0  0  0  0  0  0  0  0  0  0
    8.7425  -12.9341   23.9982 C   0  0  0  0  0  0  0  0  0  0  0  0
    8.2762  -12.4717   27.0271 C   0  0  2  0  0  0  0  0  0  0  0  0
    7.3167  -13.3469   26.2799 C   0  0  0  0  0  0  0  0  0  0  0  0
    5.8904  -13.0980   26.6796 C   0  0  0  0  0  0  0  0  0  0  0  0
    7.6710  -14.7499   26.1309 C   0  0  2  0  0  0  0  0  0  0  0  0
    8.9713  -15.1968   25.6180 N   0  0  0  0  0  0  0  0  0  0  0  0
    8.8163  -15.2260   24.1404 C   0  0  0  0  0  0  0  0  0  0  0  0
    9.4377  -16.5413   25.9862 O   0  0  0  0  0  0  0  0  0  0  0  0
    9.2575  -17.4987   25.2023 O   0  0  0  0  0  0  0  0  0  0  0  0
  1  2  1  0
  2  3  2  0
  4  2  1  0
  5  4  1  0
  6  5  1  0
  7  8  1  0
  7  6  1  0
  8  9  1  6
 10 15  1  0
 10  8  1  0
 11 10  2  0
 14 13  1  6
 13 12  1  0
 14 15  1  0
 16 17  2  0
 16 14  1  0
 19 18  1  6
 19 21  1  0
 20 19  1  0
 22 21  1  6
 22 23  1  0
 23 16  1  0
 24 22  1  0
 25 24  2  0
 26 24  1  0
M  END
$$$$
