RSL.pdb
     RDKit          3D

 26 25  0  0  1  0  0  0  0  0999 V2000
   15.2229  -14.3116   18.5960 N   0  0  0  0  0  0  0  0  0  0  0  0
   13.9870  -14.8895   18.9928 C   0  0  0  0  0  0  0  0  0  0  0  0
   13.8774  -16.1848   18.9973 N   0  0  0  0  0  0  0  0  0  0  0  0
   12.8516  -14.1366   19.3891 N   0  0  0  0  0  0  0  0  0  0  0  0
   11.6644  -14.0858   18.5628 C   0  0  0  0  0  0  0  0  0  0  0  0
   10.9063  -15.3875   18.7021 C   0  0  0  0  0  0  0  0  0  0  0  0
   10.3087  -15.5479   20.0682 C   0  0  0  0  0  0  0  0  0  0  0  0
    9.5643  -16.8852   20.0843 C   0  0  2  0  0  0  0  0  0  0  0  0
    8.7374  -16.9771   18.9201 N   0  0  0  0  0  0  0  0  0  0  0  0
    8.8225  -16.9476   21.3654 C   0  0  0  0  0  0  0  0  0  0  0  0
    7.6564  -16.4796   21.3709 O   0  0  0  0  0  0  0  0  0  0  0  0
   13.0355  -16.6983   19.2880 O   0  0  0  0  0  0  0  0  0  0  0  0
   10.1607  -18.9938   24.6327 C   0  0  0  0  0  0  0  0  0  0  0  0
    8.7772  -18.7948   24.5037 C   0  0  1  0  0  0  0  0  0  0  0  0
    8.6081  -17.4836   23.7591 N   0  0  0  0  0  0  0  0  0  0  0  0
    9.3863  -17.5022   22.5276 C   0  0  0  0  0  0  0  0  0  0  0  0
    9.0410  -16.3368   24.6141 O   0  0  0  0  0  0  0  0  0  0  0  0
   10.2042  -15.8533   24.5124 C   0  0  0  0  0  0  0  0  0  0  0  0
    5.9580  -11.8093   26.8092 C   0  0  1  0  0  0  0  0  0  0  0  0
    7.2373  -12.4781   26.4081 C   0  0  0  0  0  0  0  0  0  0  0  0
    7.6492  -12.1244   25.0076 C   0  0  0  0  0  0  0  0  0  0  0  0
    7.3913  -13.8834   26.7511 C   0  0  2  0  0  0  0  0  0  0  0  0
    8.6075  -14.6503   26.4570 N   0  0  0  0  0  0  0  0  0  0  0  0
    8.1646  -15.7532   25.5651 C   0  0  0  0  0  0  0  0  0  0  0  0
    9.3000  -15.3085   27.5741 O   0  0  0  0  0  0  0  0  0  0  0  0
    9.0269  -16.4939   27.8636 O   0  0  0  0  0  0  0  0  0  0  0  0
  1  2  1  0
  2  3  2  0
  4  2  1  0
  5  4  1  0
  6  5  1  0
  7  8  1  0
  7  6  1  0
  8  9  1  6
 10 15  1  0
 10  8  1  0
 11 10  2  0
 14 13  1  6
 13 12  1  0
 14 15  1  0
 16 17  2  0
 16 14  1  0
 19 18  1  1
 19 21  1  0
 20 19  1  0
 22 21  1  6
 22 23  1  0
 23 16  1  0
 24 22  1  0
 25 24  2  0
 26 24  1  0
M  END
$$$$
