RSL.pdb
     RDKit          3D

 26 25  0  0  1  0  0  0  0  0999 V2000
   10.1232  -13.4138   19.5858 N   0  0  0  0  0  0  0  0  0  0  0  0
    8.9968  -12.5493   19.5328 C   0  0  0  0  0  0  0  0  0  0  0  0
    9.1957  -11.2761   19.3622 N   0  0  0  0  0  0  0  0  0  0  0  0
    7.6538  -12.9901   19.6551 N   0  0  0  0  0  0  0  0  0  0  0  0
    7.1534  -13.5204   20.9054 C   0  0  0  0  0  0  0  0  0  0  0  0
    7.5651  -14.9707   21.0299 C   0  0  0  0  0  0  0  0  0  0  0  0
    6.3810  -15.8881   21.1040 C   0  0  0  0  0  0  0  0  0  0  0  0
    6.9190  -17.3133   21.2527 C   0  0  2  0  0  0  0  0  0  0  0  0
    5.8323  -18.2389   21.1530 N   0  0  0  0  0  0  0  0  0  0  0  0
    7.6471  -17.3644   22.5422 C   0  0  0  0  0  0  0  0  0  0  0  0
    6.9636  -17.2244   23.5872 O   0  0  0  0  0  0  0  0  0  0  0  0
    8.4490  -10.5721   19.2989 O   0  0  0  0  0  0  0  0  0  0  0  0
   11.7433  -17.0816   23.0725 C   0  0  0  0  0  0  0  0  0  0  0  0
   11.1120  -18.1348   23.7524 C   0  0  1  0  0  0  0  0  0  0  0  0
    9.6608  -17.7222   23.9133 N   0  0  0  0  0  0  0  0  0  0  0  0
    9.0377  -17.5600   22.6064 C   0  0  0  0  0  0  0  0  0  0  0  0
    9.5622  -16.4449   24.6829 O   0  0  0  0  0  0  0  0  0  0  0  0
    9.2735  -15.3587   24.1050 C   0  0  0  0  0  0  0  0  0  0  0  0
    8.7915  -12.2371   26.6699 C   0  0  2  0  0  0  0  0  0  0  0  0
    7.9163  -13.3869   26.2738 C   0  0  0  0  0  0  0  0  0  0  0  0
    6.4564  -13.0709   26.4311 C   0  0  0  0  0  0  0  0  0  0  0  0
    8.3054  -14.7109   26.7343 C   0  0  2  0  0  0  0  0  0  0  0  0
    9.7045  -15.1383   26.8511 N   0  0  0  0  0  0  0  0  0  0  0  0
    9.7878  -16.4077   26.0832 C   0  0  0  0  0  0  0  0  0  0  0  0
   10.2227  -15.4589   28.1888 O   0  0  0  0  0  0  0  0  0  0  0  0
   10.1361  -16.6271   28.6261 O   0  0  0  0  0  0  0  0  0  0  0  0
  1  2  1  0
  2  3  2  0
  4  2  1  0
  5  4  1  0
  6  5  1  0
  7  8  1  0
  7  6  1  0
  8  9  1  1
 10 15  1  0
 10  8  1  0
 11 10  2  0
 14 13  1  1
 13 12  1  0
 14 15  1  0
 16 17  2  0
 16 14  1  0
 19 18  1  6
 19 21  1  0
 20 19  1  0
 22 21  1  6
 22 23  1  0
 23 16  1  0
 24 22  1  0
 25 24  2  0
 26 24  1  0
M  END
$$$$
