PSY.pdb
     RDKit          3D

 26 27  0  0  1  0  0  0  0  0999 V2000
   26.5293  -18.1167  -15.3115 N   0  0  0  0  0  0  0  0  0  0  0  0
   27.7886  -17.6711  -15.9436 C   0  0  0  0  0  0  0  0  0  0  0  0
   28.5099  -19.0261  -15.9544 C   0  0  0  0  0  0  0  0  0  0  0  0
   27.4476  -19.9086  -16.5580 C   0  0  0  0  0  0  0  0  0  0  0  0
   26.1684  -19.3017  -16.0284 C   0  0  1  0  0  0  0  0  0  0  0  0
   25.4532  -20.3228  -15.2333 C   0  0  0  0  0  0  0  0  0  0  0  0
   24.7724  -21.2409  -15.8149 O   0  0  0  0  0  0  0  0  0  0  0  0
   25.3922  -20.4483  -11.0158 O   0  0  0  0  0  0  0  0  0  0  0  0
   25.3963  -21.6035  -11.7866 C   0  0  0  0  0  0  0  0  0  0  0  0
   24.7023  -21.3470  -13.1126 C   0  0  2  0  0  0  0  0  0  0  0  0
   25.4753  -20.3479  -13.8144 N   0  0  0  0  0  0  0  0  0  0  0  0
   23.3031  -20.8985  -12.8936 C   0  0  0  0  0  0  0  0  0  0  0  0
   23.0912  -19.8421  -12.2613 O   0  0  0  0  0  0  0  0  0  0  0  0
   21.8694  -15.1799  -14.4604 O   0  0  0  0  0  0  0  0  0  0  0  0
   21.5220  -16.5342  -14.4797 C   0  0  0  0  0  0  0  0  0  0  0  0
   22.1618  -17.4308  -15.3141 C   0  0  0  0  0  0  0  0  0  0  0  0
   21.8230  -18.7670  -15.3369 C   0  0  0  0  0  0  0  0  0  0  0  0
   20.8332  -19.2278  -14.5205 C   0  0  0  0  0  0  0  0  0  0  0  0
   20.4274  -20.6383  -14.5079 C   0  0  0  0  0  0  0  0  0  0  0  0
   20.8652  -21.2804  -13.2110 C   0  0  2  0  0  0  0  0  0  0  0  0
   22.2595  -21.6943  -13.4153 N   0  0  0  0  0  0  0  0  0  0  0  0
   20.1018  -22.4865  -12.8593 C   0  0  0  0  0  0  0  0  0  0  0  0
   18.8809  -22.4293  -12.2117 O   0  0  0  0  0  0  0  0  0  0  0  0
   20.1760  -18.3577  -13.6763 C   0  0  0  0  0  0  0  0  0  0  0  0
   20.5289  -17.0420  -13.6720 C   0  0  0  0  0  0  0  0  0  0  0  0
   20.5493  -23.6197  -13.1444 O   0  0  0  0  0  0  0  0  0  0  0  0
  1  2  1  0
  3  2  1  0
  4  3  1  0
  4  5  1  0
  5  6  1  1
  5  1  1  0
  6  7  2  0
 10  9  1  1
  9  8  1  0
 11  6  1  0
 11 10  1  0
 12 10  1  0
 12 21  1  0
 13 12  2  0
 15 14  1  0
 16 15  2  0
 17 16  1  0
 18 24  1  0
 18 17  2  0
 19 18  1  0
 20 21  1  0
 20 19  1  6
 22 20  1  0
 23 22  1  0
 24 25  2  0
 25 15  1  0
 26 22  2  0
M  END
$$$$
