PSY.pdb
     RDKit          3D

 26 27  0  0  1  0  0  0  0  0999 V2000
   17.4677  -10.0703  -15.6724 N   0  0  0  0  0  0  0  0  0  0  0  0
   18.1842  -10.9923  -16.5783 C   0  0  0  0  0  0  0  0  0  0  0  0
   19.5908  -10.8155  -15.9893 C   0  0  0  0  0  0  0  0  0  0  0  0
   19.3108  -11.0118  -14.5214 C   0  0  0  0  0  0  0  0  0  0  0  0
   17.9265  -10.4254  -14.3640 C   0  0  1  0  0  0  0  0  0  0  0  0
   17.9923   -9.3082  -13.3976 C   0  0  0  0  0  0  0  0  0  0  0  0
   18.3471   -9.5185  -12.1833 O   0  0  0  0  0  0  0  0  0  0  0  0
   16.6009   -5.4623  -14.2471 O   0  0  0  0  0  0  0  0  0  0  0  0
   17.6971   -5.6075  -13.4070 C   0  0  0  0  0  0  0  0  0  0  0  0
   17.6469   -6.9579  -12.7143 C   0  0  2  0  0  0  0  0  0  0  0  0
   17.6741   -7.9695  -13.7458 N   0  0  0  0  0  0  0  0  0  0  0  0
   16.4277   -7.0703  -11.8731 C   0  0  0  0  0  0  0  0  0  0  0  0
   15.4521   -7.7271  -12.2944 O   0  0  0  0  0  0  0  0  0  0  0  0
   10.6333   -6.7659   -5.4986 O   0  0  0  0  0  0  0  0  0  0  0  0
   11.7638   -6.8984   -6.3107 C   0  0  0  0  0  0  0  0  0  0  0  0
   11.7751   -7.7521   -7.3973 C   0  0  0  0  0  0  0  0  0  0  0  0
   12.8871   -7.8863   -8.2010 C   0  0  0  0  0  0  0  0  0  0  0  0
   14.0105   -7.1642   -7.9273 C   0  0  0  0  0  0  0  0  0  0  0  0
   15.2245   -7.2722   -8.7453 C   0  0  0  0  0  0  0  0  0  0  0  0
   15.1584   -6.2803   -9.8844 C   0  0  2  0  0  0  0  0  0  0  0  0
   16.4227   -6.4224  -10.6181 N   0  0  0  0  0  0  0  0  0  0  0  0
   15.0660   -4.8800   -9.4465 C   0  0  0  0  0  0  0  0  0  0  0  0
   16.1791   -4.0706   -9.3087 O   0  0  0  0  0  0  0  0  0  0  0  0
   14.0306   -6.3036   -6.8500 C   0  0  0  0  0  0  0  0  0  0  0  0
   12.9192   -6.1883   -6.0707 C   0  0  0  0  0  0  0  0  0  0  0  0
   13.9517   -4.3758   -9.1821 O   0  0  0  0  0  0  0  0  0  0  0  0
  1  2  1  0
  3  2  1  0
  4  3  1  0
  4  5  1  0
  5  6  1  1
  5  1  1  0
  6  7  2  0
 10  9  1  6
  9  8  1  0
 11  6  1  0
 11 10  1  0
 12 10  1  0
 12 21  1  0
 13 12  2  0
 15 14  1  0
 16 15  2  0
 17 16  1  0
 18 24  1  0
 18 17  2  0
 19 18  1  0
 20 21  1  0
 20 19  1  1
 22 20  1  0
 23 22  1  0
 24 25  2  0
 25 15  1  0
 26 22  2  0
M  END
$$$$
