PSY.pdb
     RDKit          3D

 26 27  0  0  1  0  0  0  0  0999 V2000
   27.8921  -20.3392  -15.9671 N   0  0  0  0  0  0  0  0  0  0  0  0
   28.1655  -19.7492  -17.2942 C   0  0  0  0  0  0  0  0  0  0  0  0
   27.3559  -18.4566  -17.1208 C   0  0  0  0  0  0  0  0  0  0  0  0
   27.8668  -17.9782  -15.7860 C   0  0  0  0  0  0  0  0  0  0  0  0
   28.1254  -19.2700  -15.0448 C   0  0  1  0  0  0  0  0  0  0  0  0
   27.2842  -19.2952  -13.8290 C   0  0  0  0  0  0  0  0  0  0  0  0
   27.3084  -18.3164  -13.0008 O   0  0  0  0  0  0  0  0  0  0  0  0
   24.7538  -22.4359  -12.9735 O   0  0  0  0  0  0  0  0  0  0  0  0
   24.3395  -21.1526  -12.6420 C   0  0  0  0  0  0  0  0  0  0  0  0
   25.5449  -20.2707  -12.3684 C   0  0  2  0  0  0  0  0  0  0  0  0
   26.4216  -20.3769  -13.5122 N   0  0  0  0  0  0  0  0  0  0  0  0
   26.2281  -20.6902  -11.1178 C   0  0  0  0  0  0  0  0  0  0  0  0
   27.0087  -21.6653  -11.1445 O   0  0  0  0  0  0  0  0  0  0  0  0
   29.4456  -20.5171   -3.0424 O   0  0  0  0  0  0  0  0  0  0  0  0
   28.9338  -20.2169   -4.3086 C   0  0  0  0  0  0  0  0  0  0  0  0
   29.3819  -20.8702   -5.4408 C   0  0  0  0  0  0  0  0  0  0  0  0
   28.8807  -20.5779   -6.6914 C   0  0  0  0  0  0  0  0  0  0  0  0
   27.9184  -19.6220   -6.8278 C   0  0  0  0  0  0  0  0  0  0  0  0
   27.3537  -19.2661   -8.1351 C   0  0  0  0  0  0  0  0  0  0  0  0
   26.5312  -20.4195   -8.6633 C   0  0  2  0  0  0  0  0  0  0  0  0
   25.9633  -19.9609   -9.9377 N   0  0  0  0  0  0  0  0  0  0  0  0
   25.4045  -20.7908   -7.7949 C   0  0  0  0  0  0  0  0  0  0  0  0
   25.5504  -21.6386   -6.7118 O   0  0  0  0  0  0  0  0  0  0  0  0
   27.4505  -18.9524   -5.7168 C   0  0  0  0  0  0  0  0  0  0  0  0
   27.9614  -19.2591   -4.4919 C   0  0  0  0  0  0  0  0  0  0  0  0
   24.2603  -20.3376   -8.0208 O   0  0  0  0  0  0  0  0  0  0  0  0
  1  2  1  0
  3  2  1  0
  4  3  1  0
  4  5  1  0
  5  6  1  1
  5  1  1  0
  6  7  2  0
 10  9  1  6
  9  8  1  0
 11  6  1  0
 11 10  1  0
 12 10  1  0
 12 21  1  0
 13 12  2  0
 15 14  1  0
 16 15  2  0
 17 16  1  0
 18 24  1  0
 18 17  2  0
 19 18  1  0
 20 21  1  0
 20 19  1  1
 22 20  1  0
 23 22  1  0
 24 25  2  0
 25 15  1  0
 26 22  2  0
M  END
$$$$
