PSY.pdb
     RDKit          3D

 26 27  0  0  1  0  0  0  0  0999 V2000
   27.2386  -19.2512  -14.6521 N   0  0  0  0  0  0  0  0  0  0  0  0
   28.6242  -19.1011  -15.1436 C   0  0  0  0  0  0  0  0  0  0  0  0
   29.2178  -20.3550  -14.4864 C   0  0  0  0  0  0  0  0  0  0  0  0
   28.2100  -21.3966  -14.9001 C   0  0  0  0  0  0  0  0  0  0  0  0
   26.9129  -20.6204  -14.9116 C   0  0  1  0  0  0  0  0  0  0  0  0
   25.9823  -21.2386  -13.9429 C   0  0  0  0  0  0  0  0  0  0  0  0
   25.3222  -22.2924  -14.2565 O   0  0  0  0  0  0  0  0  0  0  0  0
   25.5679  -20.0906   -9.9340 O   0  0  0  0  0  0  0  0  0  0  0  0
   25.2493  -21.3586  -10.4019 C   0  0  0  0  0  0  0  0  0  0  0  0
   24.7153  -21.2711  -11.8207 C   0  0  2  0  0  0  0  0  0  0  0  0
   25.7677  -20.7161  -12.6408 N   0  0  0  0  0  0  0  0  0  0  0  0
   23.4889  -20.4341  -11.8683 C   0  0  0  0  0  0  0  0  0  0  0  0
   23.5658  -19.2195  -11.5863 O   0  0  0  0  0  0  0  0  0  0  0  0
   21.6491  -21.9060  -18.3276 O   0  0  0  0  0  0  0  0  0  0  0  0
   21.5251  -21.2532  -17.0973 C   0  0  0  0  0  0  0  0  0  0  0  0
   20.3011  -21.1257  -16.4688 C   0  0  0  0  0  0  0  0  0  0  0  0
   20.1735  -20.4831  -15.2558 C   0  0  0  0  0  0  0  0  0  0  0  0
   21.2754  -19.9555  -14.6508 C   0  0  0  0  0  0  0  0  0  0  0  0
   21.1969  -19.2558  -13.3629 C   0  0  0  0  0  0  0  0  0  0  0  0
   21.0360  -20.2635  -12.2473 C   0  0  2  0  0  0  0  0  0  0  0  0
   22.2738  -21.0537  -12.2345 N   0  0  0  0  0  0  0  0  0  0  0  0
   19.9238  -21.2027  -12.4527 C   0  0  0  0  0  0  0  0  0  0  0  0
   18.5998  -20.8037  -12.4192 O   0  0  0  0  0  0  0  0  0  0  0  0
   22.5111  -20.0665  -15.2528 C   0  0  0  0  0  0  0  0  0  0  0  0
   22.6114  -20.7061  -16.4513 C   0  0  0  0  0  0  0  0  0  0  0  0
   20.1545  -22.4136  -12.6676 O   0  0  0  0  0  0  0  0  0  0  0  0
  1  2  1  0
  3  2  1  0
  4  3  1  0
  4  5  1  0
  5  6  1  1
  5  1  1  0
  6  7  2  0
 10  9  1  1
  9  8  1  0
 11  6  1  0
 11 10  1  0
 12 10  1  0
 12 21  1  0
 13 12  2  0
 15 14  1  0
 16 15  2  0
 17 16  1  0
 18 24  1  0
 18 17  2  0
 19 18  1  0
 20 21  1  0
 20 19  1  6
 22 20  1  0
 23 22  1  0
 24 25  2  0
 25 15  1  0
 26 22  2  0
M  END
$$$$
