PSY.pdb
     RDKit          3D

 26 27  0  0  1  0  0  0  0  0999 V2000
   28.6626  -23.0752  -17.7601 N   0  0  0  0  0  0  0  0  0  0  0  0
   28.9921  -23.3598  -19.1724 C   0  0  0  0  0  0  0  0  0  0  0  0
   28.0845  -22.3031  -19.8175 C   0  0  0  0  0  0  0  0  0  0  0  0
   28.4610  -21.0805  -19.0205 C   0  0  0  0  0  0  0  0  0  0  0  0
   28.7527  -21.6509  -17.6514 C   0  0  1  0  0  0  0  0  0  0  0  0
   27.8275  -21.0364  -16.6752 C   0  0  0  0  0  0  0  0  0  0  0  0
   27.9139  -19.7883  -16.3936 O   0  0  0  0  0  0  0  0  0  0  0  0
   23.5979  -20.8851  -14.6125 O   0  0  0  0  0  0  0  0  0  0  0  0
   24.5052  -21.4774  -15.4810 C   0  0  0  0  0  0  0  0  0  0  0  0
   25.9220  -21.0845  -15.1014 C   0  0  2  0  0  0  0  0  0  0  0  0
   26.8141  -21.7718  -16.0069 N   0  0  0  0  0  0  0  0  0  0  0  0
   26.2027  -21.4389  -13.6864 C   0  0  0  0  0  0  0  0  0  0  0  0
   26.4213  -22.6318  -13.3863 O   0  0  0  0  0  0  0  0  0  0  0  0
   28.2496  -20.4319   -5.2771 O   0  0  0  0  0  0  0  0  0  0  0  0
   28.0026  -20.2100   -6.6354 C   0  0  0  0  0  0  0  0  0  0  0  0
   27.0074  -19.3484   -7.0559 C   0  0  0  0  0  0  0  0  0  0  0  0
   26.7599  -19.1261   -8.3938 C   0  0  0  0  0  0  0  0  0  0  0  0
   27.5089  -19.7667   -9.3357 C   0  0  0  0  0  0  0  0  0  0  0  0
   27.2851  -19.5725  -10.7732 C   0  0  0  0  0  0  0  0  0  0  0  0
   26.4678  -20.7213  -11.3190 C   0  0  2  0  0  0  0  0  0  0  0  0
   26.2107  -20.4007  -12.7290 N   0  0  0  0  0  0  0  0  0  0  0  0
   25.1608  -20.8821  -10.6654 C   0  0  0  0  0  0  0  0  0  0  0  0
   24.9717  -21.7187   -9.5803 O   0  0  0  0  0  0  0  0  0  0  0  0
   28.5096  -20.6326   -8.9477 C   0  0  0  0  0  0  0  0  0  0  0  0
   28.7350  -20.8356   -7.6197 C   0  0  0  0  0  0  0  0  0  0  0  0
   24.1654  -20.2510  -11.0856 O   0  0  0  0  0  0  0  0  0  0  0  0
  1  2  1  0
  3  2  1  0
  4  3  1  0
  4  5  1  0
  5  6  1  1
  5  1  1  0
  6  7  2  0
 10  9  1  6
  9  8  1  0
 11  6  1  0
 11 10  1  0
 12 10  1  0
 12 21  1  0
 13 12  2  0
 15 14  1  0
 16 15  2  0
 17 16  1  0
 18 24  1  0
 18 17  2  0
 19 18  1  0
 20 21  1  0
 20 19  1  1
 22 20  1  0
 23 22  1  0
 24 25  2  0
 25 15  1  0
 26 22  2  0
M  END
$$$$
