PSY.pdb
     RDKit          3D

 26 27  0  0  1  0  0  0  0  0999 V2000
   27.4533  -17.2768  -17.7460 N   0  0  0  0  0  0  0  0  0  0  0  0
   28.6252  -16.5979  -17.1546 C   0  0  0  0  0  0  0  0  0  0  0  0
   28.8537  -17.5581  -15.9789 C   0  0  0  0  0  0  0  0  0  0  0  0
   28.8307  -18.8873  -16.6891 C   0  0  0  0  0  0  0  0  0  0  0  0
   27.8265  -18.6576  -17.7954 C   0  0  1  0  0  0  0  0  0  0  0  0
   26.7120  -19.6151  -17.6300 C   0  0  0  0  0  0  0  0  0  0  0  0
   26.3623  -20.3800  -18.5982 O   0  0  0  0  0  0  0  0  0  0  0  0
   26.1526  -22.3223  -14.9408 O   0  0  0  0  0  0  0  0  0  0  0  0
   25.6933  -22.1038  -16.2330 C   0  0  0  0  0  0  0  0  0  0  0  0
   24.9704  -20.7706  -16.3102 C   0  0  2  0  0  0  0  0  0  0  0  0
   25.9795  -19.7422  -16.4210 N   0  0  0  0  0  0  0  0  0  0  0  0
   24.1154  -20.5680  -15.1124 C   0  0  0  0  0  0  0  0  0  0  0  0
   24.6497  -20.2745  -14.0219 O   0  0  0  0  0  0  0  0  0  0  0  0
   16.8736  -18.8001  -10.5787 O   0  0  0  0  0  0  0  0  0  0  0  0
   17.7580  -19.1583  -11.6008 C   0  0  0  0  0  0  0  0  0  0  0  0
   17.9140  -20.4747  -11.9909 C   0  0  0  0  0  0  0  0  0  0  0  0
   18.7846  -20.8331  -12.9979 C   0  0  0  0  0  0  0  0  0  0  0  0
   19.5161  -19.8737  -13.6328 C   0  0  0  0  0  0  0  0  0  0  0  0
   20.4620  -20.1988  -14.7070 C   0  0  0  0  0  0  0  0  0  0  0  0
   21.8382  -20.4198  -14.1212 C   0  0  2  0  0  0  0  0  0  0  0  0
   22.7186  -20.7176  -15.2584 N   0  0  0  0  0  0  0  0  0  0  0  0
   21.9145  -21.5647  -13.2022 C   0  0  0  0  0  0  0  0  0  0  0  0
   21.8490  -21.4189  -11.8283 O   0  0  0  0  0  0  0  0  0  0  0  0
   19.3827  -18.5510  -13.2665 C   0  0  0  0  0  0  0  0  0  0  0  0
   18.5158  -18.2220  -12.2685 C   0  0  0  0  0  0  0  0  0  0  0  0
   22.0435  -22.7251  -13.6521 O   0  0  0  0  0  0  0  0  0  0  0  0
  1  2  1  0
  3  2  1  0
  4  3  1  0
  4  5  1  0
  5  6  1  1
  5  1  1  0
  6  7  2  0
 10  9  1  1
  9  8  1  0
 11  6  1  0
 11 10  1  0
 12 10  1  0
 12 21  1  0
 13 12  2  0
 15 14  1  0
 16 15  2  0
 17 16  1  0
 18 24  1  0
 18 17  2  0
 19 18  1  0
 20 21  1  0
 20 19  1  6
 22 20  1  0
 23 22  1  0
 24 25  2  0
 25 15  1  0
 26 22  2  0
M  END
$$$$
