PSY.pdb
     RDKit          3D

 26 27  0  0  1  0  0  0  0  0999 V2000
   26.6396  -18.0911  -18.6188 N   0  0  0  0  0  0  0  0  0  0  0  0
   26.7201  -17.8413  -20.0732 C   0  0  0  0  0  0  0  0  0  0  0  0
   26.3162  -19.2434  -20.5503 C   0  0  0  0  0  0  0  0  0  0  0  0
   25.0724  -19.4749  -19.7311 C   0  0  0  0  0  0  0  0  0  0  0  0
   25.3851  -18.7561  -18.4386 C   0  0  1  0  0  0  0  0  0  0  0  0
   25.3473  -19.7350  -17.3310 C   0  0  0  0  0  0  0  0  0  0  0  0
   24.2340  -20.2477  -16.9536 O   0  0  0  0  0  0  0  0  0  0  0  0
   28.6444  -21.8563  -15.8770 O   0  0  0  0  0  0  0  0  0  0  0  0
   27.3249  -22.2857  -15.9327 C   0  0  0  0  0  0  0  0  0  0  0  0
   26.3897  -21.1409  -15.5854 C   0  0  2  0  0  0  0  0  0  0  0  0
   26.5109  -20.1554  -16.6353 N   0  0  0  0  0  0  0  0  0  0  0  0
   26.7330  -20.5681  -14.2584 C   0  0  0  0  0  0  0  0  0  0  0  0
   27.4432  -19.5419  -14.2002 O   0  0  0  0  0  0  0  0  0  0  0  0
   20.2213  -20.9315  -12.1132 O   0  0  0  0  0  0  0  0  0  0  0  0
   21.5640  -20.5546  -12.0127 C   0  0  0  0  0  0  0  0  0  0  0  0
   22.3098  -20.2380  -13.1322 C   0  0  0  0  0  0  0  0  0  0  0  0
   23.6339  -19.8658  -13.0386 C   0  0  0  0  0  0  0  0  0  0  0  0
   24.2344  -19.8049  -11.8162 C   0  0  0  0  0  0  0  0  0  0  0  0
   25.6423  -19.4210  -11.6583 C   0  0  0  0  0  0  0  0  0  0  0  0
   26.5190  -20.6466  -11.7809 C   0  0  2  0  0  0  0  0  0  0  0  0
   26.2364  -21.2150  -13.1053 N   0  0  0  0  0  0  0  0  0  0  0  0
   26.2217  -21.6899  -10.7888 C   0  0  0  0  0  0  0  0  0  0  0  0
   26.3667  -21.4835   -9.4288 O   0  0  0  0  0  0  0  0  0  0  0  0
   23.5168  -20.1147  -10.6801 C   0  0  0  0  0  0  0  0  0  0  0  0
   22.2098  -20.4797  -10.7986 C   0  0  0  0  0  0  0  0  0  0  0  0
   25.8210  -22.8155  -11.1603 O   0  0  0  0  0  0  0  0  0  0  0  0
  1  2  1  0
  3  2  1  0
  4  3  1  0
  4  5  1  0
  5  6  1  1
  5  1  1  0
  6  7  2  0
 10  9  1  6
  9  8  1  0
 11  6  1  0
 11 10  1  0
 12 10  1  0
 12 21  1  0
 13 12  2  0
 15 14  1  0
 16 15  2  0
 17 16  1  0
 18 24  1  0
 18 17  2  0
 19 18  1  0
 20 21  1  0
 20 19  1  1
 22 20  1  0
 23 22  1  0
 24 25  2  0
 25 15  1  0
 26 22  2  0
M  END
$$$$
