PSY.pdb
     RDKit          3D

 26 27  0  0  1  0  0  0  0  0999 V2000
   16.1952  -23.5000    0.1203 N   0  0  0  0  0  0  0  0  0  0  0  0
   15.5936  -24.4562   -0.8325 C   0  0  0  0  0  0  0  0  0  0  0  0
   14.1233  -24.0716   -0.6168 C   0  0  0  0  0  0  0  0  0  0  0  0
   14.1989  -22.5725   -0.7529 C   0  0  0  0  0  0  0  0  0  0  0  0
   15.5581  -22.2526   -0.1739 C   0  0  1  0  0  0  0  0  0  0  0  0
   15.3795  -21.3507    0.9842 C   0  0  0  0  0  0  0  0  0  0  0  0
   15.0730  -20.1180    0.8075 O   0  0  0  0  0  0  0  0  0  0  0  0
   16.5431  -22.2363    4.8764 O   0  0  0  0  0  0  0  0  0  0  0  0
   15.2992  -21.6451    4.6980 C   0  0  0  0  0  0  0  0  0  0  0  0
   15.2804  -20.8522    3.4032 C   0  0  2  0  0  0  0  0  0  0  0  0
   15.5334  -21.7830    2.3273 N   0  0  0  0  0  0  0  0  0  0  0  0
   16.2970  -19.7695    3.4370 C   0  0  0  0  0  0  0  0  0  0  0  0
   17.3893  -19.9374    2.8544 O   0  0  0  0  0  0  0  0  0  0  0  0
   19.9696  -11.9666    4.4243 O   0  0  0  0  0  0  0  0  0  0  0  0
   19.1548  -13.0734    4.1667 C   0  0  0  0  0  0  0  0  0  0  0  0
   19.5663  -14.0922    3.3287 C   0  0  0  0  0  0  0  0  0  0  0  0
   18.7668  -15.1855    3.0716 C   0  0  0  0  0  0  0  0  0  0  0  0
   17.5368  -15.2754    3.6525 C   0  0  0  0  0  0  0  0  0  0  0  0
   16.6418  -16.4131    3.4095 C   0  0  0  0  0  0  0  0  0  0  0  0
   17.0189  -17.5588    4.3211 C   0  0  2  0  0  0  0  0  0  0  0  0
   15.9823  -18.5822    4.1342 N   0  0  0  0  0  0  0  0  0  0  0  0
   17.0257  -17.2037    5.7477 C   0  0  0  0  0  0  0  0  0  0  0  0
   18.1503  -16.7106    6.3843 O   0  0  0  0  0  0  0  0  0  0  0  0
   17.0977  -14.2749    4.4938 C   0  0  0  0  0  0  0  0  0  0  0  0
   17.9060  -13.2047    4.7323 C   0  0  0  0  0  0  0  0  0  0  0  0
   15.9897  -17.3427    6.4355 O   0  0  0  0  0  0  0  0  0  0  0  0
  1  2  1  0
  3  2  1  0
  4  3  1  0
  4  5  1  0
  5  6  1  1
  5  1  1  0
  6  7  2  0
 10  9  1  1
  9  8  1  0
 11  6  1  0
 11 10  1  0
 12 10  1  0
 12 21  1  0
 13 12  2  0
 15 14  1  0
 16 15  2  0
 17 16  1  0
 18 24  1  0
 18 17  2  0
 19 18  1  0
 20 21  1  0
 20 19  1  6
 22 20  1  0
 23 22  1  0
 24 25  2  0
 25 15  1  0
 26 22  2  0
M  END
$$$$
