NAC.pdb
     RDKit          3D

 20 19  0  0  1  0  0  0  0  0999 V2000
   13.4060  -15.9490  -16.0406 N   0  0  0  0  0  0  0  0  0  0  0  0
   14.5581  -15.4780  -16.7313 C   0  0  0  0  0  0  0  0  0  0  0  0
   14.9463  -15.9866  -17.7949 O   0  0  0  0  0  0  0  0  0  0  0  0
   15.3333  -14.3393  -16.1727 C   0  0  0  0  0  0  0  0  0  0  0  0
   16.7901  -14.7499  -15.9347 C   0  0  2  0  0  0  0  0  0  0  0  0
   16.8850  -15.6158  -14.7834 N   0  0  0  0  0  0  0  0  0  0  0  0
   17.5341  -13.5049  -15.6561 C   0  0  0  0  0  0  0  0  0  0  0  0
   17.2559  -12.8479  -14.6262 O   0  0  0  0  0  0  0  0  0  0  0  0
   20.5997  -11.7989  -16.9186 C   0  0  0  0  0  0  0  0  0  0  0  0
   19.3237  -11.8633  -16.1138 C   0  0  2  0  0  0  0  0  0  0  0  0
   18.5589  -13.0118  -16.5067 N   0  0  0  0  0  0  0  0  0  0  0  0
   18.5247  -10.6206  -16.2297 C   0  0  0  0  0  0  0  0  0  0  0  0
   17.7173  -10.5207  -17.2005 O   0  0  0  0  0  0  0  0  0  0  0  0
   18.6061   -9.5435  -15.3288 N   0  0  0  0  0  0  0  0  0  0  0  0
   17.9206   -8.3206  -15.6111 C   0  0  1  0  0  0  0  0  0  0  0  0
   16.8396   -8.1439  -14.5655 C   0  0  0  0  0  0  0  0  0  0  0  0
   17.6600   -8.2226  -12.9429 S   0  0  0  0  0  0  0  0  0  0  0  0
   18.8033   -7.1411  -15.6457 C   0  0  0  0  0  0  0  0  0  0  0  0
   20.0418   -7.1604  -15.4318 O   0  0  0  0  0  0  0  0  0  0  0  0
   18.2281   -5.9119  -15.9364 O   0  0  0  0  0  0  0  0  0  0  0  0
  2  4  1  0
  2  1  1  0
  3  2  2  0
  5  6  1  1
  5  7  1  0
  5  4  1  0
  7 11  1  0
  8  7  2  0
 10  9  1  6
 11 10  1  0
 12 14  1  0
 12 10  1  0
 13 12  2  0
 15 14  1  0
 15 18  1  0
 15 16  1  1
 17 16  1  0
 18 20  1  0
 19 18  2  0
M  END
$$$$
