NAC.pdb
     RDKit          3D

 20 19  0  0  1  0  0  0  0  0999 V2000
   14.5697  -11.9902  -16.5098 N   0  0  0  0  0  0  0  0  0  0  0  0
   14.9871  -11.3720  -15.2975 C   0  0  0  0  0  0  0  0  0  0  0  0
   14.2864  -11.3836  -14.2730 O   0  0  0  0  0  0  0  0  0  0  0  0
   16.3042  -10.6852  -15.2403 C   0  0  0  0  0  0  0  0  0  0  0  0
   17.0027  -10.7542  -16.6022 C   0  0  2  0  0  0  0  0  0  0  0  0
   17.5788  -12.0624  -16.8042 N   0  0  0  0  0  0  0  0  0  0  0  0
   18.0906   -9.7560  -16.5640 C   0  0  0  0  0  0  0  0  0  0  0  0
   19.1649  -10.0493  -15.9897 O   0  0  0  0  0  0  0  0  0  0  0  0
   18.8454   -6.4160  -18.0683 C   0  0  0  0  0  0  0  0  0  0  0  0
   19.0946   -7.5690  -17.1256 C   0  0  2  0  0  0  0  0  0  0  0  0
   17.9771   -8.4683  -17.1518 N   0  0  0  0  0  0  0  0  0  0  0  0
   19.3845   -7.1124  -15.7460 C   0  0  0  0  0  0  0  0  0  0  0  0
   18.4457   -7.1520  -14.8966 O   0  0  0  0  0  0  0  0  0  0  0  0
   20.6376   -6.6372  -15.3191 N   0  0  0  0  0  0  0  0  0  0  0  0
   20.8146   -6.1965  -13.9702 C   0  0  1  0  0  0  0  0  0  0  0  0
   20.8773   -7.4246  -13.0866 C   0  0  0  0  0  0  0  0  0  0  0  0
   21.1116   -6.8338  -11.3813 S   0  0  0  0  0  0  0  0  0  0  0  0
   22.0097   -5.3571  -13.7733 C   0  0  0  0  0  0  0  0  0  0  0  0
   23.1237   -5.5475  -14.3235 O   0  0  0  0  0  0  0  0  0  0  0  0
   21.9025   -4.2713  -12.9154 O   0  0  0  0  0  0  0  0  0  0  0  0
  2  4  1  0
  2  1  1  0
  3  2  2  0
  5  6  1  1
  5  7  1  0
  5  4  1  0
  7 11  1  0
  8  7  2  0
 10  9  1  6
 11 10  1  0
 12 14  1  0
 12 10  1  0
 13 12  2  0
 15 14  1  0
 15 18  1  0
 15 16  1  1
 17 16  1  0
 18 20  1  0
 19 18  2  0
M  END
$$$$
