NAC.pdb
     RDKit          3D

 20 19  0  0  1  0  0  0  0  0999 V2000
   14.8575  -10.8148  -10.4823 N   0  0  0  0  0  0  0  0  0  0  0  0
   15.5226  -11.4575  -11.5644 C   0  0  0  0  0  0  0  0  0  0  0  0
   15.8634  -12.6501  -11.5176 O   0  0  0  0  0  0  0  0  0  0  0  0
   15.8264  -10.6877  -12.7993 C   0  0  0  0  0  0  0  0  0  0  0  0
   15.3004   -9.2538  -12.6784 C   0  0  2  0  0  0  0  0  0  0  0  0
   13.8944   -9.2068  -13.0027 N   0  0  0  0  0  0  0  0  0  0  0  0
   16.0445   -8.4517  -13.6706 C   0  0  0  0  0  0  0  0  0  0  0  0
   15.6052   -8.3728  -14.8413 O   0  0  0  0  0  0  0  0  0  0  0  0
   17.0459   -5.7916  -14.7358 C   0  0  0  0  0  0  0  0  0  0  0  0
   17.9027   -6.9792  -14.3675 C   0  0  2  0  0  0  0  0  0  0  0  0
   17.2445   -7.7592  -13.3591 N   0  0  0  0  0  0  0  0  0  0  0  0
   19.2614   -6.5771  -13.9339 C   0  0  0  0  0  0  0  0  0  0  0  0
   19.4012   -6.1229  -12.7598 O   0  0  0  0  0  0  0  0  0  0  0  0
   20.4074   -6.6679  -14.7444 N   0  0  0  0  0  0  0  0  0  0  0  0
   21.6973   -6.3865  -14.1947 C   0  0  1  0  0  0  0  0  0  0  0  0
   22.7240   -7.1391  -15.0146 C   0  0  0  0  0  0  0  0  0  0  0  0
   22.4130   -8.9123  -14.7472 S   0  0  0  0  0  0  0  0  0  0  0  0
   22.0226   -4.9499  -14.1524 C   0  0  0  0  0  0  0  0  0  0  0  0
   21.7331   -4.1179  -15.0491 O   0  0  0  0  0  0  0  0  0  0  0  0
   22.7007   -4.4734  -13.0391 O   0  0  0  0  0  0  0  0  0  0  0  0
  2  4  1  0
  2  1  1  0
  3  2  2  0
  5  6  1  6
  5  7  1  0
  5  4  1  0
  7 11  1  0
  8  7  2  0
 10  9  1  1
 11 10  1  0
 12 14  1  0
 12 10  1  0
 13 12  2  0
 15 14  1  0
 15 18  1  0
 15 16  1  6
 17 16  1  0
 18 20  1  0
 19 18  2  0
M  END
$$$$
