NAC.pdb
     RDKit          3D

 20 19  0  0  1  0  0  0  0  0999 V2000
   14.7389  -12.4142  -15.4232 N   0  0  0  0  0  0  0  0  0  0  0  0
   14.9860  -11.2611  -14.6259 C   0  0  0  0  0  0  0  0  0  0  0  0
   14.1357  -10.7991  -13.8486 O   0  0  0  0  0  0  0  0  0  0  0  0
   16.3020  -10.5757  -14.7159 C   0  0  0  0  0  0  0  0  0  0  0  0
   17.1606  -11.2093  -15.8153 C   0  0  2  0  0  0  0  0  0  0  0  0
   17.6568  -12.4950  -15.3852 N   0  0  0  0  0  0  0  0  0  0  0  0
   18.3075  -10.3023  -16.0234 C   0  0  0  0  0  0  0  0  0  0  0  0
   19.3788  -10.5270  -15.4137 O   0  0  0  0  0  0  0  0  0  0  0  0
   19.2798   -7.6525  -18.4473 C   0  0  0  0  0  0  0  0  0  0  0  0
   19.4474   -8.4292  -17.1633 C   0  0  2  0  0  0  0  0  0  0  0  0
   18.2545   -9.1777  -16.8890 N   0  0  0  0  0  0  0  0  0  0  0  0
   19.8073   -7.5550  -16.0222 C   0  0  0  0  0  0  0  0  0  0  0  0
   18.9187   -7.3173  -15.1514 O   0  0  0  0  0  0  0  0  0  0  0  0
   21.0747   -6.9716  -15.8444 N   0  0  0  0  0  0  0  0  0  0  0  0
   21.2831   -6.0159  -14.8012 C   0  0  1  0  0  0  0  0  0  0  0  0
   21.9438   -6.7325  -13.6423 C   0  0  0  0  0  0  0  0  0  0  0  0
   22.2671   -5.4781  -12.3640 S   0  0  0  0  0  0  0  0  0  0  0  0
   22.0874   -4.8527  -15.2153 C   0  0  0  0  0  0  0  0  0  0  0  0
   23.0109   -4.8808  -16.0676 O   0  0  0  0  0  0  0  0  0  0  0  0
   21.8081   -3.6296  -14.6218 O   0  0  0  0  0  0  0  0  0  0  0  0
  2  4  1  0
  2  1  1  0
  3  2  2  0
  5  6  1  1
  5  7  1  0
  5  4  1  0
  7 11  1  0
  8  7  2  0
 10  9  1  6
 11 10  1  0
 12 14  1  0
 12 10  1  0
 13 12  2  0
 15 14  1  0
 15 18  1  0
 15 16  1  1
 17 16  1  0
 18 20  1  0
 19 18  2  0
M  END
$$$$
