NAC.pdb
     RDKit          3D

 20 19  0  0  1  0  0  0  0  0999 V2000
   16.2747  -12.6228  -15.9362 N   0  0  0  0  0  0  0  0  0  0  0  0
   17.3663  -12.3337  -15.0696 C   0  0  0  0  0  0  0  0  0  0  0  0
   17.6615  -13.0639  -14.1103 O   0  0  0  0  0  0  0  0  0  0  0  0
   18.1905  -11.1198  -15.3083 C   0  0  0  0  0  0  0  0  0  0  0  0
   17.6791  -10.3594  -16.5362 C   0  0  2  0  0  0  0  0  0  0  0  0
   18.0460  -11.0566  -17.7460 N   0  0  0  0  0  0  0  0  0  0  0  0
   18.3517   -9.0445  -16.5224 C   0  0  0  0  0  0  0  0  0  0  0  0
   19.5297   -8.9598  -16.9407 O   0  0  0  0  0  0  0  0  0  0  0  0
   17.4006   -5.4731  -16.0339 C   0  0  0  0  0  0  0  0  0  0  0  0
   18.3973   -6.5998  -16.1644 C   0  0  2  0  0  0  0  0  0  0  0  0
   17.7223   -7.8610  -16.0538 N   0  0  0  0  0  0  0  0  0  0  0  0
   19.4980   -6.4914  -15.1782 C   0  0  0  0  0  0  0  0  0  0  0  0
   19.2861   -6.9101  -14.0017 O   0  0  0  0  0  0  0  0  0  0  0  0
   20.7649   -5.9524  -15.4660 N   0  0  0  0  0  0  0  0  0  0  0  0
   21.7755   -5.9194  -14.4547 C   0  0  1  0  0  0  0  0  0  0  0  0
   23.1091   -6.1758  -15.1247 C   0  0  0  0  0  0  0  0  0  0  0  0
   23.0733   -7.8929  -15.7267 S   0  0  0  0  0  0  0  0  0  0  0  0
   21.8131   -4.6567  -13.6959 C   0  0  0  0  0  0  0  0  0  0  0  0
   21.4417   -3.5394  -14.1358 O   0  0  0  0  0  0  0  0  0  0  0  0
   22.2949   -4.6988  -12.3950 O   0  0  0  0  0  0  0  0  0  0  0  0
  2  4  1  0
  2  1  1  0
  3  2  2  0
  5  6  1  6
  5  7  1  0
  5  4  1  0
  7 11  1  0
  8  7  2  0
 10  9  1  1
 11 10  1  0
 12 14  1  0
 12 10  1  0
 13 12  2  0
 15 14  1  0
 15 18  1  0
 15 16  1  6
 17 16  1  0
 18 20  1  0
 19 18  2  0
M  END
$$$$
