NAC.pdb
     RDKit          3D

 20 19  0  0  1  0  0  0  0  0999 V2000
   11.9374  -12.4099  -15.1226 N   0  0  0  0  0  0  0  0  0  0  0  0
   13.0927  -12.4335  -15.9539 C   0  0  0  0  0  0  0  0  0  0  0  0
   13.1818  -13.1787  -16.9425 O   0  0  0  0  0  0  0  0  0  0  0  0
   14.2398  -11.5415  -15.6407 C   0  0  0  0  0  0  0  0  0  0  0  0
   15.5320  -12.3553  -15.5181 C   0  0  2  0  0  0  0  0  0  0  0  0
   15.4993  -13.1713  -14.3275 N   0  0  0  0  0  0  0  0  0  0  0  0
   16.6311  -11.3766  -15.3939 C   0  0  0  0  0  0  0  0  0  0  0  0
   16.7424  -10.7187  -14.3334 O   0  0  0  0  0  0  0  0  0  0  0  0
   19.7624  -10.4544  -17.1715 C   0  0  0  0  0  0  0  0  0  0  0  0
   18.6056  -10.1598  -16.2468 C   0  0  2  0  0  0  0  0  0  0  0  0
   17.5765  -11.1429  -16.4274 N   0  0  0  0  0  0  0  0  0  0  0  0
   18.0763   -8.7880  -16.4307 C   0  0  0  0  0  0  0  0  0  0  0  0
   17.1582   -8.6142  -17.2858 O   0  0  0  0  0  0  0  0  0  0  0  0
   18.5292   -7.6650  -15.7151 N   0  0  0  0  0  0  0  0  0  0  0  0
   18.0802   -6.3564  -16.0771 C   0  0  1  0  0  0  0  0  0  0  0  0
   17.9281   -5.5507  -14.8040 C   0  0  0  0  0  0  0  0  0  0  0  0
   16.4730   -6.2125  -13.9338 S   0  0  0  0  0  0  0  0  0  0  0  0
   18.9735   -5.6641  -17.0227 C   0  0  0  0  0  0  0  0  0  0  0  0
   20.0649   -6.1191  -17.4490 O   0  0  0  0  0  0  0  0  0  0  0  0
   18.5846   -4.4131  -17.4810 O   0  0  0  0  0  0  0  0  0  0  0  0
  2  4  1  0
  2  1  1  0
  3  2  2  0
  5  6  1  1
  5  7  1  0
  5  4  1  0
  7 11  1  0
  8  7  2  0
 10  9  1  6
 11 10  1  0
 12 14  1  0
 12 10  1  0
 13 12  2  0
 15 14  1  0
 15 18  1  0
 15 16  1  1
 17 16  1  0
 18 20  1  0
 19 18  2  0
M  END
$$$$
