NAC.pdb
     RDKit          3D

 20 19  0  0  1  0  0  0  0  0999 V2000
   17.7122  -12.9873  -18.1885 N   0  0  0  0  0  0  0  0  0  0  0  0
   17.4574  -13.0599  -16.7900 C   0  0  0  0  0  0  0  0  0  0  0  0
   16.6839  -13.8982  -16.3006 O   0  0  0  0  0  0  0  0  0  0  0  0
   18.1330  -12.1064  -15.8711 C   0  0  0  0  0  0  0  0  0  0  0  0
   19.0212  -11.1403  -16.6618 C   0  0  2  0  0  0  0  0  0  0  0  0
   20.2414  -11.7979  -17.0655 N   0  0  0  0  0  0  0  0  0  0  0  0
   19.3583  -10.0356  -15.7413 C   0  0  0  0  0  0  0  0  0  0  0  0
   18.4320   -9.3514  -15.2476 O   0  0  0  0  0  0  0  0  0  0  0  0
   22.3396   -8.7105  -13.9359 C   0  0  0  0  0  0  0  0  0  0  0  0
   20.9500   -8.5964  -14.5156 C   0  0  2  0  0  0  0  0  0  0  0  0
   20.6935   -9.7082  -15.3855 N   0  0  0  0  0  0  0  0  0  0  0  0
   20.7385   -7.3072  -15.2150 C   0  0  0  0  0  0  0  0  0  0  0  0
   20.9148   -7.2747  -16.4689 O   0  0  0  0  0  0  0  0  0  0  0  0
   20.3540   -6.1157  -14.5741 N   0  0  0  0  0  0  0  0  0  0  0  0
   20.3221   -4.8873  -15.3055 C   0  0  1  0  0  0  0  0  0  0  0  0
   18.9165   -4.3313  -15.2153 C   0  0  0  0  0  0  0  0  0  0  0  0
   18.9331   -2.7204  -16.0621 S   0  0  0  0  0  0  0  0  0  0  0  0
   21.3022   -3.8924  -14.8354 C   0  0  0  0  0  0  0  0  0  0  0  0
   21.4528   -3.5375  -13.6389 O   0  0  0  0  0  0  0  0  0  0  0  0
   22.1249   -3.2982  -15.7823 O   0  0  0  0  0  0  0  0  0  0  0  0
  2  4  1  0
  2  1  1  0
  3  2  2  0
  5  6  1  1
  5  7  1  0
  5  4  1  0
  7 11  1  0
  8  7  2  0
 10  9  1  6
 11 10  1  0
 12 14  1  0
 12 10  1  0
 13 12  2  0
 15 14  1  0
 15 18  1  0
 15 16  1  1
 17 16  1  0
 18 20  1  0
 19 18  2  0
M  END
$$$$
