HAT.pdb
     RDKit          3D

 23 23  0  0  1  0  0  0  0  0999 V2000
   22.5528  -19.7183  -16.6190 N   0  0  0  0  0  0  0  0  0  0  0  0
   21.9255  -18.4247  -16.5205 C   0  0  1  0  0  0  0  0  0  0  0  0
   21.4709  -17.9923  -17.8809 C   0  0  0  0  0  0  0  0  0  0  0  0
   22.6816  -17.6578  -18.6763 C   0  0  0  0  0  0  0  0  0  0  0  0
   24.0105  -17.6385  -18.2565 C   0  0  0  0  0  0  0  0  0  0  0  0
   24.8024  -17.2814  -19.2905 N   0  0  0  0  0  0  0  0  0  0  0  0
   24.0084  -17.0759  -20.3484 C   0  0  0  0  0  0  0  0  0  0  0  0
   22.7504  -17.2983  -19.9873 N   0  0  0  0  0  0  0  0  0  0  0  0
   20.8092  -18.5032  -15.5426 C   0  0  0  0  0  0  0  0  0  0  0  0
   20.0369  -19.5008  -15.4988 O   0  0  0  0  0  0  0  0  0  0  0  0
   19.6658  -16.5210  -12.5120 C   0  0  0  0  0  0  0  0  0  0  0  0
   19.5021  -17.5152  -13.6269 C   0  0  2  0  0  0  0  0  0  0  0  0
   20.5433  -17.4655  -14.6011 N   0  0  0  0  0  0  0  0  0  0  0  0
   18.1458  -17.3453  -14.2670 C   0  0  0  0  0  0  0  0  0  0  0  0
   17.9786  -16.5522  -15.2172 O   0  0  0  0  0  0  0  0  0  0  0  0
   15.1010  -20.4379  -13.8426 C   0  0  0  0  0  0  0  0  0  0  0  0
   15.3194  -19.4077  -14.9435 C   0  0  1  0  0  0  0  0  0  0  0  0
   14.0329  -19.2604  -15.5303 O   0  0  0  0  0  0  0  0  0  0  0  0
   15.7252  -18.1241  -14.3244 C   0  0  2  0  0  0  0  0  0  0  0  0
   17.0441  -18.0885  -13.7927 N   0  0  0  0  0  0  0  0  0  0  0  0
   14.6605  -17.6411  -13.3938 C   0  0  0  0  0  0  0  0  0  0  0  0
   14.8802  -17.4648  -12.1679 O   0  0  0  0  0  0  0  0  0  0  0  0
   13.3747  -17.3628  -13.8169 O   0  0  0  0  0  0  0  0  0  0  0  0
  2  1  1  6
  2  3  1  0
  3  4  1  0
  4  8  1  0
  4  5  2  0
  5  6  1  0
  7  6  1  0
  8  7  2  0
  9  2  1  0
  9 13  1  0
 10  9  2  0
 12 11  1  1
 12 13  1  0
 12 14  1  0
 14 20  1  0
 15 14  2  0
 17 18  1  0
 17 16  1  1
 19 17  1  0
 19 20  1  1
 21 19  1  0
 21 23  1  0
 22 21  2  0
M  END
$$$$
