HAT.pdb
     RDKit          3D

 23 23  0  0  1  0  0  0  0  0999 V2000
   20.5492  -12.9907  -18.9915 N   0  0  0  0  0  0  0  0  0  0  0  0
   20.6725  -12.3501  -17.7065 C   0  0  1  0  0  0  0  0  0  0  0  0
   21.2496  -13.3228  -16.7241 C   0  0  0  0  0  0  0  0  0  0  0  0
   20.2620  -14.4187  -16.5405 C   0  0  0  0  0  0  0  0  0  0  0  0
   18.8864  -14.3150  -16.3408 C   0  0  0  0  0  0  0  0  0  0  0  0
   18.3563  -15.5511  -16.2200 N   0  0  0  0  0  0  0  0  0  0  0  0
   19.3600  -16.4289  -16.3381 C   0  0  0  0  0  0  0  0  0  0  0  0
   20.4911  -15.7604  -16.5282 N   0  0  0  0  0  0  0  0  0  0  0  0
   21.5028  -11.1266  -17.8552 C   0  0  0  0  0  0  0  0  0  0  0  0
   22.5619  -11.1252  -18.5421 O   0  0  0  0  0  0  0  0  0  0  0  0
   22.3173   -8.3179  -18.7245 C   0  0  0  0  0  0  0  0  0  0  0  0
   21.9480   -8.7038  -17.3200 C   0  0  2  0  0  0  0  0  0  0  0  0
   21.1577   -9.8888  -17.2366 N   0  0  0  0  0  0  0  0  0  0  0  0
   21.2683   -7.5438  -16.6341 C   0  0  0  0  0  0  0  0  0  0  0  0
   20.1120   -7.1963  -16.9538 O   0  0  0  0  0  0  0  0  0  0  0  0
   20.0955   -7.4071  -13.5403 C   0  0  0  0  0  0  0  0  0  0  0  0
   21.0044   -6.1889  -13.4368 C   0  0  1  0  0  0  0  0  0  0  0  0
   22.1332   -6.6682  -12.7174 O   0  0  0  0  0  0  0  0  0  0  0  0
   21.4261   -5.7890  -14.7998 C   0  0  2  0  0  0  0  0  0  0  0  0
   21.9399   -6.8350  -15.6155 N   0  0  0  0  0  0  0  0  0  0  0  0
   22.2814   -4.5652  -14.7367 C   0  0  0  0  0  0  0  0  0  0  0  0
   23.4542   -4.5507  -15.1912 O   0  0  0  0  0  0  0  0  0  0  0  0
   21.8428   -3.3809  -14.1755 O   0  0  0  0  0  0  0  0  0  0  0  0
  2  1  1  6
  2  3  1  0
  3  4  1  0
  4  8  1  0
  4  5  2  0
  5  6  1  0
  7  6  1  0
  8  7  2  0
  9  2  1  0
  9 13  1  0
 10  9  2  0
 12 11  1  6
 12 13  1  0
 12 14  1  0
 14 20  1  0
 15 14  2  0
 17 18  1  0
 17 16  1  6
 19 17  1  0
 19 20  1  1
 21 19  1  0
 21 23  1  0
 22 21  2  0
M  END
$$$$
