HAT.pdb
     RDKit          3D

 23 23  0  0  1  0  0  0  0  0999 V2000
   26.8219  -20.6827  -16.9762 N   0  0  0  0  0  0  0  0  0  0  0  0
   26.4052  -19.8396  -15.8844 C   0  0  1  0  0  0  0  0  0  0  0  0
   25.6543  -18.6631  -16.4287 C   0  0  0  0  0  0  0  0  0  0  0  0
   26.6190  -17.8226  -17.1857 C   0  0  0  0  0  0  0  0  0  0  0  0
   26.6368  -17.5493  -18.5524 C   0  0  0  0  0  0  0  0  0  0  0  0
   27.6816  -16.7415  -18.8346 N   0  0  0  0  0  0  0  0  0  0  0  0
   28.3210  -16.4995  -17.6838 C   0  0  0  0  0  0  0  0  0  0  0  0
   27.6932  -17.1392  -16.7043 N   0  0  0  0  0  0  0  0  0  0  0  0
   25.5950  -20.6457  -14.9346 C   0  0  0  0  0  0  0  0  0  0  0  0
   24.5764  -21.2879  -15.3134 O   0  0  0  0  0  0  0  0  0  0  0  0
   25.6625  -21.3880  -11.1931 C   0  0  0  0  0  0  0  0  0  0  0  0
   25.0571  -21.3234  -12.5669 C   0  0  2  0  0  0  0  0  0  0  0  0
   25.9150  -20.7430  -13.5482 N   0  0  0  0  0  0  0  0  0  0  0  0
   23.7308  -20.6056  -12.5068 C   0  0  0  0  0  0  0  0  0  0  0  0
   23.6743  -19.3773  -12.2882 O   0  0  0  0  0  0  0  0  0  0  0  0
   21.2550  -20.2408  -15.1969 C   0  0  0  0  0  0  0  0  0  0  0  0
   21.0502  -19.6937  -13.7899 C   0  0  1  0  0  0  0  0  0  0  0  0
   19.6954  -19.2627  -13.7875 O   0  0  0  0  0  0  0  0  0  0  0  0
   21.2138  -20.7998  -12.8177 C   0  0  2  0  0  0  0  0  0  0  0  0
   22.5312  -21.3234  -12.6990 N   0  0  0  0  0  0  0  0  0  0  0  0
   20.1469  -21.8263  -13.0198 C   0  0  0  0  0  0  0  0  0  0  0  0
   20.4202  -23.0226  -13.2962 O   0  0  0  0  0  0  0  0  0  0  0  0
   18.8011  -21.5280  -12.9206 O   0  0  0  0  0  0  0  0  0  0  0  0
  2  1  1  6
  2  3  1  0
  3  4  1  0
  4  8  1  0
  4  5  2  0
  5  6  1  0
  7  6  1  0
  8  7  2  0
  9  2  1  0
  9 13  1  0
 10  9  2  0
 12 11  1  1
 12 13  1  0
 12 14  1  0
 14 20  1  0
 15 14  2  0
 17 18  1  0
 17 16  1  6
 19 17  1  0
 19 20  1  6
 21 19  1  0
 21 23  1  0
 22 21  2  0
M  END
$$$$
