HAT.pdb
     RDKit          3D

 23 23  0  0  1  0  0  0  0  0999 V2000
   22.1840  -13.2234  -16.9333 N   0  0  0  0  0  0  0  0  0  0  0  0
   21.4242  -12.0488  -17.2795 C   0  0  1  0  0  0  0  0  0  0  0  0
   20.0206  -12.2045  -16.7797 C   0  0  0  0  0  0  0  0  0  0  0  0
   19.3974  -13.3288  -17.5266 C   0  0  0  0  0  0  0  0  0  0  0  0
   18.9758  -13.3524  -18.8549 C   0  0  0  0  0  0  0  0  0  0  0  0
   18.4639  -14.5688  -19.1414 N   0  0  0  0  0  0  0  0  0  0  0  0
   18.5520  -15.3103  -18.0305 C   0  0  0  0  0  0  0  0  0  0  0  0
   19.1051  -14.5778  -17.0713 N   0  0  0  0  0  0  0  0  0  0  0  0
   22.1025  -10.8524  -16.7166 C   0  0  0  0  0  0  0  0  0  0  0  0
   22.2241  -10.6855  -15.4712 O   0  0  0  0  0  0  0  0  0  0  0  0
   24.0829   -7.8935  -18.0341 C   0  0  0  0  0  0  0  0  0  0  0  0
   23.2117   -8.6124  -17.0430 C   0  0  2  0  0  0  0  0  0  0  0  0
   22.6534   -9.8273  -17.5410 N   0  0  0  0  0  0  0  0  0  0  0  0
   22.1351   -7.6815  -16.5404 C   0  0  0  0  0  0  0  0  0  0  0  0
   21.1191   -7.4442  -17.2269 O   0  0  0  0  0  0  0  0  0  0  0  0
   19.8417   -7.9902  -14.1891 C   0  0  0  0  0  0  0  0  0  0  0  0
   20.4755   -6.7213  -13.6332 C   0  0  1  0  0  0  0  0  0  0  0  0
   21.2505   -7.1826  -12.5342 O   0  0  0  0  0  0  0  0  0  0  0  0
   21.3758   -6.1463  -14.6601 C   0  0  2  0  0  0  0  0  0  0  0  0
   22.2687   -7.0653  -15.2781 N   0  0  0  0  0  0  0  0  0  0  0  0
   22.0174   -4.8995  -14.1436 C   0  0  0  0  0  0  0  0  0  0  0  0
   23.2670   -4.7803  -14.0624 O   0  0  0  0  0  0  0  0  0  0  0  0
   21.2839   -3.8069  -13.7215 O   0  0  0  0  0  0  0  0  0  0  0  0
  2  1  1  1
  2  3  1  0
  3  4  1  0
  4  8  1  0
  4  5  2  0
  5  6  1  0
  7  6  1  0
  8  7  2  0
  9  2  1  0
  9 13  1  0
 10  9  2  0
 12 11  1  6
 12 13  1  0
 12 14  1  0
 14 20  1  0
 15 14  2  0
 17 18  1  0
 17 16  1  6
 19 17  1  0
 19 20  1  1
 21 19  1  0
 21 23  1  0
 22 21  2  0
M  END
$$$$
