HAT.pdb
     RDKit          3D

 23 23  0  0  1  0  0  0  0  0999 V2000
   19.8583  -14.6513  -17.6346 N   0  0  0  0  0  0  0  0  0  0  0  0
   19.2807  -13.9624  -16.5084 C   0  0  1  0  0  0  0  0  0  0  0  0
   19.9883  -14.3835  -15.2569 C   0  0  0  0  0  0  0  0  0  0  0  0
   19.7471  -15.8385  -15.0697 C   0  0  0  0  0  0  0  0  0  0  0  0
   18.5299  -16.4953  -14.8968 C   0  0  0  0  0  0  0  0  0  0  0  0
   18.7507  -17.8207  -14.7614 N   0  0  0  0  0  0  0  0  0  0  0  0
   20.0724  -18.0154  -14.8444 C   0  0  0  0  0  0  0  0  0  0  0  0
   20.6658  -16.8420  -15.0272 N   0  0  0  0  0  0  0  0  0  0  0  0
   19.3615  -12.4976  -16.7458 C   0  0  0  0  0  0  0  0  0  0  0  0
   20.4633  -11.9234  -16.9694 O   0  0  0  0  0  0  0  0  0  0  0  0
   16.9077   -9.6958  -17.4330 C   0  0  0  0  0  0  0  0  0  0  0  0
   18.2367  -10.2575  -17.0133 C   0  0  2  0  0  0  0  0  0  0  0  0
   18.2096  -11.6569  -16.7361 N   0  0  0  0  0  0  0  0  0  0  0  0
   18.7720   -9.4775  -15.8372 C   0  0  0  0  0  0  0  0  0  0  0  0
   18.4898   -9.8066  -14.6659 O   0  0  0  0  0  0  0  0  0  0  0  0
   22.3601   -8.6845  -15.1535 C   0  0  0  0  0  0  0  0  0  0  0  0
   21.6720   -7.3268  -15.2172 C   0  0  1  0  0  0  0  0  0  0  0  0
   21.9570   -6.8635  -16.5307 O   0  0  0  0  0  0  0  0  0  0  0  0
   20.2104   -7.5237  -15.0737 C   0  0  2  0  0  0  0  0  0  0  0  0
   19.6040   -8.3585  -16.0530 N   0  0  0  0  0  0  0  0  0  0  0  0
   19.5313   -6.2094  -14.8626 C   0  0  0  0  0  0  0  0  0  0  0  0
   18.6687   -5.7711  -15.6663 O   0  0  0  0  0  0  0  0  0  0  0  0
   19.8086   -5.3957  -13.7805 O   0  0  0  0  0  0  0  0  0  0  0  0
  2  1  1  6
  2  3  1  0
  3  4  1  0
  4  8  1  0
  4  5  2  0
  5  6  1  0
  7  6  1  0
  8  7  2  0
  9  2  1  0
  9 13  1  0
 10  9  2  0
 12 11  1  1
 12 13  1  0
 12 14  1  0
 14 20  1  0
 15 14  2  0
 17 18  1  0
 17 16  1  6
 19 17  1  0
 19 20  1  6
 21 19  1  0
 21 23  1  0
 22 21  2  0
M  END
$$$$
