HAT.pdb
     RDKit          3D

 23 23  0  0  1  0  0  0  0  0999 V2000
   19.2199  -11.7623  -18.1460 N   0  0  0  0  0  0  0  0  0  0  0  0
   20.1920  -10.7297  -18.4018 C   0  0  1  0  0  0  0  0  0  0  0  0
   19.6179   -9.7410  -19.3699 C   0  0  0  0  0  0  0  0  0  0  0  0
   19.4489  -10.4329  -20.6749 C   0  0  0  0  0  0  0  0  0  0  0  0
   20.4272  -10.7490  -21.6161 C   0  0  0  0  0  0  0  0  0  0  0  0
   19.8540  -11.3777  -22.6649 N   0  0  0  0  0  0  0  0  0  0  0  0
   18.5430  -11.4657  -22.4093 C   0  0  0  0  0  0  0  0  0  0  0  0
   18.2998  -10.9064  -21.2301 N   0  0  0  0  0  0  0  0  0  0  0  0
   20.5835  -10.1055  -17.1113 C   0  0  0  0  0  0  0  0  0  0  0  0
   19.7354   -9.5434  -16.3640 O   0  0  0  0  0  0  0  0  0  0  0  0
   23.6905   -9.9674  -14.9356 C   0  0  0  0  0  0  0  0  0  0  0  0
   22.3516   -9.4903  -15.4231 C   0  0  2  0  0  0  0  0  0  0  0  0
   21.9298  -10.1025  -16.6409 N   0  0  0  0  0  0  0  0  0  0  0  0
   22.3581   -7.9856  -15.5412 C   0  0  0  0  0  0  0  0  0  0  0  0
   22.8489   -7.4218  -16.5417 O   0  0  0  0  0  0  0  0  0  0  0  0
   20.2071   -5.5414  -16.2311 C   0  0  0  0  0  0  0  0  0  0  0  0
   20.5652   -5.0952  -14.8191 C   0  0  1  0  0  0  0  0  0  0  0  0
   19.4842   -5.5720  -14.0284 O   0  0  0  0  0  0  0  0  0  0  0  0
   21.8136   -5.7767  -14.4038 C   0  0  2  0  0  0  0  0  0  0  0  0
   21.8042   -7.1951  -14.5119 N   0  0  0  0  0  0  0  0  0  0  0  0
   22.2728   -5.2515  -13.0824 C   0  0  0  0  0  0  0  0  0  0  0  0
   22.3777   -5.9943  -12.0727 O   0  0  0  0  0  0  0  0  0  0  0  0
   22.6056   -3.9247  -12.8857 O   0  0  0  0  0  0  0  0  0  0  0  0
  2  1  1  1
  2  3  1  0
  3  4  1  0
  4  8  1  0
  4  5  2  0
  5  6  1  0
  7  6  1  0
  8  7  2  0
  9  2  1  0
  9 13  1  0
 10  9  2  0
 12 11  1  6
 12 13  1  0
 12 14  1  0
 14 20  1  0
 15 14  2  0
 17 18  1  0
 17 16  1  6
 19 17  1  0
 19 20  1  1
 21 19  1  0
 21 23  1  0
 22 21  2  0
M  END
$$$$
