HAT.pdb
     RDKit          3D

 23 23  0  0  1  0  0  0  0  0999 V2000
   18.4080  -11.9091  -16.7329 N   0  0  0  0  0  0  0  0  0  0  0  0
   19.3084  -10.9470  -17.3163 C   0  0  1  0  0  0  0  0  0  0  0  0
   18.5698  -10.1360  -18.3366 C   0  0  0  0  0  0  0  0  0  0  0  0
   18.2471  -11.0320  -19.4781 C   0  0  0  0  0  0  0  0  0  0  0  0
   18.8980  -11.1313  -20.7067 C   0  0  0  0  0  0  0  0  0  0  0  0
   18.2875  -12.0688  -21.4631 N   0  0  0  0  0  0  0  0  0  0  0  0
   17.2713  -12.5615  -20.7445 C   0  0  0  0  0  0  0  0  0  0  0  0
   17.2448  -11.9487  -19.5671 N   0  0  0  0  0  0  0  0  0  0  0  0
   19.8896  -10.1118  -16.2332 C   0  0  0  0  0  0  0  0  0  0  0  0
   19.1698   -9.3594  -15.5194 O   0  0  0  0  0  0  0  0  0  0  0  0
   23.2117   -9.8624  -14.4350 C   0  0  0  0  0  0  0  0  0  0  0  0
   21.8784   -9.3398  -14.8903 C   0  0  2  0  0  0  0  0  0  0  0  0
   21.2843  -10.1083  -15.9354 N   0  0  0  0  0  0  0  0  0  0  0  0
   22.0067   -7.8884  -15.2840 C   0  0  0  0  0  0  0  0  0  0  0  0
   22.5108   -7.5618  -16.3790 O   0  0  0  0  0  0  0  0  0  0  0  0
   19.9866   -5.4048  -16.2952 C   0  0  0  0  0  0  0  0  0  0  0  0
   20.4972   -4.7448  -15.0206 C   0  0  1  0  0  0  0  0  0  0  0  0
   19.4409   -4.9424  -14.0898 O   0  0  0  0  0  0  0  0  0  0  0  0
   21.7022   -5.4706  -14.5552 C   0  0  2  0  0  0  0  0  0  0  0  0
   21.5536   -6.8779  -14.4096 N   0  0  0  0  0  0  0  0  0  0  0  0
   22.2975   -4.7772  -13.3730 C   0  0  0  0  0  0  0  0  0  0  0  0
   22.4051   -5.3442  -12.2553 O   0  0  0  0  0  0  0  0  0  0  0  0
   22.7608   -3.4765  -13.4307 O   0  0  0  0  0  0  0  0  0  0  0  0
  2  1  1  1
  2  3  1  0
  3  4  1  0
  4  8  1  0
  4  5  2  0
  5  6  1  0
  7  6  1  0
  8  7  2  0
  9  2  1  0
  9 13  1  0
 10  9  2  0
 12 11  1  6
 12 13  1  0
 12 14  1  0
 14 20  1  0
 15 14  2  0
 17 18  1  0
 17 16  1  6
 19 17  1  0
 19 20  1  1
 21 19  1  0
 21 23  1  0
 22 21  2  0
M  END
$$$$
