DDN.pdb
     RDKit          3D

 25 24  0  0  1  0  0  0  0  0999 V2000
    9.9598  -19.5176   18.6984 N   0  0  0  0  0  0  0  0  0  0  0  0
   10.3943  -18.2209   19.1491 C   0  0  1  0  0  0  0  0  0  0  0  0
    9.1902  -17.2853   18.9705 C   0  0  0  0  0  0  0  0  0  0  0  0
    8.9397  -17.1856   17.5249 C   0  0  0  0  0  0  0  0  0  0  0  0
    9.8736  -17.0060   16.7102 O   0  0  0  0  0  0  0  0  0  0  0  0
   10.7615  -18.2292   20.5985 C   0  0  0  0  0  0  0  0  0  0  0  0
   10.2216  -19.0694   21.3631 O   0  0  0  0  0  0  0  0  0  0  0  0
    7.6509  -17.2906   17.0418 O   0  0  0  0  0  0  0  0  0  0  0  0
   11.6914  -17.3351   21.1612 N   0  0  0  0  0  0  0  0  0  0  0  0
   12.0540  -17.4242   22.5918 C   0  0  1  0  0  0  0  0  0  0  0  0
   13.4552  -16.9062   22.7493 C   0  0  0  0  0  0  0  0  0  0  0  0
   14.4735  -17.7112   22.0650 C   0  0  0  0  0  0  0  0  0  0  0  0
   15.1841  -17.1424   21.1902 O   0  0  0  0  0  0  0  0  0  0  0  0
   11.0301  -16.7387   23.3928 C   0  0  0  0  0  0  0  0  0  0  0  0
   10.8294  -15.4976   23.1100 O   0  0  0  0  0  0  0  0  0  0  0  0
   14.6255  -19.0436   22.3893 O   0  0  0  0  0  0  0  0  0  0  0  0
    6.3033  -18.2937   25.5344 N   0  0  0  0  0  0  0  0  0  0  0  0
    7.4598  -17.9766   24.7921 C   0  0  0  0  0  0  0  0  0  0  0  0
    8.0541  -18.8433   24.0899 O   0  0  0  0  0  0  0  0  0  0  0  0
    7.9911  -16.6041   24.8329 C   0  0  0  0  0  0  0  0  0  0  0  0
    9.4309  -16.5219   25.3022 C   0  0  2  0  0  0  0  0  0  0  0  0
   10.2593  -17.3224   24.4276 N   0  0  0  0  0  0  0  0  0  0  0  0
    9.6047  -16.8510   26.7306 C   0  0  0  0  0  0  0  0  0  0  0  0
    8.9226  -16.1853   27.7326 O   0  0  0  0  0  0  0  0  0  0  0  0
   10.3921  -17.7617   27.0816 O   0  0  0  0  0  0  0  0  0  0  0  0
  2  1  1  1
  2  6  1  0
  3  2  1  0
  4  3  1  0
  4  8  1  0
  5  4  2  0
  6  7  2  0
  9  6  1  0
  9 10  1  0
 10 14  1  0
 10 11  1  6
 12 16  1  0
 12 11  1  0
 13 12  2  0
 14 15  2  0
 14 22  1  0
 18 19  2  0
 18 17  1  0
 21 20  1  6
 20 18  1  0
 21 23  1  0
 22 21  1  0
 23 24  1  0
 25 23  2  0
M  END
$$$$
