DDN.pdb
     RDKit          3D

 25 24  0  0  1  0  0  0  0  0999 V2000
   10.7079  -18.5769   18.5911 N   0  0  0  0  0  0  0  0  0  0  0  0
   11.2280  -19.7532   19.2383 C   0  0  1  0  0  0  0  0  0  0  0  0
   11.8156  -20.6265   18.1206 C   0  0  0  0  0  0  0  0  0  0  0  0
   10.7865  -20.7287   17.0752 C   0  0  0  0  0  0  0  0  0  0  0  0
   10.5171  -19.7622   16.3259 O   0  0  0  0  0  0  0  0  0  0  0  0
   12.3300  -19.4223   20.1932 C   0  0  0  0  0  0  0  0  0  0  0  0
   12.7318  -20.3041   20.9952 O   0  0  0  0  0  0  0  0  0  0  0  0
   10.0942  -21.9109   16.9054 O   0  0  0  0  0  0  0  0  0  0  0  0
   12.9504  -18.1601   20.2439 N   0  0  0  0  0  0  0  0  0  0  0  0
   13.9561  -17.8544   21.2837 C   0  0  1  0  0  0  0  0  0  0  0  0
   14.9670  -16.9148   20.6905 C   0  0  0  0  0  0  0  0  0  0  0  0
   15.8761  -17.5425   19.7246 C   0  0  0  0  0  0  0  0  0  0  0  0
   15.5031  -17.6062   18.5202 O   0  0  0  0  0  0  0  0  0  0  0  0
   13.2710  -17.3701   22.4903 C   0  0  0  0  0  0  0  0  0  0  0  0
   14.0202  -17.1520   23.5158 O   0  0  0  0  0  0  0  0  0  0  0  0
   17.0918  -18.0373   20.1494 O   0  0  0  0  0  0  0  0  0  0  0  0
   10.3345  -14.4164   25.0265 N   0  0  0  0  0  0  0  0  0  0  0  0
    9.4252  -15.1260   24.2149 C   0  0  0  0  0  0  0  0  0  0  0  0
    8.2759  -14.6697   23.9529 O   0  0  0  0  0  0  0  0  0  0  0  0
    9.8197  -16.4301   23.6570 C   0  0  0  0  0  0  0  0  0  0  0  0
   11.2806  -16.7712   23.8796 C   0  0  2  0  0  0  0  0  0  0  0  0
   11.8814  -17.1256   22.6125 N   0  0  0  0  0  0  0  0  0  0  0  0
   11.4952  -17.7863   24.9295 C   0  0  0  0  0  0  0  0  0  0  0  0
   11.3822  -19.1424   24.6832 O   0  0  0  0  0  0  0  0  0  0  0  0
   11.7914  -17.4394   26.0976 O   0  0  0  0  0  0  0  0  0  0  0  0
  2  1  1  6
  2  6  1  0
  3  2  1  0
  4  3  1  0
  4  8  1  0
  5  4  2  0
  6  7  2  0
  9  6  1  0
  9 10  1  0
 10 14  1  0
 10 11  1  6
 12 16  1  0
 12 11  1  0
 13 12  2  0
 14 15  2  0
 14 22  1  0
 18 19  2  0
 18 17  1  0
 21 20  1  6
 20 18  1  0
 21 23  1  0
 22 21  1  0
 23 24  1  0
 25 23  2  0
M  END
$$$$
