DDN.pdb
     RDKit          3D

 25 24  0  0  1  0  0  0  0  0999 V2000
   10.1622  -17.8562   18.6690 N   0  0  0  0  0  0  0  0  0  0  0  0
    8.9824  -17.0402   18.5458 C   0  0  1  0  0  0  0  0  0  0  0  0
    7.9764  -17.8701   17.7355 C   0  0  0  0  0  0  0  0  0  0  0  0
    8.3412  -17.7165   16.3193 C   0  0  0  0  0  0  0  0  0  0  0  0
    9.3998  -17.1428   15.9751 O   0  0  0  0  0  0  0  0  0  0  0  0
    8.3694  -16.7426   19.8767 C   0  0  0  0  0  0  0  0  0  0  0  0
    7.1258  -16.5710   19.9545 O   0  0  0  0  0  0  0  0  0  0  0  0
    7.5070  -18.2113   15.3371 O   0  0  0  0  0  0  0  0  0  0  0  0
    9.1193  -16.6426   21.0635 N   0  0  0  0  0  0  0  0  0  0  0  0
    8.8546  -17.5478   22.2023 C   0  0  1  0  0  0  0  0  0  0  0  0
    8.2327  -18.8041   21.6625 C   0  0  0  0  0  0  0  0  0  0  0  0
    7.7645  -19.7345   22.6962 C   0  0  0  0  0  0  0  0  0  0  0  0
    7.1041  -19.2589   23.6612 O   0  0  0  0  0  0  0  0  0  0  0  0
   10.0940  -17.7324   22.9702 C   0  0  0  0  0  0  0  0  0  0  0  0
   10.0149  -18.5165   23.9898 O   0  0  0  0  0  0  0  0  0  0  0  0
    8.0525  -21.0794   22.5888 O   0  0  0  0  0  0  0  0  0  0  0  0
   13.5192  -15.7767   20.8390 N   0  0  0  0  0  0  0  0  0  0  0  0
   14.1625  -16.2432   22.0043 C   0  0  0  0  0  0  0  0  0  0  0  0
   15.1069  -15.5982   22.5424 O   0  0  0  0  0  0  0  0  0  0  0  0
   13.7267  -17.5112   22.6122 C   0  0  0  0  0  0  0  0  0  0  0  0
   12.5092  -17.3719   23.5058 C   0  0  2  0  0  0  0  0  0  0  0  0
   11.3441  -17.1322   22.6829 N   0  0  0  0  0  0  0  0  0  0  0  0
   12.6782  -16.3739   24.5801 C   0  0  0  0  0  0  0  0  0  0  0  0
   13.6524  -16.4920   25.5545 O   0  0  0  0  0  0  0  0  0  0  0  0
   11.9272  -15.3714   24.6401 O   0  0  0  0  0  0  0  0  0  0  0  0
  2  1  1  1
  2  6  1  0
  3  2  1  0
  4  3  1  0
  4  8  1  0
  5  4  2  0
  6  7  2  0
  9  6  1  0
  9 10  1  0
 10 14  1  0
 10 11  1  6
 12 16  1  0
 12 11  1  0
 13 12  2  0
 14 15  2  0
 14 22  1  0
 18 19  2  0
 18 17  1  0
 21 20  1  6
 20 18  1  0
 21 23  1  0
 22 21  1  0
 23 24  1  0
 25 23  2  0
M  END
$$$$
