DDN.pdb
     RDKit          3D

 25 24  0  0  1  0  0  0  0  0999 V2000
   11.1006  -16.4849   21.3580 N   0  0  0  0  0  0  0  0  0  0  0  0
    9.8797  -15.7315   21.4794 C   0  0  1  0  0  0  0  0  0  0  0  0
    9.0500  -16.0658   20.2316 C   0  0  0  0  0  0  0  0  0  0  0  0
   10.0045  -16.3782   19.1574 C   0  0  0  0  0  0  0  0  0  0  0  0
    9.6177  -16.7647   18.0308 O   0  0  0  0  0  0  0  0  0  0  0  0
    9.0903  -16.1401   22.6817 C   0  0  0  0  0  0  0  0  0  0  0  0
    8.0011  -15.5605   22.9262 O   0  0  0  0  0  0  0  0  0  0  0  0
   11.3600  -16.2466   19.3827 O   0  0  0  0  0  0  0  0  0  0  0  0
    9.5060  -17.1522   23.5670 N   0  0  0  0  0  0  0  0  0  0  0  0
    8.7450  -17.4336   24.8030 C   0  0  1  0  0  0  0  0  0  0  0  0
    8.2417  -18.8469   24.7272 C   0  0  0  0  0  0  0  0  0  0  0  0
    7.5273  -19.2952   25.9280 C   0  0  0  0  0  0  0  0  0  0  0  0
    6.4963  -20.0061   25.7690 O   0  0  0  0  0  0  0  0  0  0  0  0
    9.5839  -17.1202   25.9683 C   0  0  0  0  0  0  0  0  0  0  0  0
   10.7954  -17.5573   25.9257 O   0  0  0  0  0  0  0  0  0  0  0  0
    7.9920  -18.9352   27.1762 O   0  0  0  0  0  0  0  0  0  0  0  0
    8.3891  -13.1116   27.5831 N   0  0  0  0  0  0  0  0  0  0  0  0
    9.6373  -13.6655   27.9357 C   0  0  0  0  0  0  0  0  0  0  0  0
   10.7202  -13.2042   27.4751 O   0  0  0  0  0  0  0  0  0  0  0  0
    9.6851  -14.8084   28.8625 C   0  0  0  0  0  0  0  0  0  0  0  0
   10.0853  -16.1131   28.2008 C   0  0  2  0  0  0  0  0  0  0  0  0
    9.1763  -16.3877   27.1098 N   0  0  0  0  0  0  0  0  0  0  0  0
   10.2150  -17.2382   29.1475 C   0  0  0  0  0  0  0  0  0  0  0  0
   11.1125  -17.2216   30.1995 O   0  0  0  0  0  0  0  0  0  0  0  0
    9.5005  -18.2609   29.0206 O   0  0  0  0  0  0  0  0  0  0  0  0
  2  1  1  6
  2  6  1  0
  3  2  1  0
  4  3  1  0
  4  8  1  0
  5  4  2  0
  6  7  2  0
  9  6  1  0
  9 10  1  0
 10 14  1  0
 10 11  1  1
 12 16  1  0
 12 11  1  0
 13 12  2  0
 14 15  2  0
 14 22  1  0
 18 19  2  0
 18 17  1  0
 21 20  1  1
 20 18  1  0
 21 23  1  0
 22 21  1  0
 23 24  1  0
 25 23  2  0
M  END
$$$$
