DDN.pdb
     RDKit          3D

 25 24  0  0  1  0  0  0  0  0999 V2000
   15.8863  -12.7363   15.7197 N   0  0  0  0  0  0  0  0  0  0  0  0
   16.1844  -13.6275   16.8105 C   0  0  1  0  0  0  0  0  0  0  0  0
   17.2168  -12.8988   17.6825 C   0  0  0  0  0  0  0  0  0  0  0  0
   18.4403  -12.7720   16.8768 C   0  0  0  0  0  0  0  0  0  0  0  0
   18.8823  -11.6527   16.5303 O   0  0  0  0  0  0  0  0  0  0  0  0
   14.9792  -13.9000   17.6524 C   0  0  0  0  0  0  0  0  0  0  0  0
   14.1918  -12.9563   17.9198 O   0  0  0  0  0  0  0  0  0  0  0  0
   19.1269  -13.9044   16.4869 O   0  0  0  0  0  0  0  0  0  0  0  0
   14.6740  -15.1731   18.1692 N   0  0  0  0  0  0  0  0  0  0  0  0
   13.4365  -15.3953   18.9472 C   0  0  1  0  0  0  0  0  0  0  0  0
   12.6621  -16.4981   18.2834 C   0  0  0  0  0  0  0  0  0  0  0  0
   11.5428  -17.0107   19.0820 C   0  0  0  0  0  0  0  0  0  0  0  0
   10.5841  -16.2259   19.3244 O   0  0  0  0  0  0  0  0  0  0  0  0
   13.7867  -15.6246   20.3560 C   0  0  0  0  0  0  0  0  0  0  0  0
   14.4370  -16.7085   20.6068 O   0  0  0  0  0  0  0  0  0  0  0  0
   11.5663  -18.3124   19.5385 O   0  0  0  0  0  0  0  0  0  0  0  0
   12.6444  -16.3238   25.2660 N   0  0  0  0  0  0  0  0  0  0  0  0
   11.7091  -16.5286   24.2304 C   0  0  0  0  0  0  0  0  0  0  0  0
   10.6432  -17.1807   24.4204 O   0  0  0  0  0  0  0  0  0  0  0  0
   11.9764  -15.9711   22.8943 C   0  0  0  0  0  0  0  0  0  0  0  0
   13.3148  -15.2663   22.7847 C   0  0  2  0  0  0  0  0  0  0  0  0
   13.4758  -14.7649   21.4376 N   0  0  0  0  0  0  0  0  0  0  0  0
   14.4528  -16.0891   23.2394 C   0  0  0  0  0  0  0  0  0  0  0  0
   15.4679  -15.5787   24.0277 O   0  0  0  0  0  0  0  0  0  0  0  0
   14.5320  -17.2982   22.9160 O   0  0  0  0  0  0  0  0  0  0  0  0
  2  1  1  6
  2  6  1  0
  3  2  1  0
  4  3  1  0
  4  8  1  0
  5  4  2  0
  6  7  2  0
  9  6  1  0
  9 10  1  0
 10 14  1  0
 10 11  1  6
 12 16  1  0
 12 11  1  0
 13 12  2  0
 14 15  2  0
 14 22  1  0
 18 19  2  0
 18 17  1  0
 21 20  1  6
 20 18  1  0
 21 23  1  0
 22 21  1  0
 23 24  1  0
 25 23  2  0
M  END
$$$$
