MYW.pdb
     RDKit          3D

 35 37  0  0  1  0  0  0  0  0999 V2000
    6.5068  -12.2673   18.5218 C   0  0  0  0  0  0  0  0  0  0  0  0
    7.4810  -13.7260   18.0742 S   0  0  0  0  0  0  0  0  0  0  0  0
    7.5139  -14.9111   19.4555 C   0  0  0  0  0  0  0  0  0  0  0  0
    8.4631  -16.0313   19.1067 C   0  0  0  0  0  0  0  0  0  0  0  0
    8.5248  -17.0477   20.2328 C   0  0  2  0  0  0  0  0  0  0  0  0
    7.4328  -16.7783   21.1836 N   0  0  0  0  0  0  0  0  0  0  0  0
    9.7876  -16.8956   21.0038 C   0  0  0  0  0  0  0  0  0  0  0  0
   10.8513  -17.4687   20.6576 O   0  0  0  0  0  0  0  0  0  0  0  0
   14.9517  -14.9890   17.9875 O   0  0  0  0  0  0  0  0  0  0  0  0
   14.1651  -14.9243   19.1281 C   0  0  0  0  0  0  0  0  0  0  0  0
   12.9555  -14.2615   19.0909 C   0  0  0  0  0  0  0  0  0  0  0  0
   12.1208  -14.1533   20.1757 C   0  0  0  0  0  0  0  0  0  0  0  0
   12.5436  -14.7529   21.3585 C   0  0  0  0  0  0  0  0  0  0  0  0
   11.7401  -14.6970   22.5682 C   0  0  0  0  0  0  0  0  0  0  0  0
   11.0665  -15.9723   22.9811 C   0  0  2  0  0  0  0  0  0  0  0  0
    9.8645  -16.0938   22.1766 N   0  0  0  0  0  0  0  0  0  0  0  0
   10.6332  -15.9158   24.4025 C   0  0  0  0  0  0  0  0  0  0  0  0
   10.6324  -14.8162   25.0475 O   0  0  0  0  0  0  0  0  0  0  0  0
   13.7574  -15.4221   21.4089 C   0  0  0  0  0  0  0  0  0  0  0  0
   14.5672  -15.5098   20.3018 C   0  0  0  0  0  0  0  0  0  0  0  0
   10.2119  -17.0740   25.0752 N   0  0  0  0  0  0  0  0  0  0  0  0
    9.9526  -17.0689   26.5310 C   0  0  1  0  0  0  0  0  0  0  0  0
    8.4826  -17.2286   26.7275 C   0  0  0  0  0  0  0  0  0  0  0  0
    7.6698  -16.1506   26.1781 C   0  0  0  0  0  0  0  0  0  0  0  0
    6.6195  -16.3046   25.2757 C   0  0  0  0  0  0  0  0  0  0  0  0
    6.1405  -15.0861   24.9776 N   0  0  0  0  0  0  0  0  0  0  0  0
    6.8415  -14.1520   25.6543 C   0  0  0  0  0  0  0  0  0  0  0  0
    6.7324  -12.7793   25.7058 C   0  0  0  0  0  0  0  0  0  0  0  0
    7.5662  -12.0279   26.5031 C   0  0  0  0  0  0  0  0  0  0  0  0
    8.5343  -12.6406   27.2715 C   0  0  0  0  0  0  0  0  0  0  0  0
    8.6138  -14.0125   27.1936 C   0  0  0  0  0  0  0  0  0  0  0  0
    7.8016  -14.8012   26.4100 C   0  0  0  0  0  0  0  0  0  0  0  0
   10.7615  -18.0782   27.1817 C   0  0  0  0  0  0  0  0  0  0  0  0
   11.4451  -18.9096   26.5620 O   0  0  0  0  0  0  0  0  0  0  0  0
   10.7936  -18.1427   28.5785 O   0  0  0  0  0  0  0  0  0  0  0  0
  2  1  1  0
  3  2  1  0
  4  3  1  0
  5  4  1  0
  5  6  1  1
  7  5  1  0
  7  8  2  0
  9 10  1  0
 10 11  2  0
 10 20  1  0
 11 12  1  0
 12 13  2  0
 13 14  1  0
 15 14  1  6
 15 17  1  0
 15 16  1  0
 16  7  1  0
 17 21  1  0
 18 17  2  0
 19 13  1  0
 20 19  2  0
 21 22  1  0
 22 33  1  0
 23 24  1  0
 22 23  1  6
 24 25  2  0
 26 25  1  0
 27 26  1  0
 28 27  2  0
 29 28  1  0
 30 29  2  0
 30 31  1  0
 31 32  2  0
 32 27  1  0
 32 24  1  0
 33 34  2  0
 33 35  1  0
M  END
$$$$
