MYW.pdb
     RDKit          3D

 35 37  0  0  1  0  0  0  0  0999 V2000
    6.7246  -12.7105   19.2017 C   0  0  0  0  0  0  0  0  0  0  0  0
    8.1129  -13.8563   19.3936 S   0  0  0  0  0  0  0  0  0  0  0  0
    7.5849  -15.5565   19.0142 C   0  0  0  0  0  0  0  0  0  0  0  0
    8.7782  -16.4715   19.1425 C   0  0  0  0  0  0  0  0  0  0  0  0
    8.6989  -17.2735   20.4292 C   0  0  2  0  0  0  0  0  0  0  0  0
    7.9353  -16.5059   21.4276 N   0  0  0  0  0  0  0  0  0  0  0  0
   10.0553  -17.4655   21.0083 C   0  0  0  0  0  0  0  0  0  0  0  0
   10.9284  -18.1675   20.4386 O   0  0  0  0  0  0  0  0  0  0  0  0
   14.5966  -14.2835   17.4783 O   0  0  0  0  0  0  0  0  0  0  0  0
   14.0290  -14.5575   18.7139 C   0  0  0  0  0  0  0  0  0  0  0  0
   12.7607  -14.0976   19.0037 C   0  0  0  0  0  0  0  0  0  0  0  0
   12.1307  -14.3267   20.2019 C   0  0  0  0  0  0  0  0  0  0  0  0
   12.8322  -15.0630   21.1522 C   0  0  0  0  0  0  0  0  0  0  0  0
   12.2618  -15.3611   22.4553 C   0  0  0  0  0  0  0  0  0  0  0  0
   11.8218  -16.7772   22.6826 C   0  0  2  0  0  0  0  0  0  0  0  0
   10.4426  -16.8666   22.2393 N   0  0  0  0  0  0  0  0  0  0  0  0
   11.8353  -17.1187   24.1299 C   0  0  0  0  0  0  0  0  0  0  0  0
   12.8592  -16.8842   24.8523 O   0  0  0  0  0  0  0  0  0  0  0  0
   14.1077  -15.5308   20.8732 C   0  0  0  0  0  0  0  0  0  0  0  0
   14.7069  -15.2817   19.6616 C   0  0  0  0  0  0  0  0  0  0  0  0
   10.7188  -17.7099   24.7424 N   0  0  0  0  0  0  0  0  0  0  0  0
   10.1049  -17.1261   25.9543 C   0  0  1  0  0  0  0  0  0  0  0  0
    9.8787  -15.6754   25.6909 C   0  0  0  0  0  0  0  0  0  0  0  0
    8.5070  -15.2231   25.8869 C   0  0  0  0  0  0  0  0  0  0  0  0
    7.3686  -16.0216   25.8000 C   0  0  0  0  0  0  0  0  0  0  0  0
    6.2938  -15.2437   26.0071 N   0  0  0  0  0  0  0  0  0  0  0  0
    6.6960  -13.9739   26.2252 C   0  0  0  0  0  0  0  0  0  0  0  0
    5.9925  -12.8213   26.5000 C   0  0  0  0  0  0  0  0  0  0  0  0
    6.6399  -11.6245   26.7095 C   0  0  0  0  0  0  0  0  0  0  0  0
    8.0164  -11.5566   26.6476 C   0  0  0  0  0  0  0  0  0  0  0  0
    8.6847  -12.7274   26.3701 C   0  0  0  0  0  0  0  0  0  0  0  0
    8.0774  -13.9439   26.1537 C   0  0  0  0  0  0  0  0  0  0  0  0
    8.9137  -17.8672   26.3122 C   0  0  0  0  0  0  0  0  0  0  0  0
    8.3020  -17.7024   27.3806 O   0  0  0  0  0  0  0  0  0  0  0  0
    8.4035  -18.8234   25.4282 O   0  0  0  0  0  0  0  0  0  0  0  0
  2  1  1  0
  3  2  1  0
  4  3  1  0
  5  4  1  0
  5  6  1  1
  7  5  1  0
  7  8  2  0
  9 10  1  0
 10 11  2  0
 10 20  1  0
 11 12  1  0
 12 13  2  0
 13 14  1  0
 15 14  1  1
 15 17  1  0
 15 16  1  0
 16  7  1  0
 17 21  1  0
 18 17  2  0
 19 13  1  0
 20 19  2  0
 21 22  1  0
 22 33  1  0
 23 24  1  0
 22 23  1  6
 24 25  2  0
 26 25  1  0
 27 26  1  0
 28 27  2  0
 29 28  1  0
 30 29  2  0
 30 31  1  0
 31 32  2  0
 32 27  1  0
 32 24  1  0
 33 34  2  0
 33 35  1  0
M  END
$$$$
