MYW.pdb
     RDKit          3D

 35 37  0  0  1  0  0  0  0  0999 V2000
    8.5297  -16.6793   14.4817 C   0  0  0  0  0  0  0  0  0  0  0  0
   10.0902  -15.7858   14.6903 S   0  0  0  0  0  0  0  0  0  0  0  0
   10.1353  -14.9652   16.3144 C   0  0  0  0  0  0  0  0  0  0  0  0
    8.8943  -15.3491   17.0828 C   0  0  0  0  0  0  0  0  0  0  0  0
    8.8389  -14.6117   18.4086 C   0  0  2  0  0  0  0  0  0  0  0  0
    9.3367  -13.2390   18.2163 N   0  0  0  0  0  0  0  0  0  0  0  0
    9.7528  -15.2453   19.3963 C   0  0  0  0  0  0  0  0  0  0  0  0
    9.6413  -16.4530   19.7262 O   0  0  0  0  0  0  0  0  0  0  0  0
   15.9442  -15.3337   16.1371 O   0  0  0  0  0  0  0  0  0  0  0  0
   15.2278  -15.1096   17.3034 C   0  0  0  0  0  0  0  0  0  0  0  0
   14.3841  -14.0213   17.3923 C   0  0  0  0  0  0  0  0  0  0  0  0
   13.6420  -13.7313   18.5105 C   0  0  0  0  0  0  0  0  0  0  0  0
   13.7682  -14.5974   19.5928 C   0  0  0  0  0  0  0  0  0  0  0  0
   13.0315  -14.3835   20.8271 C   0  0  0  0  0  0  0  0  0  0  0  0
   11.7329  -15.1218   20.9652 C   0  0  2  0  0  0  0  0  0  0  0  0
   10.8046  -14.5219   20.0244 N   0  0  0  0  0  0  0  0  0  0  0  0
   11.1529  -14.9403   22.3225 C   0  0  0  0  0  0  0  0  0  0  0  0
   10.9338  -13.7766   22.7947 O   0  0  0  0  0  0  0  0  0  0  0  0
   14.6129  -15.6948   19.5161 C   0  0  0  0  0  0  0  0  0  0  0  0
   15.3408  -15.9534   18.3792 C   0  0  0  0  0  0  0  0  0  0  0  0
   10.8296  -16.0474   23.1232 N   0  0  0  0  0  0  0  0  0  0  0  0
    9.8803  -15.9323   24.2510 C   0  0  1  0  0  0  0  0  0  0  0  0
    8.6510  -15.2605   23.7386 C   0  0  0  0  0  0  0  0  0  0  0  0
    7.6136  -15.0351   24.7376 C   0  0  0  0  0  0  0  0  0  0  0  0
    6.6203  -15.9439   25.0958 C   0  0  0  0  0  0  0  0  0  0  0  0
    5.8352  -15.3652   26.0187 N   0  0  0  0  0  0  0  0  0  0  0  0
    6.2851  -14.1176   26.2699 C   0  0  0  0  0  0  0  0  0  0  0  0
    5.8452  -13.1385   27.1340 C   0  0  0  0  0  0  0  0  0  0  0  0
    6.4951  -11.9286   27.2299 C   0  0  0  0  0  0  0  0  0  0  0  0
    7.6080  -11.6721   26.4561 C   0  0  0  0  0  0  0  0  0  0  0  0
    8.0173  -12.6731   25.6046 C   0  0  0  0  0  0  0  0  0  0  0  0
    7.3970  -13.8956   25.4770 C   0  0  0  0  0  0  0  0  0  0  0  0
    9.6542  -17.2341   24.8429 C   0  0  0  0  0  0  0  0  0  0  0  0
    9.8260  -18.3015   24.2316 O   0  0  0  0  0  0  0  0  0  0  0  0
    9.2203  -17.3237   26.1696 O   0  0  0  0  0  0  0  0  0  0  0  0
  2  1  1  0
  3  2  1  0
  4  3  1  0
  5  4  1  0
  5  6  1  6
  7  5  1  0
  7  8  2  0
  9 10  1  0
 10 11  2  0
 10 20  1  0
 11 12  1  0
 12 13  2  0
 13 14  1  0
 15 14  1  1
 15 17  1  0
 15 16  1  0
 16  7  1  0
 17 21  1  0
 18 17  2  0
 19 13  1  0
 20 19  2  0
 21 22  1  0
 22 33  1  0
 23 24  1  0
 22 23  1  6
 24 25  2  0
 26 25  1  0
 27 26  1  0
 28 27  2  0
 29 28  1  0
 30 29  2  0
 30 31  1  0
 31 32  2  0
 32 27  1  0
 32 24  1  0
 33 34  2  0
 33 35  1  0
M  END
$$$$
