MYW.pdb
     RDKit          3D

 35 37  0  0  1  0  0  0  0  0999 V2000
    8.9453  -12.6694   19.9986 C   0  0  0  0  0  0  0  0  0  0  0  0
    7.8583  -13.0440   18.6003 S   0  0  0  0  0  0  0  0  0  0  0  0
    7.3345  -14.7863   18.6573 C   0  0  0  0  0  0  0  0  0  0  0  0
    7.1419  -15.1846   20.1002 C   0  0  0  0  0  0  0  0  0  0  0  0
    6.7674  -16.6522   20.2027 C   0  0  2  0  0  0  0  0  0  0  0  0
    5.4301  -16.8489   19.6178 N   0  0  0  0  0  0  0  0  0  0  0  0
    6.6570  -17.0640   21.6276 C   0  0  0  0  0  0  0  0  0  0  0  0
    5.6632  -16.7573   22.3334 O   0  0  0  0  0  0  0  0  0  0  0  0
    8.5086  -21.3724   29.1527 O   0  0  0  0  0  0  0  0  0  0  0  0
    8.3695  -20.9210   27.8486 C   0  0  0  0  0  0  0  0  0  0  0  0
    7.1304  -20.5259   27.3876 C   0  0  0  0  0  0  0  0  0  0  0  0
    6.9110  -20.0679   26.1119 C   0  0  0  0  0  0  0  0  0  0  0  0
    8.0135  -20.0108   25.2644 C   0  0  0  0  0  0  0  0  0  0  0  0
    7.8943  -19.5451   23.8929 C   0  0  0  0  0  0  0  0  0  0  0  0
    7.6920  -18.0706   23.7044 C   0  0  2  0  0  0  0  0  0  0  0  0
    7.6688  -17.8275   22.2736 N   0  0  0  0  0  0  0  0  0  0  0  0
    8.8346  -17.2960   24.2575 C   0  0  0  0  0  0  0  0  0  0  0  0
    9.7655  -16.8647   23.5009 O   0  0  0  0  0  0  0  0  0  0  0  0
    9.2643  -20.4052   25.7156 C   0  0  0  0  0  0  0  0  0  0  0  0
    9.4459  -20.8586   27.0004 C   0  0  0  0  0  0  0  0  0  0  0  0
    8.9202  -17.0174   25.6310 N   0  0  0  0  0  0  0  0  0  0  0  0
   10.0761  -16.2915   26.1999 C   0  0  1  0  0  0  0  0  0  0  0  0
    9.8243  -14.8322   26.0209 C   0  0  0  0  0  0  0  0  0  0  0  0
    8.4774  -14.3953   26.3667 C   0  0  0  0  0  0  0  0  0  0  0  0
    7.4916  -15.1879   26.9506 C   0  0  0  0  0  0  0  0  0  0  0  0
    6.3804  -14.4457   27.0831 N   0  0  0  0  0  0  0  0  0  0  0  0
    6.6125  -13.2040   26.6074 C   0  0  0  0  0  0  0  0  0  0  0  0
    5.8133  -12.0839   26.5334 C   0  0  0  0  0  0  0  0  0  0  0  0
    6.2909  -10.9012   26.0152 C   0  0  0  0  0  0  0  0  0  0  0  0
    7.5892  -10.8151   25.5567 C   0  0  0  0  0  0  0  0  0  0  0  0
    8.3569  -11.9540   25.6460 C   0  0  0  0  0  0  0  0  0  0  0  0
    7.9194  -13.1558   26.1558 C   0  0  0  0  0  0  0  0  0  0  0  0
   10.2930  -16.7027   27.5711 C   0  0  0  0  0  0  0  0  0  0  0  0
   11.2569  -16.3201   28.2545 O   0  0  0  0  0  0  0  0  0  0  0  0
    9.3859  -17.5742   28.1825 O   0  0  0  0  0  0  0  0  0  0  0  0
  2  1  1  0
  3  2  1  0
  4  3  1  0
  5  4  1  0
  5  6  1  6
  7  5  1  0
  7  8  2  0
  9 10  1  0
 10 11  2  0
 10 20  1  0
 11 12  1  0
 12 13  2  0
 13 14  1  0
 15 14  1  6
 15 17  1  0
 15 16  1  0
 16  7  1  0
 17 21  1  0
 18 17  2  0
 19 13  1  0
 20 19  2  0
 21 22  1  0
 22 33  1  0
 23 24  1  0
 22 23  1  1
 24 25  2  0
 26 25  1  0
 27 26  1  0
 28 27  2  0
 29 28  1  0
 30 29  2  0
 30 31  1  0
 31 32  2  0
 32 27  1  0
 32 24  1  0
 33 34  2  0
 33 35  1  0
M  END
$$$$
