MYW.pdb
     RDKit          3D

 35 37  0  0  1  0  0  0  0  0999 V2000
    8.4261  -12.0637   20.7787 C   0  0  0  0  0  0  0  0  0  0  0  0
    8.2007  -13.4062   19.5855 S   0  0  0  0  0  0  0  0  0  0  0  0
    7.4197  -14.8405   20.3894 C   0  0  0  0  0  0  0  0  0  0  0  0
    7.2981  -15.9532   19.3770 C   0  0  0  0  0  0  0  0  0  0  0  0
    8.6719  -16.4425   18.9551 C   0  0  2  0  0  0  0  0  0  0  0  0
    8.5159  -17.6139   18.0762 N   0  0  0  0  0  0  0  0  0  0  0  0
    9.4425  -16.9150   20.1363 C   0  0  0  0  0  0  0  0  0  0  0  0
    8.9928  -17.7921   20.9162 O   0  0  0  0  0  0  0  0  0  0  0  0
   16.6735  -18.2922   25.0800 O   0  0  0  0  0  0  0  0  0  0  0  0
   15.7497  -17.8913   24.1262 C   0  0  0  0  0  0  0  0  0  0  0  0
   15.7200  -16.5761   23.7098 C   0  0  0  0  0  0  0  0  0  0  0  0
   14.8371  -16.1017   22.7713 C   0  0  0  0  0  0  0  0  0  0  0  0
   13.9393  -17.0176   22.2308 C   0  0  0  0  0  0  0  0  0  0  0  0
   12.9595  -16.6228   21.2327 C   0  0  0  0  0  0  0  0  0  0  0  0
   11.5201  -16.8665   21.5782 C   0  0  2  0  0  0  0  0  0  0  0  0
   10.7315  -16.4020   20.4516 N   0  0  0  0  0  0  0  0  0  0  0  0
   11.1066  -16.0616   22.7583 C   0  0  0  0  0  0  0  0  0  0  0  0
   11.0334  -14.7905   22.6954 O   0  0  0  0  0  0  0  0  0  0  0  0
   13.9590  -18.3424   22.6409 C   0  0  0  0  0  0  0  0  0  0  0  0
   14.8579  -18.7813   23.5835 C   0  0  0  0  0  0  0  0  0  0  0  0
   10.7846  -16.6803   23.9769 N   0  0  0  0  0  0  0  0  0  0  0  0
    9.8359  -16.0626   24.9282 C   0  0  1  0  0  0  0  0  0  0  0  0
    8.6980  -15.5119   24.1363 C   0  0  0  0  0  0  0  0  0  0  0  0
    7.6015  -14.9732   24.9314 C   0  0  0  0  0  0  0  0  0  0  0  0
    6.3712  -15.5918   25.1422 C   0  0  0  0  0  0  0  0  0  0  0  0
    5.6148  -14.7761   25.8943 N   0  0  0  0  0  0  0  0  0  0  0  0
    6.3112  -13.6549   26.1773 C   0  0  0  0  0  0  0  0  0  0  0  0
    5.9927  -12.5374   26.9179 C   0  0  0  0  0  0  0  0  0  0  0  0
    6.8959  -11.5117   27.0840 C   0  0  0  0  0  0  0  0  0  0  0  0
    8.1470  -11.5846   26.5072 C   0  0  0  0  0  0  0  0  0  0  0  0
    8.4288  -12.7151   25.7744 C   0  0  0  0  0  0  0  0  0  0  0  0
    7.5559  -13.7624   25.5826 C   0  0  0  0  0  0  0  0  0  0  0  0
    9.4560  -17.0230   25.9428 C   0  0  0  0  0  0  0  0  0  0  0  0
    9.1976  -16.7103   27.1167 O   0  0  0  0  0  0  0  0  0  0  0  0
    9.3670  -18.3790   25.6115 O   0  0  0  0  0  0  0  0  0  0  0  0
  2  1  1  0
  3  2  1  0
  4  3  1  0
  5  4  1  0
  5  6  1  6
  7  5  1  0
  7  8  2  0
  9 10  1  0
 10 11  2  0
 10 20  1  0
 11 12  1  0
 12 13  2  0
 13 14  1  0
 15 14  1  6
 15 17  1  0
 15 16  1  0
 16  7  1  0
 17 21  1  0
 18 17  2  0
 19 13  1  0
 20 19  2  0
 21 22  1  0
 22 33  1  0
 23 24  1  0
 22 23  1  6
 24 25  2  0
 26 25  1  0
 27 26  1  0
 28 27  2  0
 29 28  1  0
 30 29  2  0
 30 31  1  0
 31 32  2  0
 32 27  1  0
 32 24  1  0
 33 34  2  0
 33 35  1  0
M  END
$$$$
