MYW.pdb
     RDKit          3D

 35 37  0  0  1  0  0  0  0  0999 V2000
    7.9844  -12.0138   20.3600 C   0  0  0  0  0  0  0  0  0  0  0  0
    6.9229  -13.0115   21.4345 S   0  0  0  0  0  0  0  0  0  0  0  0
    6.6945  -14.6737   20.7286 C   0  0  0  0  0  0  0  0  0  0  0  0
    7.7545  -15.5871   21.2941 C   0  0  0  0  0  0  0  0  0  0  0  0
    8.8277  -15.8645   20.2567 C   0  0  2  0  0  0  0  0  0  0  0  0
    8.2945  -16.8000   19.2518 N   0  0  0  0  0  0  0  0  0  0  0  0
    9.9907  -16.5506   20.8802 C   0  0  0  0  0  0  0  0  0  0  0  0
   10.1421  -17.7965   20.8130 O   0  0  0  0  0  0  0  0  0  0  0  0
   15.4406  -15.3582   16.7692 O   0  0  0  0  0  0  0  0  0  0  0  0
   14.9194  -15.4132   18.0534 C   0  0  0  0  0  0  0  0  0  0  0  0
   14.2532  -14.3213   18.5710 C   0  0  0  0  0  0  0  0  0  0  0  0
   13.7097  -14.2972   19.8317 C   0  0  0  0  0  0  0  0  0  0  0  0
   13.8542  -15.4471   20.6025 C   0  0  0  0  0  0  0  0  0  0  0  0
   13.3205  -15.5295   21.9517 C   0  0  0  0  0  0  0  0  0  0  0  0
   12.1719  -16.4722   22.1583 C   0  0  2  0  0  0  0  0  0  0  0  0
   10.9977  -15.8374   21.5882 N   0  0  0  0  0  0  0  0  0  0  0  0
   11.8961  -16.6747   23.6055 C   0  0  0  0  0  0  0  0  0  0  0  0
   12.7981  -17.1125   24.3928 O   0  0  0  0  0  0  0  0  0  0  0  0
   14.5218  -16.5513   20.0937 C   0  0  0  0  0  0  0  0  0  0  0  0
   15.0533  -16.5388   18.8262 C   0  0  0  0  0  0  0  0  0  0  0  0
   10.6323  -16.3888   24.1462 N   0  0  0  0  0  0  0  0  0  0  0  0
   10.3545  -16.5582   25.5887 C   0  0  1  0  0  0  0  0  0  0  0  0
    9.8545  -15.2522   26.1078 C   0  0  0  0  0  0  0  0  0  0  0  0
    8.4173  -15.0489   25.9741 C   0  0  0  0  0  0  0  0  0  0  0  0
    7.4668  -16.0544   25.8120 C   0  0  0  0  0  0  0  0  0  0  0  0
    6.2610  -15.4762   25.6903 N   0  0  0  0  0  0  0  0  0  0  0  0
    6.3978  -14.1356   25.7686 C   0  0  0  0  0  0  0  0  0  0  0  0
    5.4754  -13.1131   25.7193 C   0  0  0  0  0  0  0  0  0  0  0  0
    5.8624  -11.7979   25.8459 C   0  0  0  0  0  0  0  0  0  0  0  0
    7.1919  -11.4770   26.0259 C   0  0  0  0  0  0  0  0  0  0  0  0
    8.0839  -12.5243   26.0692 C   0  0  0  0  0  0  0  0  0  0  0  0
    7.7403  -13.8519   25.9464 C   0  0  0  0  0  0  0  0  0  0  0  0
    9.4535  -17.6731   25.7920 C   0  0  0  0  0  0  0  0  0  0  0  0
    8.8757  -18.2624   24.8638 O   0  0  0  0  0  0  0  0  0  0  0  0
    9.2032  -18.1311   27.0897 O   0  0  0  0  0  0  0  0  0  0  0  0
  2  1  1  0
  3  2  1  0
  4  3  1  0
  5  4  1  0
  5  6  1  6
  7  5  1  0
  7  8  2  0
  9 10  1  0
 10 11  2  0
 10 20  1  0
 11 12  1  0
 12 13  2  0
 13 14  1  0
 15 14  1  1
 15 17  1  0
 15 16  1  0
 16  7  1  0
 17 21  1  0
 18 17  2  0
 19 13  1  0
 20 19  2  0
 21 22  1  0
 22 33  1  0
 23 24  1  0
 22 23  1  6
 24 25  2  0
 26 25  1  0
 27 26  1  0
 28 27  2  0
 29 28  1  0
 30 29  2  0
 30 31  1  0
 31 32  2  0
 32 27  1  0
 32 24  1  0
 33 34  2  0
 33 35  1  0
M  END
$$$$
