MYW.pdb
     RDKit          3D

 35 37  0  0  1  0  0  0  0  0999 V2000
    5.6853  -22.7256   25.3478 C   0  0  0  0  0  0  0  0  0  0  0  0
    4.4171  -22.3623   24.1081 S   0  0  0  0  0  0  0  0  0  0  0  0
    5.1565  -22.3096   22.4456 C   0  0  0  0  0  0  0  0  0  0  0  0
    5.3648  -20.8663   22.0566 C   0  0  0  0  0  0  0  0  0  0  0  0
    6.4375  -20.2304   22.9224 C   0  0  2  0  0  0  0  0  0  0  0  0
    5.7932  -19.5045   24.0302 N   0  0  0  0  0  0  0  0  0  0  0  0
    7.1952  -19.2107   22.1490 C   0  0  0  0  0  0  0  0  0  0  0  0
    7.8459  -19.5080   21.1156 O   0  0  0  0  0  0  0  0  0  0  0  0
    8.4894  -11.5404   18.1805 O   0  0  0  0  0  0  0  0  0  0  0  0
    8.1030  -12.5681   19.0280 C   0  0  0  0  0  0  0  0  0  0  0  0
    8.1422  -12.3820   20.3947 C   0  0  0  0  0  0  0  0  0  0  0  0
    7.7766  -13.3488   21.2985 C   0  0  0  0  0  0  0  0  0  0  0  0
    7.3493  -14.5675   20.7795 C   0  0  0  0  0  0  0  0  0  0  0  0
    6.9423  -15.6614   21.6455 C   0  0  0  0  0  0  0  0  0  0  0  0
    7.8979  -16.8122   21.7603 C   0  0  2  0  0  0  0  0  0  0  0  0
    7.2276  -17.8414   22.5337 N   0  0  0  0  0  0  0  0  0  0  0  0
    9.1173  -16.4250   22.5182 C   0  0  0  0  0  0  0  0  0  0  0  0
   10.2027  -16.1347   21.9158 O   0  0  0  0  0  0  0  0  0  0  0  0
    7.3055  -14.7672   19.4077 C   0  0  0  0  0  0  0  0  0  0  0  0
    7.6795  -13.7753   18.5328 C   0  0  0  0  0  0  0  0  0  0  0  0
    9.1074  -16.3681   23.9211 N   0  0  0  0  0  0  0  0  0  0  0  0
   10.3289  -16.0425   24.6882 C   0  0  1  0  0  0  0  0  0  0  0  0
   10.0253  -14.8530   25.5356 C   0  0  0  0  0  0  0  0  0  0  0  0
    8.6085  -14.6319   25.7971 C   0  0  0  0  0  0  0  0  0  0  0  0
    7.6388  -15.6260   25.9092 C   0  0  0  0  0  0  0  0  0  0  0  0
    6.4520  -15.0329   26.1158 N   0  0  0  0  0  0  0  0  0  0  0  0
    6.6196  -13.6938   26.1421 C   0  0  0  0  0  0  0  0  0  0  0  0
    5.7299  -12.6597   26.3373 C   0  0  0  0  0  0  0  0  0  0  0  0
    6.1511  -11.3490   26.3421 C   0  0  0  0  0  0  0  0  0  0  0  0
    7.4828  -11.0442   26.1498 C   0  0  0  0  0  0  0  0  0  0  0  0
    8.3413  -12.1027   25.9574 C   0  0  0  0  0  0  0  0  0  0  0  0
    7.9627  -13.4264   25.9445 C   0  0  0  0  0  0  0  0  0  0  0  0
   10.7782  -17.2070   25.4218 C   0  0  0  0  0  0  0  0  0  0  0  0
   11.8259  -17.2320   26.0885 O   0  0  0  0  0  0  0  0  0  0  0  0
   10.0125  -18.3771   25.3964 O   0  0  0  0  0  0  0  0  0  0  0  0
  2  1  1  0
  3  2  1  0
  4  3  1  0
  5  4  1  0
  5  6  1  1
  7  5  1  0
  7  8  2  0
  9 10  1  0
 10 11  2  0
 10 20  1  0
 11 12  1  0
 12 13  2  0
 13 14  1  0
 15 14  1  1
 15 17  1  0
 15 16  1  0
 16  7  1  0
 17 21  1  0
 18 17  2  0
 19 13  1  0
 20 19  2  0
 21 22  1  0
 22 33  1  0
 23 24  1  0
 22 23  1  1
 24 25  2  0
 26 25  1  0
 27 26  1  0
 28 27  2  0
 29 28  1  0
 30 29  2  0
 30 31  1  0
 31 32  2  0
 32 27  1  0
 32 24  1  0
 33 34  2  0
 33 35  1  0
M  END
$$$$
