MYW.pdb
     RDKit          3D

 35 37  0  0  1  0  0  0  0  0999 V2000
    8.6210  -21.2897   23.9001 C   0  0  0  0  0  0  0  0  0  0  0  0
    8.7208  -22.1356   22.3027 S   0  0  0  0  0  0  0  0  0  0  0  0
    8.4960  -20.9458   20.9436 C   0  0  0  0  0  0  0  0  0  0  0  0
    8.8894  -19.5738   21.4343 C   0  0  0  0  0  0  0  0  0  0  0  0
    8.6924  -18.5397   20.3403 C   0  0  2  0  0  0  0  0  0  0  0  0
    9.5715  -18.8677   19.2051 N   0  0  0  0  0  0  0  0  0  0  0  0
    9.1157  -17.1943   20.8123 C   0  0  0  0  0  0  0  0  0  0  0  0
   10.2896  -16.7735   20.6555 O   0  0  0  0  0  0  0  0  0  0  0  0
    7.9786  -13.0598   15.9770 O   0  0  0  0  0  0  0  0  0  0  0  0
    7.9209  -13.2808   17.3451 C   0  0  0  0  0  0  0  0  0  0  0  0
    7.1427  -14.3060   17.8425 C   0  0  0  0  0  0  0  0  0  0  0  0
    7.0332  -14.5885   19.1817 C   0  0  0  0  0  0  0  0  0  0  0  0
    7.7555  -13.7826   20.0570 C   0  0  0  0  0  0  0  0  0  0  0  0
    7.7099  -13.9908   21.4946 C   0  0  0  0  0  0  0  0  0  0  0  0
    8.6290  -15.0405   22.0460 C   0  0  2  0  0  0  0  0  0  0  0  0
    8.2177  -16.3069   21.4680 N   0  0  0  0  0  0  0  0  0  0  0  0
    8.4780  -15.1670   23.5200 C   0  0  0  0  0  0  0  0  0  0  0  0
    7.7502  -14.3542   24.1795 O   0  0  0  0  0  0  0  0  0  0  0  0
    8.5413  -12.7489   19.5696 C   0  0  0  0  0  0  0  0  0  0  0  0
    8.6265  -12.4957   18.2213 C   0  0  0  0  0  0  0  0  0  0  0  0
    9.1338  -16.1869   24.2278 N   0  0  0  0  0  0  0  0  0  0  0  0
    9.8941  -15.9018   25.4635 C   0  0  1  0  0  0  0  0  0  0  0  0
    8.9430  -15.9926   26.6091 C   0  0  0  0  0  0  0  0  0  0  0  0
    7.7254  -15.2054   26.4590 C   0  0  0  0  0  0  0  0  0  0  0  0
    6.4915  -15.6918   26.0328 C   0  0  0  0  0  0  0  0  0  0  0  0
    5.6280  -14.6644   25.9889 N   0  0  0  0  0  0  0  0  0  0  0  0
    6.2581  -13.5338   26.3716 C   0  0  0  0  0  0  0  0  0  0  0  0
    5.8148  -12.2365   26.5107 C   0  0  0  0  0  0  0  0  0  0  0  0
    6.6575  -11.2386   26.9460 C   0  0  0  0  0  0  0  0  0  0  0  0
    7.9722  -11.5215   27.2537 C   0  0  0  0  0  0  0  0  0  0  0  0
    8.3790  -12.8277   27.1019 C   0  0  0  0  0  0  0  0  0  0  0  0
    7.5706  -13.8549   26.6693 C   0  0  0  0  0  0  0  0  0  0  0  0
   11.0371  -16.7857   25.5569 C   0  0  0  0  0  0  0  0  0  0  0  0
   11.2589  -17.7030   24.7493 O   0  0  0  0  0  0  0  0  0  0  0  0
   11.9547  -16.6205   26.5994 O   0  0  0  0  0  0  0  0  0  0  0  0
  2  1  1  0
  3  2  1  0
  4  3  1  0
  5  4  1  0
  5  6  1  6
  7  5  1  0
  7  8  2  0
  9 10  1  0
 10 11  2  0
 10 20  1  0
 11 12  1  0
 12 13  2  0
 13 14  1  0
 15 14  1  6
 15 17  1  0
 15 16  1  0
 16  7  1  0
 17 21  1  0
 18 17  2  0
 19 13  1  0
 20 19  2  0
 21 22  1  0
 22 33  1  0
 23 24  1  0
 22 23  1  1
 24 25  2  0
 26 25  1  0
 27 26  1  0
 28 27  2  0
 29 28  1  0
 30 29  2  0
 30 31  1  0
 31 32  2  0
 32 27  1  0
 32 24  1  0
 33 34  2  0
 33 35  1  0
M  END
$$$$
