MYW.pdb
     RDKit          3D

 35 37  0  0  1  0  0  0  0  0999 V2000
    9.3451  -13.2921   19.6857 C   0  0  0  0  0  0  0  0  0  0  0  0
    7.8610  -13.6785   18.7238 S   0  0  0  0  0  0  0  0  0  0  0  0
    7.0990  -15.2165   19.3297 C   0  0  0  0  0  0  0  0  0  0  0  0
    8.1066  -16.3336   19.2087 C   0  0  0  0  0  0  0  0  0  0  0  0
    7.5147  -17.6411   19.7034 C   0  0  2  0  0  0  0  0  0  0  0  0
    6.3680  -18.0020   18.8525 N   0  0  0  0  0  0  0  0  0  0  0  0
    6.9711  -17.4802   21.0784 C   0  0  0  0  0  0  0  0  0  0  0  0
    5.9007  -16.8605   21.3021 O   0  0  0  0  0  0  0  0  0  0  0  0
    4.7407  -23.7784   22.5859 O   0  0  0  0  0  0  0  0  0  0  0  0
    5.4225  -22.6423   22.9960 C   0  0  0  0  0  0  0  0  0  0  0  0
    4.9436  -21.8997   24.0559 C   0  0  0  0  0  0  0  0  0  0  0  0
    5.5600  -20.7644   24.5212 C   0  0  0  0  0  0  0  0  0  0  0  0
    6.7248  -20.3679   23.8705 C   0  0  0  0  0  0  0  0  0  0  0  0
    7.4561  -19.1800   24.2781 C   0  0  0  0  0  0  0  0  0  0  0  0
    7.1071  -17.9054   23.5681 C   0  0  2  0  0  0  0  0  0  0  0  0
    7.6305  -18.0173   22.2189 N   0  0  0  0  0  0  0  0  0  0  0  0
    7.7783  -16.7376   24.1983 C   0  0  0  0  0  0  0  0  0  0  0  0
    7.1263  -15.6816   24.4897 O   0  0  0  0  0  0  0  0  0  0  0  0
    7.2163  -21.1056   22.8038 C   0  0  0  0  0  0  0  0  0  0  0  0
    6.5717  -22.2377   22.3655 C   0  0  0  0  0  0  0  0  0  0  0  0
    9.1512  -16.7655   24.4907 N   0  0  0  0  0  0  0  0  0  0  0  0
    9.8123  -15.6463   25.1956 C   0  0  1  0  0  0  0  0  0  0  0  0
    9.2061  -15.5488   26.5550 C   0  0  0  0  0  0  0  0  0  0  0  0
    7.8941  -14.9150   26.5974 C   0  0  0  0  0  0  0  0  0  0  0  0
    6.6793  -15.5452   26.3367 C   0  0  0  0  0  0  0  0  0  0  0  0
    5.7016  -14.6306   26.4405 N   0  0  0  0  0  0  0  0  0  0  0  0
    6.2398  -13.4345   26.7592 C   0  0  0  0  0  0  0  0  0  0  0  0
    5.6687  -12.2022   26.9917 C   0  0  0  0  0  0  0  0  0  0  0  0
    6.4392  -11.1123   27.3293 C   0  0  0  0  0  0  0  0  0  0  0  0
    7.8087  -11.2350   27.4419 C   0  0  0  0  0  0  0  0  0  0  0  0
    8.3431  -12.4805   27.2016 C   0  0  0  0  0  0  0  0  0  0  0  0
    7.6103  -13.5952   26.8613 C   0  0  0  0  0  0  0  0  0  0  0  0
   11.2478  -15.8345   25.1872 C   0  0  0  0  0  0  0  0  0  0  0  0
   12.0434  -15.0448   25.7221 O   0  0  0  0  0  0  0  0  0  0  0  0
   11.7938  -16.9545   24.5519 O   0  0  0  0  0  0  0  0  0  0  0  0
  2  1  1  0
  3  2  1  0
  4  3  1  0
  5  4  1  0
  5  6  1  6
  7  5  1  0
  7  8  2  0
  9 10  1  0
 10 11  2  0
 10 20  1  0
 11 12  1  0
 12 13  2  0
 13 14  1  0
 15 14  1  1
 15 17  1  0
 15 16  1  0
 16  7  1  0
 17 21  1  0
 18 17  2  0
 19 13  1  0
 20 19  2  0
 21 22  1  0
 22 33  1  0
 23 24  1  0
 22 23  1  1
 24 25  2  0
 26 25  1  0
 27 26  1  0
 28 27  2  0
 29 28  1  0
 30 29  2  0
 30 31  1  0
 31 32  2  0
 32 27  1  0
 32 24  1  0
 33 34  2  0
 33 35  1  0
M  END
$$$$
