MYW.pdb
     RDKit          3D

 35 37  0  0  1  0  0  0  0  0999 V2000
    9.3834  -11.8146   20.1792 C   0  0  0  0  0  0  0  0  0  0  0  0
    7.9948  -12.0609   19.0441 S   0  0  0  0  0  0  0  0  0  0  0  0
    7.6713  -13.8380   18.8192 C   0  0  0  0  0  0  0  0  0  0  0  0
    7.8591  -14.5335   20.1454 C   0  0  0  0  0  0  0  0  0  0  0  0
    7.7808  -16.0398   19.9730 C   0  0  2  0  0  0  0  0  0  0  0  0
    6.4227  -16.4034   19.5341 N   0  0  0  0  0  0  0  0  0  0  0  0
    7.9883  -16.7253   21.2766 C   0  0  0  0  0  0  0  0  0  0  0  0
    7.0424  -16.9292   22.0787 O   0  0  0  0  0  0  0  0  0  0  0  0
   12.1307  -22.1967   26.9161 O   0  0  0  0  0  0  0  0  0  0  0  0
   11.7125  -21.4142   25.8500 C   0  0  0  0  0  0  0  0  0  0  0  0
   10.4294  -21.5499   25.3607 C   0  0  0  0  0  0  0  0  0  0  0  0
    9.9409  -20.8134   24.3100 C   0  0  0  0  0  0  0  0  0  0  0  0
   10.8072  -19.8913   23.7299 C   0  0  0  0  0  0  0  0  0  0  0  0
   10.3952  -19.0617   22.6100 C   0  0  0  0  0  0  0  0  0  0  0  0
    9.4915  -17.9082   22.9316 C   0  0  2  0  0  0  0  0  0  0  0  0
    9.2680  -17.1890   21.6908 N   0  0  0  0  0  0  0  0  0  0  0  0
   10.1449  -16.9589   23.8715 C   0  0  0  0  0  0  0  0  0  0  0  0
   11.2117  -16.3408   23.5475 O   0  0  0  0  0  0  0  0  0  0  0  0
   12.0993  -19.7454   24.2124 C   0  0  0  0  0  0  0  0  0  0  0  0
   12.5538  -20.5008   25.2669 C   0  0  0  0  0  0  0  0  0  0  0  0
    9.6042  -16.7164   25.1443 N   0  0  0  0  0  0  0  0  0  0  0  0
   10.4319  -16.1742   26.2432 C   0  0  1  0  0  0  0  0  0  0  0  0
    9.8049  -14.8973   26.6919 C   0  0  0  0  0  0  0  0  0  0  0  0
    8.3974  -14.7494   26.3430 C   0  0  0  0  0  0  0  0  0  0  0  0
    7.5349  -15.7856   25.9917 C   0  0  0  0  0  0  0  0  0  0  0  0
    6.3351  -15.2542   25.7067 N   0  0  0  0  0  0  0  0  0  0  0  0
    6.3909  -13.9145   25.8617 C   0  0  0  0  0  0  0  0  0  0  0  0
    5.4372  -12.9313   25.7113 C   0  0  0  0  0  0  0  0  0  0  0  0
    5.7337  -11.6086   25.9522 C   0  0  0  0  0  0  0  0  0  0  0  0
    7.0016  -11.2402   26.3519 C   0  0  0  0  0  0  0  0  0  0  0  0
    7.9274  -12.2492   26.4906 C   0  0  0  0  0  0  0  0  0  0  0  0
    7.6738  -13.5826   26.2597 C   0  0  0  0  0  0  0  0  0  0  0  0
   10.5866  -17.1688   27.2839 C   0  0  0  0  0  0  0  0  0  0  0  0
   11.3307  -17.0186   28.2670 O   0  0  0  0  0  0  0  0  0  0  0  0
    9.8732  -18.3691   27.2037 O   0  0  0  0  0  0  0  0  0  0  0  0
  2  1  1  0
  3  2  1  0
  4  3  1  0
  5  4  1  0
  5  6  1  1
  7  5  1  0
  7  8  2  0
  9 10  1  0
 10 11  2  0
 10 20  1  0
 11 12  1  0
 12 13  2  0
 13 14  1  0
 15 14  1  6
 15 17  1  0
 15 16  1  0
 16  7  1  0
 17 21  1  0
 18 17  2  0
 19 13  1  0
 20 19  2  0
 21 22  1  0
 22 33  1  0
 23 24  1  0
 22 23  1  1
 24 25  2  0
 26 25  1  0
 27 26  1  0
 28 27  2  0
 29 28  1  0
 30 29  2  0
 30 31  1  0
 31 32  2  0
 32 27  1  0
 32 24  1  0
 33 34  2  0
 33 35  1  0
M  END
$$$$
