YCD.pdb
     RDKit          3D

 27 27  0  0  1  0  0  0  0  0999 V2000
   24.4120  -16.4440  -20.6326 O   0  0  0  0  0  0  0  0  0  0  0  0
   23.8582  -17.2296  -19.6428 C   0  0  0  0  0  0  0  0  0  0  0  0
   23.0716  -16.6397  -18.6621 C   0  0  0  0  0  0  0  0  0  0  0  0
   22.5241  -17.4267  -17.6808 C   0  0  0  0  0  0  0  0  0  0  0  0
   22.7317  -18.7796  -17.6409 C   0  0  0  0  0  0  0  0  0  0  0  0
   22.1694  -19.6601  -16.6126 C   0  0  0  0  0  0  0  0  0  0  0  0
   22.9981  -19.5916  -15.3478 C   0  0  2  0  0  0  0  0  0  0  0  0
   24.2929  -20.1191  -15.6294 N   0  0  0  0  0  0  0  0  0  0  0  0
   22.2614  -20.3966  -14.3251 C   0  0  0  0  0  0  0  0  0  0  0  0
   22.4646  -21.6218  -14.2829 O   0  0  0  0  0  0  0  0  0  0  0  0
   23.5208  -19.3583  -18.6281 C   0  0  0  0  0  0  0  0  0  0  0  0
   24.0906  -18.5882  -19.6372 C   0  0  0  0  0  0  0  0  0  0  0  0
   21.3527  -19.8251  -13.4152 N   0  0  0  0  0  0  0  0  0  0  0  0
   20.6631  -20.5227  -12.3666 C   0  0  1  0  0  0  0  0  0  0  0  0
   20.4868  -19.7526  -11.1132 C   0  0  0  0  0  0  0  0  0  0  0  0
   19.9973  -18.0556  -11.2984 S   0  0  0  0  0  0  0  0  0  0  0  0
   19.4085  -21.1711  -12.8648 C   0  0  0  0  0  0  0  0  0  0  0  0
   18.7823  -20.7201  -13.8579 O   0  0  0  0  0  0  0  0  0  0  0  0
   18.8887  -22.3264  -12.2184 N   0  0  0  0  0  0  0  0  0  0  0  0
   17.5991  -22.9000  -12.6742 C   0  0  1  0  0  0  0  0  0  0  0  0
   17.4900  -24.3181  -12.1600 C   0  0  0  0  0  0  0  0  0  0  0  0
   16.2321  -24.9691  -12.4382 C   0  0  0  0  0  0  0  0  0  0  0  0
   15.2934  -24.4515  -13.0752 O   0  0  0  0  0  0  0  0  0  0  0  0
   16.5693  -22.0838  -12.0021 C   0  0  0  0  0  0  0  0  0  0  0  0
   15.4530  -21.9138  -12.5326 O   0  0  0  0  0  0  0  0  0  0  0  0
   16.0169  -26.2701  -11.9766 O   0  0  0  0  0  0  0  0  0  0  0  0
   16.8118  -21.4981  -10.7878 O   0  0  0  0  0  0  0  0  0  0  0  0
  2 12  2  0
  2  1  1  0
  3  2  1  0
  4  5  1  0
  4  3  2  0
  5 11  2  0
  6  7  1  0
  6  5  1  0
  7  9  1  0
  7  8  1  6
  9 13  1  0
  9 10  2  0
 11 12  1  0
 13 14  1  0
 14 15  1  1
 14 17  1  0
 16 15  1  0
 17 18  2  0
 19 20  1  0
 19 17  1  0
 20 24  1  0
 21 22  1  0
 20 21  1  1
 22 26  1  0
 23 22  2  0
 24 27  1  0
 25 24  2  0
M  END
$$$$
