YCD.pdb
     RDKit          3D

 27 27  0  0  1  0  0  0  0  0999 V2000
   21.4241  -13.9320  -21.9885 O   0  0  0  0  0  0  0  0  0  0  0  0
   21.1569  -12.9070  -21.1044 C   0  0  0  0  0  0  0  0  0  0  0  0
   19.8403  -12.6188  -20.7700 C   0  0  0  0  0  0  0  0  0  0  0  0
   19.5817  -11.5982  -19.8905 C   0  0  0  0  0  0  0  0  0  0  0  0
   20.5868  -10.8545  -19.3321 C   0  0  0  0  0  0  0  0  0  0  0  0
   20.3595   -9.7549  -18.3897 C   0  0  0  0  0  0  0  0  0  0  0  0
   20.5429  -10.2335  -16.9654 C   0  0  2  0  0  0  0  0  0  0  0  0
   19.5518  -11.2220  -16.6920 N   0  0  0  0  0  0  0  0  0  0  0  0
   20.3989   -9.0228  -16.0993 C   0  0  0  0  0  0  0  0  0  0  0  0
   19.2576   -8.6920  -15.7356 O   0  0  0  0  0  0  0  0  0  0  0  0
   21.9005  -11.1528  -19.6746 C   0  0  0  0  0  0  0  0  0  0  0  0
   22.1965  -12.1814  -20.5636 C   0  0  0  0  0  0  0  0  0  0  0  0
   21.4976   -8.2483  -15.6832 N   0  0  0  0  0  0  0  0  0  0  0  0
   21.4356   -7.0852  -14.8435 C   0  0  1  0  0  0  0  0  0  0  0  0
   21.9999   -7.2630  -13.4852 C   0  0  0  0  0  0  0  0  0  0  0  0
   22.1841   -5.7878  -12.5138 S   0  0  0  0  0  0  0  0  0  0  0  0
   21.9300   -5.8628  -15.5533 C   0  0  0  0  0  0  0  0  0  0  0  0
   23.0702   -5.8230  -16.0825 O   0  0  0  0  0  0  0  0  0  0  0  0
   21.1119   -4.7032  -15.6467 N   0  0  0  0  0  0  0  0  0  0  0  0
   21.6358   -3.4925  -16.3247 C   0  0  1  0  0  0  0  0  0  0  0  0
   20.5708   -2.9590  -17.2566 C   0  0  0  0  0  0  0  0  0  0  0  0
   20.8986   -1.7092  -17.9000 C   0  0  0  0  0  0  0  0  0  0  0  0
   21.9643   -1.0844  -17.7304 O   0  0  0  0  0  0  0  0  0  0  0  0
   21.8333   -2.5127  -15.2388 C   0  0  0  0  0  0  0  0  0  0  0  0
   21.4746   -2.7801  -14.0742 O   0  0  0  0  0  0  0  0  0  0  0  0
   19.9811   -1.1303  -18.7805 O   0  0  0  0  0  0  0  0  0  0  0  0
   22.4122   -1.2951  -15.4809 O   0  0  0  0  0  0  0  0  0  0  0  0
  2 12  2  0
  2  1  1  0
  3  2  1  0
  4  5  1  0
  4  3  2  0
  5 11  2  0
  6  7  1  0
  6  5  1  0
  7  9  1  0
  7  8  1  1
  9 13  1  0
  9 10  2  0
 11 12  1  0
 13 14  1  0
 14 15  1  1
 14 17  1  0
 16 15  1  0
 17 18  2  0
 19 20  1  0
 19 17  1  0
 20 24  1  0
 21 22  1  0
 20 21  1  6
 22 26  1  0
 23 22  2  0
 24 27  1  0
 25 24  2  0
M  END
$$$$
