YCD.pdb
     RDKit          3D

 27 27  0  0  1  0  0  0  0  0999 V2000
   17.0120  -22.6947  -11.3519 O   0  0  0  0  0  0  0  0  0  0  0  0
   18.2400  -22.0952  -11.5418 C   0  0  0  0  0  0  0  0  0  0  0  0
   19.2340  -22.7771  -12.2313 C   0  0  0  0  0  0  0  0  0  0  0  0
   20.4529  -22.1751  -12.4164 C   0  0  0  0  0  0  0  0  0  0  0  0
   20.7173  -20.9190  -11.9399 C   0  0  0  0  0  0  0  0  0  0  0  0
   22.0031  -20.2363  -12.1119 C   0  0  0  0  0  0  0  0  0  0  0  0
   23.1004  -20.9865  -11.3877 C   0  0  2  0  0  0  0  0  0  0  0  0
   22.9235  -20.7987   -9.9850 N   0  0  0  0  0  0  0  0  0  0  0  0
   24.3904  -20.4157  -11.8842 C   0  0  0  0  0  0  0  0  0  0  0  0
   24.7962  -19.3542  -11.3813 O   0  0  0  0  0  0  0  0  0  0  0  0
   19.7142  -20.2466  -11.2515 C   0  0  0  0  0  0  0  0  0  0  0  0
   18.4673  -20.8291  -11.0467 C   0  0  0  0  0  0  0  0  0  0  0  0
   25.1576  -21.0289  -12.8920 N   0  0  0  0  0  0  0  0  0  0  0  0
   26.4412  -20.5850  -13.3579 C   0  0  1  0  0  0  0  0  0  0  0  0
   27.5942  -21.3692  -12.8574 C   0  0  0  0  0  0  0  0  0  0  0  0
   27.6497  -21.6494  -11.1046 S   0  0  0  0  0  0  0  0  0  0  0  0
   26.4482  -20.3697  -14.8399 C   0  0  0  0  0  0  0  0  0  0  0  0
   25.7908  -21.1085  -15.6170 O   0  0  0  0  0  0  0  0  0  0  0  0
   27.2083  -19.3120  -15.4109 N   0  0  0  0  0  0  0  0  0  0  0  0
   27.2452  -19.1524  -16.8851 C   0  0  1  0  0  0  0  0  0  0  0  0
   27.9450  -17.8530  -17.2152 C   0  0  0  0  0  0  0  0  0  0  0  0
   28.1486  -17.6147  -18.6242 C   0  0  0  0  0  0  0  0  0  0  0  0
   27.7177  -18.3489  -19.5353 O   0  0  0  0  0  0  0  0  0  0  0  0
   28.0894  -20.2661  -17.3599 C   0  0  0  0  0  0  0  0  0  0  0  0
   27.7966  -20.8783  -18.4068 O   0  0  0  0  0  0  0  0  0  0  0  0
   28.8748  -16.4927  -19.0316 O   0  0  0  0  0  0  0  0  0  0  0  0
   29.2075  -20.6512  -16.6686 O   0  0  0  0  0  0  0  0  0  0  0  0
  2 12  2  0
  2  1  1  0
  3  2  1  0
  4  5  1  0
  4  3  2  0
  5 11  2  0
  6  7  1  0
  6  5  1  0
  7  9  1  0
  7  8  1  1
  9 13  1  0
  9 10  2  0
 11 12  1  0
 13 14  1  0
 14 15  1  6
 14 17  1  0
 16 15  1  0
 17 18  2  0
 19 20  1  0
 19 17  1  0
 20 24  1  0
 21 22  1  0
 20 21  1  1
 22 26  1  0
 23 22  2  0
 24 27  1  0
 25 24  2  0
M  END
$$$$
