YCD.pdb
     RDKit          3D

 27 27  0  0  1  0  0  0  0  0999 V2000
   29.2586  -28.7419  -26.3018 O   0  0  0  0  0  0  0  0  0  0  0  0
   29.3426  -29.3701  -25.0763 C   0  0  0  0  0  0  0  0  0  0  0  0
   28.1935  -29.5400  -24.3153 C   0  0  0  0  0  0  0  0  0  0  0  0
   28.2842  -30.1655  -23.0976 C   0  0  0  0  0  0  0  0  0  0  0  0
   29.4775  -30.6277  -22.6107 C   0  0  0  0  0  0  0  0  0  0  0  0
   29.6237  -31.3002  -21.3164 C   0  0  0  0  0  0  0  0  0  0  0  0
   29.7683  -30.2821  -20.2056 C   0  0  2  0  0  0  0  0  0  0  0  0
   31.0622  -29.6903  -20.3034 N   0  0  0  0  0  0  0  0  0  0  0  0
   29.5771  -31.0336  -18.9268 C   0  0  0  0  0  0  0  0  0  0  0  0
   30.5849  -31.4652  -18.3417 O   0  0  0  0  0  0  0  0  0  0  0  0
   30.6206  -30.4518  -23.3818 C   0  0  0  0  0  0  0  0  0  0  0  0
   30.5627  -29.8215  -24.6209 C   0  0  0  0  0  0  0  0  0  0  0  0
   28.3092  -31.2701  -18.3639 N   0  0  0  0  0  0  0  0  0  0  0  0
   28.0565  -31.8853  -17.0913 C   0  0  1  0  0  0  0  0  0  0  0  0
   28.7361  -31.2452  -15.9408 C   0  0  0  0  0  0  0  0  0  0  0  0
   28.3352  -31.8908  -14.3357 S   0  0  0  0  0  0  0  0  0  0  0  0
   26.5952  -32.1314  -16.8757 C   0  0  0  0  0  0  0  0  0  0  0  0
   25.7415  -31.2229  -17.0418 O   0  0  0  0  0  0  0  0  0  0  0  0
   26.1323  -33.4143  -16.4725 N   0  0  0  0  0  0  0  0  0  0  0  0
   24.6784  -33.6402  -16.2847 C   0  0  1  0  0  0  0  0  0  0  0  0
   24.4363  -35.1227  -16.1093 C   0  0  0  0  0  0  0  0  0  0  0  0
   23.1905  -35.6029  -16.6579 C   0  0  0  0  0  0  0  0  0  0  0  0
   22.2956  -34.8720  -17.1268 O   0  0  0  0  0  0  0  0  0  0  0  0
   24.3572  -32.9653  -15.0121 C   0  0  0  0  0  0  0  0  0  0  0  0
   23.1758  -32.6818  -14.7285 O   0  0  0  0  0  0  0  0  0  0  0  0
   22.9361  -36.9765  -16.6811 O   0  0  0  0  0  0  0  0  0  0  0  0
   25.3409  -32.6371  -14.1171 O   0  0  0  0  0  0  0  0  0  0  0  0
  2 12  2  0
  2  1  1  0
  3  2  1  0
  4  5  1  0
  4  3  2  0
  5 11  2  0
  6  7  1  0
  6  5  1  0
  7  9  1  0
  7  8  1  1
  9 13  1  0
  9 10  2  0
 11 12  1  0
 13 14  1  0
 14 15  1  1
 14 17  1  0
 16 15  1  0
 17 18  2  0
 19 20  1  0
 19 17  1  0
 20 24  1  0
 21 22  1  0
 20 21  1  1
 22 26  1  0
 23 22  2  0
 24 27  1  0
 25 24  2  0
M  END
$$$$
