YCD.pdb
     RDKit          3D

 27 27  0  0  1  0  0  0  0  0999 V2000
   28.2506  -15.4839  -19.5756 O   0  0  0  0  0  0  0  0  0  0  0  0
   27.7024  -16.3914  -18.6927 C   0  0  0  0  0  0  0  0  0  0  0  0
   28.1899  -16.4618  -17.3944 C   0  0  0  0  0  0  0  0  0  0  0  0
   27.6403  -17.3665  -16.5217 C   0  0  0  0  0  0  0  0  0  0  0  0
   26.6229  -18.2033  -16.8954 C   0  0  0  0  0  0  0  0  0  0  0  0
   26.0056  -19.1858  -15.9995 C   0  0  0  0  0  0  0  0  0  0  0  0
   27.0101  -20.2487  -15.6088 C   0  0  2  0  0  0  0  0  0  0  0  0
   27.2876  -21.0488  -16.7563 N   0  0  0  0  0  0  0  0  0  0  0  0
   26.3762  -21.0320  -14.5037 C   0  0  0  0  0  0  0  0  0  0  0  0
   25.6389  -21.9854  -14.8063 O   0  0  0  0  0  0  0  0  0  0  0  0
   26.1434  -18.1232  -18.1976 C   0  0  0  0  0  0  0  0  0  0  0  0
   26.6792  -17.2167  -19.1071 C   0  0  0  0  0  0  0  0  0  0  0  0
   26.5802  -20.7337  -13.1437 N   0  0  0  0  0  0  0  0  0  0  0  0
   25.7193  -21.1187  -12.0609 C   0  0  1  0  0  0  0  0  0  0  0  0
   26.3062  -20.9644  -10.7093 C   0  0  0  0  0  0  0  0  0  0  0  0
   25.2121  -20.3701   -9.4430 S   0  0  0  0  0  0  0  0  0  0  0  0
   24.3519  -20.5248  -12.2027 C   0  0  0  0  0  0  0  0  0  0  0  0
   24.1860  -19.3185  -12.5178 O   0  0  0  0  0  0  0  0  0  0  0  0
   23.1941  -21.3204  -11.9812 N   0  0  0  0  0  0  0  0  0  0  0  0
   21.8506  -20.7020  -12.0942 C   0  0  1  0  0  0  0  0  0  0  0  0
   21.0292  -21.5027  -13.0797 C   0  0  0  0  0  0  0  0  0  0  0  0
   20.7254  -20.8179  -14.3136 C   0  0  0  0  0  0  0  0  0  0  0  0
   21.0566  -19.6437  -14.5709 O   0  0  0  0  0  0  0  0  0  0  0  0
   21.2520  -20.8628  -10.7547 C   0  0  0  0  0  0  0  0  0  0  0  0
   20.2264  -20.2256  -10.4410 O   0  0  0  0  0  0  0  0  0  0  0  0
   20.0120  -21.4873  -15.3111 O   0  0  0  0  0  0  0  0  0  0  0  0
   21.8031  -21.7103   -9.8304 O   0  0  0  0  0  0  0  0  0  0  0  0
  2 12  2  0
  2  1  1  0
  3  2  1  0
  4  5  1  0
  4  3  2  0
  5 11  2  0
  6  7  1  0
  6  5  1  0
  7  9  1  0
  7  8  1  6
  9 13  1  0
  9 10  2  0
 11 12  1  0
 13 14  1  0
 14 15  1  1
 14 17  1  0
 16 15  1  0
 17 18  2  0
 19 20  1  0
 19 17  1  0
 20 24  1  0
 21 22  1  0
 20 21  1  6
 22 26  1  0
 23 22  2  0
 24 27  1  0
 25 24  2  0
M  END
$$$$
