YCD.pdb
     RDKit          3D

 27 27  0  0  1  0  0  0  0  0999 V2000
   28.6259  -14.1940  -17.8172 O   0  0  0  0  0  0  0  0  0  0  0  0
   28.0121  -15.2751  -17.2189 C   0  0  0  0  0  0  0  0  0  0  0  0
   27.8270  -15.2805  -15.8426 C   0  0  0  0  0  0  0  0  0  0  0  0
   27.2160  -16.3587  -15.2541 C   0  0  0  0  0  0  0  0  0  0  0  0
   26.7829  -17.4314  -15.9866 C   0  0  0  0  0  0  0  0  0  0  0  0
   26.1269  -18.6052  -15.4027 C   0  0  0  0  0  0  0  0  0  0  0  0
   27.1586  -19.6136  -14.9446 C   0  0  2  0  0  0  0  0  0  0  0  0
   27.7049  -20.2531  -16.0965 N   0  0  0  0  0  0  0  0  0  0  0  0
   26.4362  -20.5678  -14.0479 C   0  0  0  0  0  0  0  0  0  0  0  0
   25.8496  -21.5329  -14.5663 O   0  0  0  0  0  0  0  0  0  0  0  0
   26.9738  -17.4143  -17.3634 C   0  0  0  0  0  0  0  0  0  0  0  0
   27.5900  -16.3360  -17.9909 C   0  0  0  0  0  0  0  0  0  0  0  0
   26.3944  -20.4166  -12.6494 N   0  0  0  0  0  0  0  0  0  0  0  0
   25.3669  -20.9179  -11.7806 C   0  0  1  0  0  0  0  0  0  0  0  0
   25.6326  -20.7467  -10.3332 C   0  0  0  0  0  0  0  0  0  0  0  0
   24.2577  -21.0294   -9.2453 S   0  0  0  0  0  0  0  0  0  0  0  0
   24.0072  -20.4592  -12.2089 C   0  0  0  0  0  0  0  0  0  0  0  0
   23.7454  -19.2409  -12.3797 O   0  0  0  0  0  0  0  0  0  0  0  0
   22.9666  -21.4019  -12.4349 N   0  0  0  0  0  0  0  0  0  0  0  0
   21.6213  -20.9225  -12.8353 C   0  0  1  0  0  0  0  0  0  0  0  0
   21.3357  -21.3975  -14.2424 C   0  0  0  0  0  0  0  0  0  0  0  0
   19.9890  -21.1560  -14.7025 C   0  0  0  0  0  0  0  0  0  0  0  0
   19.6518  -20.2053  -15.4356 O   0  0  0  0  0  0  0  0  0  0  0  0
   20.6919  -21.6097  -11.9175 C   0  0  0  0  0  0  0  0  0  0  0  0
   19.5592  -21.1364  -11.6950 O   0  0  0  0  0  0  0  0  0  0  0  0
   18.9670  -22.0280  -14.3191 O   0  0  0  0  0  0  0  0  0  0  0  0
   21.0471  -22.7759  -11.2930 O   0  0  0  0  0  0  0  0  0  0  0  0
  2 12  2  0
  2  1  1  0
  3  2  1  0
  4  5  1  0
  4  3  2  0
  5 11  2  0
  6  7  1  0
  6  5  1  0
  7  9  1  0
  7  8  1  6
  9 13  1  0
  9 10  2  0
 11 12  1  0
 13 14  1  0
 14 15  1  1
 14 17  1  0
 16 15  1  0
 17 18  2  0
 19 20  1  0
 19 17  1  0
 20 24  1  0
 21 22  1  0
 20 21  1  6
 22 26  1  0
 23 22  2  0
 24 27  1  0
 25 24  2  0
M  END
$$$$
