YCD.pdb
     RDKit          3D

 27 27  0  0  1  0  0  0  0  0999 V2000
   29.8568  -11.1071  -16.9835 O   0  0  0  0  0  0  0  0  0  0  0  0
   28.5689  -10.6328  -16.8423 C   0  0  0  0  0  0  0  0  0  0  0  0
   27.9337  -10.7361  -15.6118 C   0  0  0  0  0  0  0  0  0  0  0  0
   26.6530  -10.2626  -15.4785 C   0  0  0  0  0  0  0  0  0  0  0  0
   25.9824   -9.6901  -16.5261 C   0  0  0  0  0  0  0  0  0  0  0  0
   24.6144   -9.1718  -16.4320 C   0  0  0  0  0  0  0  0  0  0  0  0
   23.6333  -10.3052  -16.2220 C   0  0  2  0  0  0  0  0  0  0  0  0
   23.7596  -11.2170  -17.3114 N   0  0  0  0  0  0  0  0  0  0  0  0
   22.2789   -9.6746  -16.1564 C   0  0  0  0  0  0  0  0  0  0  0  0
   21.7089   -9.3929  -17.2241 O   0  0  0  0  0  0  0  0  0  0  0  0
   26.6289   -9.5923  -17.7527 C   0  0  0  0  0  0  0  0  0  0  0  0
   27.9275  -10.0629  -17.9210 C   0  0  0  0  0  0  0  0  0  0  0  0
   21.6289   -9.3891  -14.9414 N   0  0  0  0  0  0  0  0  0  0  0  0
   20.2906   -8.8877  -14.8022 C   0  0  1  0  0  0  0  0  0  0  0  0
   19.5275   -9.4486  -13.6629 C   0  0  0  0  0  0  0  0  0  0  0  0
   17.9641   -8.6818  -13.3136 S   0  0  0  0  0  0  0  0  0  0  0  0
   20.2477   -7.3932  -14.8874 C   0  0  0  0  0  0  0  0  0  0  0  0
   21.0486   -6.6721  -14.2391 O   0  0  0  0  0  0  0  0  0  0  0  0
   19.2879   -6.7458  -15.7134 N   0  0  0  0  0  0  0  0  0  0  0  0
   19.1723   -5.2675  -15.6778 C   0  0  1  0  0  0  0  0  0  0  0  0
   19.2327   -4.7416  -17.0945 C   0  0  0  0  0  0  0  0  0  0  0  0
   19.0152   -3.3206  -17.2237 C   0  0  0  0  0  0  0  0  0  0  0  0
   17.9397   -2.7989  -17.5786 O   0  0  0  0  0  0  0  0  0  0  0  0
   17.8192   -5.0117  -15.1467 C   0  0  0  0  0  0  0  0  0  0  0  0
   16.9829   -5.9350  -15.0783 O   0  0  0  0  0  0  0  0  0  0  0  0
   20.0609   -2.4386  -16.9395 O   0  0  0  0  0  0  0  0  0  0  0  0
   17.4515   -3.7639  -14.7178 O   0  0  0  0  0  0  0  0  0  0  0  0
  2 12  2  0
  2  1  1  0
  3  2  1  0
  4  5  1  0
  4  3  2  0
  5 11  2  0
  6  7  1  0
  6  5  1  0
  7  9  1  0
  7  8  1  6
  9 13  1  0
  9 10  2  0
 11 12  1  0
 13 14  1  0
 14 15  1  1
 14 17  1  0
 16 15  1  0
 17 18  2  0
 19 20  1  0
 19 17  1  0
 20 24  1  0
 21 22  1  0
 20 21  1  6
 22 26  1  0
 23 22  2  0
 24 27  1  0
 25 24  2  0
M  END
$$$$
