YCD.pdb
     RDKit          3D

 27 27  0  0  1  0  0  0  0  0999 V2000
   29.8170  -16.2398  -19.0296 O   0  0  0  0  0  0  0  0  0  0  0  0
   29.0078  -17.0813  -18.2942 C   0  0  0  0  0  0  0  0  0  0  0  0
   28.7511  -18.3634  -18.7617 C   0  0  0  0  0  0  0  0  0  0  0  0
   27.9455  -19.1949  -18.0256 C   0  0  0  0  0  0  0  0  0  0  0  0
   27.3866  -18.7957  -16.8411 C   0  0  0  0  0  0  0  0  0  0  0  0
   26.5195  -19.6473  -16.0215 C   0  0  0  0  0  0  0  0  0  0  0  0
   27.3508  -20.5640  -15.1498 C   0  0  2  0  0  0  0  0  0  0  0  0
   27.9001  -21.5911  -15.9729 N   0  0  0  0  0  0  0  0  0  0  0  0
   26.4218  -21.1002  -14.1077 C   0  0  0  0  0  0  0  0  0  0  0  0
   25.7263  -22.0898  -14.3927 O   0  0  0  0  0  0  0  0  0  0  0  0
   27.6511  -17.5100  -16.3836 C   0  0  0  0  0  0  0  0  0  0  0  0
   28.4638  -16.6421  -17.1063 C   0  0  0  0  0  0  0  0  0  0  0  0
   26.3048  -20.5318  -12.8257 N   0  0  0  0  0  0  0  0  0  0  0  0
   25.2713  -20.8182  -11.8709 C   0  0  1  0  0  0  0  0  0  0  0  0
   25.5581  -20.3759  -10.4863 C   0  0  0  0  0  0  0  0  0  0  0  0
   24.9634  -21.4309   -9.1875 S   0  0  0  0  0  0  0  0  0  0  0  0
   23.9225  -20.4066  -12.3748 C   0  0  0  0  0  0  0  0  0  0  0  0
   23.7560  -19.3380  -13.0169 O   0  0  0  0  0  0  0  0  0  0  0  0
   22.7835  -21.2241  -12.1359 N   0  0  0  0  0  0  0  0  0  0  0  0
   21.4615  -20.8069  -12.6634 C   0  0  1  0  0  0  0  0  0  0  0  0
   21.3416  -21.2739  -14.0968 C   0  0  0  0  0  0  0  0  0  0  0  0
   20.0418  -21.0760  -14.6925 C   0  0  0  0  0  0  0  0  0  0  0  0
   19.1555  -21.9503  -14.7630 O   0  0  0  0  0  0  0  0  0  0  0  0
   20.4825  -21.5539  -11.8500 C   0  0  0  0  0  0  0  0  0  0  0  0
   19.2586  -21.4011  -12.0373 O   0  0  0  0  0  0  0  0  0  0  0  0
   19.7203  -19.8305  -15.2378 O   0  0  0  0  0  0  0  0  0  0  0  0
   20.8906  -22.4279  -10.8774 O   0  0  0  0  0  0  0  0  0  0  0  0
  2 12  2  0
  2  1  1  0
  3  2  1  0
  4  5  1  0
  4  3  2  0
  5 11  2  0
  6  7  1  0
  6  5  1  0
  7  9  1  0
  7  8  1  6
  9 13  1  0
  9 10  2  0
 11 12  1  0
 13 14  1  0
 14 15  1  1
 14 17  1  0
 16 15  1  0
 17 18  2  0
 19 20  1  0
 19 17  1  0
 20 24  1  0
 21 22  1  0
 20 21  1  6
 22 26  1  0
 23 22  2  0
 24 27  1  0
 25 24  2  0
M  END
$$$$
