KGV.pdb
     RDKit          3D

 21 20  0  0  1  0  0  0  0  0999 V2000
   18.3318  -21.5409  -12.4846 N   0  0  0  0  0  0  0  0  0  0  0  0
   19.6069  -21.9283  -11.9473 C   0  0  1  0  0  0  0  0  0  0  0  0
   19.5149  -23.3181  -11.3034 C   0  0  0  0  0  0  0  0  0  0  0  0
   18.9695  -23.1217   -9.9299 C   0  0  0  0  0  0  0  0  0  0  0  0
   18.8135  -24.4001   -9.1511 C   0  0  0  0  0  0  0  0  0  0  0  0
   18.2767  -24.1897   -7.7666 C   0  0  0  0  0  0  0  0  0  0  0  0
   18.0693  -25.4219   -7.0499 N   0  0  0  0  0  0  0  0  0  0  0  0
   20.6737  -21.9857  -12.9495 C   0  0  0  0  0  0  0  0  0  0  0  0
   20.5403  -22.7252  -13.9432 O   0  0  0  0  0  0  0  0  0  0  0  0
   21.8499  -21.2132  -12.8019 N   0  0  0  0  0  0  0  0  0  0  0  0
   22.8718  -21.3172  -13.8059 C   0  0  0  0  0  0  0  0  0  0  0  0
   23.9994  -20.4067  -13.5334 C   0  0  0  0  0  0  0  0  0  0  0  0
   23.7670  -19.3602  -12.8772 O   0  0  0  0  0  0  0  0  0  0  0  0
   28.1024  -21.4320  -13.8150 C   0  0  0  0  0  0  0  0  0  0  0  0
   27.5600  -20.3075  -12.9501 C   0  0  2  0  0  0  0  0  0  0  0  0
   27.1423  -20.9584  -11.6305 C   0  0  0  0  0  0  0  0  0  0  0  0
   26.3748  -19.7202  -13.6440 C   0  0  2  0  0  0  0  0  0  0  0  0
   25.3211  -20.6136  -13.9493 N   0  0  0  0  0  0  0  0  0  0  0  0
   26.8126  -19.0553  -14.8990 C   0  0  0  0  0  0  0  0  0  0  0  0
   26.5786  -19.5465  -16.0218 O   0  0  0  0  0  0  0  0  0  0  0  0
   27.5134  -17.8378  -14.8898 O   0  0  0  0  0  0  0  0  0  0  0  0
  2  8  1  0
  2  1  1  6
  3  2  1  0
  4  3  1  0
  5  4  1  0
  6  7  1  0
  6  5  1  0
  8  9  2  0
 10  8  1  0
 10 11  1  0
 11 12  1  0
 12 13  2  0
 15 14  1  6
 15 17  1  0
 16 15  1  0
 17 19  1  0
 18 12  1  0
 17 18  1  6
 19 20  2  0
 19 21  1  0
M  END
$$$$
