KGV.pdb
     RDKit          3D

 21 20  0  0  1  0  0  0  0  0999 V2000
   21.8692  -15.3845  -16.8552 N   0  0  0  0  0  0  0  0  0  0  0  0
   20.4954  -15.7553  -16.6563 C   0  0  1  0  0  0  0  0  0  0  0  0
   20.3935  -16.9033  -15.6432 C   0  0  0  0  0  0  0  0  0  0  0  0
   21.0538  -18.0866  -16.2646 C   0  0  0  0  0  0  0  0  0  0  0  0
   21.0653  -19.3066  -15.3834 C   0  0  0  0  0  0  0  0  0  0  0  0
   21.6908  -20.5037  -16.0354 C   0  0  0  0  0  0  0  0  0  0  0  0
   20.7300  -21.3549  -16.6892 N   0  0  0  0  0  0  0  0  0  0  0  0
   19.6583  -14.6619  -16.1567 C   0  0  0  0  0  0  0  0  0  0  0  0
   18.4334  -14.8428  -16.0198 O   0  0  0  0  0  0  0  0  0  0  0  0
   20.2238  -13.4070  -15.8291 N   0  0  0  0  0  0  0  0  0  0  0  0
   19.3779  -12.4018  -15.2483 C   0  0  0  0  0  0  0  0  0  0  0  0
   19.4644  -11.1254  -15.9818 C   0  0  0  0  0  0  0  0  0  0  0  0
   20.2490  -11.0603  -16.9616 O   0  0  0  0  0  0  0  0  0  0  0  0
   16.5438   -8.0813  -15.7597 C   0  0  0  0  0  0  0  0  0  0  0  0
   17.4313   -8.3184  -16.9693 C   0  0  2  0  0  0  0  0  0  0  0  0
   16.7314   -9.3975  -17.7971 C   0  0  0  0  0  0  0  0  0  0  0  0
   18.7561   -8.8072  -16.4825 C   0  0  2  0  0  0  0  0  0  0  0  0
   18.7374   -9.9680  -15.6740 N   0  0  0  0  0  0  0  0  0  0  0  0
   19.4439   -7.7205  -15.7377 C   0  0  0  0  0  0  0  0  0  0  0  0
   19.4982   -7.7073  -14.4912 O   0  0  0  0  0  0  0  0  0  0  0  0
   20.0702   -6.6491  -16.3959 O   0  0  0  0  0  0  0  0  0  0  0  0
  2  8  1  0
  2  1  1  1
  3  2  1  0
  4  3  1  0
  5  4  1  0
  6  7  1  0
  6  5  1  0
  8  9  2  0
 10  8  1  0
 10 11  1  0
 11 12  1  0
 12 13  2  0
 15 14  1  1
 15 17  1  0
 16 15  1  0
 17 19  1  0
 18 12  1  0
 17 18  1  1
 19 20  2  0
 19 21  1  0
M  END
$$$$
