KGV.pdb
     RDKit          3D

 21 20  0  0  1  0  0  0  0  0999 V2000
   24.4983  -20.4803   -7.7729 N   0  0  0  0  0  0  0  0  0  0  0  0
   25.5593  -20.2946   -8.7238 C   0  0  1  0  0  0  0  0  0  0  0  0
   26.8349  -21.0007   -8.2451 C   0  0  0  0  0  0  0  0  0  0  0  0
   27.7280  -19.9457   -7.6867 C   0  0  0  0  0  0  0  0  0  0  0  0
   27.8683  -20.0006   -6.1892 C   0  0  0  0  0  0  0  0  0  0  0  0
   28.8464  -19.0007   -5.6479 C   0  0  0  0  0  0  0  0  0  0  0  0
   28.8690  -18.9579   -4.2082 N   0  0  0  0  0  0  0  0  0  0  0  0
   25.2508  -20.8161  -10.0575 C   0  0  0  0  0  0  0  0  0  0  0  0
   24.7465  -21.9496  -10.1694 O   0  0  0  0  0  0  0  0  0  0  0  0
   25.5184  -20.0490  -11.2159 N   0  0  0  0  0  0  0  0  0  0  0  0
   25.2038  -20.6100  -12.5002 C   0  0  0  0  0  0  0  0  0  0  0  0
   23.9981  -19.9936  -13.0845 C   0  0  0  0  0  0  0  0  0  0  0  0
   23.5904  -18.9122  -12.5904 O   0  0  0  0  0  0  0  0  0  0  0  0
   21.8647  -21.4802  -16.5194 C   0  0  0  0  0  0  0  0  0  0  0  0
   21.9685  -20.0001  -16.1949 C   0  0  2  0  0  0  0  0  0  0  0  0
   23.2097  -19.4957  -16.9329 C   0  0  0  0  0  0  0  0  0  0  0  0
   22.1434  -19.8613  -14.7180 C   0  0  2  0  0  0  0  0  0  0  0  0
   23.2625  -20.5186  -14.1549 N   0  0  0  0  0  0  0  0  0  0  0  0
   20.9165  -20.3343  -14.0256 C   0  0  0  0  0  0  0  0  0  0  0  0
   20.8695  -21.4393  -13.4481 O   0  0  0  0  0  0  0  0  0  0  0  0
   19.7427  -19.5634  -13.9832 O   0  0  0  0  0  0  0  0  0  0  0  0
  2  8  1  0
  2  1  1  1
  3  2  1  0
  4  3  1  0
  5  4  1  0
  6  7  1  0
  6  5  1  0
  8  9  2  0
 10  8  1  0
 10 11  1  0
 11 12  1  0
 12 13  2  0
 15 14  1  1
 15 17  1  0
 16 15  1  0
 17 19  1  0
 18 12  1  0
 17 18  1  1
 19 20  2  0
 19 21  1  0
M  END
$$$$
