KGV.pdb
     RDKit          3D

 21 20  0  0  1  0  0  0  0  0999 V2000
   23.3035  -19.9291  -15.0088 N   0  0  0  0  0  0  0  0  0  0  0  0
   24.4790  -19.9045  -15.8348 C   0  0  1  0  0  0  0  0  0  0  0  0
   24.4637  -18.6719  -16.7487 C   0  0  0  0  0  0  0  0  0  0  0  0
   23.2054  -18.7413  -17.5452 C   0  0  0  0  0  0  0  0  0  0  0  0
   22.2076  -17.6699  -17.1968 C   0  0  0  0  0  0  0  0  0  0  0  0
   20.9367  -17.7629  -17.9877 C   0  0  0  0  0  0  0  0  0  0  0  0
   19.9695  -16.7612  -17.6188 N   0  0  0  0  0  0  0  0  0  0  0  0
   25.7304  -19.8638  -15.0745 C   0  0  0  0  0  0  0  0  0  0  0  0
   26.8155  -19.9770  -15.6759 O   0  0  0  0  0  0  0  0  0  0  0  0
   25.7202  -19.6979  -13.6694 N   0  0  0  0  0  0  0  0  0  0  0  0
   26.9555  -19.8422  -12.9507 C   0  0  0  0  0  0  0  0  0  0  0  0
   26.7438  -20.4274  -11.6137 C   0  0  0  0  0  0  0  0  0  0  0  0
   26.5393  -21.6652  -11.5375 O   0  0  0  0  0  0  0  0  0  0  0  0
   28.3409  -19.3471   -7.9575 C   0  0  0  0  0  0  0  0  0  0  0  0
   26.8316  -19.5159   -7.9480 C   0  0  2  0  0  0  0  0  0  0  0  0
   26.5059  -20.2996   -6.6755 C   0  0  0  0  0  0  0  0  0  0  0  0
   26.4458  -20.2991   -9.1600 C   0  0  2  0  0  0  0  0  0  0  0  0
   26.7519  -19.7111  -10.4098 N   0  0  0  0  0  0  0  0  0  0  0  0
   24.9900  -20.5950   -9.1179 C   0  0  0  0  0  0  0  0  0  0  0  0
   24.1528  -19.8704   -9.6931 O   0  0  0  0  0  0  0  0  0  0  0  0
   24.4769  -21.7065   -8.4286 O   0  0  0  0  0  0  0  0  0  0  0  0
  2  8  1  0
  2  1  1  1
  3  2  1  0
  4  3  1  0
  5  4  1  0
  6  7  1  0
  6  5  1  0
  8  9  2  0
 10  8  1  0
 10 11  1  0
 11 12  1  0
 12 13  2  0
 15 14  1  6
 15 17  1  0
 16 15  1  0
 17 19  1  0
 18 12  1  0
 17 18  1  6
 19 20  2  0
 19 21  1  0
M  END
$$$$
