KGV.pdb
     RDKit          3D

 21 20  0  0  1  0  0  0  0  0999 V2000
   19.1175   -9.6692  -16.0164 N   0  0  0  0  0  0  0  0  0  0  0  0
   18.2444  -10.2304  -15.0227 C   0  0  1  0  0  0  0  0  0  0  0  0
   18.4886  -11.7393  -14.8883 C   0  0  0  0  0  0  0  0  0  0  0  0
   17.7088  -12.4006  -15.9733 C   0  0  0  0  0  0  0  0  0  0  0  0
   16.2380  -12.5185  -15.6771 C   0  0  0  0  0  0  0  0  0  0  0  0
   15.4785  -13.2667  -16.7320 C   0  0  0  0  0  0  0  0  0  0  0  0
   14.0675  -13.3529  -16.4553 N   0  0  0  0  0  0  0  0  0  0  0  0
   18.4164   -9.6441  -13.6913 C   0  0  0  0  0  0  0  0  0  0  0  0
   19.5343   -9.6878  -13.1434 O   0  0  0  0  0  0  0  0  0  0  0  0
   17.3303   -9.0309  -13.0231 N   0  0  0  0  0  0  0  0  0  0  0  0
   17.5312   -8.5438  -11.6869 C   0  0  0  0  0  0  0  0  0  0  0  0
   16.3244   -7.8791  -11.1611 C   0  0  0  0  0  0  0  0  0  0  0  0
   15.4340   -7.5392  -11.9806 O   0  0  0  0  0  0  0  0  0  0  0  0
   13.2022   -6.6338   -7.6114 C   0  0  0  0  0  0  0  0  0  0  0  0
   14.5189   -7.3257   -7.9190 C   0  0  2  0  0  0  0  0  0  0  0  0
   15.5494   -6.7032   -6.9756 C   0  0  0  0  0  0  0  0  0  0  0  0
   14.8704   -7.0399   -9.3423 C   0  0  2  0  0  0  0  0  0  0  0  0
   16.0858   -7.5921   -9.8107 N   0  0  0  0  0  0  0  0  0  0  0  0
   14.9006   -5.5704   -9.5615 C   0  0  0  0  0  0  0  0  0  0  0  0
   15.9400   -4.9001   -9.3964 O   0  0  0  0  0  0  0  0  0  0  0  0
   13.7609   -4.8555   -9.9663 O   0  0  0  0  0  0  0  0  0  0  0  0
  2  8  1  0
  2  1  1  6
  3  2  1  0
  4  3  1  0
  5  4  1  0
  6  7  1  0
  6  5  1  0
  8  9  2  0
 10  8  1  0
 10 11  1  0
 11 12  1  0
 12 13  2  0
 15 14  1  1
 15 17  1  0
 16 15  1  0
 17 19  1  0
 18 12  1  0
 17 18  1  1
 19 20  2  0
 19 21  1  0
M  END
$$$$
