KGV.pdb
     RDKit          3D

 21 20  0  0  1  0  0  0  0  0999 V2000
   24.0960  -20.6632  -18.5720 N   0  0  0  0  0  0  0  0  0  0  0  0
   23.7261  -20.0565  -17.3231 C   0  0  1  0  0  0  0  0  0  0  0  0
   22.7403  -20.9549  -16.5644 C   0  0  0  0  0  0  0  0  0  0  0  0
   22.9523  -22.3441  -17.0618 C   0  0  0  0  0  0  0  0  0  0  0  0
   23.9712  -23.1216  -16.2729 C   0  0  0  0  0  0  0  0  0  0  0  0
   24.1073  -24.5464  -16.7210 C   0  0  0  0  0  0  0  0  0  0  0  0
   25.1757  -25.2464  -16.0549 N   0  0  0  0  0  0  0  0  0  0  0  0
   24.8614  -19.8098  -16.4309 C   0  0  0  0  0  0  0  0  0  0  0  0
   26.0037  -20.1599  -16.7834 O   0  0  0  0  0  0  0  0  0  0  0  0
   24.6752  -19.1805  -15.1773 N   0  0  0  0  0  0  0  0  0  0  0  0
   25.8332  -18.8559  -14.3919 C   0  0  0  0  0  0  0  0  0  0  0  0
   26.1535  -19.9226  -13.4251 C   0  0  0  0  0  0  0  0  0  0  0  0
   25.4080  -20.9341  -13.3948 O   0  0  0  0  0  0  0  0  0  0  0  0
   28.8422  -22.0588   -9.9183 C   0  0  0  0  0  0  0  0  0  0  0  0
   28.7587  -20.8517  -10.8362 C   0  0  2  0  0  0  0  0  0  0  0  0
   28.7758  -19.6270   -9.9200 C   0  0  0  0  0  0  0  0  0  0  0  0
   27.4689  -20.9285  -11.5856 C   0  0  2  0  0  0  0  0  0  0  0  0
   27.2301  -19.9017  -12.5291 N   0  0  0  0  0  0  0  0  0  0  0  0
   26.3365  -20.9627  -10.6238 C   0  0  0  0  0  0  0  0  0  0  0  0
   25.7626  -19.9221  -10.2434 O   0  0  0  0  0  0  0  0  0  0  0  0
   25.8503  -22.1679  -10.0903 O   0  0  0  0  0  0  0  0  0  0  0  0
  2  8  1  0
  2  1  1  6
  3  2  1  0
  4  3  1  0
  5  4  1  0
  6  7  1  0
  6  5  1  0
  8  9  2  0
 10  8  1  0
 10 11  1  0
 11 12  1  0
 12 13  2  0
 15 14  1  1
 15 17  1  0
 16 15  1  0
 17 19  1  0
 18 12  1  0
 17 18  1  6
 19 20  2  0
 19 21  1  0
M  END
$$$$
