KGV.pdb
     RDKit          3D

 21 20  0  0  1  0  0  0  0  0999 V2000
   25.8007  -18.9390  -15.8149 N   0  0  0  0  0  0  0  0  0  0  0  0
   25.8037  -20.3458  -15.5226 C   0  0  1  0  0  0  0  0  0  0  0  0
   27.1103  -20.7430  -14.8230 C   0  0  0  0  0  0  0  0  0  0  0  0
   28.0274  -21.2553  -15.8808 C   0  0  0  0  0  0  0  0  0  0  0  0
   27.9009  -22.7345  -16.1283 C   0  0  0  0  0  0  0  0  0  0  0  0
   28.7609  -23.2231  -17.2557 C   0  0  0  0  0  0  0  0  0  0  0  0
   28.6051  -24.6318  -17.5129 N   0  0  0  0  0  0  0  0  0  0  0  0
   24.7023  -20.7676  -14.6538 C   0  0  0  0  0  0  0  0  0  0  0  0
   24.5328  -21.9805  -14.4262 O   0  0  0  0  0  0  0  0  0  0  0  0
   23.8319  -19.8155  -14.0723 N   0  0  0  0  0  0  0  0  0  0  0  0
   22.7712  -20.2815  -13.2232 C   0  0  0  0  0  0  0  0  0  0  0  0
   21.6579  -20.8524  -14.0040 C   0  0  0  0  0  0  0  0  0  0  0  0
   21.6064  -20.5942  -15.2331 O   0  0  0  0  0  0  0  0  0  0  0  0
   18.2335  -24.1642  -14.9051 C   0  0  0  0  0  0  0  0  0  0  0  0
   19.3686  -23.7197  -13.9992 C   0  0  2  0  0  0  0  0  0  0  0  0
   18.8510  -23.8818  -12.5691 C   0  0  0  0  0  0  0  0  0  0  0  0
   19.6598  -22.2843  -14.2925 C   0  0  2  0  0  0  0  0  0  0  0  0
   20.6431  -21.6665  -13.4844 N   0  0  0  0  0  0  0  0  0  0  0  0
   18.4046  -21.4938  -14.2012 C   0  0  0  0  0  0  0  0  0  0  0  0
   17.5239  -21.5505  -15.0833 O   0  0  0  0  0  0  0  0  0  0  0  0
   18.1410  -20.6399  -13.1173 O   0  0  0  0  0  0  0  0  0  0  0  0
  2  8  1  0
  2  1  1  1
  3  2  1  0
  4  3  1  0
  5  4  1  0
  6  7  1  0
  6  5  1  0
  8  9  2  0
 10  8  1  0
 10 11  1  0
 11 12  1  0
 12 13  2  0
 15 14  1  6
 15 17  1  0
 16 15  1  0
 17 19  1  0
 18 12  1  0
 17 18  1  1
 19 20  2  0
 19 21  1  0
M  END
$$$$
