KGV.pdb
     RDKit          3D

 21 20  0  0  1  0  0  0  0  0999 V2000
   26.2000  -21.5807  -16.1845 N   0  0  0  0  0  0  0  0  0  0  0  0
   26.7037  -20.2353  -16.1591 C   0  0  1  0  0  0  0  0  0  0  0  0
   25.5444  -19.2304  -16.1889 C   0  0  0  0  0  0  0  0  0  0  0  0
   24.3287  -19.9868  -16.6044 C   0  0  0  0  0  0  0  0  0  0  0  0
   23.5769  -20.6039  -15.4559 C   0  0  0  0  0  0  0  0  0  0  0  0
   22.2739  -21.2241  -15.8647 C   0  0  0  0  0  0  0  0  0  0  0  0
   21.6223  -21.9257  -14.7885 N   0  0  0  0  0  0  0  0  0  0  0  0
   27.5089  -19.9318  -14.9736 C   0  0  0  0  0  0  0  0  0  0  0  0
   27.9695  -18.7840  -14.8245 O   0  0  0  0  0  0  0  0  0  0  0  0
   27.7682  -20.9246  -13.9994 N   0  0  0  0  0  0  0  0  0  0  0  0
   28.4961  -20.5552  -12.8176 C   0  0  0  0  0  0  0  0  0  0  0  0
   27.5931  -20.1434  -11.7268 C   0  0  0  0  0  0  0  0  0  0  0  0
   26.9953  -19.0436  -11.8397 O   0  0  0  0  0  0  0  0  0  0  0  0
   24.4117  -21.2609  -10.5233 C   0  0  0  0  0  0  0  0  0  0  0  0
   25.2738  -21.2751   -9.2730 C   0  0  2  0  0  0  0  0  0  0  0  0
   24.4183  -20.6544   -8.1674 C   0  0  0  0  0  0  0  0  0  0  0  0
   26.4822  -20.4370   -9.5346 C   0  0  2  0  0  0  0  0  0  0  0  0
   27.3439  -20.8837  -10.5638 N   0  0  0  0  0  0  0  0  0  0  0  0
   27.2704  -20.2967   -8.2825 C   0  0  0  0  0  0  0  0  0  0  0  0
   28.2811  -20.9929   -8.0579 O   0  0  0  0  0  0  0  0  0  0  0  0
   26.9208  -19.3729   -7.2835 O   0  0  0  0  0  0  0  0  0  0  0  0
  2  8  1  0
  2  1  1  1
  3  2  1  0
  4  3  1  0
  5  4  1  0
  6  7  1  0
  6  5  1  0
  8  9  2  0
 10  8  1  0
 10 11  1  0
 11 12  1  0
 12 13  2  0
 15 14  1  6
 15 17  1  0
 16 15  1  0
 17 19  1  0
 18 12  1  0
 17 18  1  6
 19 20  2  0
 19 21  1  0
M  END
$$$$
