KGV.pdb
     RDKit          3D

 21 20  0  0  1  0  0  0  0  0999 V2000
   22.7628  -20.6310   -9.9654 N   0  0  0  0  0  0  0  0  0  0  0  0
   24.0356  -20.7701  -10.6175 C   0  0  1  0  0  0  0  0  0  0  0  0
   23.9461  -20.2878  -12.0715 C   0  0  0  0  0  0  0  0  0  0  0  0
   22.9004  -21.1162  -12.7369 C   0  0  0  0  0  0  0  0  0  0  0  0
   22.7407  -20.8260  -14.2050 C   0  0  0  0  0  0  0  0  0  0  0  0
   21.6422  -21.6175  -14.8502 C   0  0  0  0  0  0  0  0  0  0  0  0
   21.4488  -21.2844  -16.2382 N   0  0  0  0  0  0  0  0  0  0  0  0
   25.1108  -20.0104   -9.9752 C   0  0  0  0  0  0  0  0  0  0  0  0
   24.8777  -18.8647   -9.5452 O   0  0  0  0  0  0  0  0  0  0  0  0
   26.4067  -20.5618   -9.8383 N   0  0  0  0  0  0  0  0  0  0  0  0
   27.4019  -19.8108   -9.1250 C   0  0  0  0  0  0  0  0  0  0  0  0
   27.4280  -20.1616   -7.6929 C   0  0  0  0  0  0  0  0  0  0  0  0
   26.5931  -21.0041   -7.2769 O   0  0  0  0  0  0  0  0  0  0  0  0
   30.0685  -18.4769   -4.6822 C   0  0  0  0  0  0  0  0  0  0  0  0
   29.6697  -19.9423   -4.7063 C   0  0  2  0  0  0  0  0  0  0  0  0
   30.7582  -20.6593   -5.5067 C   0  0  0  0  0  0  0  0  0  0  0  0
   28.3509  -20.0517   -5.3989 C   0  0  2  0  0  0  0  0  0  0  0  0
   28.3146  -19.6284   -6.7483 N   0  0  0  0  0  0  0  0  0  0  0  0
   27.3244  -19.2950   -4.6358 C   0  0  0  0  0  0  0  0  0  0  0  0
   26.8344  -18.2311   -5.0655 O   0  0  0  0  0  0  0  0  0  0  0  0
   26.8497  -19.7360   -3.3893 O   0  0  0  0  0  0  0  0  0  0  0  0
  2  8  1  0
  2  1  1  1
  3  2  1  0
  4  3  1  0
  5  4  1  0
  6  7  1  0
  6  5  1  0
  8  9  2  0
 10  8  1  0
 10 11  1  0
 11 12  1  0
 12 13  2  0
 15 14  1  6
 15 17  1  0
 16 15  1  0
 17 19  1  0
 18 12  1  0
 17 18  1  6
 19 20  2  0
 19 21  1  0
M  END
$$$$
