KGV.pdb
     RDKit          3D

 21 20  0  0  1  0  0  0  0  0999 V2000
   24.6680  -22.1150  -12.8955 N   0  0  0  0  0  0  0  0  0  0  0  0
   24.9474  -21.0364  -11.9882 C   0  0  1  0  0  0  0  0  0  0  0  0
   23.7031  -20.7052  -11.1534 C   0  0  0  0  0  0  0  0  0  0  0  0
   22.6040  -20.4100  -12.1163 C   0  0  0  0  0  0  0  0  0  0  0  0
   22.9721  -19.3936  -13.1634 C   0  0  0  0  0  0  0  0  0  0  0  0
   21.8572  -19.0993  -14.1225 C   0  0  0  0  0  0  0  0  0  0  0  0
   22.2590  -18.2394  -15.2060 N   0  0  0  0  0  0  0  0  0  0  0  0
   26.0339  -21.3254  -11.0492 C   0  0  0  0  0  0  0  0  0  0  0  0
   26.1649  -22.4807  -10.6020 O   0  0  0  0  0  0  0  0  0  0  0  0
   26.9331  -20.3101  -10.6459 N   0  0  0  0  0  0  0  0  0  0  0  0
   28.0594  -20.6724   -9.8313 C   0  0  0  0  0  0  0  0  0  0  0  0
   27.8084  -20.4049   -8.4030 C   0  0  0  0  0  0  0  0  0  0  0  0
   26.6341  -20.1251   -8.0529 O   0  0  0  0  0  0  0  0  0  0  0  0
   29.0218  -20.5169   -3.6522 C   0  0  0  0  0  0  0  0  0  0  0  0
   29.5744  -20.6289   -5.0624 C   0  0  2  0  0  0  0  0  0  0  0  0
   30.6775  -19.5742   -5.1649 C   0  0  0  0  0  0  0  0  0  0  0  0
   28.4678  -20.3255   -6.0186 C   0  0  2  0  0  0  0  0  0  0  0  0
   28.7798  -20.4370   -7.3940 N   0  0  0  0  0  0  0  0  0  0  0  0
   27.9473  -18.9580   -5.7589 C   0  0  0  0  0  0  0  0  0  0  0  0
   28.1823  -18.0054   -6.5297 O   0  0  0  0  0  0  0  0  0  0  0  0
   27.1626  -18.6629   -4.6316 O   0  0  0  0  0  0  0  0  0  0  0  0
  2  8  1  0
  2  1  1  1
  3  2  1  0
  4  3  1  0
  5  4  1  0
  6  7  1  0
  6  5  1  0
  8  9  2  0
 10  8  1  0
 10 11  1  0
 11 12  1  0
 12 13  2  0
 15 14  1  1
 15 17  1  0
 16 15  1  0
 17 19  1  0
 18 12  1  0
 17 18  1  6
 19 20  2  0
 19 21  1  0
M  END
$$$$
