DCR.pdb
     RDKit          3D

 26 25  0  0  1  0  0  0  0  0999 V2000
   22.4672  -18.8208  -17.3352 N   0  0  0  0  0  0  0  0  0  0  0  0
   23.2314  -18.4607  -16.1165 C   0  0  1  0  0  0  0  0  0  0  0  0
   24.3469  -17.5413  -16.5535 C   0  0  0  0  0  0  0  0  0  0  0  0
   25.3053  -18.2284  -17.4287 C   0  0  0  0  0  0  0  0  0  0  0  0
   25.4770  -17.8641  -18.6006 O   0  0  0  0  0  0  0  0  0  0  0  0
   22.2582  -17.6453  -15.3237 C   0  0  0  0  0  0  0  0  0  0  0  0
   22.6918  -16.9030  -14.4323 O   0  0  0  0  0  0  0  0  0  0  0  0
   26.0507  -19.3214  -16.9462 O   0  0  0  0  0  0  0  0  0  0  0  0
   20.8601  -17.6533  -15.5113 N   0  0  0  0  0  0  0  0  0  0  0  0
   19.9309  -16.8647  -14.7461 C   0  0  1  0  0  0  0  0  0  0  0  0
   19.8531  -15.4401  -15.1297 C   0  0  0  0  0  0  0  0  0  0  0  0
   18.8009  -14.5515  -13.9253 S   0  0  0  0  0  0  0  0  0  0  0  0
   18.5512  -17.4523  -14.8011 C   0  0  0  0  0  0  0  0  0  0  0  0
   18.0260  -17.8219  -15.8977 O   0  0  0  0  0  0  0  0  0  0  0  0
   11.1504  -14.9989  -13.9186 N   0  0  0  0  0  0  0  0  0  0  0  0
   10.9207  -16.3904  -13.9418 C   0  0  0  0  0  0  0  0  0  0  0  0
    9.7116  -16.8675  -13.8615 N   0  0  0  0  0  0  0  0  0  0  0  0
   12.0139  -17.2977  -14.0540 N   0  0  0  0  0  0  0  0  0  0  0  0
   13.3564  -16.8078  -13.9131 C   0  0  0  0  0  0  0  0  0  0  0  0
   14.2468  -17.6941  -14.8071 C   0  0  0  0  0  0  0  0  0  0  0  0
   15.6483  -17.2706  -14.5493 C   0  0  0  0  0  0  0  0  0  0  0  0
   16.4454  -18.1746  -13.6430 C   0  0  2  0  0  0  0  0  0  0  0  0
   17.8098  -17.6029  -13.6030 N   0  0  0  0  0  0  0  0  0  0  0  0
   16.4817  -19.5259  -14.2160 C   0  0  0  0  0  0  0  0  0  0  0  0
   17.7133  -20.1486  -14.4975 O   0  0  0  0  0  0  0  0  0  0  0  0
   15.4522  -20.1863  -14.4811 O   0  0  0  0  0  0  0  0  0  0  0  0
  2  3  1  0
  2  1  1  6
  3  4  1  0
  4  8  1  0
  4  5  2  0
  6  7  2  0
  6  2  1  0
  9  6  1  0
 10  9  1  0
 11 12  1  0
 10 11  1  6
 13 23  1  0
 13 10  1  0
 14 13  2  0
 16 15  1  0
 17 16  2  0
 18 16  1  0
 19 18  1  0
 20 19  1  0
 21 20  1  0
 22 21  1  6
 22 23  1  0
 24 22  1  0
 25 24  1  0
 26 24  2  0
M  END
$$$$
