DCR.pdb
     RDKit          3D

 26 25  0  0  1  0  0  0  0  0999 V2000
   16.4706  -26.8576   -5.4665 N   0  0  0  0  0  0  0  0  0  0  0  0
   16.9341  -25.9267   -4.4094 C   0  0  1  0  0  0  0  0  0  0  0  0
   17.4461  -24.6894   -5.1077 C   0  0  0  0  0  0  0  0  0  0  0  0
   18.7158  -24.9431   -5.8005 C   0  0  0  0  0  0  0  0  0  0  0  0
   19.7483  -25.2076   -5.1682 O   0  0  0  0  0  0  0  0  0  0  0  0
   15.6722  -25.5536   -3.6962 C   0  0  0  0  0  0  0  0  0  0  0  0
   14.7954  -26.4157   -3.5488 O   0  0  0  0  0  0  0  0  0  0  0  0
   18.7810  -24.8897   -7.2061 O   0  0  0  0  0  0  0  0  0  0  0  0
   15.3933  -24.2755   -3.1682 N   0  0  0  0  0  0  0  0  0  0  0  0
   14.2837  -23.9762   -2.3022 C   0  0  1  0  0  0  0  0  0  0  0  0
   14.4347  -24.4382   -0.9071 C   0  0  0  0  0  0  0  0  0  0  0  0
   15.8702  -23.5950   -0.1484 S   0  0  0  0  0  0  0  0  0  0  0  0
   13.9895  -22.5046   -2.2911 C   0  0  0  0  0  0  0  0  0  0  0  0
   14.7996  -21.6580   -2.7831 O   0  0  0  0  0  0  0  0  0  0  0  0
    9.6835  -19.8787   -8.1484 N   0  0  0  0  0  0  0  0  0  0  0  0
   10.0794  -18.6653   -7.5480 C   0  0  0  0  0  0  0  0  0  0  0  0
    9.9846  -17.5394   -8.1957 N   0  0  0  0  0  0  0  0  0  0  0  0
   10.5910  -18.6546   -6.2179 N   0  0  0  0  0  0  0  0  0  0  0  0
   10.9304  -19.8961   -5.5812 C   0  0  0  0  0  0  0  0  0  0  0  0
   11.2615  -19.5639   -4.1123 C   0  0  0  0  0  0  0  0  0  0  0  0
   11.8333  -20.8035   -3.5236 C   0  0  0  0  0  0  0  0  0  0  0  0
   12.2546  -20.7040   -2.0792 C   0  0  2  0  0  0  0  0  0  0  0  0
   12.7788  -22.0404   -1.7198 N   0  0  0  0  0  0  0  0  0  0  0  0
   11.0837  -20.3832   -1.2535 C   0  0  0  0  0  0  0  0  0  0  0  0
   10.7543  -19.0427   -0.9731 O   0  0  0  0  0  0  0  0  0  0  0  0
   10.3302  -21.2542   -0.7638 O   0  0  0  0  0  0  0  0  0  0  0  0
  2  3  1  0
  2  1  1  6
  3  4  1  0
  4  8  1  0
  4  5  2  0
  6  7  2  0
  6  2  1  0
  9  6  1  0
 10  9  1  0
 11 12  1  0
 10 11  1  1
 13 23  1  0
 13 10  1  0
 14 13  2  0
 16 15  1  0
 17 16  2  0
 18 16  1  0
 19 18  1  0
 20 19  1  0
 21 20  1  0
 22 21  1  6
 22 23  1  0
 24 22  1  0
 25 24  1  0
 26 24  2  0
M  END
$$$$
