DCR.pdb
     RDKit          3D

 26 25  0  0  1  0  0  0  0  0999 V2000
   21.2601  -21.0554   -6.7548 N   0  0  0  0  0  0  0  0  0  0  0  0
   21.8200  -21.9816   -7.7685 C   0  0  1  0  0  0  0  0  0  0  0  0
   20.6965  -22.3250   -8.7174 C   0  0  0  0  0  0  0  0  0  0  0  0
   19.7964  -23.3368   -8.1495 C   0  0  0  0  0  0  0  0  0  0  0  0
   19.9534  -23.7570   -6.9943 O   0  0  0  0  0  0  0  0  0  0  0  0
   22.7982  -21.1299   -8.5156 C   0  0  0  0  0  0  0  0  0  0  0  0
   22.3665  -20.2090   -9.2223 O   0  0  0  0  0  0  0  0  0  0  0  0
   18.7317  -23.8501   -8.9149 O   0  0  0  0  0  0  0  0  0  0  0  0
   24.1989  -21.2931   -8.4811 N   0  0  0  0  0  0  0  0  0  0  0  0
   25.1301  -20.5047   -9.2441 C   0  0  1  0  0  0  0  0  0  0  0  0
   26.4592  -20.3294   -8.6233 C   0  0  0  0  0  0  0  0  0  0  0  0
   26.3312  -19.1075   -7.2676 S   0  0  0  0  0  0  0  0  0  0  0  0
   25.3148  -21.0709  -10.6215 C   0  0  0  0  0  0  0  0  0  0  0  0
   25.5540  -22.3047  -10.8098 O   0  0  0  0  0  0  0  0  0  0  0  0
   23.0604  -20.4408  -18.3218 N   0  0  0  0  0  0  0  0  0  0  0  0
   22.1874  -19.8456  -17.3874 C   0  0  0  0  0  0  0  0  0  0  0  0
   20.8962  -19.9533  -17.5193 N   0  0  0  0  0  0  0  0  0  0  0  0
   22.7088  -19.1148  -16.2806 N   0  0  0  0  0  0  0  0  0  0  0  0
   24.1198  -18.8590  -16.2041 C   0  0  0  0  0  0  0  0  0  0  0  0
   24.7488  -20.0639  -15.4759 C   0  0  0  0  0  0  0  0  0  0  0  0
   24.7334  -19.7296  -14.0275 C   0  0  0  0  0  0  0  0  0  0  0  0
   25.3296  -20.7696  -13.1127 C   0  0  2  0  0  0  0  0  0  0  0  0
   25.2204  -20.2136  -11.7457 N   0  0  0  0  0  0  0  0  0  0  0  0
   26.7409  -20.9719  -13.4634 C   0  0  0  0  0  0  0  0  0  0  0  0
   27.1213  -22.0338  -14.3069 O   0  0  0  0  0  0  0  0  0  0  0  0
   27.6634  -20.2358  -13.0469 O   0  0  0  0  0  0  0  0  0  0  0  0
  2  3  1  0
  2  1  1  1
  3  4  1  0
  4  8  1  0
  4  5  2  0
  6  7  2  0
  6  2  1  0
  9  6  1  0
 10  9  1  0
 11 12  1  0
 10 11  1  1
 13 23  1  0
 13 10  1  0
 14 13  2  0
 16 15  1  0
 17 16  2  0
 18 16  1  0
 19 18  1  0
 20 19  1  0
 21 20  1  0
 22 21  1  6
 22 23  1  0
 24 22  1  0
 25 24  1  0
 26 24  2  0
M  END
$$$$
