DCR.pdb
     RDKit          3D

 26 25  0  0  1  0  0  0  0  0999 V2000
   20.5341  -20.1456  -14.0541 N   0  0  0  0  0  0  0  0  0  0  0  0
   20.9652  -20.6228  -12.7180 C   0  0  1  0  0  0  0  0  0  0  0  0
   20.5683  -22.0767  -12.6219 C   0  0  0  0  0  0  0  0  0  0  0  0
   19.3316  -22.2520  -11.8498 C   0  0  0  0  0  0  0  0  0  0  0  0
   18.7691  -21.2863  -11.3141 O   0  0  0  0  0  0  0  0  0  0  0  0
   22.4590  -20.5661  -12.7933 C   0  0  0  0  0  0  0  0  0  0  0  0
   22.9902  -20.3117  -13.8827 O   0  0  0  0  0  0  0  0  0  0  0  0
   18.7602  -23.5308  -11.7044 O   0  0  0  0  0  0  0  0  0  0  0  0
   23.3290  -20.7835  -11.7044 N   0  0  0  0  0  0  0  0  0  0  0  0
   24.7641  -20.7100  -11.7809 C   0  0  1  0  0  0  0  0  0  0  0  0
   25.4637  -20.7387  -10.4799 C   0  0  0  0  0  0  0  0  0  0  0  0
   24.2274  -20.6723   -9.1328 S   0  0  0  0  0  0  0  0  0  0  0  0
   25.3152  -21.8053  -12.6462 C   0  0  0  0  0  0  0  0  0  0  0  0
   24.8789  -22.9967  -12.5741 O   0  0  0  0  0  0  0  0  0  0  0  0
   24.6569  -26.5494  -16.1795 N   0  0  0  0  0  0  0  0  0  0  0  0
   23.4091  -26.2275  -15.6061 C   0  0  0  0  0  0  0  0  0  0  0  0
   22.3782  -27.0057  -15.7733 N   0  0  0  0  0  0  0  0  0  0  0  0
   23.2584  -25.0405  -14.8320 N   0  0  0  0  0  0  0  0  0  0  0  0
   24.3739  -24.1488  -14.6810 C   0  0  0  0  0  0  0  0  0  0  0  0
   24.4034  -23.2601  -15.9407 C   0  0  0  0  0  0  0  0  0  0  0  0
   25.1692  -22.0404  -15.5721 C   0  0  0  0  0  0  0  0  0  0  0  0
   26.4588  -22.2812  -14.8285 C   0  0  2  0  0  0  0  0  0  0  0  0
   26.3480  -21.5103  -13.5703 N   0  0  0  0  0  0  0  0  0  0  0  0
   27.5818  -21.7791  -15.6302 C   0  0  0  0  0  0  0  0  0  0  0  0
   28.3912  -22.6704  -16.3611 O   0  0  0  0  0  0  0  0  0  0  0  0
   27.8790  -20.5661  -15.7102 O   0  0  0  0  0  0  0  0  0  0  0  0
  2  3  1  0
  2  1  1  6
  3  4  1  0
  4  8  1  0
  4  5  2  0
  6  7  2  0
  6  2  1  0
  9  6  1  0
 10  9  1  0
 11 12  1  0
 10 11  1  1
 13 23  1  0
 13 10  1  0
 14 13  2  0
 16 15  1  0
 17 16  2  0
 18 16  1  0
 19 18  1  0
 20 19  1  0
 21 20  1  0
 22 21  1  6
 22 23  1  0
 24 22  1  0
 25 24  1  0
 26 24  2  0
M  END
$$$$
