DCR.pdb
     RDKit          3D

 26 25  0  0  1  0  0  0  0  0999 V2000
   22.7999  -22.6648   -6.7572 N   0  0  0  0  0  0  0  0  0  0  0  0
   22.0926  -22.0355   -7.8985 C   0  0  1  0  0  0  0  0  0  0  0  0
   20.9772  -21.1999   -7.3170 C   0  0  0  0  0  0  0  0  0  0  0  0
   20.0783  -22.0027   -6.4779 C   0  0  0  0  0  0  0  0  0  0  0  0
   20.2742  -23.2144   -6.3070 O   0  0  0  0  0  0  0  0  0  0  0  0
   23.1119  -21.0973   -8.4652 C   0  0  0  0  0  0  0  0  0  0  0  0
   22.7220  -20.1145   -9.1099 O   0  0  0  0  0  0  0  0  0  0  0  0
   18.9701  -21.4035   -5.8488 O   0  0  0  0  0  0  0  0  0  0  0  0
   24.5078  -21.2433   -8.3232 N   0  0  0  0  0  0  0  0  0  0  0  0
   25.4849  -20.4372   -9.0059 C   0  0  1  0  0  0  0  0  0  0  0  0
   26.7581  -20.2472   -8.2809 C   0  0  0  0  0  0  0  0  0  0  0  0
   26.5098  -19.0231   -6.9439 S   0  0  0  0  0  0  0  0  0  0  0  0
   25.7863  -20.9921  -10.3673 C   0  0  0  0  0  0  0  0  0  0  0  0
   25.8976  -22.2418  -10.5693 O   0  0  0  0  0  0  0  0  0  0  0  0
   20.2224  -21.1029  -15.0505 N   0  0  0  0  0  0  0  0  0  0  0  0
   21.1286  -21.4423  -16.0767 C   0  0  0  0  0  0  0  0  0  0  0  0
   20.8019  -21.2972  -17.3290 N   0  0  0  0  0  0  0  0  0  0  0  0
   22.4205  -21.9511  -15.7558 N   0  0  0  0  0  0  0  0  0  0  0  0
   22.8468  -21.9838  -14.3849 C   0  0  0  0  0  0  0  0  0  0  0  0
   23.2818  -20.5495  -14.0226 C   0  0  0  0  0  0  0  0  0  0  0  0
   24.0092  -20.6489  -12.7299 C   0  0  0  0  0  0  0  0  0  0  0  0
   25.5082  -20.5078  -12.8137 C   0  0  2  0  0  0  0  0  0  0  0  0
   25.9510  -20.1055  -11.4603 N   0  0  0  0  0  0  0  0  0  0  0  0
   25.8429  -19.4597  -13.7859 C   0  0  0  0  0  0  0  0  0  0  0  0
   26.1480  -19.7947  -15.1195 O   0  0  0  0  0  0  0  0  0  0  0  0
   25.8766  -18.2423  -13.4976 O   0  0  0  0  0  0  0  0  0  0  0  0
  2  3  1  0
  2  1  1  1
  3  4  1  0
  4  8  1  0
  4  5  2  0
  6  7  2  0
  6  2  1  0
  9  6  1  0
 10  9  1  0
 11 12  1  0
 10 11  1  1
 13 23  1  0
 13 10  1  0
 14 13  2  0
 16 15  1  0
 17 16  2  0
 18 16  1  0
 19 18  1  0
 20 19  1  0
 21 20  1  0
 22 21  1  1
 22 23  1  0
 24 22  1  0
 25 24  1  0
 26 24  2  0
M  END
$$$$
