DCR.pdb
     RDKit          3D

 26 25  0  0  1  0  0  0  0  0999 V2000
   23.6998  -15.5184  -16.5941 N   0  0  0  0  0  0  0  0  0  0  0  0
   24.1446  -14.4617  -17.5346 C   0  0  1  0  0  0  0  0  0  0  0  0
   23.0366  -14.2776  -18.5441 C   0  0  0  0  0  0  0  0  0  0  0  0
   22.9099  -15.4423  -19.4294 C   0  0  0  0  0  0  0  0  0  0  0  0
   21.8491  -16.0789  -19.5018 O   0  0  0  0  0  0  0  0  0  0  0  0
   24.1878  -13.2323  -16.6817 C   0  0  0  0  0  0  0  0  0  0  0  0
   23.2619  -13.0287  -15.8849 O   0  0  0  0  0  0  0  0  0  0  0  0
   24.0008  -15.8579  -20.2170 O   0  0  0  0  0  0  0  0  0  0  0  0
   25.2161  -12.2671  -16.7118 N   0  0  0  0  0  0  0  0  0  0  0  0
   25.2598  -11.0970  -15.8754 C   0  0  1  0  0  0  0  0  0  0  0  0
   26.5826  -10.4465  -15.7758 C   0  0  0  0  0  0  0  0  0  0  0  0
   27.8019  -11.6600  -15.1528 S   0  0  0  0  0  0  0  0  0  0  0  0
   24.2555  -10.0757  -16.3232 C   0  0  0  0  0  0  0  0  0  0  0  0
   23.9459   -9.9360  -17.5478 O   0  0  0  0  0  0  0  0  0  0  0  0
   16.9206  -11.1374  -17.9247 N   0  0  0  0  0  0  0  0  0  0  0  0
   16.8310   -9.7325  -17.8377 C   0  0  0  0  0  0  0  0  0  0  0  0
   15.7729   -9.1045  -18.2645 N   0  0  0  0  0  0  0  0  0  0  0  0
   17.9024   -8.9770  -17.2787 N   0  0  0  0  0  0  0  0  0  0  0  0
   19.1247   -9.6411  -16.9219 C   0  0  0  0  0  0  0  0  0  0  0  0
   20.1160   -8.5414  -16.4909 C   0  0  0  0  0  0  0  0  0  0  0  0
   21.3986   -9.2310  -16.1917 C   0  0  0  0  0  0  0  0  0  0  0  0
   22.5351   -8.3361  -15.7659 C   0  0  2  0  0  0  0  0  0  0  0  0
   23.6319   -9.2432  -15.3611 N   0  0  0  0  0  0  0  0  0  0  0  0
   22.1076   -7.5203  -14.6224 C   0  0  0  0  0  0  0  0  0  0  0  0
   21.4217   -6.3075  -14.8281 O   0  0  0  0  0  0  0  0  0  0  0  0
   22.3202   -7.8431  -13.4320 O   0  0  0  0  0  0  0  0  0  0  0  0
  2  3  1  0
  2  1  1  1
  3  4  1  0
  4  8  1  0
  4  5  2  0
  6  7  2  0
  6  2  1  0
  9  6  1  0
 10  9  1  0
 11 12  1  0
 10 11  1  6
 13 23  1  0
 13 10  1  0
 14 13  2  0
 16 15  1  0
 17 16  2  0
 18 16  1  0
 19 18  1  0
 20 19  1  0
 21 20  1  0
 22 21  1  1
 22 23  1  0
 24 22  1  0
 25 24  1  0
 26 24  2  0
M  END
$$$$
