DCR.pdb
     RDKit          3D

 26 25  0  0  1  0  0  0  0  0999 V2000
   13.4785   -9.3554  -10.8695 N   0  0  0  0  0  0  0  0  0  0  0  0
   14.7545   -9.5128  -10.1305 C   0  0  1  0  0  0  0  0  0  0  0  0
   15.5413  -10.5906  -10.8376 C   0  0  0  0  0  0  0  0  0  0  0  0
   14.9972  -11.9271  -10.5650 C   0  0  0  0  0  0  0  0  0  0  0  0
   13.9755  -12.0747   -9.8794 O   0  0  0  0  0  0  0  0  0  0  0  0
   15.4564   -8.2121  -10.3670 C   0  0  0  0  0  0  0  0  0  0  0  0
   15.3389   -7.6653  -11.4720 O   0  0  0  0  0  0  0  0  0  0  0  0
   15.6330  -13.0719  -11.0827 O   0  0  0  0  0  0  0  0  0  0  0  0
   16.2571   -7.5447   -9.4166 N   0  0  0  0  0  0  0  0  0  0  0  0
   16.9503   -6.3074   -9.6602 C   0  0  1  0  0  0  0  0  0  0  0  0
   17.0765   -5.4180   -8.4873 C   0  0  0  0  0  0  0  0  0  0  0  0
   17.9817   -3.9052   -8.9766 S   0  0  0  0  0  0  0  0  0  0  0  0
   18.3191   -6.5572  -10.2223 C   0  0  0  0  0  0  0  0  0  0  0  0
   19.1821   -7.2486   -9.5961 O   0  0  0  0  0  0  0  0  0  0  0  0
   20.3876  -10.2210  -17.3589 N   0  0  0  0  0  0  0  0  0  0  0  0
   21.6162   -9.5959  -17.0597 C   0  0  0  0  0  0  0  0  0  0  0  0
   22.6879   -9.8696  -17.7472 N   0  0  0  0  0  0  0  0  0  0  0  0
   21.7020   -8.6516  -15.9958 N   0  0  0  0  0  0  0  0  0  0  0  0
   20.5508   -8.4075  -15.1728 C   0  0  0  0  0  0  0  0  0  0  0  0
   20.9896   -7.4082  -14.0836 C   0  0  0  0  0  0  0  0  0  0  0  0
   19.7986   -7.1798  -13.2238 C   0  0  0  0  0  0  0  0  0  0  0  0
   20.0090   -6.2538  -12.0523 C   0  0  2  0  0  0  0  0  0  0  0  0
   18.6644   -6.0120  -11.4837 N   0  0  0  0  0  0  0  0  0  0  0  0
   20.5889   -4.9922  -12.5297 C   0  0  0  0  0  0  0  0  0  0  0  0
   21.9862   -4.8347  -12.6100 O   0  0  0  0  0  0  0  0  0  0  0  0
   19.8981   -4.0103  -12.8833 O   0  0  0  0  0  0  0  0  0  0  0  0
  2  3  1  0
  2  1  1  6
  3  4  1  0
  4  8  1  0
  4  5  2  0
  6  7  2  0
  6  2  1  0
  9  6  1  0
 10  9  1  0
 11 12  1  0
 10 11  1  1
 13 23  1  0
 13 10  1  0
 14 13  2  0
 16 15  1  0
 17 16  2  0
 18 16  1  0
 19 18  1  0
 20 19  1  0
 21 20  1  0
 22 21  1  6
 22 23  1  0
 24 22  1  0
 25 24  1  0
 26 24  2  0
M  END
$$$$
