DCR.pdb
     RDKit          3D

 26 25  0  0  1  0  0  0  0  0999 V2000
   19.3575  -14.7918  -15.8357 N   0  0  0  0  0  0  0  0  0  0  0  0
   19.2816  -14.4229  -17.2699 C   0  0  1  0  0  0  0  0  0  0  0  0
   18.5360  -15.5339  -17.9702 C   0  0  0  0  0  0  0  0  0  0  0  0
   19.3550  -16.7470  -18.0883 C   0  0  0  0  0  0  0  0  0  0  0  0
   19.5075  -17.5126  -17.1258 O   0  0  0  0  0  0  0  0  0  0  0  0
   18.3984  -13.2144  -17.2723 C   0  0  0  0  0  0  0  0  0  0  0  0
   18.0601  -12.7273  -18.3594 O   0  0  0  0  0  0  0  0  0  0  0  0
   19.9855  -17.0625  -19.3073 O   0  0  0  0  0  0  0  0  0  0  0  0
   17.9105  -12.5714  -16.1154 N   0  0  0  0  0  0  0  0  0  0  0  0
   16.9747  -11.4783  -16.1242 C   0  0  1  0  0  0  0  0  0  0  0  0
   15.8136  -11.6396  -15.2250 C   0  0  0  0  0  0  0  0  0  0  0  0
   15.8968  -13.2841  -14.4275 S   0  0  0  0  0  0  0  0  0  0  0  0
   17.6565  -10.1814  -15.7995 C   0  0  0  0  0  0  0  0  0  0  0  0
   18.6025  -10.1180  -14.9533 O   0  0  0  0  0  0  0  0  0  0  0  0
   16.5915   -2.6502  -16.1127 N   0  0  0  0  0  0  0  0  0  0  0  0
   17.4513   -2.2801  -17.1678 C   0  0  0  0  0  0  0  0  0  0  0  0
   17.9421   -1.0757  -17.2361 N   0  0  0  0  0  0  0  0  0  0  0  0
   17.7965   -3.2237  -18.1785 N   0  0  0  0  0  0  0  0  0  0  0  0
   17.1887   -4.5246  -18.1682 C   0  0  0  0  0  0  0  0  0  0  0  0
   17.9372   -5.3542  -17.1056 C   0  0  0  0  0  0  0  0  0  0  0  0
   17.3654   -6.7250  -17.1686 C   0  0  0  0  0  0  0  0  0  0  0  0
   17.9697   -7.7271  -16.2176 C   0  0  2  0  0  0  0  0  0  0  0  0
   17.2404   -8.9935  -16.4502 N   0  0  0  0  0  0  0  0  0  0  0  0
   17.7618   -7.2719  -14.8372 C   0  0  0  0  0  0  0  0  0  0  0  0
   18.7834   -6.5875  -14.1503 O   0  0  0  0  0  0  0  0  0  0  0  0
   16.6971   -7.4585  -14.2064 O   0  0  0  0  0  0  0  0  0  0  0  0
  2  3  1  0
  2  1  1  1
  3  4  1  0
  4  8  1  0
  4  5  2  0
  6  7  2  0
  6  2  1  0
  9  6  1  0
 10  9  1  0
 11 12  1  0
 10 11  1  1
 13 23  1  0
 13 10  1  0
 14 13  2  0
 16 15  1  0
 17 16  2  0
 18 16  1  0
 19 18  1  0
 20 19  1  0
 21 20  1  0
 22 21  1  6
 22 23  1  0
 24 22  1  0
 25 24  1  0
 26 24  2  0
M  END
$$$$
