LAY.pdb
     RDKit          3D

 26 26  0  0  1  0  0  0  0  0999 V2000
   26.0095  -18.6684  -22.9986 C   0  0  0  0  0  0  0  0  0  0  0  0
   25.9555  -18.4893  -21.5269 C   0  0  1  0  0  0  0  0  0  0  0  0
   24.6655  -17.7298  -21.1807 C   0  0  0  0  0  0  0  0  0  0  0  0
   25.9791  -19.7100  -20.6918 C   0  0  0  0  0  0  0  0  0  0  0  0
   25.9038  -19.5433  -19.2146 C   0  0  2  0  0  0  0  0  0  0  0  0
   26.8866  -18.5755  -18.7939 N   0  0  0  0  0  0  0  0  0  0  0  0
   26.2385  -20.8940  -18.6289 C   0  0  0  0  0  0  0  0  0  0  0  0
   25.4666  -21.8821  -18.8326 O   0  0  0  0  0  0  0  0  0  0  0  0
   29.1426  -22.7527  -17.3061 C   0  0  0  0  0  0  0  0  0  0  0  0
   27.6306  -22.4662  -17.2850 C   0  0  2  0  0  0  0  0  0  0  0  0
   27.3828  -21.1461  -17.8493 N   0  0  0  0  0  0  0  0  0  0  0  0
   27.1612  -22.5674  -15.8929 C   0  0  0  0  0  0  0  0  0  0  0  0
   27.2262  -23.6456  -15.2625 O   0  0  0  0  0  0  0  0  0  0  0  0
   24.3792  -20.8120   -7.8280 O   0  0  0  0  0  0  0  0  0  0  0  0
   24.9655  -20.7796   -9.0977 C   0  0  0  0  0  0  0  0  0  0  0  0
   24.3251  -20.1894  -10.1677 C   0  0  0  0  0  0  0  0  0  0  0  0
   24.9625  -20.1936  -11.3915 C   0  0  0  0  0  0  0  0  0  0  0  0
   26.2165  -20.7681  -11.5777 C   0  0  0  0  0  0  0  0  0  0  0  0
   26.8381  -20.7566  -12.9178 C   0  0  0  0  0  0  0  0  0  0  0  0
   26.0381  -21.5127  -13.9253 C   0  0  2  0  0  0  0  0  0  0  0  0
   26.6263  -21.4231  -15.2579 N   0  0  0  0  0  0  0  0  0  0  0  0
   24.6088  -21.1676  -13.9423 C   0  0  0  0  0  0  0  0  0  0  0  0
   24.0718  -20.1931  -14.7844 O   0  0  0  0  0  0  0  0  0  0  0  0
   26.8360  -21.3502  -10.4997 C   0  0  0  0  0  0  0  0  0  0  0  0
   26.2129  -21.3534   -9.2748 C   0  0  0  0  0  0  0  0  0  0  0  0
   23.8192  -21.7581  -13.1783 O   0  0  0  0  0  0  0  0  0  0  0  0
  2  1  1  6
  3  2  1  0
  4  2  1  0
  5  6  1  1
  5  4  1  0
  7  5  1  0
  8  7  2  0
 10  9  1  1
 10 11  1  0
 11  7  1  0
 12 10  1  0
 12 21  1  0
 13 12  2  0
 15 14  1  0
 16 15  2  0
 17 16  1  0
 18 24  1  0
 18 17  2  0
 19 18  1  0
 20 19  1  1
 20 21  1  0
 20 22  1  0
 22 23  1  0
 24 25  2  0
 25 15  1  0
 26 22  2  0
M  END
$$$$
