LAY.pdb
     RDKit          3D

 26 26  0  0  1  0  0  0  0  0999 V2000
   21.6854  -14.6369  -19.2840 C   0  0  0  0  0  0  0  0  0  0  0  0
   20.7951  -15.6712  -18.7020 C   0  0  1  0  0  0  0  0  0  0  0  0
   20.5555  -16.7545  -19.7649 C   0  0  0  0  0  0  0  0  0  0  0  0
   21.2605  -16.3583  -17.4776 C   0  0  0  0  0  0  0  0  0  0  0  0
   20.5015  -17.5545  -17.0205 C   0  0  2  0  0  0  0  0  0  0  0  0
   19.3008  -17.1273  -16.3457 N   0  0  0  0  0  0  0  0  0  0  0  0
   21.4052  -18.2691  -16.0449 C   0  0  0  0  0  0  0  0  0  0  0  0
   21.8554  -17.6527  -15.0294 O   0  0  0  0  0  0  0  0  0  0  0  0
   22.1649  -21.7900  -15.1328 C   0  0  0  0  0  0  0  0  0  0  0  0
   22.5294  -20.2948  -15.1237 C   0  0  2  0  0  0  0  0  0  0  0  0
   21.7964  -19.6140  -16.1828 N   0  0  0  0  0  0  0  0  0  0  0  0
   23.9869  -20.1741  -15.2969 C   0  0  0  0  0  0  0  0  0  0  0  0
   24.4977  -20.0487  -16.4316 O   0  0  0  0  0  0  0  0  0  0  0  0
   25.3690  -21.4440   -8.1168 O   0  0  0  0  0  0  0  0  0  0  0  0
   25.7620  -20.9379   -9.3603 C   0  0  0  0  0  0  0  0  0  0  0  0
   26.9584  -21.3083   -9.9390 C   0  0  0  0  0  0  0  0  0  0  0  0
   27.2819  -20.7702  -11.1677 C   0  0  0  0  0  0  0  0  0  0  0  0
   26.4487  -19.8758  -11.8333 C   0  0  0  0  0  0  0  0  0  0  0  0
   26.8608  -19.3200  -13.1386 C   0  0  0  0  0  0  0  0  0  0  0  0
   26.2709  -20.0654  -14.2889 C   0  0  2  0  0  0  0  0  0  0  0  0
   24.8238  -20.2014  -14.1579 N   0  0  0  0  0  0  0  0  0  0  0  0
   26.9120  -21.3606  -14.5605 C   0  0  0  0  0  0  0  0  0  0  0  0
   28.2051  -21.4768  -15.0718 O   0  0  0  0  0  0  0  0  0  0  0  0
   25.2629  -19.5205  -11.2397 C   0  0  0  0  0  0  0  0  0  0  0  0
   24.9278  -20.0487  -10.0160 C   0  0  0  0  0  0  0  0  0  0  0  0
   26.2925  -22.4190  -14.3324 O   0  0  0  0  0  0  0  0  0  0  0  0
  2  1  1  6
  3  2  1  0
  4  2  1  0
  5  6  1  1
  5  4  1  0
  7  5  1  0
  8  7  2  0
 10  9  1  6
 10 11  1  0
 11  7  1  0
 12 10  1  0
 12 21  1  0
 13 12  2  0
 15 14  1  0
 16 15  2  0
 17 16  1  0
 18 24  1  0
 18 17  2  0
 19 18  1  0
 20 19  1  1
 20 21  1  0
 20 22  1  0
 22 23  1  0
 24 25  2  0
 25 15  1  0
 26 22  2  0
M  END
$$$$
