LAY.pdb
     RDKit          3D

 26 26  0  0  1  0  0  0  0  0999 V2000
   27.5946  -15.2248  -18.5797 C   0  0  0  0  0  0  0  0  0  0  0  0
   28.0482  -16.5199  -18.0157 C   0  0  1  0  0  0  0  0  0  0  0  0
   29.3668  -16.2828  -17.2637 C   0  0  0  0  0  0  0  0  0  0  0  0
   27.1335  -17.2129  -17.0825 C   0  0  0  0  0  0  0  0  0  0  0  0
   27.6259  -18.4498  -16.4166 C   0  0  2  0  0  0  0  0  0  0  0  0
   28.2512  -19.3020  -17.3976 N   0  0  0  0  0  0  0  0  0  0  0  0
   26.4014  -19.1332  -15.8572 C   0  0  0  0  0  0  0  0  0  0  0  0
   25.5409  -18.4608  -15.2084 O   0  0  0  0  0  0  0  0  0  0  0  0
   24.6047  -22.4111  -16.0850 C   0  0  0  0  0  0  0  0  0  0  0  0
   25.0084  -21.1324  -15.3295 C   0  0  2  0  0  0  0  0  0  0  0  0
   26.1349  -20.5068  -16.0093 N   0  0  0  0  0  0  0  0  0  0  0  0
   25.3376  -21.5007  -13.9422 C   0  0  0  0  0  0  0  0  0  0  0  0
   26.1976  -22.3726  -13.6885 O   0  0  0  0  0  0  0  0  0  0  0  0
   28.0189  -19.9381   -5.8964 O   0  0  0  0  0  0  0  0  0  0  0  0
   27.6484  -20.0634   -7.2395 C   0  0  0  0  0  0  0  0  0  0  0  0
   28.0607  -21.1388   -7.9991 C   0  0  0  0  0  0  0  0  0  0  0  0
   27.6571  -21.1982   -9.3173 C   0  0  0  0  0  0  0  0  0  0  0  0
   26.8566  -20.2184   -9.8974 C   0  0  0  0  0  0  0  0  0  0  0  0
   26.4738  -20.3300  -11.3199 C   0  0  0  0  0  0  0  0  0  0  0  0
   25.1457  -20.9849  -11.5046 C   0  0  2  0  0  0  0  0  0  0  0  0
   24.6674  -20.8561  -12.8773 N   0  0  0  0  0  0  0  0  0  0  0  0
   24.1243  -20.5606  -10.5355 C   0  0  0  0  0  0  0  0  0  0  0  0
   23.9952  -21.1302   -9.2682 O   0  0  0  0  0  0  0  0  0  0  0  0
   26.4577  -19.1568   -9.1238 C   0  0  0  0  0  0  0  0  0  0  0  0
   26.8522  -19.0847   -7.8093 C   0  0  0  0  0  0  0  0  0  0  0  0
   23.3241  -19.6521  -10.8358 O   0  0  0  0  0  0  0  0  0  0  0  0
  2  1  1  1
  3  2  1  0
  4  2  1  0
  5  6  1  6
  5  4  1  0
  7  5  1  0
  8  7  2  0
 10  9  1  6
 10 11  1  0
 11  7  1  0
 12 10  1  0
 12 21  1  0
 13 12  2  0
 15 14  1  0
 16 15  2  0
 17 16  1  0
 18 24  1  0
 18 17  2  0
 19 18  1  0
 20 19  1  6
 20 21  1  0
 20 22  1  0
 22 23  1  0
 24 25  2  0
 25 15  1  0
 26 22  2  0
M  END
$$$$
