LAY.pdb
     RDKit          3D

 26 26  0  0  1  0  0  0  0  0999 V2000
   28.9823  -18.6278   -6.5050 C   0  0  0  0  0  0  0  0  0  0  0  0
   28.1573  -19.7491   -7.0179 C   0  0  1  0  0  0  0  0  0  0  0  0
   27.3757  -20.3508   -5.8398 C   0  0  0  0  0  0  0  0  0  0  0  0
   27.1747  -19.4405   -8.0796 C   0  0  0  0  0  0  0  0  0  0  0  0
   26.4590  -20.5794   -8.7169 C   0  0  2  0  0  0  0  0  0  0  0  0
   27.2759  -21.7645   -8.6286 N   0  0  0  0  0  0  0  0  0  0  0  0
   26.2777  -20.1947  -10.1655 C   0  0  0  0  0  0  0  0  0  0  0  0
   25.6590  -19.1265  -10.4650 O   0  0  0  0  0  0  0  0  0  0  0  0
   27.7793  -20.8181  -13.4615 C   0  0  0  0  0  0  0  0  0  0  0  0
   26.5176  -20.5524  -12.6211 C   0  0  2  0  0  0  0  0  0  0  0  0
   26.7621  -20.9587  -11.2436 N   0  0  0  0  0  0  0  0  0  0  0  0
   25.3972  -21.2942  -13.2238 C   0  0  0  0  0  0  0  0  0  0  0  0
   25.2674  -22.5263  -13.0525 O   0  0  0  0  0  0  0  0  0  0  0  0
   17.1248  -21.2466  -11.4446 O   0  0  0  0  0  0  0  0  0  0  0  0
   18.4859  -21.0295  -11.6835 C   0  0  0  0  0  0  0  0  0  0  0  0
   18.9242  -19.9152  -12.3688 C   0  0  0  0  0  0  0  0  0  0  0  0
   20.2813  -19.7649  -12.5680 C   0  0  0  0  0  0  0  0  0  0  0  0
   21.2105  -20.6917  -12.1045 C   0  0  0  0  0  0  0  0  0  0  0  0
   22.6495  -20.4832  -12.3664 C   0  0  0  0  0  0  0  0  0  0  0  0
   23.0194  -20.7677  -13.7838 C   0  0  2  0  0  0  0  0  0  0  0  0
   24.4510  -20.5993  -14.0114 N   0  0  0  0  0  0  0  0  0  0  0  0
   22.2249  -20.0266  -14.7746 C   0  0  0  0  0  0  0  0  0  0  0  0
   21.2182  -20.6182  -15.5386 O   0  0  0  0  0  0  0  0  0  0  0  0
   20.7530  -21.7934  -11.4251 C   0  0  0  0  0  0  0  0  0  0  0  0
   19.4039  -21.9560  -11.2195 C   0  0  0  0  0  0  0  0  0  0  0  0
   22.4414  -18.8122  -14.9601 O   0  0  0  0  0  0  0  0  0  0  0  0
  2  1  1  1
  3  2  1  0
  4  2  1  0
  5  6  1  6
  5  4  1  0
  7  5  1  0
  8  7  2  0
 10  9  1  6
 10 11  1  0
 11  7  1  0
 12 10  1  0
 12 21  1  0
 13 12  2  0
 15 14  1  0
 16 15  2  0
 17 16  1  0
 18 24  1  0
 18 17  2  0
 19 18  1  0
 20 19  1  1
 20 21  1  0
 20 22  1  0
 22 23  1  0
 24 25  2  0
 25 15  1  0
 26 22  2  0
M  END
$$$$
