LAY.pdb
     RDKit          3D

 26 26  0  0  1  0  0  0  0  0999 V2000
   27.5695  -17.6895  -19.1237 C   0  0  0  0  0  0  0  0  0  0  0  0
   27.7653  -18.4451  -17.8621 C   0  0  1  0  0  0  0  0  0  0  0  0
   28.3803  -17.4960  -16.8221 C   0  0  0  0  0  0  0  0  0  0  0  0
   26.5688  -19.0543  -17.2414 C   0  0  0  0  0  0  0  0  0  0  0  0
   26.7581  -19.8423  -15.9929 C   0  0  2  0  0  0  0  0  0  0  0  0
   27.9178  -20.6877  -16.1346 N   0  0  0  0  0  0  0  0  0  0  0  0
   25.5214  -20.6966  -15.8520 C   0  0  0  0  0  0  0  0  0  0  0  0
   24.3739  -20.1879  -16.0477 O   0  0  0  0  0  0  0  0  0  0  0  0
   24.6441  -24.3278  -15.3739 C   0  0  0  0  0  0  0  0  0  0  0  0
   24.3161  -22.8241  -15.3654 C   0  0  2  0  0  0  0  0  0  0  0  0
   25.5490  -22.0615  -15.5100 N   0  0  0  0  0  0  0  0  0  0  0  0
   23.6191  -22.5110  -14.1065 C   0  0  0  0  0  0  0  0  0  0  0  0
   24.1837  -22.6517  -12.9994 O   0  0  0  0  0  0  0  0  0  0  0  0
   25.8916  -21.2077   -8.2445 O   0  0  0  0  0  0  0  0  0  0  0  0
   25.0498  -20.9339   -9.3277 C   0  0  0  0  0  0  0  0  0  0  0  0
   23.6775  -20.9313   -9.1858 C   0  0  0  0  0  0  0  0  0  0  0  0
   22.9082  -20.6524  -10.2968 C   0  0  0  0  0  0  0  0  0  0  0  0
   23.4672  -20.3770  -11.5414 C   0  0  0  0  0  0  0  0  0  0  0  0
   22.5885  -20.1043  -12.6973 C   0  0  0  0  0  0  0  0  0  0  0  0
   21.7260  -21.2707  -13.0470 C   0  0  2  0  0  0  0  0  0  0  0  0
   22.2858  -22.0431  -14.1514 N   0  0  0  0  0  0  0  0  0  0  0  0
   20.3167  -20.9273  -13.2889 C   0  0  0  0  0  0  0  0  0  0  0  0
   19.8707  -20.3329  -14.4699 O   0  0  0  0  0  0  0  0  0  0  0  0
   24.8349  -20.3849  -11.6606 C   0  0  0  0  0  0  0  0  0  0  0  0
   25.6135  -20.6611  -10.5623 C   0  0  0  0  0  0  0  0  0  0  0  0
   19.4610  -21.1678  -12.4138 O   0  0  0  0  0  0  0  0  0  0  0  0
  2  1  1  6
  3  2  1  0
  4  2  1  0
  5  6  1  6
  5  4  1  0
  7  5  1  0
  8  7  2  0
 10  9  1  1
 10 11  1  0
 11  7  1  0
 12 10  1  0
 12 21  1  0
 13 12  2  0
 15 14  1  0
 16 15  2  0
 17 16  1  0
 18 24  1  0
 18 17  2  0
 19 18  1  0
 20 19  1  6
 20 21  1  0
 20 22  1  0
 22 23  1  0
 24 25  2  0
 25 15  1  0
 26 22  2  0
M  END
$$$$
