LAY.pdb
     RDKit          3D

 26 26  0  0  1  0  0  0  0  0999 V2000
   29.3753  -12.6693  -17.0541 C   0  0  0  0  0  0  0  0  0  0  0  0
   27.9164  -12.4638  -16.8802 C   0  0  1  0  0  0  0  0  0  0  0  0
   27.5116  -13.0197  -15.5062 C   0  0  0  0  0  0  0  0  0  0  0  0
   27.4115  -11.0754  -16.9538 C   0  0  0  0  0  0  0  0  0  0  0  0
   25.9386  -10.8675  -16.9001 C   0  0  2  0  0  0  0  0  0  0  0  0
   25.2908  -11.8254  -17.7616 N   0  0  0  0  0  0  0  0  0  0  0  0
   25.6992   -9.4715  -17.4228 C   0  0  0  0  0  0  0  0  0  0  0  0
   26.2422   -8.4775  -16.8477 O   0  0  0  0  0  0  0  0  0  0  0  0
   24.0024   -7.7999  -20.3474 C   0  0  0  0  0  0  0  0  0  0  0  0
   24.6394   -7.8068  -18.9464 C   0  0  2  0  0  0  0  0  0  0  0  0
   24.8924   -9.1825  -18.5391 N   0  0  0  0  0  0  0  0  0  0  0  0
   23.7250   -7.1173  -18.0205 C   0  0  0  0  0  0  0  0  0  0  0  0
   22.5966   -7.5860  -17.7532 O   0  0  0  0  0  0  0  0  0  0  0  0
   21.0314  -10.5459  -13.8540 O   0  0  0  0  0  0  0  0  0  0  0  0
   21.6545   -9.3336  -14.1684 C   0  0  0  0  0  0  0  0  0  0  0  0
   23.0154   -9.2621  -14.3837 C   0  0  0  0  0  0  0  0  0  0  0  0
   23.5629   -8.0332  -14.6904 C   0  0  0  0  0  0  0  0  0  0  0  0
   22.7938   -6.8773  -14.7879 C   0  0  0  0  0  0  0  0  0  0  0  0
   23.4427   -5.5875  -15.1012 C   0  0  0  0  0  0  0  0  0  0  0  0
   23.2418   -5.1770  -16.5218 C   0  0  2  0  0  0  0  0  0  0  0  0
   24.1312   -5.9020  -17.4233 N   0  0  0  0  0  0  0  0  0  0  0  0
   23.3133   -3.7254  -16.7456 C   0  0  0  0  0  0  0  0  0  0  0  0
   24.1499   -3.1432  -17.6986 O   0  0  0  0  0  0  0  0  0  0  0  0
   21.4416   -6.9706  -14.5698 C   0  0  0  0  0  0  0  0  0  0  0  0
   20.8828   -8.1882  -14.2635 C   0  0  0  0  0  0  0  0  0  0  0  0
   22.6039   -2.9574  -16.0652 O   0  0  0  0  0  0  0  0  0  0  0  0
  2  1  1  1
  3  2  1  0
  4  2  1  0
  5  6  1  6
  5  4  1  0
  7  5  1  0
  8  7  2  0
 10  9  1  6
 10 11  1  0
 11  7  1  0
 12 10  1  0
 12 21  1  0
 13 12  2  0
 15 14  1  0
 16 15  2  0
 17 16  1  0
 18 24  1  0
 18 17  2  0
 19 18  1  0
 20 19  1  1
 20 21  1  0
 20 22  1  0
 22 23  1  0
 24 25  2  0
 25 15  1  0
 26 22  2  0
M  END
$$$$
