LAY.pdb
     RDKit          3D

 26 26  0  0  1  0  0  0  0  0999 V2000
   26.7857  -15.1795  -14.6480 C   0  0  0  0  0  0  0  0  0  0  0  0
   26.8862  -14.7359  -16.0602 C   0  0  1  0  0  0  0  0  0  0  0  0
   25.7080  -15.3394  -16.8401 C   0  0  0  0  0  0  0  0  0  0  0  0
   26.8780  -13.2794  -16.3177 C   0  0  0  0  0  0  0  0  0  0  0  0
   27.0676  -12.8204  -17.7209 C   0  0  2  0  0  0  0  0  0  0  0  0
   28.0967  -13.6136  -18.3464 N   0  0  0  0  0  0  0  0  0  0  0  0
   27.5206  -11.3832  -17.6278 C   0  0  0  0  0  0  0  0  0  0  0  0
   26.7847  -10.5226  -17.0521 O   0  0  0  0  0  0  0  0  0  0  0  0
   30.5598   -9.3031  -18.4172 C   0  0  0  0  0  0  0  0  0  0  0  0
   29.0546   -9.4904  -18.1568 C   0  0  2  0  0  0  0  0  0  0  0  0
   28.7406  -10.9130  -18.1486 N   0  0  0  0  0  0  0  0  0  0  0  0
   28.3120   -8.7683  -19.2037 C   0  0  0  0  0  0  0  0  0  0  0  0
   28.1987   -9.2349  -20.3585 O   0  0  0  0  0  0  0  0  0  0  0  0
   22.5696   -4.8478  -24.1035 O   0  0  0  0  0  0  0  0  0  0  0  0
   23.3373   -5.5325  -23.1555 C   0  0  0  0  0  0  0  0  0  0  0  0
   22.9451   -5.6074  -21.8349 C   0  0  0  0  0  0  0  0  0  0  0  0
   23.7508   -6.2997  -20.9543 C   0  0  0  0  0  0  0  0  0  0  0  0
   24.9330   -6.9172  -21.3524 C   0  0  0  0  0  0  0  0  0  0  0  0
   25.7619   -7.6278  -20.3570 C   0  0  0  0  0  0  0  0  0  0  0  0
   26.9188   -6.8100  -19.8885 C   0  0  2  0  0  0  0  0  0  0  0  0
   27.7165   -7.5235  -18.8964 N   0  0  0  0  0  0  0  0  0  0  0  0
   26.5557   -5.4637  -19.4218 C   0  0  0  0  0  0  0  0  0  0  0  0
   26.4674   -4.3617  -20.2732 O   0  0  0  0  0  0  0  0  0  0  0  0
   25.3048   -6.8303  -22.6710 C   0  0  0  0  0  0  0  0  0  0  0  0
   24.5119   -6.1439  -23.5592 C   0  0  0  0  0  0  0  0  0  0  0  0
   26.3111   -5.2712  -18.2138 O   0  0  0  0  0  0  0  0  0  0  0  0
  2  1  1  1
  3  2  1  0
  4  2  1  0
  5  6  1  1
  5  4  1  0
  7  5  1  0
  8  7  2  0
 10  9  1  6
 10 11  1  0
 11  7  1  0
 12 10  1  0
 12 21  1  0
 13 12  2  0
 15 14  1  0
 16 15  2  0
 17 16  1  0
 18 24  1  0
 18 17  2  0
 19 18  1  0
 20 19  1  1
 20 21  1  0
 20 22  1  0
 22 23  1  0
 24 25  2  0
 25 15  1  0
 26 22  2  0
M  END
$$$$
