LAY.pdb
     RDKit          3D

 26 26  0  0  1  0  0  0  0  0999 V2000
   23.3550  -16.0874  -19.6453 C   0  0  0  0  0  0  0  0  0  0  0  0
   23.5026  -16.3281  -18.1888 C   0  0  1  0  0  0  0  0  0  0  0  0
   22.0990  -16.4390  -17.5739 C   0  0  0  0  0  0  0  0  0  0  0  0
   24.2570  -17.5298  -17.7711 C   0  0  0  0  0  0  0  0  0  0  0  0
   24.3377  -17.8287  -16.3151 C   0  0  2  0  0  0  0  0  0  0  0  0
   24.8726  -16.6824  -15.6227 N   0  0  0  0  0  0  0  0  0  0  0  0
   25.2918  -18.9914  -16.1843 C   0  0  0  0  0  0  0  0  0  0  0  0
   24.9576  -20.1375  -16.6185 O   0  0  0  0  0  0  0  0  0  0  0  0
   28.8673  -19.6096  -15.1837 C   0  0  0  0  0  0  0  0  0  0  0  0
   27.4243  -20.0644  -15.4655 C   0  0  2  0  0  0  0  0  0  0  0  0
   26.5676  -18.8936  -15.5983 N   0  0  0  0  0  0  0  0  0  0  0  0
   26.9931  -20.9404  -14.3630 C   0  0  0  0  0  0  0  0  0  0  0  0
   27.5874  -22.0127  -14.1153 O   0  0  0  0  0  0  0  0  0  0  0  0
   25.4640  -19.5420   -6.1693 O   0  0  0  0  0  0  0  0  0  0  0  0
   25.7636  -19.9763   -7.4649 C   0  0  0  0  0  0  0  0  0  0  0  0
   24.9905  -20.9274   -8.0984 C   0  0  0  0  0  0  0  0  0  0  0  0
   25.3441  -21.3085   -9.3765 C   0  0  0  0  0  0  0  0  0  0  0  0
   26.4436  -20.7697  -10.0384 C   0  0  0  0  0  0  0  0  0  0  0  0
   26.7812  -21.2335  -11.3999 C   0  0  0  0  0  0  0  0  0  0  0  0
   25.5992  -21.2402  -12.3107 C   0  0  2  0  0  0  0  0  0  0  0  0
   25.8855  -20.5613  -13.5704 N   0  0  0  0  0  0  0  0  0  0  0  0
   24.3616  -20.7372  -11.6961 C   0  0  0  0  0  0  0  0  0  0  0  0
   23.6779  -19.6170  -12.1702 O   0  0  0  0  0  0  0  0  0  0  0  0
   27.1994  -19.8248   -9.3898 C   0  0  0  0  0  0  0  0  0  0  0  0
   26.8589  -19.4358   -8.1165 C   0  0  0  0  0  0  0  0  0  0  0  0
   23.8805  -21.3204  -10.7040 O   0  0  0  0  0  0  0  0  0  0  0  0
  2  1  1  6
  3  2  1  0
  4  2  1  0
  5  6  1  1
  5  4  1  0
  7  5  1  0
  8  7  2  0
 10  9  1  1
 10 11  1  0
 11  7  1  0
 12 10  1  0
 12 21  1  0
 13 12  2  0
 15 14  1  0
 16 15  2  0
 17 16  1  0
 18 24  1  0
 18 17  2  0
 19 18  1  0
 20 19  1  1
 20 21  1  0
 20 22  1  0
 22 23  1  0
 24 25  2  0
 25 15  1  0
 26 22  2  0
M  END
$$$$
