LAY.pdb
     RDKit          3D

 26 26  0  0  1  0  0  0  0  0999 V2000
   24.1250  -21.5349   -9.5781 C   0  0  0  0  0  0  0  0  0  0  0  0
   25.2104  -20.5406   -9.3925 C   0  0  1  0  0  0  0  0  0  0  0  0
   25.9417  -20.8644   -8.0806 C   0  0  0  0  0  0  0  0  0  0  0  0
   26.2380  -20.4497  -10.4525 C   0  0  0  0  0  0  0  0  0  0  0  0
   25.9172  -21.0334  -11.7837 C   0  0  2  0  0  0  0  0  0  0  0  0
   26.1738  -22.4521  -11.7559 N   0  0  0  0  0  0  0  0  0  0  0  0
   26.8533  -20.3674  -12.7632 C   0  0  0  0  0  0  0  0  0  0  0  0
   28.0955  -20.6312  -12.7325 O   0  0  0  0  0  0  0  0  0  0  0  0
   27.7976  -20.0398  -15.6815 C   0  0  0  0  0  0  0  0  0  0  0  0
   27.3725  -18.9144  -14.7215 C   0  0  2  0  0  0  0  0  0  0  0  0
   26.4349  -19.4461  -13.7414 N   0  0  0  0  0  0  0  0  0  0  0  0
   26.7792  -17.8276  -15.5187 C   0  0  0  0  0  0  0  0  0  0  0  0
   27.3458  -16.7179  -15.6268 O   0  0  0  0  0  0  0  0  0  0  0  0
   27.2779  -20.7793  -21.5655 O   0  0  0  0  0  0  0  0  0  0  0  0
   26.8942  -19.7374  -20.7146 C   0  0  0  0  0  0  0  0  0  0  0  0
   25.6245  -19.2001  -20.7673 C   0  0  0  0  0  0  0  0  0  0  0  0
   25.3145  -18.1745  -19.8978 C   0  0  0  0  0  0  0  0  0  0  0  0
   26.2322  -17.6711  -18.9804 C   0  0  0  0  0  0  0  0  0  0  0  0
   25.8448  -16.5586  -18.0889 C   0  0  0  0  0  0  0  0  0  0  0  0
   24.9369  -16.9974  -16.9889 C   0  0  2  0  0  0  0  0  0  0  0  0
   25.5449  -18.0437  -16.1732 N   0  0  0  0  0  0  0  0  0  0  0  0
   23.5884  -17.3770  -17.4356 C   0  0  0  0  0  0  0  0  0  0  0  0
   23.0038  -18.6064  -17.1294 O   0  0  0  0  0  0  0  0  0  0  0  0
   27.4901  -18.2200  -18.9447 C   0  0  0  0  0  0  0  0  0  0  0  0
   27.8127  -19.2421  -19.8049 C   0  0  0  0  0  0  0  0  0  0  0  0
   22.9155  -16.5814  -18.1213 O   0  0  0  0  0  0  0  0  0  0  0  0
  2  1  1  6
  3  2  1  0
  4  2  1  0
  5  6  1  1
  5  4  1  0
  7  5  1  0
  8  7  2  0
 10  9  1  6
 10 11  1  0
 11  7  1  0
 12 10  1  0
 12 21  1  0
 13 12  2  0
 15 14  1  0
 16 15  2  0
 17 16  1  0
 18 24  1  0
 18 17  2  0
 19 18  1  0
 20 19  1  6
 20 21  1  0
 20 22  1  0
 22 23  1  0
 24 25  2  0
 25 15  1  0
 26 22  2  0
M  END
$$$$
