KED.pdb
     RDKit          3D

 27 26  0  0  1  0  0  0  0  0999 V2000
   19.5601  -10.6518  -18.5276 N   0  0  0  0  0  0  0  0  0  0  0  0
   19.2168  -10.8737  -17.1376 C   0  0  1  0  0  0  0  0  0  0  0  0
   19.0318  -12.3175  -16.8054 C   0  0  0  0  0  0  0  0  0  0  0  0
   19.5852  -13.1809  -17.9055 C   0  0  0  0  0  0  0  0  0  0  0  0
   19.3146  -14.6465  -17.5524 C   0  0  0  0  0  0  0  0  0  0  0  0
   19.8515  -15.5771  -18.6133 C   0  0  0  0  0  0  0  0  0  0  0  0
   19.5616  -16.9635  -18.3293 N   0  0  0  0  0  0  0  0  0  0  0  0
   20.3145  -10.3560  -16.2415 C   0  0  0  0  0  0  0  0  0  0  0  0
   20.2717  -10.4929  -14.9976 O   0  0  0  0  0  0  0  0  0  0  0  0
   21.4365   -9.6942  -16.7802 N   0  0  0  0  0  0  0  0  0  0  0  0
   22.5301   -9.1711  -15.8866 C   0  0  1  0  0  0  0  0  0  0  0  0
   23.7663   -9.8289  -16.3058 C   0  0  0  0  0  0  0  0  0  0  0  0
   24.0108  -11.2406  -15.9431 C   0  0  0  0  0  0  0  0  0  0  0  0
   25.3225  -11.7940  -16.3006 C   0  0  0  0  0  0  0  0  0  0  0  0
   25.5511  -12.3049  -17.3961 O   0  0  0  0  0  0  0  0  0  0  0  0
   22.3316   -7.7691  -15.7908 C   0  0  0  0  0  0  0  0  0  0  0  0
   22.1126   -7.0773  -16.8485 O   0  0  0  0  0  0  0  0  0  0  0  0
   26.3371  -11.7279  -15.3444 O   0  0  0  0  0  0  0  0  0  0  0  0
   22.3375   -7.0137  -14.5949 N   0  0  0  0  0  0  0  0  0  0  0  0
   22.2086   -5.5616  -14.5983 C   0  0  1  0  0  0  0  0  0  0  0  0
   20.9879   -5.1563  -15.4107 C   0  0  0  0  0  0  0  0  0  0  0  0
   20.7756   -3.7056  -15.3842 C   0  0  0  0  0  0  0  0  0  0  0  0
   21.7413   -2.9328  -15.2933 O   0  0  0  0  0  0  0  0  0  0  0  0
   22.1735   -5.0233  -13.2381 C   0  0  0  0  0  0  0  0  0  0  0  0
   22.2198   -3.6467  -12.9787 O   0  0  0  0  0  0  0  0  0  0  0  0
   19.4916   -3.1778  -15.4624 O   0  0  0  0  0  0  0  0  0  0  0  0
   22.1013   -5.7667  -12.2421 O   0  0  0  0  0  0  0  0  0  0  0  0
  2  1  1  6
  3  2  1  0
  4  3  1  0
  5  4  1  0
  5  6  1  0
  6  7  1  0
  8 10  1  0
  8  2  1  0
  9  8  2  0
 11 10  1  0
 11 12  1  6
 12 13  1  0
 13 14  1  0
 14 18  1  0
 15 14  2  0
 16 17  2  0
 16 11  1  0
 19 16  1  0
 20 21  1  1
 20 19  1  0
 22 21  1  0
 22 23  2  0
 24 20  1  0
 25 24  1  0
 26 22  1  0
 27 24  2  0
M  END
$$$$
