KED.pdb
     RDKit          3D

 27 26  0  0  1  0  0  0  0  0999 V2000
   15.8767  -11.7323  -14.0922 N   0  0  0  0  0  0  0  0  0  0  0  0
   17.2602  -11.3033  -14.0541 C   0  0  1  0  0  0  0  0  0  0  0  0
   17.9952  -11.5900  -15.3217 C   0  0  0  0  0  0  0  0  0  0  0  0
   17.1617  -12.4590  -16.2228 C   0  0  0  0  0  0  0  0  0  0  0  0
   18.0014  -12.8297  -17.4490 C   0  0  0  0  0  0  0  0  0  0  0  0
   17.1901  -13.6066  -18.4579 C   0  0  0  0  0  0  0  0  0  0  0  0
   17.9347  -13.8924  -19.6625 N   0  0  0  0  0  0  0  0  0  0  0  0
   17.3369   -9.8132  -13.8316 C   0  0  0  0  0  0  0  0  0  0  0  0
   16.7243   -9.0033  -14.5642 O   0  0  0  0  0  0  0  0  0  0  0  0
   18.1084   -9.2773  -12.7805 N   0  0  0  0  0  0  0  0  0  0  0  0
   18.2514   -7.7883  -12.6058 C   0  0  1  0  0  0  0  0  0  0  0  0
   17.7310   -7.4690  -11.2777 C   0  0  0  0  0  0  0  0  0  0  0  0
   17.8183   -6.0861  -10.7636 C   0  0  0  0  0  0  0  0  0  0  0  0
   17.2121   -5.8327   -9.4510 C   0  0  0  0  0  0  0  0  0  0  0  0
   17.1457   -4.7082   -8.9566 O   0  0  0  0  0  0  0  0  0  0  0  0
   19.5417   -7.4511  -13.0907 C   0  0  0  0  0  0  0  0  0  0  0  0
   20.4450   -8.3557  -13.1972 O   0  0  0  0  0  0  0  0  0  0  0  0
   16.6966   -6.9256   -8.7525 O   0  0  0  0  0  0  0  0  0  0  0  0
   19.9595   -6.1636  -13.5014 N   0  0  0  0  0  0  0  0  0  0  0  0
   21.2486   -5.9385  -14.1439 C   0  0  1  0  0  0  0  0  0  0  0  0
   21.3729   -6.8285  -15.3715 C   0  0  0  0  0  0  0  0  0  0  0  0
   22.6028   -6.5515  -16.1203 C   0  0  0  0  0  0  0  0  0  0  0  0
   23.4069   -5.7005  -15.7113 O   0  0  0  0  0  0  0  0  0  0  0  0
   21.4498   -4.5244  -14.4611 C   0  0  0  0  0  0  0  0  0  0  0  0
   20.4783   -3.5521  -14.1864 O   0  0  0  0  0  0  0  0  0  0  0  0
   22.8843   -7.2388  -17.2958 O   0  0  0  0  0  0  0  0  0  0  0  0
   22.4986   -4.1162  -14.9934 O   0  0  0  0  0  0  0  0  0  0  0  0
  2  1  1  6
  3  2  1  0
  4  3  1  0
  5  4  1  0
  5  6  1  0
  6  7  1  0
  8 10  1  0
  8  2  1  0
  9  8  2  0
 11 10  1  0
 11 12  1  1
 12 13  1  0
 13 14  1  0
 14 18  1  0
 15 14  2  0
 16 17  2  0
 16 11  1  0
 19 16  1  0
 20 21  1  6
 20 19  1  0
 22 21  1  0
 22 23  2  0
 24 20  1  0
 25 24  1  0
 26 22  1  0
 27 24  2  0
M  END
$$$$
