KED.pdb
     RDKit          3D

 27 26  0  0  1  0  0  0  0  0999 V2000
   19.1384  -12.7245  -16.3288 N   0  0  0  0  0  0  0  0  0  0  0  0
   20.1663  -12.0848  -17.1249 C   0  0  1  0  0  0  0  0  0  0  0  0
   19.6167  -11.3268  -18.2878 C   0  0  0  0  0  0  0  0  0  0  0  0
   18.2983  -11.9109  -18.7151 C   0  0  0  0  0  0  0  0  0  0  0  0
   18.5435  -12.8336  -19.9127 C   0  0  0  0  0  0  0  0  0  0  0  0
   17.2507  -13.4106  -20.4375 C   0  0  0  0  0  0  0  0  0  0  0  0
   17.4606  -14.3288  -21.5329 N   0  0  0  0  0  0  0  0  0  0  0  0
   20.9365  -11.0973  -16.2838 C   0  0  0  0  0  0  0  0  0  0  0  0
   20.5476  -10.7559  -15.1435 O   0  0  0  0  0  0  0  0  0  0  0  0
   22.1319  -10.5201  -16.7582 N   0  0  0  0  0  0  0  0  0  0  0  0
   22.9203   -9.5609  -15.9059 C   0  0  1  0  0  0  0  0  0  0  0  0
   24.3156   -9.9918  -15.9689 C   0  0  0  0  0  0  0  0  0  0  0  0
   25.3688   -9.1795  -15.3243 C   0  0  0  0  0  0  0  0  0  0  0  0
   26.7512   -9.6453  -15.4876 C   0  0  0  0  0  0  0  0  0  0  0  0
   27.3517  -10.2627  -14.6091 O   0  0  0  0  0  0  0  0  0  0  0  0
   22.4417   -8.2620  -16.2188 C   0  0  0  0  0  0  0  0  0  0  0  0
   22.2584   -7.9221  -17.4420 O   0  0  0  0  0  0  0  0  0  0  0  0
   27.3917   -9.3657  -16.6957 O   0  0  0  0  0  0  0  0  0  0  0  0
   22.1171   -7.2532  -15.2819 N   0  0  0  0  0  0  0  0  0  0  0  0
   21.7417   -5.9068  -15.6959 C   0  0  1  0  0  0  0  0  0  0  0  0
   20.4715   -5.4830  -14.9739 C   0  0  0  0  0  0  0  0  0  0  0  0
   20.0802   -4.1136  -15.3227 C   0  0  0  0  0  0  0  0  0  0  0  0
   20.6129   -3.5349  -16.2816 O   0  0  0  0  0  0  0  0  0  0  0  0
   22.8376   -4.9586  -15.4936 C   0  0  0  0  0  0  0  0  0  0  0  0
   24.0736   -5.3490  -14.9602 O   0  0  0  0  0  0  0  0  0  0  0  0
   19.1073   -3.4473  -14.5858 O   0  0  0  0  0  0  0  0  0  0  0  0
   22.7228   -3.7541  -15.7866 O   0  0  0  0  0  0  0  0  0  0  0  0
  2  1  1  1
  3  2  1  0
  4  3  1  0
  5  4  1  0
  5  6  1  0
  6  7  1  0
  8 10  1  0
  8  2  1  0
  9  8  2  0
 11 10  1  0
 11 12  1  6
 12 13  1  0
 13 14  1  0
 14 18  1  0
 15 14  2  0
 16 17  2  0
 16 11  1  0
 19 16  1  0
 20 21  1  1
 20 19  1  0
 22 21  1  0
 22 23  2  0
 24 20  1  0
 25 24  1  0
 26 22  1  0
 27 24  2  0
M  END
$$$$
