KED.pdb
     RDKit          3D

 27 26  0  0  1  0  0  0  0  0999 V2000
   43.6871  -13.3033   -7.7718 N   0  0  0  0  0  0  0  0  0  0  0  0
   44.4892  -12.1464   -7.4290 C   0  0  1  0  0  0  0  0  0  0  0  0
   45.9268  -12.3020   -7.8007 C   0  0  0  0  0  0  0  0  0  0  0  0
   46.4607  -13.6096   -7.2837 C   0  0  0  0  0  0  0  0  0  0  0  0
   47.9123  -13.7573   -7.7494 C   0  0  0  0  0  0  0  0  0  0  0  0
   48.5030  -15.0731   -7.3029 C   0  0  0  0  0  0  0  0  0  0  0  0
   48.4811  -15.2288   -5.8668 N   0  0  0  0  0  0  0  0  0  0  0  0
   43.9795  -10.9263   -8.1552 C   0  0  0  0  0  0  0  0  0  0  0  0
   44.7149  -10.2527   -8.9124 O   0  0  0  0  0  0  0  0  0  0  0  0
   42.6445  -10.4995   -8.0041 N   0  0  0  0  0  0  0  0  0  0  0  0
   42.0973   -9.3621   -8.8257 C   0  0  1  0  0  0  0  0  0  0  0  0
   41.1413   -9.9443   -9.7656 C   0  0  0  0  0  0  0  0  0  0  0  0
   40.3140   -9.0641  -10.6172 C   0  0  0  0  0  0  0  0  0  0  0  0
   39.2560   -9.7125  -11.4014 C   0  0  0  0  0  0  0  0  0  0  0  0
   39.3717  -10.8477  -11.8612 O   0  0  0  0  0  0  0  0  0  0  0  0
   41.8242   -8.3074   -7.9163 C   0  0  0  0  0  0  0  0  0  0  0  0
   41.5792   -8.5683   -6.6844 O   0  0  0  0  0  0  0  0  0  0  0  0
   38.0797   -8.9946  -11.6227 O   0  0  0  0  0  0  0  0  0  0  0  0
   41.8024   -6.9288   -8.2323 N   0  0  0  0  0  0  0  0  0  0  0  0
   41.1996   -5.9425   -7.3441 C   0  0  1  0  0  0  0  0  0  0  0  0
   42.2685   -5.3402   -6.4446 C   0  0  0  0  0  0  0  0  0  0  0  0
   41.6976   -4.3902   -5.4845 C   0  0  0  0  0  0  0  0  0  0  0  0
   40.4758   -4.1784   -5.4639 O   0  0  0  0  0  0  0  0  0  0  0  0
   40.4667   -4.9223   -8.0945 C   0  0  0  0  0  0  0  0  0  0  0  0
   39.7135   -3.9255   -7.4592 O   0  0  0  0  0  0  0  0  0  0  0  0
   42.5165   -3.7165   -4.5850 O   0  0  0  0  0  0  0  0  0  0  0  0
   40.4772   -4.8920   -9.3390 O   0  0  0  0  0  0  0  0  0  0  0  0
  2  1  1  6
  3  2  1  0
  4  3  1  0
  5  4  1  0
  5  6  1  0
  6  7  1  0
  8 10  1  0
  8  2  1  0
  9  8  2  0
 11 10  1  0
 11 12  1  1
 12 13  1  0
 13 14  1  0
 14 18  1  0
 15 14  2  0
 16 17  2  0
 16 11  1  0
 19 16  1  0
 20 21  1  6
 20 19  1  0
 22 21  1  0
 22 23  2  0
 24 20  1  0
 25 24  1  0
 26 22  1  0
 27 24  2  0
M  END
$$$$
