KED.pdb
     RDKit          3D

 27 26  0  0  1  0  0  0  0  0999 V2000
   20.1408  -15.0588  -18.0964 N   0  0  0  0  0  0  0  0  0  0  0  0
   19.3768  -14.5092  -19.1981 C   0  0  1  0  0  0  0  0  0  0  0  0
   18.6466  -15.5513  -19.9790 C   0  0  0  0  0  0  0  0  0  0  0  0
   18.5413  -16.8223  -19.1819 C   0  0  0  0  0  0  0  0  0  0  0  0
   19.9059  -17.5178  -19.1981 C   0  0  0  0  0  0  0  0  0  0  0  0
   19.8366  -18.8821  -18.5549 C   0  0  0  0  0  0  0  0  0  0  0  0
   21.1410  -19.4802  -18.3878 N   0  0  0  0  0  0  0  0  0  0  0  0
   18.3397  -13.5433  -18.6813 C   0  0  0  0  0  0  0  0  0  0  0  0
   17.5446  -12.9545  -19.4487 O   0  0  0  0  0  0  0  0  0  0  0  0
   18.2299  -13.2686  -17.3030 N   0  0  0  0  0  0  0  0  0  0  0  0
   17.1419  -12.3701  -16.7766 C   0  0  1  0  0  0  0  0  0  0  0  0
   16.1850  -13.2303  -16.0832 C   0  0  0  0  0  0  0  0  0  0  0  0
   16.6658  -14.2416  -15.1185 C   0  0  0  0  0  0  0  0  0  0  0  0
   16.0023  -15.5506  -15.1521 C   0  0  0  0  0  0  0  0  0  0  0  0
   14.9221  -15.7329  -15.7118 O   0  0  0  0  0  0  0  0  0  0  0  0
   17.7927  -11.2395  -16.2177 C   0  0  0  0  0  0  0  0  0  0  0  0
   18.9448  -11.3676  -15.6684 O   0  0  0  0  0  0  0  0  0  0  0  0
   16.6396  -16.6176  -14.5171 O   0  0  0  0  0  0  0  0  0  0  0  0
   17.2903   -9.9173  -16.2094 N   0  0  0  0  0  0  0  0  0  0  0  0
   18.0632   -8.8009  -15.6791 C   0  0  1  0  0  0  0  0  0  0  0  0
   19.3562   -8.6514  -16.4667 C   0  0  0  0  0  0  0  0  0  0  0  0
   20.1421   -7.5021  -16.0066 C   0  0  0  0  0  0  0  0  0  0  0  0
   20.8339   -7.5868  -14.9807 O   0  0  0  0  0  0  0  0  0  0  0  0
   17.2786   -7.5660  -15.6612 C   0  0  0  0  0  0  0  0  0  0  0  0
   17.6310   -6.4692  -14.8628 O   0  0  0  0  0  0  0  0  0  0  0  0
   20.1239   -6.3050  -16.7137 O   0  0  0  0  0  0  0  0  0  0  0  0
   16.2553   -7.4311  -16.3573 O   0  0  0  0  0  0  0  0  0  0  0  0
  2  1  1  1
  3  2  1  0
  4  3  1  0
  5  4  1  0
  5  6  1  0
  6  7  1  0
  8 10  1  0
  8  2  1  0
  9  8  2  0
 11 10  1  0
 11 12  1  1
 12 13  1  0
 13 14  1  0
 14 18  1  0
 15 14  2  0
 16 17  2  0
 16 11  1  0
 19 16  1  0
 20 21  1  6
 20 19  1  0
 22 21  1  0
 22 23  2  0
 24 20  1  0
 25 24  1  0
 26 22  1  0
 27 24  2  0
M  END
$$$$
