YTR.pdb
     RDKit          3D

 31 31  0  0  1  0  0  0  0  0999 V2000
   32.9143  -22.1895  -11.9139 O   0  0  0  0  0  0  0  0  0  0  0  0
   31.6162  -21.6827  -12.0836 C   0  0  0  0  0  0  0  0  0  0  0  0
   31.2832  -20.5016  -11.4926 C   0  0  0  0  0  0  0  0  0  0  0  0
   30.0168  -19.9615  -11.6305 C   0  0  0  0  0  0  0  0  0  0  0  0
   29.0633  -20.6143  -12.3738 C   0  0  0  0  0  0  0  0  0  0  0  0
   27.7282  -20.0405  -12.5178 C   0  0  0  0  0  0  0  0  0  0  0  0
   27.1866  -20.0650  -13.9332 C   0  0  2  0  0  0  0  0  0  0  0  0
   27.9770  -19.1285  -14.7580 N   0  0  0  0  0  0  0  0  0  0  0  0
   25.7849  -19.6816  -14.0570 C   0  0  0  0  0  0  0  0  0  0  0  0
   25.4664  -18.4858  -14.3691 O   0  0  0  0  0  0  0  0  0  0  0  0
   29.4095  -21.8084  -12.9678 C   0  0  0  0  0  0  0  0  0  0  0  0
   30.6757  -22.3488  -12.8302 C   0  0  0  0  0  0  0  0  0  0  0  0
   23.5012  -20.9750  -16.4145 C   0  0  0  0  0  0  0  0  0  0  0  0
   23.2243  -19.7743  -15.5535 C   0  0  1  0  0  0  0  0  0  0  0  0
   21.8639  -19.4524  -15.7750 O   0  0  0  0  0  0  0  0  0  0  0  0
   23.2868  -20.1048  -14.0524 C   0  0  2  0  0  0  0  0  0  0  0  0
   24.6684  -20.5427  -13.8600 N   0  0  0  0  0  0  0  0  0  0  0  0
   22.3924  -21.2065  -13.6955 C   0  0  0  0  0  0  0  0  0  0  0  0
   22.8616  -22.3976  -13.7576 O   0  0  0  0  0  0  0  0  0  0  0  0
   19.0447  -24.2719   -8.0826 N   0  0  0  0  0  0  0  0  0  0  0  0
   17.6542  -24.3028   -8.3665 C   0  0  0  0  0  0  0  0  0  0  0  0
   16.9391  -25.2490   -7.9011 N   0  0  0  0  0  0  0  0  0  0  0  0
   17.0765  -23.2655   -9.1756 N   0  0  0  0  0  0  0  0  0  0  0  0
   17.9266  -22.2554   -9.7619 C   0  0  0  0  0  0  0  0  0  0  0  0
   18.6063  -22.7638  -11.0174 C   0  0  0  0  0  0  0  0  0  0  0  0
   19.4461  -21.7003  -11.6371 C   0  0  0  0  0  0  0  0  0  0  0  0
   20.2800  -22.1738  -12.7949 C   0  0  2  0  0  0  0  0  0  0  0  0
   21.0413  -21.0252  -13.2857 N   0  0  0  0  0  0  0  0  0  0  0  0
   19.3886  -22.5681  -13.9224 C   0  0  0  0  0  0  0  0  0  0  0  0
   19.0511  -21.6928  -14.7539 O   0  0  0  0  0  0  0  0  0  0  0  0
   18.9029  -23.8332  -14.1224 O   0  0  0  0  0  0  0  0  0  0  0  0
  2  1  1  0
  3  2  2  0
  4  3  1  0
  5  4  2  0
  5 11  1  0
  6  5  1  0
  7  9  1  0
  7  6  1  0
  7  8  1  6
  9 10  2  0
 11 12  2  0
 12  2  1  0
 14 13  1  6
 15 14  1  0
 16 14  1  0
 16 17  1  6
 17  9  1  0
 18 16  1  0
 19 18  2  0
 20 21  1  0
 21 22  2  0
 23 24  1  0
 23 21  1  0
 24 25  1  0
 27 26  1  1
 26 25  1  0
 27 28  1  0
 28 18  1  0
 29 31  1  0
 29 27  1  0
 30 29  2  0
M  END
$$$$
