YTR.pdb
     RDKit          3D

 31 31  0  0  1  0  0  0  0  0999 V2000
   20.7498  -23.1384   -6.6961 O   0  0  0  0  0  0  0  0  0  0  0  0
   21.6125  -22.3676   -7.4911 C   0  0  0  0  0  0  0  0  0  0  0  0
   21.3767  -22.2768   -8.8295 C   0  0  0  0  0  0  0  0  0  0  0  0
   22.1985  -21.5296   -9.6545 C   0  0  0  0  0  0  0  0  0  0  0  0
   23.2780  -20.8591   -9.1323 C   0  0  0  0  0  0  0  0  0  0  0  0
   24.1425  -20.0705  -10.0062 C   0  0  0  0  0  0  0  0  0  0  0  0
   25.2909  -20.8486  -10.6168 C   0  0  2  0  0  0  0  0  0  0  0  0
   26.2441  -21.2032   -9.5454 N   0  0  0  0  0  0  0  0  0  0  0  0
   26.0356  -20.1310  -11.6453 C   0  0  0  0  0  0  0  0  0  0  0  0
   27.0103  -19.3712  -11.3270 O   0  0  0  0  0  0  0  0  0  0  0  0
   23.5086  -20.9567   -7.7774 C   0  0  0  0  0  0  0  0  0  0  0  0
   22.6871  -21.7039   -6.9520 C   0  0  0  0  0  0  0  0  0  0  0  0
   28.5662  -20.1451  -12.4512 C   0  0  0  0  0  0  0  0  0  0  0  0
   27.9984  -20.3546  -13.8273 C   0  0  1  0  0  0  0  0  0  0  0  0
   27.6181  -21.7170  -13.8789 O   0  0  0  0  0  0  0  0  0  0  0  0
   26.6780  -19.5936  -14.0365 C   0  0  2  0  0  0  0  0  0  0  0  0
   25.7836  -20.1895  -13.0453 N   0  0  0  0  0  0  0  0  0  0  0  0
   26.1185  -19.8216  -15.3692 C   0  0  0  0  0  0  0  0  0  0  0  0
   25.0108  -20.4616  -15.4477 O   0  0  0  0  0  0  0  0  0  0  0  0
   22.0051  -20.7561  -16.8254 N   0  0  0  0  0  0  0  0  0  0  0  0
   21.1284  -19.6569  -16.6292 C   0  0  0  0  0  0  0  0  0  0  0  0
   20.1167  -19.7890  -15.8661 N   0  0  0  0  0  0  0  0  0  0  0  0
   21.3972  -18.4130  -17.2961 N   0  0  0  0  0  0  0  0  0  0  0  0
   22.7284  -18.1320  -17.7817 C   0  0  0  0  0  0  0  0  0  0  0  0
   23.7379  -18.1136  -16.6516 C   0  0  0  0  0  0  0  0  0  0  0  0
   25.0902  -17.7359  -17.1508 C   0  0  0  0  0  0  0  0  0  0  0  0
   25.8974  -18.8928  -17.6708 C   0  0  2  0  0  0  0  0  0  0  0  0
   26.7346  -19.3727  -16.5713 N   0  0  0  0  0  0  0  0  0  0  0  0
   26.8496  -18.4084  -18.7101 C   0  0  0  0  0  0  0  0  0  0  0  0
   27.9552  -17.9468  -18.3415 O   0  0  0  0  0  0  0  0  0  0  0  0
   26.6048  -18.4298  -20.0577 O   0  0  0  0  0  0  0  0  0  0  0  0
  2  1  1  0
  3  2  2  0
  4  3  1  0
  5  4  2  0
  5 11  1  0
  6  5  1  0
  7  9  1  0
  7  6  1  0
  7  8  1  1
  9 10  2  0
 11 12  2  0
 12  2  1  0
 14 13  1  1
 15 14  1  0
 16 14  1  0
 16 17  1  1
 17  9  1  0
 18 16  1  0
 19 18  2  0
 20 21  1  0
 21 22  2  0
 23 24  1  0
 23 21  1  0
 24 25  1  0
 27 26  1  1
 26 25  1  0
 27 28  1  0
 28 18  1  0
 29 31  1  0
 29 27  1  0
 30 29  2  0
M  END
$$$$
