YTR.pdb
     RDKit          3D

 31 31  0  0  1  0  0  0  0  0999 V2000
   27.3777  -34.1958   -7.1676 O   0  0  0  0  0  0  0  0  0  0  0  0
   26.4109  -33.4149   -7.8203 C   0  0  0  0  0  0  0  0  0  0  0  0
   25.4547  -32.7883   -7.0800 C   0  0  0  0  0  0  0  0  0  0  0  0
   24.4807  -32.0080   -7.6773 C   0  0  0  0  0  0  0  0  0  0  0  0
   24.4610  -31.8500   -9.0419 C   0  0  0  0  0  0  0  0  0  0  0  0
   23.4320  -31.0248   -9.6685 C   0  0  0  0  0  0  0  0  0  0  0  0
   22.0470  -31.6402   -9.6614 C   0  0  2  0  0  0  0  0  0  0  0  0
   22.1162  -32.9674  -10.3063 N   0  0  0  0  0  0  0  0  0  0  0  0
   21.0309  -30.8647  -10.3638 C   0  0  0  0  0  0  0  0  0  0  0  0
   20.8100  -31.0617  -11.6052 O   0  0  0  0  0  0  0  0  0  0  0  0
   25.4323  -32.4877   -9.7825 C   0  0  0  0  0  0  0  0  0  0  0  0
   26.4065  -33.2682   -9.1857 C   0  0  0  0  0  0  0  0  0  0  0  0
   17.6453  -31.1733  -10.1921 C   0  0  0  0  0  0  0  0  0  0  0  0
   17.8611  -29.7163   -9.8915 C   0  0  1  0  0  0  0  0  0  0  0  0
   18.1128  -29.6477   -8.5003 O   0  0  0  0  0  0  0  0  0  0  0  0
   19.1517  -29.1732  -10.5284 C   0  0  2  0  0  0  0  0  0  0  0  0
   20.2091  -29.8565   -9.7849 N   0  0  0  0  0  0  0  0  0  0  0  0
   19.2968  -27.7308  -10.3298 C   0  0  0  0  0  0  0  0  0  0  0  0
   19.8417  -27.3322   -9.2404 O   0  0  0  0  0  0  0  0  0  0  0  0
   19.5775  -21.1155  -16.0354 N   0  0  0  0  0  0  0  0  0  0  0  0
   20.7241  -21.6846  -15.4219 C   0  0  0  0  0  0  0  0  0  0  0  0
   21.8553  -21.5968  -16.0015 N   0  0  0  0  0  0  0  0  0  0  0  0
   20.5890  -22.3513  -14.1563 N   0  0  0  0  0  0  0  0  0  0  0  0
   19.2845  -22.4813  -13.5494 C   0  0  0  0  0  0  0  0  0  0  0  0
   19.3691  -23.1504  -12.1923 C   0  0  0  0  0  0  0  0  0  0  0  0
   19.1756  -24.6231  -12.3109 C   0  0  0  0  0  0  0  0  0  0  0  0
   19.0833  -25.3380  -10.9915 C   0  0  2  0  0  0  0  0  0  0  0  0
   18.8690  -26.7568  -11.2757 N   0  0  0  0  0  0  0  0  0  0  0  0
   17.8599  -24.8908  -10.2673 C   0  0  0  0  0  0  0  0  0  0  0  0
   16.7905  -25.5178  -10.4532 O   0  0  0  0  0  0  0  0  0  0  0  0
   17.8144  -23.8308   -9.4008 O   0  0  0  0  0  0  0  0  0  0  0  0
  2  1  1  0
  3  2  2  0
  4  3  1  0
  5  4  2  0
  5 11  1  0
  6  5  1  0
  7  9  1  0
  7  6  1  0
  7  8  1  6
  9 10  2  0
 11 12  2  0
 12  2  1  0
 14 13  1  6
 15 14  1  0
 16 14  1  0
 16 17  1  1
 17  9  1  0
 18 16  1  0
 19 18  2  0
 20 21  1  0
 21 22  2  0
 23 24  1  0
 23 21  1  0
 24 25  1  0
 27 26  1  6
 26 25  1  0
 27 28  1  0
 28 18  1  0
 29 31  1  0
 29 27  1  0
 30 29  2  0
M  END
$$$$
