YTR.pdb
     RDKit          3D

 31 31  0  0  1  0  0  0  0  0999 V2000
   27.4446  -21.0015  -16.5598 O   0  0  0  0  0  0  0  0  0  0  0  0
   26.2795  -20.9433  -15.7789 C   0  0  0  0  0  0  0  0  0  0  0  0
   25.4597  -19.8615  -15.8910 C   0  0  0  0  0  0  0  0  0  0  0  0
   24.3005  -19.7583  -15.1427 C   0  0  0  0  0  0  0  0  0  0  0  0
   23.9527  -20.7560  -14.2644 C   0  0  0  0  0  0  0  0  0  0  0  0
   22.7278  -20.6439  -13.4772 C   0  0  0  0  0  0  0  0  0  0  0  0
   21.6180  -21.5805  -13.9110 C   0  0  2  0  0  0  0  0  0  0  0  0
   21.1622  -21.1812  -15.2582 N   0  0  0  0  0  0  0  0  0  0  0  0
   20.4497  -21.5881  -13.0380 C   0  0  0  0  0  0  0  0  0  0  0  0
   19.4684  -20.8038  -13.2635 O   0  0  0  0  0  0  0  0  0  0  0  0
   24.7882  -21.8464  -14.1579 C   0  0  0  0  0  0  0  0  0  0  0  0
   25.9475  -21.9501  -14.9060 C   0  0  0  0  0  0  0  0  0  0  0  0
   17.8318  -22.0385  -13.3602 C   0  0  0  0  0  0  0  0  0  0  0  0
   18.0187  -23.0213  -12.2383 C   0  0  1  0  0  0  0  0  0  0  0  0
   18.6821  -24.1323  -12.8118 O   0  0  0  0  0  0  0  0  0  0  0  0
   19.0044  -22.5112  -11.1730 C   0  0  2  0  0  0  0  0  0  0  0  0
   20.2705  -22.4228  -11.8987 N   0  0  0  0  0  0  0  0  0  0  0  0
   19.1615  -23.4612  -10.0712 C   0  0  0  0  0  0  0  0  0  0  0  0
   20.1333  -24.2941  -10.1380 O   0  0  0  0  0  0  0  0  0  0  0  0
   14.4110  -24.5073   -2.8608 N   0  0  0  0  0  0  0  0  0  0  0  0
   15.7357  -24.9013   -2.5369 C   0  0  0  0  0  0  0  0  0  0  0  0
   16.0996  -24.9368   -1.3164 N   0  0  0  0  0  0  0  0  0  0  0  0
   16.6448  -25.2532   -3.5924 N   0  0  0  0  0  0  0  0  0  0  0  0
   16.1754  -25.3001   -4.9578 C   0  0  0  0  0  0  0  0  0  0  0  0
   17.3185  -25.5132   -5.9296 C   0  0  0  0  0  0  0  0  0  0  0  0
   17.4064  -24.3893   -6.9041 C   0  0  0  0  0  0  0  0  0  0  0  0
   18.4857  -24.5562   -7.9373 C   0  0  2  0  0  0  0  0  0  0  0  0
   18.2996  -23.5067   -8.9393 N   0  0  0  0  0  0  0  0  0  0  0  0
   18.2823  -25.8397   -8.6671 C   0  0  0  0  0  0  0  0  0  0  0  0
   17.4131  -25.8850   -9.5692 O   0  0  0  0  0  0  0  0  0  0  0  0
   18.9835  -26.9909   -8.4234 O   0  0  0  0  0  0  0  0  0  0  0  0
  2  1  1  0
  3  2  2  0
  4  3  1  0
  5  4  2  0
  5 11  1  0
  6  5  1  0
  7  9  1  0
  7  6  1  0
  7  8  1  6
  9 10  2  0
 11 12  2  0
 12  2  1  0
 14 13  1  6
 15 14  1  0
 16 14  1  0
 16 17  1  6
 17  9  1  0
 18 16  1  0
 19 18  2  0
 20 21  1  0
 21 22  2  0
 23 24  1  0
 23 21  1  0
 24 25  1  0
 27 26  1  1
 26 25  1  0
 27 28  1  0
 28 18  1  0
 29 31  1  0
 29 27  1  0
 30 29  2  0
M  END
$$$$
