YTR.pdb
     RDKit          3D

 31 31  0  0  1  0  0  0  0  0999 V2000
   22.9337  -21.2214   -6.9921 O   0  0  0  0  0  0  0  0  0  0  0  0
   23.5984  -20.8768   -8.1796 C   0  0  0  0  0  0  0  0  0  0  0  0
   22.8776  -20.7411   -9.3273 C   0  0  0  0  0  0  0  0  0  0  0  0
   23.4873  -20.4029  -10.5224 C   0  0  0  0  0  0  0  0  0  0  0  0
   24.8447  -20.1960  -10.5726 C   0  0  0  0  0  0  0  0  0  0  0  0
   25.4843  -19.8382  -11.8356 C   0  0  0  0  0  0  0  0  0  0  0  0
   25.3312  -20.8758  -12.9298 C   0  0  2  0  0  0  0  0  0  0  0  0
   26.1688  -22.0450  -12.5930 N   0  0  0  0  0  0  0  0  0  0  0  0
   25.7253  -20.4235  -14.2592 C   0  0  0  0  0  0  0  0  0  0  0  0
   26.9493  -20.4599  -14.6187 O   0  0  0  0  0  0  0  0  0  0  0  0
   25.5654  -20.3356   -9.4065 C   0  0  0  0  0  0  0  0  0  0  0  0
   24.9561  -20.6737   -8.2112 C   0  0  0  0  0  0  0  0  0  0  0  0
   26.9033  -21.5159  -16.4794 C   0  0  0  0  0  0  0  0  0  0  0  0
   25.7225  -20.9259  -17.1986 C   0  0  1  0  0  0  0  0  0  0  0  0
   24.6338  -21.7833  -16.9105 O   0  0  0  0  0  0  0  0  0  0  0  0
   25.2944  -19.5723  -16.6064 C   0  0  2  0  0  0  0  0  0  0  0  0
   24.8457  -19.9195  -15.2589 N   0  0  0  0  0  0  0  0  0  0  0  0
   24.1711  -18.9844  -17.3370 C   0  0  0  0  0  0  0  0  0  0  0  0
   22.9881  -19.2407  -16.9156 O   0  0  0  0  0  0  0  0  0  0  0  0
   21.5270  -12.3021  -20.6282 N   0  0  0  0  0  0  0  0  0  0  0  0
   20.3942  -13.1198  -20.8795 C   0  0  0  0  0  0  0  0  0  0  0  0
   19.3400  -12.5989  -21.3701 N   0  0  0  0  0  0  0  0  0  0  0  0
   20.4558  -14.5227  -20.5751 N   0  0  0  0  0  0  0  0  0  0  0  0
   21.5989  -15.0545  -19.8700 C   0  0  0  0  0  0  0  0  0  0  0  0
   22.5200  -15.8155  -20.8023 C   0  0  0  0  0  0  0  0  0  0  0  0
   23.6136  -16.4844  -20.0426 C   0  0  0  0  0  0  0  0  0  0  0  0
   23.1385  -17.5466  -19.0907 C   0  0  2  0  0  0  0  0  0  0  0  0
   24.3231  -18.1496  -18.4798 N   0  0  0  0  0  0  0  0  0  0  0  0
   22.4859  -18.6460  -19.8567 C   0  0  0  0  0  0  0  0  0  0  0  0
   23.2024  -19.5724  -20.3036 O   0  0  0  0  0  0  0  0  0  0  0  0
   21.1425  -18.7224  -20.1132 O   0  0  0  0  0  0  0  0  0  0  0  0
  2  1  1  0
  3  2  2  0
  4  3  1  0
  5  4  2  0
  5 11  1  0
  6  5  1  0
  7  9  1  0
  7  6  1  0
  7  8  1  1
  9 10  2  0
 11 12  2  0
 12  2  1  0
 14 13  1  1
 15 14  1  0
 16 14  1  0
 16 17  1  1
 17  9  1  0
 18 16  1  0
 19 18  2  0
 20 21  1  0
 21 22  2  0
 23 24  1  0
 23 21  1  0
 24 25  1  0
 27 26  1  6
 26 25  1  0
 27 28  1  0
 28 18  1  0
 29 31  1  0
 29 27  1  0
 30 29  2  0
M  END
$$$$
