YTR.pdb
     RDKit          3D

 31 31  0  0  1  0  0  0  0  0999 V2000
   28.4735   -7.6782  -25.4154 O   0  0  0  0  0  0  0  0  0  0  0  0
   27.9456   -8.5763  -24.4745 C   0  0  0  0  0  0  0  0  0  0  0  0
   26.5982   -8.6156  -24.2790 C   0  0  0  0  0  0  0  0  0  0  0  0
   26.0305   -9.4834  -23.3630 C   0  0  0  0  0  0  0  0  0  0  0  0
   26.8245  -10.3294  -22.6271 C   0  0  0  0  0  0  0  0  0  0  0  0
   26.2214  -11.2447  -21.6621 C   0  0  0  0  0  0  0  0  0  0  0  0
   25.7408  -10.5810  -20.3871 C   0  0  2  0  0  0  0  0  0  0  0  0
   26.9151  -10.0849  -19.6408 N   0  0  0  0  0  0  0  0  0  0  0  0
   24.9890  -11.4525  -19.4913 C   0  0  0  0  0  0  0  0  0  0  0  0
   25.2403  -11.4660  -18.2401 O   0  0  0  0  0  0  0  0  0  0  0  0
   28.1862  -10.2825  -22.8318 C   0  0  0  0  0  0  0  0  0  0  0  0
   28.7544   -9.4149  -23.7476 C   0  0  0  0  0  0  0  0  0  0  0  0
   23.1870  -11.1683  -17.3523 C   0  0  0  0  0  0  0  0  0  0  0  0
   22.3466  -12.1140  -18.1641 C   0  0  1  0  0  0  0  0  0  0  0  0
   21.7744  -11.3280  -19.1927 O   0  0  0  0  0  0  0  0  0  0  0  0
   23.1970  -13.1499  -18.9193 C   0  0  2  0  0  0  0  0  0  0  0  0
   23.9443  -12.3387  -19.8790 N   0  0  0  0  0  0  0  0  0  0  0  0
   22.3702  -14.1053  -19.6574 C   0  0  0  0  0  0  0  0  0  0  0  0
   21.6679  -13.6564  -20.6309 O   0  0  0  0  0  0  0  0  0  0  0  0
   22.3298  -22.5322  -18.6652 N   0  0  0  0  0  0  0  0  0  0  0  0
   21.1327  -21.8417  -18.3404 C   0  0  0  0  0  0  0  0  0  0  0  0
   20.3098  -22.3634  -17.5195 N   0  0  0  0  0  0  0  0  0  0  0  0
   20.8692  -20.5649  -18.9444 N   0  0  0  0  0  0  0  0  0  0  0  0
   21.5051  -20.2172  -20.1940 C   0  0  0  0  0  0  0  0  0  0  0  0
   21.1270  -18.8184  -20.6377 C   0  0  0  0  0  0  0  0  0  0  0  0
   21.8274  -17.7910  -19.8165 C   0  0  0  0  0  0  0  0  0  0  0  0
   21.4838  -16.3740  -20.1830 C   0  0  2  0  0  0  0  0  0  0  0  0
   22.3073  -15.4945  -19.3534 N   0  0  0  0  0  0  0  0  0  0  0  0
   20.0758  -16.0850  -19.7886 C   0  0  0  0  0  0  0  0  0  0  0  0
   19.8456  -15.7232  -18.6106 O   0  0  0  0  0  0  0  0  0  0  0  0
   18.9980  -16.1860  -20.6279 O   0  0  0  0  0  0  0  0  0  0  0  0
  2  1  1  0
  3  2  2  0
  4  3  1  0
  5  4  2  0
  5 11  1  0
  6  5  1  0
  7  9  1  0
  7  6  1  0
  7  8  1  1
  9 10  2  0
 11 12  2  0
 12  2  1  0
 14 13  1  1
 15 14  1  0
 16 14  1  0
 16 17  1  6
 17  9  1  0
 18 16  1  0
 19 18  2  0
 20 21  1  0
 21 22  2  0
 23 24  1  0
 23 21  1  0
 24 25  1  0
 27 26  1  1
 26 25  1  0
 27 28  1  0
 28 18  1  0
 29 31  1  0
 29 27  1  0
 30 29  2  0
M  END
$$$$
