TVI.pdb
     RDKit          3D

 23 22  0  0  1  0  0  0  0  0999 V2000
   11.9048  -19.4897   19.3821 C   0  0  0  0  0  0  0  0  0  0  0  0
   11.4514  -18.7133   20.5897 C   0  0  1  0  0  0  0  0  0  0  0  0
   12.2383  -18.9646   21.7094 O   0  0  0  0  0  0  0  0  0  0  0  0
   11.4334  -17.2253   20.2726 C   0  0  2  0  0  0  0  0  0  0  0  0
   12.8197  -16.8706   20.0019 N   0  0  0  0  0  0  0  0  0  0  0  0
   10.8790  -16.4457   21.3965 C   0  0  0  0  0  0  0  0  0  0  0  0
   11.6013  -15.7024   22.1299 O   0  0  0  0  0  0  0  0  0  0  0  0
    6.9855  -14.5634   23.7586 C   0  0  0  0  0  0  0  0  0  0  0  0
    7.4702  -15.3701   22.5769 C   0  0  1  0  0  0  0  0  0  0  0  0
    7.2227  -14.5547   21.3321 C   0  0  0  0  0  0  0  0  0  0  0  0
    8.9395  -15.6640   22.7773 C   0  0  2  0  0  0  0  0  0  0  0  0
    9.4911  -16.4828   21.7241 N   0  0  0  0  0  0  0  0  0  0  0  0
    9.2295  -16.2297   24.1229 C   0  0  0  0  0  0  0  0  0  0  0  0
    9.3518  -17.4742   24.2609 O   0  0  0  0  0  0  0  0  0  0  0  0
    9.8280  -12.6820   28.4261 C   0  0  0  0  0  0  0  0  0  0  0  0
   10.2465  -13.6596   27.3371 C   0  0  0  0  0  0  0  0  0  0  0  0
    9.6456  -14.9887   27.6669 C   0  0  2  0  0  0  0  0  0  0  0  0
   10.2904  -15.5427   28.9252 C   0  0  0  0  0  0  0  0  0  0  0  0
    9.7475  -15.9942   26.5397 C   0  0  2  0  0  0  0  0  0  0  0  0
    9.3764  -15.4314   25.2746 N   0  0  0  0  0  0  0  0  0  0  0  0
    8.9254  -17.1848   26.8298 C   0  0  0  0  0  0  0  0  0  0  0  0
    9.5007  -18.3111   27.3957 O   0  0  0  0  0  0  0  0  0  0  0  0
    7.6966  -17.2249   26.5801 O   0  0  0  0  0  0  0  0  0  0  0  0
  2  1  1  6
  3  2  1  0
  4  2  1  0
  4  5  1  1
  6  7  2  0
  6  4  1  0
  9  8  1  1
  9 10  1  0
  9 11  1  0
 11 12  1  6
 12  6  1  0
 13 11  1  0
 13 20  1  0
 14 13  2  0
 15 16  1  0
 17 19  1  0
 17 16  1  0
 17 18  1  1
 19 21  1  0
 19 20  1  6
 21 23  2  0
 21 22  1  0
M  END
$$$$
