TVI.pdb
     RDKit          3D

 23 22  0  0  1  0  0  0  0  0999 V2000
   12.4159  -17.1687   21.5836 C   0  0  0  0  0  0  0  0  0  0  0  0
   13.2797  -16.1917   20.8312 C   0  0  1  0  0  0  0  0  0  0  0  0
   14.2654  -16.8232   20.0791 O   0  0  0  0  0  0  0  0  0  0  0  0
   12.4134  -15.3102   19.9439 C   0  0  2  0  0  0  0  0  0  0  0  0
   13.3377  -14.3985   19.2839 N   0  0  0  0  0  0  0  0  0  0  0  0
   11.4014  -14.5844   20.7359 C   0  0  0  0  0  0  0  0  0  0  0  0
   11.7026  -13.6165   21.5003 O   0  0  0  0  0  0  0  0  0  0  0  0
    6.7811  -13.2299   21.5395 C   0  0  0  0  0  0  0  0  0  0  0  0
    7.7597  -13.9589   20.6488 C   0  0  1  0  0  0  0  0  0  0  0  0
    8.0049  -13.0974   19.4351 C   0  0  0  0  0  0  0  0  0  0  0  0
    9.0269  -14.1985   21.4374 C   0  0  2  0  0  0  0  0  0  0  0  0
   10.0186  -14.9311   20.6864 N   0  0  0  0  0  0  0  0  0  0  0  0
    8.7647  -14.8264   22.7610 C   0  0  0  0  0  0  0  0  0  0  0  0
    9.0239  -16.0455   22.9331 O   0  0  0  0  0  0  0  0  0  0  0  0
    6.1367  -12.0339   27.0532 C   0  0  0  0  0  0  0  0  0  0  0  0
    6.4121  -12.9802   25.8932 C   0  0  0  0  0  0  0  0  0  0  0  0
    7.6721  -13.7230   26.2047 C   0  0  2  0  0  0  0  0  0  0  0  0
    8.8032  -12.7362   26.4346 C   0  0  0  0  0  0  0  0  0  0  0  0
    8.0607  -14.7266   25.1398 C   0  0  2  0  0  0  0  0  0  0  0  0
    8.2302  -14.1159   23.8541 N   0  0  0  0  0  0  0  0  0  0  0  0
    7.0651  -15.8129   25.0619 C   0  0  0  0  0  0  0  0  0  0  0  0
    6.2933  -15.9741   23.9225 O   0  0  0  0  0  0  0  0  0  0  0  0
    6.8802  -16.6184   26.0058 O   0  0  0  0  0  0  0  0  0  0  0  0
  2  1  1  6
  3  2  1  0
  4  2  1  0
  4  5  1  1
  6  7  2  0
  6  4  1  0
  9  8  1  1
  9 10  1  0
  9 11  1  0
 11 12  1  6
 12  6  1  0
 13 11  1  0
 13 20  1  0
 14 13  2  0
 15 16  1  0
 17 19  1  0
 17 16  1  0
 17 18  1  6
 19 21  1  0
 19 20  1  6
 21 23  2  0
 21 22  1  0
M  END
$$$$
