TVI.pdb
     RDKit          3D

 23 22  0  0  1  0  0  0  0  0999 V2000
   11.4632  -19.2840   21.9130 C   0  0  0  0  0  0  0  0  0  0  0  0
   12.3601  -18.6137   20.9065 C   0  0  1  0  0  0  0  0  0  0  0  0
   12.9751  -19.5244   20.0529 O   0  0  0  0  0  0  0  0  0  0  0  0
   11.5693  -17.5859   20.1108 C   0  0  2  0  0  0  0  0  0  0  0  0
   12.5135  -17.0294   19.1517 N   0  0  0  0  0  0  0  0  0  0  0  0
   11.0075  -16.5440   20.9924 C   0  0  0  0  0  0  0  0  0  0  0  0
   11.7357  -15.6876   21.5824 O   0  0  0  0  0  0  0  0  0  0  0  0
    6.7724  -16.2979   21.9071 C   0  0  0  0  0  0  0  0  0  0  0  0
    7.6547  -15.0730   21.8475 C   0  0  1  0  0  0  0  0  0  0  0  0
    7.1156  -14.0707   22.8376 C   0  0  0  0  0  0  0  0  0  0  0  0
    9.0680  -15.4932   22.1812 C   0  0  2  0  0  0  0  0  0  0  0  0
    9.6052  -16.4392   21.2323 N   0  0  0  0  0  0  0  0  0  0  0  0
    9.2023  -15.9814   23.5807 C   0  0  0  0  0  0  0  0  0  0  0  0
    9.2921  -17.2166   23.8024 O   0  0  0  0  0  0  0  0  0  0  0  0
   10.4637  -13.6386   29.1777 C   0  0  0  0  0  0  0  0  0  0  0  0
   10.3416  -14.8770   28.3011 C   0  0  0  0  0  0  0  0  0  0  0  0
    9.7922  -14.4433   26.9796 C   0  0  2  0  0  0  0  0  0  0  0  0
    8.4733  -13.7199   27.1871 C   0  0  0  0  0  0  0  0  0  0  0  0
    9.6168  -15.5805   25.9957 C   0  0  2  0  0  0  0  0  0  0  0  0
    9.2338  -15.1182   24.6940 N   0  0  0  0  0  0  0  0  0  0  0  0
    8.6327  -16.5572   26.5007 C   0  0  0  0  0  0  0  0  0  0  0  0
    9.0323  -17.5792   27.3467 O   0  0  0  0  0  0  0  0  0  0  0  0
    7.4184  -16.5032   26.1902 O   0  0  0  0  0  0  0  0  0  0  0  0
  2  1  1  1
  3  2  1  0
  4  2  1  0
  4  5  1  6
  6  7  2  0
  6  4  1  0
  9  8  1  1
  9 10  1  0
  9 11  1  0
 11 12  1  6
 12  6  1  0
 13 11  1  0
 13 20  1  0
 14 13  2  0
 15 16  1  0
 17 19  1  0
 17 16  1  0
 17 18  1  1
 19 21  1  0
 19 20  1  6
 21 23  2  0
 21 22  1  0
M  END
$$$$
