TVI.pdb
     RDKit          3D

 23 22  0  0  1  0  0  0  0  0999 V2000
   10.9037  -14.4536   20.1878 C   0  0  0  0  0  0  0  0  0  0  0  0
    9.9835  -13.5388   19.4242 C   0  0  1  0  0  0  0  0  0  0  0  0
   10.5342  -13.1166   18.2182 O   0  0  0  0  0  0  0  0  0  0  0  0
    8.6467  -14.2263   19.1894 C   0  0  2  0  0  0  0  0  0  0  0  0
    7.8599  -13.2846   18.4051 N   0  0  0  0  0  0  0  0  0  0  0  0
    7.9858  -14.5608   20.4659 C   0  0  0  0  0  0  0  0  0  0  0  0
    7.3432  -13.7012   21.1444 O   0  0  0  0  0  0  0  0  0  0  0  0
    6.3568  -17.9476   23.6604 C   0  0  0  0  0  0  0  0  0  0  0  0
    7.0082  -17.6913   22.3216 C   0  0  1  0  0  0  0  0  0  0  0  0
    6.0401  -18.1264   21.2496 C   0  0  0  0  0  0  0  0  0  0  0  0
    7.3300  -16.2172   22.2282 C   0  0  2  0  0  0  0  0  0  0  0  0
    8.0312  -15.8775   21.0129 N   0  0  0  0  0  0  0  0  0  0  0  0
    8.0415  -15.7114   23.4335 C   0  0  0  0  0  0  0  0  0  0  0  0
    9.2847  -15.8749   23.5358 O   0  0  0  0  0  0  0  0  0  0  0  0
    5.7864  -11.5970   26.4122 C   0  0  0  0  0  0  0  0  0  0  0  0
    6.6770  -12.4557   25.5255 C   0  0  0  0  0  0  0  0  0  0  0  0
    7.2962  -13.5076   26.3896 C   0  0  2  0  0  0  0  0  0  0  0  0
    8.1592  -12.8520   27.4533 C   0  0  0  0  0  0  0  0  0  0  0  0
    8.1037  -14.5274   25.6150 C   0  0  2  0  0  0  0  0  0  0  0  0
    7.3853  -15.0468   24.4885 N   0  0  0  0  0  0  0  0  0  0  0  0
    8.5339  -15.6286   26.4981 C   0  0  0  0  0  0  0  0  0  0  0  0
    7.7082  -16.7216   26.7063 O   0  0  0  0  0  0  0  0  0  0  0  0
    9.6426  -15.6197   27.0851 O   0  0  0  0  0  0  0  0  0  0  0  0
  2  1  1  6
  3  2  1  0
  4  2  1  0
  4  5  1  6
  6  7  2  0
  6  4  1  0
  9  8  1  1
  9 10  1  0
  9 11  1  0
 11 12  1  6
 12  6  1  0
 13 11  1  0
 13 20  1  0
 14 13  2  0
 15 16  1  0
 17 19  1  0
 17 16  1  0
 17 18  1  1
 19 21  1  0
 19 20  1  6
 21 23  2  0
 21 22  1  0
M  END
$$$$
