TVI.pdb
     RDKit          3D

 23 22  0  0  1  0  0  0  0  0999 V2000
   10.7701  -13.9973   20.4361 C   0  0  0  0  0  0  0  0  0  0  0  0
    9.8066  -13.2840   19.5253 C   0  0  1  0  0  0  0  0  0  0  0  0
   10.4149  -12.8288   18.3596 O   0  0  0  0  0  0  0  0  0  0  0  0
    8.6340  -14.1954   19.1951 C   0  0  2  0  0  0  0  0  0  0  0  0
    7.7974  -13.4328   18.2787 N   0  0  0  0  0  0  0  0  0  0  0  0
    7.8976  -14.5824   20.4142 C   0  0  0  0  0  0  0  0  0  0  0  0
    7.1341  -13.7775   21.0314 O   0  0  0  0  0  0  0  0  0  0  0  0
    6.2484  -17.9741   23.5552 C   0  0  0  0  0  0  0  0  0  0  0  0
    7.0583  -17.7311   22.3033 C   0  0  1  0  0  0  0  0  0  0  0  0
    6.2562  -18.2408   21.1318 C   0  0  0  0  0  0  0  0  0  0  0  0
    7.3315  -16.2479   22.1988 C   0  0  2  0  0  0  0  0  0  0  0  0
    8.0021  -15.8916   20.9711 N   0  0  0  0  0  0  0  0  0  0  0  0
    8.0457  -15.7144   23.3906 C   0  0  0  0  0  0  0  0  0  0  0  0
    9.2976  -15.8160   23.4622 O   0  0  0  0  0  0  0  0  0  0  0  0
    5.9354  -11.5345   26.3785 C   0  0  0  0  0  0  0  0  0  0  0  0
    6.7898  -12.4404   25.5032 C   0  0  0  0  0  0  0  0  0  0  0  0
    7.3041  -13.5486   26.3656 C   0  0  2  0  0  0  0  0  0  0  0  0
    8.1420  -12.9718   27.4930 C   0  0  0  0  0  0  0  0  0  0  0  0
    8.0968  -14.5891   25.6032 C   0  0  2  0  0  0  0  0  0  0  0  0
    7.3827  -15.0898   24.4655 N   0  0  0  0  0  0  0  0  0  0  0  0
    8.4846  -15.7010   26.4925 C   0  0  0  0  0  0  0  0  0  0  0  0
    9.7528  -15.7420   27.0489 O   0  0  0  0  0  0  0  0  0  0  0  0
    7.6975  -16.6363   26.7746 O   0  0  0  0  0  0  0  0  0  0  0  0
  2  1  1  1
  3  2  1  0
  4  2  1  0
  4  5  1  6
  6  7  2  0
  6  4  1  0
  9  8  1  1
  9 10  1  0
  9 11  1  0
 11 12  1  6
 12  6  1  0
 13 11  1  0
 13 20  1  0
 14 13  2  0
 15 16  1  0
 17 19  1  0
 17 16  1  0
 17 18  1  1
 19 21  1  0
 19 20  1  6
 21 23  2  0
 21 22  1  0
M  END
$$$$
