DES.pdb
     RDKit          3D

 24 23  0  0  1  0  0  0  0  0999 V2000
   14.1778  -10.9918  -12.2530 N   0  0  0  0  0  0  0  0  0  0  0  0
   15.0707  -10.7614  -11.1340 C   0  0  1  0  0  0  0  0  0  0  0  0
   16.0618  -11.8756  -11.0736 C   0  0  0  0  0  0  0  0  0  0  0  0
   15.3774  -13.1420  -10.8062 C   0  0  0  0  0  0  0  0  0  0  0  0
   15.7956  -14.2047  -11.3266 O   0  0  0  0  0  0  0  0  0  0  0  0
   15.8139   -9.4653  -11.2838 C   0  0  0  0  0  0  0  0  0  0  0  0
   16.1030   -9.1452  -12.4383 O   0  0  0  0  0  0  0  0  0  0  0  0
   14.2516  -13.1713   -9.9671 O   0  0  0  0  0  0  0  0  0  0  0  0
   16.1704   -8.6542  -10.2248 N   0  0  0  0  0  0  0  0  0  0  0  0
   16.7951   -7.4052  -10.2715 C   0  0  1  0  0  0  0  0  0  0  0  0
   16.5563   -6.4081   -9.1788 C   0  0  0  0  0  0  0  0  0  0  0  0
   15.1270   -5.9709   -9.1520 C   0  0  0  0  0  0  0  0  0  0  0  0
   14.8720   -4.9938   -8.0316 C   0  0  0  0  0  0  0  0  0  0  0  0
   13.8376   -5.1582   -7.3441 O   0  0  0  0  0  0  0  0  0  0  0  0
   18.1800   -7.5141  -10.7206 C   0  0  0  0  0  0  0  0  0  0  0  0
   18.9130   -8.4048  -10.2152 O   0  0  0  0  0  0  0  0  0  0  0  0
   15.7132   -3.9539   -7.7437 O   0  0  0  0  0  0  0  0  0  0  0  0
   21.4289   -8.3607  -13.6017 O   0  0  0  0  0  0  0  0  0  0  0  0
   20.1257   -8.2097  -13.1096 C   0  0  0  0  0  0  0  0  0  0  0  0
   20.1233   -6.9800  -12.2302 C   0  0  2  0  0  0  0  0  0  0  0  0
   18.8097   -6.6928  -11.7017 N   0  0  0  0  0  0  0  0  0  0  0  0
   20.6192   -5.8513  -13.0524 C   0  0  0  0  0  0  0  0  0  0  0  0
   21.8557   -5.6732  -13.1326 O   0  0  0  0  0  0  0  0  0  0  0  0
   19.7626   -4.9974  -13.7271 O   0  0  0  0  0  0  0  0  0  0  0  0
  2  1  1  6
  3  4  1  0
  3  2  1  0
  4  8  1  0
  5  4  2  0
  6  2  1  0
  6  7  2  0
  9 10  1  0
  9  6  1  0
 10 15  1  0
 10 11  1  1
 12 11  1  0
 12 13  1  0
 13 14  2  0
 15 16  2  0
 15 21  1  0
 17 13  1  0
 18 19  1  0
 20 19  1  6
 20 22  1  0
 21 20  1  0
 22 23  2  0
 22 24  1  0
M  END
$$$$
