DES.pdb
     RDKit          3D

 24 23  0  0  1  0  0  0  0  0999 V2000
   17.8823  -12.6813  -16.0605 N   0  0  0  0  0  0  0  0  0  0  0  0
   17.6925  -11.2483  -15.9464 C   0  0  1  0  0  0  0  0  0  0  0  0
   16.9942  -10.9577  -14.6598 C   0  0  0  0  0  0  0  0  0  0  0  0
   15.6195  -11.4589  -14.7106 C   0  0  0  0  0  0  0  0  0  0  0  0
   15.1887  -12.2063  -13.7991 O   0  0  0  0  0  0  0  0  0  0  0  0
   19.0050  -10.5191  -15.9556 C   0  0  0  0  0  0  0  0  0  0  0  0
   19.7634  -10.7716  -15.0176 O   0  0  0  0  0  0  0  0  0  0  0  0
   14.7793  -11.1052  -15.7790 O   0  0  0  0  0  0  0  0  0  0  0  0
   19.3786   -9.6164  -16.9314 N   0  0  0  0  0  0  0  0  0  0  0  0
   20.5706   -8.8930  -17.0216 C   0  0  1  0  0  0  0  0  0  0  0  0
   21.2364   -8.7110  -18.3516 C   0  0  0  0  0  0  0  0  0  0  0  0
   21.4607  -10.0263  -19.0258 C   0  0  0  0  0  0  0  0  0  0  0  0
   22.1529   -9.8519  -20.3545 C   0  0  0  0  0  0  0  0  0  0  0  0
   21.4510   -9.9390  -21.3887 O   0  0  0  0  0  0  0  0  0  0  0  0
   20.5431   -7.7049  -16.1736 C   0  0  0  0  0  0  0  0  0  0  0  0
   19.5116   -6.9824  -16.1756 O   0  0  0  0  0  0  0  0  0  0  0  0
   23.4939   -9.6066  -20.4698 O   0  0  0  0  0  0  0  0  0  0  0  0
   21.9385   -5.2047  -12.3344 O   0  0  0  0  0  0  0  0  0  0  0  0
   22.2154   -6.3165  -13.1410 C   0  0  0  0  0  0  0  0  0  0  0  0
   21.4513   -6.1293  -14.4319 C   0  0  2  0  0  0  0  0  0  0  0  0
   21.5936   -7.2627  -15.3165 N   0  0  0  0  0  0  0  0  0  0  0  0
   21.9640   -4.8944  -15.0705 C   0  0  0  0  0  0  0  0  0  0  0  0
   22.8815   -4.9997  -15.9156 O   0  0  0  0  0  0  0  0  0  0  0  0
   21.4623   -3.6408  -14.7621 O   0  0  0  0  0  0  0  0  0  0  0  0
  2  1  1  1
  3  4  1  0
  3  2  1  0
  4  8  1  0
  5  4  2  0
  6  2  1  0
  6  7  2  0
  9 10  1  0
  9  6  1  0
 10 15  1  0
 10 11  1  6
 12 11  1  0
 12 13  1  0
 13 14  2  0
 15 16  2  0
 15 21  1  0
 17 13  1  0
 18 19  1  0
 20 19  1  1
 20 22  1  0
 21 20  1  0
 22 23  2  0
 22 24  1  0
M  END
$$$$
