DES.pdb
     RDKit          3D

 24 23  0  0  1  0  0  0  0  0999 V2000
   18.0569  -12.5155  -16.4689 N   0  0  0  0  0  0  0  0  0  0  0  0
   17.6419  -11.1267  -16.4303 C   0  0  1  0  0  0  0  0  0  0  0  0
   16.8979  -10.8833  -15.1596 C   0  0  0  0  0  0  0  0  0  0  0  0
   15.5742  -11.5054  -15.2262 C   0  0  0  0  0  0  0  0  0  0  0  0
   14.9447  -11.5295  -16.3117 O   0  0  0  0  0  0  0  0  0  0  0  0
   18.8225  -10.2002  -16.4803 C   0  0  0  0  0  0  0  0  0  0  0  0
   19.7979  -10.5405  -15.8083 O   0  0  0  0  0  0  0  0  0  0  0  0
   15.0053  -12.0767  -14.0763 O   0  0  0  0  0  0  0  0  0  0  0  0
   18.8561   -9.0332  -17.2176 N   0  0  0  0  0  0  0  0  0  0  0  0
   19.8875   -8.0937  -17.2926 C   0  0  1  0  0  0  0  0  0  0  0  0
   20.0984   -7.3134  -18.5543 C   0  0  0  0  0  0  0  0  0  0  0  0
   21.3474   -6.4953  -18.4789 C   0  0  0  0  0  0  0  0  0  0  0  0
   21.5784   -5.7260  -19.7556 C   0  0  0  0  0  0  0  0  0  0  0  0
   21.9091   -6.3784  -20.7728 O   0  0  0  0  0  0  0  0  0  0  0  0
   20.0006   -7.3211  -16.0589 C   0  0  0  0  0  0  0  0  0  0  0  0
   18.9921   -6.6918  -15.6431 O   0  0  0  0  0  0  0  0  0  0  0  0
   21.4428   -4.3674  -19.8420 O   0  0  0  0  0  0  0  0  0  0  0  0
   21.5733   -6.7047  -11.6678 O   0  0  0  0  0  0  0  0  0  0  0  0
   21.7290   -7.4052  -12.8712 C   0  0  0  0  0  0  0  0  0  0  0  0
   21.1627   -6.5332  -13.9686 C   0  0  2  0  0  0  0  0  0  0  0  0
   21.1689   -7.2004  -15.2502 N   0  0  0  0  0  0  0  0  0  0  0  0
   21.9798   -5.2978  -14.0134 C   0  0  0  0  0  0  0  0  0  0  0  0
   22.9608   -5.2624  -14.7902 O   0  0  0  0  0  0  0  0  0  0  0  0
   21.6917   -4.1935  -13.2287 O   0  0  0  0  0  0  0  0  0  0  0  0
  2  1  1  1
  3  4  1  0
  3  2  1  0
  4  8  1  0
  5  4  2  0
  6  2  1  0
  6  7  2  0
  9 10  1  0
  9  6  1  0
 10 15  1  0
 10 11  1  6
 12 11  1  0
 12 13  1  0
 13 14  2  0
 15 16  2  0
 15 21  1  0
 17 13  1  0
 18 19  1  0
 20 19  1  1
 20 22  1  0
 21 20  1  0
 22 23  2  0
 22 24  1  0
M  END
$$$$
