DES.pdb
     RDKit          3D

 24 23  0  0  1  0  0  0  0  0999 V2000
   18.6236  -12.8395  -16.7246 N   0  0  0  0  0  0  0  0  0  0  0  0
   17.7538  -11.8339  -16.1462 C   0  0  1  0  0  0  0  0  0  0  0  0
   17.5693  -12.1356  -14.6962 C   0  0  0  0  0  0  0  0  0  0  0  0
   16.7982  -13.3696  -14.5346 C   0  0  0  0  0  0  0  0  0  0  0  0
   17.1417  -14.2176  -13.6755 O   0  0  0  0  0  0  0  0  0  0  0  0
   18.3415  -10.4586  -16.2794 C   0  0  0  0  0  0  0  0  0  0  0  0
   19.5715  -10.3961  -16.2326 O   0  0  0  0  0  0  0  0  0  0  0  0
   15.6726  -13.6080  -15.3399 O   0  0  0  0  0  0  0  0  0  0  0  0
   17.5904   -9.3119  -16.4451 N   0  0  0  0  0  0  0  0  0  0  0  0
   18.0430   -8.0237  -16.7413 C   0  0  1  0  0  0  0  0  0  0  0  0
   17.1421   -7.0589  -17.4503 C   0  0  0  0  0  0  0  0  0  0  0  0
   17.8772   -5.8126  -17.8262 C   0  0  0  0  0  0  0  0  0  0  0  0
   16.9826   -4.8481  -18.5640 C   0  0  0  0  0  0  0  0  0  0  0  0
   17.2355   -4.6321  -19.7720 O   0  0  0  0  0  0  0  0  0  0  0  0
   18.8122   -7.4577  -15.6370 C   0  0  0  0  0  0  0  0  0  0  0  0
   18.3279   -7.5021  -14.4753 O   0  0  0  0  0  0  0  0  0  0  0  0
   15.9248   -4.2121  -17.9737 O   0  0  0  0  0  0  0  0  0  0  0  0
   22.8004   -6.1772  -13.3976 O   0  0  0  0  0  0  0  0  0  0  0  0
   22.2553   -6.6653  -14.5925 C   0  0  0  0  0  0  0  0  0  0  0  0
   20.7889   -6.2978  -14.5939 C   0  0  2  0  0  0  0  0  0  0  0  0
   20.0940   -6.8409  -15.7383 N   0  0  0  0  0  0  0  0  0  0  0  0
   20.7071   -4.8183  -14.5808 C   0  0  0  0  0  0  0  0  0  0  0  0
   21.0145   -4.2158  -13.5274 O   0  0  0  0  0  0  0  0  0  0  0  0
   20.3045   -4.0914  -15.6888 O   0  0  0  0  0  0  0  0  0  0  0  0
  2  1  1  1
  3  4  1  0
  3  2  1  0
  4  8  1  0
  5  4  2  0
  6  2  1  0
  6  7  2  0
  9 10  1  0
  9  6  1  0
 10 15  1  0
 10 11  1  1
 12 11  1  0
 12 13  1  0
 13 14  2  0
 15 16  2  0
 15 21  1  0
 17 13  1  0
 18 19  1  0
 20 19  1  6
 20 22  1  0
 21 20  1  0
 22 23  2  0
 22 24  1  0
M  END
$$$$
