DES.pdb
     RDKit          3D

 24 23  0  0  1  0  0  0  0  0999 V2000
   18.4444  -12.0921  -15.3063 N   0  0  0  0  0  0  0  0  0  0  0  0
   18.4647  -10.8162  -15.9949 C   0  0  1  0  0  0  0  0  0  0  0  0
   17.2829  -10.0162  -15.5580 C   0  0  0  0  0  0  0  0  0  0  0  0
   16.0470  -10.6626  -16.0033 C   0  0  0  0  0  0  0  0  0  0  0  0
   15.1679  -10.9823  -15.1666 O   0  0  0  0  0  0  0  0  0  0  0  0
   19.7119  -10.0423  -15.6783 C   0  0  0  0  0  0  0  0  0  0  0  0
   19.9325   -9.8505  -14.4810 O   0  0  0  0  0  0  0  0  0  0  0  0
   15.8417  -10.9266  -17.3673 O   0  0  0  0  0  0  0  0  0  0  0  0
   20.5827   -9.5587  -16.6345 N   0  0  0  0  0  0  0  0  0  0  0  0
   21.7404   -8.8015  -16.4378 C   0  0  1  0  0  0  0  0  0  0  0  0
   22.9359   -9.0216  -17.3140 C   0  0  0  0  0  0  0  0  0  0  0  0
   24.0850   -8.1689  -16.8809 C   0  0  0  0  0  0  0  0  0  0  0  0
   25.2866   -8.3732  -17.7693 C   0  0  0  0  0  0  0  0  0  0  0  0
   26.2784   -8.9588  -17.2761 O   0  0  0  0  0  0  0  0  0  0  0  0
   21.4265   -7.4039  -16.1559 C   0  0  0  0  0  0  0  0  0  0  0  0
   20.7051   -6.7685  -16.9695 O   0  0  0  0  0  0  0  0  0  0  0  0
   25.3326   -7.9506  -19.0697 O   0  0  0  0  0  0  0  0  0  0  0  0
   20.6572   -5.8906  -12.6833 O   0  0  0  0  0  0  0  0  0  0  0  0
   21.4583   -4.9360  -13.3238 C   0  0  0  0  0  0  0  0  0  0  0  0
   21.4758   -5.2862  -14.7943 C   0  0  2  0  0  0  0  0  0  0  0  0
   21.8640   -6.6593  -15.0211 N   0  0  0  0  0  0  0  0  0  0  0  0
   22.4198   -4.3553  -15.4561 C   0  0  0  0  0  0  0  0  0  0  0  0
   23.4201   -4.8360  -16.0353 O   0  0  0  0  0  0  0  0  0  0  0  0
   22.2286   -2.9835  -15.4520 O   0  0  0  0  0  0  0  0  0  0  0  0
  2  1  1  1
  3  4  1  0
  3  2  1  0
  4  8  1  0
  5  4  2  0
  6  2  1  0
  6  7  2  0
  9 10  1  0
  9  6  1  0
 10 15  1  0
 10 11  1  6
 12 11  1  0
 12 13  1  0
 13 14  2  0
 15 16  2  0
 15 21  1  0
 17 13  1  0
 18 19  1  0
 20 19  1  1
 20 22  1  0
 21 20  1  0
 22 23  2  0
 22 24  1  0
M  END
$$$$
