DES.pdb
     RDKit          3D

 24 23  0  0  1  0  0  0  0  0999 V2000
   25.9249  -11.7460  -16.2375 N   0  0  0  0  0  0  0  0  0  0  0  0
   26.0061  -10.2985  -16.2148 C   0  0  1  0  0  0  0  0  0  0  0  0
   26.9896   -9.8567  -17.2469 C   0  0  0  0  0  0  0  0  0  0  0  0
   28.3252  -10.3549  -16.9129 C   0  0  0  0  0  0  0  0  0  0  0  0
   28.7373  -11.4312  -17.4100 O   0  0  0  0  0  0  0  0  0  0  0  0
   24.6766   -9.6701  -16.5186 C   0  0  0  0  0  0  0  0  0  0  0  0
   23.8952  -10.3627  -17.1732 O   0  0  0  0  0  0  0  0  0  0  0  0
   29.1488   -9.6305  -16.0359 O   0  0  0  0  0  0  0  0  0  0  0  0
   24.3120   -8.4023  -16.1109 N   0  0  0  0  0  0  0  0  0  0  0  0
   23.0760   -7.7707  -16.2709 C   0  0  1  0  0  0  0  0  0  0  0  0
   21.8375   -8.3961  -15.7048 C   0  0  0  0  0  0  0  0  0  0  0  0
   20.6304   -7.5665  -16.0042 C   0  0  0  0  0  0  0  0  0  0  0  0
   19.3806   -8.1885  -15.4332 C   0  0  0  0  0  0  0  0  0  0  0  0
   18.5047   -7.4161  -14.9796 O   0  0  0  0  0  0  0  0  0  0  0  0
   23.1828   -6.3266  -16.0844 C   0  0  0  0  0  0  0  0  0  0  0  0
   23.5343   -5.8851  -14.9585 O   0  0  0  0  0  0  0  0  0  0  0  0
   19.1721   -9.5401  -15.3931 O   0  0  0  0  0  0  0  0  0  0  0  0
   22.2467   -3.6391  -18.9874 O   0  0  0  0  0  0  0  0  0  0  0  0
   23.2034   -3.1242  -18.1027 C   0  0  0  0  0  0  0  0  0  0  0  0
   23.0974   -3.9205  -16.8221 C   0  0  2  0  0  0  0  0  0  0  0  0
   22.9233   -5.3326  -17.0734 N   0  0  0  0  0  0  0  0  0  0  0  0
   21.9497   -3.3752  -16.0597 C   0  0  0  0  0  0  0  0  0  0  0  0
   20.8658   -4.0008  -16.0895 O   0  0  0  0  0  0  0  0  0  0  0  0
   22.0415   -2.2059  -15.3231 O   0  0  0  0  0  0  0  0  0  0  0  0
  2  1  1  6
  3  4  1  0
  3  2  1  0
  4  8  1  0
  5  4  2  0
  6  2  1  0
  6  7  2  0
  9 10  1  0
  9  6  1  0
 10 15  1  0
 10 11  1  1
 12 11  1  0
 12 13  1  0
 13 14  2  0
 15 16  2  0
 15 21  1  0
 17 13  1  0
 18 19  1  0
 20 19  1  6
 20 22  1  0
 21 20  1  0
 22 23  2  0
 22 24  1  0
M  END
$$$$
