DRS.pdb
     RDKit          3D

 26 25  0  0  1  0  0  0  0  0999 V2000
   15.6989  -19.0054   21.0625 N   0  0  0  0  0  0  0  0  0  0  0  0
   15.8381  -18.7731   22.4712 C   0  0  1  0  0  0  0  0  0  0  0  0
   16.1087  -17.3114   22.7326 C   0  0  0  0  0  0  0  0  0  0  0  0
   17.4222  -16.8896   22.2055 C   0  0  0  0  0  0  0  0  0  0  0  0
   17.8626  -15.7324   22.4318 O   0  0  0  0  0  0  0  0  0  0  0  0
   14.6138  -19.1516   23.2056 C   0  0  0  0  0  0  0  0  0  0  0  0
   13.9525  -18.2425   23.7468 O   0  0  0  0  0  0  0  0  0  0  0  0
   18.1876  -17.7527   21.4564 O   0  0  0  0  0  0  0  0  0  0  0  0
   13.7304  -24.0659   19.6639 N   0  0  0  0  0  0  0  0  0  0  0  0
   13.5550  -24.7729   20.8941 C   0  0  0  0  0  0  0  0  0  0  0  0
   14.3829  -25.6971   21.2164 N   0  0  0  0  0  0  0  0  0  0  0  0
   12.4861  -24.4640   21.7574 N   0  0  0  0  0  0  0  0  0  0  0  0
   11.5183  -23.4171   21.4227 C   0  0  0  0  0  0  0  0  0  0  0  0
   12.1055  -22.1193   21.9217 C   0  0  0  0  0  0  0  0  0  0  0  0
   12.2735  -22.0992   23.4187 C   0  0  0  0  0  0  0  0  0  0  0  0
   12.9426  -20.8910   23.9223 C   0  0  2  0  0  0  0  0  0  0  0  0
   14.1723  -20.4900   23.3150 N   0  0  0  0  0  0  0  0  0  0  0  0
   13.0461  -20.8662   25.4296 C   0  0  0  0  0  0  0  0  0  0  0  0
   13.9963  -21.4551   26.0276 O   0  0  0  0  0  0  0  0  0  0  0  0
   14.3241  -26.1976   22.1513 O   0  0  0  0  0  0  0  0  0  0  0  0
   11.7948  -17.8179   27.8127 C   0  0  0  0  0  0  0  0  0  0  0  0
   11.3510  -19.0548   28.2822 C   0  0  2  0  0  0  0  0  0  0  0  0
   12.1655  -20.1893   27.7050 N   0  0  0  0  0  0  0  0  0  0  0  0
   12.1132  -20.2008   26.2524 C   0  0  0  0  0  0  0  0  0  0  0  0
   11.8251  -21.5028   28.2785 O   0  0  0  0  0  0  0  0  0  0  0  0
   11.4388  -22.4215   27.5333 O   0  0  0  0  0  0  0  0  0  0  0  0
  2  1  1  6
  2  3  1  0
  3  4  1  0
  4  8  1  0
  5  4  2  0
  6 17  1  0
  6  2  1  0
  7  6  2  0
  9 10  1  0
 10 11  2  0
 10 12  1  0
 12 13  1  0
 14 13  1  0
 16 15  1  6
 15 14  1  0
 16 17  1  0
 18 16  1  0
 19 18  2  0
 20 21  1  0
 22 21  1  6
 22 24  1  0
 22 23  1  0
 23 18  1  0
 24 26  1  0
 25 24  2  0
M  END
$$$$
