DRS.pdb
     RDKit          3D

 26 25  0  0  1  0  0  0  0  0999 V2000
   11.5849  -16.2580   18.9030 N   0  0  0  0  0  0  0  0  0  0  0  0
   12.5248  -15.7992   19.8849 C   0  0  1  0  0  0  0  0  0  0  0  0
   13.1089  -14.4723   19.4648 C   0  0  0  0  0  0  0  0  0  0  0  0
   14.0152  -14.6090   18.3070 C   0  0  0  0  0  0  0  0  0  0  0  0
   14.2089  -15.7322   17.7729 O   0  0  0  0  0  0  0  0  0  0  0  0
   11.8856  -15.6221   21.2046 C   0  0  0  0  0  0  0  0  0  0  0  0
   12.6043  -15.2600   22.1579 O   0  0  0  0  0  0  0  0  0  0  0  0
   14.6656  -13.5119   17.7918 O   0  0  0  0  0  0  0  0  0  0  0  0
    8.5960  -14.7808   17.5767 N   0  0  0  0  0  0  0  0  0  0  0  0
    8.0744  -13.6321   18.2494 C   0  0  0  0  0  0  0  0  0  0  0  0
    7.8753  -12.5499   17.5917 N   0  0  0  0  0  0  0  0  0  0  0  0
    7.7737  -13.6762   19.6245 N   0  0  0  0  0  0  0  0  0  0  0  0
    8.8183  -13.9154   20.6226 C   0  0  0  0  0  0  0  0  0  0  0  0
    8.1177  -14.0183   21.9556 C   0  0  0  0  0  0  0  0  0  0  0  0
    8.4168  -15.3122   22.6669 C   0  0  0  0  0  0  0  0  0  0  0  0
    9.8433  -15.6669   22.6739 C   0  0  2  0  0  0  0  0  0  0  0  0
   10.5068  -15.8462   21.4212 N   0  0  0  0  0  0  0  0  0  0  0  0
   10.1589  -16.7986   23.6242 C   0  0  0  0  0  0  0  0  0  0  0  0
   10.0954  -18.0062   23.2437 O   0  0  0  0  0  0  0  0  0  0  0  0
    7.5338  -11.6633   18.0665 O   0  0  0  0  0  0  0  0  0  0  0  0
   10.7304  -16.2032   27.8039 C   0  0  0  0  0  0  0  0  0  0  0  0
   11.5479  -17.1176   27.1385 C   0  0  1  0  0  0  0  0  0  0  0  0
   10.8773  -17.6558   25.8959 N   0  0  0  0  0  0  0  0  0  0  0  0
   10.5369  -16.5905   24.9673 C   0  0  0  0  0  0  0  0  0  0  0  0
    9.7227  -18.5237   26.1851 O   0  0  0  0  0  0  0  0  0  0  0  0
    8.6048  -18.2421   25.7166 O   0  0  0  0  0  0  0  0  0  0  0  0
  2  1  1  6
  2  3  1  0
  3  4  1  0
  4  8  1  0
  5  4  2  0
  6 17  1  0
  6  2  1  0
  7  6  2  0
  9 10  1  0
 10 11  2  0
 10 12  1  0
 12 13  1  0
 14 13  1  0
 16 15  1  6
 15 14  1  0
 16 17  1  0
 18 16  1  0
 19 18  2  0
 20 21  1  0
 22 21  1  6
 22 24  1  0
 22 23  1  0
 23 18  1  0
 24 26  1  0
 25 24  2  0
M  END
$$$$
