DRS.pdb
     RDKit          3D

 26 25  0  0  1  0  0  0  0  0999 V2000
    4.8866  -19.2189   22.0947 N   0  0  0  0  0  0  0  0  0  0  0  0
    5.9684  -19.5587   22.9734 C   0  0  1  0  0  0  0  0  0  0  0  0
    6.1052  -21.0585   23.0731 C   0  0  0  0  0  0  0  0  0  0  0  0
    4.8139  -21.7460   22.8714 C   0  0  0  0  0  0  0  0  0  0  0  0
    4.7524  -23.0031   22.8523 O   0  0  0  0  0  0  0  0  0  0  0  0
    7.2519  -19.0121   22.4881 C   0  0  0  0  0  0  0  0  0  0  0  0
    8.3009  -19.5970   22.8256 O   0  0  0  0  0  0  0  0  0  0  0  0
    3.6549  -21.0255   22.6990 O   0  0  0  0  0  0  0  0  0  0  0  0
    7.3062  -14.0429   17.4193 N   0  0  0  0  0  0  0  0  0  0  0  0
    7.8064  -13.2292   18.4831 C   0  0  0  0  0  0  0  0  0  0  0  0
    7.1448  -12.1957   18.8539 N   0  0  0  0  0  0  0  0  0  0  0  0
    9.0150  -13.5511   19.1304 N   0  0  0  0  0  0  0  0  0  0  0  0
    9.8193  -14.7000   18.7087 C   0  0  0  0  0  0  0  0  0  0  0  0
    9.8674  -15.6415   19.8875 C   0  0  0  0  0  0  0  0  0  0  0  0
    8.5154  -16.2141   20.2248 C   0  0  0  0  0  0  0  0  0  0  0  0
    8.5471  -17.2043   21.3108 C   0  0  2  0  0  0  0  0  0  0  0  0
    7.3309  -17.8647   21.6662 N   0  0  0  0  0  0  0  0  0  0  0  0
    9.2728  -16.7024   22.5375 C   0  0  0  0  0  0  0  0  0  0  0  0
    8.7385  -15.8486   23.3073 O   0  0  0  0  0  0  0  0  0  0  0  0
    7.5067  -11.5433   19.6099 O   0  0  0  0  0  0  0  0  0  0  0  0
   11.6984  -18.7322   25.0115 C   0  0  0  0  0  0  0  0  0  0  0  0
   11.2350  -17.4358   25.2394 C   0  0  1  0  0  0  0  0  0  0  0  0
   11.3400  -16.5850   23.9950 N   0  0  0  0  0  0  0  0  0  0  0  0
   10.5638  -17.1414   22.8991 C   0  0  0  0  0  0  0  0  0  0  0  0
   12.7298  -16.3019   23.5970 O   0  0  0  0  0  0  0  0  0  0  0  0
   13.4923  -15.7166   24.3872 O   0  0  0  0  0  0  0  0  0  0  0  0
  2  1  1  6
  2  3  1  0
  3  4  1  0
  4  8  1  0
  5  4  2  0
  6 17  1  0
  6  2  1  0
  7  6  2  0
  9 10  1  0
 10 11  2  0
 10 12  1  0
 12 13  1  0
 14 13  1  0
 16 15  1  6
 15 14  1  0
 16 17  1  0
 18 16  1  0
 19 18  2  0
 20 21  1  0
 22 21  1  1
 22 24  1  0
 22 23  1  0
 23 18  1  0
 24 26  1  0
 25 24  2  0
M  END
$$$$
