DRS.pdb
     RDKit          3D

 26 25  0  0  1  0  0  0  0  0999 V2000
   12.4544  -15.7721   18.3423 N   0  0  0  0  0  0  0  0  0  0  0  0
   13.3170  -15.5504   19.4668 C   0  0  1  0  0  0  0  0  0  0  0  0
   14.1774  -14.3332   19.2295 C   0  0  0  0  0  0  0  0  0  0  0  0
   14.9971  -14.4651   18.0082 C   0  0  0  0  0  0  0  0  0  0  0  0
   15.4072  -15.5933   17.6296 O   0  0  0  0  0  0  0  0  0  0  0  0
   12.5447  -15.3318   20.7066 C   0  0  0  0  0  0  0  0  0  0  0  0
   13.1744  -15.0415   21.7437 O   0  0  0  0  0  0  0  0  0  0  0  0
   15.3290  -13.3577   17.2630 O   0  0  0  0  0  0  0  0  0  0  0  0
    8.5366  -12.2262   18.0995 N   0  0  0  0  0  0  0  0  0  0  0  0
    7.9639  -13.5353   18.1461 C   0  0  0  0  0  0  0  0  0  0  0  0
    8.0149  -14.2855   17.1079 N   0  0  0  0  0  0  0  0  0  0  0  0
    7.3475  -14.0116   19.3194 N   0  0  0  0  0  0  0  0  0  0  0  0
    7.4502  -13.2776   20.5824 C   0  0  0  0  0  0  0  0  0  0  0  0
    8.8462  -13.5195   21.1030 C   0  0  0  0  0  0  0  0  0  0  0  0
    8.9717  -14.8324   21.8310 C   0  0  0  0  0  0  0  0  0  0  0  0
   10.3558  -15.3137   21.9477 C   0  0  2  0  0  0  0  0  0  0  0  0
   11.1360  -15.4392   20.7574 N   0  0  0  0  0  0  0  0  0  0  0  0
   10.4735  -16.5498   22.8088 C   0  0  0  0  0  0  0  0  0  0  0  0
   10.4838  -17.7068   22.2906 O   0  0  0  0  0  0  0  0  0  0  0  0
    7.5847  -15.2565   17.0995 O   0  0  0  0  0  0  0  0  0  0  0  0
   12.6302  -19.2614   25.5244 C   0  0  0  0  0  0  0  0  0  0  0  0
   12.3105  -18.1532   24.7389 C   0  0  2  0  0  0  0  0  0  0  0  0
   10.9254  -17.6360   25.0510 N   0  0  0  0  0  0  0  0  0  0  0  0
   10.5775  -16.4991   24.2148 C   0  0  0  0  0  0  0  0  0  0  0  0
   10.7171  -17.3515   26.4813 O   0  0  0  0  0  0  0  0  0  0  0  0
   10.3888  -16.2069   26.8427 O   0  0  0  0  0  0  0  0  0  0  0  0
  2  1  1  6
  2  3  1  0
  3  4  1  0
  4  8  1  0
  5  4  2  0
  6 17  1  0
  6  2  1  0
  7  6  2  0
  9 10  1  0
 10 11  2  0
 10 12  1  0
 12 13  1  0
 14 13  1  0
 16 15  1  6
 15 14  1  0
 16 17  1  0
 18 16  1  0
 19 18  2  0
 20 21  1  0
 22 21  1  6
 22 24  1  0
 22 23  1  0
 23 18  1  0
 24 26  1  0
 25 24  2  0
M  END
$$$$
