DRS.pdb
     RDKit          3D

 26 25  0  0  1  0  0  0  0  0999 V2000
   11.1832  -19.2145   19.8901 N   0  0  0  0  0  0  0  0  0  0  0  0
   12.3937  -19.2619   19.1219 C   0  0  1  0  0  0  0  0  0  0  0  0
   12.0815  -19.5766   17.6791 C   0  0  0  0  0  0  0  0  0  0  0  0
   11.1633  -20.7261   17.5502 C   0  0  0  0  0  0  0  0  0  0  0  0
   11.2647  -21.7175   18.3191 O   0  0  0  0  0  0  0  0  0  0  0  0
   13.1129  -17.9725   19.1650 C   0  0  0  0  0  0  0  0  0  0  0  0
   14.1804  -17.8773   18.5265 O   0  0  0  0  0  0  0  0  0  0  0  0
   10.1817  -20.7353   16.5867 O   0  0  0  0  0  0  0  0  0  0  0  0
    8.0911  -13.1675   16.6212 N   0  0  0  0  0  0  0  0  0  0  0  0
    7.9554  -13.1771   18.0444 C   0  0  0  0  0  0  0  0  0  0  0  0
    6.8901  -12.7081   18.5815 N   0  0  0  0  0  0  0  0  0  0  0  0
    8.9760  -13.6984   18.8627 N   0  0  0  0  0  0  0  0  0  0  0  0
   10.3583  -13.7885   18.3876 C   0  0  0  0  0  0  0  0  0  0  0  0
   11.1798  -14.2728   19.5576 C   0  0  0  0  0  0  0  0  0  0  0  0
   12.6314  -14.4654   19.2037 C   0  0  0  0  0  0  0  0  0  0  0  0
   13.2720  -15.5776   19.9205 C   0  0  2  0  0  0  0  0  0  0  0  0
   12.6396  -16.8586   19.8953 N   0  0  0  0  0  0  0  0  0  0  0  0
   13.6900  -15.2041   21.3238 C   0  0  0  0  0  0  0  0  0  0  0  0
   13.1099  -14.2662   21.9490 O   0  0  0  0  0  0  0  0  0  0  0  0
    6.7255  -12.7573   19.6296 O   0  0  0  0  0  0  0  0  0  0  0  0
   14.0233  -17.5498   24.2416 C   0  0  0  0  0  0  0  0  0  0  0  0
   14.1074  -16.1626   24.3680 C   0  0  1  0  0  0  0  0  0  0  0  0
   15.1021  -15.5783   23.3920 N   0  0  0  0  0  0  0  0  0  0  0  0
   14.7300  -15.8601   22.0153 C   0  0  0  0  0  0  0  0  0  0  0  0
   16.4948  -15.9654   23.6760 O   0  0  0  0  0  0  0  0  0  0  0  0
   16.9933  -15.7097   24.7871 O   0  0  0  0  0  0  0  0  0  0  0  0
  2  1  1  1
  2  3  1  0
  3  4  1  0
  4  8  1  0
  5  4  2  0
  6 17  1  0
  6  2  1  0
  7  6  2  0
  9 10  1  0
 10 11  2  0
 10 12  1  0
 12 13  1  0
 14 13  1  0
 16 15  1  1
 15 14  1  0
 16 17  1  0
 18 16  1  0
 19 18  2  0
 20 21  1  0
 22 21  1  6
 22 24  1  0
 22 23  1  0
 23 18  1  0
 24 26  1  0
 25 24  2  0
M  END
$$$$
