DRS.pdb
     RDKit          3D

 26 25  0  0  1  0  0  0  0  0999 V2000
   13.0262  -16.4195   18.4004 N   0  0  0  0  0  0  0  0  0  0  0  0
   13.7135  -15.5895   19.3472 C   0  0  1  0  0  0  0  0  0  0  0  0
   14.1871  -14.3216   18.6791 C   0  0  0  0  0  0  0  0  0  0  0  0
   15.3178  -14.5691   17.7620 C   0  0  0  0  0  0  0  0  0  0  0  0
   16.0695  -15.5655   17.9245 O   0  0  0  0  0  0  0  0  0  0  0  0
   12.8365  -15.2140   20.4748 C   0  0  0  0  0  0  0  0  0  0  0  0
   13.3228  -14.5127   21.3847 O   0  0  0  0  0  0  0  0  0  0  0  0
   15.5714  -13.7145   16.7144 O   0  0  0  0  0  0  0  0  0  0  0  0
    8.3956  -12.4580   18.0344 N   0  0  0  0  0  0  0  0  0  0  0  0
    7.8923  -13.7799   17.8262 C   0  0  0  0  0  0  0  0  0  0  0  0
    7.9407  -14.2982   16.6547 N   0  0  0  0  0  0  0  0  0  0  0  0
    7.3472  -14.5204   18.8929 N   0  0  0  0  0  0  0  0  0  0  0  0
    7.3976  -14.0200   20.2682 C   0  0  0  0  0  0  0  0  0  0  0  0
    8.8509  -14.0401   20.6755 C   0  0  0  0  0  0  0  0  0  0  0  0
    9.2046  -15.2545   21.4938 C   0  0  0  0  0  0  0  0  0  0  0  0
   10.6497  -15.4272   21.7011 C   0  0  2  0  0  0  0  0  0  0  0  0
   11.4841  -15.6171   20.5569 N   0  0  0  0  0  0  0  0  0  0  0  0
   10.9682  -16.4353   22.7807 C   0  0  0  0  0  0  0  0  0  0  0  0
   11.2086  -17.6460   22.4917 O   0  0  0  0  0  0  0  0  0  0  0  0
    7.6082  -15.2896   16.4690 O   0  0  0  0  0  0  0  0  0  0  0  0
   11.7110  -17.2896   27.5668 C   0  0  0  0  0  0  0  0  0  0  0  0
   11.4133  -16.3749   26.5559 C   0  0  2  0  0  0  0  0  0  0  0  0
   11.2734  -17.0589   25.2157 N   0  0  0  0  0  0  0  0  0  0  0  0
   11.0184  -16.1030   24.1508 C   0  0  0  0  0  0  0  0  0  0  0  0
   10.2885  -18.1544   25.2196 O   0  0  0  0  0  0  0  0  0  0  0  0
    9.1323  -17.9478   24.8085 O   0  0  0  0  0  0  0  0  0  0  0  0
  2  1  1  6
  2  3  1  0
  3  4  1  0
  4  8  1  0
  5  4  2  0
  6 17  1  0
  6  2  1  0
  7  6  2  0
  9 10  1  0
 10 11  2  0
 10 12  1  0
 12 13  1  0
 14 13  1  0
 16 15  1  6
 15 14  1  0
 16 17  1  0
 18 16  1  0
 19 18  2  0
 20 21  1  0
 22 21  1  6
 22 24  1  0
 22 23  1  0
 23 18  1  0
 24 26  1  0
 25 24  2  0
M  END
$$$$
