ITC.pdb
     RDKit          3D

 22 21  0  0  1  0  0  0  0  0999 V2000
   25.6404  -12.4489  -20.1377 C   0  0  0  0  0  0  0  0  0  0  0  0
   26.6443  -12.5855  -19.0293 C   0  0  0  0  0  0  0  0  0  0  0  0
   27.9002  -11.8178  -19.2612 C   0  0  2  0  0  0  0  0  0  0  0  0
   28.9718  -12.7784  -19.7119 C   0  0  0  0  0  0  0  0  0  0  0  0
   28.2914  -11.0434  -18.0259 C   0  0  2  0  0  0  0  0  0  0  0  0
   27.2651  -10.0553  -17.7841 N   0  0  0  0  0  0  0  0  0  0  0  0
   29.5649  -10.2791  -18.2806 C   0  0  0  0  0  0  0  0  0  0  0  0
   30.6593  -10.8827  -18.4280 O   0  0  0  0  0  0  0  0  0  0  0  0
   31.8221   -6.1132  -19.3752 C   0  0  0  0  0  0  0  0  0  0  0  0
   30.4958   -6.8222  -19.1873 C   0  0  1  0  0  0  0  0  0  0  0  0
   29.8687   -7.0173  -20.3950 O   0  0  0  0  0  0  0  0  0  0  0  0
   30.8565   -8.2015  -18.6106 C   0  0  2  0  0  0  0  0  0  0  0  0
   29.5900   -8.8619  -18.3651 N   0  0  0  0  0  0  0  0  0  0  0  0
   31.5922   -7.9152  -17.3555 C   0  0  0  0  0  0  0  0  0  0  0  0
   30.9103   -7.5626  -16.3578 O   0  0  0  0  0  0  0  0  0  0  0  0
   32.9811   -8.0094  -17.2060 N   0  0  0  0  0  0  0  0  0  0  0  0
   33.5875   -7.6705  -15.9223 C   0  0  1  0  0  0  0  0  0  0  0  0
   34.5384   -8.8033  -15.5906 C   0  0  0  0  0  0  0  0  0  0  0  0
   35.5625   -8.4376  -14.1577 S   0  0  0  0  0  0  0  0  0  0  0  0
   34.2495   -6.3645  -15.9480 C   0  0  0  0  0  0  0  0  0  0  0  0
   34.8449   -5.9174  -17.1054 O   0  0  0  0  0  0  0  0  0  0  0  0
   34.2803   -5.6487  -14.9282 O   0  0  0  0  0  0  0  0  0  0  0  0
  2  1  1  0
  2  3  1  0
  3  4  1  1
  5  3  1  0
  5  7  1  0
  5  6  1  6
  7  8  2  0
 10  9  1  6
 10 12  1  0
 11 10  1  0
 12 13  1  1
 13  7  1  0
 14 12  1  0
 14 15  2  0
 16 14  1  0
 17 16  1  0
 17 20  1  0
 17 18  1  6
 19 18  1  0
 20 22  2  0
 20 21  1  0
M  END
$$$$
