ITC.pdb
     RDKit          3D

 22 21  0  0  1  0  0  0  0  0999 V2000
   22.9309  -15.2512  -17.8795 C   0  0  0  0  0  0  0  0  0  0  0  0
   22.6120  -14.4650  -16.6405 C   0  0  0  0  0  0  0  0  0  0  0  0
   23.1743  -13.0851  -16.6457 C   0  0  2  0  0  0  0  0  0  0  0  0
   24.6408  -13.1647  -16.3033 C   0  0  0  0  0  0  0  0  0  0  0  0
   22.4030  -12.1879  -15.7084 C   0  0  2  0  0  0  0  0  0  0  0  0
   21.0071  -12.5485  -15.8051 N   0  0  0  0  0  0  0  0  0  0  0  0
   22.5045  -10.7563  -16.1679 C   0  0  0  0  0  0  0  0  0  0  0  0
   23.6265  -10.2217  -16.3654 O   0  0  0  0  0  0  0  0  0  0  0  0
   20.8059   -9.0093  -19.0569 C   0  0  0  0  0  0  0  0  0  0  0  0
   20.4113   -8.2748  -17.7912 C   0  0  1  0  0  0  0  0  0  0  0  0
   19.2406   -8.7792  -17.2764 O   0  0  0  0  0  0  0  0  0  0  0  0
   21.5385   -8.5709  -16.7876 C   0  0  2  0  0  0  0  0  0  0  0  0
   21.3552   -9.9543  -16.3964 N   0  0  0  0  0  0  0  0  0  0  0  0
   21.3087   -7.6344  -15.6612 C   0  0  0  0  0  0  0  0  0  0  0  0
   21.1106   -8.1399  -14.5254 O   0  0  0  0  0  0  0  0  0  0  0  0
   21.2972   -6.2389  -15.7739 N   0  0  0  0  0  0  0  0  0  0  0  0
   21.1104   -5.4255  -14.5765 C   0  0  1  0  0  0  0  0  0  0  0  0
   22.2698   -5.7529  -13.6567 C   0  0  0  0  0  0  0  0  0  0  0  0
   22.3490   -4.6492  -12.2386 S   0  0  0  0  0  0  0  0  0  0  0  0
   21.0175   -3.9968  -14.8842 C   0  0  0  0  0  0  0  0  0  0  0  0
   20.2410   -3.1733  -14.1013 O   0  0  0  0  0  0  0  0  0  0  0  0
   21.6370   -3.5148  -15.8523 O   0  0  0  0  0  0  0  0  0  0  0  0
  2  1  1  0
  2  3  1  0
  3  4  1  1
  5  3  1  0
  5  7  1  0
  5  6  1  6
  7  8  2  0
 10  9  1  6
 10 12  1  0
 11 10  1  0
 12 13  1  1
 13  7  1  0
 14 12  1  0
 14 15  2  0
 16 14  1  0
 17 16  1  0
 17 20  1  0
 17 18  1  1
 19 18  1  0
 20 22  2  0
 20 21  1  0
M  END
$$$$
