ITC.pdb
     RDKit          3D

 22 21  0  0  1  0  0  0  0  0999 V2000
   25.2131  -15.2206  -18.2707 C   0  0  0  0  0  0  0  0  0  0  0  0
   25.3687  -14.0507  -17.3421 C   0  0  0  0  0  0  0  0  0  0  0  0
   24.4710  -12.9062  -17.6656 C   0  0  2  0  0  0  0  0  0  0  0  0
   24.6988  -12.5108  -19.1029 C   0  0  0  0  0  0  0  0  0  0  0  0
   24.6901  -11.7639  -16.7034 C   0  0  2  0  0  0  0  0  0  0  0  0
   24.4401  -12.2598  -15.3693 N   0  0  0  0  0  0  0  0  0  0  0  0
   23.6721  -10.6809  -16.9514 C   0  0  0  0  0  0  0  0  0  0  0  0
   23.7431   -9.9530  -17.9756 O   0  0  0  0  0  0  0  0  0  0  0  0
   20.0718  -10.9734  -17.3109 C   0  0  0  0  0  0  0  0  0  0  0  0
   20.2613  -10.0115  -16.1550 C   0  0  1  0  0  0  0  0  0  0  0  0
   20.2832  -10.6839  -14.9562 O   0  0  0  0  0  0  0  0  0  0  0  0
   21.6497   -9.3878  -16.3757 C   0  0  2  0  0  0  0  0  0  0  0  0
   22.5997  -10.4339  -16.0539 N   0  0  0  0  0  0  0  0  0  0  0  0
   21.7198   -8.2541  -15.4227 C   0  0  0  0  0  0  0  0  0  0  0  0
   22.5853   -8.3228  -14.5110 O   0  0  0  0  0  0  0  0  0  0  0  0
   20.8964   -7.1225  -15.4674 N   0  0  0  0  0  0  0  0  0  0  0  0
   21.1101   -6.0434  -14.5082 C   0  0  1  0  0  0  0  0  0  0  0  0
   22.5122   -5.5250  -14.7589 C   0  0  0  0  0  0  0  0  0  0  0  0
   22.8448   -3.9978  -13.8686 S   0  0  0  0  0  0  0  0  0  0  0  0
   20.0918   -4.9963  -14.6139 C   0  0  0  0  0  0  0  0  0  0  0  0
   19.5167   -4.7162  -15.8324 O   0  0  0  0  0  0  0  0  0  0  0  0
   19.7376   -4.3519  -13.6076 O   0  0  0  0  0  0  0  0  0  0  0  0
  2  1  1  0
  2  3  1  0
  3  4  1  6
  5  3  1  0
  5  7  1  0
  5  6  1  1
  7  8  2  0
 10  9  1  6
 10 12  1  0
 11 10  1  0
 12 13  1  1
 13  7  1  0
 14 12  1  0
 14 15  2  0
 16 14  1  0
 17 16  1  0
 17 20  1  0
 17 18  1  6
 19 18  1  0
 20 22  2  0
 20 21  1  0
M  END
$$$$
