ITC.pdb
     RDKit          3D

 22 21  0  0  1  0  0  0  0  0999 V2000
   23.4686  -17.8859  -16.2082 C   0  0  0  0  0  0  0  0  0  0  0  0
   22.0931  -17.6648  -15.6477 C   0  0  0  0  0  0  0  0  0  0  0  0
   21.3033  -18.9182  -15.4877 C   0  0  2  0  0  0  0  0  0  0  0  0
   21.2522  -19.6248  -16.8190 C   0  0  0  0  0  0  0  0  0  0  0  0
   19.9322  -18.6209  -14.9307 C   0  0  2  0  0  0  0  0  0  0  0  0
   20.1094  -17.9606  -13.6576 N   0  0  0  0  0  0  0  0  0  0  0  0
   19.2041  -19.9086  -14.6433 C   0  0  0  0  0  0  0  0  0  0  0  0
   18.9030  -20.6995  -15.5747 O   0  0  0  0  0  0  0  0  0  0  0  0
   19.7049  -22.0011  -11.2580 C   0  0  0  0  0  0  0  0  0  0  0  0
   18.2407  -21.8141  -11.6023 C   0  0  1  0  0  0  0  0  0  0  0  0
   17.7327  -20.6926  -10.9908 O   0  0  0  0  0  0  0  0  0  0  0  0
   18.2127  -21.5809  -13.1222 C   0  0  2  0  0  0  0  0  0  0  0  0
   18.8288  -20.2852  -13.3266 N   0  0  0  0  0  0  0  0  0  0  0  0
   16.7754  -21.5822  -13.4867 C   0  0  0  0  0  0  0  0  0  0  0  0
   16.1700  -20.4794  -13.4400 O   0  0  0  0  0  0  0  0  0  0  0  0
   16.0523  -22.7163  -13.8759 N   0  0  0  0  0  0  0  0  0  0  0  0
   14.6423  -22.5805  -14.2272 C   0  0  1  0  0  0  0  0  0  0  0  0
   14.4628  -23.3035  -15.5472 C   0  0  0  0  0  0  0  0  0  0  0  0
   14.6070  -22.1961  -16.9574 S   0  0  0  0  0  0  0  0  0  0  0  0
   13.7566  -23.0893  -13.1778 C   0  0  0  0  0  0  0  0  0  0  0  0
   12.6307  -22.3813  -12.8243 O   0  0  0  0  0  0  0  0  0  0  0  0
   14.0119  -24.1623  -12.5974 O   0  0  0  0  0  0  0  0  0  0  0  0
  2  1  1  0
  2  3  1  0
  3  4  1  6
  5  3  1  0
  5  7  1  0
  5  6  1  1
  7  8  2  0
 10  9  1  1
 10 12  1  0
 11 10  1  0
 12 13  1  1
 13  7  1  0
 14 12  1  0
 14 15  2  0
 16 14  1  0
 17 16  1  0
 17 20  1  0
 17 18  1  6
 19 18  1  0
 20 22  2  0
 20 21  1  0
M  END
$$$$
