ITC.pdb
     RDKit          3D

 22 21  0  0  1  0  0  0  0  0999 V2000
   25.6617  -16.4212  -16.2480 C   0  0  0  0  0  0  0  0  0  0  0  0
   25.9159  -15.0323  -15.7369 C   0  0  0  0  0  0  0  0  0  0  0  0
   25.0680  -13.9918  -16.3840 C   0  0  2  0  0  0  0  0  0  0  0  0
   25.2259  -14.1079  -17.8792 C   0  0  0  0  0  0  0  0  0  0  0  0
   25.4150  -12.6176  -15.8645 C   0  0  2  0  0  0  0  0  0  0  0  0
   25.2620  -12.6400  -14.4278 N   0  0  0  0  0  0  0  0  0  0  0  0
   24.4233  -11.6075  -16.3814 C   0  0  0  0  0  0  0  0  0  0  0  0
   24.5484  -11.1132  -17.5319 O   0  0  0  0  0  0  0  0  0  0  0  0
   21.1053  -11.8659  -17.2821 C   0  0  0  0  0  0  0  0  0  0  0  0
   21.0359  -10.8242  -16.1834 C   0  0  1  0  0  0  0  0  0  0  0  0
   20.8243  -11.4151  -14.9603 O   0  0  0  0  0  0  0  0  0  0  0  0
   22.4280  -10.1710  -16.1614 C   0  0  2  0  0  0  0  0  0  0  0  0
   23.3167  -11.1718  -15.6056 N   0  0  0  0  0  0  0  0  0  0  0  0
   22.2872   -8.9912  -15.2743 C   0  0  0  0  0  0  0  0  0  0  0  0
   23.1064   -8.8861  -14.3242 O   0  0  0  0  0  0  0  0  0  0  0  0
   21.3140   -7.9953  -15.4201 N   0  0  0  0  0  0  0  0  0  0  0  0
   21.3892   -6.7944  -14.5939 C   0  0  1  0  0  0  0  0  0  0  0  0
   22.6613   -6.0784  -15.0019 C   0  0  0  0  0  0  0  0  0  0  0  0
   22.8317   -4.4780  -14.1984 S   0  0  0  0  0  0  0  0  0  0  0  0
   20.1981   -5.9530  -14.7269 C   0  0  0  0  0  0  0  0  0  0  0  0
   19.7371   -5.2370  -13.6458 O   0  0  0  0  0  0  0  0  0  0  0  0
   19.5931   -5.8770  -15.8139 O   0  0  0  0  0  0  0  0  0  0  0  0
  2  1  1  0
  2  3  1  0
  3  4  1  6
  5  3  1  0
  5  7  1  0
  5  6  1  1
  7  8  2  0
 10  9  1  6
 10 12  1  0
 11 10  1  0
 12 13  1  1
 13  7  1  0
 14 12  1  0
 14 15  2  0
 16 14  1  0
 17 16  1  0
 17 20  1  0
 17 18  1  6
 19 18  1  0
 20 22  2  0
 20 21  1  0
M  END
$$$$
