ITC.pdb
     RDKit          3D

 22 21  0  0  1  0  0  0  0  0999 V2000
   26.0049  -14.2297  -15.8590 C   0  0  0  0  0  0  0  0  0  0  0  0
   24.6339  -13.7533  -16.2440 C   0  0  0  0  0  0  0  0  0  0  0  0
   24.5190  -12.2704  -16.3342 C   0  0  2  0  0  0  0  0  0  0  0  0
   24.8906  -11.6795  -14.9974 C   0  0  0  0  0  0  0  0  0  0  0  0
   23.1373  -11.8660  -16.7882 C   0  0  2  0  0  0  0  0  0  0  0  0
   22.8990  -12.4838  -18.0725 N   0  0  0  0  0  0  0  0  0  0  0  0
   23.0870  -10.3774  -17.0172 C   0  0  0  0  0  0  0  0  0  0  0  0
   24.0724   -9.7680  -17.5084 O   0  0  0  0  0  0  0  0  0  0  0  0
   21.5034   -8.5799  -19.3172 C   0  0  0  0  0  0  0  0  0  0  0  0
   20.9091   -7.9593  -18.0687 C   0  0  1  0  0  0  0  0  0  0  0  0
   19.7605   -8.6153  -17.6941 O   0  0  0  0  0  0  0  0  0  0  0  0
   21.9626   -8.1804  -16.9703 C   0  0  2  0  0  0  0  0  0  0  0  0
   21.9415   -9.6029  -16.6941 N   0  0  0  0  0  0  0  0  0  0  0  0
   21.4914   -7.3780  -15.8159 C   0  0  0  0  0  0  0  0  0  0  0  0
   21.2931   -7.9900  -14.7337 O   0  0  0  0  0  0  0  0  0  0  0  0
   21.2540   -5.9985  -15.8472 N   0  0  0  0  0  0  0  0  0  0  0  0
   20.8116   -5.3204  -14.6328 C   0  0  1  0  0  0  0  0  0  0  0  0
   21.8871   -5.5676  -13.5937 C   0  0  0  0  0  0  0  0  0  0  0  0
   23.3960   -4.6522  -13.9418 S   0  0  0  0  0  0  0  0  0  0  0  0
   20.5545   -3.8958  -14.8540 C   0  0  0  0  0  0  0  0  0  0  0  0
   20.8181   -3.3314  -16.0812 O   0  0  0  0  0  0  0  0  0  0  0  0
   20.0971   -3.1841  -13.9388 O   0  0  0  0  0  0  0  0  0  0  0  0
  2  1  1  0
  2  3  1  0
  3  4  1  1
  5  3  1  0
  5  7  1  0
  5  6  1  6
  7  8  2  0
 10  9  1  6
 10 12  1  0
 11 10  1  0
 12 13  1  1
 13  7  1  0
 14 12  1  0
 14 15  2  0
 16 14  1  0
 17 16  1  0
 17 20  1  0
 17 18  1  1
 19 18  1  0
 20 22  2  0
 20 21  1  0
M  END
$$$$
