FHL.pdb
     RDKit          3D

 30 31  0  0  1  0  0  0  0  0999 V2000
   28.4076  -21.4891  -11.0331 N   0  0  0  0  0  0  0  0  0  0  0  0
   27.0663  -21.1538  -10.5930 C   0  0  1  0  0  0  0  0  0  0  0  0
   27.1517  -19.8555   -9.8390 C   0  0  0  0  0  0  0  0  0  0  0  0
   27.6639  -20.0035   -8.4717 C   0  0  0  0  0  0  0  0  0  0  0  0
   28.9981  -19.9324   -8.1269 C   0  0  0  0  0  0  0  0  0  0  0  0
   29.3723  -20.0857   -6.8095 C   0  0  0  0  0  0  0  0  0  0  0  0
   28.4721  -20.3116   -5.7891 C   0  0  0  0  0  0  0  0  0  0  0  0
   27.1322  -20.3825   -6.1386 C   0  0  0  0  0  0  0  0  0  0  0  0
   26.7509  -20.2297   -7.4565 C   0  0  0  0  0  0  0  0  0  0  0  0
   26.2149  -20.8914  -11.8077 C   0  0  0  0  0  0  0  0  0  0  0  0
   26.6810  -20.1986  -12.7689 O   0  0  0  0  0  0  0  0  0  0  0  0
   24.9075  -21.3849  -11.9299 N   0  0  0  0  0  0  0  0  0  0  0  0
   24.0897  -21.2803  -13.1011 C   0  0  1  0  0  0  0  0  0  0  0  0
   23.7797  -22.5842  -13.7354 C   0  0  0  0  0  0  0  0  0  0  0  0
   24.8749  -23.2147  -14.4883 C   0  0  0  0  0  0  0  0  0  0  0  0
   26.1352  -22.7419  -14.7296 C   0  0  0  0  0  0  0  0  0  0  0  0
   26.8328  -23.6261  -15.4903 N   0  0  0  0  0  0  0  0  0  0  0  0
   26.0135  -24.6359  -15.7184 C   0  0  0  0  0  0  0  0  0  0  0  0
   24.8305  -24.4192  -15.1305 N   0  0  0  0  0  0  0  0  0  0  0  0
   22.8056  -20.5380  -12.7675 C   0  0  0  0  0  0  0  0  0  0  0  0
   22.2937  -20.6225  -11.6200 O   0  0  0  0  0  0  0  0  0  0  0  0
   19.4325  -16.2644  -13.1722 C   0  0  0  0  0  0  0  0  0  0  0  0
   19.7893  -16.9435  -14.4778 C   0  0  2  0  0  0  0  0  0  0  0  0
   18.6108  -17.4311  -15.2610 C   0  0  0  0  0  0  0  0  0  0  0  0
   20.9585  -17.8453  -14.4064 C   0  0  0  0  0  0  0  0  0  0  0  0
   20.9267  -18.9991  -13.4824 C   0  0  2  0  0  0  0  0  0  0  0  0
   22.1838  -19.7484  -13.7517 N   0  0  0  0  0  0  0  0  0  0  0  0
   19.7770  -19.9194  -13.6331 C   0  0  0  0  0  0  0  0  0  0  0  0
   19.7976  -20.8050  -14.5444 O   0  0  0  0  0  0  0  0  0  0  0  0
   18.6411  -19.9084  -12.8444 O   0  0  0  0  0  0  0  0  0  0  0  0
  2  1  1  6
  2  3  1  0
  2 10  1  0
  3  4  1  0
  4  9  1  0
  5  4  2  0
  5  6  1  0
  6  7  2  0
  7  8  1  0
  9  8  2  0
 10 12  1  0
 10 11  2  0
 12 13  1  0
 13 20  1  0
 13 14  1  1
 14 15  1  0
 15 16  2  0
 16 17  1  0
 18 17  1  0
 19 15  1  0
 19 18  2  0
 20 21  2  0
 23 22  1  1
 23 24  1  0
 23 25  1  0
 26 25  1  6
 26 28  1  0
 27 20  1  0
 27 26  1  0
 28 29  2  0
 28 30  1  0
M  END
$$$$
