FHL.pdb
     RDKit          3D

 30 31  0  0  1  0  0  0  0  0999 V2000
   28.9218  -21.2026   -8.8104 N   0  0  0  0  0  0  0  0  0  0  0  0
   27.5198  -20.8291   -8.8122 C   0  0  1  0  0  0  0  0  0  0  0  0
   27.4126  -19.4809   -8.1547 C   0  0  0  0  0  0  0  0  0  0  0  0
   27.8022  -19.4856   -6.7397 C   0  0  0  0  0  0  0  0  0  0  0  0
   26.9459  -19.7711   -5.6961 C   0  0  0  0  0  0  0  0  0  0  0  0
   27.4158  -19.7474   -4.4009 C   0  0  0  0  0  0  0  0  0  0  0  0
   28.7225  -19.4482   -4.0759 C   0  0  0  0  0  0  0  0  0  0  0  0
   29.5806  -19.1617   -5.1266 C   0  0  0  0  0  0  0  0  0  0  0  0
   29.1160  -19.1838   -6.4264 C   0  0  0  0  0  0  0  0  0  0  0  0
   27.0738  -20.6488  -10.2398 C   0  0  0  0  0  0  0  0  0  0  0  0
   27.9342  -20.3991  -11.1444 O   0  0  0  0  0  0  0  0  0  0  0  0
   25.7282  -20.7454  -10.6246 N   0  0  0  0  0  0  0  0  0  0  0  0
   25.2652  -21.0848  -11.9368 C   0  0  1  0  0  0  0  0  0  0  0  0
   25.7335  -22.4079  -12.4151 C   0  0  0  0  0  0  0  0  0  0  0  0
   25.3291  -22.7838  -13.7785 C   0  0  0  0  0  0  0  0  0  0  0  0
   24.4847  -23.7817  -14.1800 C   0  0  0  0  0  0  0  0  0  0  0  0
   24.3978  -23.8089  -15.5360 N   0  0  0  0  0  0  0  0  0  0  0  0
   25.1804  -22.8384  -15.9704 C   0  0  0  0  0  0  0  0  0  0  0  0
   25.7537  -22.2045  -14.9402 N   0  0  0  0  0  0  0  0  0  0  0  0
   23.7472  -21.0155  -11.9809 C   0  0  0  0  0  0  0  0  0  0  0  0
   23.0549  -21.4744  -11.0342 O   0  0  0  0  0  0  0  0  0  0  0  0
   19.6437  -17.7098  -12.4117 C   0  0  0  0  0  0  0  0  0  0  0  0
   20.2757  -18.0492  -13.7453 C   0  0  2  0  0  0  0  0  0  0  0  0
   19.3166  -18.5790  -14.7648 C   0  0  0  0  0  0  0  0  0  0  0  0
   21.5878  -18.7239  -13.6539 C   0  0  0  0  0  0  0  0  0  0  0  0
   21.6638  -20.0826  -13.0758 C   0  0  2  0  0  0  0  0  0  0  0  0
   23.1103  -20.4319  -13.0910 N   0  0  0  0  0  0  0  0  0  0  0  0
   20.9077  -21.1352  -13.7912 C   0  0  0  0  0  0  0  0  0  0  0  0
   19.7588  -21.4784  -13.3699 O   0  0  0  0  0  0  0  0  0  0  0  0
   21.3483  -21.8033  -14.9189 O   0  0  0  0  0  0  0  0  0  0  0  0
  2  1  1  6
  2  3  1  0
  2 10  1  0
  3  4  1  0
  4  9  1  0
  5  4  2  0
  5  6  1  0
  6  7  2  0
  7  8  1  0
  9  8  2  0
 10 12  1  0
 10 11  2  0
 12 13  1  0
 13 20  1  0
 13 14  1  1
 14 15  1  0
 15 16  2  0
 16 17  1  0
 18 17  1  0
 19 15  1  0
 19 18  2  0
 20 21  2  0
 23 22  1  1
 23 24  1  0
 23 25  1  0
 26 25  1  6
 26 28  1  0
 27 20  1  0
 27 26  1  0
 28 29  2  0
 28 30  1  0
M  END
$$$$
