FHL.pdb
     RDKit          3D

 30 31  0  0  1  0  0  0  0  0999 V2000
   19.3879  -13.8303  -18.2230 N   0  0  0  0  0  0  0  0  0  0  0  0
   19.6342  -13.0075  -17.0536 C   0  0  1  0  0  0  0  0  0  0  0  0
   20.9971  -13.3672  -16.5295 C   0  0  0  0  0  0  0  0  0  0  0  0
   21.0661  -14.7133  -15.9490 C   0  0  0  0  0  0  0  0  0  0  0  0
   20.4697  -15.0815  -14.7604 C   0  0  0  0  0  0  0  0  0  0  0  0
   20.5970  -16.3756  -14.3044 C   0  0  0  0  0  0  0  0  0  0  0  0
   21.3017  -17.3498  -14.9804 C   0  0  0  0  0  0  0  0  0  0  0  0
   21.8998  -16.9770  -16.1745 C   0  0  0  0  0  0  0  0  0  0  0  0
   21.7760  -15.6821  -16.6367 C   0  0  0  0  0  0  0  0  0  0  0  0
   19.7061  -11.5668  -17.4877 C   0  0  0  0  0  0  0  0  0  0  0  0
   19.9163  -11.2849  -18.7114 O   0  0  0  0  0  0  0  0  0  0  0  0
   19.5489  -10.5021  -16.5880 N   0  0  0  0  0  0  0  0  0  0  0  0
   19.5152   -9.1153  -16.9449 C   0  0  1  0  0  0  0  0  0  0  0  0
   18.1546   -8.5263  -16.9373 C   0  0  0  0  0  0  0  0  0  0  0  0
   17.1888   -9.1150  -17.8777 C   0  0  0  0  0  0  0  0  0  0  0  0
   16.1343   -9.9462  -17.6185 C   0  0  0  0  0  0  0  0  0  0  0  0
   15.5036  -10.2824  -18.7744 N   0  0  0  0  0  0  0  0  0  0  0  0
   16.1604   -9.6664  -19.7399 C   0  0  0  0  0  0  0  0  0  0  0  0
   17.1773   -8.9577  -19.2344 N   0  0  0  0  0  0  0  0  0  0  0  0
   20.4366   -8.3257  -16.0290 C   0  0  0  0  0  0  0  0  0  0  0  0
   20.4936   -8.5829  -14.7975 O   0  0  0  0  0  0  0  0  0  0  0  0
   24.1067   -3.5216  -16.8024 C   0  0  0  0  0  0  0  0  0  0  0  0
   24.0375   -4.8419  -16.0642 C   0  0  2  0  0  0  0  0  0  0  0  0
   25.3696   -5.3949  -15.6644 C   0  0  0  0  0  0  0  0  0  0  0  0
   23.0551   -5.8035  -16.6076 C   0  0  0  0  0  0  0  0  0  0  0  0
   22.0569   -6.4084  -15.7001 C   0  0  2  0  0  0  0  0  0  0  0  0
   21.2336   -7.2975  -16.5640 N   0  0  0  0  0  0  0  0  0  0  0  0
   21.1635   -5.4618  -14.9950 C   0  0  0  0  0  0  0  0  0  0  0  0
   21.5363   -4.9495  -13.8933 O   0  0  0  0  0  0  0  0  0  0  0  0
   19.9158   -5.0647  -15.4399 O   0  0  0  0  0  0  0  0  0  0  0  0
  2  1  1  6
  2  3  1  0
  2 10  1  0
  3  4  1  0
  4  9  1  0
  5  4  2  0
  5  6  1  0
  6  7  2  0
  7  8  1  0
  9  8  2  0
 10 12  1  0
 10 11  2  0
 12 13  1  0
 13 20  1  0
 13 14  1  1
 14 15  1  0
 15 16  2  0
 16 17  1  0
 18 17  1  0
 19 15  1  0
 19 18  2  0
 20 21  2  0
 23 22  1  6
 23 24  1  0
 23 25  1  0
 26 25  1  6
 26 28  1  0
 27 20  1  0
 27 26  1  0
 28 29  2  0
 28 30  1  0
M  END
$$$$
