FHL.pdb
     RDKit          3D

 30 31  0  0  1  0  0  0  0  0999 V2000
   28.5720  -20.2327  -15.3327 N   0  0  0  0  0  0  0  0  0  0  0  0
   27.5163  -20.5693  -14.3961 C   0  0  1  0  0  0  0  0  0  0  0  0
   27.7773  -19.8019  -13.1294 C   0  0  0  0  0  0  0  0  0  0  0  0
   28.8645  -20.3614  -12.3178 C   0  0  0  0  0  0  0  0  0  0  0  0
   30.1660  -19.9035  -12.3356 C   0  0  0  0  0  0  0  0  0  0  0  0
   31.1117  -20.5019  -11.5315 C   0  0  0  0  0  0  0  0  0  0  0  0
   30.8297  -21.5570  -10.6890 C   0  0  0  0  0  0  0  0  0  0  0  0
   29.5210  -22.0150  -10.6732 C   0  0  0  0  0  0  0  0  0  0  0  0
   28.5690  -21.4198  -11.4763 C   0  0  0  0  0  0  0  0  0  0  0  0
   26.2086  -20.0621  -14.9454 C   0  0  0  0  0  0  0  0  0  0  0  0
   26.0550  -18.8172  -15.1645 O   0  0  0  0  0  0  0  0  0  0  0  0
   25.1323  -20.9151  -15.2317 N   0  0  0  0  0  0  0  0  0  0  0  0
   23.8492  -20.4960  -15.7109 C   0  0  1  0  0  0  0  0  0  0  0  0
   23.5363  -20.9687  -17.0809 C   0  0  0  0  0  0  0  0  0  0  0  0
   24.4317  -20.4975  -18.1487 C   0  0  0  0  0  0  0  0  0  0  0  0
   24.9057  -19.2355  -18.3780 C   0  0  0  0  0  0  0  0  0  0  0  0
   25.6900  -19.2208  -19.4879 N   0  0  0  0  0  0  0  0  0  0  0  0
   25.7015  -20.4604  -19.9420 C   0  0  0  0  0  0  0  0  0  0  0  0
   24.9557  -21.2508  -19.1603 N   0  0  0  0  0  0  0  0  0  0  0  0
   22.7670  -20.9405  -14.7400 C   0  0  0  0  0  0  0  0  0  0  0  0
   22.6428  -22.1541  -14.4273 O   0  0  0  0  0  0  0  0  0  0  0  0
   20.0162  -21.5414  -10.5698 C   0  0  0  0  0  0  0  0  0  0  0  0
   21.2667  -20.7033  -10.7341 C   0  0  2  0  0  0  0  0  0  0  0  0
   21.7875  -20.1171   -9.4593 C   0  0  0  0  0  0  0  0  0  0  0  0
   21.2684  -19.8211  -11.9202 C   0  0  0  0  0  0  0  0  0  0  0  0
   20.8246  -20.3604  -13.2234 C   0  0  2  0  0  0  0  0  0  0  0  0
   21.8962  -19.9851  -14.1854 N   0  0  0  0  0  0  0  0  0  0  0  0
   19.5278  -19.8544  -13.7272 C   0  0  0  0  0  0  0  0  0  0  0  0
   18.4487  -20.2321  -13.1722 O   0  0  0  0  0  0  0  0  0  0  0  0
   19.3737  -18.9738  -14.7822 O   0  0  0  0  0  0  0  0  0  0  0  0
  2  1  1  6
  2  3  1  0
  2 10  1  0
  3  4  1  0
  4  9  1  0
  5  4  2  0
  5  6  1  0
  6  7  2  0
  7  8  1  0
  9  8  2  0
 10 12  1  0
 10 11  2  0
 12 13  1  0
 13 20  1  0
 13 14  1  6
 14 15  1  0
 15 16  2  0
 16 17  1  0
 18 17  1  0
 19 15  1  0
 19 18  2  0
 20 21  2  0
 23 22  1  1
 23 24  1  0
 23 25  1  0
 26 25  1  1
 26 28  1  0
 27 20  1  0
 27 26  1  0
 28 29  2  0
 28 30  1  0
M  END
$$$$
