FHL.pdb
     RDKit          3D

 30 31  0  0  1  0  0  0  0  0999 V2000
   27.7971  -22.2717  -13.1427 N   0  0  0  0  0  0  0  0  0  0  0  0
   27.4062  -21.8896  -11.7987 C   0  0  1  0  0  0  0  0  0  0  0  0
   28.1059  -20.5979  -11.4769 C   0  0  0  0  0  0  0  0  0  0  0  0
   28.0785  -20.2555  -10.0501 C   0  0  0  0  0  0  0  0  0  0  0  0
   28.9024  -20.8185   -9.0972 C   0  0  0  0  0  0  0  0  0  0  0  0
   28.7938  -20.4242   -7.7812 C   0  0  0  0  0  0  0  0  0  0  0  0
   27.8892  -19.4774   -7.3476 C   0  0  0  0  0  0  0  0  0  0  0  0
   27.0626  -18.9134   -8.3074 C   0  0  0  0  0  0  0  0  0  0  0  0
   27.1665  -19.3042   -9.6274 C   0  0  0  0  0  0  0  0  0  0  0  0
   25.9295  -21.5919  -11.7955 C   0  0  0  0  0  0  0  0  0  0  0  0
   25.3233  -21.3866  -12.8962 O   0  0  0  0  0  0  0  0  0  0  0  0
   25.1780  -21.5297  -10.6126 N   0  0  0  0  0  0  0  0  0  0  0  0
   23.7566  -21.6839  -10.5262 C   0  0  1  0  0  0  0  0  0  0  0  0
   23.2387  -21.7091   -9.1372 C   0  0  0  0  0  0  0  0  0  0  0  0
   21.8021  -21.9870   -8.9866 C   0  0  0  0  0  0  0  0  0  0  0  0
   20.8569  -22.1748   -9.9570 C   0  0  0  0  0  0  0  0  0  0  0  0
   19.6378  -22.3835   -9.3937 N   0  0  0  0  0  0  0  0  0  0  0  0
   19.8253  -22.3251   -8.0881 C   0  0  0  0  0  0  0  0  0  0  0  0
   21.1134  -22.0884   -7.8116 N   0  0  0  0  0  0  0  0  0  0  0  0
   23.0705  -20.5870  -11.3247 C   0  0  0  0  0  0  0  0  0  0  0  0
   23.2737  -19.3735  -11.0563 O   0  0  0  0  0  0  0  0  0  0  0  0
   23.2399  -17.9181  -14.5849 C   0  0  0  0  0  0  0  0  0  0  0  0
   23.1815  -19.3623  -15.0365 C   0  0  2  0  0  0  0  0  0  0  0  0
   23.6000  -19.5813  -16.4567 C   0  0  0  0  0  0  0  0  0  0  0  0
   21.9927  -20.1079  -14.5719 C   0  0  0  0  0  0  0  0  0  0  0  0
   21.5037  -19.9024  -13.1917 C   0  0  2  0  0  0  0  0  0  0  0  0
   22.2002  -20.9326  -12.3744 N   0  0  0  0  0  0  0  0  0  0  0  0
   20.0430  -20.0389  -12.9940 C   0  0  0  0  0  0  0  0  0  0  0  0
   19.5273  -21.1972  -12.9064 O   0  0  0  0  0  0  0  0  0  0  0  0
   19.1531  -18.9856  -12.8882 O   0  0  0  0  0  0  0  0  0  0  0  0
  2  1  1  6
  2  3  1  0
  2 10  1  0
  3  4  1  0
  4  9  1  0
  5  4  2  0
  5  6  1  0
  6  7  2  0
  7  8  1  0
  9  8  2  0
 10 12  1  0
 10 11  2  0
 12 13  1  0
 13 20  1  0
 13 14  1  1
 14 15  1  0
 15 16  2  0
 16 17  1  0
 18 17  1  0
 19 15  1  0
 19 18  2  0
 20 21  2  0
 23 22  1  6
 23 24  1  0
 23 25  1  0
 26 25  1  6
 26 28  1  0
 27 20  1  0
 27 26  1  0
 28 29  2  0
 28 30  1  0
M  END
$$$$
