FHL.pdb
     RDKit          3D

 30 31  0  0  1  0  0  0  0  0999 V2000
   19.5514  -10.9003  -18.9820 N   0  0  0  0  0  0  0  0  0  0  0  0
   20.0417   -9.5903  -19.3676 C   0  0  1  0  0  0  0  0  0  0  0  0
   18.8840   -8.8322  -19.9564 C   0  0  0  0  0  0  0  0  0  0  0  0
   18.5395   -9.2528  -21.3195 C   0  0  0  0  0  0  0  0  0  0  0  0
   19.2702   -8.9279  -22.4440 C   0  0  0  0  0  0  0  0  0  0  0  0
   18.8573   -9.3759  -23.6800 C   0  0  0  0  0  0  0  0  0  0  0  0
   17.7300  -10.1487  -23.8664 C   0  0  0  0  0  0  0  0  0  0  0  0
   16.9978  -10.4737  -22.7347 C   0  0  0  0  0  0  0  0  0  0  0  0
   17.4062  -10.0279  -21.4936 C   0  0  0  0  0  0  0  0  0  0  0  0
   20.4548   -8.8479  -18.1237 C   0  0  0  0  0  0  0  0  0  0  0  0
   19.8402   -9.0577  -17.0285 O   0  0  0  0  0  0  0  0  0  0  0  0
   21.5057   -7.9186  -18.1172 N   0  0  0  0  0  0  0  0  0  0  0  0
   21.9415   -7.1704  -16.9763 C   0  0  1  0  0  0  0  0  0  0  0  0
   23.3005   -7.5309  -16.5053 C   0  0  0  0  0  0  0  0  0  0  0  0
   23.4848   -8.9217  -16.0630 C   0  0  0  0  0  0  0  0  0  0  0  0
   22.5602   -9.9256  -15.9767 C   0  0  0  0  0  0  0  0  0  0  0  0
   23.1375  -11.0582  -15.4962 N   0  0  0  0  0  0  0  0  0  0  0  0
   24.4063  -10.7594  -15.2865 C   0  0  0  0  0  0  0  0  0  0  0  0
   24.6464   -9.4846  -15.6168 N   0  0  0  0  0  0  0  0  0  0  0  0
   21.8655   -5.6822  -17.2772 C   0  0  0  0  0  0  0  0  0  0  0  0
   21.8801   -5.2649  -18.4653 O   0  0  0  0  0  0  0  0  0  0  0  0
   18.6629   -1.7402  -18.3962 C   0  0  0  0  0  0  0  0  0  0  0  0
   20.0042   -1.7944  -17.6953 C   0  0  2  0  0  0  0  0  0  0  0  0
   21.0554   -0.9231  -18.3083 C   0  0  0  0  0  0  0  0  0  0  0  0
   20.4261   -3.1461  -17.2712 C   0  0  0  0  0  0  0  0  0  0  0  0
   21.6471   -3.2989  -16.4515 C   0  0  2  0  0  0  0  0  0  0  0  0
   21.7777   -4.7625  -16.2164 N   0  0  0  0  0  0  0  0  0  0  0  0
   21.6434   -2.6009  -15.1460 C   0  0  0  0  0  0  0  0  0  0  0  0
   21.1004   -3.1555  -14.1396 O   0  0  0  0  0  0  0  0  0  0  0  0
   22.1987   -1.3570  -14.9079 O   0  0  0  0  0  0  0  0  0  0  0  0
  2  1  1  1
  2  3  1  0
  2 10  1  0
  3  4  1  0
  4  9  1  0
  5  4  2  0
  5  6  1  0
  6  7  2  0
  7  8  1  0
  9  8  2  0
 10 12  1  0
 10 11  2  0
 12 13  1  0
 13 20  1  0
 13 14  1  6
 14 15  1  0
 15 16  2  0
 16 17  1  0
 18 17  1  0
 19 15  1  0
 19 18  2  0
 20 21  2  0
 23 22  1  6
 23 24  1  0
 23 25  1  0
 26 25  1  1
 26 28  1  0
 27 20  1  0
 27 26  1  0
 28 29  2  0
 28 30  1  0
M  END
$$$$
