FHL.pdb
     RDKit          3D

 30 31  0  0  1  0  0  0  0  0999 V2000
   25.3072  -13.7893  -22.4249 N   0  0  0  0  0  0  0  0  0  0  0  0
   25.1066  -13.6124  -20.9988 C   0  0  1  0  0  0  0  0  0  0  0  0
   23.8285  -12.8411  -20.8167 C   0  0  0  0  0  0  0  0  0  0  0  0
   23.8864  -11.4751  -21.3501 C   0  0  0  0  0  0  0  0  0  0  0  0
   23.2172  -11.0500  -22.4794 C   0  0  0  0  0  0  0  0  0  0  0  0
   23.3407   -9.7419  -22.8948 C   0  0  0  0  0  0  0  0  0  0  0  0
   24.1117   -8.8082  -22.2342 C   0  0  0  0  0  0  0  0  0  0  0  0
   24.7830   -9.2383  -21.0997 C   0  0  0  0  0  0  0  0  0  0  0  0
   24.6634  -10.5475  -20.6784 C   0  0  0  0  0  0  0  0  0  0  0  0
   24.8859  -14.9654  -20.3744 C   0  0  0  0  0  0  0  0  0  0  0  0
   24.2677  -15.8688  -21.0247 O   0  0  0  0  0  0  0  0  0  0  0  0
   25.3391  -15.2809  -19.0849 N   0  0  0  0  0  0  0  0  0  0  0  0
   25.2858  -16.5799  -18.4838 C   0  0  1  0  0  0  0  0  0  0  0  0
   26.5840  -17.0419  -17.9364 C   0  0  0  0  0  0  0  0  0  0  0  0
   27.6559  -17.2708  -18.9175 C   0  0  0  0  0  0  0  0  0  0  0  0
   28.0667  -18.4463  -19.4826 C   0  0  0  0  0  0  0  0  0  0  0  0
   29.1089  -18.2250  -20.3263 N   0  0  0  0  0  0  0  0  0  0  0  0
   29.3419  -16.9261  -20.2842 C   0  0  0  0  0  0  0  0  0  0  0  0
   28.4868  -16.3254  -19.4477 N   0  0  0  0  0  0  0  0  0  0  0  0
   24.2191  -16.6025  -17.4008 C   0  0  0  0  0  0  0  0  0  0  0  0
   23.9306  -15.5570  -16.7607 O   0  0  0  0  0  0  0  0  0  0  0  0
   18.9381  -16.4790  -17.1066 C   0  0  0  0  0  0  0  0  0  0  0  0
   20.0646  -16.7775  -16.1396 C   0  0  2  0  0  0  0  0  0  0  0  0
   19.9927  -16.0131  -14.8549 C   0  0  0  0  0  0  0  0  0  0  0  0
   21.3986  -16.9030  -16.7641 C   0  0  0  0  0  0  0  0  0  0  0  0
   22.3781  -17.8521  -16.1931 C   0  0  2  0  0  0  0  0  0  0  0  0
   23.5477  -17.8043  -17.1119 N   0  0  0  0  0  0  0  0  0  0  0  0
   21.9237  -19.2553  -16.0662 C   0  0  0  0  0  0  0  0  0  0  0  0
   22.0288  -20.0411  -17.0596 O   0  0  0  0  0  0  0  0  0  0  0  0
   21.3780  -19.8141  -14.9250 O   0  0  0  0  0  0  0  0  0  0  0  0
  2  1  1  6
  2  3  1  0
  2 10  1  0
  3  4  1  0
  4  9  1  0
  5  4  2  0
  5  6  1  0
  6  7  2  0
  7  8  1  0
  9  8  2  0
 10 12  1  0
 10 11  2  0
 12 13  1  0
 13 20  1  0
 13 14  1  1
 14 15  1  0
 15 16  2  0
 16 17  1  0
 18 17  1  0
 19 15  1  0
 19 18  2  0
 20 21  2  0
 23 22  1  6
 23 24  1  0
 23 25  1  0
 26 25  1  6
 26 28  1  0
 27 20  1  0
 27 26  1  0
 28 29  2  0
 28 30  1  0
M  END
$$$$
