LSD.pdb
     RDKit          3D

 23 22  0  0  1  0  0  0  0  0999 V2000
    8.5806  -13.4481   18.1122 C   0  0  0  0  0  0  0  0  0  0  0  0
    7.6530  -13.6053   19.3043 C   0  0  2  0  0  0  0  0  0  0  0  0
    6.7338  -12.4147   19.4392 C   0  0  0  0  0  0  0  0  0  0  0  0
    8.4868  -13.7522   20.5446 C   0  0  0  0  0  0  0  0  0  0  0  0
    9.3811  -14.9651   20.5085 C   0  0  2  0  0  0  0  0  0  0  0  0
    8.6532  -16.1976   20.5815 N   0  0  0  0  0  0  0  0  0  0  0  0
   10.2582  -14.8761   21.7237 C   0  0  0  0  0  0  0  0  0  0  0  0
   10.9228  -13.8541   21.9235 O   0  0  0  0  0  0  0  0  0  0  0  0
   11.3092  -16.5584   26.0192 O   0  0  0  0  0  0  0  0  0  0  0  0
   10.4344  -16.5930   24.9451 C   0  0  0  0  0  0  0  0  0  0  0  0
   11.1505  -16.0336   23.7370 C   0  0  2  0  0  0  0  0  0  0  0  0
   10.2904  -15.9685   22.5964 N   0  0  0  0  0  0  0  0  0  0  0  0
   12.4208  -16.7586   23.4720 C   0  0  0  0  0  0  0  0  0  0  0  0
   12.4507  -17.9690   23.2129 O   0  0  0  0  0  0  0  0  0  0  0  0
   13.6321  -16.0534   23.5146 N   0  0  0  0  0  0  0  0  0  0  0  0
   14.9326  -16.7085   23.2923 C   0  0  1  0  0  0  0  0  0  0  0  0
   15.8719  -15.6383   22.8482 C   0  0  0  0  0  0  0  0  0  0  0  0
   15.7709  -15.2859   21.4262 C   0  0  0  0  0  0  0  0  0  0  0  0
   14.9823  -15.8840   20.6511 O   0  0  0  0  0  0  0  0  0  0  0  0
   15.3436  -17.3446   24.5667 C   0  0  0  0  0  0  0  0  0  0  0  0
   14.8265  -16.9945   25.6550 O   0  0  0  0  0  0  0  0  0  0  0  0
   16.5571  -14.2680   20.8990 O   0  0  0  0  0  0  0  0  0  0  0  0
   16.3090  -18.3490   24.6313 O   0  0  0  0  0  0  0  0  0  0  0  0
  2  1  1  6
  2  4  1  0
  2  3  1  0
  4  5  1  0
  5  7  1  0
  5  6  1  1
  7  8  2  0
  9 10  1  0
 11 10  1  1
 12 11  1  0
 12  7  1  0
 13 11  1  0
 14 13  2  0
 15 13  1  0
 16 15  1  0
 16 17  1  1
 17 18  1  0
 18 19  2  0
 18 22  1  0
 20 16  1  0
 21 20  2  0
 23 20  1  0
M  END
$$$$
