LSD.pdb
     RDKit          3D

 23 22  0  0  1  0  0  0  0  0999 V2000
    8.0994  -14.6292   18.9318 C   0  0  0  0  0  0  0  0  0  0  0  0
    7.4799  -13.7510   20.0047 C   0  0  2  0  0  0  0  0  0  0  0  0
    7.4805  -12.2997   19.5874 C   0  0  0  0  0  0  0  0  0  0  0  0
    8.2643  -13.9195   21.2742 C   0  0  0  0  0  0  0  0  0  0  0  0
    8.2945  -15.3466   21.7586 C   0  0  2  0  0  0  0  0  0  0  0  0
    7.0221  -15.8006   22.2372 N   0  0  0  0  0  0  0  0  0  0  0  0
    9.2573  -15.3787   22.9101 C   0  0  0  0  0  0  0  0  0  0  0  0
    9.2161  -14.4882   23.7653 O   0  0  0  0  0  0  0  0  0  0  0  0
   10.6018  -18.6786   24.5426 O   0  0  0  0  0  0  0  0  0  0  0  0
   10.8751  -17.4307   25.0795 C   0  0  0  0  0  0  0  0  0  0  0  0
   11.2249  -16.4964   23.9438 C   0  0  2  0  0  0  0  0  0  0  0  0
   10.1773  -16.4301   22.9727 N   0  0  0  0  0  0  0  0  0  0  0  0
   12.5494  -16.8258   23.3549 C   0  0  0  0  0  0  0  0  0  0  0  0
   12.6716  -17.5803   22.3808 O   0  0  0  0  0  0  0  0  0  0  0  0
   13.7056  -16.2657   23.9166 N   0  0  0  0  0  0  0  0  0  0  0  0
   15.0485  -16.5123   23.3634 C   0  0  1  0  0  0  0  0  0  0  0  0
   15.6148  -15.1751   23.0229 C   0  0  0  0  0  0  0  0  0  0  0  0
   16.6838  -15.2008   22.0163 C   0  0  0  0  0  0  0  0  0  0  0  0
   17.4459  -16.1919   21.8863 O   0  0  0  0  0  0  0  0  0  0  0  0
   15.8386  -17.2283   24.3933 C   0  0  0  0  0  0  0  0  0  0  0  0
   15.5796  -17.0890   25.6131 O   0  0  0  0  0  0  0  0  0  0  0  0
   16.8784  -14.1130   21.1730 O   0  0  0  0  0  0  0  0  0  0  0  0
   16.8949  -18.0815   24.0752 O   0  0  0  0  0  0  0  0  0  0  0  0
  2  1  1  6
  2  4  1  0
  2  3  1  0
  4  5  1  0
  5  7  1  0
  5  6  1  1
  7  8  2  0
  9 10  1  0
 11 10  1  1
 12 11  1  0
 12  7  1  0
 13 11  1  0
 14 13  2  0
 15 13  1  0
 16 15  1  0
 16 17  1  1
 17 18  1  0
 18 19  2  0
 18 22  1  0
 20 16  1  0
 21 20  2  0
 23 20  1  0
M  END
$$$$
