LSD.pdb
     RDKit          3D

 23 22  0  0  1  0  0  0  0  0999 V2000
    8.2321  -12.2073   18.9537 C   0  0  0  0  0  0  0  0  0  0  0  0
    7.8349  -13.4762   19.6877 C   0  0  2  0  0  0  0  0  0  0  0  0
    6.5926  -13.2580   20.5182 C   0  0  0  0  0  0  0  0  0  0  0  0
    8.9746  -13.8960   20.5709 C   0  0  0  0  0  0  0  0  0  0  0  0
    8.9360  -15.3621   20.9191 C   0  0  2  0  0  0  0  0  0  0  0  0
    7.6257  -15.9301   20.7984 N   0  0  0  0  0  0  0  0  0  0  0  0
    9.3502  -15.4626   22.3586 C   0  0  0  0  0  0  0  0  0  0  0  0
   10.4581  -15.0408   22.7060 O   0  0  0  0  0  0  0  0  0  0  0  0
    6.7474  -17.3759   25.0530 O   0  0  0  0  0  0  0  0  0  0  0  0
    7.5093  -16.3053   25.4929 C   0  0  0  0  0  0  0  0  0  0  0  0
    8.7605  -16.2395   24.6473 C   0  0  2  0  0  0  0  0  0  0  0  0
    8.4540  -16.0377   23.2652 N   0  0  0  0  0  0  0  0  0  0  0  0
    9.6425  -17.4120   24.8863 C   0  0  0  0  0  0  0  0  0  0  0  0
    9.4658  -18.4995   24.3213 O   0  0  0  0  0  0  0  0  0  0  0  0
   10.7148  -17.2896   25.7815 N   0  0  0  0  0  0  0  0  0  0  0  0
   11.5943  -18.4229   26.1161 C   0  0  1  0  0  0  0  0  0  0  0  0
   12.9868  -17.8887   26.1160 C   0  0  0  0  0  0  0  0  0  0  0  0
   13.5169  -17.5603   24.7864 C   0  0  0  0  0  0  0  0  0  0  0  0
   12.8750  -17.8174   23.7367 O   0  0  0  0  0  0  0  0  0  0  0  0
   11.1768  -18.9455   27.4391 C   0  0  0  0  0  0  0  0  0  0  0  0
   11.5988  -20.0516   27.8549 O   0  0  0  0  0  0  0  0  0  0  0  0
   14.7587  -16.9489   24.6587 O   0  0  0  0  0  0  0  0  0  0  0  0
   10.3082  -18.2540   28.2831 O   0  0  0  0  0  0  0  0  0  0  0  0
  2  1  1  1
  2  4  1  0
  2  3  1  0
  4  5  1  0
  5  7  1  0
  5  6  1  1
  7  8  2  0
  9 10  1  0
 11 10  1  1
 12 11  1  0
 12  7  1  0
 13 11  1  0
 14 13  2  0
 15 13  1  0
 16 15  1  0
 16 17  1  1
 17 18  1  0
 18 19  2  0
 18 22  1  0
 20 16  1  0
 21 20  2  0
 23 20  1  0
M  END
$$$$
