LSD.pdb
     RDKit          3D

 23 22  0  0  1  0  0  0  0  0999 V2000
    8.9171  -12.8808   18.5409 C   0  0  0  0  0  0  0  0  0  0  0  0
    7.7333  -13.2805   19.4043 C   0  0  2  0  0  0  0  0  0  0  0  0
    6.9729  -12.0659   19.8811 C   0  0  0  0  0  0  0  0  0  0  0  0
    8.2409  -14.0621   20.5819 C   0  0  0  0  0  0  0  0  0  0  0  0
    8.9981  -15.3017   20.1791 C   0  0  2  0  0  0  0  0  0  0  0  0
    8.2193  -16.1940   19.3721 N   0  0  0  0  0  0  0  0  0  0  0  0
    9.3422  -16.0161   21.4539 C   0  0  0  0  0  0  0  0  0  0  0  0
    9.4609  -15.3723   22.5016 O   0  0  0  0  0  0  0  0  0  0  0  0
    9.8549  -20.1842   21.3212 O   0  0  0  0  0  0  0  0  0  0  0  0
    9.3866  -19.5846   22.4794 C   0  0  0  0  0  0  0  0  0  0  0  0
    9.9349  -18.1770   22.5350 C   0  0  2  0  0  0  0  0  0  0  0  0
    9.5177  -17.4027   21.4074 N   0  0  0  0  0  0  0  0  0  0  0  0
   11.4077  -18.1729   22.7356 C   0  0  0  0  0  0  0  0  0  0  0  0
   12.1994  -18.4832   21.8355 O   0  0  0  0  0  0  0  0  0  0  0  0
   11.9264  -17.8054   23.9855 N   0  0  0  0  0  0  0  0  0  0  0  0
   13.3669  -17.8642   24.2882 C   0  0  1  0  0  0  0  0  0  0  0  0
   13.9533  -16.5860   23.7914 C   0  0  0  0  0  0  0  0  0  0  0  0
   15.3334  -16.6948   23.3014 C   0  0  0  0  0  0  0  0  0  0  0  0
   15.9569  -17.7862   23.3180 O   0  0  0  0  0  0  0  0  0  0  0  0
   13.5156  -18.0364   25.7531 C   0  0  0  0  0  0  0  0  0  0  0  0
   14.6224  -18.3508   26.2536 O   0  0  0  0  0  0  0  0  0  0  0  0
   15.9896  -15.5761   22.8012 O   0  0  0  0  0  0  0  0  0  0  0  0
   12.4567  -17.8631   26.6441 O   0  0  0  0  0  0  0  0  0  0  0  0
  2  1  1  6
  2  4  1  0
  2  3  1  0
  4  5  1  0
  5  7  1  0
  5  6  1  6
  7  8  2  0
  9 10  1  0
 11 10  1  6
 12 11  1  0
 12  7  1  0
 13 11  1  0
 14 13  2  0
 15 13  1  0
 16 15  1  0
 16 17  1  1
 17 18  1  0
 18 19  2  0
 18 22  1  0
 20 16  1  0
 21 20  2  0
 23 20  1  0
M  END
$$$$
