LSD.pdb
     RDKit          3D

 23 22  0  0  1  0  0  0  0  0999 V2000
    9.3236  -12.5913   18.7557 C   0  0  0  0  0  0  0  0  0  0  0  0
    8.1536  -13.3670   19.3351 C   0  0  2  0  0  0  0  0  0  0  0  0
    6.9918  -12.4517   19.6404 C   0  0  0  0  0  0  0  0  0  0  0  0
    8.6084  -14.0540   20.5906 C   0  0  0  0  0  0  0  0  0  0  0  0
    9.7503  -15.0093   20.3544 C   0  0  2  0  0  0  0  0  0  0  0  0
    9.4863  -15.9452   19.3014 N   0  0  0  0  0  0  0  0  0  0  0  0
    9.9186  -15.7855   21.6284 C   0  0  0  0  0  0  0  0  0  0  0  0
   10.0392  -15.1820   22.6995 O   0  0  0  0  0  0  0  0  0  0  0  0
    9.4116  -19.7132   21.2646 O   0  0  0  0  0  0  0  0  0  0  0  0
    9.4839  -19.3360   22.5961 C   0  0  0  0  0  0  0  0  0  0  0  0
   10.2275  -18.0222   22.6729 C   0  0  2  0  0  0  0  0  0  0  0  0
    9.9324  -17.1819   21.5541 N   0  0  0  0  0  0  0  0  0  0  0  0
   11.6846  -18.2315   22.8799 C   0  0  0  0  0  0  0  0  0  0  0  0
   12.3343  -19.0576   22.2252 O   0  0  0  0  0  0  0  0  0  0  0  0
   12.3538  -17.4700   23.8486 N   0  0  0  0  0  0  0  0  0  0  0  0
   13.7608  -17.7157   24.2093 C   0  0  1  0  0  0  0  0  0  0  0  0
   14.4630  -16.4064   24.0784 C   0  0  0  0  0  0  0  0  0  0  0  0
   14.8456  -16.0509   22.7058 C   0  0  0  0  0  0  0  0  0  0  0  0
   14.5729  -16.7946   21.7298 O   0  0  0  0  0  0  0  0  0  0  0  0
   13.7877  -18.2494   25.5922 C   0  0  0  0  0  0  0  0  0  0  0  0
   14.8457  -18.7149   26.0801 O   0  0  0  0  0  0  0  0  0  0  0  0
   15.5279  -14.8665   22.4531 O   0  0  0  0  0  0  0  0  0  0  0  0
   12.6627  -18.2657   26.4162 O   0  0  0  0  0  0  0  0  0  0  0  0
  2  1  1  1
  2  4  1  0
  2  3  1  0
  4  5  1  0
  5  7  1  0
  5  6  1  6
  7  8  2  0
  9 10  1  0
 11 10  1  6
 12 11  1  0
 12  7  1  0
 13 11  1  0
 14 13  2  0
 15 13  1  0
 16 15  1  0
 16 17  1  1
 17 18  1  0
 18 19  2  0
 18 22  1  0
 20 16  1  0
 21 20  2  0
 23 20  1  0
M  END
$$$$
