KQL.pdb
     RDKit          3D

 27 26  0  0  1  0  0  0  0  0999 V2000
    5.7790  -18.7290   23.7930 N   0  0  0  0  0  0  0  0  0  0  0  0
    6.9023  -19.5564   24.1369 C   0  0  1  0  0  0  0  0  0  0  0  0
    6.9214  -20.8991   23.4776 C   0  0  0  0  0  0  0  0  0  0  0  0
    5.7078  -21.7266   23.6479 C   0  0  0  0  0  0  0  0  0  0  0  0
    4.7670  -21.7945   22.4991 C   0  0  0  0  0  0  0  0  0  0  0  0
    3.5977  -22.6998   22.7143 C   0  0  0  0  0  0  0  0  0  0  0  0
    2.6517  -22.6816   21.6360 N   0  0  0  0  0  0  0  0  0  0  0  0
    8.1680  -18.7918   23.8484 C   0  0  0  0  0  0  0  0  0  0  0  0
    9.2818  -19.4134   23.9253 O   0  0  0  0  0  0  0  0  0  0  0  0
   10.7940  -16.9270   20.2679 N   0  0  0  0  0  0  0  0  0  0  0  0
   11.1470  -15.6401   20.6874 C   0  0  0  0  0  0  0  0  0  0  0  0
   12.1671  -15.0231   20.3161 O   0  0  0  0  0  0  0  0  0  0  0  0
   10.2235  -14.9520   21.6596 C   0  0  0  0  0  0  0  0  0  0  0  0
    9.0626  -15.8388   21.9651 C   0  0  0  0  0  0  0  0  0  0  0  0
    9.3088  -16.6333   23.2245 C   0  0  2  0  0  0  0  0  0  0  0  0
    8.0941  -17.4318   23.5071 N   0  0  0  0  0  0  0  0  0  0  0  0
    9.5486  -15.8338   24.4237 C   0  0  0  0  0  0  0  0  0  0  0  0
   10.6565  -15.2010   24.5383 O   0  0  0  0  0  0  0  0  0  0  0  0
    8.2420  -12.0692   25.5784 C   0  0  0  0  0  0  0  0  0  0  0  0
    7.2524  -13.2322   25.8271 C   0  0  2  0  0  0  0  0  0  0  0  0
    5.9258  -12.6137   26.2277 C   0  0  0  0  0  0  0  0  0  0  0  0
    7.8224  -14.0201   26.9435 C   0  0  0  0  0  0  0  0  0  0  0  0
    9.0071  -14.8609   26.6435 C   0  0  2  0  0  0  0  0  0  0  0  0
    8.6401  -15.6975   25.4775 N   0  0  0  0  0  0  0  0  0  0  0  0
    9.5175  -15.7329   27.6890 C   0  0  0  0  0  0  0  0  0  0  0  0
    9.9312  -15.2931   28.7920 O   0  0  0  0  0  0  0  0  0  0  0  0
    9.5745  -17.1106   27.5274 O   0  0  0  0  0  0  0  0  0  0  0  0
  2  8  1  0
  2  1  1  6
  3  2  1  0
  4  3  1  0
  5  4  1  0
  6  5  1  0
  7  6  1  0
  8  9  2  0
 10 11  1  0
 11 13  1  0
 11 12  2  0
 13 14  1  0
 15 14  1  6
 16 15  1  0
 16  8  1  0
 17 15  1  0
 18 17  2  0
 20 19  1  1
 20 22  1  0
 21 20  1  0
 23 22  1  1
 23 25  1  0
 23 24  1  0
 24 17  1  0
 25 27  1  0
 26 25  2  0
M  END
$$$$
