KQL.pdb
     RDKit          3D

 27 26  0  0  1  0  0  0  0  0999 V2000
    9.4928  -17.1685   18.7413 N   0  0  0  0  0  0  0  0  0  0  0  0
    9.2578  -16.0491   19.6111 C   0  0  1  0  0  0  0  0  0  0  0  0
    8.3393  -15.0047   19.0601 C   0  0  0  0  0  0  0  0  0  0  0  0
    8.5465  -14.6358   17.6432 C   0  0  0  0  0  0  0  0  0  0  0  0
    7.7835  -13.4688   17.1281 C   0  0  0  0  0  0  0  0  0  0  0  0
    8.0938  -13.1078   15.7116 C   0  0  0  0  0  0  0  0  0  0  0  0
    7.3630  -11.9685   15.2364 N   0  0  0  0  0  0  0  0  0  0  0  0
    8.7594  -16.5664   20.9355 C   0  0  0  0  0  0  0  0  0  0  0  0
    7.7002  -17.2811   20.9467 O   0  0  0  0  0  0  0  0  0  0  0  0
   11.9319  -19.9145   24.4626 N   0  0  0  0  0  0  0  0  0  0  0  0
   11.9845  -19.3387   23.1888 C   0  0  0  0  0  0  0  0  0  0  0  0
   12.6028  -19.8162   22.2148 O   0  0  0  0  0  0  0  0  0  0  0  0
   11.2372  -18.0461   22.9827 C   0  0  0  0  0  0  0  0  0  0  0  0
    9.8562  -18.1694   23.5349 C   0  0  0  0  0  0  0  0  0  0  0  0
    9.1091  -16.8637   23.4132 C   0  0  2  0  0  0  0  0  0  0  0  0
    9.4617  -16.2539   22.1106 N   0  0  0  0  0  0  0  0  0  0  0  0
    9.4419  -15.8636   24.4250 C   0  0  0  0  0  0  0  0  0  0  0  0
   10.5279  -15.1948   24.3052 O   0  0  0  0  0  0  0  0  0  0  0  0
    7.8339  -12.1392   25.1331 C   0  0  0  0  0  0  0  0  0  0  0  0
    7.0190  -13.2574   25.8254 C   0  0  2  0  0  0  0  0  0  0  0  0
    5.7734  -12.6116   26.4035 C   0  0  0  0  0  0  0  0  0  0  0  0
    7.8855  -13.7846   26.9039 C   0  0  0  0  0  0  0  0  0  0  0  0
    9.0991  -14.5323   26.4933 C   0  0  2  0  0  0  0  0  0  0  0  0
    8.6465  -15.5683   25.5361 N   0  0  0  0  0  0  0  0  0  0  0  0
    9.8936  -15.1792   27.5249 C   0  0  0  0  0  0  0  0  0  0  0  0
    9.9472  -16.4292   27.6506 O   0  0  0  0  0  0  0  0  0  0  0  0
   10.6452  -14.4470   28.4340 O   0  0  0  0  0  0  0  0  0  0  0  0
  2  8  1  0
  2  1  1  6
  3  2  1  0
  4  3  1  0
  5  4  1  0
  6  5  1  0
  7  6  1  0
  8  9  2  0
 10 11  1  0
 11 13  1  0
 11 12  2  0
 13 14  1  0
 15 14  1  1
 16 15  1  0
 16  8  1  0
 17 15  1  0
 18 17  2  0
 20 19  1  1
 20 22  1  0
 21 20  1  0
 23 22  1  1
 23 25  1  0
 23 24  1  0
 24 17  1  0
 25 27  1  0
 26 25  2  0
M  END
$$$$
