KQL.pdb
     RDKit          3D

 27 26  0  0  1  0  0  0  0  0999 V2000
    5.3257  -17.6756   20.3342 N   0  0  0  0  0  0  0  0  0  0  0  0
    6.5012  -17.2162   21.0211 C   0  0  1  0  0  0  0  0  0  0  0  0
    6.9875  -15.8646   20.6035 C   0  0  0  0  0  0  0  0  0  0  0  0
    7.4267  -15.7353   19.1974 C   0  0  0  0  0  0  0  0  0  0  0  0
    7.9206  -14.4028   18.7614 C   0  0  0  0  0  0  0  0  0  0  0  0
    8.2106  -14.3028   17.2989 C   0  0  0  0  0  0  0  0  0  0  0  0
    8.5304  -12.9728   16.8668 N   0  0  0  0  0  0  0  0  0  0  0  0
    6.2406  -17.2650   22.5043 C   0  0  0  0  0  0  0  0  0  0  0  0
    5.0513  -17.0475   22.9176 O   0  0  0  0  0  0  0  0  0  0  0  0
    8.5722  -21.1590   26.3749 N   0  0  0  0  0  0  0  0  0  0  0  0
    8.1054  -20.2619   27.3414 C   0  0  0  0  0  0  0  0  0  0  0  0
    8.1517  -20.4534   28.5744 O   0  0  0  0  0  0  0  0  0  0  0  0
    7.5031  -18.9698   26.8522 C   0  0  0  0  0  0  0  0  0  0  0  0
    7.5892  -18.9060   25.3636 C   0  0  0  0  0  0  0  0  0  0  0  0
    7.1010  -17.5724   24.8527 C   0  0  2  0  0  0  0  0  0  0  0  0
    7.2978  -17.5442   23.3853 N   0  0  0  0  0  0  0  0  0  0  0  0
    7.8170  -16.4102   25.3737 C   0  0  0  0  0  0  0  0  0  0  0  0
    8.9812  -16.1389   24.9132 O   0  0  0  0  0  0  0  0  0  0  0  0
    6.0911  -11.3278   27.7490 C   0  0  0  0  0  0  0  0  0  0  0  0
    7.2635  -12.0343   27.0278 C   0  0  2  0  0  0  0  0  0  0  0  0
    7.0086  -11.9161   25.5365 C   0  0  0  0  0  0  0  0  0  0  0  0
    7.2124  -13.4500   27.4583 C   0  0  0  0  0  0  0  0  0  0  0  0
    8.1393  -14.3953   26.7892 C   0  0  2  0  0  0  0  0  0  0  0  0
    7.3168  -15.5478   26.3537 N   0  0  0  0  0  0  0  0  0  0  0  0
    9.2727  -14.9027   27.5454 C   0  0  0  0  0  0  0  0  0  0  0  0
   10.2117  -14.1613   27.9324 O   0  0  0  0  0  0  0  0  0  0  0  0
    9.3807  -16.2439   27.8873 O   0  0  0  0  0  0  0  0  0  0  0  0
  2  8  1  0
  2  1  1  6
  3  2  1  0
  4  3  1  0
  5  4  1  0
  6  5  1  0
  7  6  1  0
  8  9  2  0
 10 11  1  0
 11 13  1  0
 11 12  2  0
 13 14  1  0
 15 14  1  1
 16 15  1  0
 16  8  1  0
 17 15  1  0
 18 17  2  0
 20 19  1  1
 20 22  1  0
 21 20  1  0
 23 22  1  1
 23 25  1  0
 23 24  1  0
 24 17  1  0
 25 27  1  0
 26 25  2  0
M  END
$$$$
