KQL.pdb
     RDKit          3D

 27 26  0  0  1  0  0  0  0  0999 V2000
    5.8783  -17.7657   20.1888 N   0  0  0  0  0  0  0  0  0  0  0  0
    6.8697  -17.0396   20.9334 C   0  0  1  0  0  0  0  0  0  0  0  0
    6.9647  -15.5836   20.6035 C   0  0  0  0  0  0  0  0  0  0  0  0
    7.6733  -15.2435   19.3510 C   0  0  0  0  0  0  0  0  0  0  0  0
    7.7640  -13.8037   18.9930 C   0  0  0  0  0  0  0  0  0  0  0  0
    8.5042  -13.5309   17.7239 C   0  0  0  0  0  0  0  0  0  0  0  0
    8.5414  -12.1416   17.3684 N   0  0  0  0  0  0  0  0  0  0  0  0
    6.6139  -17.2476   22.4035 C   0  0  0  0  0  0  0  0  0  0  0  0
    5.4466  -17.6177   22.7686 O   0  0  0  0  0  0  0  0  0  0  0  0
    6.2800  -20.9127   25.4853 N   0  0  0  0  0  0  0  0  0  0  0  0
    6.8095  -20.3069   26.6296 C   0  0  0  0  0  0  0  0  0  0  0  0
    6.5610  -20.6567   27.8022 O   0  0  0  0  0  0  0  0  0  0  0  0
    7.7494  -19.1464   26.4257 C   0  0  0  0  0  0  0  0  0  0  0  0
    7.8062  -18.7930   24.9768 C   0  0  0  0  0  0  0  0  0  0  0  0
    7.4870  -17.3331   24.7658 C   0  0  2  0  0  0  0  0  0  0  0  0
    7.6511  -17.0320   23.3252 N   0  0  0  0  0  0  0  0  0  0  0  0
    8.3627  -16.3999   25.4707 C   0  0  0  0  0  0  0  0  0  0  0  0
    9.5951  -16.3244   25.1293 O   0  0  0  0  0  0  0  0  0  0  0  0
    7.5045  -12.2795   25.5748 C   0  0  0  0  0  0  0  0  0  0  0  0
    6.9185  -13.0155   26.8031 C   0  0  2  0  0  0  0  0  0  0  0  0
    6.0860  -12.0078   27.5741 C   0  0  0  0  0  0  0  0  0  0  0  0
    8.0814  -13.4587   27.6052 C   0  0  0  0  0  0  0  0  0  0  0  0
    8.9025  -14.5644   27.0541 C   0  0  2  0  0  0  0  0  0  0  0  0
    7.9500  -15.5592   26.5086 N   0  0  0  0  0  0  0  0  0  0  0  0
    9.8214  -15.2528   27.9460 C   0  0  0  0  0  0  0  0  0  0  0  0
    9.6564  -16.4506   28.2912 O   0  0  0  0  0  0  0  0  0  0  0  0
   10.9425  -14.6218   28.4681 O   0  0  0  0  0  0  0  0  0  0  0  0
  2  8  1  0
  2  1  1  6
  3  2  1  0
  4  3  1  0
  5  4  1  0
  6  5  1  0
  7  6  1  0
  8  9  2  0
 10 11  1  0
 11 13  1  0
 11 12  2  0
 13 14  1  0
 15 14  1  6
 16 15  1  0
 16  8  1  0
 17 15  1  0
 18 17  2  0
 20 19  1  6
 20 22  1  0
 21 20  1  0
 23 22  1  1
 23 25  1  0
 23 24  1  0
 24 17  1  0
 25 27  1  0
 26 25  2  0
M  END
$$$$
