HIH.pdb
     RDKit          3D

 29 30  0  0  1  0  0  0  0  0999 V2000
    8.1806  -15.4942   20.3770 N   0  0  0  0  0  0  0  0  0  0  0  0
    7.3881  -15.8462   21.5355 C   0  0  1  0  0  0  0  0  0  0  0  0
    7.2706  -17.3606   21.5654 C   0  0  0  0  0  0  0  0  0  0  0  0
    6.5378  -17.8844   20.3841 C   0  0  0  0  0  0  0  0  0  0  0  0
    5.4848  -17.2446   19.7814 C   0  0  0  0  0  0  0  0  0  0  0  0
    5.0843  -18.0149   18.7546 N   0  0  0  0  0  0  0  0  0  0  0  0
    5.8684  -19.0980   18.7261 C   0  0  0  0  0  0  0  0  0  0  0  0
    6.7778  -19.0220   19.7412 N   0  0  0  0  0  0  0  0  0  0  0  0
    8.0602  -15.4412   22.8011 C   0  0  0  0  0  0  0  0  0  0  0  0
    9.3142  -15.5426   22.8947 O   0  0  0  0  0  0  0  0  0  0  0  0
    5.8963  -11.4867   25.5804 C   0  0  0  0  0  0  0  0  0  0  0  0
    6.9167  -12.4045   24.9954 C   0  0  0  0  0  0  0  0  0  0  0  0
    7.2050  -13.6068   25.8670 C   0  0  2  0  0  0  0  0  0  0  0  0
    7.7631  -13.1427   27.1899 C   0  0  0  0  0  0  0  0  0  0  0  0
    8.0708  -14.6099   25.1812 C   0  0  2  0  0  0  0  0  0  0  0  0
    7.3757  -14.9419   23.9253 N   0  0  0  0  0  0  0  0  0  0  0  0
    8.3137  -15.8495   25.9703 C   0  0  0  0  0  0  0  0  0  0  0  0
    7.3417  -16.5862   26.2688 O   0  0  0  0  0  0  0  0  0  0  0  0
    9.6007  -16.2352   26.4009 N   0  0  0  0  0  0  0  0  0  0  0  0
    9.8794  -17.5151   27.0052 C   0  0  1  0  0  0  0  0  0  0  0  0
   10.9780  -18.1826   26.2166 C   0  0  0  0  0  0  0  0  0  0  0  0
   11.4647  -19.4410   26.8241 C   0  0  0  0  0  0  0  0  0  0  0  0
   10.9854  -19.9443   28.0244 C   0  0  0  0  0  0  0  0  0  0  0  0
   11.6553  -21.0866   28.2531 N   0  0  0  0  0  0  0  0  0  0  0  0
   12.5161  -21.2959   27.2473 C   0  0  0  0  0  0  0  0  0  0  0  0
   12.3911  -20.2815   26.3770 N   0  0  0  0  0  0  0  0  0  0  0  0
   10.3185  -17.3732   28.4173 C   0  0  0  0  0  0  0  0  0  0  0  0
   10.3996  -18.4159   29.3140 O   0  0  0  0  0  0  0  0  0  0  0  0
   10.6385  -16.2350   28.8328 O   0  0  0  0  0  0  0  0  0  0  0  0
  2  9  1  0
  2  1  1  6
  3  2  1  0
  4  3  1  0
  4  5  2  0
  6  5  1  0
  7  8  2  0
  7  6  1  0
  8  4  1  0
  9 10  2  0
 12 11  1  0
 13 14  1  1
 13 12  1  0
 13 15  1  0
 15 16  1  6
 16  9  1  0
 17 18  2  0
 17 15  1  0
 19 17  1  0
 20 27  1  0
 20 19  1  0
 20 21  1  6
 22 21  1  0
 23 22  2  0
 24 25  1  0
 24 23  1  0
 25 26  2  0
 26 22  1  0
 27 28  1  0
 29 27  2  0
M  END
$$$$
