HIH.pdb
     RDKit          3D

 29 30  0  0  1  0  0  0  0  0999 V2000
    9.4039  -17.8743   16.1688 N   0  0  0  0  0  0  0  0  0  0  0  0
    8.4887  -17.8503   17.2895 C   0  0  1  0  0  0  0  0  0  0  0  0
    8.2629  -19.2880   17.7255 C   0  0  0  0  0  0  0  0  0  0  0  0
    7.4404  -20.0431   16.7457 C   0  0  0  0  0  0  0  0  0  0  0  0
    6.1417  -19.7370   16.4278 C   0  0  0  0  0  0  0  0  0  0  0  0
    5.7326  -20.6333   15.5127 N   0  0  0  0  0  0  0  0  0  0  0  0
    6.7505  -21.4674   15.2741 C   0  0  0  0  0  0  0  0  0  0  0  0
    7.8195  -21.1038   16.0411 N   0  0  0  0  0  0  0  0  0  0  0  0
    9.0721  -17.1327   18.4566 C   0  0  0  0  0  0  0  0  0  0  0  0
   10.2949  -17.2845   18.7270 O   0  0  0  0  0  0  0  0  0  0  0  0
    6.7064  -12.4742   19.9417 C   0  0  0  0  0  0  0  0  0  0  0  0
    7.7607  -13.4850   19.6374 C   0  0  0  0  0  0  0  0  0  0  0  0
    7.9936  -14.4612   20.7693 C   0  0  2  0  0  0  0  0  0  0  0  0
    8.3866  -13.7009   22.0120 C   0  0  0  0  0  0  0  0  0  0  0  0
    8.9640  -15.5336   20.4026 C   0  0  2  0  0  0  0  0  0  0  0  0
    8.3350  -16.2774   19.2974 N   0  0  0  0  0  0  0  0  0  0  0  0
    9.2967  -16.4643   21.5167 C   0  0  0  0  0  0  0  0  0  0  0  0
    8.4125  -17.2443   21.9484 O   0  0  0  0  0  0  0  0  0  0  0  0
   10.5745  -16.5078   22.1135 N   0  0  0  0  0  0  0  0  0  0  0  0
   10.9034  -17.3862   23.2096 C   0  0  1  0  0  0  0  0  0  0  0  0
   12.2658  -17.9786   22.9499 C   0  0  0  0  0  0  0  0  0  0  0  0
   12.7995  -18.7610   24.0868 C   0  0  0  0  0  0  0  0  0  0  0  0
   12.1941  -19.9099   24.5737 C   0  0  0  0  0  0  0  0  0  0  0  0
   12.9549  -20.3376   25.5955 N   0  0  0  0  0  0  0  0  0  0  0  0
   13.9907  -19.5008   25.7478 C   0  0  0  0  0  0  0  0  0  0  0  0
   13.8859  -18.5382   24.8181 N   0  0  0  0  0  0  0  0  0  0  0  0
   10.9328  -16.6614   24.5061 C   0  0  0  0  0  0  0  0  0  0  0  0
   10.6883  -17.2470   25.7289 O   0  0  0  0  0  0  0  0  0  0  0  0
   11.1955  -15.4361   24.5007 O   0  0  0  0  0  0  0  0  0  0  0  0
  2  9  1  0
  2  1  1  6
  3  2  1  0
  4  3  1  0
  4  5  2  0
  6  5  1  0
  7  8  2  0
  7  6  1  0
  8  4  1  0
  9 10  2  0
 12 11  1  0
 13 14  1  1
 13 12  1  0
 13 15  1  0
 15 16  1  6
 16  9  1  0
 17 18  2  0
 17 15  1  0
 19 17  1  0
 20 27  1  0
 20 19  1  0
 20 21  1  6
 22 21  1  0
 23 22  2  0
 24 25  1  0
 24 23  1  0
 25 26  2  0
 26 22  1  0
 27 28  1  0
 29 27  2  0
M  END
$$$$
