HIH.pdb
     RDKit          3D

 29 30  0  0  1  0  0  0  0  0999 V2000
    8.7697  -15.3615   20.4866 N   0  0  0  0  0  0  0  0  0  0  0  0
    7.8550  -15.6260   21.5764 C   0  0  1  0  0  0  0  0  0  0  0  0
    7.5579  -17.1159   21.5717 C   0  0  0  0  0  0  0  0  0  0  0  0
    6.7988  -17.5273   20.3629 C   0  0  0  0  0  0  0  0  0  0  0  0
    6.1730  -16.6552   19.5089 C   0  0  0  0  0  0  0  0  0  0  0  0
    5.5965  -17.3887   18.5406 N   0  0  0  0  0  0  0  0  0  0  0  0
    5.8599  -18.6758   18.7914 C   0  0  0  0  0  0  0  0  0  0  0  0
    6.6102  -18.7685   19.9279 N   0  0  0  0  0  0  0  0  0  0  0  0
    8.4713  -15.3138   22.8955 C   0  0  0  0  0  0  0  0  0  0  0  0
    9.7243  -15.3847   23.0244 O   0  0  0  0  0  0  0  0  0  0  0  0
    6.0630  -11.6577   25.9197 C   0  0  0  0  0  0  0  0  0  0  0  0
    7.1127  -12.4976   25.2729 C   0  0  0  0  0  0  0  0  0  0  0  0
    7.4384  -13.7505   26.0556 C   0  0  2  0  0  0  0  0  0  0  0  0
    7.9247  -13.3677   27.4317 C   0  0  0  0  0  0  0  0  0  0  0  0
    8.3816  -14.6464   25.3250 C   0  0  2  0  0  0  0  0  0  0  0  0
    7.7341  -14.9365   24.0338 N   0  0  0  0  0  0  0  0  0  0  0  0
    8.6909  -15.9184   26.0353 C   0  0  0  0  0  0  0  0  0  0  0  0
    7.7477  -16.6113   26.4900 O   0  0  0  0  0  0  0  0  0  0  0  0
   10.0102  -16.3827   26.2209 N   0  0  0  0  0  0  0  0  0  0  0  0
   10.3244  -17.6118   26.9077 C   0  0  1  0  0  0  0  0  0  0  0  0
   11.6561  -18.1092   26.4041 C   0  0  0  0  0  0  0  0  0  0  0  0
   12.1415  -19.3190   27.1044 C   0  0  0  0  0  0  0  0  0  0  0  0
   11.2981  -20.2573   27.6806 C   0  0  0  0  0  0  0  0  0  0  0  0
   12.0892  -21.2019   28.2170 N   0  0  0  0  0  0  0  0  0  0  0  0
   13.3699  -20.8776   27.9914 C   0  0  0  0  0  0  0  0  0  0  0  0
   13.3907  -19.7219   27.3088 N   0  0  0  0  0  0  0  0  0  0  0  0
   10.4086  -17.4150   28.3777 C   0  0  0  0  0  0  0  0  0  0  0  0
   10.1791  -18.4047   29.3082 O   0  0  0  0  0  0  0  0  0  0  0  0
   10.7066  -16.2783   28.8131 O   0  0  0  0  0  0  0  0  0  0  0  0
  2  9  1  0
  2  1  1  6
  3  2  1  0
  4  3  1  0
  4  5  2  0
  6  5  1  0
  7  8  2  0
  7  6  1  0
  8  4  1  0
  9 10  2  0
 12 11  1  0
 13 14  1  1
 13 12  1  0
 13 15  1  0
 15 16  1  6
 16  9  1  0
 17 18  2  0
 17 15  1  0
 19 17  1  0
 20 27  1  0
 20 19  1  0
 20 21  1  6
 22 21  1  0
 23 22  2  0
 24 25  1  0
 24 23  1  0
 25 26  2  0
 26 22  1  0
 27 28  1  0
 29 27  2  0
M  END
$$$$
