HIH.pdb
     RDKit          3D

 29 30  0  0  1  0  0  0  0  0999 V2000
    9.7717  -14.5461   21.1180 N   0  0  0  0  0  0  0  0  0  0  0  0
    8.4488  -14.4297   21.6929 C   0  0  1  0  0  0  0  0  0  0  0  0
    7.6002  -15.5502   21.1163 C   0  0  0  0  0  0  0  0  0  0  0  0
    7.4287  -15.4173   19.6467 C   0  0  0  0  0  0  0  0  0  0  0  0
    8.0926  -14.5018   18.8704 C   0  0  0  0  0  0  0  0  0  0  0  0
    7.6827  -14.6814   17.6024 N   0  0  0  0  0  0  0  0  0  0  0  0
    6.7920  -15.6790   17.5982 C   0  0  0  0  0  0  0  0  0  0  0  0
    6.6293  -16.1425   18.8718 N   0  0  0  0  0  0  0  0  0  0  0  0
    8.4750  -14.6251   23.1689 C   0  0  0  0  0  0  0  0  0  0  0  0
    9.3981  -15.3130   23.6849 O   0  0  0  0  0  0  0  0  0  0  0  0
    6.2618  -10.6578   25.7543 C   0  0  0  0  0  0  0  0  0  0  0  0
    7.1965  -11.7625   25.3916 C   0  0  0  0  0  0  0  0  0  0  0  0
    6.8695  -13.0690   26.0805 C   0  0  2  0  0  0  0  0  0  0  0  0
    7.0573  -12.9097   27.5692 C   0  0  0  0  0  0  0  0  0  0  0  0
    7.6320  -14.2175   25.5096 C   0  0  2  0  0  0  0  0  0  0  0  0
    7.5181  -14.0820   24.0471 N   0  0  0  0  0  0  0  0  0  0  0  0
    7.1341  -15.5547   25.9363 C   0  0  0  0  0  0  0  0  0  0  0  0
    6.2734  -16.1406   25.2344 O   0  0  0  0  0  0  0  0  0  0  0  0
    7.5918  -16.1974   27.1059 N   0  0  0  0  0  0  0  0  0  0  0  0
    7.5525  -17.6282   27.2863 C   0  0  1  0  0  0  0  0  0  0  0  0
    7.1875  -18.2624   25.9676 C   0  0  0  0  0  0  0  0  0  0  0  0
    7.1168  -19.7396   26.0185 C   0  0  0  0  0  0  0  0  0  0  0  0
    7.3758  -20.4770   27.1643 C   0  0  0  0  0  0  0  0  0  0  0  0
    7.2153  -21.7687   26.8303 N   0  0  0  0  0  0  0  0  0  0  0  0
    6.8717  -21.8451   25.5371 C   0  0  0  0  0  0  0  0  0  0  0  0
    6.8142  -20.5959   25.0491 N   0  0  0  0  0  0  0  0  0  0  0  0
    8.8652  -18.1632   27.7308 C   0  0  0  0  0  0  0  0  0  0  0  0
    9.0577  -19.4329   28.2296 O   0  0  0  0  0  0  0  0  0  0  0  0
    9.8715  -17.4206   27.6525 O   0  0  0  0  0  0  0  0  0  0  0  0
  2  9  1  0
  2  1  1  6
  3  2  1  0
  4  3  1  0
  4  5  2  0
  6  5  1  0
  7  8  2  0
  7  6  1  0
  8  4  1  0
  9 10  2  0
 12 11  1  0
 13 14  1  1
 13 12  1  0
 13 15  1  0
 15 16  1  6
 16  9  1  0
 17 18  2  0
 17 15  1  0
 19 17  1  0
 20 27  1  0
 20 19  1  0
 20 21  1  6
 22 21  1  0
 23 22  2  0
 24 25  1  0
 24 23  1  0
 25 26  2  0
 26 22  1  0
 27 28  1  0
 29 27  2  0
M  END
$$$$
