HIH.pdb
     RDKit          3D

 29 30  0  0  1  0  0  0  0  0999 V2000
    9.3890  -17.2203   15.5485 N   0  0  0  0  0  0  0  0  0  0  0  0
    8.5224  -17.3294   16.7023 C   0  0  1  0  0  0  0  0  0  0  0  0
    8.3795  -18.8064   17.0281 C   0  0  0  0  0  0  0  0  0  0  0  0
    7.6130  -19.5339   15.9841 C   0  0  0  0  0  0  0  0  0  0  0  0
    6.2637  -19.3968   15.7791 C   0  0  0  0  0  0  0  0  0  0  0  0
    5.9307  -20.2054   14.7577 N   0  0  0  0  0  0  0  0  0  0  0  0
    7.0433  -20.8227   14.3456 C   0  0  0  0  0  0  0  0  0  0  0  0
    8.0969  -20.4074   15.1077 N   0  0  0  0  0  0  0  0  0  0  0  0
    9.1230  -16.6802   17.9004 C   0  0  0  0  0  0  0  0  0  0  0  0
   10.3649  -16.7786   18.0992 O   0  0  0  0  0  0  0  0  0  0  0  0
    6.7247  -12.2655   19.9649 C   0  0  0  0  0  0  0  0  0  0  0  0
    7.8253  -13.1885   19.5619 C   0  0  0  0  0  0  0  0  0  0  0  0
    8.0299  -14.3303   20.5329 C   0  0  2  0  0  0  0  0  0  0  0  0
    8.3877  -13.7747   21.8894 C   0  0  0  0  0  0  0  0  0  0  0  0
    9.0123  -15.3340   20.0291 C   0  0  2  0  0  0  0  0  0  0  0  0
    8.3822  -15.9479   18.8473 N   0  0  0  0  0  0  0  0  0  0  0  0
    9.3715  -16.3880   21.0182 C   0  0  0  0  0  0  0  0  0  0  0  0
    8.5302  -17.2764   21.2998 O   0  0  0  0  0  0  0  0  0  0  0  0
   10.6281  -16.4315   21.6584 N   0  0  0  0  0  0  0  0  0  0  0  0
   10.9874  -17.4428   22.6225 C   0  0  1  0  0  0  0  0  0  0  0  0
   12.4269  -17.8283   22.3910 C   0  0  0  0  0  0  0  0  0  0  0  0
   12.9557  -18.7788   23.3942 C   0  0  0  0  0  0  0  0  0  0  0  0
   13.1617  -18.4475   24.7252 C   0  0  0  0  0  0  0  0  0  0  0  0
   13.6444  -19.5506   25.3219 N   0  0  0  0  0  0  0  0  0  0  0  0
   13.7392  -20.5315   24.4136 C   0  0  0  0  0  0  0  0  0  0  0  0
   13.3147  -20.0479   23.2355 N   0  0  0  0  0  0  0  0  0  0  0  0
   10.8387  -16.9517   24.0166 C   0  0  0  0  0  0  0  0  0  0  0  0
   10.7101  -17.7689   25.1182 O   0  0  0  0  0  0  0  0  0  0  0  0
   10.8274  -15.7148   24.2172 O   0  0  0  0  0  0  0  0  0  0  0  0
  2  9  1  0
  2  1  1  6
  3  2  1  0
  4  3  1  0
  4  5  2  0
  6  5  1  0
  7  8  2  0
  7  6  1  0
  8  4  1  0
  9 10  2  0
 12 11  1  0
 13 14  1  1
 13 12  1  0
 13 15  1  0
 15 16  1  6
 16  9  1  0
 17 18  2  0
 17 15  1  0
 19 17  1  0
 20 27  1  0
 20 19  1  0
 20 21  1  6
 22 21  1  0
 23 22  2  0
 24 25  1  0
 24 23  1  0
 25 26  2  0
 26 22  1  0
 27 28  1  0
 29 27  2  0
M  END
$$$$
