HIH.pdb
     RDKit          3D

 29 30  0  0  1  0  0  0  0  0999 V2000
    9.4335  -17.4408   15.9181 N   0  0  0  0  0  0  0  0  0  0  0  0
    8.4957  -17.3571   17.0171 C   0  0  1  0  0  0  0  0  0  0  0  0
    8.1718  -18.7769   17.4500 C   0  0  0  0  0  0  0  0  0  0  0  0
    7.3255  -19.4822   16.4534 C   0  0  0  0  0  0  0  0  0  0  0  0
    5.9734  -19.2961   16.3174 C   0  0  0  0  0  0  0  0  0  0  0  0
    5.5580  -20.0985   15.3216 N   0  0  0  0  0  0  0  0  0  0  0  0
    6.6240  -20.7597   14.8577 C   0  0  0  0  0  0  0  0  0  0  0  0
    7.7305  -20.3790   15.5606 N   0  0  0  0  0  0  0  0  0  0  0  0
    9.0951  -16.6734   18.1964 C   0  0  0  0  0  0  0  0  0  0  0  0
   10.3452  -16.7092   18.3620 O   0  0  0  0  0  0  0  0  0  0  0  0
    6.8759  -12.1200   19.8882 C   0  0  0  0  0  0  0  0  0  0  0  0
    7.9245  -13.1414   19.6002 C   0  0  0  0  0  0  0  0  0  0  0  0
    8.0450  -14.1919   20.6820 C   0  0  2  0  0  0  0  0  0  0  0  0
    8.4076  -13.5263   21.9868 C   0  0  0  0  0  0  0  0  0  0  0  0
    8.9782  -15.2925   20.3023 C   0  0  2  0  0  0  0  0  0  0  0  0
    8.3444  -15.9743   19.1604 N   0  0  0  0  0  0  0  0  0  0  0  0
    9.2461  -16.2706   21.3930 C   0  0  0  0  0  0  0  0  0  0  0  0
    8.3266  -17.0402   21.7655 O   0  0  0  0  0  0  0  0  0  0  0  0
   10.5002  -16.3707   22.0317 N   0  0  0  0  0  0  0  0  0  0  0  0
   10.7815  -17.3310   23.0709 C   0  0  1  0  0  0  0  0  0  0  0  0
   12.1824  -17.8516   22.8688 C   0  0  0  0  0  0  0  0  0  0  0  0
   12.6156  -18.8101   23.9095 C   0  0  0  0  0  0  0  0  0  0  0  0
   11.8012  -19.2226   24.9536 C   0  0  0  0  0  0  0  0  0  0  0  0
   12.5283  -20.0825   25.6870 N   0  0  0  0  0  0  0  0  0  0  0  0
   13.7429  -20.2080   25.1343 C   0  0  0  0  0  0  0  0  0  0  0  0
   13.7858  -19.4239   24.0456 N   0  0  0  0  0  0  0  0  0  0  0  0
   10.6842  -16.7232   24.4229 C   0  0  0  0  0  0  0  0  0  0  0  0
   10.5236  -17.4414   25.5875 O   0  0  0  0  0  0  0  0  0  0  0  0
   10.7506  -15.4760   24.5244 O   0  0  0  0  0  0  0  0  0  0  0  0
  2  9  1  0
  2  1  1  6
  3  2  1  0
  4  3  1  0
  4  5  2  0
  6  5  1  0
  7  8  2  0
  7  6  1  0
  8  4  1  0
  9 10  2  0
 12 11  1  0
 13 14  1  1
 13 12  1  0
 13 15  1  0
 15 16  1  6
 16  9  1  0
 17 18  2  0
 17 15  1  0
 19 17  1  0
 20 27  1  0
 20 19  1  0
 20 21  1  6
 22 21  1  0
 23 22  2  0
 24 25  1  0
 24 23  1  0
 25 26  2  0
 26 22  1  0
 27 28  1  0
 29 27  2  0
M  END
$$$$
