HIH.pdb
     RDKit          3D

 29 30  0  0  1  0  0  0  0  0999 V2000
    8.4134  -15.1965   20.4801 N   0  0  0  0  0  0  0  0  0  0  0  0
    7.6138  -15.5745   21.6254 C   0  0  1  0  0  0  0  0  0  0  0  0
    7.4747  -17.0873   21.6059 C   0  0  0  0  0  0  0  0  0  0  0  0
    6.6929  -17.5583   20.4338 C   0  0  0  0  0  0  0  0  0  0  0  0
    6.2981  -16.7550   19.3944 C   0  0  0  0  0  0  0  0  0  0  0  0
    5.6177  -17.5272   18.5290 N   0  0  0  0  0  0  0  0  0  0  0  0
    5.5942  -18.7704   19.0217 C   0  0  0  0  0  0  0  0  0  0  0  0
    6.2640  -18.7959   20.2108 N   0  0  0  0  0  0  0  0  0  0  0  0
    8.2890  -15.2205   22.9045 C   0  0  0  0  0  0  0  0  0  0  0  0
    9.5494  -15.2184   22.9579 O   0  0  0  0  0  0  0  0  0  0  0  0
    6.1258  -11.5339   25.9504 C   0  0  0  0  0  0  0  0  0  0  0  0
    7.1192  -12.4289   25.2889 C   0  0  0  0  0  0  0  0  0  0  0  0
    7.4437  -13.6622   26.1026 C   0  0  2  0  0  0  0  0  0  0  0  0
    8.0304  -13.2457   27.4289 C   0  0  0  0  0  0  0  0  0  0  0  0
    8.3029  -14.6255   25.3543 C   0  0  2  0  0  0  0  0  0  0  0  0
    7.6008  -14.8805   24.0845 N   0  0  0  0  0  0  0  0  0  0  0  0
    8.5456  -15.9103   26.0675 C   0  0  0  0  0  0  0  0  0  0  0  0
    7.5643  -16.6017   26.4355 O   0  0  0  0  0  0  0  0  0  0  0  0
    9.8426  -16.3883   26.3500 N   0  0  0  0  0  0  0  0  0  0  0  0
   10.0923  -17.6264   27.0472 C   0  0  1  0  0  0  0  0  0  0  0  0
   11.3472  -18.2437   26.4827 C   0  0  0  0  0  0  0  0  0  0  0  0
   11.2149  -18.6744   25.0733 C   0  0  0  0  0  0  0  0  0  0  0  0
    9.9958  -18.7927   24.4226 C   0  0  0  0  0  0  0  0  0  0  0  0
   10.2694  -19.2027   23.1724 N   0  0  0  0  0  0  0  0  0  0  0  0
   11.5962  -19.3372   23.0385 C   0  0  0  0  0  0  0  0  0  0  0  0
   12.1661  -19.0110   24.2092 N   0  0  0  0  0  0  0  0  0  0  0  0
   10.2762  -17.4097   28.5053 C   0  0  0  0  0  0  0  0  0  0  0  0
   10.3771  -18.4219   29.4343 O   0  0  0  0  0  0  0  0  0  0  0  0
   10.3452  -16.2332   28.9312 O   0  0  0  0  0  0  0  0  0  0  0  0
  2  9  1  0
  2  1  1  6
  3  2  1  0
  4  3  1  0
  4  5  2  0
  6  5  1  0
  7  8  2  0
  7  6  1  0
  8  4  1  0
  9 10  2  0
 12 11  1  0
 13 14  1  1
 13 12  1  0
 13 15  1  0
 15 16  1  6
 16  9  1  0
 17 18  2  0
 17 15  1  0
 19 17  1  0
 20 27  1  0
 20 19  1  0
 20 21  1  6
 22 21  1  0
 23 22  2  0
 24 25  1  0
 24 23  1  0
 25 26  2  0
 26 22  1  0
 27 28  1  0
 29 27  2  0
M  END
$$$$
