PDD.pdb
     RDKit          3D

 24 24  0  0  1  0  0  0  0  0999 V2000
    9.3284  -13.3070   19.7364 N   0  0  0  0  0  0  0  0  0  0  0  0
    9.0856  -12.8779   18.3782 C   0  0  0  0  0  0  0  0  0  0  0  0
    7.5963  -12.8590   18.2676 C   0  0  0  0  0  0  0  0  0  0  0  0
    7.2221  -14.1243   19.0469 C   0  0  0  0  0  0  0  0  0  0  0  0
    8.2142  -14.0647   20.1888 C   0  0  1  0  0  0  0  0  0  0  0  0
    8.6215  -15.3971   20.6845 C   0  0  0  0  0  0  0  0  0  0  0  0
    7.8280  -16.3679   20.6598 O   0  0  0  0  0  0  0  0  0  0  0  0
    9.9284  -15.6400   21.2113 N   0  0  0  0  0  0  0  0  0  0  0  0
   10.8724  -16.5402   20.6103 C   0  0  1  0  0  0  0  0  0  0  0  0
   11.0054  -16.3466   19.1198 C   0  0  0  0  0  0  0  0  0  0  0  0
   11.8702  -17.3784   18.4989 C   0  0  0  0  0  0  0  0  0  0  0  0
   11.6338  -17.8877   17.3969 O   0  0  0  0  0  0  0  0  0  0  0  0
   12.2007  -16.4919   21.2930 C   0  0  0  0  0  0  0  0  0  0  0  0
   13.1164  -17.2226   20.8438 O   0  0  0  0  0  0  0  0  0  0  0  0
   12.9982  -17.7872   19.1946 O   0  0  0  0  0  0  0  0  0  0  0  0
   12.4836  -15.6764   22.4076 N   0  0  0  0  0  0  0  0  0  0  0  0
   13.2729  -16.0547   23.5443 C   0  0  1  0  0  0  0  0  0  0  0  0
   12.6233  -17.1168   24.3943 C   0  0  0  0  0  0  0  0  0  0  0  0
   13.1885  -17.1915   25.7475 C   0  0  0  0  0  0  0  0  0  0  0  0
   14.1922  -16.4877   26.0248 O   0  0  0  0  0  0  0  0  0  0  0  0
   14.6608  -16.4285   23.1948 C   0  0  0  0  0  0  0  0  0  0  0  0
   15.5709  -15.6069   23.4404 O   0  0  0  0  0  0  0  0  0  0  0  0
   12.6431  -18.0152   26.7193 O   0  0  0  0  0  0  0  0  0  0  0  0
   14.9548  -17.6257   22.6231 O   0  0  0  0  0  0  0  0  0  0  0  0
  2  1  1  0
  3  2  1  0
  4  3  1  0
  4  5  1  0
  5  6  1  6
  5  1  1  0
  6  8  1  0
  7  6  2  0
  8  9  1  0
  9 13  1  0
  9 10  1  6
 10 11  1  0
 11 12  2  0
 13 16  1  0
 13 14  2  0
 15 11  1  0
 16 17  1  0
 17 21  1  0
 17 18  1  6
 19 18  1  0
 20 19  2  0
 21 22  2  0
 21 24  1  0
 23 19  1  0
M  END
$$$$
