PDD.pdb
     RDKit          3D

 24 24  0  0  1  0  0  0  0  0999 V2000
    9.0329  -13.0682   17.9651 N   0  0  0  0  0  0  0  0  0  0  0  0
    7.8710  -13.0618   17.1062 C   0  0  0  0  0  0  0  0  0  0  0  0
    6.7202  -13.0326   18.0577 C   0  0  0  0  0  0  0  0  0  0  0  0
    7.2088  -13.9922   19.1480 C   0  0  0  0  0  0  0  0  0  0  0  0
    8.6744  -13.6206   19.2247 C   0  0  1  0  0  0  0  0  0  0  0  0
    9.5497  -14.7530   19.5966 C   0  0  0  0  0  0  0  0  0  0  0  0
    9.2814  -15.4837   20.5798 O   0  0  0  0  0  0  0  0  0  0  0  0
   10.7340  -15.0661   18.8591 N   0  0  0  0  0  0  0  0  0  0  0  0
   11.6363  -16.1245   19.2173 C   0  0  1  0  0  0  0  0  0  0  0  0
   12.5169  -16.5615   18.0725 C   0  0  0  0  0  0  0  0  0  0  0  0
   13.3296  -17.7524   18.4177 C   0  0  0  0  0  0  0  0  0  0  0  0
   12.9090  -18.6803   19.1190 O   0  0  0  0  0  0  0  0  0  0  0  0
   12.4386  -15.7857   20.4314 C   0  0  0  0  0  0  0  0  0  0  0  0
   13.1211  -14.7331   20.4067 O   0  0  0  0  0  0  0  0  0  0  0  0
   14.6245  -17.8217   17.9260 O   0  0  0  0  0  0  0  0  0  0  0  0
   12.4733  -16.5765   21.5980 N   0  0  0  0  0  0  0  0  0  0  0  0
   13.1989  -16.2704   22.7971 C   0  0  1  0  0  0  0  0  0  0  0  0
   12.4322  -16.5887   24.0554 C   0  0  0  0  0  0  0  0  0  0  0  0
   13.1958  -16.3063   25.2775 C   0  0  0  0  0  0  0  0  0  0  0  0
   14.3550  -15.8324   25.1719 O   0  0  0  0  0  0  0  0  0  0  0  0
   14.5508  -16.8696   22.8321 C   0  0  0  0  0  0  0  0  0  0  0  0
   15.3344  -16.5010   23.7343 O   0  0  0  0  0  0  0  0  0  0  0  0
   12.6699  -16.5490   26.5363 O   0  0  0  0  0  0  0  0  0  0  0  0
   14.9452  -17.7947   21.9182 O   0  0  0  0  0  0  0  0  0  0  0  0
  2  1  1  0
  3  2  1  0
  4  3  1  0
  4  5  1  0
  5  6  1  6
  5  1  1  0
  6  8  1  0
  7  6  2  0
  8  9  1  0
  9 13  1  0
  9 10  1  6
 10 11  1  0
 11 12  2  0
 13 16  1  0
 13 14  2  0
 15 11  1  0
 16 17  1  0
 17 21  1  0
 17 18  1  1
 19 18  1  0
 20 19  2  0
 21 22  2  0
 21 24  1  0
 23 19  1  0
M  END
$$$$
