PDD.pdb
     RDKit          3D

 24 24  0  0  1  0  0  0  0  0999 V2000
    9.2502  -13.5243   18.5807 N   0  0  0  0  0  0  0  0  0  0  0  0
    8.1486  -13.3142   17.6695 C   0  0  0  0  0  0  0  0  0  0  0  0
    7.0230  -12.8937   18.5565 C   0  0  0  0  0  0  0  0  0  0  0  0
    7.2238  -13.8250   19.7569 C   0  0  0  0  0  0  0  0  0  0  0  0
    8.7335  -13.8313   19.8687 C   0  0  1  0  0  0  0  0  0  0  0  0
    9.2795  -15.1028   20.3903 C   0  0  0  0  0  0  0  0  0  0  0  0
    8.7372  -15.6937   21.3543 O   0  0  0  0  0  0  0  0  0  0  0  0
   10.4422  -15.7138   19.8253 N   0  0  0  0  0  0  0  0  0  0  0  0
   11.0223  -16.9296   20.3235 C   0  0  1  0  0  0  0  0  0  0  0  0
   11.9125  -17.6143   19.3159 C   0  0  0  0  0  0  0  0  0  0  0  0
   11.1759  -17.9885   18.0849 C   0  0  0  0  0  0  0  0  0  0  0  0
   10.0827  -18.5668   18.0981 O   0  0  0  0  0  0  0  0  0  0  0  0
   11.7240  -16.7192   21.6258 C   0  0  0  0  0  0  0  0  0  0  0  0
   12.4842  -15.7262   21.7271 O   0  0  0  0  0  0  0  0  0  0  0  0
   11.7477  -17.6706   16.8620 O   0  0  0  0  0  0  0  0  0  0  0  0
   11.5823  -17.5680   22.7424 N   0  0  0  0  0  0  0  0  0  0  0  0
   12.2374  -17.4047   24.0082 C   0  0  1  0  0  0  0  0  0  0  0  0
   11.3796  -17.8095   25.1799 C   0  0  0  0  0  0  0  0  0  0  0  0
   12.0415  -17.5984   26.4736 C   0  0  0  0  0  0  0  0  0  0  0  0
   13.2022  -17.1165   26.4889 O   0  0  0  0  0  0  0  0  0  0  0  0
   13.5634  -18.0572   24.0695 C   0  0  0  0  0  0  0  0  0  0  0  0
   14.5775  -17.3457   23.8988 O   0  0  0  0  0  0  0  0  0  0  0  0
   11.4189  -17.9166   27.6699 O   0  0  0  0  0  0  0  0  0  0  0  0
   13.6930  -19.3895   24.3033 O   0  0  0  0  0  0  0  0  0  0  0  0
  2  1  1  0
  3  2  1  0
  4  3  1  0
  4  5  1  0
  5  6  1  6
  5  1  1  0
  6  8  1  0
  7  6  2  0
  8  9  1  0
  9 13  1  0
  9 10  1  6
 10 11  1  0
 11 12  2  0
 13 16  1  0
 13 14  2  0
 15 11  1  0
 16 17  1  0
 17 21  1  0
 17 18  1  1
 19 18  1  0
 20 19  2  0
 21 22  2  0
 21 24  1  0
 23 19  1  0
M  END
$$$$
