PDD.pdb
     RDKit          3D

 24 24  0  0  1  0  0  0  0  0999 V2000
    8.2850  -14.6573   18.7254 N   0  0  0  0  0  0  0  0  0  0  0  0
    7.0046  -13.9877   18.7057 C   0  0  0  0  0  0  0  0  0  0  0  0
    7.3501  -12.5579   18.4473 C   0  0  0  0  0  0  0  0  0  0  0  0
    8.6036  -12.3916   19.3132 C   0  0  0  0  0  0  0  0  0  0  0  0
    9.2919  -13.7203   19.0838 C   0  0  1  0  0  0  0  0  0  0  0  0
   10.0824  -14.1817   20.2453 C   0  0  0  0  0  0  0  0  0  0  0  0
   11.0546  -13.5151   20.6733 O   0  0  0  0  0  0  0  0  0  0  0  0
    9.7786  -15.3996   20.9300 N   0  0  0  0  0  0  0  0  0  0  0  0
   10.4968  -15.8623   22.0845 C   0  0  1  0  0  0  0  0  0  0  0  0
    9.7447  -16.9117   22.8654 C   0  0  0  0  0  0  0  0  0  0  0  0
   10.4683  -17.3172   24.0941 C   0  0  0  0  0  0  0  0  0  0  0  0
   11.4531  -18.0653   24.0854 O   0  0  0  0  0  0  0  0  0  0  0  0
   11.8767  -16.3179   21.7366 C   0  0  0  0  0  0  0  0  0  0  0  0
   12.0826  -16.7191   20.5658 O   0  0  0  0  0  0  0  0  0  0  0  0
   10.0122  -16.8291   25.3095 O   0  0  0  0  0  0  0  0  0  0  0  0
   12.9560  -16.3231   22.6436 N   0  0  0  0  0  0  0  0  0  0  0  0
   14.3395  -16.1591   22.3013 C   0  0  1  0  0  0  0  0  0  0  0  0
   14.5978  -14.9640   21.4195 C   0  0  0  0  0  0  0  0  0  0  0  0
   16.0012  -14.8538   21.0019 C   0  0  0  0  0  0  0  0  0  0  0  0
   16.8566  -14.4810   21.8438 O   0  0  0  0  0  0  0  0  0  0  0  0
   15.2369  -16.1563   23.4771 C   0  0  0  0  0  0  0  0  0  0  0  0
   16.4709  -16.1774   23.2753 O   0  0  0  0  0  0  0  0  0  0  0  0
   16.4008  -15.1500   19.7085 O   0  0  0  0  0  0  0  0  0  0  0  0
   14.7508  -16.1317   24.7458 O   0  0  0  0  0  0  0  0  0  0  0  0
  2  1  1  0
  3  2  1  0
  4  3  1  0
  4  5  1  0
  5  6  1  1
  5  1  1  0
  6  8  1  0
  7  6  2  0
  8  9  1  0
  9 13  1  0
  9 10  1  6
 10 11  1  0
 11 12  2  0
 13 16  1  0
 13 14  2  0
 15 11  1  0
 16 17  1  0
 17 21  1  0
 17 18  1  1
 19 18  1  0
 20 19  2  0
 21 22  2  0
 21 24  1  0
 23 19  1  0
M  END
$$$$
