PDD.pdb
     RDKit          3D

 24 24  0  0  1  0  0  0  0  0999 V2000
    8.8788  -14.4887   18.7144 N   0  0  0  0  0  0  0  0  0  0  0  0
    7.9132  -14.0331   17.7407 C   0  0  0  0  0  0  0  0  0  0  0  0
    7.5400  -12.6672   18.2157 C   0  0  0  0  0  0  0  0  0  0  0  0
    7.4734  -12.8851   19.7311 C   0  0  0  0  0  0  0  0  0  0  0  0
    8.6534  -13.8097   19.9426 C   0  0  1  0  0  0  0  0  0  0  0  0
    8.4674  -14.7537   21.0655 C   0  0  0  0  0  0  0  0  0  0  0  0
    8.2580  -14.3410   22.2310 O   0  0  0  0  0  0  0  0  0  0  0  0
    8.5172  -16.1703   20.8775 N   0  0  0  0  0  0  0  0  0  0  0  0
    8.4163  -17.1182   21.9518 C   0  0  1  0  0  0  0  0  0  0  0  0
    7.6786  -18.3754   21.5616 C   0  0  0  0  0  0  0  0  0  0  0  0
    7.3976  -19.2422   22.7311 C   0  0  0  0  0  0  0  0  0  0  0  0
    7.1454  -18.7997   23.8581 O   0  0  0  0  0  0  0  0  0  0  0  0
    9.7502  -17.4254   22.5509 C   0  0  0  0  0  0  0  0  0  0  0  0
    9.8675  -18.4911   23.2026 O   0  0  0  0  0  0  0  0  0  0  0  0
    7.4206  -20.6161   22.5436 O   0  0  0  0  0  0  0  0  0  0  0  0
   10.8797  -16.5909   22.4270 N   0  0  0  0  0  0  0  0  0  0  0  0
   12.1752  -16.8448   22.9886 C   0  0  1  0  0  0  0  0  0  0  0  0
   13.2870  -16.1188   22.2748 C   0  0  0  0  0  0  0  0  0  0  0  0
   14.6122  -16.4065   22.8379 C   0  0  0  0  0  0  0  0  0  0  0  0
   14.9287  -17.6019   23.0626 O   0  0  0  0  0  0  0  0  0  0  0  0
   12.2371  -16.6091   24.4475 C   0  0  0  0  0  0  0  0  0  0  0  0
   13.2809  -16.9375   25.0527 O   0  0  0  0  0  0  0  0  0  0  0  0
   15.5157  -15.3959   23.1252 O   0  0  0  0  0  0  0  0  0  0  0  0
   11.1987  -16.0530   25.1252 O   0  0  0  0  0  0  0  0  0  0  0  0
  2  1  1  0
  3  2  1  0
  4  3  1  0
  4  5  1  0
  5  6  1  1
  5  1  1  0
  6  8  1  0
  7  6  2  0
  8  9  1  0
  9 13  1  0
  9 10  1  6
 10 11  1  0
 11 12  2  0
 13 16  1  0
 13 14  2  0
 15 11  1  0
 16 17  1  0
 17 21  1  0
 17 18  1  6
 19 18  1  0
 20 19  2  0
 21 22  2  0
 21 24  1  0
 23 19  1  0
M  END
$$$$
