PDD.pdb
     RDKit          3D

 24 24  0  0  1  0  0  0  0  0999 V2000
    8.6522  -14.4589   18.5722 N   0  0  0  0  0  0  0  0  0  0  0  0
    7.5305  -14.1272   17.7240 C   0  0  0  0  0  0  0  0  0  0  0  0
    7.1901  -12.7250   18.1093 C   0  0  0  0  0  0  0  0  0  0  0  0
    7.3703  -12.7803   19.6301 C   0  0  0  0  0  0  0  0  0  0  0  0
    8.5998  -13.6561   19.7440 C   0  0  1  0  0  0  0  0  0  0  0  0
    8.6252  -14.4775   20.9735 C   0  0  0  0  0  0  0  0  0  0  0  0
    8.4783  -13.9557   22.1043 O   0  0  0  0  0  0  0  0  0  0  0  0
    8.8172  -15.8938   20.9319 N   0  0  0  0  0  0  0  0  0  0  0  0
    8.8453  -16.7263   22.1019 C   0  0  1  0  0  0  0  0  0  0  0  0
    7.9142  -17.9098   22.0061 C   0  0  0  0  0  0  0  0  0  0  0  0
    7.9574  -18.7528   23.2248 C   0  0  0  0  0  0  0  0  0  0  0  0
    7.8757  -18.2935   24.3703 O   0  0  0  0  0  0  0  0  0  0  0  0
   10.2355  -17.1459   22.4538 C   0  0  0  0  0  0  0  0  0  0  0  0
   10.8195  -17.9430   21.6805 O   0  0  0  0  0  0  0  0  0  0  0  0
    8.0963  -20.1233   23.0639 O   0  0  0  0  0  0  0  0  0  0  0  0
   10.9262  -16.7003   23.5991 N   0  0  0  0  0  0  0  0  0  0  0  0
   12.2870  -17.0104   23.9311 C   0  0  1  0  0  0  0  0  0  0  0  0
   13.2395  -15.8727   23.6649 C   0  0  0  0  0  0  0  0  0  0  0  0
   14.3136  -16.2325   22.7305 C   0  0  0  0  0  0  0  0  0  0  0  0
   14.1066  -17.1453   21.8917 O   0  0  0  0  0  0  0  0  0  0  0  0
   12.4501  -17.5297   25.3064 C   0  0  0  0  0  0  0  0  0  0  0  0
   13.5182  -18.1141   25.5917 O   0  0  0  0  0  0  0  0  0  0  0  0
   15.5422  -15.5920   22.7527 O   0  0  0  0  0  0  0  0  0  0  0  0
   11.4775  -17.3844   26.2442 O   0  0  0  0  0  0  0  0  0  0  0  0
  2  1  1  0
  3  2  1  0
  4  3  1  0
  4  5  1  0
  5  6  1  1
  5  1  1  0
  6  8  1  0
  7  6  2  0
  8  9  1  0
  9 13  1  0
  9 10  1  6
 10 11  1  0
 11 12  2  0
 13 16  1  0
 13 14  2  0
 15 11  1  0
 16 17  1  0
 17 21  1  0
 17 18  1  1
 19 18  1  0
 20 19  2  0
 21 22  2  0
 21 24  1  0
 23 19  1  0
M  END
$$$$
