PDD.pdb
     RDKit          3D

 24 24  0  0  1  0  0  0  0  0999 V2000
    9.2388  -13.4579   18.1381 N   0  0  0  0  0  0  0  0  0  0  0  0
    8.0334  -13.3770   17.3455 C   0  0  0  0  0  0  0  0  0  0  0  0
    6.9912  -12.9345   18.3194 C   0  0  0  0  0  0  0  0  0  0  0  0
    7.3744  -13.7499   19.5590 C   0  0  0  0  0  0  0  0  0  0  0  0
    8.8853  -13.6774   19.4972 C   0  0  1  0  0  0  0  0  0  0  0  0
    9.5549  -14.8734   20.0522 C   0  0  0  0  0  0  0  0  0  0  0  0
    9.1790  -15.3826   21.1347 O   0  0  0  0  0  0  0  0  0  0  0  0
   10.6539  -15.5009   19.3866 N   0  0  0  0  0  0  0  0  0  0  0  0
   11.3493  -16.6448   19.9067 C   0  0  1  0  0  0  0  0  0  0  0  0
   11.9285  -17.5244   18.8262 C   0  0  0  0  0  0  0  0  0  0  0  0
   10.8761  -18.2445   18.0701 C   0  0  0  0  0  0  0  0  0  0  0  0
    9.8162  -18.6269   18.5801 O   0  0  0  0  0  0  0  0  0  0  0  0
   12.3820  -16.2581   20.9150 C   0  0  0  0  0  0  0  0  0  0  0  0
   13.1627  -15.3203   20.6228 O   0  0  0  0  0  0  0  0  0  0  0  0
   11.0988  -18.4980   16.7249 O   0  0  0  0  0  0  0  0  0  0  0  0
   12.5296  -16.8830   22.1701 N   0  0  0  0  0  0  0  0  0  0  0  0
   13.5052  -16.5441   23.1658 C   0  0  1  0  0  0  0  0  0  0  0  0
   13.1482  -17.0411   24.5435 C   0  0  0  0  0  0  0  0  0  0  0  0
   14.1454  -16.6787   25.5586 C   0  0  0  0  0  0  0  0  0  0  0  0
   15.1089  -15.9433   25.2263 O   0  0  0  0  0  0  0  0  0  0  0  0
   14.8810  -16.9427   22.7967 C   0  0  0  0  0  0  0  0  0  0  0  0
   15.1097  -18.1568   22.6030 O   0  0  0  0  0  0  0  0  0  0  0  0
   14.0481  -17.1266   26.8664 O   0  0  0  0  0  0  0  0  0  0  0  0
   15.8785  -16.0289   22.6679 O   0  0  0  0  0  0  0  0  0  0  0  0
  2  1  1  0
  3  2  1  0
  4  3  1  0
  4  5  1  0
  5  6  1  6
  5  1  1  0
  6  8  1  0
  7  6  2  0
  8  9  1  0
  9 13  1  0
  9 10  1  6
 10 11  1  0
 11 12  2  0
 13 16  1  0
 13 14  2  0
 15 11  1  0
 16 17  1  0
 17 21  1  0
 17 18  1  1
 19 18  1  0
 20 19  2  0
 21 22  2  0
 21 24  1  0
 23 19  1  0
M  END
$$$$
