PDD.pdb
     RDKit          3D

 24 24  0  0  1  0  0  0  0  0999 V2000
    9.0621  -14.2984   18.2188 N   0  0  0  0  0  0  0  0  0  0  0  0
    7.8746  -14.0596   17.4310 C   0  0  0  0  0  0  0  0  0  0  0  0
    7.3232  -12.7881   17.9875 C   0  0  0  0  0  0  0  0  0  0  0  0
    7.5588  -12.9909   19.4881 C   0  0  0  0  0  0  0  0  0  0  0  0
    8.9175  -13.6585   19.4798 C   0  0  1  0  0  0  0  0  0  0  0  0
    9.1158  -14.6029   20.6004 C   0  0  0  0  0  0  0  0  0  0  0  0
    8.8664  -14.2670   21.7826 O   0  0  0  0  0  0  0  0  0  0  0  0
    9.5976  -15.9328   20.3912 N   0  0  0  0  0  0  0  0  0  0  0  0
    9.7117  -16.9101   21.4374 C   0  0  1  0  0  0  0  0  0  0  0  0
    9.0046  -18.2037   21.1156 C   0  0  0  0  0  0  0  0  0  0  0  0
    9.0224  -19.1476   22.2587 C   0  0  0  0  0  0  0  0  0  0  0  0
    9.1647  -18.7876   23.4333 O   0  0  0  0  0  0  0  0  0  0  0  0
   11.1346  -17.1427   21.8298 C   0  0  0  0  0  0  0  0  0  0  0  0
   11.8180  -17.9191   21.1196 O   0  0  0  0  0  0  0  0  0  0  0  0
    8.8712  -20.4996   21.9889 O   0  0  0  0  0  0  0  0  0  0  0  0
   11.7511  -16.5431   22.9468 N   0  0  0  0  0  0  0  0  0  0  0  0
   13.0448  -16.8764   23.4698 C   0  0  1  0  0  0  0  0  0  0  0  0
   14.0437  -15.7538   23.3493 C   0  0  0  0  0  0  0  0  0  0  0  0
   14.6843  -15.6973   22.0292 C   0  0  0  0  0  0  0  0  0  0  0  0
   14.6426  -16.7139   21.2913 O   0  0  0  0  0  0  0  0  0  0  0  0
   12.9997  -17.4020   24.8517 C   0  0  0  0  0  0  0  0  0  0  0  0
   11.9097  -17.3572   25.4628 O   0  0  0  0  0  0  0  0  0  0  0  0
   15.3295  -14.5555   21.5819 O   0  0  0  0  0  0  0  0  0  0  0  0
   14.1016  -17.9215   25.4538 O   0  0  0  0  0  0  0  0  0  0  0  0
  2  1  1  0
  3  2  1  0
  4  3  1  0
  4  5  1  0
  5  6  1  1
  5  1  1  0
  6  8  1  0
  7  6  2  0
  8  9  1  0
  9 13  1  0
  9 10  1  6
 10 11  1  0
 11 12  2  0
 13 16  1  0
 13 14  2  0
 15 11  1  0
 16 17  1  0
 17 21  1  0
 17 18  1  1
 19 18  1  0
 20 19  2  0
 21 22  2  0
 21 24  1  0
 23 19  1  0
M  END
$$$$
