YQK.pdb
     RDKit          3D

 31 31  0  0  1  0  0  0  0  0999 V2000
    6.8813  -10.7403   28.5286 O   0  0  0  0  0  0  0  0  0  0  0  0
    7.0206  -11.4939   27.3666 C   0  0  0  0  0  0  0  0  0  0  0  0
    5.9149  -12.1494   26.8996 C   0  0  0  0  0  0  0  0  0  0  0  0
    5.9823  -12.9008   25.7728 C   0  0  0  0  0  0  0  0  0  0  0  0
    7.1646  -13.0129   25.0854 C   0  0  0  0  0  0  0  0  0  0  0  0
    7.2371  -13.8352   23.8529 C   0  0  0  0  0  0  0  0  0  0  0  0
    7.7120  -15.2427   24.2168 C   0  0  2  0  0  0  0  0  0  0  0  0
    9.0561  -15.1730   24.7082 N   0  0  0  0  0  0  0  0  0  0  0  0
    7.6531  -16.0240   22.9314 C   0  0  0  0  0  0  0  0  0  0  0  0
    6.5661  -16.3347   22.3899 O   0  0  0  0  0  0  0  0  0  0  0  0
    8.2729  -12.3611   25.5458 C   0  0  0  0  0  0  0  0  0  0  0  0
    8.2047  -11.6091   26.6739 C   0  0  0  0  0  0  0  0  0  0  0  0
    7.1616  -13.3019   19.6030 N   0  0  0  0  0  0  0  0  0  0  0  0
    7.8515  -14.4913   19.3014 C   0  0  0  0  0  0  0  0  0  0  0  0
    7.4467  -15.2038   18.3565 O   0  0  0  0  0  0  0  0  0  0  0  0
    9.0665  -14.9345   20.0841 C   0  0  0  0  0  0  0  0  0  0  0  0
    9.2023  -16.3914   19.9122 C   0  0  0  0  0  0  0  0  0  0  0  0
    8.8618  -17.2545   21.0712 C   0  0  2  0  0  0  0  0  0  0  0  0
    8.8478  -16.4301   22.2981 N   0  0  0  0  0  0  0  0  0  0  0  0
    9.7332  -18.3818   21.3710 C   0  0  0  0  0  0  0  0  0  0  0  0
    9.9121  -19.2774   20.5101 O   0  0  0  0  0  0  0  0  0  0  0  0
   10.3950  -18.4974   22.6080 N   0  0  0  0  0  0  0  0  0  0  0  0
   11.1793  -19.7378   22.9366 C   0  0  1  0  0  0  0  0  0  0  0  0
   12.5949  -19.3470   22.8656 C   0  0  0  0  0  0  0  0  0  0  0  0
   13.2689  -18.9036   21.6654 C   0  0  0  0  0  0  0  0  0  0  0  0
   14.6897  -18.6039   21.5509 C   0  0  0  0  0  0  0  0  0  0  0  0
   15.1267  -18.0599   20.2491 C   0  0  0  0  0  0  0  0  0  0  0  0
   16.5638  -17.7378   20.2490 N   0  0  0  0  0  0  0  0  0  0  0  0
   10.8169  -20.1435   24.3188 C   0  0  0  0  0  0  0  0  0  0  0  0
   11.3157  -21.1944   24.7865 O   0  0  0  0  0  0  0  0  0  0  0  0
    9.9371  -19.3654   25.0776 O   0  0  0  0  0  0  0  0  0  0  0  0
  2  1  1  0
  3  2  2  0
  4  3  1  0
  5 11  1  0
  5  4  2  0
  6  5  1  0
  7  9  1  0
  7  6  1  0
  7  8  1  6
  9 10  2  0
 11 12  2  0
 12  2  1  0
 13 14  1  0
 14 15  2  0
 16 14  1  0
 17 16  1  0
 18 17  1  6
 19 18  1  0
 19  9  1  0
 20 18  1  0
 21 20  2  0
 22 20  1  0
 23 29  1  0
 23 22  1  0
 23 24  1  1
 25 24  1  0
 26 25  1  0
 26 27  1  0
 27 28  1  0
 29 31  1  0
 30 29  2  0
M  END
$$$$
