YQK.pdb
     RDKit          3D

 31 31  0  0  1  0  0  0  0  0999 V2000
    7.4653  -12.4892   15.7472 O   0  0  0  0  0  0  0  0  0  0  0  0
    7.5440  -13.2209   16.9288 C   0  0  0  0  0  0  0  0  0  0  0  0
    7.3012  -12.5598   18.1011 C   0  0  0  0  0  0  0  0  0  0  0  0
    7.3615  -13.2136   19.2876 C   0  0  0  0  0  0  0  0  0  0  0  0
    7.6678  -14.5506   19.3263 C   0  0  0  0  0  0  0  0  0  0  0  0
    7.7334  -15.2648   20.6248 C   0  0  0  0  0  0  0  0  0  0  0  0
    8.1063  -16.7267   20.3743 C   0  0  2  0  0  0  0  0  0  0  0  0
    7.0124  -17.3863   19.7253 N   0  0  0  0  0  0  0  0  0  0  0  0
    8.3485  -17.3120   21.7400 C   0  0  0  0  0  0  0  0  0  0  0  0
    7.6141  -18.2066   22.2211 O   0  0  0  0  0  0  0  0  0  0  0  0
    7.9114  -15.2172   18.1595 C   0  0  0  0  0  0  0  0  0  0  0  0
    7.8509  -14.5621   16.9721 C   0  0  0  0  0  0  0  0  0  0  0  0
   10.6831  -21.6012   23.4333 N   0  0  0  0  0  0  0  0  0  0  0  0
   11.4520  -20.7534   22.6136 C   0  0  0  0  0  0  0  0  0  0  0  0
   12.3368  -21.2539   21.8850 O   0  0  0  0  0  0  0  0  0  0  0  0
   11.2414  -19.2567   22.5866 C   0  0  0  0  0  0  0  0  0  0  0  0
   10.1289  -18.9450   23.5008 C   0  0  0  0  0  0  0  0  0  0  0  0
    9.8472  -17.5138   23.7769 C   0  0  2  0  0  0  0  0  0  0  0  0
    9.4315  -16.8536   22.5212 N   0  0  0  0  0  0  0  0  0  0  0  0
   10.9223  -16.6898   24.3111 C   0  0  0  0  0  0  0  0  0  0  0  0
   12.0485  -16.6990   23.7573 O   0  0  0  0  0  0  0  0  0  0  0  0
   10.7348  -15.8681   25.4386 N   0  0  0  0  0  0  0  0  0  0  0  0
   11.7369  -15.8773   26.5599 C   0  0  1  0  0  0  0  0  0  0  0  0
   10.9799  -16.2276   27.7707 C   0  0  0  0  0  0  0  0  0  0  0  0
   11.5734  -16.6192   29.0299 C   0  0  0  0  0  0  0  0  0  0  0  0
   10.8430  -16.9657   30.2415 C   0  0  0  0  0  0  0  0  0  0  0  0
   11.6705  -17.2137   31.4395 C   0  0  0  0  0  0  0  0  0  0  0  0
   10.8422  -17.5004   32.6230 N   0  0  0  0  0  0  0  0  0  0  0  0
   12.7445  -16.9243   26.2512 C   0  0  0  0  0  0  0  0  0  0  0  0
   13.9400  -16.5801   26.0956 O   0  0  0  0  0  0  0  0  0  0  0  0
   12.3613  -18.2643   26.1376 O   0  0  0  0  0  0  0  0  0  0  0  0
  2  1  1  0
  3  2  2  0
  4  3  1  0
  5 11  1  0
  5  4  2  0
  6  5  1  0
  7  9  1  0
  7  6  1  0
  7  8  1  1
  9 10  2  0
 11 12  2  0
 12  2  1  0
 13 14  1  0
 14 15  2  0
 16 14  1  0
 17 16  1  0
 18 17  1  6
 19 18  1  0
 19  9  1  0
 20 18  1  0
 21 20  2  0
 22 20  1  0
 23 29  1  0
 23 22  1  0
 23 24  1  1
 25 24  1  0
 26 25  1  0
 26 27  1  0
 27 28  1  0
 29 31  1  0
 30 29  2  0
M  END
$$$$
