YQK.pdb
     RDKit          3D

 31 31  0  0  1  0  0  0  0  0999 V2000
    8.6996  -13.1912   17.8836 O   0  0  0  0  0  0  0  0  0  0  0  0
    8.2962  -13.2975   19.2116 C   0  0  0  0  0  0  0  0  0  0  0  0
    7.3960  -14.2785   19.5241 C   0  0  0  0  0  0  0  0  0  0  0  0
    6.9617  -14.4363   20.7990 C   0  0  0  0  0  0  0  0  0  0  0  0
    7.4217  -13.6109   21.7940 C   0  0  0  0  0  0  0  0  0  0  0  0
    6.9460  -13.7845   23.1882 C   0  0  0  0  0  0  0  0  0  0  0  0
    7.9880  -14.5776   23.9781 C   0  0  2  0  0  0  0  0  0  0  0  0
    9.2599  -13.9281   23.8628 N   0  0  0  0  0  0  0  0  0  0  0  0
    8.0222  -15.9371   23.3325 C   0  0  0  0  0  0  0  0  0  0  0  0
    7.0697  -16.7459   23.4320 O   0  0  0  0  0  0  0  0  0  0  0  0
    8.3208  -12.6291   21.4892 C   0  0  0  0  0  0  0  0  0  0  0  0
    8.7551  -12.4717   20.2128 C   0  0  0  0  0  0  0  0  0  0  0  0
    8.2846  -17.3242   18.1217 N   0  0  0  0  0  0  0  0  0  0  0  0
    8.3999  -18.6598   18.5512 C   0  0  0  0  0  0  0  0  0  0  0  0
    8.4374  -19.5707   17.6949 O   0  0  0  0  0  0  0  0  0  0  0  0
    8.4797  -19.0277   20.0153 C   0  0  0  0  0  0  0  0  0  0  0  0
    8.4293  -17.7779   20.7938 C   0  0  0  0  0  0  0  0  0  0  0  0
    9.2893  -17.6851   22.0003 C   0  0  2  0  0  0  0  0  0  0  0  0
    9.1528  -16.3349   22.5865 N   0  0  0  0  0  0  0  0  0  0  0  0
   10.7213  -17.8978   21.8446 C   0  0  0  0  0  0  0  0  0  0  0  0
   11.1396  -18.9474   21.2983 O   0  0  0  0  0  0  0  0  0  0  0  0
   11.6629  -16.9492   22.2864 N   0  0  0  0  0  0  0  0  0  0  0  0
   13.1171  -17.1023   21.9350 C   0  0  1  0  0  0  0  0  0  0  0  0
   13.4260  -15.9959   21.0173 C   0  0  0  0  0  0  0  0  0  0  0  0
   14.7102  -15.7801   20.3884 C   0  0  0  0  0  0  0  0  0  0  0  0
   15.0500  -14.6677   19.5116 C   0  0  0  0  0  0  0  0  0  0  0  0
   16.4557  -14.6133   19.0614 C   0  0  0  0  0  0  0  0  0  0  0  0
   16.7395  -13.3776   18.3122 N   0  0  0  0  0  0  0  0  0  0  0  0
   13.8974  -16.9729   23.1923 C   0  0  0  0  0  0  0  0  0  0  0  0
   13.3128  -16.5621   24.2225 O   0  0  0  0  0  0  0  0  0  0  0  0
   15.2558  -17.3037   23.2199 O   0  0  0  0  0  0  0  0  0  0  0  0
  2  1  1  0
  3  2  2  0
  4  3  1  0
  5 11  1  0
  5  4  2  0
  6  5  1  0
  7  9  1  0
  7  6  1  0
  7  8  1  6
  9 10  2  0
 11 12  2  0
 12  2  1  0
 13 14  1  0
 14 15  2  0
 16 14  1  0
 17 16  1  0
 18 17  1  6
 19 18  1  0
 19  9  1  0
 20 18  1  0
 21 20  2  0
 22 20  1  0
 23 29  1  0
 23 22  1  0
 23 24  1  6
 25 24  1  0
 26 25  1  0
 26 27  1  0
 27 28  1  0
 29 31  1  0
 30 29  2  0
M  END
$$$$
