YQK.pdb
     RDKit          3D

 31 31  0  0  1  0  0  0  0  0999 V2000
    3.6149  -24.0589   18.4594 O   0  0  0  0  0  0  0  0  0  0  0  0
    4.8994  -23.6038   18.1758 C   0  0  0  0  0  0  0  0  0  0  0  0
    5.9505  -24.3806   18.5785 C   0  0  0  0  0  0  0  0  0  0  0  0
    7.2274  -23.9951   18.3337 C   0  0  0  0  0  0  0  0  0  0  0  0
    7.4809  -22.8174   17.6767 C   0  0  0  0  0  0  0  0  0  0  0  0
    8.8781  -22.3968   17.4094 C   0  0  0  0  0  0  0  0  0  0  0  0
    9.1035  -22.3390   15.8979 C   0  0  2  0  0  0  0  0  0  0  0  0
    8.8565  -23.6336   15.3358 N   0  0  0  0  0  0  0  0  0  0  0  0
   10.5478  -21.9500   15.7286 C   0  0  0  0  0  0  0  0  0  0  0  0
   11.4387  -22.7927   15.4689 O   0  0  0  0  0  0  0  0  0  0  0  0
    6.4362  -22.0366   17.2716 C   0  0  0  0  0  0  0  0  0  0  0  0
    5.1583  -22.4230   17.5171 C   0  0  0  0  0  0  0  0  0  0  0  0
   10.7634  -16.8276   12.8606 N   0  0  0  0  0  0  0  0  0  0  0  0
   11.9711  -17.5321   13.0246 C   0  0  0  0  0  0  0  0  0  0  0  0
   13.0469  -16.9680   12.7268 O   0  0  0  0  0  0  0  0  0  0  0  0
   12.0082  -18.9493   13.5494 C   0  0  0  0  0  0  0  0  0  0  0  0
   12.3855  -18.8895   14.9723 C   0  0  0  0  0  0  0  0  0  0  0  0
   12.3394  -20.1539   15.7489 C   0  0  2  0  0  0  0  0  0  0  0  0
   10.9341  -20.5986   15.8622 N   0  0  0  0  0  0  0  0  0  0  0  0
   12.8550  -20.1461   17.1105 C   0  0  0  0  0  0  0  0  0  0  0  0
   14.0318  -19.7686   17.3290 O   0  0  0  0  0  0  0  0  0  0  0  0
   12.0642  -20.5469   18.2039 N   0  0  0  0  0  0  0  0  0  0  0  0
   12.6421  -20.5668   19.5921 C   0  0  1  0  0  0  0  0  0  0  0  0
   11.4924  -20.6667   20.5031 C   0  0  0  0  0  0  0  0  0  0  0  0
   11.5879  -20.8249   21.9374 C   0  0  0  0  0  0  0  0  0  0  0  0
   10.4658  -20.8464   22.8659 C   0  0  0  0  0  0  0  0  0  0  0  0
   10.8051  -21.1349   24.2741 C   0  0  0  0  0  0  0  0  0  0  0  0
    9.6144  -21.0941   25.1399 N   0  0  0  0  0  0  0  0  0  0  0  0
   13.5028  -21.7725   19.7015 C   0  0  0  0  0  0  0  0  0  0  0  0
   13.2061  -22.7856   19.0251 O   0  0  0  0  0  0  0  0  0  0  0  0
   14.6194  -21.7716   20.5433 O   0  0  0  0  0  0  0  0  0  0  0  0
  2  1  1  0
  3  2  2  0
  4  3  1  0
  5 11  1  0
  5  4  2  0
  6  5  1  0
  7  9  1  0
  7  6  1  0
  7  8  1  1
  9 10  2  0
 11 12  2  0
 12  2  1  0
 13 14  1  0
 14 15  2  0
 16 14  1  0
 17 16  1  0
 18 17  1  1
 19 18  1  0
 19  9  1  0
 20 18  1  0
 21 20  2  0
 22 20  1  0
 23 29  1  0
 23 22  1  0
 23 24  1  1
 25 24  1  0
 26 25  1  0
 26 27  1  0
 27 28  1  0
 29 31  1  0
 30 29  2  0
M  END
$$$$
