YQK.pdb
     RDKit          3D

 31 31  0  0  1  0  0  0  0  0999 V2000
    5.4620  -10.5522   28.0641 O   0  0  0  0  0  0  0  0  0  0  0  0
    5.9767  -11.7086   27.4850 C   0  0  0  0  0  0  0  0  0  0  0  0
    7.1510  -12.1995   27.9851 C   0  0  0  0  0  0  0  0  0  0  0  0
    7.7065  -13.3225   27.4663 C   0  0  0  0  0  0  0  0  0  0  0  0
    7.0950  -13.9819   26.4298 C   0  0  0  0  0  0  0  0  0  0  0  0
    7.7036  -15.2102   25.8631 C   0  0  0  0  0  0  0  0  0  0  0  0
    6.6935  -15.8881   24.9361 C   0  0  2  0  0  0  0  0  0  0  0  0
    6.1680  -17.0526   25.5846 N   0  0  0  0  0  0  0  0  0  0  0  0
    7.4775  -16.2684   23.7085 C   0  0  0  0  0  0  0  0  0  0  0  0
    7.9247  -17.4266   23.5360 O   0  0  0  0  0  0  0  0  0  0  0  0
    5.9220  -13.4974   25.9253 C   0  0  0  0  0  0  0  0  0  0  0  0
    5.3665  -12.3732   26.4452 C   0  0  0  0  0  0  0  0  0  0  0  0
    8.0686  -12.3566   18.4013 N   0  0  0  0  0  0  0  0  0  0  0  0
    8.2352  -13.7399   18.2010 C   0  0  0  0  0  0  0  0  0  0  0  0
    7.7671  -14.2632   17.1659 O   0  0  0  0  0  0  0  0  0  0  0  0
    8.9623  -14.6131   19.1982 C   0  0  0  0  0  0  0  0  0  0  0  0
    8.2284  -14.5419   20.4736 C   0  0  0  0  0  0  0  0  0  0  0  0
    8.4723  -15.6174   21.4675 C   0  0  2  0  0  0  0  0  0  0  0  0
    7.7289  -15.3059   22.7067 N   0  0  0  0  0  0  0  0  0  0  0  0
    9.8430  -15.8683   21.8897 C   0  0  0  0  0  0  0  0  0  0  0  0
   10.3603  -15.1548   22.7833 O   0  0  0  0  0  0  0  0  0  0  0  0
   10.6138  -16.9024   21.3258 N   0  0  0  0  0  0  0  0  0  0  0  0
   12.0185  -17.1490   21.8027 C   0  0  1  0  0  0  0  0  0  0  0  0
   12.2029  -18.6073   21.7687 C   0  0  0  0  0  0  0  0  0  0  0  0
   13.4414  -19.2893   22.0723 C   0  0  0  0  0  0  0  0  0  0  0  0
   13.6584  -20.7278   21.9998 C   0  0  0  0  0  0  0  0  0  0  0  0
   14.9832  -21.1993   22.4517 C   0  0  0  0  0  0  0  0  0  0  0  0
   15.0710  -21.2482   23.9210 N   0  0  0  0  0  0  0  0  0  0  0  0
   12.9394  -16.4825   20.8465 C   0  0  0  0  0  0  0  0  0  0  0  0
   12.6090  -16.4204   19.6386 O   0  0  0  0  0  0  0  0  0  0  0  0
   14.1484  -15.9377   21.2903 O   0  0  0  0  0  0  0  0  0  0  0  0
  2  1  1  0
  3  2  2  0
  4  3  1  0
  5 11  1  0
  5  4  2  0
  6  5  1  0
  7  9  1  0
  7  6  1  0
  7  8  1  1
  9 10  2  0
 11 12  2  0
 12  2  1  0
 13 14  1  0
 14 15  2  0
 16 14  1  0
 17 16  1  0
 18 17  1  6
 19 18  1  0
 19  9  1  0
 20 18  1  0
 21 20  2  0
 22 20  1  0
 23 29  1  0
 23 22  1  0
 23 24  1  6
 25 24  1  0
 26 25  1  0
 26 27  1  0
 27 28  1  0
 29 31  1  0
 30 29  2  0
M  END
$$$$
