GEN.pdb
     RDKit          3D

 22 21  0  0  1  0  0  0  0  0999 V2000
   27.1859  -23.5385  -17.0858 N   0  0  0  0  0  0  0  0  0  0  0  0
   26.9445  -22.2882  -16.3984 C   0  0  0  0  0  0  0  0  0  0  0  0
   25.9651  -22.5164  -15.2903 C   0  0  0  0  0  0  0  0  0  0  0  0
   25.2879  -23.5580  -15.2722 O   0  0  0  0  0  0  0  0  0  0  0  0
   25.7897  -21.5653  -14.2485 N   0  0  0  0  0  0  0  0  0  0  0  0
   24.8686  -21.7245  -13.1561 C   0  0  1  0  0  0  0  0  0  0  0  0
   25.4550  -21.0786  -11.9503 C   0  0  0  0  0  0  0  0  0  0  0  0
   24.6034  -21.3171  -10.7498 C   0  0  0  0  0  0  0  0  0  0  0  0
   25.1241  -20.7626   -9.4878 C   0  0  0  0  0  0  0  0  0  0  0  0
   25.9962  -19.8788   -9.5165 O   0  0  0  0  0  0  0  0  0  0  0  0
   23.5413  -21.1149  -13.4847 C   0  0  0  0  0  0  0  0  0  0  0  0
   23.4170  -19.9479  -13.9315 O   0  0  0  0  0  0  0  0  0  0  0  0
   24.6880  -21.1774   -8.2359 O   0  0  0  0  0  0  0  0  0  0  0  0
   20.9085  -20.8693  -16.4564 N   0  0  0  0  0  0  0  0  0  0  0  0
   20.2345  -22.0078  -15.9374 C   0  0  0  0  0  0  0  0  0  0  0  0
   19.7228  -22.7924  -16.7742 O   0  0  0  0  0  0  0  0  0  0  0  0
   20.1704  -22.2054  -14.4754 C   0  0  0  0  0  0  0  0  0  0  0  0
   21.0501  -21.2823  -13.6840 C   0  0  2  0  0  0  0  0  0  0  0  0
   22.3170  -21.8245  -13.3126 N   0  0  0  0  0  0  0  0  0  0  0  0
   20.3206  -20.7144  -12.5558 C   0  0  0  0  0  0  0  0  0  0  0  0
   20.5179  -21.0780  -11.3696 O   0  0  0  0  0  0  0  0  0  0  0  0
   19.3657  -19.7212  -12.8577 O   0  0  0  0  0  0  0  0  0  0  0  0
  1  2  1  0
  2  3  1  0
  3  5  1  0
  3  4  2  0
  5  6  1  0
  6 11  1  0
  6  7  1  1
  8  7  1  0
  9  8  1  0
 10  9  2  0
 11 19  1  0
 11 12  2  0
 13  9  1  0
 14 15  1  0
 15 17  1  0
 16 15  2  0
 18 17  1  1
 18 20  1  0
 19 18  1  0
 20 22  1  0
 21 20  2  0
M  END
$$$$
