GEN.pdb
     RDKit          3D

 22 21  0  0  1  0  0  0  0  0999 V2000
   15.1701  -12.5138  -14.8390 N   0  0  0  0  0  0  0  0  0  0  0  0
   15.5078  -11.1126  -14.9694 C   0  0  0  0  0  0  0  0  0  0  0  0
   16.9934  -10.9542  -14.8855 C   0  0  0  0  0  0  0  0  0  0  0  0
   17.5704  -11.1276  -13.7989 O   0  0  0  0  0  0  0  0  0  0  0  0
   17.7676  -10.6094  -16.0267 N   0  0  0  0  0  0  0  0  0  0  0  0
   19.1954  -10.4407  -16.0131 C   0  0  1  0  0  0  0  0  0  0  0  0
   19.7434  -10.9800  -17.2875 C   0  0  0  0  0  0  0  0  0  0  0  0
   19.8363  -12.4674  -17.2412 C   0  0  0  0  0  0  0  0  0  0  0  0
   20.3207  -13.1071  -18.4770 C   0  0  0  0  0  0  0  0  0  0  0  0
   21.4930  -13.5121  -18.5427 O   0  0  0  0  0  0  0  0  0  0  0  0
   19.5603   -8.9975  -15.8543 C   0  0  0  0  0  0  0  0  0  0  0  0
   18.9299   -8.0673  -16.4151 O   0  0  0  0  0  0  0  0  0  0  0  0
   19.5265  -13.2906  -19.6018 O   0  0  0  0  0  0  0  0  0  0  0  0
   21.7211   -4.5277  -14.4838 N   0  0  0  0  0  0  0  0  0  0  0  0
   21.9793   -5.4268  -13.4138 C   0  0  0  0  0  0  0  0  0  0  0  0
   22.5270   -4.9460  -12.3908 O   0  0  0  0  0  0  0  0  0  0  0  0
   21.6007   -6.8470  -13.5560 C   0  0  0  0  0  0  0  0  0  0  0  0
   21.0237   -7.2057  -14.8941 C   0  0  2  0  0  0  0  0  0  0  0  0
   20.6572   -8.5766  -15.0470 N   0  0  0  0  0  0  0  0  0  0  0  0
   21.8785   -6.7209  -15.9720 C   0  0  0  0  0  0  0  0  0  0  0  0
   22.5345   -7.4925  -16.7153 O   0  0  0  0  0  0  0  0  0  0  0  0
   21.9394   -5.3229  -16.1484 O   0  0  0  0  0  0  0  0  0  0  0  0
  1  2  1  0
  2  3  1  0
  3  5  1  0
  3  4  2  0
  5  6  1  0
  6 11  1  0
  6  7  1  6
  8  7  1  0
  9  8  1  0
 10  9  2  0
 11 19  1  0
 11 12  2  0
 13  9  1  0
 14 15  1  0
 15 17  1  0
 16 15  2  0
 18 17  1  1
 18 20  1  0
 19 18  1  0
 20 22  1  0
 21 20  2  0
M  END
$$$$
