GEN.pdb
     RDKit          3D

 22 21  0  0  1  0  0  0  0  0999 V2000
   16.0578   -9.8214  -10.4266 N   0  0  0  0  0  0  0  0  0  0  0  0
   15.6759   -9.6898  -11.8163 C   0  0  0  0  0  0  0  0  0  0  0  0
   16.9081   -9.6567  -12.6647 C   0  0  0  0  0  0  0  0  0  0  0  0
   17.9955  -10.0192  -12.1850 O   0  0  0  0  0  0  0  0  0  0  0  0
   16.8657   -9.2196  -14.0166 N   0  0  0  0  0  0  0  0  0  0  0  0
   18.0170   -9.1302  -14.8731 C   0  0  1  0  0  0  0  0  0  0  0  0
   17.5991   -9.4792  -16.2583 C   0  0  0  0  0  0  0  0  0  0  0  0
   18.7611   -9.4405  -17.1919 C   0  0  0  0  0  0  0  0  0  0  0  0
   18.9968  -10.6782  -17.9558 C   0  0  0  0  0  0  0  0  0  0  0  0
   18.5181  -10.7997  -19.0954 O   0  0  0  0  0  0  0  0  0  0  0  0
   18.6054   -7.7542  -14.8336 C   0  0  0  0  0  0  0  0  0  0  0  0
   17.9071   -6.7110  -14.8646 O   0  0  0  0  0  0  0  0  0  0  0  0
   19.7411  -11.7448  -17.4679 O   0  0  0  0  0  0  0  0  0  0  0  0
   22.0225   -3.8133  -12.8999 N   0  0  0  0  0  0  0  0  0  0  0  0
   22.4392   -4.7657  -13.8690 C   0  0  0  0  0  0  0  0  0  0  0  0
   23.3215   -4.3957  -14.6827 O   0  0  0  0  0  0  0  0  0  0  0  0
   21.8275   -6.1098  -13.8708 C   0  0  0  0  0  0  0  0  0  0  0  0
   20.5868   -6.2271  -14.7070 C   0  0  2  0  0  0  0  0  0  0  0  0
   20.0114   -7.5324  -14.7559 N   0  0  0  0  0  0  0  0  0  0  0  0
   20.7980   -5.6478  -16.0289 C   0  0  0  0  0  0  0  0  0  0  0  0
   21.2057   -6.3227  -17.0069 O   0  0  0  0  0  0  0  0  0  0  0  0
   20.5205   -4.2717  -16.1661 O   0  0  0  0  0  0  0  0  0  0  0  0
  1  2  1  0
  2  3  1  0
  3  5  1  0
  3  4  2  0
  5  6  1  0
  6 11  1  0
  6  7  1  6
  8  7  1  0
  9  8  1  0
 10  9  2  0
 11 19  1  0
 11 12  2  0
 13  9  1  0
 14 15  1  0
 15 17  1  0
 16 15  2  0
 18 17  1  6
 18 20  1  0
 19 18  1  0
 20 22  1  0
 21 20  2  0
M  END
$$$$
