GEN.pdb
     RDKit          3D

 22 21  0  0  1  0  0  0  0  0999 V2000
   14.8116  -13.9305  -12.9372 N   0  0  0  0  0  0  0  0  0  0  0  0
   15.2610  -13.2641  -11.7337 C   0  0  0  0  0  0  0  0  0  0  0  0
   15.1231  -11.7845  -11.9092 C   0  0  0  0  0  0  0  0  0  0  0  0
   14.4950  -11.3361  -12.8830 O   0  0  0  0  0  0  0  0  0  0  0  0
   15.6953  -10.8716  -10.9820 N   0  0  0  0  0  0  0  0  0  0  0  0
   15.5700   -9.4423  -11.0736 C   0  0  1  0  0  0  0  0  0  0  0  0
   14.1576   -9.0756  -10.7807 C   0  0  0  0  0  0  0  0  0  0  0  0
   13.7011   -9.6904   -9.5013 C   0  0  0  0  0  0  0  0  0  0  0  0
   12.3030   -9.4089   -9.1308 C   0  0  0  0  0  0  0  0  0  0  0  0
   11.5978   -8.7071   -9.8742 O   0  0  0  0  0  0  0  0  0  0  0  0
   16.4979   -8.7631  -10.1149 C   0  0  0  0  0  0  0  0  0  0  0  0
   17.1211   -9.3784   -9.2149 O   0  0  0  0  0  0  0  0  0  0  0  0
   11.7096   -9.8931   -7.9720 O   0  0  0  0  0  0  0  0  0  0  0  0
   20.5894   -5.8394   -9.2905 N   0  0  0  0  0  0  0  0  0  0  0  0
   20.4747   -6.7656  -10.3624 C   0  0  0  0  0  0  0  0  0  0  0  0
   21.5215   -7.0120  -11.0114 O   0  0  0  0  0  0  0  0  0  0  0  0
   19.1617   -7.3758  -10.6527 C   0  0  0  0  0  0  0  0  0  0  0  0
   18.0177   -6.7859   -9.8811 C   0  0  2  0  0  0  0  0  0  0  0  0
   16.7406   -7.3591  -10.1597 N   0  0  0  0  0  0  0  0  0  0  0  0
   18.0229   -5.3307   -9.9809 C   0  0  0  0  0  0  0  0  0  0  0  0
   18.4858   -4.5915   -9.0768 O   0  0  0  0  0  0  0  0  0  0  0  0
   17.4757   -4.7772  -11.1572 O   0  0  0  0  0  0  0  0  0  0  0  0
  1  2  1  0
  2  3  1  0
  3  5  1  0
  3  4  2  0
  5  6  1  0
  6 11  1  0
  6  7  1  1
  8  7  1  0
  9  8  1  0
 10  9  2  0
 11 19  1  0
 11 12  2  0
 13  9  1  0
 14 15  1  0
 15 17  1  0
 16 15  2  0
 18 17  1  6
 18 20  1  0
 19 18  1  0
 20 22  1  0
 21 20  2  0
M  END
$$$$
