GEN.pdb
     RDKit          3D

 22 21  0  0  1  0  0  0  0  0999 V2000
   23.7047  -20.4576   -9.3149 N   0  0  0  0  0  0  0  0  0  0  0  0
   24.8697  -21.0204   -9.9632 C   0  0  0  0  0  0  0  0  0  0  0  0
   25.0747  -20.3436  -11.2819 C   0  0  0  0  0  0  0  0  0  0  0  0
   24.9951  -19.1059  -11.3575 O   0  0  0  0  0  0  0  0  0  0  0  0
   25.3622  -21.0862  -12.4594 N   0  0  0  0  0  0  0  0  0  0  0  0
   25.6513  -20.4942  -13.7373 C   0  0  1  0  0  0  0  0  0  0  0  0
   26.5915  -21.3883  -14.4664 C   0  0  0  0  0  0  0  0  0  0  0  0
   26.9435  -20.8195  -15.7991 C   0  0  0  0  0  0  0  0  0  0  0  0
   27.9037  -21.6111  -16.5881 C   0  0  0  0  0  0  0  0  0  0  0  0
   28.3210  -21.1714  -17.6721 O   0  0  0  0  0  0  0  0  0  0  0  0
   24.3962  -20.2953  -14.5289 C   0  0  0  0  0  0  0  0  0  0  0  0
   23.5321  -21.1942  -14.6774 O   0  0  0  0  0  0  0  0  0  0  0  0
   28.3840  -22.8501  -16.1836 O   0  0  0  0  0  0  0  0  0  0  0  0
   20.3721  -17.8785  -15.1646 N   0  0  0  0  0  0  0  0  0  0  0  0
   21.2510  -16.9560  -15.7941 C   0  0  0  0  0  0  0  0  0  0  0  0
   20.8271  -15.7833  -15.9443 O   0  0  0  0  0  0  0  0  0  0  0  0
   22.5859  -17.4124  -16.2304 C   0  0  0  0  0  0  0  0  0  0  0  0
   22.8887  -18.8465  -15.9082 C   0  0  2  0  0  0  0  0  0  0  0  0
   24.0931  -19.0600  -15.1726 N   0  0  0  0  0  0  0  0  0  0  0  0
   22.7977  -19.6753  -17.1051 C   0  0  0  0  0  0  0  0  0  0  0  0
   23.7897  -19.9216  -17.8353 O   0  0  0  0  0  0  0  0  0  0  0  0
   21.5249  -20.1983  -17.4148 O   0  0  0  0  0  0  0  0  0  0  0  0
  1  2  1  0
  2  3  1  0
  3  5  1  0
  3  4  2  0
  5  6  1  0
  6 11  1  0
  6  7  1  6
  8  7  1  0
  9  8  1  0
 10  9  2  0
 11 19  1  0
 11 12  2  0
 13  9  1  0
 14 15  1  0
 15 17  1  0
 16 15  2  0
 18 17  1  6
 18 20  1  0
 19 18  1  0
 20 22  1  0
 21 20  2  0
M  END
$$$$
