GEN.pdb
     RDKit          3D

 22 21  0  0  1  0  0  0  0  0999 V2000
   29.5495  -25.3233  -16.1205 N   0  0  0  0  0  0  0  0  0  0  0  0
   28.5184  -24.9044  -17.0455 C   0  0  0  0  0  0  0  0  0  0  0  0
   27.9348  -23.6081  -16.5785 C   0  0  0  0  0  0  0  0  0  0  0  0
   28.2468  -23.1591  -15.4627 O   0  0  0  0  0  0  0  0  0  0  0  0
   27.0269  -22.8704  -17.3860 N   0  0  0  0  0  0  0  0  0  0  0  0
   26.4910  -21.5844  -17.0305 C   0  0  1  0  0  0  0  0  0  0  0  0
   26.3756  -20.7661  -18.2684 C   0  0  0  0  0  0  0  0  0  0  0  0
   25.8802  -19.3946  -17.9570 C   0  0  0  0  0  0  0  0  0  0  0  0
   25.7738  -18.4860  -19.1121 C   0  0  0  0  0  0  0  0  0  0  0  0
   26.5254  -17.5004  -19.1922 O   0  0  0  0  0  0  0  0  0  0  0  0
   25.1553  -21.7275  -16.3699 C   0  0  0  0  0  0  0  0  0  0  0  0
   24.2462  -22.4682  -16.8194 O   0  0  0  0  0  0  0  0  0  0  0  0
   24.8618  -18.6687  -20.1438 O   0  0  0  0  0  0  0  0  0  0  0  0
   21.6694  -20.0547  -11.6540 N   0  0  0  0  0  0  0  0  0  0  0  0
   22.3269  -21.1192  -12.3279 C   0  0  0  0  0  0  0  0  0  0  0  0
   21.7760  -22.2468  -12.2770 O   0  0  0  0  0  0  0  0  0  0  0  0
   23.5950  -20.8524  -13.0360 C   0  0  0  0  0  0  0  0  0  0  0  0
   23.5790  -21.2057  -14.4945 C   0  0  2  0  0  0  0  0  0  0  0  0
   24.8217  -21.0276  -15.1737 N   0  0  0  0  0  0  0  0  0  0  0  0
   22.4618  -20.5565  -15.1711 C   0  0  0  0  0  0  0  0  0  0  0  0
   22.5356  -19.3914  -15.6351 O   0  0  0  0  0  0  0  0  0  0  0  0
   21.2719  -21.3053  -15.2846 O   0  0  0  0  0  0  0  0  0  0  0  0
  1  2  1  0
  2  3  1  0
  3  5  1  0
  3  4  2  0
  5  6  1  0
  6 11  1  0
  6  7  1  6
  8  7  1  0
  9  8  1  0
 10  9  2  0
 11 19  1  0
 11 12  2  0
 13  9  1  0
 14 15  1  0
 15 17  1  0
 16 15  2  0
 18 17  1  1
 18 20  1  0
 19 18  1  0
 20 22  1  0
 21 20  2  0
M  END
$$$$
