AFS.pdb
     RDKit          3D

 23 23  0  0  1  0  0  0  0  0999 V2000
   26.6195  -20.5983  -17.9041 C   0  0  0  0  0  0  0  0  0  0  0  0
   27.6434  -21.0198  -16.8838 C   0  0  2  0  0  0  0  0  0  0  0  0
   28.4460  -22.0925  -17.3941 N   0  0  0  0  0  0  0  0  0  0  0  0
   26.9956  -21.3746  -15.5938 C   0  0  0  0  0  0  0  0  0  0  0  0
   26.4670  -22.5061  -15.4552 O   0  0  0  0  0  0  0  0  0  0  0  0
   26.9405  -20.4914  -14.4920 N   0  0  0  0  0  0  0  0  0  0  0  0
   26.3200  -20.8413  -13.2288 C   0  0  1  0  0  0  0  0  0  0  0  0
   26.9372  -19.9673  -12.1791 C   0  0  0  0  0  0  0  0  0  0  0  0
   26.3923  -20.1295  -10.8185 C   0  0  0  0  0  0  0  0  0  0  0  0
   25.2600  -19.4851  -10.3710 C   0  0  0  0  0  0  0  0  0  0  0  0
   24.7814  -19.6818   -9.0701 C   0  0  0  0  0  0  0  0  0  0  0  0
   25.4368  -20.5242   -8.2153 C   0  0  0  0  0  0  0  0  0  0  0  0
   26.5562  -21.1702   -8.6358 C   0  0  0  0  0  0  0  0  0  0  0  0
   27.0257  -20.9713   -9.9265 C   0  0  0  0  0  0  0  0  0  0  0  0
   24.8805  -20.5260  -13.3419 C   0  0  0  0  0  0  0  0  0  0  0  0
   24.4424  -19.4450  -13.8572 O   0  0  0  0  0  0  0  0  0  0  0  0
   22.3507  -22.3595  -15.0340 O   0  0  0  0  0  0  0  0  0  0  0  0
   21.7934  -22.2243  -13.7773 C   0  0  0  0  0  0  0  0  0  0  0  0
   22.4867  -21.1284  -12.9967 C   0  0  2  0  0  0  0  0  0  0  0  0
   23.8961  -21.4284  -12.8733 N   0  0  0  0  0  0  0  0  0  0  0  0
   21.9066  -20.9533  -11.6628 C   0  0  0  0  0  0  0  0  0  0  0  0
   20.5982  -20.5750  -11.5068 O   0  0  0  0  0  0  0  0  0  0  0  0
   22.6136  -21.1513  -10.6486 O   0  0  0  0  0  0  0  0  0  0  0  0
  2  3  1  0
  2  4  1  0
  2  1  1  6
  4  5  2  0
  6  4  1  0
  6  7  1  0
  7 15  1  0
  8  9  1  0
  7  8  1  1
  9 10  2  0
  9 14  1  0
 10 11  1  0
 11 12  2  0
 13 12  1  0
 14 13  2  0
 15 20  1  0
 15 16  2  0
 19 18  1  1
 18 17  1  0
 19 21  1  0
 20 19  1  0
 21 22  1  0
 23 21  2  0
M  END
$$$$
