AFS.pdb
     RDKit          3D

 23 23  0  0  1  0  0  0  0  0999 V2000
   17.6249   -8.9559  -16.7962 C   0  0  0  0  0  0  0  0  0  0  0  0
   18.9937   -9.0490  -16.1759 C   0  0  2  0  0  0  0  0  0  0  0  0
   19.6784  -10.2168  -16.6474 N   0  0  0  0  0  0  0  0  0  0  0  0
   18.9100   -9.0143  -14.6921 C   0  0  0  0  0  0  0  0  0  0  0  0
   18.5531  -10.0438  -14.0663 O   0  0  0  0  0  0  0  0  0  0  0  0
   19.2160   -7.8636  -13.9310 N   0  0  0  0  0  0  0  0  0  0  0  0
   19.1912   -7.8455  -12.4811 C   0  0  1  0  0  0  0  0  0  0  0  0
   20.6092   -7.6947  -12.0193 C   0  0  0  0  0  0  0  0  0  0  0  0
   21.5071   -6.9862  -12.9501 C   0  0  0  0  0  0  0  0  0  0  0  0
   22.3557   -7.6281  -13.8249 C   0  0  0  0  0  0  0  0  0  0  0  0
   23.1823   -6.9053  -14.6936 C   0  0  0  0  0  0  0  0  0  0  0  0
   23.1600   -5.5380  -14.6867 C   0  0  0  0  0  0  0  0  0  0  0  0
   22.3305   -4.8840  -13.8316 C   0  0  0  0  0  0  0  0  0  0  0  0
   21.5134   -5.6059  -12.9730 C   0  0  0  0  0  0  0  0  0  0  0  0
   18.4144   -6.6581  -12.0676 C   0  0  0  0  0  0  0  0  0  0  0  0
   18.5029   -5.5289  -12.6536 O   0  0  0  0  0  0  0  0  0  0  0  0
   14.9141   -6.2983  -11.9544 O   0  0  0  0  0  0  0  0  0  0  0  0
   15.2541   -5.8973  -10.6770 C   0  0  0  0  0  0  0  0  0  0  0  0
   16.7285   -5.5660  -10.5920 C   0  0  2  0  0  0  0  0  0  0  0  0
   17.5145   -6.7174  -10.9769 N   0  0  0  0  0  0  0  0  0  0  0  0
   17.1182   -5.1373   -9.2464 C   0  0  0  0  0  0  0  0  0  0  0  0
   16.6100   -3.9885   -8.6973 O   0  0  0  0  0  0  0  0  0  0  0  0
   17.9270   -5.8280   -8.5856 O   0  0  0  0  0  0  0  0  0  0  0  0
  2  3  1  0
  2  4  1  0
  2  1  1  6
  4  5  2  0
  6  4  1  0
  6  7  1  0
  7 15  1  0
  8  9  1  0
  7  8  1  1
  9 10  2  0
  9 14  1  0
 10 11  1  0
 11 12  2  0
 13 12  1  0
 14 13  2  0
 15 20  1  0
 15 16  2  0
 19 18  1  1
 18 17  1  0
 19 21  1  0
 20 19  1  0
 21 22  1  0
 23 21  2  0
M  END
$$$$
