AFS.pdb
     RDKit          3D

 23 23  0  0  1  0  0  0  0  0999 V2000
   27.4749  -21.1909  -17.9396 C   0  0  0  0  0  0  0  0  0  0  0  0
   28.2679  -21.7959  -16.8117 C   0  0  2  0  0  0  0  0  0  0  0  0
   28.8766  -23.0244  -17.2305 N   0  0  0  0  0  0  0  0  0  0  0  0
   27.4220  -21.9779  -15.6030 C   0  0  0  0  0  0  0  0  0  0  0  0
   26.7103  -23.0077  -15.4928 O   0  0  0  0  0  0  0  0  0  0  0  0
   27.3730  -21.0374  -14.5494 N   0  0  0  0  0  0  0  0  0  0  0  0
   26.6040  -21.2471  -13.3379 C   0  0  1  0  0  0  0  0  0  0  0  0
   27.2298  -20.4033  -12.2687 C   0  0  0  0  0  0  0  0  0  0  0  0
   26.5005  -20.3595  -10.9878 C   0  0  0  0  0  0  0  0  0  0  0  0
   25.4130  -19.5456  -10.7593 C   0  0  0  0  0  0  0  0  0  0  0  0
   24.7521  -19.5497   -9.5250 C   0  0  0  0  0  0  0  0  0  0  0  0
   25.1802  -20.3693   -8.5176 C   0  0  0  0  0  0  0  0  0  0  0  0
   26.2516  -21.1805   -8.7210 C   0  0  0  0  0  0  0  0  0  0  0  0
   26.9024  -21.1721   -9.9466 C   0  0  0  0  0  0  0  0  0  0  0  0
   25.2308  -20.7664  -13.5979 C   0  0  0  0  0  0  0  0  0  0  0  0
   24.9784  -19.6699  -14.1980 O   0  0  0  0  0  0  0  0  0  0  0  0
   20.7559  -21.7740  -14.5930 O   0  0  0  0  0  0  0  0  0  0  0  0
   22.0464  -22.1621  -14.2895 C   0  0  0  0  0  0  0  0  0  0  0  0
   22.7607  -21.0846  -13.5022 C   0  0  2  0  0  0  0  0  0  0  0  0
   24.1039  -21.5161  -13.1844 N   0  0  0  0  0  0  0  0  0  0  0  0
   22.0514  -20.7469  -12.2655 C   0  0  0  0  0  0  0  0  0  0  0  0
   20.9408  -19.9434  -12.2862 O   0  0  0  0  0  0  0  0  0  0  0  0
   22.4631  -21.1972  -11.1721 O   0  0  0  0  0  0  0  0  0  0  0  0
  2  3  1  0
  2  4  1  0
  2  1  1  6
  4  5  2  0
  6  4  1  0
  6  7  1  0
  7 15  1  0
  8  9  1  0
  7  8  1  1
  9 10  2  0
  9 14  1  0
 10 11  1  0
 11 12  2  0
 13 12  1  0
 14 13  2  0
 15 20  1  0
 15 16  2  0
 19 18  1  1
 18 17  1  0
 19 21  1  0
 20 19  1  0
 21 22  1  0
 23 21  2  0
M  END
$$$$
