AFS.pdb
     RDKit          3D

 23 23  0  0  1  0  0  0  0  0999 V2000
   26.0669  -20.8857  -18.7996 C   0  0  0  0  0  0  0  0  0  0  0  0
   27.1213  -20.7894  -17.7290 C   0  0  2  0  0  0  0  0  0  0  0  0
   28.2970  -21.5113  -18.1183 N   0  0  0  0  0  0  0  0  0  0  0  0
   26.5936  -21.2509  -16.4182 C   0  0  0  0  0  0  0  0  0  0  0  0
   26.4862  -22.4820  -16.1910 O   0  0  0  0  0  0  0  0  0  0  0  0
   26.1981  -20.3630  -15.3924 N   0  0  0  0  0  0  0  0  0  0  0  0
   25.6509  -20.8114  -14.1265 C   0  0  1  0  0  0  0  0  0  0  0  0
   26.3319  -20.0224  -13.0492 C   0  0  0  0  0  0  0  0  0  0  0  0
   25.8957  -20.3211  -11.6727 C   0  0  0  0  0  0  0  0  0  0  0  0
   26.4707  -21.2958  -10.8874 C   0  0  0  0  0  0  0  0  0  0  0  0
   26.0219  -21.5325   -9.5824 C   0  0  0  0  0  0  0  0  0  0  0  0
   24.9960  -20.7929   -9.0624 C   0  0  0  0  0  0  0  0  0  0  0  0
   24.4139  -19.8261   -9.8197 C   0  0  0  0  0  0  0  0  0  0  0  0
   24.8632  -19.5960  -11.1124 C   0  0  0  0  0  0  0  0  0  0  0  0
   24.2085  -20.4890  -14.1300 C   0  0  0  0  0  0  0  0  0  0  0  0
   23.7502  -19.3494  -14.4726 O   0  0  0  0  0  0  0  0  0  0  0  0
   21.2519  -23.0642  -12.4559 O   0  0  0  0  0  0  0  0  0  0  0  0
   21.0164  -22.3986  -13.6433 C   0  0  0  0  0  0  0  0  0  0  0  0
   21.8347  -21.1275  -13.7185 C   0  0  2  0  0  0  0  0  0  0  0  0
   23.2442  -21.4504  -13.7446 N   0  0  0  0  0  0  0  0  0  0  0  0
   21.5606  -20.2308  -12.5927 C   0  0  0  0  0  0  0  0  0  0  0  0
   20.3096  -19.7045  -12.3986 O   0  0  0  0  0  0  0  0  0  0  0  0
   22.4801  -19.9390  -11.7946 O   0  0  0  0  0  0  0  0  0  0  0  0
  2  3  1  0
  2  4  1  0
  2  1  1  6
  4  5  2  0
  6  4  1  0
  6  7  1  0
  7 15  1  0
  8  9  1  0
  7  8  1  1
  9 10  2  0
  9 14  1  0
 10 11  1  0
 11 12  2  0
 13 12  1  0
 14 13  2  0
 15 20  1  0
 15 16  2  0
 19 18  1  1
 18 17  1  0
 19 21  1  0
 20 19  1  0
 21 22  1  0
 23 21  2  0
M  END
$$$$
