AFS.pdb
     RDKit          3D

 23 23  0  0  1  0  0  0  0  0999 V2000
   23.6822   -9.9155  -21.4908 C   0  0  0  0  0  0  0  0  0  0  0  0
   24.6249   -9.6136  -20.3561 C   0  0  2  0  0  0  0  0  0  0  0  0
   25.5429  -10.6981  -20.1663 N   0  0  0  0  0  0  0  0  0  0  0  0
   23.8766   -9.2939  -19.1121 C   0  0  0  0  0  0  0  0  0  0  0  0
   23.1469  -10.1702  -18.5842 O   0  0  0  0  0  0  0  0  0  0  0  0
   23.9419   -8.0330  -18.4775 N   0  0  0  0  0  0  0  0  0  0  0  0
   23.2849   -7.7478  -17.2165 C   0  0  1  0  0  0  0  0  0  0  0  0
   24.3521   -7.3338  -16.2488 C   0  0  0  0  0  0  0  0  0  0  0  0
   25.2680   -8.4062  -15.8182 C   0  0  0  0  0  0  0  0  0  0  0  0
   24.9430   -9.3470  -14.8660 C   0  0  0  0  0  0  0  0  0  0  0  0
   25.8490  -10.3497  -14.4998 C   0  0  0  0  0  0  0  0  0  0  0  0
   27.0824  -10.4109  -15.0872 C   0  0  0  0  0  0  0  0  0  0  0  0
   27.4243   -9.4926  -16.0290 C   0  0  0  0  0  0  0  0  0  0  0  0
   26.5219   -8.5012  -16.3878 C   0  0  0  0  0  0  0  0  0  0  0  0
   22.3657   -6.6132  -17.4443 C   0  0  0  0  0  0  0  0  0  0  0  0
   22.6527   -5.6241  -18.1963 O   0  0  0  0  0  0  0  0  0  0  0  0
   18.6068   -6.7898  -18.2570 O   0  0  0  0  0  0  0  0  0  0  0  0
   18.7657   -5.9789  -17.1500 C   0  0  0  0  0  0  0  0  0  0  0  0
   20.1868   -5.4659  -17.0589 C   0  0  2  0  0  0  0  0  0  0  0  0
   21.0938   -6.5679  -16.8253 N   0  0  0  0  0  0  0  0  0  0  0  0
   20.3441   -4.4708  -15.9952 C   0  0  0  0  0  0  0  0  0  0  0  0
   19.6386   -3.2955  -16.0188 O   0  0  0  0  0  0  0  0  0  0  0  0
   21.1336   -4.6940  -15.0494 O   0  0  0  0  0  0  0  0  0  0  0  0
  2  3  1  0
  2  4  1  0
  2  1  1  6
  4  5  2  0
  6  4  1  0
  6  7  1  0
  7 15  1  0
  8  9  1  0
  7  8  1  1
  9 10  2  0
  9 14  1  0
 10 11  1  0
 11 12  2  0
 13 12  1  0
 14 13  2  0
 15 20  1  0
 15 16  2  0
 19 18  1  1
 18 17  1  0
 19 21  1  0
 20 19  1  0
 21 22  1  0
 23 21  2  0
M  END
$$$$
