AFS.pdb
     RDKit          3D

 23 23  0  0  1  0  0  0  0  0999 V2000
   21.8668  -11.9508  -19.9889 C   0  0  0  0  0  0  0  0  0  0  0  0
   23.0892  -11.8627  -19.1142 C   0  0  2  0  0  0  0  0  0  0  0  0
   23.5360  -13.1739  -18.7452 N   0  0  0  0  0  0  0  0  0  0  0  0
   22.8336  -11.0071  -17.9258 C   0  0  0  0  0  0  0  0  0  0  0  0
   22.3347  -11.5155  -16.8906 O   0  0  0  0  0  0  0  0  0  0  0  0
   23.1268   -9.6250  -17.8955 N   0  0  0  0  0  0  0  0  0  0  0  0
   22.9932   -8.8148  -16.7001 C   0  0  1  0  0  0  0  0  0  0  0  0
   24.2791   -8.0629  -16.5330 C   0  0  0  0  0  0  0  0  0  0  0  0
   25.4664   -8.8916  -16.2538 C   0  0  0  0  0  0  0  0  0  0  0  0
   26.4866   -9.0877  -17.1583 C   0  0  0  0  0  0  0  0  0  0  0  0
   27.5962   -9.8791  -16.8378 C   0  0  0  0  0  0  0  0  0  0  0  0
   27.6850  -10.4756  -15.6105 C   0  0  0  0  0  0  0  0  0  0  0  0
   26.6897  -10.2959  -14.7027 C   0  0  0  0  0  0  0  0  0  0  0  0
   25.5924   -9.5102  -15.0262 C   0  0  0  0  0  0  0  0  0  0  0  0
   21.8942   -7.8556  -16.9375 C   0  0  0  0  0  0  0  0  0  0  0  0
   21.7936   -7.1608  -18.0021 O   0  0  0  0  0  0  0  0  0  0  0  0
   18.7523   -7.5547  -14.2362 O   0  0  0  0  0  0  0  0  0  0  0  0
   18.5341   -7.2030  -15.5541 C   0  0  0  0  0  0  0  0  0  0  0  0
   19.8111   -6.7052  -16.1962 C   0  0  2  0  0  0  0  0  0  0  0  0
   20.8772   -7.6567  -15.9736 N   0  0  0  0  0  0  0  0  0  0  0  0
   20.2112   -5.3944  -15.6781 C   0  0  0  0  0  0  0  0  0  0  0  0
   21.4028   -5.2296  -15.0205 O   0  0  0  0  0  0  0  0  0  0  0  0
   19.4560   -4.4084  -15.8367 O   0  0  0  0  0  0  0  0  0  0  0  0
  2  3  1  0
  2  4  1  0
  2  1  1  1
  4  5  2  0
  6  4  1  0
  6  7  1  0
  7 15  1  0
  8  9  1  0
  7  8  1  6
  9 10  2  0
  9 14  1  0
 10 11  1  0
 11 12  2  0
 13 12  1  0
 14 13  2  0
 15 20  1  0
 15 16  2  0
 19 18  1  1
 18 17  1  0
 19 21  1  0
 20 19  1  0
 21 22  1  0
 23 21  2  0
M  END
$$$$
