AFS.pdb
     RDKit          3D

 23 23  0  0  1  0  0  0  0  0999 V2000
   30.3822  -20.7450  -11.6199 C   0  0  0  0  0  0  0  0  0  0  0  0
   30.4356  -21.1831  -10.1803 C   0  0  2  0  0  0  0  0  0  0  0  0
   31.2414  -22.3610  -10.0453 N   0  0  0  0  0  0  0  0  0  0  0  0
   29.0680  -21.3787   -9.6316 C   0  0  0  0  0  0  0  0  0  0  0  0
   28.5890  -22.5380   -9.5573 O   0  0  0  0  0  0  0  0  0  0  0  0
   28.2604  -20.3108   -9.1796 N   0  0  0  0  0  0  0  0  0  0  0  0
   26.8853  -20.4854   -8.7534 C   0  0  1  0  0  0  0  0  0  0  0  0
   26.6075  -19.4326   -7.7232 C   0  0  0  0  0  0  0  0  0  0  0  0
   27.3047  -19.6062   -6.4355 C   0  0  0  0  0  0  0  0  0  0  0  0
   28.1201  -18.6467   -5.8768 C   0  0  0  0  0  0  0  0  0  0  0  0
   28.7522  -18.8610   -4.6460 C   0  0  0  0  0  0  0  0  0  0  0  0
   28.5684  -20.0373   -3.9733 C   0  0  0  0  0  0  0  0  0  0  0  0
   27.7682  -20.9980   -4.5062 C   0  0  0  0  0  0  0  0  0  0  0  0
   27.1443  -20.7797   -5.7264 C   0  0  0  0  0  0  0  0  0  0  0  0
   26.0247  -20.2537   -9.9324 C   0  0  0  0  0  0  0  0  0  0  0  0
   25.9632  -19.1347  -10.5409 O   0  0  0  0  0  0  0  0  0  0  0  0
   23.7868  -22.2631  -13.6617 O   0  0  0  0  0  0  0  0  0  0  0  0
   24.4558  -22.4144  -12.4627 C   0  0  0  0  0  0  0  0  0  0  0  0
   24.4846  -21.1104  -11.6949 C   0  0  2  0  0  0  0  0  0  0  0  0
   25.2088  -21.2851  -10.4553 N   0  0  0  0  0  0  0  0  0  0  0  0
   23.1370  -20.6133  -11.4065 C   0  0  0  0  0  0  0  0  0  0  0  0
   22.6465  -20.6066  -10.1263 O   0  0  0  0  0  0  0  0  0  0  0  0
   22.4202  -20.1876  -12.3408 O   0  0  0  0  0  0  0  0  0  0  0  0
  2  3  1  0
  2  4  1  0
  2  1  1  6
  4  5  2  0
  6  4  1  0
  6  7  1  0
  7 15  1  0
  8  9  1  0
  7  8  1  1
  9 10  2  0
  9 14  1  0
 10 11  1  0
 11 12  2  0
 13 12  1  0
 14 13  2  0
 15 20  1  0
 15 16  2  0
 19 18  1  1
 18 17  1  0
 19 21  1  0
 20 19  1  0
 21 22  1  0
 23 21  2  0
M  END
$$$$
