AFS.pdb
     RDKit          3D

 23 23  0  0  1  0  0  0  0  0999 V2000
   30.6829  -20.6582  -11.6003 C   0  0  0  0  0  0  0  0  0  0  0  0
   30.5557  -21.1554  -10.1848 C   0  0  2  0  0  0  0  0  0  0  0  0
   31.3312  -22.3470  -10.0014 N   0  0  0  0  0  0  0  0  0  0  0  0
   29.1297  -21.3576   -9.8169 C   0  0  0  0  0  0  0  0  0  0  0  0
   28.6422  -22.5156   -9.8351 O   0  0  0  0  0  0  0  0  0  0  0  0
   28.2746  -20.2974   -9.4402 N   0  0  0  0  0  0  0  0  0  0  0  0
   26.8853  -20.4947   -9.0739 C   0  0  1  0  0  0  0  0  0  0  0  0
   26.5768  -19.5189   -7.9788 C   0  0  0  0  0  0  0  0  0  0  0  0
   27.2758  -19.7568   -6.7023 C   0  0  0  0  0  0  0  0  0  0  0  0
   26.7977  -20.5934   -5.7179 C   0  0  0  0  0  0  0  0  0  0  0  0
   27.5069  -20.7894   -4.5268 C   0  0  0  0  0  0  0  0  0  0  0  0
   28.6963  -20.1470   -4.3201 C   0  0  0  0  0  0  0  0  0  0  0  0
   29.1867  -19.3168   -5.2778 C   0  0  0  0  0  0  0  0  0  0  0  0
   28.4792  -19.1267   -6.4565 C   0  0  0  0  0  0  0  0  0  0  0  0
   26.0657  -20.1717  -10.2606 C   0  0  0  0  0  0  0  0  0  0  0  0
   26.3028  -19.1757  -11.0209 O   0  0  0  0  0  0  0  0  0  0  0  0
   24.3464  -22.9970  -12.4302 O   0  0  0  0  0  0  0  0  0  0  0  0
   24.5417  -21.7091  -12.8898 C   0  0  0  0  0  0  0  0  0  0  0  0
   24.1931  -20.6976  -11.8192 C   0  0  2  0  0  0  0  0  0  0  0  0
   24.9531  -20.9694  -10.6192 N   0  0  0  0  0  0  0  0  0  0  0  0
   22.7627  -20.7042  -11.5026 C   0  0  0  0  0  0  0  0  0  0  0  0
   21.8251  -20.4462  -12.4690 O   0  0  0  0  0  0  0  0  0  0  0  0
   22.3878  -20.9488  -10.3332 O   0  0  0  0  0  0  0  0  0  0  0  0
  2  3  1  0
  2  4  1  0
  2  1  1  6
  4  5  2  0
  6  4  1  0
  6  7  1  0
  7 15  1  0
  8  9  1  0
  7  8  1  1
  9 10  2  0
  9 14  1  0
 10 11  1  0
 11 12  2  0
 13 12  1  0
 14 13  2  0
 15 20  1  0
 15 16  2  0
 19 18  1  6
 18 17  1  0
 19 21  1  0
 20 19  1  0
 21 22  1  0
 23 21  2  0
M  END
$$$$
