AFS.pdb
     RDKit          3D

 23 23  0  0  1  0  0  0  0  0999 V2000
   30.4440  -20.7674  -11.8320 C   0  0  0  0  0  0  0  0  0  0  0  0
   30.4209  -21.2439  -10.4039 C   0  0  2  0  0  0  0  0  0  0  0  0
   31.1846  -22.4493  -10.2662 N   0  0  0  0  0  0  0  0  0  0  0  0
   29.0253  -21.4114   -9.9203 C   0  0  0  0  0  0  0  0  0  0  0  0
   28.4582  -22.5268  -10.0351 O   0  0  0  0  0  0  0  0  0  0  0  0
   28.2860  -20.3637   -9.3263 N   0  0  0  0  0  0  0  0  0  0  0  0
   26.9240  -20.5258   -8.8553 C   0  0  1  0  0  0  0  0  0  0  0  0
   26.6948  -19.4806   -7.8056 C   0  0  0  0  0  0  0  0  0  0  0  0
   27.4431  -19.6693   -6.5491 C   0  0  0  0  0  0  0  0  0  0  0  0
   28.3494  -18.7549   -6.0590 C   0  0  0  0  0  0  0  0  0  0  0  0
   29.0272  -18.9812   -4.8550 C   0  0  0  0  0  0  0  0  0  0  0  0
   28.7981  -20.1243   -4.1403 C   0  0  0  0  0  0  0  0  0  0  0  0
   27.9083  -21.0403   -4.6053 C   0  0  0  0  0  0  0  0  0  0  0  0
   27.2394  -20.8103   -5.7993 C   0  0  0  0  0  0  0  0  0  0  0  0
   26.0270  -20.2709  -10.0019 C   0  0  0  0  0  0  0  0  0  0  0  0
   26.0851  -19.2119  -10.7100 O   0  0  0  0  0  0  0  0  0  0  0  0
   23.5067  -22.2289  -13.5210 O   0  0  0  0  0  0  0  0  0  0  0  0
   24.2713  -22.3470  -12.3766 C   0  0  0  0  0  0  0  0  0  0  0  0
   24.2783  -21.0488  -11.5985 C   0  0  2  0  0  0  0  0  0  0  0  0
   25.0379  -21.2105  -10.3785 N   0  0  0  0  0  0  0  0  0  0  0  0
   22.9234  -20.5964  -11.2732 C   0  0  0  0  0  0  0  0  0  0  0  0
   22.0679  -20.1681  -12.2551 O   0  0  0  0  0  0  0  0  0  0  0  0
   22.5381  -20.5998  -10.0818 O   0  0  0  0  0  0  0  0  0  0  0  0
  2  3  1  0
  2  4  1  0
  2  1  1  6
  4  5  2  0
  6  4  1  0
  6  7  1  0
  7 15  1  0
  8  9  1  0
  7  8  1  1
  9 10  2  0
  9 14  1  0
 10 11  1  0
 11 12  2  0
 13 12  1  0
 14 13  2  0
 15 20  1  0
 15 16  2  0
 19 18  1  1
 18 17  1  0
 19 21  1  0
 20 19  1  0
 21 22  1  0
 23 21  2  0
M  END
$$$$
