AFS.pdb
     RDKit          3D

 23 23  0  0  1  0  0  0  0  0999 V2000
   18.7087  -10.3764  -19.2047 C   0  0  0  0  0  0  0  0  0  0  0  0
   20.0319  -11.0866  -19.0956 C   0  0  2  0  0  0  0  0  0  0  0  0
   19.8521  -12.5027  -19.2265 N   0  0  0  0  0  0  0  0  0  0  0  0
   20.7264  -10.7285  -17.8310 C   0  0  0  0  0  0  0  0  0  0  0  0
   20.3217  -11.2096  -16.7430 O   0  0  0  0  0  0  0  0  0  0  0  0
   21.8394   -9.8590  -17.7841 N   0  0  0  0  0  0  0  0  0  0  0  0
   22.4602   -9.4361  -16.5435 C   0  0  1  0  0  0  0  0  0  0  0  0
   23.9323   -9.6814  -16.6830 C   0  0  0  0  0  0  0  0  0  0  0  0
   24.3389  -11.0985  -16.7116 C   0  0  0  0  0  0  0  0  0  0  0  0
   24.4855  -11.8706  -15.5803 C   0  0  0  0  0  0  0  0  0  0  0  0
   24.8667  -13.2151  -15.6657 C   0  0  0  0  0  0  0  0  0  0  0  0
   25.1019  -13.7880  -16.8849 C   0  0  0  0  0  0  0  0  0  0  0  0
   24.9635  -13.0446  -18.0143 C   0  0  0  0  0  0  0  0  0  0  0  0
   24.5853  -11.7125  -17.9233 C   0  0  0  0  0  0  0  0  0  0  0  0
   22.2184   -7.9851  -16.4011 C   0  0  0  0  0  0  0  0  0  0  0  0
   22.1624   -7.1873  -17.3944 O   0  0  0  0  0  0  0  0  0  0  0  0
   19.9554   -4.4124  -14.9679 O   0  0  0  0  0  0  0  0  0  0  0  0
   20.2670   -5.7391  -15.1937 C   0  0  0  0  0  0  0  0  0  0  0  0
   21.7462   -5.9863  -14.9890 C   0  0  2  0  0  0  0  0  0  0  0  0
   22.0332   -7.3969  -15.1272 N   0  0  0  0  0  0  0  0  0  0  0  0
   22.2040   -5.5216  -13.6771 C   0  0  0  0  0  0  0  0  0  0  0  0
   22.2629   -6.3766  -12.6071 O   0  0  0  0  0  0  0  0  0  0  0  0
   22.5473   -4.3268  -13.5279 O   0  0  0  0  0  0  0  0  0  0  0  0
  2  3  1  0
  2  4  1  0
  2  1  1  1
  4  5  2  0
  6  4  1  0
  6  7  1  0
  7 15  1  0
  8  9  1  0
  7  8  1  6
  9 10  2  0
  9 14  1  0
 10 11  1  0
 11 12  2  0
 13 12  1  0
 14 13  2  0
 15 20  1  0
 15 16  2  0
 19 18  1  1
 18 17  1  0
 19 21  1  0
 20 19  1  0
 21 22  1  0
 23 21  2  0
M  END
$$$$
