AFS.pdb
     RDKit          3D

 23 23  0  0  1  0  0  0  0  0999 V2000
   27.5712  -19.4408  -15.9333 C   0  0  0  0  0  0  0  0  0  0  0  0
   28.1277  -20.3477  -14.8679 C   0  0  2  0  0  0  0  0  0  0  0  0
   28.9240  -21.3833  -15.4582 N   0  0  0  0  0  0  0  0  0  0  0  0
   27.0412  -20.8987  -14.0161 C   0  0  0  0  0  0  0  0  0  0  0  0
   26.6391  -22.0740  -14.2059 O   0  0  0  0  0  0  0  0  0  0  0  0
   26.4228  -20.1583  -12.9834 N   0  0  0  0  0  0  0  0  0  0  0  0
   25.3968  -20.7107  -12.1202 C   0  0  1  0  0  0  0  0  0  0  0  0
   25.3784  -19.8803  -10.8724 C   0  0  0  0  0  0  0  0  0  0  0  0
   26.3539  -20.2696   -9.8374 C   0  0  0  0  0  0  0  0  0  0  0  0
   27.6640  -20.5952  -10.1113 C   0  0  0  0  0  0  0  0  0  0  0  0
   28.5510  -20.9505   -9.0879 C   0  0  0  0  0  0  0  0  0  0  0  0
   28.1263  -20.9805   -7.7884 C   0  0  0  0  0  0  0  0  0  0  0  0
   26.8376  -20.6633   -7.4953 C   0  0  0  0  0  0  0  0  0  0  0  0
   25.9633  -20.3117   -8.5140 C   0  0  0  0  0  0  0  0  0  0  0  0
   24.1042  -20.5658  -12.8221 C   0  0  0  0  0  0  0  0  0  0  0  0
   23.7292  -19.4792  -13.3741 O   0  0  0  0  0  0  0  0  0  0  0  0
   21.7284  -23.9218  -13.5994 O   0  0  0  0  0  0  0  0  0  0  0  0
   21.7853  -22.8542  -14.4741 C   0  0  0  0  0  0  0  0  0  0  0  0
   22.0034  -21.5569  -13.7255 C   0  0  2  0  0  0  0  0  0  0  0  0
   23.1995  -21.6498  -12.9179 N   0  0  0  0  0  0  0  0  0  0  0  0
   20.8628  -21.2180  -12.8706 C   0  0  0  0  0  0  0  0  0  0  0  0
   19.6109  -21.0432  -13.4013 O   0  0  0  0  0  0  0  0  0  0  0  0
   21.0307  -21.0854  -11.6370 O   0  0  0  0  0  0  0  0  0  0  0  0
  2  3  1  0
  2  4  1  0
  2  1  1  6
  4  5  2  0
  6  4  1  0
  6  7  1  0
  7 15  1  0
  8  9  1  0
  7  8  1  1
  9 10  2  0
  9 14  1  0
 10 11  1  0
 11 12  2  0
 13 12  1  0
 14 13  2  0
 15 20  1  0
 15 16  2  0
 19 18  1  1
 18 17  1  0
 19 21  1  0
 20 19  1  0
 21 22  1  0
 23 21  2  0
M  END
$$$$
