RNP.pdb
     RDKit          3D

 27 27  0  0  1  0  0  0  0  0999 V2000
   21.7811  -21.1429   -7.3448 N   0  0  0  0  0  0  0  0  0  0  0  0
   21.4906  -20.7630   -8.6742 C   0  0  0  0  0  0  0  0  0  0  0  0
   20.2875  -20.4751   -9.0274 N   0  0  0  0  0  0  0  0  0  0  0  0
   22.5243  -20.6874   -9.6670 N   0  0  0  0  0  0  0  0  0  0  0  0
   23.8155  -21.2873   -9.4915 C   0  0  0  0  0  0  0  0  0  0  0  0
   24.8108  -20.2204   -9.1253 C   0  0  0  0  0  0  0  0  0  0  0  0
   26.0330  -20.3095   -9.9530 C   0  0  0  0  0  0  0  0  0  0  0  0
   25.9991  -21.2572  -11.1009 C   0  0  2  0  0  0  0  0  0  0  0  0
   26.8130  -22.4238  -10.9800 N   0  0  0  0  0  0  0  0  0  0  0  0
   26.4053  -20.4894  -12.3114 C   0  0  0  0  0  0  0  0  0  0  0  0
   27.5240  -19.9475  -12.3891 O   0  0  0  0  0  0  0  0  0  0  0  0
   20.0147  -20.2292   -9.9840 N   0  0  0  0  0  0  0  0  0  0  0  0
   24.0046  -21.5200  -14.1470 C   0  0  0  0  0  0  0  0  0  0  0  0
   24.4598  -21.2917  -15.4758 O   0  0  0  0  0  0  0  0  0  0  0  0
   23.9007  -21.9678  -16.3767 C   0  0  0  0  0  0  0  0  0  0  0  0
   25.5232  -20.3169  -15.7541 C   0  0  1  0  0  0  0  0  0  0  0  0
   25.8494  -19.5122  -14.5051 N   0  0  0  0  0  0  0  0  0  0  0  0
   25.4943  -20.3829  -13.3818 C   0  0  0  0  0  0  0  0  0  0  0  0
   24.9729  -18.3095  -14.5203 O   0  0  0  0  0  0  0  0  0  0  0  0
   23.8954  -18.2588  -13.8779 N   0  0  0  0  0  0  0  0  0  0  0  0
   25.3594  -17.1876  -15.2781 C   0  0  0  0  0  0  0  0  0  0  0  0
   26.5148  -17.0992  -16.1380 C   0  0  0  0  0  0  0  0  0  0  0  0
   27.0581  -15.7101  -15.7831 C   0  0  0  0  0  0  0  0  0  0  0  0
   25.8429  -14.9285  -15.3487 C   0  0  1  0  0  0  0  0  0  0  0  0
   24.6860  -15.8916  -15.3731 C   0  0  0  0  0  0  0  0  0  0  0  0
   23.9259  -15.8796  -16.6429 O   0  0  0  0  0  0  0  0  0  0  0  0
   24.1817  -16.8050  -17.6386 O   0  0  0  0  0  0  0  0  0  0  0  0
  2  1  1  0
  3  2  2  0
  4  2  1  0
  5  6  1  0
  5  4  1  0
  7  6  1  0
  8  7  1  0
  8  9  1  1
 10  8  1  0
 10 17  1  0
 11 10  2  0
 13 12  1  0
 14 13  2  0
 16 15  1  1
 15 13  1  0
 17 16  1  0
 18 20  1  0
 18 16  1  0
 19 18  2  0
 20 21  1  0
 22 21  1  0
 23 22  1  0
 24 23  1  0
 24 20  1  0
 24 25  1  6
 26 25  1  0
 27 25  2  0
M  END
$$$$
