RNP.pdb
     RDKit          3D

 27 27  0  0  1  0  0  0  0  0999 V2000
   20.3873  -22.4822   -6.7545 N   0  0  0  0  0  0  0  0  0  0  0  0
   20.5264  -22.6983   -8.1438 C   0  0  0  0  0  0  0  0  0  0  0  0
   19.4923  -22.8765   -8.8879 N   0  0  0  0  0  0  0  0  0  0  0  0
   21.8202  -22.7258   -8.7645 N   0  0  0  0  0  0  0  0  0  0  0  0
   22.9284  -21.9509   -8.2857 C   0  0  0  0  0  0  0  0  0  0  0  0
   23.0614  -20.7084   -9.1232 C   0  0  0  0  0  0  0  0  0  0  0  0
   23.8614  -20.9569  -10.3419 C   0  0  0  0  0  0  0  0  0  0  0  0
   23.3404  -20.3868  -11.6150 C   0  0  2  0  0  0  0  0  0  0  0  0
   22.4648  -21.2248  -12.3694 N   0  0  0  0  0  0  0  0  0  0  0  0
   24.5229  -20.0253  -12.4460 C   0  0  0  0  0  0  0  0  0  0  0  0
   25.3814  -19.2218  -12.0356 O   0  0  0  0  0  0  0  0  0  0  0  0
   19.5370  -23.0990   -9.8871 N   0  0  0  0  0  0  0  0  0  0  0  0
   26.0054  -23.4726  -14.5386 C   0  0  0  0  0  0  0  0  0  0  0  0
   26.6893  -22.2682  -14.8652 O   0  0  0  0  0  0  0  0  0  0  0  0
   27.8911  -22.1975  -14.5014 C   0  0  0  0  0  0  0  0  0  0  0  0
   26.0093  -21.1839  -15.5865 C   0  0  2  0  0  0  0  0  0  0  0  0
   25.6552  -20.0507  -14.6355 N   0  0  0  0  0  0  0  0  0  0  0  0
   24.6588  -20.6126  -13.7203 C   0  0  0  0  0  0  0  0  0  0  0  0
   25.0472  -18.9677  -15.4554 O   0  0  0  0  0  0  0  0  0  0  0  0
   23.8179  -18.9296  -15.7079 N   0  0  0  0  0  0  0  0  0  0  0  0
   25.8724  -17.9485  -15.9678 C   0  0  0  0  0  0  0  0  0  0  0  0
   27.3062  -17.8648  -15.8287 C   0  0  0  0  0  0  0  0  0  0  0  0
   27.4978  -16.3807  -15.4947 C   0  0  0  0  0  0  0  0  0  0  0  0
   26.3301  -15.6907  -16.1555 C   0  0  1  0  0  0  0  0  0  0  0  0
   25.4741  -16.7773  -16.7500 C   0  0  0  0  0  0  0  0  0  0  0  0
   25.7785  -17.0680  -18.1688 O   0  0  0  0  0  0  0  0  0  0  0  0
   25.2793  -16.2734  -19.1850 O   0  0  0  0  0  0  0  0  0  0  0  0
  2  1  1  0
  3  2  2  0
  4  2  1  0
  5  6  1  0
  5  4  1  0
  7  6  1  0
  8  7  1  0
  8  9  1  6
 10  8  1  0
 10 17  1  0
 11 10  2  0
 13 12  1  0
 14 13  2  0
 16 15  1  1
 15 13  1  0
 17 16  1  0
 18 20  1  0
 18 16  1  0
 19 18  2  0
 20 21  1  0
 22 21  1  0
 23 22  1  0
 24 23  1  0
 24 20  1  0
 24 25  1  6
 26 25  1  0
 27 25  2  0
M  END
$$$$
