RNP.pdb
     RDKit          3D

 27 27  0  0  1  0  0  0  0  0999 V2000
   31.3682  -21.2922   -8.8233 N   0  0  0  0  0  0  0  0  0  0  0  0
   31.2101  -22.0182  -10.0250 C   0  0  0  0  0  0  0  0  0  0  0  0
   32.2213  -22.5713  -10.5965 N   0  0  0  0  0  0  0  0  0  0  0  0
   29.9221  -22.1598  -10.6423 N   0  0  0  0  0  0  0  0  0  0  0  0
   28.7059  -21.7407  -10.0075 C   0  0  0  0  0  0  0  0  0  0  0  0
   28.1734  -20.5240  -10.7138 C   0  0  0  0  0  0  0  0  0  0  0  0
   26.9811  -20.8455  -11.5273 C   0  0  0  0  0  0  0  0  0  0  0  0
   25.6842  -20.2709  -11.0744 C   0  0  2  0  0  0  0  0  0  0  0  0
   25.2583  -20.6332   -9.7608 N   0  0  0  0  0  0  0  0  0  0  0  0
   24.6533  -20.6886  -12.0655 C   0  0  0  0  0  0  0  0  0  0  0  0
   24.8949  -20.6954  -13.2872 O   0  0  0  0  0  0  0  0  0  0  0  0
   32.1681  -23.0886  -11.4793 N   0  0  0  0  0  0  0  0  0  0  0  0
   20.2623  -22.3670  -14.0682 C   0  0  0  0  0  0  0  0  0  0  0  0
   20.0784  -22.3236  -12.6578 O   0  0  0  0  0  0  0  0  0  0  0  0
   18.9775  -22.7547  -12.2292 C   0  0  0  0  0  0  0  0  0  0  0  0
   21.1289  -21.8007  -11.7737 C   0  0  2  0  0  0  0  0  0  0  0  0
   22.3405  -21.3658  -12.5841 N   0  0  0  0  0  0  0  0  0  0  0  0
   23.3835  -21.0811  -11.5956 C   0  0  0  0  0  0  0  0  0  0  0  0
   21.9596  -20.1197  -13.3030 O   0  0  0  0  0  0  0  0  0  0  0  0
   21.7984  -19.0263  -12.7073 N   0  0  0  0  0  0  0  0  0  0  0  0
   21.7725  -20.1613  -14.6979 C   0  0  0  0  0  0  0  0  0  0  0  0
   21.8535  -21.3359  -15.5320 C   0  0  0  0  0  0  0  0  0  0  0  0
   22.6524  -20.8093  -16.7299 C   0  0  0  0  0  0  0  0  0  0  0  0
   22.3241  -19.3377  -16.7858 C   0  0  1  0  0  0  0  0  0  0  0  0
   21.4486  -19.0511  -15.5950 C   0  0  0  0  0  0  0  0  0  0  0  0
   19.9998  -19.1263  -15.8873 O   0  0  0  0  0  0  0  0  0  0  0  0
   19.2750  -20.2743  -15.6221 O   0  0  0  0  0  0  0  0  0  0  0  0
  2  1  1  0
  3  2  2  0
  4  2  1  0
  5  6  1  0
  5  4  1  0
  7  6  1  0
  8  7  1  0
  8  9  1  1
 10  8  1  0
 10 17  1  0
 11 10  2  0
 13 12  1  0
 14 13  2  0
 16 15  1  6
 15 13  1  0
 17 16  1  0
 18 20  1  0
 18 16  1  0
 19 18  2  0
 20 21  1  0
 22 21  1  0
 23 22  1  0
 24 23  1  0
 24 20  1  0
 24 25  1  6
 26 25  1  0
 27 25  2  0
M  END
$$$$
