RNP.pdb
     RDKit          3D

 27 27  0  0  1  0  0  0  0  0999 V2000
   19.8351  -24.2177   -7.5146 N   0  0  0  0  0  0  0  0  0  0  0  0
   18.9033  -23.6234   -8.3947 C   0  0  0  0  0  0  0  0  0  0  0  0
   17.6826  -24.0277   -8.4303 N   0  0  0  0  0  0  0  0  0  0  0  0
   19.2887  -22.5552   -9.2724 N   0  0  0  0  0  0  0  0  0  0  0  0
   20.5257  -22.5545   -9.9988 C   0  0  0  0  0  0  0  0  0  0  0  0
   20.6582  -21.2568  -10.7481 C   0  0  0  0  0  0  0  0  0  0  0  0
   21.8944  -21.2205  -11.5589 C   0  0  0  0  0  0  0  0  0  0  0  0
   23.1818  -21.3803  -10.8280 C   0  0  2  0  0  0  0  0  0  0  0  0
   23.2369  -20.8176   -9.5171 N   0  0  0  0  0  0  0  0  0  0  0  0
   24.2430  -20.7700  -11.6772 C   0  0  0  0  0  0  0  0  0  0  0  0
   24.5451  -19.5665  -11.5708 O   0  0  0  0  0  0  0  0  0  0  0  0
   16.9654  -23.6308   -9.0451 N   0  0  0  0  0  0  0  0  0  0  0  0
   28.8772  -21.4073  -15.0050 C   0  0  0  0  0  0  0  0  0  0  0  0
   27.4874  -21.5780  -15.2584 O   0  0  0  0  0  0  0  0  0  0  0  0
   27.0922  -21.2668  -16.4110 C   0  0  0  0  0  0  0  0  0  0  0  0
   26.5860  -22.0901  -14.2174 C   0  0  1  0  0  0  0  0  0  0  0  0
   25.8541  -20.9446  -13.5348 N   0  0  0  0  0  0  0  0  0  0  0  0
   24.9095  -21.5840  -12.6156 C   0  0  0  0  0  0  0  0  0  0  0  0
   25.1182  -20.2041  -14.5954 O   0  0  0  0  0  0  0  0  0  0  0  0
   23.9632  -20.5325  -14.9620 N   0  0  0  0  0  0  0  0  0  0  0  0
   25.7319  -19.0971  -15.2120 C   0  0  0  0  0  0  0  0  0  0  0  0
   27.0980  -18.6705  -15.0281 C   0  0  0  0  0  0  0  0  0  0  0  0
   26.9323  -17.1518  -14.8985 C   0  0  0  0  0  0  0  0  0  0  0  0
   25.6909  -16.8375  -15.6963 C   0  0  1  0  0  0  0  0  0  0  0  0
   25.1411  -18.1578  -16.1664 C   0  0  0  0  0  0  0  0  0  0  0  0
   25.6024  -18.5498  -17.5168 O   0  0  0  0  0  0  0  0  0  0  0  0
   26.7470  -19.3071  -17.6900 O   0  0  0  0  0  0  0  0  0  0  0  0
  2  1  1  0
  3  2  2  0
  4  2  1  0
  5  6  1  0
  5  4  1  0
  7  6  1  0
  8  7  1  0
  8  9  1  1
 10  8  1  0
 10 17  1  0
 11 10  2  0
 13 12  1  0
 14 13  2  0
 16 15  1  1
 15 13  1  0
 17 16  1  0
 18 20  1  0
 18 16  1  0
 19 18  2  0
 20 21  1  0
 22 21  1  0
 23 22  1  0
 24 23  1  0
 24 20  1  0
 24 25  1  6
 26 25  1  0
 27 25  2  0
M  END
$$$$
