RNP.pdb
     RDKit          3D

 27 27  0  0  1  0  0  0  0  0999 V2000
   20.9642  -22.5316   -7.0105 N   0  0  0  0  0  0  0  0  0  0  0  0
   22.0357  -21.6118   -6.9663 C   0  0  0  0  0  0  0  0  0  0  0  0
   22.8793  -21.6318   -5.9953 N   0  0  0  0  0  0  0  0  0  0  0  0
   22.2145  -20.6310   -7.9988 N   0  0  0  0  0  0  0  0  0  0  0  0
   22.8574  -20.9252   -9.2469 C   0  0  0  0  0  0  0  0  0  0  0  0
   24.3463  -20.9724   -9.0371 C   0  0  0  0  0  0  0  0  0  0  0  0
   25.0659  -21.2354  -10.3020 C   0  0  0  0  0  0  0  0  0  0  0  0
   24.5120  -20.6068  -11.5329 C   0  0  2  0  0  0  0  0  0  0  0  0
   23.5528  -21.3769  -12.2574 N   0  0  0  0  0  0  0  0  0  0  0  0
   25.6680  -20.2902  -12.4179 C   0  0  0  0  0  0  0  0  0  0  0  0
   26.5273  -19.4523  -12.0856 O   0  0  0  0  0  0  0  0  0  0  0  0
   23.6335  -20.9482   -5.8776 N   0  0  0  0  0  0  0  0  0  0  0  0
   28.8069  -22.2509  -17.2644 C   0  0  0  0  0  0  0  0  0  0  0  0
   28.2505  -21.2874  -16.3772 O   0  0  0  0  0  0  0  0  0  0  0  0
   28.6676  -20.1082  -16.5077 C   0  0  0  0  0  0  0  0  0  0  0  0
   27.2477  -21.6723  -15.3748 C   0  0  2  0  0  0  0  0  0  0  0  0
   26.7361  -20.4462  -14.6341 N   0  0  0  0  0  0  0  0  0  0  0  0
   25.7774  -20.9606  -13.6531 C   0  0  0  0  0  0  0  0  0  0  0  0
   26.0399  -19.5919  -15.6342 O   0  0  0  0  0  0  0  0  0  0  0  0
   24.8962  -19.8701  -16.0713 N   0  0  0  0  0  0  0  0  0  0  0  0
   26.6794  -18.4312  -16.1099 C   0  0  0  0  0  0  0  0  0  0  0  0
   28.0359  -18.0304  -15.8250 C   0  0  0  0  0  0  0  0  0  0  0  0
   27.8640  -16.5316  -15.5517 C   0  0  0  0  0  0  0  0  0  0  0  0
   26.6585  -16.1344  -16.3674 C   0  0  1  0  0  0  0  0  0  0  0  0
   26.1304  -17.3991  -16.9905 C   0  0  0  0  0  0  0  0  0  0  0  0
   26.6505  -17.6562  -18.3519 O   0  0  0  0  0  0  0  0  0  0  0  0
   26.1936  -16.9352  -19.4404 O   0  0  0  0  0  0  0  0  0  0  0  0
  2  1  1  0
  3  2  2  0
  4  2  1  0
  5  6  1  0
  5  4  1  0
  7  6  1  0
  8  7  1  0
  8  9  1  6
 10  8  1  0
 10 17  1  0
 11 10  2  0
 13 12  1  0
 14 13  2  0
 16 15  1  1
 15 13  1  0
 17 16  1  0
 18 20  1  0
 18 16  1  0
 19 18  2  0
 20 21  1  0
 22 21  1  0
 23 22  1  0
 24 23  1  0
 24 20  1  0
 24 25  1  6
 26 25  1  0
 27 25  2  0
M  END
$$$$
