RNP.pdb
     RDKit          3D

 27 27  0  0  1  0  0  0  0  0999 V2000
   22.2900  -21.1716   -8.1538 N   0  0  0  0  0  0  0  0  0  0  0  0
   21.2383  -20.9098   -9.0602 C   0  0  0  0  0  0  0  0  0  0  0  0
   20.0140  -20.9148   -8.6654 N   0  0  0  0  0  0  0  0  0  0  0  0
   21.5028  -20.6318  -10.4432 N   0  0  0  0  0  0  0  0  0  0  0  0
   22.6414  -21.1597  -11.1379 C   0  0  0  0  0  0  0  0  0  0  0  0
   23.3526  -20.0385  -11.8451 C   0  0  0  0  0  0  0  0  0  0  0  0
   24.8130  -20.0923  -11.6190 C   0  0  0  0  0  0  0  0  0  0  0  0
   25.5183  -21.3220  -12.0745 C   0  0  2  0  0  0  0  0  0  0  0  0
   26.3213  -21.9865  -11.0990 N   0  0  0  0  0  0  0  0  0  0  0  0
   26.3660  -20.9324  -13.2362 C   0  0  0  0  0  0  0  0  0  0  0  0
   27.4594  -20.3582  -13.0762 O   0  0  0  0  0  0  0  0  0  0  0  0
   19.2120  -20.7607   -9.2842 N   0  0  0  0  0  0  0  0  0  0  0  0
   26.4749  -24.3731  -15.9661 C   0  0  0  0  0  0  0  0  0  0  0  0
   27.2403  -23.1884  -16.1552 O   0  0  0  0  0  0  0  0  0  0  0  0
   28.4584  -23.2614  -15.8511 C   0  0  0  0  0  0  0  0  0  0  0  0
   26.6206  -21.9627  -16.6770 C   0  0  2  0  0  0  0  0  0  0  0  0
   26.7474  -20.8302  -15.6694 N   0  0  0  0  0  0  0  0  0  0  0  0
   25.9075  -21.2264  -14.5365 C   0  0  0  0  0  0  0  0  0  0  0  0
   26.1960  -19.6083  -16.3156 O   0  0  0  0  0  0  0  0  0  0  0  0
   25.0173  -19.2223  -16.1208 N   0  0  0  0  0  0  0  0  0  0  0  0
   27.0186  -18.8551  -17.1749 C   0  0  0  0  0  0  0  0  0  0  0  0
   28.3644  -19.1899  -17.5734 C   0  0  0  0  0  0  0  0  0  0  0  0
   29.0678  -17.8327  -17.4555 C   0  0  0  0  0  0  0  0  0  0  0  0
   27.9776  -16.8192  -17.7016 C   0  0  1  0  0  0  0  0  0  0  0  0
   26.6982  -17.5981  -17.8528 C   0  0  0  0  0  0  0  0  0  0  0  0
   26.3609  -17.9254  -19.2561 O   0  0  0  0  0  0  0  0  0  0  0  0
   25.7210  -17.0086  -20.0707 O   0  0  0  0  0  0  0  0  0  0  0  0
  2  1  1  0
  3  2  2  0
  4  2  1  0
  5  6  1  0
  5  4  1  0
  7  6  1  0
  8  7  1  0
  8  9  1  1
 10  8  1  0
 10 17  1  0
 11 10  2  0
 13 12  1  0
 14 13  2  0
 16 15  1  1
 15 13  1  0
 17 16  1  0
 18 20  1  0
 18 16  1  0
 19 18  2  0
 20 21  1  0
 22 21  1  0
 23 22  1  0
 24 23  1  0
 24 20  1  0
 24 25  1  6
 26 25  1  0
 27 25  2  0
M  END
$$$$
