RNP.pdb
     RDKit          3D

 27 27  0  0  1  0  0  0  0  0999 V2000
   31.4619  -24.6898  -16.0787 N   0  0  0  0  0  0  0  0  0  0  0  0
   30.8610  -24.4532  -17.3353 C   0  0  0  0  0  0  0  0  0  0  0  0
   30.6031  -25.4279  -18.1343 N   0  0  0  0  0  0  0  0  0  0  0  0
   30.5219  -23.1239  -17.7571 N   0  0  0  0  0  0  0  0  0  0  0  0
   29.9926  -22.1360  -16.8617 C   0  0  0  0  0  0  0  0  0  0  0  0
   28.5514  -21.8776  -17.2068 C   0  0  0  0  0  0  0  0  0  0  0  0
   27.9617  -20.8375  -16.3366 C   0  0  0  0  0  0  0  0  0  0  0  0
   28.4612  -20.7718  -14.9354 C   0  0  2  0  0  0  0  0  0  0  0  0
   29.6779  -21.4684  -14.6663 N   0  0  0  0  0  0  0  0  0  0  0  0
   27.3782  -21.3046  -14.0618 C   0  0  0  0  0  0  0  0  0  0  0  0
   27.5946  -22.2239  -13.2500 O   0  0  0  0  0  0  0  0  0  0  0  0
   30.2742  -25.3075  -19.0972 N   0  0  0  0  0  0  0  0  0  0  0  0
   24.9459  -21.7542   -9.8128 C   0  0  0  0  0  0  0  0  0  0  0  0
   24.7936  -20.6603  -10.7101 O   0  0  0  0  0  0  0  0  0  0  0  0
   23.8368  -19.8791  -10.4739 C   0  0  0  0  0  0  0  0  0  0  0  0
   25.7140  -20.4751  -11.8402 C   0  0  1  0  0  0  0  0  0  0  0  0
   25.1165  -21.0515  -13.1148 N   0  0  0  0  0  0  0  0  0  0  0  0
   26.0879  -20.7468  -14.1681 C   0  0  0  0  0  0  0  0  0  0  0  0
   23.8417  -20.3256  -13.3656 O   0  0  0  0  0  0  0  0  0  0  0  0
   23.8063  -19.0877  -13.5727 N   0  0  0  0  0  0  0  0  0  0  0  0
   22.6315  -21.0451  -13.3725 C   0  0  0  0  0  0  0  0  0  0  0  0
   22.4014  -22.3278  -12.7531 C   0  0  0  0  0  0  0  0  0  0  0  0
   21.6015  -23.0562  -13.8396 C   0  0  0  0  0  0  0  0  0  0  0  0
   20.8871  -21.9559  -14.5847 C   0  0  1  0  0  0  0  0  0  0  0  0
   21.3593  -20.6585  -13.9843 C   0  0  0  0  0  0  0  0  0  0  0  0
   20.4859  -20.1477  -12.9043 O   0  0  0  0  0  0  0  0  0  0  0  0
   19.3523  -19.4084  -13.1904 O   0  0  0  0  0  0  0  0  0  0  0  0
  2  1  1  0
  3  2  2  0
  4  2  1  0
  5  6  1  0
  5  4  1  0
  7  6  1  0
  8  7  1  0
  8  9  1  6
 10  8  1  0
 10 17  1  0
 11 10  2  0
 13 12  1  0
 14 13  2  0
 16 15  1  1
 15 13  1  0
 17 16  1  0
 18 20  1  0
 18 16  1  0
 19 18  2  0
 20 21  1  0
 22 21  1  0
 23 22  1  0
 24 23  1  0
 24 20  1  0
 24 25  1  1
 26 25  1  0
 27 25  2  0
M  END
$$$$
