RNP.pdb
     RDKit          3D

 27 27  0  0  1  0  0  0  0  0999 V2000
   27.8181  -24.1926  -16.3399 N   0  0  0  0  0  0  0  0  0  0  0  0
   27.5383  -24.3454  -17.7163 C   0  0  0  0  0  0  0  0  0  0  0  0
   27.8016  -25.4494  -18.3218 N   0  0  0  0  0  0  0  0  0  0  0  0
   26.9545  -23.2779  -18.4777 N   0  0  0  0  0  0  0  0  0  0  0  0
   26.4399  -22.0833  -17.8729 C   0  0  0  0  0  0  0  0  0  0  0  0
   25.1291  -22.3933  -17.2031 C   0  0  0  0  0  0  0  0  0  0  0  0
   24.4777  -21.1692  -16.6895 C   0  0  0  0  0  0  0  0  0  0  0  0
   24.5706  -20.9235  -15.2239 C   0  0  2  0  0  0  0  0  0  0  0  0
   25.6981  -21.4935  -14.5591 N   0  0  0  0  0  0  0  0  0  0  0  0
   23.3158  -21.4467  -14.6144 C   0  0  0  0  0  0  0  0  0  0  0  0
   23.1434  -22.6668  -14.4341 O   0  0  0  0  0  0  0  0  0  0  0  0
   27.6039  -25.6206  -19.3125 N   0  0  0  0  0  0  0  0  0  0  0  0
   22.1464  -18.5713  -11.6288 C   0  0  0  0  0  0  0  0  0  0  0  0
   21.1849  -19.6187  -11.6869 O   0  0  0  0  0  0  0  0  0  0  0  0
   21.0183  -20.2771  -10.6285 C   0  0  0  0  0  0  0  0  0  0  0  0
   20.4421  -19.8958  -12.9238 C   0  0  2  0  0  0  0  0  0  0  0  0
   21.0703  -21.0607  -13.6737 N   0  0  0  0  0  0  0  0  0  0  0  0
   22.3128  -20.5298  -14.2395 C   0  0  0  0  0  0  0  0  0  0  0  0
   20.1285  -21.4363  -14.7631 O   0  0  0  0  0  0  0  0  0  0  0  0
   20.2917  -21.0571  -15.9488 N   0  0  0  0  0  0  0  0  0  0  0  0
   19.0156  -22.2441  -14.4608 C   0  0  0  0  0  0  0  0  0  0  0  0
   18.6201  -22.6894  -13.1465 C   0  0  0  0  0  0  0  0  0  0  0  0
   18.2661  -24.1575  -13.4117 C   0  0  0  0  0  0  0  0  0  0  0  0
   17.8244  -24.1853  -14.8540 C   0  0  1  0  0  0  0  0  0  0  0  0
   18.0241  -22.7917  -15.3876 C   0  0  0  0  0  0  0  0  0  0  0  0
   16.8171  -21.9399  -15.2988 O   0  0  0  0  0  0  0  0  0  0  0  0
   15.7675  -22.0914  -16.1869 O   0  0  0  0  0  0  0  0  0  0  0  0
  2  1  1  0
  3  2  2  0
  4  2  1  0
  5  6  1  0
  5  4  1  0
  7  6  1  0
  8  7  1  0
  8  9  1  1
 10  8  1  0
 10 17  1  0
 11 10  2  0
 13 12  1  0
 14 13  2  0
 16 15  1  1
 15 13  1  0
 17 16  1  0
 18 20  1  0
 18 16  1  0
 19 18  2  0
 20 21  1  0
 22 21  1  0
 23 22  1  0
 24 23  1  0
 24 20  1  0
 24 25  1  1
 26 25  1  0
 27 25  2  0
M  END
$$$$
