GRL.pdb
     RDKit          3D

 24 23  0  0  1  0  0  0  0  0999 V2000
    7.6416  -12.8442   18.5047 N   0  0  0  0  0  0  0  0  0  0  0  0
    8.6409  -13.7415   18.9853 C   0  0  0  0  0  0  0  0  0  0  0  0
    8.2325  -14.4600   20.2200 C   0  0  0  0  0  0  0  0  0  0  0  0
    7.0983  -14.2412   20.7195 O   0  0  0  0  0  0  0  0  0  0  0  0
    9.2212  -20.1207   19.0346 N   0  0  0  0  0  0  0  0  0  0  0  0
    8.8229  -21.0723   20.0323 C   0  0  0  0  0  0  0  0  0  0  0  0
    8.0030  -21.9917   19.6273 N   0  0  0  0  0  0  0  0  0  0  0  0
    9.2838  -21.0184   21.3548 N   0  0  0  0  0  0  0  0  0  0  0  0
    9.8399  -19.7732   21.8510 C   0  0  0  0  0  0  0  0  0  0  0  0
    8.8506  -18.6236   21.6440 C   0  0  0  0  0  0  0  0  0  0  0  0
    9.4832  -17.3944   22.2501 C   0  0  0  0  0  0  0  0  0  0  0  0
    8.6606  -16.1555   22.0380 C   0  0  2  0  0  0  0  0  0  0  0  0
    9.0624  -15.3965   20.8814 N   0  0  0  0  0  0  0  0  0  0  0  0
    8.9053  -15.2738   23.2354 C   0  0  0  0  0  0  0  0  0  0  0  0
   10.0709  -14.8499   23.3815 O   0  0  0  0  0  0  0  0  0  0  0  0
    7.6490  -22.7355   20.2378 C   0  0  0  0  0  0  0  0  0  0  0  0
    8.0177  -11.3130   26.7437 C   0  0  2  0  0  0  0  0  0  0  0  0
    7.0500  -12.4268   26.8203 C   0  0  0  0  0  0  0  0  0  0  0  0
    5.6367  -11.8727   27.0576 C   0  0  0  0  0  0  0  0  0  0  0  0
    6.9698  -13.3009   25.6152 C   0  0  1  0  0  0  0  0  0  0  0  0
    8.1794  -14.1049   25.2973 N   0  0  0  0  0  0  0  0  0  0  0  0
    7.8988  -14.9349   24.1465 C   0  0  0  0  0  0  0  0  0  0  0  0
    8.6418  -14.9728   26.4005 O   0  0  0  0  0  0  0  0  0  0  0  0
    9.3218  -14.4821   27.3264 O   0  0  0  0  0  0  0  0  0  0  0  0
  1  2  1  0
  2  3  1  0
  3  4  2  0
  3 13  1  0
  6  7  2  0
  6  5  1  0
  8  6  1  0
  9  8  1  0
 10  9  1  0
 11 10  1  0
 12 11  1  1
 12 14  1  0
 13 12  1  0
 14 15  2  0
 17 16  1  1
 17 19  1  0
 18 17  1  0
 20 19  1  6
 20 22  1  0
 21 14  1  0
 21 20  1  0
 22 24  1  0
 23 22  2  0
M  END
$$$$
