GRL.pdb
     RDKit          3D

 24 23  0  0  1  0  0  0  0  0999 V2000
    7.8767  -12.5010   18.8264 N   0  0  0  0  0  0  0  0  0  0  0  0
    8.7933  -13.3648   19.4961 C   0  0  0  0  0  0  0  0  0  0  0  0
    8.1626  -14.1454   20.5918 C   0  0  0  0  0  0  0  0  0  0  0  0
    7.0096  -13.8363   20.9904 O   0  0  0  0  0  0  0  0  0  0  0  0
    4.2702  -20.6515   23.2721 N   0  0  0  0  0  0  0  0  0  0  0  0
    5.6760  -20.9404   23.2666 C   0  0  0  0  0  0  0  0  0  0  0  0
    6.0774  -21.7647   24.1836 N   0  0  0  0  0  0  0  0  0  0  0  0
    6.5601  -20.3748   22.3377 N   0  0  0  0  0  0  0  0  0  0  0  0
    6.6108  -18.9300   22.2111 C   0  0  0  0  0  0  0  0  0  0  0  0
    7.7196  -18.3526   23.0944 C   0  0  0  0  0  0  0  0  0  0  0  0
    8.5748  -17.4849   22.2030 C   0  0  0  0  0  0  0  0  0  0  0  0
    8.1879  -16.0346   22.2631 C   0  0  2  0  0  0  0  0  0  0  0  0
    8.7964  -15.2398   21.2272 N   0  0  0  0  0  0  0  0  0  0  0  0
    8.7161  -15.5087   23.5728 C   0  0  0  0  0  0  0  0  0  0  0  0
    9.9496  -15.3250   23.6383 O   0  0  0  0  0  0  0  0  0  0  0  0
    7.0596  -22.0323   24.3055 C   0  0  0  0  0  0  0  0  0  0  0  0
    5.5748  -12.2616   26.6467 C   0  0  2  0  0  0  0  0  0  0  0  0
    6.6917  -12.9107   25.9297 C   0  0  0  0  0  0  0  0  0  0  0  0
    7.7745  -11.8707   25.6029 C   0  0  0  0  0  0  0  0  0  0  0  0
    7.3710  -14.0214   26.6560 C   0  0  2  0  0  0  0  0  0  0  0  0
    8.4379  -14.7441   25.9143 N   0  0  0  0  0  0  0  0  0  0  0  0
    7.8902  -15.2341   24.6685 C   0  0  0  0  0  0  0  0  0  0  0  0
    9.0263  -15.8835   26.6488 O   0  0  0  0  0  0  0  0  0  0  0  0
    8.6508  -17.0455   26.3858 O   0  0  0  0  0  0  0  0  0  0  0  0
  1  2  1  0
  2  3  1  0
  3  4  2  0
  3 13  1  0
  6  7  2  0
  6  5  1  0
  8  6  1  0
  9  8  1  0
 10  9  1  0
 11 10  1  0
 12 11  1  6
 12 14  1  0
 13 12  1  0
 14 15  2  0
 17 16  1  6
 17 19  1  0
 18 17  1  0
 20 19  1  6
 20 22  1  0
 21 14  1  0
 21 20  1  0
 22 24  1  0
 23 22  2  0
M  END
$$$$
