GRL.pdb
     RDKit          3D

 24 23  0  0  1  0  0  0  0  0999 V2000
    5.2331  -19.0548   23.2335 N   0  0  0  0  0  0  0  0  0  0  0  0
    5.4379  -17.6871   23.5836 C   0  0  0  0  0  0  0  0  0  0  0  0
    6.8418  -17.2409   23.3900 C   0  0  0  0  0  0  0  0  0  0  0  0
    7.7855  -18.0379   23.6303 O   0  0  0  0  0  0  0  0  0  0  0  0
    8.7897  -12.7675   18.1323 N   0  0  0  0  0  0  0  0  0  0  0  0
    8.0633  -13.9197   17.6804 C   0  0  0  0  0  0  0  0  0  0  0  0
    8.0115  -14.0747   16.3940 N   0  0  0  0  0  0  0  0  0  0  0  0
    7.4494  -14.8198   18.5622 N   0  0  0  0  0  0  0  0  0  0  0  0
    7.4059  -14.4937   19.9756 C   0  0  0  0  0  0  0  0  0  0  0  0
    8.8175  -14.4820   20.5674 C   0  0  0  0  0  0  0  0  0  0  0  0
    8.6658  -14.1982   22.0422 C   0  0  0  0  0  0  0  0  0  0  0  0
    8.5381  -15.4500   22.8626 C   0  0  2  0  0  0  0  0  0  0  0  0
    7.1872  -15.9437   22.9413 N   0  0  0  0  0  0  0  0  0  0  0  0
    8.9416  -15.0799   24.2666 C   0  0  0  0  0  0  0  0  0  0  0  0
    8.6625  -13.9197   24.6349 O   0  0  0  0  0  0  0  0  0  0  0  0
    7.5706  -14.8837   15.9443 C   0  0  0  0  0  0  0  0  0  0  0  0
   10.0433  -13.1749   27.9573 C   0  0  2  0  0  0  0  0  0  0  0  0
    8.8470  -14.0226   28.1398 C   0  0  0  0  0  0  0  0  0  0  0  0
    7.5775  -13.1718   27.9808 C   0  0  0  0  0  0  0  0  0  0  0  0
    8.7142  -15.1692   27.1963 C   0  0  2  0  0  0  0  0  0  0  0  0
    9.9476  -15.5818   26.4759 N   0  0  0  0  0  0  0  0  0  0  0  0
    9.5933  -15.9693   25.1281 C   0  0  0  0  0  0  0  0  0  0  0  0
   10.6785  -16.6995   27.1089 O   0  0  0  0  0  0  0  0  0  0  0  0
   10.2697  -17.8694   26.9524 O   0  0  0  0  0  0  0  0  0  0  0  0
  1  2  1  0
  2  3  1  0
  3  4  2  0
  3 13  1  0
  6  7  2  0
  6  5  1  0
  8  6  1  0
  9  8  1  0
 10  9  1  0
 11 10  1  0
 12 11  1  6
 12 14  1  0
 13 12  1  0
 14 15  2  0
 17 16  1  1
 17 19  1  0
 18 17  1  0
 20 19  1  6
 20 22  1  0
 21 14  1  0
 21 20  1  0
 22 24  1  0
 23 22  2  0
M  END
$$$$
