GRL.pdb
     RDKit          3D

 24 23  0  0  1  0  0  0  0  0999 V2000
    7.8598  -13.0539   18.0834 N   0  0  0  0  0  0  0  0  0  0  0  0
    8.5409  -14.1641   18.6650 C   0  0  0  0  0  0  0  0  0  0  0  0
    7.9536  -14.5931   19.9606 C   0  0  0  0  0  0  0  0  0  0  0  0
    6.9979  -13.9409   20.4556 O   0  0  0  0  0  0  0  0  0  0  0  0
    6.7685  -20.3780   25.0046 N   0  0  0  0  0  0  0  0  0  0  0  0
    6.5493  -20.9072   23.6888 C   0  0  0  0  0  0  0  0  0  0  0  0
    7.1760  -22.0107   23.4221 N   0  0  0  0  0  0  0  0  0  0  0  0
    5.7168  -20.2806   22.7513 N   0  0  0  0  0  0  0  0  0  0  0  0
    6.1289  -19.0064   22.1922 C   0  0  0  0  0  0  0  0  0  0  0  0
    7.1708  -18.3373   23.0921 C   0  0  0  0  0  0  0  0  0  0  0  0
    8.1579  -17.6542   22.1768 C   0  0  0  0  0  0  0  0  0  0  0  0
    7.7740  -16.2353   21.8669 C   0  0  2  0  0  0  0  0  0  0  0  0
    8.4162  -15.7167   20.6864 N   0  0  0  0  0  0  0  0  0  0  0  0
    8.2637  -15.4014   23.0226 C   0  0  0  0  0  0  0  0  0  0  0  0
    9.4891  -15.1625   23.0525 O   0  0  0  0  0  0  0  0  0  0  0  0
    7.0628  -22.5204   22.5398 C   0  0  0  0  0  0  0  0  0  0  0  0
    8.2578  -11.3223   26.5744 C   0  0  2  0  0  0  0  0  0  0  0  0
    7.1868  -12.3260   26.7428 C   0  0  0  0  0  0  0  0  0  0  0  0
    5.8781  -11.6281   27.1440 C   0  0  0  0  0  0  0  0  0  0  0  0
    6.8790  -13.1541   25.5419 C   0  0  1  0  0  0  0  0  0  0  0  0
    7.9234  -14.1246   25.1200 N   0  0  0  0  0  0  0  0  0  0  0  0
    7.4122  -14.9109   24.0188 C   0  0  0  0  0  0  0  0  0  0  0  0
    8.3675  -15.0450   26.1876 O   0  0  0  0  0  0  0  0  0  0  0  0
    7.7029  -16.0749   26.4283 O   0  0  0  0  0  0  0  0  0  0  0  0
  1  2  1  0
  2  3  1  0
  3  4  2  0
  3 13  1  0
  6  7  2  0
  6  5  1  0
  8  6  1  0
  9  8  1  0
 10  9  1  0
 11 10  1  0
 12 11  1  1
 12 14  1  0
 13 12  1  0
 14 15  2  0
 17 16  1  1
 17 19  1  0
 18 17  1  0
 20 19  1  6
 20 22  1  0
 21 14  1  0
 21 20  1  0
 22 24  1  0
 23 22  2  0
M  END
$$$$
