GRL.pdb
     RDKit          3D

 24 23  0  0  1  0  0  0  0  0999 V2000
    8.0401  -11.8309   19.2892 N   0  0  0  0  0  0  0  0  0  0  0  0
    8.7349  -13.0557   19.5170 C   0  0  0  0  0  0  0  0  0  0  0  0
    8.1445  -13.8640   20.6151 C   0  0  0  0  0  0  0  0  0  0  0  0
    7.1380  -13.4303   21.2336 O   0  0  0  0  0  0  0  0  0  0  0  0
    9.4317  -19.8037   18.5964 N   0  0  0  0  0  0  0  0  0  0  0  0
    8.0050  -19.9515   18.5478 C   0  0  0  0  0  0  0  0  0  0  0  0
    7.4864  -19.9500   17.3593 N   0  0  0  0  0  0  0  0  0  0  0  0
    7.2198  -20.0885   19.7007 N   0  0  0  0  0  0  0  0  0  0  0  0
    7.6496  -19.4315   20.9212 C   0  0  0  0  0  0  0  0  0  0  0  0
    8.1570  -18.0191   20.6202 C   0  0  0  0  0  0  0  0  0  0  0  0
    8.4919  -17.3875   21.9498 C   0  0  0  0  0  0  0  0  0  0  0  0
    8.0647  -15.9497   22.0317 C   0  0  2  0  0  0  0  0  0  0  0  0
    8.6592  -15.1204   21.0148 N   0  0  0  0  0  0  0  0  0  0  0  0
    8.5679  -15.4325   23.3547 C   0  0  0  0  0  0  0  0  0  0  0  0
    9.8077  -15.3560   23.4836 O   0  0  0  0  0  0  0  0  0  0  0  0
    6.4758  -19.9793   17.1888 C   0  0  0  0  0  0  0  0  0  0  0  0
    7.6848  -11.6567   24.9869 C   0  0  2  0  0  0  0  0  0  0  0  0
    7.3479  -12.2534   26.2958 C   0  0  0  0  0  0  0  0  0  0  0  0
    6.0353  -11.6506   26.8200 C   0  0  0  0  0  0  0  0  0  0  0  0
    7.1734  -13.7340   26.3085 C   0  0  2  0  0  0  0  0  0  0  0  0
    8.2348  -14.5325   25.6403 N   0  0  0  0  0  0  0  0  0  0  0  0
    7.7132  -15.0530   24.3956 C   0  0  0  0  0  0  0  0  0  0  0  0
    8.7450  -15.6626   26.4445 O   0  0  0  0  0  0  0  0  0  0  0  0
    8.2305  -16.7933   26.3134 O   0  0  0  0  0  0  0  0  0  0  0  0
  1  2  1  0
  2  3  1  0
  3  4  2  0
  3 13  1  0
  6  7  2  0
  6  5  1  0
  8  6  1  0
  9  8  1  0
 10  9  1  0
 11 10  1  0
 12 11  1  6
 12 14  1  0
 13 12  1  0
 14 15  2  0
 17 16  1  1
 17 19  1  0
 18 17  1  0
 20 19  1  6
 20 22  1  0
 21 14  1  0
 21 20  1  0
 22 24  1  0
 23 22  2  0
M  END
$$$$
