GRL.pdb
     RDKit          3D

 24 23  0  0  1  0  0  0  0  0999 V2000
    4.8111  -12.4883   27.4165 N   0  0  0  0  0  0  0  0  0  0  0  0
    5.4526  -11.9967   26.2412 C   0  0  0  0  0  0  0  0  0  0  0  0
    6.1122  -13.0659   25.4479 C   0  0  0  0  0  0  0  0  0  0  0  0
    6.1098  -14.2489   25.8771 O   0  0  0  0  0  0  0  0  0  0  0  0
    9.3681  -15.2253   18.0902 N   0  0  0  0  0  0  0  0  0  0  0  0
    8.2527  -14.3229   18.0581 C   0  0  0  0  0  0  0  0  0  0  0  0
    8.1410  -13.6156   16.9770 N   0  0  0  0  0  0  0  0  0  0  0  0
    7.3427  -14.2083   19.1179 N   0  0  0  0  0  0  0  0  0  0  0  0
    7.5080  -15.0657   20.2770 C   0  0  0  0  0  0  0  0  0  0  0  0
    8.5077  -14.4519   21.2603 C   0  0  0  0  0  0  0  0  0  0  0  0
    7.7569  -13.3995   22.0398 C   0  0  0  0  0  0  0  0  0  0  0  0
    7.4142  -13.8452   23.4327 C   0  0  2  0  0  0  0  0  0  0  0  0
    6.7570  -12.8265   24.2109 N   0  0  0  0  0  0  0  0  0  0  0  0
    8.7240  -14.1317   24.1207 C   0  0  0  0  0  0  0  0  0  0  0  0
    9.4728  -13.1514   24.3154 O   0  0  0  0  0  0  0  0  0  0  0  0
    7.3360  -13.0109   16.7835 C   0  0  0  0  0  0  0  0  0  0  0  0
   11.3070  -14.3181   28.1226 C   0  0  2  0  0  0  0  0  0  0  0  0
   10.3952  -15.4787   28.0551 C   0  0  0  0  0  0  0  0  0  0  0  0
    9.5093  -15.5180   29.3098 C   0  0  0  0  0  0  0  0  0  0  0  0
    9.4763  -15.5146   26.8816 C   0  0  2  0  0  0  0  0  0  0  0  0
   10.1144  -15.6118   25.5422 N   0  0  0  0  0  0  0  0  0  0  0  0
    9.1021  -15.4160   24.5278 C   0  0  0  0  0  0  0  0  0  0  0  0
   10.7958  -16.8974   25.2833 O   0  0  0  0  0  0  0  0  0  0  0  0
   10.1176  -17.9080   25.0021 O   0  0  0  0  0  0  0  0  0  0  0  0
  1  2  1  0
  2  3  1  0
  3  4  2  0
  3 13  1  0
  6  7  2  0
  6  5  1  0
  8  6  1  0
  9  8  1  0
 10  9  1  0
 11 10  1  0
 12 11  1  6
 12 14  1  0
 13 12  1  0
 14 15  2  0
 17 16  1  1
 17 19  1  0
 18 17  1  0
 20 19  1  1
 20 22  1  0
 21 14  1  0
 21 20  1  0
 22 24  1  0
 23 22  2  0
M  END
$$$$
