PKV.pdb
     RDKit          3D

 24 24  0  0  1  0  0  0  0  0999 V2000
   28.0531  -19.7808  -16.7048 N   0  0  0  0  0  0  0  0  0  0  0  0
   27.3172  -18.9209  -17.5794 C   0  0  0  0  0  0  0  0  0  0  0  0
   27.6535  -17.4998  -17.2033 C   0  0  0  0  0  0  0  0  0  0  0  0
   28.4230  -17.6469  -15.9276 C   0  0  0  0  0  0  0  0  0  0  0  0
   28.2500  -19.0722  -15.4591 C   0  0  1  0  0  0  0  0  0  0  0  0
   27.0323  -19.2403  -14.6280 C   0  0  0  0  0  0  0  0  0  0  0  0
   26.8320  -18.4391  -13.6751 O   0  0  0  0  0  0  0  0  0  0  0  0
   26.0836  -20.2714  -14.8667 N   0  0  0  0  0  0  0  0  0  0  0  0
   24.9712  -20.4909  -14.0019 C   0  0  1  0  0  0  0  0  0  0  0  0
   23.9013  -21.3477  -14.6385 C   0  0  0  0  0  0  0  0  0  0  0  0
   22.6586  -21.4496  -13.8051 C   0  0  0  0  0  0  0  0  0  0  0  0
   21.6775  -22.3292  -14.5502 C   0  0  0  0  0  0  0  0  0  0  0  0
   20.3244  -22.3328  -13.8665 C   0  0  0  0  0  0  0  0  0  0  0  0
   19.3675  -23.0080  -14.7232 N   0  0  0  0  0  0  0  0  0  0  0  0
   25.3793  -21.1771  -12.7272 C   0  0  0  0  0  0  0  0  0  0  0  0
   25.9327  -22.2993  -12.7198 O   0  0  0  0  0  0  0  0  0  0  0  0
   26.1665  -19.0711   -9.1663 C   0  0  0  0  0  0  0  0  0  0  0  0
   26.4830  -20.4939   -9.4865 C   0  0  2  0  0  0  0  0  0  0  0  0
   27.8041  -20.5778  -10.1843 C   0  0  0  0  0  0  0  0  0  0  0  0
   25.3720  -21.2060  -10.2271 C   0  0  2  0  0  0  0  0  0  0  0  0
   25.1408  -20.5534  -11.4739 N   0  0  0  0  0  0  0  0  0  0  0  0
   24.1511  -21.1316   -9.3966 C   0  0  0  0  0  0  0  0  0  0  0  0
   24.0296  -21.7723   -8.1684 O   0  0  0  0  0  0  0  0  0  0  0  0
   23.1688  -20.4678   -9.7957 O   0  0  0  0  0  0  0  0  0  0  0  0
  1  2  1  0
  2  3  1  0
  4  3  1  0
  5  1  1  0
  5  4  1  0
  5  6  1  1
  7  6  2  0
  8  6  1  0
  9 10  1  6
  9  8  1  0
 10 11  1  0
 12 11  1  0
 13 12  1  0
 13 14  1  0
 15 21  1  0
 15  9  1  0
 16 15  2  0
 18 17  1  6
 19 18  1  0
 20 18  1  0
 20 21  1  6
 22 23  1  0
 22 20  1  0
 24 22  2  0
M  END
$$$$
