PKV.pdb
     RDKit          3D

 24 24  0  0  1  0  0  0  0  0999 V2000
   28.0634  -20.4647  -17.4334 N   0  0  0  0  0  0  0  0  0  0  0  0
   27.3800  -20.0236  -18.6100 C   0  0  0  0  0  0  0  0  0  0  0  0
   27.6768  -18.5549  -18.7804 C   0  0  0  0  0  0  0  0  0  0  0  0
   28.3601  -18.1839  -17.5011 C   0  0  0  0  0  0  0  0  0  0  0  0
   28.1694  -19.3325  -16.5392 C   0  0  1  0  0  0  0  0  0  0  0  0
   26.9001  -19.2166  -15.7793 C   0  0  0  0  0  0  0  0  0  0  0  0
   26.6217  -18.1182  -15.2261 O   0  0  0  0  0  0  0  0  0  0  0  0
   25.9870  -20.2983  -15.6523 N   0  0  0  0  0  0  0  0  0  0  0  0
   24.7811  -20.1857  -14.8995 C   0  0  1  0  0  0  0  0  0  0  0  0
   23.5570  -20.5541  -15.7058 C   0  0  0  0  0  0  0  0  0  0  0  0
   22.2730  -20.2849  -14.9790 C   0  0  0  0  0  0  0  0  0  0  0  0
   21.1356  -20.6909  -15.8915 C   0  0  0  0  0  0  0  0  0  0  0  0
   19.7961  -20.3157  -15.2888 C   0  0  0  0  0  0  0  0  0  0  0  0
   18.7444  -20.6759  -16.2213 N   0  0  0  0  0  0  0  0  0  0  0  0
   24.7911  -21.0778  -13.6885 C   0  0  0  0  0  0  0  0  0  0  0  0
   24.8542  -22.3244  -13.7771 O   0  0  0  0  0  0  0  0  0  0  0  0
   25.5479  -19.4583   -9.7446 C   0  0  0  0  0  0  0  0  0  0  0  0
   25.7394  -20.8534  -10.2384 C   0  0  2  0  0  0  0  0  0  0  0  0
   27.1235  -21.0158  -10.7837 C   0  0  0  0  0  0  0  0  0  0  0  0
   24.6631  -21.3043  -11.2018 C   0  0  2  0  0  0  0  0  0  0  0  0
   24.7278  -20.5135  -12.3870 N   0  0  0  0  0  0  0  0  0  0  0  0
   23.3531  -21.1052  -10.5460 C   0  0  0  0  0  0  0  0  0  0  0  0
   22.9454  -21.8304   -9.4317 O   0  0  0  0  0  0  0  0  0  0  0  0
   22.5576  -20.2510  -10.9957 O   0  0  0  0  0  0  0  0  0  0  0  0
  1  2  1  0
  2  3  1  0
  4  3  1  0
  5  1  1  0
  5  4  1  0
  5  6  1  6
  7  6  2  0
  8  6  1  0
  9 10  1  6
  9  8  1  0
 10 11  1  0
 12 11  1  0
 13 12  1  0
 13 14  1  0
 15 21  1  0
 15  9  1  0
 16 15  2  0
 18 17  1  6
 19 18  1  0
 20 18  1  0
 20 21  1  6
 22 23  1  0
 22 20  1  0
 24 22  2  0
M  END
$$$$
