PKV.pdb
     RDKit          3D

 24 24  0  0  1  0  0  0  0  0999 V2000
   28.7679  -20.0825  -15.2672 N   0  0  0  0  0  0  0  0  0  0  0  0
   29.3713  -19.0692  -14.4580 C   0  0  0  0  0  0  0  0  0  0  0  0
   29.5428  -19.6404  -13.0729 C   0  0  0  0  0  0  0  0  0  0  0  0
   28.7813  -20.9281  -13.1273 C   0  0  0  0  0  0  0  0  0  0  0  0
   27.9656  -20.9156  -14.3983 C   0  0  1  0  0  0  0  0  0  0  0  0
   26.6484  -20.2596  -14.2072 C   0  0  0  0  0  0  0  0  0  0  0  0
   26.5836  -19.2253  -13.4888 O   0  0  0  0  0  0  0  0  0  0  0  0
   25.4573  -20.7544  -14.8043 N   0  0  0  0  0  0  0  0  0  0  0  0
   24.1777  -20.1951  -14.5157 C   0  0  1  0  0  0  0  0  0  0  0  0
   23.3067  -20.0739  -15.7449 C   0  0  0  0  0  0  0  0  0  0  0  0
   23.9112  -19.2066  -16.8088 C   0  0  0  0  0  0  0  0  0  0  0  0
   23.0277  -19.3011  -18.0343 C   0  0  0  0  0  0  0  0  0  0  0  0
   23.6595  -18.5899  -19.2147 C   0  0  0  0  0  0  0  0  0  0  0  0
   22.8174  -18.7777  -20.3814 N   0  0  0  0  0  0  0  0  0  0  0  0
   23.4149  -21.0252  -13.5201 C   0  0  0  0  0  0  0  0  0  0  0  0
   23.3199  -22.2689  -13.6201 O   0  0  0  0  0  0  0  0  0  0  0  0
   22.3517  -19.2120   -9.7515 C   0  0  0  0  0  0  0  0  0  0  0  0
   22.7074  -20.6340  -10.0314 C   0  0  2  0  0  0  0  0  0  0  0  0
   24.1832  -20.8299   -9.8798 C   0  0  0  0  0  0  0  0  0  0  0  0
   22.1722  -21.1395  -11.3535 C   0  0  2  0  0  0  0  0  0  0  0  0
   22.7702  -20.4030  -12.4184 N   0  0  0  0  0  0  0  0  0  0  0  0
   20.7096  -20.9244  -11.3643 C   0  0  0  0  0  0  0  0  0  0  0  0
   19.8305  -21.6519  -10.5695 O   0  0  0  0  0  0  0  0  0  0  0  0
   20.2161  -20.0535  -12.1147 O   0  0  0  0  0  0  0  0  0  0  0  0
  1  2  1  0
  2  3  1  0
  4  3  1  0
  5  1  1  0
  5  4  1  0
  5  6  1  1
  7  6  2  0
  8  6  1  0
  9 10  1  6
  9  8  1  0
 10 11  1  0
 12 11  1  0
 13 12  1  0
 13 14  1  0
 15 21  1  0
 15  9  1  0
 16 15  2  0
 18 17  1  6
 19 18  1  0
 20 18  1  0
 20 21  1  6
 22 23  1  0
 22 20  1  0
 24 22  2  0
M  END
$$$$
