PKV.pdb
     RDKit          3D

 24 24  0  0  1  0  0  0  0  0999 V2000
   17.8354  -11.7096  -17.4870 N   0  0  0  0  0  0  0  0  0  0  0  0
   19.1988  -12.0339  -17.7734 C   0  0  0  0  0  0  0  0  0  0  0  0
   19.8098  -12.5755  -16.5054 C   0  0  0  0  0  0  0  0  0  0  0  0
   18.7669  -12.2998  -15.4674 C   0  0  0  0  0  0  0  0  0  0  0  0
   17.7535  -11.3653  -16.0843 C   0  0  1  0  0  0  0  0  0  0  0  0
   18.1428   -9.9418  -15.9288 C   0  0  0  0  0  0  0  0  0  0  0  0
   18.9660   -9.4448  -16.7444 O   0  0  0  0  0  0  0  0  0  0  0  0
   17.6217   -9.1184  -14.8942 N   0  0  0  0  0  0  0  0  0  0  0  0
   17.8798   -7.7169  -14.8404 C   0  0  1  0  0  0  0  0  0  0  0  0
   16.6901   -6.9262  -14.3469 C   0  0  0  0  0  0  0  0  0  0  0  0
   15.4789   -7.0843  -15.2172 C   0  0  0  0  0  0  0  0  0  0  0  0
   14.3343   -6.3549  -14.5471 C   0  0  0  0  0  0  0  0  0  0  0  0
   13.0808   -6.4144  -15.3978 C   0  0  0  0  0  0  0  0  0  0  0  0
   11.9823   -5.8231  -14.6569 N   0  0  0  0  0  0  0  0  0  0  0  0
   19.0291   -7.3934  -13.9257 C   0  0  0  0  0  0  0  0  0  0  0  0
   19.0291   -7.7094  -12.7150 O   0  0  0  0  0  0  0  0  0  0  0  0
   22.7731   -6.9102  -15.6328 C   0  0  0  0  0  0  0  0  0  0  0  0
   22.5011   -7.2096  -14.1964 C   0  0  2  0  0  0  0  0  0  0  0  0
   22.3918   -8.6884  -13.9956 C   0  0  0  0  0  0  0  0  0  0  0  0
   21.3235   -6.4435  -13.6341 C   0  0  2  0  0  0  0  0  0  0  0  0
   20.1668   -6.7065  -14.4260 N   0  0  0  0  0  0  0  0  0  0  0  0
   21.6471   -5.0022  -13.6956 C   0  0  0  0  0  0  0  0  0  0  0  0
   20.9689   -4.1075  -14.5161 O   0  0  0  0  0  0  0  0  0  0  0  0
   22.5694   -4.5427  -12.9864 O   0  0  0  0  0  0  0  0  0  0  0  0
  1  2  1  0
  2  3  1  0
  4  3  1  0
  5  1  1  0
  5  4  1  0
  5  6  1  6
  7  6  2  0
  8  6  1  0
  9 10  1  1
  9  8  1  0
 10 11  1  0
 12 11  1  0
 13 12  1  0
 13 14  1  0
 15 21  1  0
 15  9  1  0
 16 15  2  0
 18 17  1  6
 19 18  1  0
 20 18  1  0
 20 21  1  6
 22 23  1  0
 22 20  1  0
 24 22  2  0
M  END
$$$$
