PKV.pdb
     RDKit          3D

 24 24  0  0  1  0  0  0  0  0999 V2000
   25.7579  -15.5483  -17.3666 N   0  0  0  0  0  0  0  0  0  0  0  0
   24.5366  -15.1341  -16.7479 C   0  0  0  0  0  0  0  0  0  0  0  0
   24.8863  -14.5629  -15.3967 C   0  0  0  0  0  0  0  0  0  0  0  0
   26.3323  -14.9131  -15.2310 C   0  0  0  0  0  0  0  0  0  0  0  0
   26.6818  -15.9071  -16.3129 C   0  0  1  0  0  0  0  0  0  0  0  0
   26.3984  -17.3033  -15.8980 C   0  0  0  0  0  0  0  0  0  0  0  0
   25.2121  -17.7262  -15.9596 O   0  0  0  0  0  0  0  0  0  0  0  0
   27.4152  -18.1811  -15.4336 N   0  0  0  0  0  0  0  0  0  0  0  0
   27.1576  -19.5550  -15.1516 C   0  0  1  0  0  0  0  0  0  0  0  0
   28.3403  -20.4431  -15.4627 C   0  0  0  0  0  0  0  0  0  0  0  0
   28.0901  -21.8867  -15.1424 C   0  0  0  0  0  0  0  0  0  0  0  0
   27.7196  -22.5854  -16.4330 C   0  0  0  0  0  0  0  0  0  0  0  0
   27.3826  -24.0424  -16.1839 C   0  0  0  0  0  0  0  0  0  0  0  0
   26.9117  -24.6336  -17.4225 N   0  0  0  0  0  0  0  0  0  0  0  0
   26.8150  -19.7753  -13.7037 C   0  0  0  0  0  0  0  0  0  0  0  0
   27.5441  -19.3630  -12.7741 O   0  0  0  0  0  0  0  0  0  0  0  0
   23.0635  -20.6330  -10.6271 C   0  0  0  0  0  0  0  0  0  0  0  0
   23.6504  -20.5866  -11.9984 C   0  0  2  0  0  0  0  0  0  0  0  0
   23.0649  -21.6761  -12.8407 C   0  0  0  0  0  0  0  0  0  0  0  0
   25.1636  -20.5761  -12.0057 C   0  0  2  0  0  0  0  0  0  0  0  0
   25.6292  -20.4719  -13.3498 N   0  0  0  0  0  0  0  0  0  0  0  0
   25.6302  -21.8502  -11.4186 C   0  0  0  0  0  0  0  0  0  0  0  0
   26.0478  -21.9679  -10.0974 O   0  0  0  0  0  0  0  0  0  0  0  0
   25.6598  -22.8837  -12.1227 O   0  0  0  0  0  0  0  0  0  0  0  0
  1  2  1  0
  2  3  1  0
  4  3  1  0
  5  1  1  0
  5  4  1  0
  5  6  1  1
  7  6  2  0
  8  6  1  0
  9 10  1  1
  9  8  1  0
 10 11  1  0
 12 11  1  0
 13 12  1  0
 13 14  1  0
 15 21  1  0
 15  9  1  0
 16 15  2  0
 18 17  1  1
 19 18  1  0
 20 18  1  0
 20 21  1  6
 22 23  1  0
 22 20  1  0
 24 22  2  0
M  END
$$$$
