PKV.pdb
     RDKit          3D

 24 24  0  0  1  0  0  0  0  0999 V2000
   25.3998  -15.6993  -18.3835 N   0  0  0  0  0  0  0  0  0  0  0  0
   25.8026  -16.4531  -19.5304 C   0  0  0  0  0  0  0  0  0  0  0  0
   24.8108  -16.1669  -20.6298 C   0  0  0  0  0  0  0  0  0  0  0  0
   23.7249  -15.4068  -19.9339 C   0  0  0  0  0  0  0  0  0  0  0  0
   23.9636  -15.5387  -18.4485 C   0  0  1  0  0  0  0  0  0  0  0  0
   23.3310  -16.7593  -17.8899 C   0  0  0  0  0  0  0  0  0  0  0  0
   22.0762  -16.8714  -17.9428 O   0  0  0  0  0  0  0  0  0  0  0  0
   24.0878  -17.8064  -17.2974 N   0  0  0  0  0  0  0  0  0  0  0  0
   23.4681  -18.9471  -16.7073 C   0  0  1  0  0  0  0  0  0  0  0  0
   24.4512  -20.0590  -16.4219 C   0  0  0  0  0  0  0  0  0  0  0  0
   23.7954  -21.3010  -15.8958 C   0  0  0  0  0  0  0  0  0  0  0  0
   24.8877  -22.3059  -15.5991 C   0  0  0  0  0  0  0  0  0  0  0  0
   24.2996  -23.6561  -15.2391 C   0  0  0  0  0  0  0  0  0  0  0  0
   25.3817  -24.6044  -15.0516 N   0  0  0  0  0  0  0  0  0  0  0  0
   22.7996  -18.6097  -15.4029 C   0  0  0  0  0  0  0  0  0  0  0  0
   23.4286  -18.1277  -14.4345 O   0  0  0  0  0  0  0  0  0  0  0  0
   19.9583  -16.3263  -15.0238 C   0  0  0  0  0  0  0  0  0  0  0  0
   19.5463  -17.5991  -14.3625 C   0  0  2  0  0  0  0  0  0  0  0  0
   18.6802  -17.3016  -13.1790 C   0  0  0  0  0  0  0  0  0  0  0  0
   20.7084  -18.5116  -14.0358 C   0  0  2  0  0  0  0  0  0  0  0  0
   21.4075  -18.8351  -15.2361 N   0  0  0  0  0  0  0  0  0  0  0  0
   20.1620  -19.7465  -13.4342 C   0  0  0  0  0  0  0  0  0  0  0  0
   19.9770  -19.9050  -12.0651 O   0  0  0  0  0  0  0  0  0  0  0  0
   19.8440  -20.7070  -14.1699 O   0  0  0  0  0  0  0  0  0  0  0  0
  1  2  1  0
  2  3  1  0
  4  3  1  0
  5  1  1  0
  5  4  1  0
  5  6  1  6
  7  6  2  0
  8  6  1  0
  9 10  1  1
  9  8  1  0
 10 11  1  0
 12 11  1  0
 13 12  1  0
 13 14  1  0
 15 21  1  0
 15  9  1  0
 16 15  2  0
 18 17  1  1
 19 18  1  0
 20 18  1  0
 20 21  1  6
 22 23  1  0
 22 20  1  0
 24 22  2  0
M  END
$$$$
