PKV.pdb
     RDKit          3D

 24 24  0  0  1  0  0  0  0  0999 V2000
   28.0868  -19.7826  -15.8070 N   0  0  0  0  0  0  0  0  0  0  0  0
   27.8879  -19.2580  -17.1227 C   0  0  0  0  0  0  0  0  0  0  0  0
   27.2753  -17.8879  -16.9745 C   0  0  0  0  0  0  0  0  0  0  0  0
   26.9393  -17.8092  -15.5178 C   0  0  0  0  0  0  0  0  0  0  0  0
   27.0792  -19.2006  -14.9475 C   0  0  1  0  0  0  0  0  0  0  0  0
   25.8301  -19.9887  -15.0915 C   0  0  0  0  0  0  0  0  0  0  0  0
   24.9080  -19.5369  -15.8234 O   0  0  0  0  0  0  0  0  0  0  0  0
   25.6351  -21.2339  -14.4346 N   0  0  0  0  0  0  0  0  0  0  0  0
   24.4081  -21.9544  -14.5278 C   0  0  1  0  0  0  0  0  0  0  0  0
   24.6010  -23.4481  -14.4021 C   0  0  0  0  0  0  0  0  0  0  0  0
   25.4150  -24.0303  -15.5192 C   0  0  0  0  0  0  0  0  0  0  0  0
   24.9812  -25.4690  -15.7011 C   0  0  0  0  0  0  0  0  0  0  0  0
   25.8038  -26.1520  -16.7760 C   0  0  0  0  0  0  0  0  0  0  0  0
   25.4000  -27.5430  -16.8632 N   0  0  0  0  0  0  0  0  0  0  0  0
   23.4364  -21.5476  -13.4541 C   0  0  0  0  0  0  0  0  0  0  0  0
   23.7244  -21.5997  -12.2375 O   0  0  0  0  0  0  0  0  0  0  0  0
   19.8235  -18.7385  -12.0292 C   0  0  0  0  0  0  0  0  0  0  0  0
   20.8809  -19.2236  -12.9638 C   0  0  2  0  0  0  0  0  0  0  0  0
   20.5547  -18.8065  -14.3634 C   0  0  0  0  0  0  0  0  0  0  0  0
   21.1657  -20.7041  -12.8346 C   0  0  2  0  0  0  0  0  0  0  0  0
   22.1404  -21.0845  -13.8038 N   0  0  0  0  0  0  0  0  0  0  0  0
   19.9052  -21.4338  -13.0888 C   0  0  0  0  0  0  0  0  0  0  0  0
   18.8916  -21.5477  -12.1437 O   0  0  0  0  0  0  0  0  0  0  0  0
   19.7187  -21.9823  -14.1975 O   0  0  0  0  0  0  0  0  0  0  0  0
  1  2  1  0
  2  3  1  0
  4  3  1  0
  5  1  1  0
  5  4  1  0
  5  6  1  6
  7  6  2  0
  8  6  1  0
  9 10  1  1
  9  8  1  0
 10 11  1  0
 12 11  1  0
 13 12  1  0
 13 14  1  0
 15 21  1  0
 15  9  1  0
 16 15  2  0
 18 17  1  1
 19 18  1  0
 20 18  1  0
 20 21  1  6
 22 23  1  0
 22 20  1  0
 24 22  2  0
M  END
$$$$
