PKV.pdb
     RDKit          3D

 24 24  0  0  1  0  0  0  0  0999 V2000
   20.1189  -15.3317  -18.3146 N   0  0  0  0  0  0  0  0  0  0  0  0
   19.6274  -15.2580  -19.6558 C   0  0  0  0  0  0  0  0  0  0  0  0
   20.8161  -15.3597  -20.5783 C   0  0  0  0  0  0  0  0  0  0  0  0
   21.9885  -15.2520  -19.6537 C   0  0  0  0  0  0  0  0  0  0  0  0
   21.4637  -14.7985  -18.3121 C   0  0  1  0  0  0  0  0  0  0  0  0
   21.3802  -13.3199  -18.2186 C   0  0  0  0  0  0  0  0  0  0  0  0
   22.4237  -12.6393  -18.4129 O   0  0  0  0  0  0  0  0  0  0  0  0
   20.1672  -12.6430  -17.9180 N   0  0  0  0  0  0  0  0  0  0  0  0
   20.0959  -11.2215  -17.8299 C   0  0  1  0  0  0  0  0  0  0  0  0
   18.8259  -10.6657  -18.4320 C   0  0  0  0  0  0  0  0  0  0  0  0
   18.8496  -10.6410  -19.9314 C   0  0  0  0  0  0  0  0  0  0  0  0
   17.5467  -10.0300  -20.4007 C   0  0  0  0  0  0  0  0  0  0  0  0
   17.4546  -10.0443  -21.9138 C   0  0  0  0  0  0  0  0  0  0  0  0
   16.2276   -9.3822  -22.3157 N   0  0  0  0  0  0  0  0  0  0  0  0
   20.1483  -10.7450  -16.4043 C   0  0  0  0  0  0  0  0  0  0  0  0
   19.4180  -11.2285  -15.5106 O   0  0  0  0  0  0  0  0  0  0  0  0
   23.6889   -9.0437  -15.0192 C   0  0  0  0  0  0  0  0  0  0  0  0
   22.5955   -9.6420  -14.1986 C   0  0  2  0  0  0  0  0  0  0  0  0
   22.8030  -11.1185  -14.0712 C   0  0  0  0  0  0  0  0  0  0  0  0
   21.2096   -9.2749  -14.6827 C   0  0  2  0  0  0  0  0  0  0  0  0
   21.0483   -9.7121  -16.0306 N   0  0  0  0  0  0  0  0  0  0  0  0
   21.0814   -7.8032  -14.6219 C   0  0  0  0  0  0  0  0  0  0  0  0
   20.9747   -7.1004  -13.4268 O   0  0  0  0  0  0  0  0  0  0  0  0
   21.0659   -7.1376  -15.6809 O   0  0  0  0  0  0  0  0  0  0  0  0
  1  2  1  0
  2  3  1  0
  4  3  1  0
  5  1  1  0
  5  4  1  0
  5  6  1  6
  7  6  2  0
  8  6  1  0
  9 10  1  1
  9  8  1  0
 10 11  1  0
 12 11  1  0
 13 12  1  0
 13 14  1  0
 15 21  1  0
 15  9  1  0
 16 15  2  0
 18 17  1  6
 19 18  1  0
 20 18  1  0
 20 21  1  6
 22 23  1  0
 22 20  1  0
 24 22  2  0
M  END
$$$$
