PKV.pdb
     RDKit          3D

 24 24  0  0  1  0  0  0  0  0999 V2000
   25.3537  -20.3702   -8.1688 N   0  0  0  0  0  0  0  0  0  0  0  0
   26.6601  -20.9066   -7.9417 C   0  0  0  0  0  0  0  0  0  0  0  0
   27.6241  -19.7474   -7.9067 C   0  0  0  0  0  0  0  0  0  0  0  0
   26.7956  -18.5877   -8.3645 C   0  0  0  0  0  0  0  0  0  0  0  0
   25.5091  -19.1465   -8.9245 C   0  0  1  0  0  0  0  0  0  0  0  0
   25.6339  -19.4967  -10.3611 C   0  0  0  0  0  0  0  0  0  0  0  0
   26.3716  -18.7870  -11.0973 O   0  0  0  0  0  0  0  0  0  0  0  0
   24.9524  -20.6029  -10.9373 N   0  0  0  0  0  0  0  0  0  0  0  0
   24.9865  -20.8660  -12.3384 C   0  0  1  0  0  0  0  0  0  0  0  0
   24.7970  -22.3308  -12.6587 C   0  0  0  0  0  0  0  0  0  0  0  0
   25.0314  -22.6499  -14.1053 C   0  0  0  0  0  0  0  0  0  0  0  0
   24.8076  -24.1356  -14.2892 C   0  0  0  0  0  0  0  0  0  0  0  0
   24.9884  -24.5360  -15.7403 C   0  0  0  0  0  0  0  0  0  0  0  0
   25.4093  -25.9235  -15.7953 N   0  0  0  0  0  0  0  0  0  0  0  0
   23.9121  -20.1151  -13.0760 C   0  0  0  0  0  0  0  0  0  0  0  0
   22.7558  -19.9799  -12.6171 O   0  0  0  0  0  0  0  0  0  0  0  0
   23.1570  -16.8006  -16.6842 C   0  0  0  0  0  0  0  0  0  0  0  0
   24.0207  -17.8089  -16.0028 C   0  0  2  0  0  0  0  0  0  0  0  0
   24.7862  -18.5953  -17.0202 C   0  0  0  0  0  0  0  0  0  0  0  0
   23.2691  -18.6795  -15.0194 C   0  0  2  0  0  0  0  0  0  0  0  0
   24.1910  -19.5285  -14.3388 N   0  0  0  0  0  0  0  0  0  0  0  0
   22.3091  -19.5044  -15.7834 C   0  0  0  0  0  0  0  0  0  0  0  0
   21.0093  -19.0945  -16.0595 O   0  0  0  0  0  0  0  0  0  0  0  0
   22.6588  -20.6265  -16.2118 O   0  0  0  0  0  0  0  0  0  0  0  0
  1  2  1  0
  2  3  1  0
  4  3  1  0
  5  1  1  0
  5  4  1  0
  5  6  1  6
  7  6  2  0
  8  6  1  0
  9 10  1  1
  9  8  1  0
 10 11  1  0
 12 11  1  0
 13 12  1  0
 13 14  1  0
 15 21  1  0
 15  9  1  0
 16 15  2  0
 18 17  1  6
 19 18  1  0
 20 18  1  0
 20 21  1  6
 22 23  1  0
 22 20  1  0
 24 22  2  0
M  END
$$$$
