TSS.pdb
     RDKit          3D

 20 19  0  0  1  0  0  0  0  0999 V2000
   20.2244  -11.7212  -15.4089 C   0  0  0  0  0  0  0  0  0  0  0  0
   19.1898  -11.7968  -16.5204 C   0  0  1  0  0  0  0  0  0  0  0  0
   19.1191  -13.1170  -16.9795 O   0  0  0  0  0  0  0  0  0  0  0  0
   17.8695  -11.3609  -15.9023 C   0  0  2  0  0  0  0  0  0  0  0  0
   16.8348  -11.6026  -16.8653 N   0  0  0  0  0  0  0  0  0  0  0  0
   17.9433   -9.9215  -15.5091 C   0  0  0  0  0  0  0  0  0  0  0  0
   18.1239   -9.0146  -16.3482 O   0  0  0  0  0  0  0  0  0  0  0  0
   18.0895   -8.9050  -11.4769 O   0  0  0  0  0  0  0  0  0  0  0  0
   17.4440   -8.0181  -12.2981 C   0  0  0  0  0  0  0  0  0  0  0  0
   17.9650   -8.1811  -13.7077 C   0  0  2  0  0  0  0  0  0  0  0  0
   17.8068   -9.5653  -14.1565 N   0  0  0  0  0  0  0  0  0  0  0  0
   19.4054   -7.8484  -13.7396 C   0  0  0  0  0  0  0  0  0  0  0  0
   20.2479   -8.7757  -13.9108 O   0  0  0  0  0  0  0  0  0  0  0  0
   23.0109   -6.2422  -15.5225 O   0  0  0  0  0  0  0  0  0  0  0  0
   21.6789   -6.5803  -15.2927 C   0  0  0  0  0  0  0  0  0  0  0  0
   21.3503   -6.2574  -13.8690 C   0  0  2  0  0  0  0  0  0  0  0  0
   19.9395   -6.5434  -13.5918 N   0  0  0  0  0  0  0  0  0  0  0  0
   21.5953   -4.8112  -13.5969 C   0  0  0  0  0  0  0  0  0  0  0  0
   20.7076   -3.9511  -13.8514 O   0  0  0  0  0  0  0  0  0  0  0  0
   22.7940   -4.3733  -13.0616 O   0  0  0  0  0  0  0  0  0  0  0  0
  2  1  1  1
  3  2  1  0
  4  2  1  0
  4  6  1  0
  4  5  1  6
  6 11  1  0
  7  6  2  0
  9  8  1  0
 10  9  1  1
 11 10  1  0
 12 10  1  0
 12 17  1  0
 13 12  2  0
 15 14  1  0
 16 15  1  6
 16 17  1  0
 16 18  1  0
 18 19  2  0
 18 20  1  0
M  END
$$$$
