TSS.pdb
     RDKit          3D

 20 19  0  0  1  0  0  0  0  0999 V2000
   19.3829   -8.3962  -19.6496 C   0  0  0  0  0  0  0  0  0  0  0  0
   19.0878   -9.7021  -18.9292 C   0  0  1  0  0  0  0  0  0  0  0  0
   18.3162  -10.5138  -19.7685 O   0  0  0  0  0  0  0  0  0  0  0  0
   20.4375  -10.3417  -18.6389 C   0  0  2  0  0  0  0  0  0  0  0  0
   20.1973  -11.6716  -18.1595 N   0  0  0  0  0  0  0  0  0  0  0  0
   21.1882   -9.5156  -17.6459 C   0  0  0  0  0  0  0  0  0  0  0  0
   20.7900   -9.3685  -16.4717 O   0  0  0  0  0  0  0  0  0  0  0  0
   25.1645   -6.8815  -16.8223 O   0  0  0  0  0  0  0  0  0  0  0  0
   24.4364   -7.5896  -17.7422 C   0  0  0  0  0  0  0  0  0  0  0  0
   23.1520   -8.0601  -17.0989 C   0  0  2  0  0  0  0  0  0  0  0  0
   22.3800   -8.8800  -18.0339 N   0  0  0  0  0  0  0  0  0  0  0  0
   22.3310   -6.8875  -16.7284 C   0  0  0  0  0  0  0  0  0  0  0  0
   21.7045   -6.2639  -17.6327 O   0  0  0  0  0  0  0  0  0  0  0  0
   19.2122   -4.5016  -14.4669 O   0  0  0  0  0  0  0  0  0  0  0  0
   19.9818   -5.6438  -14.6781 C   0  0  0  0  0  0  0  0  0  0  0  0
   21.3441   -5.2169  -15.1265 C   0  0  2  0  0  0  0  0  0  0  0  0
   22.1797   -6.3875  -15.4103 N   0  0  0  0  0  0  0  0  0  0  0  0
   22.0117   -4.4147  -14.0605 C   0  0  0  0  0  0  0  0  0  0  0  0
   23.0166   -4.8710  -13.4487 O   0  0  0  0  0  0  0  0  0  0  0  0
   21.5523   -3.1562  -13.7137 O   0  0  0  0  0  0  0  0  0  0  0  0
  2  1  1  6
  3  2  1  0
  4  2  1  0
  4  6  1  0
  4  5  1  1
  6 11  1  0
  7  6  2  0
  9  8  1  0
 10  9  1  6
 11 10  1  0
 12 10  1  0
 12 17  1  0
 13 12  2  0
 15 14  1  0
 16 15  1  1
 16 17  1  0
 16 18  1  0
 18 19  2  0
 18 20  1  0
M  END
$$$$
