TSS.pdb
     RDKit          3D

 20 19  0  0  1  0  0  0  0  0999 V2000
   22.2642  -11.4539  -14.2856 C   0  0  0  0  0  0  0  0  0  0  0  0
   22.4477  -11.9905  -15.6963 C   0  0  1  0  0  0  0  0  0  0  0  0
   22.8395  -13.3318  -15.6195 O   0  0  0  0  0  0  0  0  0  0  0  0
   21.0963  -11.8535  -16.3821 C   0  0  2  0  0  0  0  0  0  0  0  0
   21.1772  -12.5258  -17.6461 N   0  0  0  0  0  0  0  0  0  0  0  0
   20.7495  -10.4086  -16.5375 C   0  0  0  0  0  0  0  0  0  0  0  0
   21.4655   -9.6231  -17.1929 O   0  0  0  0  0  0  0  0  0  0  0  0
   17.6705   -8.7417  -14.2742 O   0  0  0  0  0  0  0  0  0  0  0  0
   17.8003   -8.2778  -15.5570 C   0  0  0  0  0  0  0  0  0  0  0  0
   19.2243   -8.4910  -16.0174 C   0  0  2  0  0  0  0  0  0  0  0  0
   19.5847   -9.9071  -15.9322 N   0  0  0  0  0  0  0  0  0  0  0  0
   20.1416   -7.7290  -15.1433 C   0  0  0  0  0  0  0  0  0  0  0  0
   20.9210   -8.3579  -14.3712 O   0  0  0  0  0  0  0  0  0  0  0  0
   23.6708   -5.3794  -14.3748 O   0  0  0  0  0  0  0  0  0  0  0  0
   22.6467   -6.0744  -15.0147 C   0  0  0  0  0  0  0  0  0  0  0  0
   21.3422   -5.6372  -14.4263 C   0  0  2  0  0  0  0  0  0  0  0  0
   20.2268   -6.3145  -15.0943 N   0  0  0  0  0  0  0  0  0  0  0  0
   21.1646   -4.1660  -14.5980 C   0  0  0  0  0  0  0  0  0  0  0  0
   20.7498   -3.6931  -15.6920 O   0  0  0  0  0  0  0  0  0  0  0  0
   21.4472   -3.2829  -13.5706 O   0  0  0  0  0  0  0  0  0  0  0  0
  2  1  1  1
  3  2  1  0
  4  2  1  0
  4  6  1  0
  4  5  1  6
  6 11  1  0
  7  6  2  0
  9  8  1  0
 10  9  1  1
 11 10  1  0
 12 10  1  0
 12 17  1  0
 13 12  2  0
 15 14  1  0
 16 15  1  6
 16 17  1  0
 16 18  1  0
 18 19  2  0
 18 20  1  0
M  END
$$$$
