TSS.pdb
     RDKit          3D

 20 19  0  0  1  0  0  0  0  0999 V2000
   24.7849  -10.9040  -15.0074 C   0  0  0  0  0  0  0  0  0  0  0  0
   24.3596  -11.9077  -16.0673 C   0  0  1  0  0  0  0  0  0  0  0  0
   25.0593  -13.1022  -15.8616 O   0  0  0  0  0  0  0  0  0  0  0  0
   22.8630  -12.1114  -15.8834 C   0  0  2  0  0  0  0  0  0  0  0  0
   22.4649  -13.2071  -16.7184 N   0  0  0  0  0  0  0  0  0  0  0  0
   22.1333  -10.8532  -16.2247 C   0  0  0  0  0  0  0  0  0  0  0  0
   21.8772  -10.5362  -17.4050 O   0  0  0  0  0  0  0  0  0  0  0  0
   18.8935   -7.7122  -14.9850 O   0  0  0  0  0  0  0  0  0  0  0  0
   19.5990   -8.8605  -14.7369 C   0  0  0  0  0  0  0  0  0  0  0  0
   20.9201   -8.7963  -15.4688 C   0  0  2  0  0  0  0  0  0  0  0  0
   21.7175   -9.9926  -15.1945 N   0  0  0  0  0  0  0  0  0  0  0  0
   21.6821   -7.6180  -15.0028 C   0  0  0  0  0  0  0  0  0  0  0  0
   22.4021   -7.7201  -13.9682 O   0  0  0  0  0  0  0  0  0  0  0  0
   23.4404   -3.1645  -15.5781 O   0  0  0  0  0  0  0  0  0  0  0  0
   22.6615   -4.1792  -16.1303 C   0  0  0  0  0  0  0  0  0  0  0  0
   22.4204   -5.2137  -15.0763 C   0  0  2  0  0  0  0  0  0  0  0  0
   21.6768   -6.3479  -15.6330 N   0  0  0  0  0  0  0  0  0  0  0  0
   21.6205   -4.6356  -13.9576 C   0  0  0  0  0  0  0  0  0  0  0  0
   20.3596   -4.6279  -14.0075 O   0  0  0  0  0  0  0  0  0  0  0  0
   22.2328   -4.0948  -12.8405 O   0  0  0  0  0  0  0  0  0  0  0  0
  2  1  1  1
  3  2  1  0
  4  2  1  0
  4  6  1  0
  4  5  1  6
  6 11  1  0
  7  6  2  0
  9  8  1  0
 10  9  1  1
 11 10  1  0
 12 10  1  0
 12 17  1  0
 13 12  2  0
 15 14  1  0
 16 15  1  6
 16 17  1  0
 16 18  1  0
 18 19  2  0
 18 20  1  0
M  END
$$$$
