TSS.pdb
     RDKit          3D

 20 19  0  0  1  0  0  0  0  0999 V2000
   21.0993  -11.1649  -15.8883 C   0  0  0  0  0  0  0  0  0  0  0  0
   20.2526  -11.4289  -17.1232 C   0  0  1  0  0  0  0  0  0  0  0  0
   20.3182  -12.7929  -17.4297 O   0  0  0  0  0  0  0  0  0  0  0  0
   18.8333  -11.0169  -16.7614 C   0  0  2  0  0  0  0  0  0  0  0  0
   17.9648  -11.4764  -17.8058 N   0  0  0  0  0  0  0  0  0  0  0  0
   18.7634   -9.5348  -16.5864 C   0  0  0  0  0  0  0  0  0  0  0  0
   19.2442   -8.7460  -17.4265 O   0  0  0  0  0  0  0  0  0  0  0  0
   15.7888   -7.5403  -14.7490 O   0  0  0  0  0  0  0  0  0  0  0  0
   17.0063   -7.2248  -14.2051 C   0  0  0  0  0  0  0  0  0  0  0  0
   18.0934   -7.5585  -15.2010 C   0  0  2  0  0  0  0  0  0  0  0  0
   18.1401   -9.0009  -15.4457 N   0  0  0  0  0  0  0  0  0  0  0  0
   19.4029   -7.1414  -14.6556 C   0  0  0  0  0  0  0  0  0  0  0  0
   20.2644   -8.0247  -14.3789 O   0  0  0  0  0  0  0  0  0  0  0  0
   23.3953   -5.5111  -14.8069 O   0  0  0  0  0  0  0  0  0  0  0  0
   22.1053   -5.9157  -15.1434 C   0  0  0  0  0  0  0  0  0  0  0  0
   21.1712   -5.4494  -14.0713 C   0  0  2  0  0  0  0  0  0  0  0  0
   19.7884   -5.7993  -14.4095 N   0  0  0  0  0  0  0  0  0  0  0  0
   21.2541   -3.9675  -13.9218 C   0  0  0  0  0  0  0  0  0  0  0  0
   20.4489   -3.2146  -14.5360 O   0  0  0  0  0  0  0  0  0  0  0  0
   22.2091   -3.3789  -13.1113 O   0  0  0  0  0  0  0  0  0  0  0  0
  2  1  1  1
  3  2  1  0
  4  2  1  0
  4  6  1  0
  4  5  1  6
  6 11  1  0
  7  6  2  0
  9  8  1  0
 10  9  1  1
 11 10  1  0
 12 10  1  0
 12 17  1  0
 13 12  2  0
 15 14  1  0
 16 15  1  6
 16 17  1  0
 16 18  1  0
 18 19  2  0
 18 20  1  0
M  END
$$$$
