TSS.pdb
     RDKit          3D

 20 19  0  0  1  0  0  0  0  0999 V2000
   17.1475   -8.5047  -17.1145 C   0  0  0  0  0  0  0  0  0  0  0  0
   16.4338   -9.5741  -16.3029 C   0  0  1  0  0  0  0  0  0  0  0  0
   15.4544  -10.1691  -17.1063 O   0  0  0  0  0  0  0  0  0  0  0  0
   17.4988  -10.5835  -15.9004 C   0  0  2  0  0  0  0  0  0  0  0  0
   16.8353  -11.7018  -15.2958 N   0  0  0  0  0  0  0  0  0  0  0  0
   18.4790   -9.9447  -14.9712 C   0  0  0  0  0  0  0  0  0  0  0  0
   18.1388   -9.4964  -13.8566 O   0  0  0  0  0  0  0  0  0  0  0  0
   22.4300   -9.7527  -16.1021 O   0  0  0  0  0  0  0  0  0  0  0  0
   22.1910   -9.6443  -14.7572 C   0  0  0  0  0  0  0  0  0  0  0  0
   20.7976   -9.0979  -14.5456 C   0  0  2  0  0  0  0  0  0  0  0  0
   19.8275   -9.8396  -15.3525 N   0  0  0  0  0  0  0  0  0  0  0  0
   20.7577   -7.6806  -14.9652 C   0  0  0  0  0  0  0  0  0  0  0  0
   20.5803   -7.4047  -16.1864 O   0  0  0  0  0  0  0  0  0  0  0  0
   19.6316   -3.1990  -14.5974 O   0  0  0  0  0  0  0  0  0  0  0  0
   19.6148   -4.5093  -14.1239 C   0  0  0  0  0  0  0  0  0  0  0  0
   20.8602   -5.1945  -14.5914 C   0  0  2  0  0  0  0  0  0  0  0  0
   20.9042   -6.5724  -14.0930 N   0  0  0  0  0  0  0  0  0  0  0  0
   22.0663   -4.4768  -14.0857 C   0  0  0  0  0  0  0  0  0  0  0  0
   22.7008   -4.9138  -13.0862 O   0  0  0  0  0  0  0  0  0  0  0  0
   22.5216   -3.3196  -14.6928 O   0  0  0  0  0  0  0  0  0  0  0  0
  2  1  1  6
  3  2  1  0
  4  2  1  0
  4  6  1  0
  4  5  1  1
  6 11  1  0
  7  6  2  0
  9  8  1  0
 10  9  1  6
 11 10  1  0
 12 10  1  0
 12 17  1  0
 13 12  2  0
 15 14  1  0
 16 15  1  1
 16 17  1  0
 16 18  1  0
 18 19  2  0
 18 20  1  0
M  END
$$$$
