TSS.pdb
     RDKit          3D

 20 19  0  0  1  0  0  0  0  0999 V2000
   17.9571   -9.4184  -21.1332 C   0  0  0  0  0  0  0  0  0  0  0  0
   18.5041   -8.6916  -19.9150 C   0  0  1  0  0  0  0  0  0  0  0  0
   17.9304   -7.4164  -19.8573 O   0  0  0  0  0  0  0  0  0  0  0  0
   18.1048   -9.5265  -18.7073 C   0  0  2  0  0  0  0  0  0  0  0  0
   16.6861   -9.7279  -18.7646 N   0  0  0  0  0  0  0  0  0  0  0  0
   18.5218   -8.8343  -17.4507 C   0  0  0  0  0  0  0  0  0  0  0  0
   17.8163   -7.9546  -16.9145 O   0  0  0  0  0  0  0  0  0  0  0  0
   20.4215  -10.5138  -14.1244 O   0  0  0  0  0  0  0  0  0  0  0  0
   21.1074   -9.5804  -14.8565 C   0  0  0  0  0  0  0  0  0  0  0  0
   20.1182   -8.6560  -15.5288 C   0  0  2  0  0  0  0  0  0  0  0  0
   19.7430   -9.1754  -16.8448 N   0  0  0  0  0  0  0  0  0  0  0  0
   20.7390   -7.3274  -15.7179 C   0  0  0  0  0  0  0  0  0  0  0  0
   21.5465   -7.1557  -16.6758 O   0  0  0  0  0  0  0  0  0  0  0  0
   19.6271   -3.9540  -13.6456 O   0  0  0  0  0  0  0  0  0  0  0  0
   20.1633   -3.7872  -14.9207 C   0  0  0  0  0  0  0  0  0  0  0  0
   21.1289   -4.9018  -15.1745 C   0  0  2  0  0  0  0  0  0  0  0  0
   20.5005   -6.1967  -14.8964 N   0  0  0  0  0  0  0  0  0  0  0  0
   22.3227   -4.7633  -14.2906 C   0  0  0  0  0  0  0  0  0  0  0  0
   22.5819   -5.6398  -13.4205 O   0  0  0  0  0  0  0  0  0  0  0  0
   23.1745   -3.6779  -14.3976 O   0  0  0  0  0  0  0  0  0  0  0  0
  2  1  1  6
  3  2  1  0
  4  2  1  0
  4  6  1  0
  4  5  1  1
  6 11  1  0
  7  6  2  0
  9  8  1  0
 10  9  1  6
 11 10  1  0
 12 10  1  0
 12 17  1  0
 13 12  2  0
 15 14  1  0
 16 15  1  1
 16 17  1  0
 16 18  1  0
 18 19  2  0
 18 20  1  0
M  END
$$$$
