TSS.pdb
     RDKit          3D

 20 19  0  0  1  0  0  0  0  0999 V2000
   22.5329  -12.0369  -16.0356 C   0  0  0  0  0  0  0  0  0  0  0  0
   24.0505  -12.1047  -15.9740 C   0  0  1  0  0  0  0  0  0  0  0  0
   24.4326  -13.4337  -15.7586 O   0  0  0  0  0  0  0  0  0  0  0  0
   24.5532  -11.6019  -17.3193 C   0  0  2  0  0  0  0  0  0  0  0  0
   25.9615  -11.8640  -17.3857 N   0  0  0  0  0  0  0  0  0  0  0  0
   24.2469  -10.1469  -17.4647 C   0  0  0  0  0  0  0  0  0  0  0  0
   24.9584   -9.2653  -16.9398 O   0  0  0  0  0  0  0  0  0  0  0  0
   21.3626   -6.8401  -19.5008 O   0  0  0  0  0  0  0  0  0  0  0  0
   21.6521   -8.1726  -19.3650 C   0  0  0  0  0  0  0  0  0  0  0  0
   22.7582   -8.3364  -18.3477 C   0  0  2  0  0  0  0  0  0  0  0  0
   23.1267   -9.7465  -18.2127 N   0  0  0  0  0  0  0  0  0  0  0  0
   22.2885   -7.8551  -17.0309 C   0  0  0  0  0  0  0  0  0  0  0  0
   21.6671   -8.6513  -16.2701 O   0  0  0  0  0  0  0  0  0  0  0  0
   22.7010   -5.1182  -13.1890 O   0  0  0  0  0  0  0  0  0  0  0  0
   23.1359   -5.4113  -14.4798 C   0  0  0  0  0  0  0  0  0  0  0  0
   22.0506   -6.1649  -15.1822 C   0  0  2  0  0  0  0  0  0  0  0  0
   22.4802   -6.5417  -16.5322 N   0  0  0  0  0  0  0  0  0  0  0  0
   20.8273   -5.3193  -15.3011 C   0  0  0  0  0  0  0  0  0  0  0  0
   20.0690   -5.1448  -14.3076 O   0  0  0  0  0  0  0  0  0  0  0  0
   20.4905   -4.7059  -16.4950 O   0  0  0  0  0  0  0  0  0  0  0  0
  2  1  1  6
  3  2  1  0
  4  2  1  0
  4  6  1  0
  4  5  1  1
  6 11  1  0
  7  6  2  0
  9  8  1  0
 10  9  1  6
 11 10  1  0
 12 10  1  0
 12 17  1  0
 13 12  2  0
 15 14  1  0
 16 15  1  6
 16 17  1  0
 16 18  1  0
 18 19  2  0
 18 20  1  0
M  END
$$$$
