ECG.pdb
     RDKit          3D

 20 19  0  0  1  0  0  0  0  0999 V2000
    7.6441  -13.1759   15.8113 N   0  0  0  0  0  0  0  0  0  0  0  0
    7.7318  -14.4231   16.5035 C   0  0  1  0  0  0  0  0  0  0  0  0
    8.4752  -15.4427   15.6446 C   0  0  0  0  0  0  0  0  0  0  0  0
    8.4837  -16.7331   16.4173 C   0  0  0  0  0  0  0  0  0  0  0  0
    9.2076  -17.8138   15.7347 C   0  0  0  0  0  0  0  0  0  0  0  0
    8.6463  -18.4730   14.8453 O   0  0  0  0  0  0  0  0  0  0  0  0
    8.3058  -14.3165   17.8523 C   0  0  0  0  0  0  0  0  0  0  0  0
    9.4202  -13.7465   17.9762 O   0  0  0  0  0  0  0  0  0  0  0  0
   10.5048  -18.0892   16.0855 O   0  0  0  0  0  0  0  0  0  0  0  0
    7.6973  -14.8094   19.0330 N   0  0  0  0  0  0  0  0  0  0  0  0
    8.2176  -14.6493   20.3526 C   0  0  1  0  0  0  0  0  0  0  0  0
    7.0902  -14.1966   21.2634 C   0  0  0  0  0  0  0  0  0  0  0  0
    7.6114  -14.1806   22.9937 S   0  0  0  0  0  0  0  0  0  0  0  0
    8.9288  -15.8173   20.8703 C   0  0  0  0  0  0  0  0  0  0  0  0
    8.4348  -16.9612   20.6812 O   0  0  0  0  0  0  0  0  0  0  0  0
   10.1544  -15.7650   21.5824 N   0  0  0  0  0  0  0  0  0  0  0  0
   10.8622  -16.9232   22.0476 C   0  0  0  0  0  0  0  0  0  0  0  0
   12.0813  -16.6097   22.7951 C   0  0  0  0  0  0  0  0  0  0  0  0
   13.0776  -16.1739   22.1758 O   0  0  0  0  0  0  0  0  0  0  0  0
   12.1837  -16.7740   24.1627 O   0  0  0  0  0  0  0  0  0  0  0  0
  2  1  1  6
  2  3  1  0
  3  4  1  0
  4  5  1  0
  5  9  1  0
  6  5  2  0
  7  2  1  0
  7  8  2  0
 10  7  1  0
 11 10  1  0
 11 12  1  1
 13 12  1  0
 14 11  1  0
 15 14  2  0
 16 14  1  0
 17 16  1  0
 18 17  1  0
 18 20  1  0
 19 18  2  0
M  END
$$$$
