ECG.pdb
     RDKit          3D

 20 19  0  0  1  0  0  0  0  0999 V2000
    7.6013  -14.6578   20.2341 N   0  0  0  0  0  0  0  0  0  0  0  0
    6.9328  -14.9723   21.4574 C   0  0  1  0  0  0  0  0  0  0  0  0
    6.6265  -16.4666   21.5128 C   0  0  0  0  0  0  0  0  0  0  0  0
    5.7488  -16.7711   20.3301 C   0  0  0  0  0  0  0  0  0  0  0  0
    5.3825  -18.1901   20.2288 C   0  0  0  0  0  0  0  0  0  0  0  0
    5.8661  -18.8941   19.3282 O   0  0  0  0  0  0  0  0  0  0  0  0
    7.6420  -14.5107   22.6591 C   0  0  0  0  0  0  0  0  0  0  0  0
    8.8764  -14.7384   22.7401 O   0  0  0  0  0  0  0  0  0  0  0  0
    4.5048  -18.7309   21.1337 O   0  0  0  0  0  0  0  0  0  0  0  0
    7.0391  -13.8240   23.7419 N   0  0  0  0  0  0  0  0  0  0  0  0
    7.6389  -13.6221   25.0214 C   0  0  1  0  0  0  0  0  0  0  0  0
    6.8873  -12.5133   25.7364 C   0  0  0  0  0  0  0  0  0  0  0  0
    7.5248  -12.2615   27.4086 S   0  0  0  0  0  0  0  0  0  0  0  0
    7.7645  -14.8335   25.8307 C   0  0  0  0  0  0  0  0  0  0  0  0
    6.7217  -15.4773   26.1245 O   0  0  0  0  0  0  0  0  0  0  0  0
    8.9901  -15.3523   26.3213 N   0  0  0  0  0  0  0  0  0  0  0  0
    9.0946  -16.5281   27.1369 C   0  0  0  0  0  0  0  0  0  0  0  0
   10.4579  -16.8163   27.5859 C   0  0  0  0  0  0  0  0  0  0  0  0
   10.6504  -17.7793   28.3616 O   0  0  0  0  0  0  0  0  0  0  0  0
   11.5499  -16.0689   27.1901 O   0  0  0  0  0  0  0  0  0  0  0  0
  2  1  1  6
  2  3  1  0
  3  4  1  0
  4  5  1  0
  5  9  1  0
  6  5  2  0
  7  2  1  0
  7  8  2  0
 10  7  1  0
 11 10  1  0
 11 12  1  1
 13 12  1  0
 14 11  1  0
 15 14  2  0
 16 14  1  0
 17 16  1  0
 18 17  1  0
 18 20  1  0
 19 18  2  0
M  END
$$$$
