ECG.pdb
     RDKit          3D

 20 19  0  0  1  0  0  0  0  0999 V2000
    8.8118  -15.0240   20.4714 N   0  0  0  0  0  0  0  0  0  0  0  0
    7.9589  -15.2619   21.5932 C   0  0  1  0  0  0  0  0  0  0  0  0
    7.5295  -16.7265   21.6180 C   0  0  0  0  0  0  0  0  0  0  0  0
    8.0278  -17.3436   20.3401 C   0  0  0  0  0  0  0  0  0  0  0  0
    7.9467  -18.8104   20.3336 C   0  0  0  0  0  0  0  0  0  0  0  0
    8.6855  -19.4771   21.0753 O   0  0  0  0  0  0  0  0  0  0  0  0
    8.5312  -14.8342   22.8775 C   0  0  0  0  0  0  0  0  0  0  0  0
    9.7746  -14.9417   23.0348 O   0  0  0  0  0  0  0  0  0  0  0  0
    7.0515  -19.4371   19.5045 O   0  0  0  0  0  0  0  0  0  0  0  0
    7.7861  -14.3061   23.9608 N   0  0  0  0  0  0  0  0  0  0  0  0
    8.3179  -13.9967   25.2488 C   0  0  1  0  0  0  0  0  0  0  0  0
    7.4702  -12.9003   25.8694 C   0  0  0  0  0  0  0  0  0  0  0  0
    8.0507  -12.4827   27.5290 S   0  0  0  0  0  0  0  0  0  0  0  0
    8.4830  -15.1514   26.1306 C   0  0  0  0  0  0  0  0  0  0  0  0
    7.4786  -15.8686   26.3852 O   0  0  0  0  0  0  0  0  0  0  0  0
    9.7074  -15.5366   26.7343 N   0  0  0  0  0  0  0  0  0  0  0  0
    9.8714  -16.7164   27.5341 C   0  0  0  0  0  0  0  0  0  0  0  0
   10.6095  -16.4890   28.7779 C   0  0  0  0  0  0  0  0  0  0  0  0
   11.0234  -15.3364   29.0357 O   0  0  0  0  0  0  0  0  0  0  0  0
   10.8722  -17.4951   29.6869 O   0  0  0  0  0  0  0  0  0  0  0  0
  2  1  1  6
  2  3  1  0
  3  4  1  0
  4  5  1  0
  5  9  1  0
  6  5  2  0
  7  2  1  0
  7  8  2  0
 10  7  1  0
 11 10  1  0
 11 12  1  1
 13 12  1  0
 14 11  1  0
 15 14  2  0
 16 14  1  0
 17 16  1  0
 18 17  1  0
 18 20  1  0
 19 18  2  0
M  END
$$$$
