ECG.pdb
     RDKit          3D

 20 19  0  0  1  0  0  0  0  0999 V2000
   13.6829  -16.4881   13.7965 N   0  0  0  0  0  0  0  0  0  0  0  0
   13.2189  -15.4357   14.6448 C   0  0  1  0  0  0  0  0  0  0  0  0
   11.7037  -15.2984   14.5208 C   0  0  0  0  0  0  0  0  0  0  0  0
   11.1152  -16.6165   14.9431 C   0  0  0  0  0  0  0  0  0  0  0  0
    9.6653  -16.7020   14.7234 C   0  0  0  0  0  0  0  0  0  0  0  0
    9.0907  -15.8500   14.0273 O   0  0  0  0  0  0  0  0  0  0  0  0
   13.6471  -15.5667   16.0446 C   0  0  0  0  0  0  0  0  0  0  0  0
   13.8354  -16.7246   16.4985 O   0  0  0  0  0  0  0  0  0  0  0  0
    8.9519  -17.7270   15.2910 O   0  0  0  0  0  0  0  0  0  0  0  0
   13.8660  -14.4822   16.9297 N   0  0  0  0  0  0  0  0  0  0  0  0
   14.3074  -14.6030   18.2819 C   0  0  1  0  0  0  0  0  0  0  0  0
   15.4187  -13.5955   18.5177 C   0  0  0  0  0  0  0  0  0  0  0  0
   16.1634  -13.8109   20.1502 S   0  0  0  0  0  0  0  0  0  0  0  0
   13.2412  -14.5129   19.2786 C   0  0  0  0  0  0  0  0  0  0  0  0
   12.3026  -13.6934   19.0902 O   0  0  0  0  0  0  0  0  0  0  0  0
   13.1777  -15.2893   20.4640 N   0  0  0  0  0  0  0  0  0  0  0  0
   12.1669  -15.1355   21.4706 C   0  0  0  0  0  0  0  0  0  0  0  0
   12.3132  -16.0555   22.6000 C   0  0  0  0  0  0  0  0  0  0  0  0
   11.5410  -15.9429   23.5783 O   0  0  0  0  0  0  0  0  0  0  0  0
   13.2714  -17.0495   22.6362 O   0  0  0  0  0  0  0  0  0  0  0  0
  2  1  1  6
  2  3  1  0
  3  4  1  0
  4  5  1  0
  5  9  1  0
  6  5  2  0
  7  2  1  0
  7  8  2  0
 10  7  1  0
 11 10  1  0
 11 12  1  1
 13 12  1  0
 14 11  1  0
 15 14  2  0
 16 14  1  0
 17 16  1  0
 18 17  1  0
 18 20  1  0
 19 18  2  0
M  END
$$$$
