ECG.pdb
     RDKit          3D

 20 19  0  0  1  0  0  0  0  0999 V2000
    7.8037  -13.2702   20.1752 N   0  0  0  0  0  0  0  0  0  0  0  0
    7.5483  -14.3237   21.1065 C   0  0  1  0  0  0  0  0  0  0  0  0
    8.0239  -15.6542   20.5290 C   0  0  0  0  0  0  0  0  0  0  0  0
    7.1240  -15.9653   19.3648 C   0  0  0  0  0  0  0  0  0  0  0  0
    7.3697  -17.2897   18.7787 C   0  0  0  0  0  0  0  0  0  0  0  0
    6.4320  -18.0904   18.6368 O   0  0  0  0  0  0  0  0  0  0  0  0
    8.0965  -14.0784   22.4479 C   0  0  0  0  0  0  0  0  0  0  0  0
    9.3469  -14.0254   22.5741 O   0  0  0  0  0  0  0  0  0  0  0  0
    8.6391  -17.6352   18.3900 O   0  0  0  0  0  0  0  0  0  0  0  0
    7.3205  -13.8954   23.6192 N   0  0  0  0  0  0  0  0  0  0  0  0
    7.8427  -13.8166   24.9453 C   0  0  1  0  0  0  0  0  0  0  0  0
    7.0251  -12.8026   25.7257 C   0  0  0  0  0  0  0  0  0  0  0  0
    7.5537  -12.7229   27.4519 S   0  0  0  0  0  0  0  0  0  0  0  0
    7.9528  -15.1031   25.6317 C   0  0  0  0  0  0  0  0  0  0  0  0
    6.9279  -15.8306   25.7245 O   0  0  0  0  0  0  0  0  0  0  0  0
    9.1442  -15.6078   26.2128 N   0  0  0  0  0  0  0  0  0  0  0  0
    9.2403  -16.8799   26.8695 C   0  0  0  0  0  0  0  0  0  0  0  0
   10.0353  -16.8517   28.0985 C   0  0  0  0  0  0  0  0  0  0  0  0
   10.5593  -15.7734   28.4575 O   0  0  0  0  0  0  0  0  0  0  0  0
   10.2355  -17.9684   28.8862 O   0  0  0  0  0  0  0  0  0  0  0  0
  2  1  1  6
  2  3  1  0
  3  4  1  0
  4  5  1  0
  5  9  1  0
  6  5  2  0
  7  2  1  0
  7  8  2  0
 10  7  1  0
 11 10  1  0
 11 12  1  1
 13 12  1  0
 14 11  1  0
 15 14  2  0
 16 14  1  0
 17 16  1  0
 18 17  1  0
 18 20  1  0
 19 18  2  0
M  END
$$$$
