ECG.pdb
     RDKit          3D

 20 19  0  0  1  0  0  0  0  0999 V2000
    6.9434  -13.9072   20.6506 N   0  0  0  0  0  0  0  0  0  0  0  0
    7.6162  -14.9573   21.3484 C   0  0  1  0  0  0  0  0  0  0  0  0
    8.6414  -15.6176   20.4303 C   0  0  0  0  0  0  0  0  0  0  0  0
    7.8666  -16.4559   19.4510 C   0  0  0  0  0  0  0  0  0  0  0  0
    8.7155  -17.1043   18.4426 C   0  0  0  0  0  0  0  0  0  0  0  0
    9.9511  -17.0140   18.5193 O   0  0  0  0  0  0  0  0  0  0  0  0
    8.2104  -14.5382   22.6257 C   0  0  0  0  0  0  0  0  0  0  0  0
    9.3929  -14.1098   22.6143 O   0  0  0  0  0  0  0  0  0  0  0  0
    8.1356  -17.8084   17.4182 O   0  0  0  0  0  0  0  0  0  0  0  0
    7.5499  -14.5793   23.8786 N   0  0  0  0  0  0  0  0  0  0  0  0
    8.1617  -14.3014   25.1380 C   0  0  1  0  0  0  0  0  0  0  0  0
    7.4733  -13.0955   25.7524 C   0  0  0  0  0  0  0  0  0  0  0  0
    5.6842  -13.3352   25.8389 S   0  0  0  0  0  0  0  0  0  0  0  0
    8.2213  -15.4438   26.0489 C   0  0  0  0  0  0  0  0  0  0  0  0
    7.1432  -15.9812   26.4189 O   0  0  0  0  0  0  0  0  0  0  0  0
    9.4191  -16.0064   26.5595 N   0  0  0  0  0  0  0  0  0  0  0  0
    9.4619  -17.1367   27.4423 C   0  0  0  0  0  0  0  0  0  0  0  0
   10.8179  -17.5437   27.8153 C   0  0  0  0  0  0  0  0  0  0  0  0
   11.7923  -16.9397   27.3136 O   0  0  0  0  0  0  0  0  0  0  0  0
   11.0735  -18.5714   28.7020 O   0  0  0  0  0  0  0  0  0  0  0  0
  2  1  1  6
  2  3  1  0
  3  4  1  0
  4  5  1  0
  5  9  1  0
  6  5  2  0
  7  2  1  0
  7  8  2  0
 10  7  1  0
 11 10  1  0
 11 12  1  1
 13 12  1  0
 14 11  1  0
 15 14  2  0
 16 14  1  0
 17 16  1  0
 18 17  1  0
 18 20  1  0
 19 18  2  0
M  END
$$$$
