ECG.pdb
     RDKit          3D

 20 19  0  0  1  0  0  0  0  0999 V2000
    7.9699  -14.9128   17.6030 N   0  0  0  0  0  0  0  0  0  0  0  0
    8.2265  -15.9117   18.5923 C   0  0  1  0  0  0  0  0  0  0  0  0
    9.1661  -16.9735   18.0271 C   0  0  0  0  0  0  0  0  0  0  0  0
    8.4092  -18.2731   18.0456 C   0  0  0  0  0  0  0  0  0  0  0  0
    9.2680  -19.4480   17.8455 C   0  0  0  0  0  0  0  0  0  0  0  0
    9.8819  -19.5945   16.7767 O   0  0  0  0  0  0  0  0  0  0  0  0
    8.7105  -15.3726   19.8711 C   0  0  0  0  0  0  0  0  0  0  0  0
    9.8246  -14.7888   19.8818 O   0  0  0  0  0  0  0  0  0  0  0  0
    9.3869  -20.3801   18.8449 O   0  0  0  0  0  0  0  0  0  0  0  0
    8.0148  -15.4599   21.1023 N   0  0  0  0  0  0  0  0  0  0  0  0
    8.5013  -14.9794   22.3554 C   0  0  1  0  0  0  0  0  0  0  0  0
    7.3202  -14.4919   23.1758 C   0  0  0  0  0  0  0  0  0  0  0  0
    7.8300  -14.0240   24.8452 S   0  0  0  0  0  0  0  0  0  0  0  0
    9.3429  -15.9279   23.0836 C   0  0  0  0  0  0  0  0  0  0  0  0
    9.0218  -17.1465   23.0853 O   0  0  0  0  0  0  0  0  0  0  0  0
   10.5149  -15.5792   23.8025 N   0  0  0  0  0  0  0  0  0  0  0  0
   11.3687  -16.5301   24.4549 C   0  0  0  0  0  0  0  0  0  0  0  0
   10.9451  -16.8686   25.8149 C   0  0  0  0  0  0  0  0  0  0  0  0
    9.8634  -16.4097   26.2453 O   0  0  0  0  0  0  0  0  0  0  0  0
   11.6898  -17.6770   26.6512 O   0  0  0  0  0  0  0  0  0  0  0  0
  2  1  1  6
  2  3  1  0
  3  4  1  0
  4  5  1  0
  5  9  1  0
  6  5  2  0
  7  2  1  0
  7  8  2  0
 10  7  1  0
 11 10  1  0
 11 12  1  1
 13 12  1  0
 14 11  1  0
 15 14  2  0
 16 14  1  0
 17 16  1  0
 18 17  1  0
 18 20  1  0
 19 18  2  0
M  END
$$$$
