ECG.pdb
     RDKit          3D

 20 19  0  0  1  0  0  0  0  0999 V2000
    8.9684  -14.2608   15.7637 N   0  0  0  0  0  0  0  0  0  0  0  0
    9.3002  -15.2846   16.7039 C   0  0  1  0  0  0  0  0  0  0  0  0
   10.5496  -16.0296   16.2413 C   0  0  0  0  0  0  0  0  0  0  0  0
   10.0904  -17.3701   15.7371 C   0  0  0  0  0  0  0  0  0  0  0  0
   11.1862  -18.2050   15.2270 C   0  0  0  0  0  0  0  0  0  0  0  0
   11.7949  -17.8711   14.1980 O   0  0  0  0  0  0  0  0  0  0  0  0
    9.4261  -14.8045   18.0873 C   0  0  0  0  0  0  0  0  0  0  0  0
   10.2425  -13.8758   18.3179 O   0  0  0  0  0  0  0  0  0  0  0  0
   11.5318  -19.3531   15.8933 O   0  0  0  0  0  0  0  0  0  0  0  0
    8.6940  -15.3100   19.1900 N   0  0  0  0  0  0  0  0  0  0  0  0
    8.7725  -14.8109   20.5251 C   0  0  1  0  0  0  0  0  0  0  0  0
    7.4519  -14.1450   20.8690 C   0  0  0  0  0  0  0  0  0  0  0  0
    7.2034  -12.6412   19.8981 S   0  0  0  0  0  0  0  0  0  0  0  0
    9.1827  -15.8010   21.5199 C   0  0  0  0  0  0  0  0  0  0  0  0
    8.4087  -16.7627   21.7734 O   0  0  0  0  0  0  0  0  0  0  0  0
   10.4062  -15.7650   22.2367 N   0  0  0  0  0  0  0  0  0  0  0  0
   10.7895  -16.7378   23.2193 C   0  0  0  0  0  0  0  0  0  0  0  0
   11.9976  -16.3800   23.9648 C   0  0  0  0  0  0  0  0  0  0  0  0
   12.6089  -15.3308   23.6621 O   0  0  0  0  0  0  0  0  0  0  0  0
   12.4979  -17.1526   24.9945 O   0  0  0  0  0  0  0  0  0  0  0  0
  2  1  1  6
  2  3  1  0
  3  4  1  0
  4  5  1  0
  5  9  1  0
  6  5  2  0
  7  2  1  0
  7  8  2  0
 10  7  1  0
 11 10  1  0
 11 12  1  1
 13 12  1  0
 14 11  1  0
 15 14  2  0
 16 14  1  0
 17 16  1  0
 18 17  1  0
 18 20  1  0
 19 18  2  0
M  END
$$$$
