ECG.pdb
     RDKit          3D

 20 19  0  0  1  0  0  0  0  0999 V2000
    7.7210  -15.4820   18.1473 N   0  0  0  0  0  0  0  0  0  0  0  0
    7.8156  -16.3090   19.3090 C   0  0  1  0  0  0  0  0  0  0  0  0
    8.2949  -17.7039   18.9160 C   0  0  0  0  0  0  0  0  0  0  0  0
    9.5162  -17.5146   18.0589 C   0  0  0  0  0  0  0  0  0  0  0  0
   10.0863  -18.7784   17.5734 C   0  0  0  0  0  0  0  0  0  0  0  0
   10.1271  -19.7693   18.3199 O   0  0  0  0  0  0  0  0  0  0  0  0
    8.6298  -15.7304   20.3871 C   0  0  0  0  0  0  0  0  0  0  0  0
    9.7517  -15.2479   20.0856 O   0  0  0  0  0  0  0  0  0  0  0  0
   10.5723  -18.8565   16.2930 O   0  0  0  0  0  0  0  0  0  0  0  0
    8.2468  -15.6731   21.7500 N   0  0  0  0  0  0  0  0  0  0  0  0
    9.0800  -15.2230   22.8181 C   0  0  1  0  0  0  0  0  0  0  0  0
    8.1957  -14.8525   23.9956 C   0  0  0  0  0  0  0  0  0  0  0  0
    6.9769  -13.6013   23.5322 S   0  0  0  0  0  0  0  0  0  0  0  0
   10.1508  -16.1492   23.1842 C   0  0  0  0  0  0  0  0  0  0  0  0
    9.8720  -17.1434   23.9066 O   0  0  0  0  0  0  0  0  0  0  0  0
   11.5048  -16.0154   22.7833 N   0  0  0  0  0  0  0  0  0  0  0  0
   12.5531  -16.9077   23.1877 C   0  0  0  0  0  0  0  0  0  0  0  0
   13.8852  -16.4940   22.7429 C   0  0  0  0  0  0  0  0  0  0  0  0
   13.9927  -15.4942   21.9980 O   0  0  0  0  0  0  0  0  0  0  0  0
   15.0374  -17.1611   23.1102 O   0  0  0  0  0  0  0  0  0  0  0  0
  2  1  1  6
  2  3  1  0
  3  4  1  0
  4  5  1  0
  5  9  1  0
  6  5  2  0
  7  2  1  0
  7  8  2  0
 10  7  1  0
 11 10  1  0
 11 12  1  1
 13 12  1  0
 14 11  1  0
 15 14  2  0
 16 14  1  0
 17 16  1  0
 18 17  1  0
 18 20  1  0
 19 18  2  0
M  END
$$$$
