ECG.pdb
     RDKit          3D

 20 19  0  0  1  0  0  0  0  0999 V2000
    8.1131  -17.1351   17.2896 N   0  0  0  0  0  0  0  0  0  0  0  0
    8.3722  -17.6128   18.6113 C   0  0  1  0  0  0  0  0  0  0  0  0
    9.0549  -18.9765   18.5463 C   0  0  0  0  0  0  0  0  0  0  0  0
    8.2706  -19.8052   17.5664 C   0  0  0  0  0  0  0  0  0  0  0  0
    8.8043  -21.1632   17.3965 C   0  0  0  0  0  0  0  0  0  0  0  0
    8.6875  -21.9958   18.3096 O   0  0  0  0  0  0  0  0  0  0  0  0
    9.1161  -16.6642   19.4521 C   0  0  0  0  0  0  0  0  0  0  0  0
   10.2092  -16.2203   19.0160 O   0  0  0  0  0  0  0  0  0  0  0  0
    9.4312  -21.5047   16.2251 O   0  0  0  0  0  0  0  0  0  0  0  0
    8.6948  -16.2072   20.7253 N   0  0  0  0  0  0  0  0  0  0  0  0
    9.4656  -15.3797   21.5963 C   0  0  1  0  0  0  0  0  0  0  0  0
    8.5184  -14.4773   22.3670 C   0  0  0  0  0  0  0  0  0  0  0  0
    7.2384  -15.4361   23.2084 S   0  0  0  0  0  0  0  0  0  0  0  0
   10.3871  -16.1081   22.4674 C   0  0  0  0  0  0  0  0  0  0  0  0
    9.9749  -17.1435   23.0557 O   0  0  0  0  0  0  0  0  0  0  0  0
   11.7344  -15.7352   22.7078 N   0  0  0  0  0  0  0  0  0  0  0  0
   12.6529  -16.5084   23.4935 C   0  0  0  0  0  0  0  0  0  0  0  0
   13.9974  -15.9336   23.5660 C   0  0  0  0  0  0  0  0  0  0  0  0
   14.6926  -15.8832   22.5266 O   0  0  0  0  0  0  0  0  0  0  0  0
   14.5383  -15.4405   24.7373 O   0  0  0  0  0  0  0  0  0  0  0  0
  2  1  1  6
  2  3  1  0
  3  4  1  0
  4  5  1  0
  5  9  1  0
  6  5  2  0
  7  2  1  0
  7  8  2  0
 10  7  1  0
 11 10  1  0
 11 12  1  1
 13 12  1  0
 14 11  1  0
 15 14  2  0
 16 14  1  0
 17 16  1  0
 18 17  1  0
 18 20  1  0
 19 18  2  0
M  END
$$$$
