ECG.pdb
     RDKit          3D

 20 19  0  0  1  0  0  0  0  0999 V2000
    8.2418  -16.6345   16.8595 N   0  0  0  0  0  0  0  0  0  0  0  0
    7.9171  -17.1507   18.1520 C   0  0  1  0  0  0  0  0  0  0  0  0
    8.2855  -18.6300   18.2282 C   0  0  0  0  0  0  0  0  0  0  0  0
    7.6263  -19.2997   17.0539 C   0  0  0  0  0  0  0  0  0  0  0  0
    7.8244  -20.7551   17.0290 C   0  0  0  0  0  0  0  0  0  0  0  0
    8.5777  -21.2655   16.1848 O   0  0  0  0  0  0  0  0  0  0  0  0
    8.4954  -16.3814   19.2628 C   0  0  0  0  0  0  0  0  0  0  0  0
    9.7034  -16.0409   19.1792 O   0  0  0  0  0  0  0  0  0  0  0  0
    7.1731  -21.5446   17.9423 O   0  0  0  0  0  0  0  0  0  0  0  0
    7.7930  -15.9903   20.4295 N   0  0  0  0  0  0  0  0  0  0  0  0
    8.3686  -15.3092   21.5441 C   0  0  1  0  0  0  0  0  0  0  0  0
    7.2523  -14.6518   22.3360 C   0  0  0  0  0  0  0  0  0  0  0  0
    7.8699  -13.9531   23.8840 S   0  0  0  0  0  0  0  0  0  0  0  0
    9.2411  -16.1366   22.3763 C   0  0  0  0  0  0  0  0  0  0  0  0
    8.7576  -17.1589   22.9324 O   0  0  0  0  0  0  0  0  0  0  0  0
   10.6152  -15.8756   22.6123 N   0  0  0  0  0  0  0  0  0  0  0  0
   11.4539  -16.6862   23.4478 C   0  0  0  0  0  0  0  0  0  0  0  0
   12.8406  -16.2222   23.5204 C   0  0  0  0  0  0  0  0  0  0  0  0
   13.1958  -15.2578   22.8063 O   0  0  0  0  0  0  0  0  0  0  0  0
   13.7821  -16.8038   24.3467 O   0  0  0  0  0  0  0  0  0  0  0  0
  2  1  1  6
  2  3  1  0
  3  4  1  0
  4  5  1  0
  5  9  1  0
  6  5  2  0
  7  2  1  0
  7  8  2  0
 10  7  1  0
 11 10  1  0
 11 12  1  1
 13 12  1  0
 14 11  1  0
 15 14  2  0
 16 14  1  0
 17 16  1  0
 18 17  1  0
 18 20  1  0
 19 18  2  0
M  END
$$$$
