SPF.pdb
     RDKit          3D

 25 26  0  0  1  0  0  0  0  0999 V2000
   20.5289  -22.4440  -11.6601 O   0  0  0  0  0  0  0  0  0  0  0  0
   21.5622  -21.7878  -12.3444 C   0  0  0  0  0  0  0  0  0  0  0  0
   22.2658  -20.8410  -11.3741 C   0  0  2  0  0  0  0  0  0  0  0  0
   21.3206  -20.0560  -10.7180 N   0  0  0  0  0  0  0  0  0  0  0  0
   23.3430  -20.1342  -12.0983 C   0  0  0  0  0  0  0  0  0  0  0  0
   23.0704  -18.9679  -12.4800 O   0  0  0  0  0  0  0  0  0  0  0  0
   24.6071  -20.6699  -12.3748 N   0  0  0  0  0  0  0  0  0  0  0  0
   25.1520  -21.9799  -12.0397 C   0  0  0  0  0  0  0  0  0  0  0  0
   26.6393  -21.8600  -12.1155 C   0  0  0  0  0  0  0  0  0  0  0  0
   26.8819  -20.3550  -12.2440 C   0  0  0  0  0  0  0  0  0  0  0  0
   25.6688  -19.9835  -13.0853 C   0  0  1  0  0  0  0  0  0  0  0  0
   25.7888  -20.4905  -14.4737 C   0  0  0  0  0  0  0  0  0  0  0  0
   25.9289  -21.7113  -14.7212 O   0  0  0  0  0  0  0  0  0  0  0  0
   25.7434  -19.5727  -15.5347 N   0  0  0  0  0  0  0  0  0  0  0  0
   24.7619  -19.5873  -16.5883 C   0  0  1  0  0  0  0  0  0  0  0  0
   23.4062  -19.5196  -15.9067 C   0  0  0  0  0  0  0  0  0  0  0  0
   22.2921  -19.4800  -16.8632 C   0  0  0  0  0  0  0  0  0  0  0  0
   22.0955  -20.5369  -17.7323 C   0  0  0  0  0  0  0  0  0  0  0  0
   21.0547  -20.5252  -18.6367 C   0  0  0  0  0  0  0  0  0  0  0  0
   20.2081  -19.4375  -18.6616 C   0  0  0  0  0  0  0  0  0  0  0  0
   20.4077  -18.3758  -17.7867 C   0  0  0  0  0  0  0  0  0  0  0  0
   21.4462  -18.3989  -16.8918 C   0  0  0  0  0  0  0  0  0  0  0  0
   25.0179  -18.4503  -17.4942 C   0  0  0  0  0  0  0  0  0  0  0  0
   25.0092  -17.1262  -17.0801 O   0  0  0  0  0  0  0  0  0  0  0  0
   25.2563  -18.6796  -18.7027 O   0  0  0  0  0  0  0  0  0  0  0  0
  2  3  1  0
  2  1  1  0
  3  4  1  6
  5  3  1  0
  6  5  2  0
  7  5  1  0
  7 11  1  0
  8  9  1  0
  8  7  1  0
  9 10  1  0
 10 11  1  0
 11 12  1  6
 12 14  1  0
 13 12  2  0
 15 14  1  0
 15 16  1  1
 17 16  1  0
 17 22  1  0
 18 17  2  0
 19 18  1  0
 19 20  2  0
 20 21  1  0
 21 22  2  0
 23 15  1  0
 24 23  1  0
 25 23  2  0
M  END
$$$$
