SPF.pdb
     RDKit          3D

 25 26  0  0  1  0  0  0  0  0999 V2000
   25.0022  -17.0825  -14.5053 O   0  0  0  0  0  0  0  0  0  0  0  0
   26.3525  -17.0367  -14.8809 C   0  0  0  0  0  0  0  0  0  0  0  0
   26.6335  -18.1968  -15.8340 C   0  0  2  0  0  0  0  0  0  0  0  0
   25.9032  -18.0257  -17.0076 N   0  0  0  0  0  0  0  0  0  0  0  0
   26.4459  -19.4674  -15.1028 C   0  0  0  0  0  0  0  0  0  0  0  0
   25.4688  -20.1688  -15.4687 O   0  0  0  0  0  0  0  0  0  0  0  0
   27.2652  -19.9204  -14.0613 N   0  0  0  0  0  0  0  0  0  0  0  0
   28.3735  -19.2478  -13.3945 C   0  0  0  0  0  0  0  0  0  0  0  0
   29.1895  -20.3118  -12.7356 C   0  0  0  0  0  0  0  0  0  0  0  0
   28.6226  -21.6150  -13.3019 C   0  0  0  0  0  0  0  0  0  0  0  0
   27.1583  -21.2147  -13.4160 C   0  0  1  0  0  0  0  0  0  0  0  0
   26.5192  -21.0895  -12.0837 C   0  0  0  0  0  0  0  0  0  0  0  0
   27.1938  -20.9203  -11.0409 O   0  0  0  0  0  0  0  0  0  0  0  0
   25.1203  -21.1632  -11.9955 N   0  0  0  0  0  0  0  0  0  0  0  0
   24.3708  -21.0594  -10.7703 C   0  0  1  0  0  0  0  0  0  0  0  0
   24.7868  -19.7475  -10.1278 C   0  0  0  0  0  0  0  0  0  0  0  0
   25.4817  -19.9384   -8.8477 C   0  0  0  0  0  0  0  0  0  0  0  0
   26.7089  -19.3380   -8.6366 C   0  0  0  0  0  0  0  0  0  0  0  0
   27.3791  -19.4987   -7.4423 C   0  0  0  0  0  0  0  0  0  0  0  0
   26.8041  -20.2717   -6.4563 C   0  0  0  0  0  0  0  0  0  0  0  0
   25.5700  -20.8746   -6.6709 C   0  0  0  0  0  0  0  0  0  0  0  0
   24.9130  -20.7073   -7.8627 C   0  0  0  0  0  0  0  0  0  0  0  0
   22.9302  -21.1246  -11.0858 C   0  0  0  0  0  0  0  0  0  0  0  0
   21.9660  -21.5316  -10.1750 O   0  0  0  0  0  0  0  0  0  0  0  0
   22.5451  -20.7984  -12.2327 O   0  0  0  0  0  0  0  0  0  0  0  0
  2  3  1  0
  2  1  1  0
  3  4  1  6
  5  3  1  0
  6  5  2  0
  7  5  1  0
  7 11  1  0
  8  9  1  0
  8  7  1  0
  9 10  1  0
 10 11  1  0
 11 12  1  1
 12 14  1  0
 13 12  2  0
 15 14  1  0
 15 16  1  6
 17 16  1  0
 17 22  1  0
 18 17  2  0
 19 18  1  0
 19 20  2  0
 20 21  1  0
 21 22  2  0
 23 15  1  0
 24 23  1  0
 25 23  2  0
M  END
$$$$
