SPF.pdb
     RDKit          3D

 25 26  0  0  1  0  0  0  0  0999 V2000
   17.7007  -26.9804  -11.8431 O   0  0  0  0  0  0  0  0  0  0  0  0
   18.7260  -26.3082  -11.1624 C   0  0  0  0  0  0  0  0  0  0  0  0
   19.2657  -27.2241  -10.0656 C   0  0  2  0  0  0  0  0  0  0  0  0
   19.5142  -28.4892  -10.5927 N   0  0  0  0  0  0  0  0  0  0  0  0
   18.3646  -27.1463   -8.8967 C   0  0  0  0  0  0  0  0  0  0  0  0
   17.7185  -28.1924   -8.6346 O   0  0  0  0  0  0  0  0  0  0  0  0
   18.1942  -26.0134   -8.0912 N   0  0  0  0  0  0  0  0  0  0  0  0
   18.7812  -24.6855   -8.2232 C   0  0  0  0  0  0  0  0  0  0  0  0
   18.6756  -24.0326   -6.8835 C   0  0  0  0  0  0  0  0  0  0  0  0
   18.2480  -25.1687   -5.9524 C   0  0  0  0  0  0  0  0  0  0  0  0
   17.3557  -25.9460   -6.9098 C   0  0  1  0  0  0  0  0  0  0  0  0
   16.0957  -25.2186   -7.1973 C   0  0  0  0  0  0  0  0  0  0  0  0
   16.0095  -24.3930   -8.1365 O   0  0  0  0  0  0  0  0  0  0  0  0
   14.9733  -25.4663   -6.3919 N   0  0  0  0  0  0  0  0  0  0  0  0
   13.6458  -24.9803   -6.6659 C   0  0  1  0  0  0  0  0  0  0  0  0
   12.6902  -25.9645   -6.0138 C   0  0  0  0  0  0  0  0  0  0  0  0
   12.6142  -27.2426   -6.7339 C   0  0  0  0  0  0  0  0  0  0  0  0
   11.8385  -27.3433   -7.8737 C   0  0  0  0  0  0  0  0  0  0  0  0
   11.7538  -28.5308   -8.5694 C   0  0  0  0  0  0  0  0  0  0  0  0
   12.4582  -29.6226   -8.1087 C   0  0  0  0  0  0  0  0  0  0  0  0
   13.2375  -29.5191   -6.9622 C   0  0  0  0  0  0  0  0  0  0  0  0
   13.3138  -28.3328   -6.2790 C   0  0  0  0  0  0  0  0  0  0  0  0
   13.5220  -23.6077   -6.1368 C   0  0  0  0  0  0  0  0  0  0  0  0
   12.5465  -22.7133   -6.5530 O   0  0  0  0  0  0  0  0  0  0  0  0
   14.3344  -23.2177   -5.2663 O   0  0  0  0  0  0  0  0  0  0  0  0
  2  3  1  0
  2  1  1  0
  3  4  1  6
  5  3  1  0
  6  5  2  0
  7  5  1  0
  7 11  1  0
  8  9  1  0
  8  7  1  0
  9 10  1  0
 10 11  1  0
 11 12  1  6
 12 14  1  0
 13 12  2  0
 15 14  1  0
 15 16  1  1
 17 16  1  0
 17 22  1  0
 18 17  2  0
 19 18  1  0
 19 20  2  0
 20 21  1  0
 21 22  2  0
 23 15  1  0
 24 23  1  0
 25 23  2  0
M  END
$$$$
