SPF.pdb
     RDKit          3D

 25 26  0  0  1  0  0  0  0  0999 V2000
   11.5226  -14.7972    3.2933 O   0  0  0  0  0  0  0  0  0  0  0  0
   11.3803  -13.4024    3.2669 C   0  0  0  0  0  0  0  0  0  0  0  0
   11.7598  -12.8471    4.6384 C   0  0  2  0  0  0  0  0  0  0  0  0
   11.3755  -11.5111    4.7250 N   0  0  0  0  0  0  0  0  0  0  0  0
   13.1810  -13.1577    4.8991 C   0  0  0  0  0  0  0  0  0  0  0  0
   14.0094  -12.2999    4.5012 O   0  0  0  0  0  0  0  0  0  0  0  0
   13.6432  -14.3130    5.5419 N   0  0  0  0  0  0  0  0  0  0  0  0
   12.8971  -15.4751    6.0089 C   0  0  0  0  0  0  0  0  0  0  0  0
   13.7537  -16.1566    7.0258 C   0  0  0  0  0  0  0  0  0  0  0  0
   14.8844  -15.1590    7.2838 C   0  0  0  0  0  0  0  0  0  0  0  0
   15.0268  -14.5839    5.8817 C   0  0  1  0  0  0  0  0  0  0  0  0
   15.6182  -15.5681    4.9431 C   0  0  0  0  0  0  0  0  0  0  0  0
   14.9050  -16.3384    4.2582 O   0  0  0  0  0  0  0  0  0  0  0  0
   17.0151  -15.6334    4.8237 N   0  0  0  0  0  0  0  0  0  0  0  0
   17.7176  -16.4468    3.8653 C   0  0  1  0  0  0  0  0  0  0  0  0
   18.4179  -15.4833    2.9228 C   0  0  0  0  0  0  0  0  0  0  0  0
   19.3338  -16.1617    1.9962 C   0  0  0  0  0  0  0  0  0  0  0  0
   20.6693  -15.8055    1.9671 C   0  0  0  0  0  0  0  0  0  0  0  0
   21.5497  -16.4301    1.1091 C   0  0  0  0  0  0  0  0  0  0  0  0
   21.0758  -17.4206    0.2757 C   0  0  0  0  0  0  0  0  0  0  0  0
   19.7325  -17.7771    0.3066 C   0  0  0  0  0  0  0  0  0  0  0  0
   18.8666  -17.1489    1.1641 C   0  0  0  0  0  0  0  0  0  0  0  0
   18.6474  -17.3379    4.5868 C   0  0  0  0  0  0  0  0  0  0  0  0
   19.4449  -16.9179    5.6415 O   0  0  0  0  0  0  0  0  0  0  0  0
   18.7305  -18.5384    4.2379 O   0  0  0  0  0  0  0  0  0  0  0  0
  2  3  1  0
  2  1  1  0
  3  4  1  6
  5  3  1  0
  6  5  2  0
  7  5  1  0
  7 11  1  0
  8  9  1  0
  8  7  1  0
  9 10  1  0
 10 11  1  0
 11 12  1  6
 12 14  1  0
 13 12  2  0
 15 14  1  0
 15 16  1  6
 17 16  1  0
 17 22  1  0
 18 17  2  0
 19 18  1  0
 19 20  2  0
 20 21  1  0
 21 22  2  0
 23 15  1  0
 24 23  1  0
 25 23  2  0
M  END
$$$$
