SPF.pdb
     RDKit          3D

 25 26  0  0  1  0  0  0  0  0999 V2000
   25.4280  -17.3669  -13.4253 O   0  0  0  0  0  0  0  0  0  0  0  0
   24.3942  -17.9016  -14.2075 C   0  0  0  0  0  0  0  0  0  0  0  0
   24.8520  -19.2467  -14.7680 C   0  0  2  0  0  0  0  0  0  0  0  0
   23.8838  -19.7461  -15.6358 N   0  0  0  0  0  0  0  0  0  0  0  0
   25.2613  -20.1145  -13.6438 C   0  0  0  0  0  0  0  0  0  0  0  0
   24.3329  -20.7372  -13.0686 O   0  0  0  0  0  0  0  0  0  0  0  0
   26.5784  -20.2780  -13.1969 N   0  0  0  0  0  0  0  0  0  0  0  0
   27.7714  -19.5079  -13.5270 C   0  0  0  0  0  0  0  0  0  0  0  0
   28.9459  -20.3691  -13.1936 C   0  0  0  0  0  0  0  0  0  0  0  0
   28.3303  -21.7426  -12.9202 C   0  0  0  0  0  0  0  0  0  0  0  0
   27.0263  -21.3006  -12.2711 C   0  0  1  0  0  0  0  0  0  0  0  0
   27.2521  -20.7288  -10.9216 C   0  0  0  0  0  0  0  0  0  0  0  0
   28.3265  -20.1595  -10.6169 O   0  0  0  0  0  0  0  0  0  0  0  0
   26.2308  -20.8315   -9.9643 N   0  0  0  0  0  0  0  0  0  0  0  0
   26.4443  -20.8733   -8.5408 C   0  0  1  0  0  0  0  0  0  0  0  0
   27.2832  -19.6536   -8.2012 C   0  0  0  0  0  0  0  0  0  0  0  0
   27.8063  -19.6894   -6.8290 C   0  0  0  0  0  0  0  0  0  0  0  0
   28.4121  -20.8381   -6.3551 C   0  0  0  0  0  0  0  0  0  0  0  0
   28.9145  -20.8954   -5.0723 C   0  0  0  0  0  0  0  0  0  0  0  0
   28.8031  -19.7839   -4.2645 C   0  0  0  0  0  0  0  0  0  0  0  0
   28.1934  -18.6299   -4.7432 C   0  0  0  0  0  0  0  0  0  0  0  0
   27.6976  -18.5850   -6.0207 C   0  0  0  0  0  0  0  0  0  0  0  0
   25.1333  -20.8882   -7.8624 C   0  0  0  0  0  0  0  0  0  0  0  0
   23.9348  -20.6249   -8.5097 O   0  0  0  0  0  0  0  0  0  0  0  0
   25.0870  -21.1503   -6.6380 O   0  0  0  0  0  0  0  0  0  0  0  0
  2  3  1  0
  2  1  1  0
  3  4  1  1
  5  3  1  0
  6  5  2  0
  7  5  1  0
  7 11  1  0
  8  9  1  0
  8  7  1  0
  9 10  1  0
 10 11  1  0
 11 12  1  1
 12 14  1  0
 13 12  2  0
 15 14  1  0
 15 16  1  1
 17 16  1  0
 17 22  1  0
 18 17  2  0
 19 18  1  0
 19 20  2  0
 20 21  1  0
 21 22  2  0
 23 15  1  0
 24 23  1  0
 25 23  2  0
M  END
$$$$
