SPF.pdb
     RDKit          3D

 25 26  0  0  1  0  0  0  0  0999 V2000
   21.7391  -17.8436  -14.6038 O   0  0  0  0  0  0  0  0  0  0  0  0
   21.6338  -18.5097  -13.3743 C   0  0  0  0  0  0  0  0  0  0  0  0
   21.6995  -20.0146  -13.6274 C   0  0  2  0  0  0  0  0  0  0  0  0
   20.4090  -20.5308  -13.7172 N   0  0  0  0  0  0  0  0  0  0  0  0
   22.6012  -20.6247  -12.6279 C   0  0  0  0  0  0  0  0  0  0  0  0
   22.0724  -20.9279  -11.5283 O   0  0  0  0  0  0  0  0  0  0  0  0
   23.9644  -20.8763  -12.8273 N   0  0  0  0  0  0  0  0  0  0  0  0
   24.8327  -20.4621  -13.9226 C   0  0  0  0  0  0  0  0  0  0  0  0
   26.0138  -21.3769  -13.9056 C   0  0  0  0  0  0  0  0  0  0  0  0
   25.6150  -22.4757  -12.9187 C   0  0  0  0  0  0  0  0  0  0  0  0
   24.8137  -21.6381  -11.9320 C   0  0  1  0  0  0  0  0  0  0  0  0
   25.6876  -20.7387  -11.1403 C   0  0  0  0  0  0  0  0  0  0  0  0
   26.2488  -19.7427  -11.6544 O   0  0  0  0  0  0  0  0  0  0  0  0
   25.8874  -21.0164   -9.7792 N   0  0  0  0  0  0  0  0  0  0  0  0
   26.8492  -20.3495   -8.9402 C   0  0  1  0  0  0  0  0  0  0  0  0
   26.3986  -20.5835   -7.5087 C   0  0  0  0  0  0  0  0  0  0  0  0
   27.3402  -20.0384   -6.5217 C   0  0  0  0  0  0  0  0  0  0  0  0
   28.1321  -20.8964   -5.7815 C   0  0  0  0  0  0  0  0  0  0  0  0
   29.0263  -20.4092   -4.8518 C   0  0  0  0  0  0  0  0  0  0  0  0
   29.1194  -19.0459   -4.6701 C   0  0  0  0  0  0  0  0  0  0  0  0
   28.3220  -18.1850   -5.4154 C   0  0  0  0  0  0  0  0  0  0  0  0
   27.4365  -18.6814   -6.3371 C   0  0  0  0  0  0  0  0  0  0  0  0
   28.1908  -20.8942   -9.2270 C   0  0  0  0  0  0  0  0  0  0  0  0
   28.4340  -22.2383   -9.4705 O   0  0  0  0  0  0  0  0  0  0  0  0
   29.1697  -20.1125   -9.2543 O   0  0  0  0  0  0  0  0  0  0  0  0
  2  3  1  0
  2  1  1  0
  3  4  1  1
  5  3  1  0
  6  5  2  0
  7  5  1  0
  7 11  1  0
  8  9  1  0
  8  7  1  0
  9 10  1  0
 10 11  1  0
 11 12  1  6
 12 14  1  0
 13 12  2  0
 15 14  1  0
 15 16  1  1
 17 16  1  0
 17 22  1  0
 18 17  2  0
 19 18  1  0
 19 20  2  0
 20 21  1  0
 21 22  2  0
 23 15  1  0
 24 23  1  0
 25 23  2  0
M  END
$$$$
