SPF.pdb
     RDKit          3D

 25 26  0  0  1  0  0  0  0  0999 V2000
   23.8355  -20.8770  -15.9484 O   0  0  0  0  0  0  0  0  0  0  0  0
   23.9657  -21.9980  -15.1159 C   0  0  0  0  0  0  0  0  0  0  0  0
   25.3648  -22.5825  -15.2998 C   0  0  2  0  0  0  0  0  0  0  0  0
   25.2703  -23.8586  -15.8499 N   0  0  0  0  0  0  0  0  0  0  0  0
   26.1050  -22.4505  -14.0275 C   0  0  0  0  0  0  0  0  0  0  0  0
   26.1730  -23.4907  -13.3247 O   0  0  0  0  0  0  0  0  0  0  0  0
   26.7144  -21.2738  -13.5741 N   0  0  0  0  0  0  0  0  0  0  0  0
   26.7197  -19.9437  -14.1706 C   0  0  0  0  0  0  0  0  0  0  0  0
   27.8803  -19.2113  -13.5798 C   0  0  0  0  0  0  0  0  0  0  0  0
   28.6621  -20.2966  -12.8375 C   0  0  0  0  0  0  0  0  0  0  0  0
   27.4974  -21.1523  -12.3594 C   0  0  1  0  0  0  0  0  0  0  0  0
   26.7193  -20.4733  -11.2952 C   0  0  0  0  0  0  0  0  0  0  0  0
   25.9115  -19.5505  -11.5544 O   0  0  0  0  0  0  0  0  0  0  0  0
   26.8971  -20.8801   -9.9637 N   0  0  0  0  0  0  0  0  0  0  0  0
   25.8262  -21.1257   -9.0328 C   0  0  1  0  0  0  0  0  0  0  0  0
   26.4703  -21.7179   -7.7913 C   0  0  0  0  0  0  0  0  0  0  0  0
   27.2898  -20.7438   -7.0582 C   0  0  0  0  0  0  0  0  0  0  0  0
   28.6685  -20.8165   -7.1271 C   0  0  0  0  0  0  0  0  0  0  0  0
   29.4595  -19.9116   -6.4513 C   0  0  0  0  0  0  0  0  0  0  0  0
   28.8516  -18.9275   -5.7014 C   0  0  0  0  0  0  0  0  0  0  0  0
   27.4649  -18.8564   -5.6333 C   0  0  0  0  0  0  0  0  0  0  0  0
   26.6889  -19.7620   -6.3098 C   0  0  0  0  0  0  0  0  0  0  0  0
   25.1182  -19.8564   -8.7749 C   0  0  0  0  0  0  0  0  0  0  0  0
   23.8177  -19.7903   -8.2961 O   0  0  0  0  0  0  0  0  0  0  0  0
   25.7114  -18.7752   -8.9964 O   0  0  0  0  0  0  0  0  0  0  0  0
  2  3  1  0
  2  1  1  0
  3  4  1  1
  5  3  1  0
  6  5  2  0
  7  5  1  0
  7 11  1  0
  8  9  1  0
  8  7  1  0
  9 10  1  0
 10 11  1  0
 11 12  1  1
 12 14  1  0
 13 12  2  0
 15 14  1  0
 15 16  1  1
 17 16  1  0
 17 22  1  0
 18 17  2  0
 19 18  1  0
 19 20  2  0
 20 21  1  0
 21 22  2  0
 23 15  1  0
 24 23  1  0
 25 23  2  0
M  END
$$$$
