TIW.pdb
     RDKit          3D

 30 31  0  0  1  0  0  0  0  0999 V2000
    8.6736  -19.4831   21.1511 C   0  0  0  0  0  0  0  0  0  0  0  0
    9.5365  -19.4779   19.9063 C   0  0  1  0  0  0  0  0  0  0  0  0
    9.2186  -20.6149   19.1646 O   0  0  0  0  0  0  0  0  0  0  0  0
    9.2065  -18.2101   19.1484 C   0  0  2  0  0  0  0  0  0  0  0  0
    9.8569  -18.2671   17.8826 N   0  0  0  0  0  0  0  0  0  0  0  0
    9.6100  -16.9904   19.9135 C   0  0  0  0  0  0  0  0  0  0  0  0
   10.8456  -16.7474   20.0314 O   0  0  0  0  0  0  0  0  0  0  0  0
    7.0106  -12.3669   19.2122 C   0  0  0  0  0  0  0  0  0  0  0  0
    8.0078  -13.4356   19.6220 C   0  0  0  0  0  0  0  0  0  0  0  0
    7.7472  -13.9418   21.0484 C   0  0  2  0  0  0  0  0  0  0  0  0
    7.8702  -12.7994   22.0263 C   0  0  0  0  0  0  0  0  0  0  0  0
    8.7777  -15.0159   21.3199 C   0  0  2  0  0  0  0  0  0  0  0  0
    8.6153  -16.1751   20.4630 N   0  0  0  0  0  0  0  0  0  0  0  0
    8.9132  -15.4668   22.6928 C   0  0  0  0  0  0  0  0  0  0  0  0
    8.0253  -16.2863   23.1585 O   0  0  0  0  0  0  0  0  0  0  0  0
    9.9107  -15.1383   23.6424 N   0  0  0  0  0  0  0  0  0  0  0  0
    9.9590  -15.7180   24.9691 C   0  0  1  0  0  0  0  0  0  0  0  0
    8.6396  -16.3823   25.2647 C   0  0  0  0  0  0  0  0  0  0  0  0
    7.6225  -15.4443   25.7123 C   0  0  0  0  0  0  0  0  0  0  0  0
    6.2602  -15.7180   25.6459 C   0  0  0  0  0  0  0  0  0  0  0  0
    5.6238  -14.6458   26.1059 N   0  0  0  0  0  0  0  0  0  0  0  0
    6.5055  -13.6921   26.4674 C   0  0  0  0  0  0  0  0  0  0  0  0
    6.2941  -12.4320   27.0019 C   0  0  0  0  0  0  0  0  0  0  0  0
    7.3447  -11.6172   27.3139 C   0  0  0  0  0  0  0  0  0  0  0  0
    8.6150  -12.1119   27.0708 C   0  0  0  0  0  0  0  0  0  0  0  0
    8.8325  -13.3617   26.5400 C   0  0  0  0  0  0  0  0  0  0  0  0
    7.7687  -14.1817   26.2252 C   0  0  0  0  0  0  0  0  0  0  0  0
   11.0881  -16.6502   25.1597 C   0  0  0  0  0  0  0  0  0  0  0  0
   11.8801  -16.7094   26.2844 O   0  0  0  0  0  0  0  0  0  0  0  0
   11.3329  -17.4431   24.2165 O   0  0  0  0  0  0  0  0  0  0  0  0
  2  1  1  1
  3  2  1  0
  4  2  1  0
  4  5  1  6
  6  7  2  0
  6  4  1  0
  9  8  1  0
 10  9  1  0
 10 12  1  0
 10 11  1  1
 12 13  1  6
 13  6  1  0
 14 12  1  0
 14 16  1  0
 15 14  2  0
 17 16  1  0
 17 28  1  0
 17 18  1  6
 18 19  1  0
 19 20  2  0
 19 27  1  0
 20 21  1  0
 21 22  1  0
 22 23  2  0
 23 24  1  0
 25 24  2  0
 26 25  1  0
 27 26  2  0
 27 22  1  0
 28 29  1  0
 30 28  2  0
M  END
$$$$
