TIW.pdb
     RDKit          3D

 30 31  0  0  1  0  0  0  0  0999 V2000
    8.3623  -20.3917   18.6936 C   0  0  0  0  0  0  0  0  0  0  0  0
    8.8259  -19.2887   19.6223 C   0  0  1  0  0  0  0  0  0  0  0  0
   10.0316  -19.6934   20.1936 O   0  0  0  0  0  0  0  0  0  0  0  0
    9.0017  -18.0465   18.7757 C   0  0  2  0  0  0  0  0  0  0  0  0
    9.9384  -18.3410   17.7440 N   0  0  0  0  0  0  0  0  0  0  0  0
    9.4456  -16.8787   19.5971 C   0  0  0  0  0  0  0  0  0  0  0  0
   10.6843  -16.6285   19.6496 O   0  0  0  0  0  0  0  0  0  0  0  0
    6.9760  -12.2332   19.2470 C   0  0  0  0  0  0  0  0  0  0  0  0
    8.0014  -13.2853   19.6295 C   0  0  0  0  0  0  0  0  0  0  0  0
    7.7050  -13.8962   21.0070 C   0  0  2  0  0  0  0  0  0  0  0  0
    7.8556  -12.8424   22.0763 C   0  0  0  0  0  0  0  0  0  0  0  0
    8.6936  -15.0253   21.1999 C   0  0  2  0  0  0  0  0  0  0  0  0
    8.4835  -16.1170   20.2681 N   0  0  0  0  0  0  0  0  0  0  0  0
    8.8157  -15.5724   22.5387 C   0  0  0  0  0  0  0  0  0  0  0  0
    8.1104  -16.6156   22.8404 O   0  0  0  0  0  0  0  0  0  0  0  0
    9.6240  -15.1254   23.6118 N   0  0  0  0  0  0  0  0  0  0  0  0
    9.7564  -15.8539   24.8569 C   0  0  1  0  0  0  0  0  0  0  0  0
    8.4379  -16.5012   25.1915 C   0  0  0  0  0  0  0  0  0  0  0  0
    7.4125  -15.5377   25.5585 C   0  0  0  0  0  0  0  0  0  0  0  0
    6.0715  -15.6969   25.2244 C   0  0  0  0  0  0  0  0  0  0  0  0
    5.4252  -14.6309   25.6853 N   0  0  0  0  0  0  0  0  0  0  0  0
    6.2801  -13.7900   26.3014 C   0  0  0  0  0  0  0  0  0  0  0  0
    6.0485  -12.5782   26.9307 C   0  0  0  0  0  0  0  0  0  0  0  0
    7.0702  -11.8832   27.5121 C   0  0  0  0  0  0  0  0  0  0  0  0
    8.3326  -12.4474   27.4398 C   0  0  0  0  0  0  0  0  0  0  0  0
    8.5702  -13.6499   26.8163 C   0  0  0  0  0  0  0  0  0  0  0  0
    7.5359  -14.3488   26.2294 C   0  0  0  0  0  0  0  0  0  0  0  0
   10.8549  -16.8404   24.8437 C   0  0  0  0  0  0  0  0  0  0  0  0
   11.6571  -17.1124   23.7583 O   0  0  0  0  0  0  0  0  0  0  0  0
   11.0617  -17.4716   25.9101 O   0  0  0  0  0  0  0  0  0  0  0  0
  2  1  1  6
  3  2  1  0
  4  2  1  0
  4  5  1  6
  6  7  2  0
  6  4  1  0
  9  8  1  0
 10  9  1  0
 10 12  1  0
 10 11  1  1
 12 13  1  6
 13  6  1  0
 14 12  1  0
 14 16  1  0
 15 14  2  0
 17 16  1  0
 17 28  1  0
 17 18  1  6
 18 19  1  0
 19 20  2  0
 19 27  1  0
 20 21  1  0
 21 22  1  0
 22 23  2  0
 23 24  1  0
 25 24  2  0
 26 25  1  0
 27 26  2  0
 27 22  1  0
 28 29  1  0
 30 28  2  0
M  END
$$$$
