TIW.pdb
     RDKit          3D

 30 31  0  0  1  0  0  0  0  0999 V2000
   10.4144  -13.6422   20.0294 C   0  0  0  0  0  0  0  0  0  0  0  0
    9.2082  -12.8590   19.5542 C   0  0  1  0  0  0  0  0  0  0  0  0
    9.5839  -12.1516   18.4129 O   0  0  0  0  0  0  0  0  0  0  0  0
    8.1216  -13.8677   19.2498 C   0  0  2  0  0  0  0  0  0  0  0  0
    7.0825  -13.2008   18.5399 N   0  0  0  0  0  0  0  0  0  0  0  0
    7.6034  -14.5115   20.4959 C   0  0  0  0  0  0  0  0  0  0  0  0
    6.8291  -13.8359   21.2334 O   0  0  0  0  0  0  0  0  0  0  0  0
    5.4787  -19.0828   19.8243 C   0  0  0  0  0  0  0  0  0  0  0  0
    5.9306  -17.7905   20.4804 C   0  0  0  0  0  0  0  0  0  0  0  0
    7.0947  -18.0224   21.4549 C   0  0  2  0  0  0  0  0  0  0  0  0
    6.6251  -18.8535   22.6233 C   0  0  0  0  0  0  0  0  0  0  0  0
    7.5625  -16.6545   21.9013 C   0  0  2  0  0  0  0  0  0  0  0  0
    7.9914  -15.8218   20.7938 N   0  0  0  0  0  0  0  0  0  0  0  0
    8.5782  -16.6113   22.9373 C   0  0  0  0  0  0  0  0  0  0  0  0
    9.8207  -16.6818   22.5797 O   0  0  0  0  0  0  0  0  0  0  0  0
    8.4146  -16.4957   24.3389 N   0  0  0  0  0  0  0  0  0  0  0  0
    9.5298  -16.4422   25.2620 C   0  0  1  0  0  0  0  0  0  0  0  0
    9.1182  -15.6686   26.4874 C   0  0  0  0  0  0  0  0  0  0  0  0
    7.9243  -14.8662   26.2744 C   0  0  0  0  0  0  0  0  0  0  0  0
    6.6864  -15.4204   25.9652 C   0  0  0  0  0  0  0  0  0  0  0  0
    5.8346  -14.4118   25.8116 N   0  0  0  0  0  0  0  0  0  0  0  0
    6.4586  -13.2328   26.0064 C   0  0  0  0  0  0  0  0  0  0  0  0
    5.9660  -11.9392   25.9590 C   0  0  0  0  0  0  0  0  0  0  0  0
    6.7788  -10.8697   26.2052 C   0  0  0  0  0  0  0  0  0  0  0  0
    8.1034  -11.1443   26.5008 C   0  0  0  0  0  0  0  0  0  0  0  0
    8.5996  -12.4259   26.5492 C   0  0  0  0  0  0  0  0  0  0  0  0
    7.7758  -13.5039   26.2992 C   0  0  0  0  0  0  0  0  0  0  0  0
   10.0605  -17.7737   25.6164 C   0  0  0  0  0  0  0  0  0  0  0  0
    9.5024  -18.9724   25.2325 O   0  0  0  0  0  0  0  0  0  0  0  0
   11.0999  -17.7994   26.3215 O   0  0  0  0  0  0  0  0  0  0  0  0
  2  1  1  6
  3  2  1  0
  4  2  1  0
  4  5  1  1
  6  7  2  0
  6  4  1  0
  9  8  1  0
 10  9  1  0
 10 12  1  0
 10 11  1  1
 12 13  1  6
 13  6  1  0
 14 12  1  0
 14 16  1  0
 15 14  2  0
 17 16  1  0
 17 28  1  0
 17 18  1  1
 18 19  1  0
 19 20  2  0
 19 27  1  0
 20 21  1  0
 21 22  1  0
 22 23  2  0
 23 24  1  0
 25 24  2  0
 26 25  1  0
 27 26  2  0
 27 22  1  0
 28 29  1  0
 30 28  2  0
M  END
$$$$
