TIW.pdb
     RDKit          3D

 30 31  0  0  1  0  0  0  0  0999 V2000
    6.3796  -20.6105   20.3985 C   0  0  0  0  0  0  0  0  0  0  0  0
    7.2357  -19.5277   21.0222 C   0  0  1  0  0  0  0  0  0  0  0  0
    8.2636  -20.1526   21.7271 O   0  0  0  0  0  0  0  0  0  0  0  0
    7.7738  -18.6845   19.8863 C   0  0  2  0  0  0  0  0  0  0  0  0
    8.4548  -19.5448   18.9783 N   0  0  0  0  0  0  0  0  0  0  0  0
    8.6721  -17.5981   20.3849 C   0  0  0  0  0  0  0  0  0  0  0  0
    9.9184  -17.7387   20.2211 O   0  0  0  0  0  0  0  0  0  0  0  0
    6.9259  -12.5595   19.5426 C   0  0  0  0  0  0  0  0  0  0  0  0
    7.8232  -13.7498   19.8303 C   0  0  0  0  0  0  0  0  0  0  0  0
    7.9155  -14.0438   21.3348 C   0  0  2  0  0  0  0  0  0  0  0  0
    8.5271  -12.8640   22.0493 C   0  0  0  0  0  0  0  0  0  0  0  0
    8.7713  -15.2831   21.4803 C   0  0  2  0  0  0  0  0  0  0  0  0
    8.1047  -16.4810   21.0063 N   0  0  0  0  0  0  0  0  0  0  0  0
    9.3279  -15.5487   22.7942 C   0  0  0  0  0  0  0  0  0  0  0  0
   10.2744  -14.7774   23.2255 O   0  0  0  0  0  0  0  0  0  0  0  0
    8.9793  -16.5622   23.7195 N   0  0  0  0  0  0  0  0  0  0  0  0
    9.6204  -16.7068   25.0104 C   0  0  1  0  0  0  0  0  0  0  0  0
    8.5642  -16.7395   26.0840 C   0  0  0  0  0  0  0  0  0  0  0  0
    7.6217  -15.6367   25.9832 C   0  0  0  0  0  0  0  0  0  0  0  0
    6.3007  -15.8058   25.5812 C   0  0  0  0  0  0  0  0  0  0  0  0
    5.7379  -14.6018   25.5736 N   0  0  0  0  0  0  0  0  0  0  0  0
    6.6278  -13.6620   25.9511 C   0  0  0  0  0  0  0  0  0  0  0  0
    6.4787  -12.2926   26.0952 C   0  0  0  0  0  0  0  0  0  0  0  0
    7.5210  -11.5132   26.5086 C   0  0  0  0  0  0  0  0  0  0  0  0
    8.7184  -12.1568   26.7724 C   0  0  0  0  0  0  0  0  0  0  0  0
    8.8740  -13.5158   26.6311 C   0  0  0  0  0  0  0  0  0  0  0  0
    7.8190  -14.2999   26.2125 C   0  0  0  0  0  0  0  0  0  0  0  0
   10.5115  -17.8812   25.0930 C   0  0  0  0  0  0  0  0  0  0  0  0
   11.3102  -18.1903   26.1711 O   0  0  0  0  0  0  0  0  0  0  0  0
   10.5322  -18.6472   24.0975 O   0  0  0  0  0  0  0  0  0  0  0  0
  2  1  1  6
  3  2  1  0
  4  2  1  0
  4  5  1  6
  6  7  2  0
  6  4  1  0
  9  8  1  0
 10  9  1  0
 10 12  1  0
 10 11  1  1
 12 13  1  1
 13  6  1  0
 14 12  1  0
 14 16  1  0
 15 14  2  0
 17 16  1  0
 17 28  1  0
 17 18  1  1
 18 19  1  0
 19 20  2  0
 19 27  1  0
 20 21  1  0
 21 22  1  0
 22 23  2  0
 23 24  1  0
 25 24  2  0
 26 25  1  0
 27 26  2  0
 27 22  1  0
 28 29  1  0
 30 28  2  0
M  END
$$$$
