TIW.pdb
     RDKit          3D

 30 31  0  0  1  0  0  0  0  0999 V2000
    7.0211  -19.1027   22.9147 C   0  0  0  0  0  0  0  0  0  0  0  0
    7.5656  -19.7061   21.6366 C   0  0  1  0  0  0  0  0  0  0  0  0
    6.8419  -20.8686   21.3740 O   0  0  0  0  0  0  0  0  0  0  0  0
    7.3730  -18.6738   20.5467 C   0  0  2  0  0  0  0  0  0  0  0  0
    7.5951  -19.3073   19.2905 N   0  0  0  0  0  0  0  0  0  0  0  0
    8.2810  -17.5006   20.7330 C   0  0  0  0  0  0  0  0  0  0  0  0
    9.4887  -17.6245   20.3781 O   0  0  0  0  0  0  0  0  0  0  0  0
    6.9156  -12.5143   19.3509 C   0  0  0  0  0  0  0  0  0  0  0  0
    7.7441  -13.6993   19.8138 C   0  0  0  0  0  0  0  0  0  0  0  0
    7.7067  -13.8594   21.3408 C   0  0  2  0  0  0  0  0  0  0  0  0
    8.3263  -12.6501   21.9966 C   0  0  0  0  0  0  0  0  0  0  0  0
    8.4800  -15.1198   21.6612 C   0  0  2  0  0  0  0  0  0  0  0  0
    7.7644  -16.3247   21.2866 N   0  0  0  0  0  0  0  0  0  0  0  0
    8.9623  -15.2686   23.0221 C   0  0  0  0  0  0  0  0  0  0  0  0
    9.2081  -14.1964   23.7052 O   0  0  0  0  0  0  0  0  0  0  0  0
    9.2135  -16.4557   23.7518 N   0  0  0  0  0  0  0  0  0  0  0  0
    9.8345  -16.4612   25.0606 C   0  0  1  0  0  0  0  0  0  0  0  0
    8.7732  -16.6730   26.1084 C   0  0  0  0  0  0  0  0  0  0  0  0
    7.7398  -15.6502   26.0808 C   0  0  0  0  0  0  0  0  0  0  0  0
    6.4171  -15.9210   25.7455 C   0  0  0  0  0  0  0  0  0  0  0  0
    5.7585  -14.7677   25.7932 N   0  0  0  0  0  0  0  0  0  0  0  0
    6.5879  -13.7641   26.1431 C   0  0  0  0  0  0  0  0  0  0  0  0
    6.3357  -12.4144   26.3240 C   0  0  0  0  0  0  0  0  0  0  0  0
    7.3319  -11.5586   26.6985 C   0  0  0  0  0  0  0  0  0  0  0  0
    8.5903  -12.1054   26.8851 C   0  0  0  0  0  0  0  0  0  0  0  0
    8.8483  -13.4444   26.7069 C   0  0  0  0  0  0  0  0  0  0  0  0
    7.8396  -14.3057   26.3278 C   0  0  0  0  0  0  0  0  0  0  0  0
   10.9240  -17.4496   25.1873 C   0  0  0  0  0  0  0  0  0  0  0  0
   11.7166  -17.6106   26.3016 O   0  0  0  0  0  0  0  0  0  0  0  0
   11.1321  -18.1929   24.1961 O   0  0  0  0  0  0  0  0  0  0  0  0
  2  1  1  1
  3  2  1  0
  4  2  1  0
  4  5  1  6
  6  7  2  0
  6  4  1  0
  9  8  1  0
 10  9  1  0
 10 12  1  0
 10 11  1  1
 12 13  1  1
 13  6  1  0
 14 12  1  0
 14 16  1  0
 15 14  2  0
 17 16  1  0
 17 28  1  0
 17 18  1  1
 18 19  1  0
 19 20  2  0
 19 27  1  0
 20 21  1  0
 21 22  1  0
 22 23  2  0
 23 24  1  0
 25 24  2  0
 26 25  1  0
 27 26  2  0
 27 22  1  0
 28 29  1  0
 30 28  2  0
M  END
$$$$
