GCP.pdb
     RDKit          3D

 18 18  0  0  1  0  0  0  0  0999 V2000
   19.8485  -19.8463  -13.5218 N   0  0  0  0  0  0  0  0  0  0  0  0
   20.9051  -20.7380  -13.9573 C   0  0  0  0  0  0  0  0  0  0  0  0
   22.2513  -20.1824  -13.6396 C   0  0  0  0  0  0  0  0  0  0  0  0
   22.5795  -19.0415  -14.0539 O   0  0  0  0  0  0  0  0  0  0  0  0
   23.2132  -20.8913  -12.8718 N   0  0  0  0  0  0  0  0  0  0  0  0
   24.6325  -20.4867  -12.8487 C   0  0  1  0  0  0  0  0  0  0  0  0
   25.3378  -21.2421  -11.7197 C   0  0  0  0  0  0  0  0  0  0  0  0
   27.0571  -21.6077  -12.2130 S   0  0  0  0  0  0  0  0  0  0  0  0
   25.2672  -20.6912  -14.1453 C   0  0  0  0  0  0  0  0  0  0  0  0
   24.8313  -21.6179  -14.8853 O   0  0  0  0  0  0  0  0  0  0  0  0
   26.3378  -19.9120  -14.6199 N   0  0  0  0  0  0  0  0  0  0  0  0
   27.2544  -19.0405  -13.8954 C   0  0  0  0  0  0  0  0  0  0  0  0
   27.6583  -17.9638  -14.8539 C   0  0  0  0  0  0  0  0  0  0  0  0
   26.9114  -18.2987  -16.1186 C   0  0  0  0  0  0  0  0  0  0  0  0
   26.7674  -19.7991  -16.0225 C   0  0  1  0  0  0  0  0  0  0  0  0
   28.0974  -20.3981  -16.2450 C   0  0  0  0  0  0  0  0  0  0  0  0
   28.5532  -21.1378  -15.3377 O   0  0  0  0  0  0  0  0  0  0  0  0
   28.8790  -20.2083  -17.3721 O   0  0  0  0  0  0  0  0  0  0  0  0
  1  2  1  0
  3  4  2  0
  3  2  1  0
  5  3  1  0
  6  5  1  0
  6  7  1  1
  8  7  1  0
  9 11  1  0
  9  6  1  0
 10  9  2  0
 11 12  1  0
 13 12  1  0
 14 15  1  0
 14 13  1  0
 15 11  1  0
 15 16  1  1
 16 18  1  0
 17 16  2  0
M  END
$$$$
