GCP.pdb
     RDKit          3D

 18 18  0  0  1  0  0  0  0  0999 V2000
   17.4949  -14.7972  -15.8381 N   0  0  0  0  0  0  0  0  0  0  0  0
   17.5199  -13.6484  -16.7217 C   0  0  0  0  0  0  0  0  0  0  0  0
   18.7057  -12.7846  -16.4578 C   0  0  0  0  0  0  0  0  0  0  0  0
   19.3389  -12.8912  -15.3767 O   0  0  0  0  0  0  0  0  0  0  0  0
   19.1745  -11.8186  -17.3874 N   0  0  0  0  0  0  0  0  0  0  0  0
   20.3621  -10.9887  -17.1052 C   0  0  1  0  0  0  0  0  0  0  0  0
   21.3685  -11.1723  -18.2438 C   0  0  0  0  0  0  0  0  0  0  0  0
   22.7596  -10.0115  -18.0199 S   0  0  0  0  0  0  0  0  0  0  0  0
   19.9998   -9.5924  -16.8939 C   0  0  0  0  0  0  0  0  0  0  0  0
   19.0321   -9.1188  -17.5540 O   0  0  0  0  0  0  0  0  0  0  0  0
   20.6670   -8.7423  -15.9935 N   0  0  0  0  0  0  0  0  0  0  0  0
   21.8632   -8.9784  -15.1948 C   0  0  0  0  0  0  0  0  0  0  0  0
   21.7198   -8.1399  -13.9629 C   0  0  0  0  0  0  0  0  0  0  0  0
   20.3914   -7.4517  -14.1397 C   0  0  0  0  0  0  0  0  0  0  0  0
   20.2655   -7.3710  -15.6426 C   0  0  1  0  0  0  0  0  0  0  0  0
   21.2343   -6.3687  -16.1264 C   0  0  0  0  0  0  0  0  0  0  0  0
   22.2427   -6.7952  -16.7422 O   0  0  0  0  0  0  0  0  0  0  0  0
   21.1182   -4.9996  -15.9544 O   0  0  0  0  0  0  0  0  0  0  0  0
  1  2  1  0
  3  4  2  0
  3  2  1  0
  5  3  1  0
  6  5  1  0
  6  7  1  6
  8  7  1  0
  9 11  1  0
  9  6  1  0
 10  9  2  0
 11 12  1  0
 13 12  1  0
 14 15  1  0
 14 13  1  0
 15 11  1  0
 15 16  1  6
 16 18  1  0
 17 16  2  0
M  END
$$$$
