GCP.pdb
     RDKit          3D

 18 18  0  0  1  0  0  0  0  0999 V2000
   20.2190  -20.5984  -12.1326 N   0  0  0  0  0  0  0  0  0  0  0  0
   21.3188  -21.4246  -12.5896 C   0  0  0  0  0  0  0  0  0  0  0  0
   22.6068  -20.6746  -12.5717 C   0  0  0  0  0  0  0  0  0  0  0  0
   22.6932  -19.5508  -13.1290 O   0  0  0  0  0  0  0  0  0  0  0  0
   23.7775  -21.1736  -11.9411 N   0  0  0  0  0  0  0  0  0  0  0  0
   25.1067  -20.5902  -12.2088 C   0  0  1  0  0  0  0  0  0  0  0  0
   26.0640  -21.0237  -11.0959 C   0  0  0  0  0  0  0  0  0  0  0  0
   25.4037  -20.4862   -9.4811 S   0  0  0  0  0  0  0  0  0  0  0  0
   25.5891  -20.9480  -13.5374 C   0  0  0  0  0  0  0  0  0  0  0  0
   25.0685  -21.9440  -14.1148 O   0  0  0  0  0  0  0  0  0  0  0  0
   26.6017  -20.2441  -14.2140 N   0  0  0  0  0  0  0  0  0  0  0  0
   27.6235  -19.3440  -13.6942 C   0  0  0  0  0  0  0  0  0  0  0  0
   27.9166  -18.3634  -14.7868 C   0  0  0  0  0  0  0  0  0  0  0  0
   27.0010  -18.7790  -15.9087 C   0  0  0  0  0  0  0  0  0  0  0  0
   26.8422  -20.2611  -15.6654 C   0  0  1  0  0  0  0  0  0  0  0  0
   28.1187  -20.9170  -16.0082 C   0  0  0  0  0  0  0  0  0  0  0  0
   28.7801  -21.4154  -15.0636 O   0  0  0  0  0  0  0  0  0  0  0  0
   28.6420  -21.0249  -17.2857 O   0  0  0  0  0  0  0  0  0  0  0  0
  1  2  1  0
  3  4  2  0
  3  2  1  0
  5  3  1  0
  6  5  1  0
  6  7  1  1
  8  7  1  0
  9 11  1  0
  9  6  1  0
 10  9  2  0
 11 12  1  0
 13 12  1  0
 14 15  1  0
 14 13  1  0
 15 11  1  0
 15 16  1  1
 16 18  1  0
 17 16  2  0
M  END
$$$$
