GCP.pdb
     RDKit          3D

 18 18  0  0  1  0  0  0  0  0999 V2000
   28.5543  -18.3535  -15.9593 N   0  0  0  0  0  0  0  0  0  0  0  0
   27.7579  -18.1131  -14.7724 C   0  0  0  0  0  0  0  0  0  0  0  0
   27.3756  -19.3904  -14.1058 C   0  0  0  0  0  0  0  0  0  0  0  0
   27.2882  -20.4521  -14.7739 O   0  0  0  0  0  0  0  0  0  0  0  0
   27.0960  -19.4779  -12.7160 N   0  0  0  0  0  0  0  0  0  0  0  0
   26.2551  -20.5584  -12.1645 C   0  0  1  0  0  0  0  0  0  0  0  0
   26.3318  -20.5061  -10.6367 C   0  0  0  0  0  0  0  0  0  0  0  0
   24.7521  -21.0843   -9.9276 S   0  0  0  0  0  0  0  0  0  0  0  0
   24.8872  -20.4774  -12.6626 C   0  0  0  0  0  0  0  0  0  0  0  0
   24.3754  -19.3333  -12.8227 O   0  0  0  0  0  0  0  0  0  0  0  0
   24.1049  -21.6033  -12.9770 N   0  0  0  0  0  0  0  0  0  0  0  0
   24.3357  -23.0134  -12.6892 C   0  0  0  0  0  0  0  0  0  0  0  0
   23.6790  -23.7819  -13.7934 C   0  0  0  0  0  0  0  0  0  0  0  0
   23.0934  -22.7174  -14.6841 C   0  0  0  0  0  0  0  0  0  0  0  0
   22.8310  -21.5906  -13.7132 C   0  0  1  0  0  0  0  0  0  0  0  0
   21.6933  -21.9826  -12.8592 C   0  0  0  0  0  0  0  0  0  0  0  0
   20.5555  -22.0010  -13.3913 O   0  0  0  0  0  0  0  0  0  0  0  0
   21.7826  -22.3300  -11.5218 O   0  0  0  0  0  0  0  0  0  0  0  0
  1  2  1  0
  3  4  2  0
  3  2  1  0
  5  3  1  0
  6  5  1  0
  6  7  1  1
  8  7  1  0
  9 11  1  0
  9  6  1  0
 10  9  2  0
 11 12  1  0
 13 12  1  0
 14 15  1  0
 14 13  1  0
 15 11  1  0
 15 16  1  1
 16 18  1  0
 17 16  2  0
M  END
$$$$
