GCP.pdb
     RDKit          3D

 18 18  0  0  1  0  0  0  0  0999 V2000
   20.8262  -15.5469  -17.9826 N   0  0  0  0  0  0  0  0  0  0  0  0
   21.1091  -14.7040  -16.8378 C   0  0  0  0  0  0  0  0  0  0  0  0
   20.6093  -13.3155  -17.0478 C   0  0  0  0  0  0  0  0  0  0  0  0
   20.6191  -12.8059  -18.1973 O   0  0  0  0  0  0  0  0  0  0  0  0
   20.1076  -12.5114  -15.9900 N   0  0  0  0  0  0  0  0  0  0  0  0
   19.5695  -11.1593  -16.2367 C   0  0  1  0  0  0  0  0  0  0  0  0
   18.1310  -11.1033  -15.7170 C   0  0  0  0  0  0  0  0  0  0  0  0
   17.4957   -9.3982  -15.8658 S   0  0  0  0  0  0  0  0  0  0  0  0
   20.4204  -10.1308  -15.6503 C   0  0  0  0  0  0  0  0  0  0  0  0
   21.0034  -10.3872  -14.5590 O   0  0  0  0  0  0  0  0  0  0  0  0
   20.6305   -8.8681  -16.2333 N   0  0  0  0  0  0  0  0  0  0  0  0
   20.0249   -8.2713  -17.4172 C   0  0  0  0  0  0  0  0  0  0  0  0
   21.0466   -7.3378  -17.9881 C   0  0  0  0  0  0  0  0  0  0  0  0
   22.2244   -7.4690  -17.0580 C   0  0  0  0  0  0  0  0  0  0  0  0
   21.5653   -7.8396  -15.7505 C   0  0  1  0  0  0  0  0  0  0  0  0
   20.8623   -6.6461  -15.2420 C   0  0  0  0  0  0  0  0  0  0  0  0
   19.6171   -6.6015  -15.4019 O   0  0  0  0  0  0  0  0  0  0  0  0
   21.4669   -5.5756  -14.6048 O   0  0  0  0  0  0  0  0  0  0  0  0
  1  2  1  0
  3  4  2  0
  3  2  1  0
  5  3  1  0
  6  5  1  0
  6  7  1  1
  8  7  1  0
  9 11  1  0
  9  6  1  0
 10  9  2  0
 11 12  1  0
 13 12  1  0
 14 15  1  0
 14 13  1  0
 15 11  1  0
 15 16  1  6
 16 18  1  0
 17 16  2  0
M  END
$$$$
