RRD.pdb
     RDKit          3D

 31 30  0  0  1  0  0  0  0  0999 V2000
   11.0002  -17.3180   16.0953 N   0  0  0  0  0  0  0  0  0  0  0  0
   11.3079  -16.4042   15.0356 C   0  0  0  0  0  0  0  0  0  0  0  0
   12.5041  -16.4695   14.5652 N   0  0  0  0  0  0  0  0  0  0  0  0
   10.3068  -15.5303   14.5943 N   0  0  0  0  0  0  0  0  0  0  0  0
    9.0127  -15.5513   15.3119 C   0  0  0  0  0  0  0  0  0  0  0  0
    9.0453  -14.5353   16.4155 C   0  0  0  0  0  0  0  0  0  0  0  0
    7.8467  -14.4806   17.2713 C   0  0  0  0  0  0  0  0  0  0  0  0
    7.8651  -13.5149   18.4225 C   0  0  2  0  0  0  0  0  0  0  0  0
    7.9056  -12.1691   17.9612 N   0  0  0  0  0  0  0  0  0  0  0  0
    8.9466  -13.8902   19.3413 C   0  0  0  0  0  0  0  0  0  0  0  0
    9.9777  -13.1715   19.4182 O   0  0  0  0  0  0  0  0  0  0  0  0
   12.7488  -15.8483   13.7662 N   0  0  0  0  0  0  0  0  0  0  0  0
   10.3610  -19.7134   26.1468 C   0  0  0  0  0  0  0  0  0  0  0  0
   11.6221  -19.1761   25.8083 N   0  0  0  0  0  0  0  0  0  0  0  0
   12.7056  -19.6553   26.3569 N   0  0  0  0  0  0  0  0  0  0  0  0
   11.7393  -18.0984   24.8558 C   0  0  0  0  0  0  0  0  0  0  0  0
   10.7123  -17.8801   23.8889 C   0  0  0  0  0  0  0  0  0  0  0  0
   11.0027  -16.6596   23.0079 C   0  0  0  0  0  0  0  0  0  0  0  0
    9.8665  -16.4676   22.0284 C   0  0  2  0  0  0  0  0  0  0  0  0
    9.9890  -15.3200   21.1205 N   0  0  0  0  0  0  0  0  0  0  0  0
    8.9549  -15.0366   20.1954 C   0  0  0  0  0  0  0  0  0  0  0  0
   11.2766  -15.4710   20.3524 O   0  0  0  0  0  0  0  0  0  0  0  0
   11.2088  -15.8397   19.1583 N   0  0  0  0  0  0  0  0  0  0  0  0
   13.6512  -19.3138   26.1672 C   0  0  2  0  0  0  0  0  0  0  0  0
   12.5463  -15.2205   20.9042 C   0  0  0  0  0  0  0  0  0  0  0  0
   13.7810  -15.3124   20.1387 C   0  0  0  0  0  0  0  0  0  0  0  0
   13.8742  -14.0858   19.2368 O   0  0  0  0  0  0  0  0  0  0  0  0
   15.1499  -14.1191   18.4862 C   0  0  0  0  0  0  0  0  0  0  0  0
   16.0485  -13.2883   18.8532 O   0  0  0  0  0  0  0  0  0  0  0  0
   14.9610  -15.4468   20.9942 O   0  0  0  0  0  0  0  0  0  0  0  0
   16.0797  -15.7035   20.5229 O   0  0  0  0  0  0  0  0  0  0  0  0
  2  1  1  0
  3  2  2  0
  4  2  1  0
  5  4  1  0
  6  5  1  0
  7  6  1  0
  8  7  1  0
  8  9  1  6
  8 10  1  0
 10 11  2  0
 13 14  2  0
 13 12  1  0
 15 13  1  0
 16 15  1  0
 16 17  1  0
 18 17  1  0
 19 18  1  1
 19 21  1  0
 20 10  1  0
 20 19  1  0
 21 23  1  0
 22 21  2  0
 23 24  1  0
 24 25  1  6
 25 26  1  0
 26 27  2  0
 28 24  1  0
 28 31  1  0
 29 28  2  0
 30 26  1  0
M  END
$$$$
