RRD.pdb
     RDKit          3D

 31 30  0  0  1  0  0  0  0  0999 V2000
    7.1348  -14.8685   14.4239 N   0  0  0  0  0  0  0  0  0  0  0  0
    8.2615  -14.1620   14.9568 C   0  0  0  0  0  0  0  0  0  0  0  0
    9.3098  -14.1289   14.2108 N   0  0  0  0  0  0  0  0  0  0  0  0
    8.1421  -13.5674   16.2189 N   0  0  0  0  0  0  0  0  0  0  0  0
    7.0494  -14.0388   17.0987 C   0  0  0  0  0  0  0  0  0  0  0  0
    7.0689  -13.2488   18.3741 C   0  0  0  0  0  0  0  0  0  0  0  0
    8.2119  -13.5049   19.2686 C   0  0  0  0  0  0  0  0  0  0  0  0
    8.3391  -14.8863   19.8463 C   0  0  2  0  0  0  0  0  0  0  0  0
    7.0595  -15.4510   20.1093 N   0  0  0  0  0  0  0  0  0  0  0  0
    9.2465  -14.8382   20.9992 C   0  0  0  0  0  0  0  0  0  0  0  0
   10.3225  -14.1890   20.9198 O   0  0  0  0  0  0  0  0  0  0  0  0
   10.1561  -13.6477   14.5797 N   0  0  0  0  0  0  0  0  0  0  0  0
   10.2806  -16.1135   30.5648 C   0  0  0  0  0  0  0  0  0  0  0  0
   10.2198  -15.0746   29.6105 N   0  0  0  0  0  0  0  0  0  0  0  0
    9.7350  -13.9088   29.9432 N   0  0  0  0  0  0  0  0  0  0  0  0
   10.6902  -15.2763   28.2613 C   0  0  0  0  0  0  0  0  0  0  0  0
    9.7594  -15.3723   27.1834 C   0  0  0  0  0  0  0  0  0  0  0  0
   10.4600  -15.4021   25.8202 C   0  0  0  0  0  0  0  0  0  0  0  0
    9.4208  -15.4927   24.7252 C   0  0  1  0  0  0  0  0  0  0  0  0
    9.9267  -15.3907   23.3504 N   0  0  0  0  0  0  0  0  0  0  0  0
    9.0296  -15.4795   22.2584 C   0  0  0  0  0  0  0  0  0  0  0  0
   10.9919  -16.4410   23.1685 O   0  0  0  0  0  0  0  0  0  0  0  0
   10.6317  -17.5905   22.8290 N   0  0  0  0  0  0  0  0  0  0  0  0
    9.6310  -13.1195   29.3006 C   0  0  2  0  0  0  0  0  0  0  0  0
   12.3646  -16.1990   23.3594 C   0  0  0  0  0  0  0  0  0  0  0  0
   13.3869  -17.2200   23.1819 C   0  0  0  0  0  0  0  0  0  0  0  0
   14.5893  -16.5759   22.4994 O   0  0  0  0  0  0  0  0  0  0  0  0
   15.6169  -17.6072   22.2303 C   0  0  0  0  0  0  0  0  0  0  0  0
   15.1974  -18.8053   22.0860 O   0  0  0  0  0  0  0  0  0  0  0  0
   13.7598  -17.8635   24.4426 O   0  0  0  0  0  0  0  0  0  0  0  0
   14.6671  -17.4129   25.1588 O   0  0  0  0  0  0  0  0  0  0  0  0
  2  1  1  0
  3  2  2  0
  4  2  1  0
  5  4  1  0
  6  5  1  0
  7  6  1  0
  8  7  1  0
  8  9  1  1
  8 10  1  0
 10 11  2  0
 13 14  2  0
 13 12  1  0
 15 13  1  0
 16 15  1  0
 16 17  1  0
 18 17  1  0
 19 18  1  1
 19 21  1  0
 20 10  1  0
 20 19  1  0
 21 23  1  0
 22 21  2  0
 23 24  1  0
 24 25  1  1
 25 26  1  0
 26 27  2  0
 28 24  1  0
 28 31  1  0
 29 28  2  0
 30 26  1  0
M  END
$$$$
