RRD.pdb
     RDKit          3D

 31 30  0  0  1  0  0  0  0  0999 V2000
   22.6164  -19.1333   14.1050 N   0  0  0  0  0  0  0  0  0  0  0  0
   22.7775  -19.6869   15.4166 C   0  0  0  0  0  0  0  0  0  0  0  0
   23.9547  -20.1207   15.7041 N   0  0  0  0  0  0  0  0  0  0  0  0
   21.6702  -19.7102   16.2733 N   0  0  0  0  0  0  0  0  0  0  0  0
   20.5731  -18.7547   16.0023 C   0  0  0  0  0  0  0  0  0  0  0  0
   19.7404  -19.2707   14.8658 C   0  0  0  0  0  0  0  0  0  0  0  0
   18.5447  -20.0433   15.2471 C   0  0  0  0  0  0  0  0  0  0  0  0
   17.2049  -19.4265   14.9600 C   0  0  2  0  0  0  0  0  0  0  0  0
   17.3117  -18.4071   13.9726 N   0  0  0  0  0  0  0  0  0  0  0  0
   16.5943  -19.0042   16.2264 C   0  0  0  0  0  0  0  0  0  0  0  0
   16.7595  -17.8251   16.6363 O   0  0  0  0  0  0  0  0  0  0  0  0
   24.1103  -20.5155   16.6549 N   0  0  0  0  0  0  0  0  0  0  0  0
    9.3705  -22.2453   17.8346 C   0  0  0  0  0  0  0  0  0  0  0  0
    9.3737  -20.9974   17.1741 N   0  0  0  0  0  0  0  0  0  0  0  0
    8.5957  -20.8008   16.1441 N   0  0  0  0  0  0  0  0  0  0  0  0
   10.2262  -19.9222   17.6209 C   0  0  0  0  0  0  0  0  0  0  0  0
   11.3903  -20.2044   18.3972 C   0  0  0  0  0  0  0  0  0  0  0  0
   12.6552  -19.6006   17.7763 C   0  0  0  0  0  0  0  0  0  0  0  0
   13.8486  -19.9408   18.6408 C   0  0  2  0  0  0  0  0  0  0  0  0
   15.1270  -19.3442   18.2333 N   0  0  0  0  0  0  0  0  0  0  0  0
   15.7972  -19.8260   17.0826 C   0  0  0  0  0  0  0  0  0  0  0  0
   16.0753  -19.4359   19.4008 O   0  0  0  0  0  0  0  0  0  0  0  0
   16.6633  -20.5233   19.5962 N   0  0  0  0  0  0  0  0  0  0  0  0
    8.5570  -19.9325   15.6043 C   0  0  1  0  0  0  0  0  0  0  0  0
   16.3337  -18.3680   20.2796 C   0  0  0  0  0  0  0  0  0  0  0  0
   17.2102  -18.4811   21.4363 C   0  0  0  0  0  0  0  0  0  0  0  0
   17.9357  -17.1514   21.6153 O   0  0  0  0  0  0  0  0  0  0  0  0
   18.8817  -16.9488   20.4946 C   0  0  0  0  0  0  0  0  0  0  0  0
   19.2101  -17.9901   19.8310 O   0  0  0  0  0  0  0  0  0  0  0  0
   16.4893  -18.8726   22.6484 O   0  0  0  0  0  0  0  0  0  0  0  0
   17.0889  -19.1960   23.6854 O   0  0  0  0  0  0  0  0  0  0  0  0
  2  1  1  0
  3  2  2  0
  4  2  1  0
  5  4  1  0
  6  5  1  0
  7  6  1  0
  8  7  1  0
  8  9  1  6
  8 10  1  0
 10 11  2  0
 13 14  2  0
 13 12  1  0
 15 13  1  0
 16 15  1  0
 16 17  1  0
 18 17  1  0
 19 18  1  6
 19 21  1  0
 20 10  1  0
 20 19  1  0
 21 23  1  0
 22 21  2  0
 23 24  1  0
 24 25  1  1
 25 26  1  0
 26 27  2  0
 28 24  1  0
 28 31  1  0
 29 28  2  0
 30 26  1  0
M  END
$$$$
