RRD.pdb
     RDKit          3D

 31 30  0  0  1  0  0  0  0  0999 V2000
    9.5913  -11.7486   19.2213 N   0  0  0  0  0  0  0  0  0  0  0  0
    8.2758  -12.2995   19.0845 C   0  0  0  0  0  0  0  0  0  0  0  0
    7.4741  -12.0946   20.0703 N   0  0  0  0  0  0  0  0  0  0  0  0
    7.9625  -12.9999   17.9132 N   0  0  0  0  0  0  0  0  0  0  0  0
    6.8971  -14.0241   17.9905 C   0  0  0  0  0  0  0  0  0  0  0  0
    7.5231  -15.3876   17.9735 C   0  0  0  0  0  0  0  0  0  0  0  0
    7.4212  -16.1548   19.2278 C   0  0  0  0  0  0  0  0  0  0  0  0
    8.6052  -16.9920   19.6219 C   0  0  2  0  0  0  0  0  0  0  0  0
    8.2555  -18.3695   19.6980 N   0  0  0  0  0  0  0  0  0  0  0  0
    9.1985  -16.4325   20.8424 C   0  0  0  0  0  0  0  0  0  0  0  0
    9.7635  -15.3079   20.8028 O   0  0  0  0  0  0  0  0  0  0  0  0
    6.5398  -12.5533   20.0428 N   0  0  0  0  0  0  0  0  0  0  0  0
    9.3195  -14.0318   28.1337 C   0  0  0  0  0  0  0  0  0  0  0  0
   10.4197  -14.8471   28.4780 N   0  0  0  0  0  0  0  0  0  0  0  0
   11.4605  -14.3253   29.0690 N   0  0  0  0  0  0  0  0  0  0  0  0
   10.4161  -16.2610   28.1897 C   0  0  0  0  0  0  0  0  0  0  0  0
    9.6742  -16.7653   27.0795 C   0  0  0  0  0  0  0  0  0  0  0  0
   10.2246  -16.2569   25.7421 C   0  0  0  0  0  0  0  0  0  0  0  0
    9.4442  -16.8843   24.6087 C   0  0  2  0  0  0  0  0  0  0  0  0
    9.8868  -16.5329   23.2533 N   0  0  0  0  0  0  0  0  0  0  0  0
    9.2043  -17.0567   22.1285 C   0  0  0  0  0  0  0  0  0  0  0  0
   11.3431  -16.9001   23.1307 O   0  0  0  0  0  0  0  0  0  0  0  0
   11.6492  -18.1128   23.1756 N   0  0  0  0  0  0  0  0  0  0  0  0
   12.2833  -14.8547   29.3683 C   0  0  2  0  0  0  0  0  0  0  0  0
   12.3732  -15.9555   22.9689 C   0  0  0  0  0  0  0  0  0  0  0  0
   13.7859  -16.3068   22.9752 C   0  0  0  0  0  0  0  0  0  0  0  0
   14.5582  -15.1852   22.2882 O   0  0  0  0  0  0  0  0  0  0  0  0
   14.3705  -15.2804   20.8227 C   0  0  0  0  0  0  0  0  0  0  0  0
   13.7632  -16.3189   20.3925 O   0  0  0  0  0  0  0  0  0  0  0  0
   14.2919  -16.5662   24.3239 O   0  0  0  0  0  0  0  0  0  0  0  0
   15.4647  -16.9195   24.5213 O   0  0  0  0  0  0  0  0  0  0  0  0
  2  1  1  0
  3  2  2  0
  4  2  1  0
  5  4  1  0
  6  5  1  0
  7  6  1  0
  8  7  1  0
  8  9  1  1
  8 10  1  0
 10 11  2  0
 13 14  2  0
 13 12  1  0
 15 13  1  0
 16 15  1  0
 16 17  1  0
 18 17  1  0
 19 18  1  1
 19 21  1  0
 20 10  1  0
 20 19  1  0
 21 23  1  0
 22 21  2  0
 23 24  1  0
 24 25  1  1
 25 26  1  0
 26 27  2  0
 28 24  1  0
 28 31  1  0
 29 28  2  0
 30 26  1  0
M  END
$$$$
