RRD.pdb
     RDKit          3D

 31 30  0  0  1  0  0  0  0  0999 V2000
    9.4820  -16.3262   14.2099 N   0  0  0  0  0  0  0  0  0  0  0  0
    8.1839  -15.9303   14.6692 C   0  0  0  0  0  0  0  0  0  0  0  0
    7.4825  -15.2346   13.8442 N   0  0  0  0  0  0  0  0  0  0  0  0
    7.7789  -16.3244   15.9503 N   0  0  0  0  0  0  0  0  0  0  0  0
    7.6081  -15.2670   16.9714 C   0  0  0  0  0  0  0  0  0  0  0  0
    8.9340  -14.9854   17.6148 C   0  0  0  0  0  0  0  0  0  0  0  0
    8.9436  -13.9028   18.6148 C   0  0  0  0  0  0  0  0  0  0  0  0
    7.9154  -13.9659   19.7089 C   0  0  2  0  0  0  0  0  0  0  0  0
    7.0113  -12.8699   19.6256 N   0  0  0  0  0  0  0  0  0  0  0  0
    8.6012  -14.1098   20.9987 C   0  0  0  0  0  0  0  0  0  0  0  0
    9.4766  -13.2702   21.3371 O   0  0  0  0  0  0  0  0  0  0  0  0
    6.5458  -14.9053   14.1572 N   0  0  0  0  0  0  0  0  0  0  0  0
    8.8603  -13.3588   28.9954 C   0  0  0  0  0  0  0  0  0  0  0  0
    9.8581  -14.3564   28.9407 N   0  0  0  0  0  0  0  0  0  0  0  0
   10.6704  -14.5245   29.9490 N   0  0  0  0  0  0  0  0  0  0  0  0
    9.9981  -15.2049   27.7820 C   0  0  0  0  0  0  0  0  0  0  0  0
    9.1216  -15.0470   26.6665 C   0  0  0  0  0  0  0  0  0  0  0  0
    9.4554  -16.0213   25.5311 C   0  0  0  0  0  0  0  0  0  0  0  0
    8.5216  -15.7729   24.3676 C   0  0  1  0  0  0  0  0  0  0  0  0
    9.1559  -15.3324   23.1185 N   0  0  0  0  0  0  0  0  0  0  0  0
    8.3717  -15.1484   21.9539 C   0  0  0  0  0  0  0  0  0  0  0  0
   10.2606  -16.3036   22.7912 O   0  0  0  0  0  0  0  0  0  0  0  0
   10.0217  -17.2060   21.9576 N   0  0  0  0  0  0  0  0  0  0  0  0
   11.4296  -15.2099   29.9738 C   0  0  2  0  0  0  0  0  0  0  0  0
   11.5415  -16.2499   23.3707 C   0  0  0  0  0  0  0  0  0  0  0  0
   12.5054  -17.3367   23.2774 C   0  0  0  0  0  0  0  0  0  0  0  0
   13.8989  -16.7572   23.4984 O   0  0  0  0  0  0  0  0  0  0  0  0
   14.3986  -16.1735   22.2328 C   0  0  0  0  0  0  0  0  0  0  0  0
   14.0777  -14.9590   21.9999 O   0  0  0  0  0  0  0  0  0  0  0  0
   12.2157  -18.4234   24.2141 O   0  0  0  0  0  0  0  0  0  0  0  0
   11.2887  -18.3441   25.0350 O   0  0  0  0  0  0  0  0  0  0  0  0
  2  1  1  0
  3  2  2  0
  4  2  1  0
  5  4  1  0
  6  5  1  0
  7  6  1  0
  8  7  1  0
  8  9  1  1
  8 10  1  0
 10 11  2  0
 13 14  2  0
 13 12  1  0
 15 13  1  0
 16 15  1  0
 16 17  1  0
 18 17  1  0
 19 18  1  1
 19 21  1  0
 20 10  1  0
 20 19  1  0
 21 23  1  0
 22 21  2  0
 23 24  1  0
 24 25  1  1
 25 26  1  0
 26 27  2  0
 28 24  1  0
 28 31  1  0
 29 28  2  0
 30 26  1  0
M  END
$$$$
