RRD.pdb
     RDKit          3D

 31 30  0  0  1  0  0  0  0  0999 V2000
    8.1170  -12.9469   15.3312 N   0  0  0  0  0  0  0  0  0  0  0  0
    8.5074  -14.1595   15.9868 C   0  0  0  0  0  0  0  0  0  0  0  0
    8.3809  -15.2387   15.2969 N   0  0  0  0  0  0  0  0  0  0  0  0
    8.9926  -14.0845   17.2982 N   0  0  0  0  0  0  0  0  0  0  0  0
    8.7341  -12.8393   18.0550 C   0  0  0  0  0  0  0  0  0  0  0  0
    7.3975  -12.9416   18.7291 C   0  0  0  0  0  0  0  0  0  0  0  0
    7.3644  -13.7391   19.9680 C   0  0  0  0  0  0  0  0  0  0  0  0
    8.0979  -15.0507   19.9633 C   0  0  2  0  0  0  0  0  0  0  0  0
    7.5469  -15.9419   19.0001 N   0  0  0  0  0  0  0  0  0  0  0  0
    8.1499  -15.5717   21.3347 C   0  0  0  0  0  0  0  0  0  0  0  0
    8.7291  -14.9066   22.2334 O   0  0  0  0  0  0  0  0  0  0  0  0
    8.7386  -16.1256   15.7086 N   0  0  0  0  0  0  0  0  0  0  0  0
    5.5246  -22.9168   25.8761 C   0  0  0  0  0  0  0  0  0  0  0  0
    6.3373  -22.1928   26.7755 N   0  0  0  0  0  0  0  0  0  0  0  0
    6.5913  -22.6761   27.9615 N   0  0  0  0  0  0  0  0  0  0  0  0
    6.9015  -20.9172   26.4055 C   0  0  0  0  0  0  0  0  0  0  0  0
    6.5432  -20.3060   25.1664 C   0  0  0  0  0  0  0  0  0  0  0  0
    7.3484  -19.0286   24.9018 C   0  0  0  0  0  0  0  0  0  0  0  0
    7.0278  -18.5128   23.5167 C   0  0  1  0  0  0  0  0  0  0  0  0
    7.8157  -17.3595   23.0632 N   0  0  0  0  0  0  0  0  0  0  0  0
    7.5889  -16.8096   21.7782 C   0  0  0  0  0  0  0  0  0  0  0  0
    9.2741  -17.7242   23.1664 O   0  0  0  0  0  0  0  0  0  0  0  0
    9.7316  -18.5541   22.3488 N   0  0  0  0  0  0  0  0  0  0  0  0
    7.2337  -22.2515   28.6352 C   0  0  2  0  0  0  0  0  0  0  0  0
   10.1457  -17.1832   24.1292 C   0  0  0  0  0  0  0  0  0  0  0  0
   11.5390  -17.5843   24.2590 C   0  0  0  0  0  0  0  0  0  0  0  0
   12.4135  -16.4221   23.7997 O   0  0  0  0  0  0  0  0  0  0  0  0
   13.2669  -16.8603   22.6719 C   0  0  0  0  0  0  0  0  0  0  0  0
   13.1415  -18.0767   22.3018 O   0  0  0  0  0  0  0  0  0  0  0  0
   11.8742  -18.0105   25.6185 O   0  0  0  0  0  0  0  0  0  0  0  0
   12.9996  -18.4482   25.9035 O   0  0  0  0  0  0  0  0  0  0  0  0
  2  1  1  0
  3  2  2  0
  4  2  1  0
  5  4  1  0
  6  5  1  0
  7  6  1  0
  8  7  1  0
  8  9  1  6
  8 10  1  0
 10 11  2  0
 13 14  2  0
 13 12  1  0
 15 13  1  0
 16 15  1  0
 16 17  1  0
 18 17  1  0
 19 18  1  1
 19 21  1  0
 20 10  1  0
 20 19  1  0
 21 23  1  0
 22 21  2  0
 23 24  1  0
 24 25  1  6
 25 26  1  0
 26 27  2  0
 28 24  1  0
 28 31  1  0
 29 28  2  0
 30 26  1  0
M  END
$$$$
