RRD.pdb
     RDKit          3D

 31 30  0  0  1  0  0  0  0  0999 V2000
    7.1140  -12.6201   17.4278 N   0  0  0  0  0  0  0  0  0  0  0  0
    8.2361  -13.4483   17.0994 C   0  0  0  0  0  0  0  0  0  0  0  0
    8.8798  -13.1274   16.0321 N   0  0  0  0  0  0  0  0  0  0  0  0
    8.5478  -14.5187   17.9467 N   0  0  0  0  0  0  0  0  0  0  0  0
    7.4233  -15.3060   18.4996 C   0  0  0  0  0  0  0  0  0  0  0  0
    6.7325  -14.4999   19.5598 C   0  0  0  0  0  0  0  0  0  0  0  0
    7.1250  -14.7984   20.9487 C   0  0  0  0  0  0  0  0  0  0  0  0
    6.5667  -16.0479   21.5694 C   0  0  2  0  0  0  0  0  0  0  0  0
    5.1646  -16.1478   21.3465 N   0  0  0  0  0  0  0  0  0  0  0  0
    6.9782  -16.1046   22.9774 C   0  0  0  0  0  0  0  0  0  0  0  0
    6.7719  -15.1150   23.7282 O   0  0  0  0  0  0  0  0  0  0  0  0
    9.7214  -13.6875   15.7830 N   0  0  0  0  0  0  0  0  0  0  0  0
    5.8686  -21.3054   23.6830 C   0  0  0  0  0  0  0  0  0  0  0  0
    5.8240  -22.1842   24.7872 N   0  0  0  0  0  0  0  0  0  0  0  0
    5.1614  -23.3062   24.7035 N   0  0  0  0  0  0  0  0  0  0  0  0
    6.5054  -21.8656   26.0187 C   0  0  0  0  0  0  0  0  0  0  0  0
    6.6187  -20.5084   26.4460 C   0  0  0  0  0  0  0  0  0  0  0  0
    7.2844  -19.6255   25.3842 C   0  0  0  0  0  0  0  0  0  0  0  0
    7.3640  -18.2037   25.8938 C   0  0  1  0  0  0  0  0  0  0  0  0
    7.9802  -17.2296   24.9840 N   0  0  0  0  0  0  0  0  0  0  0  0
    7.6177  -17.2128   23.6152 C   0  0  0  0  0  0  0  0  0  0  0  0
    9.4755  -17.3946   25.0708 O   0  0  0  0  0  0  0  0  0  0  0  0
   10.0973  -17.6780   24.0223 N   0  0  0  0  0  0  0  0  0  0  0  0
    4.9715  -23.9276   25.4938 C   0  0  2  0  0  0  0  0  0  0  0  0
   10.2071  -17.2473   26.2635 C   0  0  0  0  0  0  0  0  0  0  0  0
   11.1781  -18.2265   26.7298 C   0  0  0  0  0  0  0  0  0  0  0  0
   10.4274  -19.3186   27.4850 O   0  0  0  0  0  0  0  0  0  0  0  0
   10.4228  -19.0061   28.9321 C   0  0  0  0  0  0  0  0  0  0  0  0
   10.9932  -17.9177   29.2817 O   0  0  0  0  0  0  0  0  0  0  0  0
   11.9845  -18.7776   25.6398 O   0  0  0  0  0  0  0  0  0  0  0  0
   11.4630  -19.3532   24.6722 O   0  0  0  0  0  0  0  0  0  0  0  0
  2  1  1  0
  3  2  2  0
  4  2  1  0
  5  4  1  0
  6  5  1  0
  7  6  1  0
  8  7  1  0
  8  9  1  1
  8 10  1  0
 10 11  2  0
 13 14  2  0
 13 12  1  0
 15 13  1  0
 16 15  1  0
 16 17  1  0
 18 17  1  0
 19 18  1  1
 19 21  1  0
 20 10  1  0
 20 19  1  0
 21 23  1  0
 22 21  2  0
 23 24  1  0
 24 25  1  6
 25 26  1  0
 26 27  2  0
 28 24  1  0
 28 31  1  0
 29 28  2  0
 30 26  1  0
M  END
$$$$
