LGE.pdb
     RDKit          3D

 22 21  0  0  1  0  0  0  0  0999 V2000
   24.1588  -11.4328  -15.0559 C   0  0  0  0  0  0  0  0  0  0  0  0
   23.3575  -10.2352  -15.5297 C   0  0  2  0  0  0  0  0  0  0  0  0
   24.1235   -8.9570  -15.3728 C   0  0  0  0  0  0  0  0  0  0  0  0
   21.9810  -10.2053  -14.8963 C   0  0  0  0  0  0  0  0  0  0  0  0
   21.0310  -10.7450  -15.9335 C   0  0  2  0  0  0  0  0  0  0  0  0
   21.8051  -10.8543  -17.1700 N   0  0  0  0  0  0  0  0  0  0  0  0
   19.8322   -9.9272  -16.1244 C   0  0  0  0  0  0  0  0  0  0  0  0
   19.0687   -9.8276  -15.0937 O   0  0  0  0  0  0  0  0  0  0  0  0
   19.4390   -9.2586  -17.2800 N   0  0  0  0  0  0  0  0  0  0  0  0
   18.2229   -8.4915  -17.3274 C   0  0  0  0  0  0  0  0  0  0  0  0
   18.2132   -7.2886  -16.4810 C   0  0  0  0  0  0  0  0  0  0  0  0
   17.4811   -7.3454  -15.4274 O   0  0  0  0  0  0  0  0  0  0  0  0
   18.9142   -6.1184  -16.7125 N   0  0  0  0  0  0  0  0  0  0  0  0
   18.7981   -4.9025  -15.8886 C   0  0  1  0  0  0  0  0  0  0  0  0
   20.1992   -4.7108  -15.3267 C   0  0  0  0  0  0  0  0  0  0  0  0
   20.5255   -5.6959  -14.2421 C   0  0  0  0  0  0  0  0  0  0  0  0
   21.9024   -5.4056  -13.7517 C   0  0  0  0  0  0  0  0  0  0  0  0
   22.7174   -4.8488  -14.5210 O   0  0  0  0  0  0  0  0  0  0  0  0
   18.2566   -3.7766  -16.6046 C   0  0  0  0  0  0  0  0  0  0  0  0
   18.1498   -3.7859  -17.8727 O   0  0  0  0  0  0  0  0  0  0  0  0
   22.3389   -5.7216  -12.4752 O   0  0  0  0  0  0  0  0  0  0  0  0
   17.8291   -2.6405  -15.9520 O   0  0  0  0  0  0  0  0  0  0  0  0
  2  1  1  1
  2  4  1  0
  2  3  1  0
  4  5  1  0
  5  6  1  6
  5  7  1  0
  7  8  2  0
  9  7  1  0
  9 10  1  0
 10 11  1  0
 11 13  1  0
 11 12  2  0
 13 14  1  0
 14 19  1  0
 14 15  1  6
 16 15  1  0
 17 16  1  0
 17 21  1  0
 18 17  2  0
 19 22  1  0
 20 19  2  0
M  END
$$$$
