LGE.pdb
     RDKit          3D

 22 21  0  0  1  0  0  0  0  0999 V2000
   11.9311  -10.7802   -8.2506 C   0  0  0  0  0  0  0  0  0  0  0  0
   11.9593   -9.2652   -8.3205 C   0  0  2  0  0  0  0  0  0  0  0  0
   10.6031   -8.6730   -8.0849 C   0  0  0  0  0  0  0  0  0  0  0  0
   12.6247   -8.7827   -9.5938 C   0  0  0  0  0  0  0  0  0  0  0  0
   14.0288   -9.3280   -9.5649 C   0  0  2  0  0  0  0  0  0  0  0  0
   14.7461   -8.5397   -8.5629 N   0  0  0  0  0  0  0  0  0  0  0  0
   14.7081   -9.2899  -10.8608 C   0  0  0  0  0  0  0  0  0  0  0  0
   14.1728  -10.0138  -11.7800 O   0  0  0  0  0  0  0  0  0  0  0  0
   15.8487   -8.5671  -11.1975 N   0  0  0  0  0  0  0  0  0  0  0  0
   16.2992   -8.4657  -12.5601 C   0  0  0  0  0  0  0  0  0  0  0  0
   17.0274   -7.2294  -12.8837 C   0  0  0  0  0  0  0  0  0  0  0  0
   16.5517   -6.1464  -12.3838 O   0  0  0  0  0  0  0  0  0  0  0  0
   18.1649   -7.1294  -13.6651 N   0  0  0  0  0  0  0  0  0  0  0  0
   18.8628   -5.8658  -13.9601 C   0  0  1  0  0  0  0  0  0  0  0  0
   20.3318   -6.2619  -13.9896 C   0  0  0  0  0  0  0  0  0  0  0  0
   21.2443   -5.0813  -14.1527 C   0  0  0  0  0  0  0  0  0  0  0  0
   22.6437   -5.5862  -14.2405 C   0  0  0  0  0  0  0  0  0  0  0  0
   22.8652   -6.8018  -14.0431 O   0  0  0  0  0  0  0  0  0  0  0  0
   18.3737   -5.2055  -15.1426 C   0  0  0  0  0  0  0  0  0  0  0  0
   17.7731   -5.8492  -16.0615 O   0  0  0  0  0  0  0  0  0  0  0  0
   23.7291   -4.7757  -14.5317 O   0  0  0  0  0  0  0  0  0  0  0  0
   18.5318   -3.8498  -15.3333 O   0  0  0  0  0  0  0  0  0  0  0  0
  2  1  1  6
  2  4  1  0
  2  3  1  0
  4  5  1  0
  5  6  1  1
  5  7  1  0
  7  8  2  0
  9  7  1  0
  9 10  1  0
 10 11  1  0
 11 13  1  0
 11 12  2  0
 13 14  1  0
 14 19  1  0
 14 15  1  6
 16 15  1  0
 17 16  1  0
 17 21  1  0
 18 17  2  0
 19 22  1  0
 20 19  2  0
M  END
$$$$
