LGE.pdb
     RDKit          3D

 22 21  0  0  1  0  0  0  0  0999 V2000
   28.7254  -20.0127   -8.0226 C   0  0  0  0  0  0  0  0  0  0  0  0
   28.9843  -21.2286   -8.8916 C   0  0  2  0  0  0  0  0  0  0  0  0
   30.4307  -21.6199   -8.8829 C   0  0  0  0  0  0  0  0  0  0  0  0
   28.4078  -21.0477  -10.2815 C   0  0  0  0  0  0  0  0  0  0  0  0
   26.9565  -20.6920  -10.0897 C   0  0  2  0  0  0  0  0  0  0  0  0
   26.3947  -21.7396   -9.2372 N   0  0  0  0  0  0  0  0  0  0  0  0
   26.2064  -20.5612  -11.3397 C   0  0  0  0  0  0  0  0  0  0  0  0
   26.5639  -19.5804  -12.0917 O   0  0  0  0  0  0  0  0  0  0  0  0
   25.1682  -21.3701  -11.7922 N   0  0  0  0  0  0  0  0  0  0  0  0
   24.6167  -21.2169  -13.1122 C   0  0  0  0  0  0  0  0  0  0  0  0
   23.2531  -20.6674  -13.1563 C   0  0  0  0  0  0  0  0  0  0  0  0
   22.5870  -20.7206  -12.0596 O   0  0  0  0  0  0  0  0  0  0  0  0
   22.6324  -20.1032  -14.2567 N   0  0  0  0  0  0  0  0  0  0  0  0
   21.2505  -19.5924  -14.2611 C   0  0  1  0  0  0  0  0  0  0  0  0
   21.1355  -18.8708  -15.5959 C   0  0  0  0  0  0  0  0  0  0  0  0
   19.7776  -18.2683  -15.8108 C   0  0  0  0  0  0  0  0  0  0  0  0
   19.7574  -17.6419  -17.1628 C   0  0  0  0  0  0  0  0  0  0  0  0
   20.7816  -17.7072  -17.8788 O   0  0  0  0  0  0  0  0  0  0  0  0
   20.2634  -20.6125  -14.0195 C   0  0  0  0  0  0  0  0  0  0  0  0
   19.1614  -20.3457  -13.4414 O   0  0  0  0  0  0  0  0  0  0  0  0
   18.6547  -16.9814  -17.6801 O   0  0  0  0  0  0  0  0  0  0  0  0
   20.4647  -21.9210  -14.4026 O   0  0  0  0  0  0  0  0  0  0  0  0
  2  1  1  1
  2  4  1  0
  2  3  1  0
  4  5  1  0
  5  6  1  1
  5  7  1  0
  7  8  2  0
  9  7  1  0
  9 10  1  0
 10 11  1  0
 11 13  1  0
 11 12  2  0
 13 14  1  0
 14 19  1  0
 14 15  1  6
 16 15  1  0
 17 16  1  0
 17 21  1  0
 18 17  2  0
 19 22  1  0
 20 19  2  0
M  END
$$$$
