LGE.pdb
     RDKit          3D

 22 21  0  0  1  0  0  0  0  0999 V2000
   17.5933  -13.2896  -15.9066 C   0  0  0  0  0  0  0  0  0  0  0  0
   18.7636  -12.3379  -15.7466 C   0  0  2  0  0  0  0  0  0  0  0  0
   19.9918  -13.0447  -15.2597 C   0  0  0  0  0  0  0  0  0  0  0  0
   18.3835  -11.1289  -14.9156 C   0  0  0  0  0  0  0  0  0  0  0  0
   17.3124  -10.4076  -15.6915 C   0  0  2  0  0  0  0  0  0  0  0  0
   17.9148  -10.0556  -16.9772 N   0  0  0  0  0  0  0  0  0  0  0  0
   16.7784   -9.2269  -15.0108 C   0  0  0  0  0  0  0  0  0  0  0  0
   16.2575   -9.4507  -13.8558 O   0  0  0  0  0  0  0  0  0  0  0  0
   16.7752   -7.9136  -15.4714 N   0  0  0  0  0  0  0  0  0  0  0  0
   16.3209   -6.8280  -14.6438 C   0  0  0  0  0  0  0  0  0  0  0  0
   17.3889   -6.0467  -14.0017 C   0  0  0  0  0  0  0  0  0  0  0  0
   17.8436   -6.5143  -12.8955 O   0  0  0  0  0  0  0  0  0  0  0  0
   17.9425   -4.8709  -14.4767 N   0  0  0  0  0  0  0  0  0  0  0  0
   19.2155   -4.3003  -14.0030 C   0  0  1  0  0  0  0  0  0  0  0  0
   20.2421   -5.3692  -14.3481 C   0  0  0  0  0  0  0  0  0  0  0  0
   21.6349   -4.9839  -13.9419 C   0  0  0  0  0  0  0  0  0  0  0  0
   22.5593   -6.0724  -14.3674 C   0  0  0  0  0  0  0  0  0  0  0  0
   23.1833   -5.9538  -15.4456 O   0  0  0  0  0  0  0  0  0  0  0  0
   19.4845   -2.9875  -14.5302 C   0  0  0  0  0  0  0  0  0  0  0  0
   20.2720   -2.1829  -13.9368 O   0  0  0  0  0  0  0  0  0  0  0  0
   22.7704   -7.2250  -13.6280 O   0  0  0  0  0  0  0  0  0  0  0  0
   18.9044   -2.5429  -15.6986 O   0  0  0  0  0  0  0  0  0  0  0  0
  2  1  1  1
  2  4  1  0
  2  3  1  0
  4  5  1  0
  5  6  1  6
  5  7  1  0
  7  8  2  0
  9  7  1  0
  9 10  1  0
 10 11  1  0
 11 13  1  0
 11 12  2  0
 13 14  1  0
 14 19  1  0
 14 15  1  6
 16 15  1  0
 17 16  1  0
 17 21  1  0
 18 17  2  0
 19 22  1  0
 20 19  2  0
M  END
$$$$
