LGE.pdb
     RDKit          3D

 22 21  0  0  1  0  0  0  0  0999 V2000
   27.8373  -18.4017   -6.8673 C   0  0  0  0  0  0  0  0  0  0  0  0
   27.4579  -19.8053   -6.4349 C   0  0  2  0  0  0  0  0  0  0  0  0
   28.2566  -20.2565   -5.2500 C   0  0  0  0  0  0  0  0  0  0  0  0
   27.4946  -20.7721   -7.6015 C   0  0  0  0  0  0  0  0  0  0  0  0
   26.5055  -20.2487   -8.6101 C   0  0  2  0  0  0  0  0  0  0  0  0
   25.1821  -20.4646   -8.0254 N   0  0  0  0  0  0  0  0  0  0  0  0
   26.6150  -20.8732   -9.9293 C   0  0  0  0  0  0  0  0  0  0  0  0
   26.1407  -22.0665  -10.0102 O   0  0  0  0  0  0  0  0  0  0  0  0
   27.1662  -20.3233  -11.0829 N   0  0  0  0  0  0  0  0  0  0  0  0
   27.3114  -21.0954  -12.2882 C   0  0  0  0  0  0  0  0  0  0  0  0
   26.0722  -21.2866  -13.0570 C   0  0  0  0  0  0  0  0  0  0  0  0
   26.1841  -21.9448  -14.1540 O   0  0  0  0  0  0  0  0  0  0  0  0
   24.8133  -20.8302  -12.7086 N   0  0  0  0  0  0  0  0  0  0  0  0
   23.5867  -21.1058  -13.4767 C   0  0  1  0  0  0  0  0  0  0  0  0
   22.4667  -20.7863  -12.4973 C   0  0  0  0  0  0  0  0  0  0  0  0
   21.1048  -21.0346  -13.0775 C   0  0  0  0  0  0  0  0  0  0  0  0
   20.0938  -20.7740  -12.0142 C   0  0  0  0  0  0  0  0  0  0  0  0
   19.8128  -19.5909  -11.7188 O   0  0  0  0  0  0  0  0  0  0  0  0
   23.5305  -20.4064  -14.7342 C   0  0  0  0  0  0  0  0  0  0  0  0
   23.9772  -19.2208  -14.8544 O   0  0  0  0  0  0  0  0  0  0  0  0
   19.4381  -21.7802  -11.3234 O   0  0  0  0  0  0  0  0  0  0  0  0
   22.9931  -20.9867  -15.8628 O   0  0  0  0  0  0  0  0  0  0  0  0
  2  1  1  6
  2  4  1  0
  2  3  1  0
  4  5  1  0
  5  6  1  1
  5  7  1  0
  7  8  2  0
  9  7  1  0
  9 10  1  0
 10 11  1  0
 11 13  1  0
 11 12  2  0
 13 14  1  0
 14 19  1  0
 14 15  1  1
 16 15  1  0
 17 16  1  0
 17 21  1  0
 18 17  2  0
 19 22  1  0
 20 19  2  0
M  END
$$$$
