LGE.pdb
     RDKit          3D

 22 21  0  0  1  0  0  0  0  0999 V2000
   26.6576  -19.8414   -5.1233 C   0  0  0  0  0  0  0  0  0  0  0  0
   27.8277  -19.6868   -6.0761 C   0  0  2  0  0  0  0  0  0  0  0  0
   28.8612  -18.7445   -5.5382 C   0  0  0  0  0  0  0  0  0  0  0  0
   27.3592  -19.3465   -7.4766 C   0  0  0  0  0  0  0  0  0  0  0  0
   26.5439  -20.5244   -7.9431 C   0  0  2  0  0  0  0  0  0  0  0  0
   27.3722  -21.7065   -7.7054 N   0  0  0  0  0  0  0  0  0  0  0  0
   26.1235  -20.4394   -9.3425 C   0  0  0  0  0  0  0  0  0  0  0  0
   25.5347  -19.3435   -9.6707 O   0  0  0  0  0  0  0  0  0  0  0  0
   26.2906  -21.3994  -10.3361 N   0  0  0  0  0  0  0  0  0  0  0  0
   25.7996  -21.1914  -11.6723 C   0  0  0  0  0  0  0  0  0  0  0  0
   24.3446  -21.0031  -11.7777 C   0  0  0  0  0  0  0  0  0  0  0  0
   23.6282  -21.6562  -10.9355 O   0  0  0  0  0  0  0  0  0  0  0  0
   23.6870  -20.1945  -12.6878 N   0  0  0  0  0  0  0  0  0  0  0  0
   22.2223  -20.1190  -12.8268 C   0  0  1  0  0  0  0  0  0  0  0  0
   22.0158  -19.0930  -13.9314 C   0  0  0  0  0  0  0  0  0  0  0  0
   20.5650  -18.8604  -14.2388 C   0  0  0  0  0  0  0  0  0  0  0  0
   20.4800  -17.8770  -15.3552 C   0  0  0  0  0  0  0  0  0  0  0  0
   20.6458  -18.2745  -16.5300 O   0  0  0  0  0  0  0  0  0  0  0  0
   21.6022  -21.4002  -13.0452 C   0  0  0  0  0  0  0  0  0  0  0  0
   22.1577  -22.2924  -13.7628 O   0  0  0  0  0  0  0  0  0  0  0  0
   20.2251  -16.5285  -15.1647 O   0  0  0  0  0  0  0  0  0  0  0  0
   20.3826  -21.7193  -12.4883 O   0  0  0  0  0  0  0  0  0  0  0  0
  2  1  1  1
  2  4  1  0
  2  3  1  0
  4  5  1  0
  5  6  1  6
  5  7  1  0
  7  8  2  0
  9  7  1  0
  9 10  1  0
 10 11  1  0
 11 13  1  0
 11 12  2  0
 13 14  1  0
 14 19  1  0
 14 15  1  6
 16 15  1  0
 17 16  1  0
 17 21  1  0
 18 17  2  0
 19 22  1  0
 20 19  2  0
M  END
$$$$
