LGE.pdb
     RDKit          3D

 22 21  0  0  1  0  0  0  0  0999 V2000
   16.4726  -16.6832  -14.9752 C   0  0  0  0  0  0  0  0  0  0  0  0
   16.6589  -16.0323  -16.3326 C   0  0  2  0  0  0  0  0  0  0  0  0
   16.7221  -17.0485  -17.4319 C   0  0  0  0  0  0  0  0  0  0  0  0
   17.8252  -15.0645  -16.3263 C   0  0  0  0  0  0  0  0  0  0  0  0
   17.4313  -13.9403  -15.4041 C   0  0  2  0  0  0  0  0  0  0  0  0
   16.0274  -13.6522  -15.6976 N   0  0  0  0  0  0  0  0  0  0  0  0
   18.2617  -12.7424  -15.5387 C   0  0  0  0  0  0  0  0  0  0  0  0
   19.5171  -12.9203  -15.3202 O   0  0  0  0  0  0  0  0  0  0  0  0
   17.8452  -11.4570  -15.8721 N   0  0  0  0  0  0  0  0  0  0  0  0
   18.7826  -10.3734  -16.0022 C   0  0  0  0  0  0  0  0  0  0  0  0
   18.1956   -9.0899  -16.4163 C   0  0  0  0  0  0  0  0  0  0  0  0
   17.1793   -9.1599  -17.1983 O   0  0  0  0  0  0  0  0  0  0  0  0
   18.6315   -7.8311  -16.0424 N   0  0  0  0  0  0  0  0  0  0  0  0
   17.9726   -6.5727  -16.4332 C   0  0  1  0  0  0  0  0  0  0  0  0
   16.5923   -6.6750  -15.8007 C   0  0  0  0  0  0  0  0  0  0  0  0
   16.6265   -6.5009  -14.3102 C   0  0  0  0  0  0  0  0  0  0  0  0
   15.2224   -6.3839  -13.8252 C   0  0  0  0  0  0  0  0  0  0  0  0
   14.6050   -7.4206  -13.4936 O   0  0  0  0  0  0  0  0  0  0  0  0
   18.7301   -5.3987  -16.0845 C   0  0  0  0  0  0  0  0  0  0  0  0
   19.8119   -5.4806  -15.4191 O   0  0  0  0  0  0  0  0  0  0  0  0
   14.5511   -5.1765  -13.7193 O   0  0  0  0  0  0  0  0  0  0  0  0
   18.3209   -4.1358  -16.4546 O   0  0  0  0  0  0  0  0  0  0  0  0
  2  1  1  1
  2  4  1  0
  2  3  1  0
  4  5  1  0
  5  6  1  6
  5  7  1  0
  7  8  2  0
  9  7  1  0
  9 10  1  0
 10 11  1  0
 11 13  1  0
 11 12  2  0
 13 14  1  0
 14 19  1  0
 14 15  1  1
 16 15  1  0
 17 16  1  0
 17 21  1  0
 18 17  2  0
 19 22  1  0
 20 19  2  0
M  END
$$$$
