LGE.pdb
     RDKit          3D

 22 21  0  0  1  0  0  0  0  0999 V2000
   44.6021  -15.2791   -9.9197 C   0  0  0  0  0  0  0  0  0  0  0  0
   43.8678  -15.6780   -8.6538 C   0  0  2  0  0  0  0  0  0  0  0  0
   43.3639  -17.0874   -8.7246 C   0  0  0  0  0  0  0  0  0  0  0  0
   42.8013  -14.6645   -8.2905 C   0  0  0  0  0  0  0  0  0  0  0  0
   43.5066  -13.3385   -8.1725 C   0  0  2  0  0  0  0  0  0  0  0  0
   44.5056  -13.5067   -7.1172 N   0  0  0  0  0  0  0  0  0  0  0  0
   42.6142  -12.2136   -7.8888 C   0  0  0  0  0  0  0  0  0  0  0  0
   41.8388  -11.8733   -8.8575 O   0  0  0  0  0  0  0  0  0  0  0  0
   42.5171  -11.4880   -6.7052 N   0  0  0  0  0  0  0  0  0  0  0  0
   41.4765  -10.5152   -6.5033 C   0  0  0  0  0  0  0  0  0  0  0  0
   41.5432   -9.3412   -7.3868 C   0  0  0  0  0  0  0  0  0  0  0  0
   42.7174   -8.9868   -7.7674 O   0  0  0  0  0  0  0  0  0  0  0  0
   40.4697   -8.5958   -7.8412 N   0  0  0  0  0  0  0  0  0  0  0  0
   40.5915   -7.3525   -8.6222 C   0  0  1  0  0  0  0  0  0  0  0  0
   39.5065   -7.4824   -9.6812 C   0  0  0  0  0  0  0  0  0  0  0  0
   39.3874   -6.2559  -10.5384 C   0  0  0  0  0  0  0  0  0  0  0  0
   38.2992   -6.4876  -11.5298 C   0  0  0  0  0  0  0  0  0  0  0  0
   37.7790   -7.6230  -11.6078 O   0  0  0  0  0  0  0  0  0  0  0  0
   40.5316   -6.1620   -7.8143 C   0  0  0  0  0  0  0  0  0  0  0  0
   41.0302   -5.0620   -8.2158 O   0  0  0  0  0  0  0  0  0  0  0  0
   37.8239   -5.5047  -12.3829 O   0  0  0  0  0  0  0  0  0  0  0  0
   39.9326   -6.1578   -6.5731 O   0  0  0  0  0  0  0  0  0  0  0  0
  2  1  1  6
  2  4  1  0
  2  3  1  0
  4  5  1  0
  5  6  1  1
  5  7  1  0
  7  8  2  0
  9  7  1  0
  9 10  1  0
 10 11  1  0
 11 13  1  0
 11 12  2  0
 13 14  1  0
 14 19  1  0
 14 15  1  6
 16 15  1  0
 17 16  1  0
 17 21  1  0
 18 17  2  0
 19 22  1  0
 20 19  2  0
M  END
$$$$
