LGE.pdb
     RDKit          3D

 22 21  0  0  1  0  0  0  0  0999 V2000
   18.1842  -14.0868  -16.2963 C   0  0  0  0  0  0  0  0  0  0  0  0
   19.6069  -13.5820  -16.4443 C   0  0  2  0  0  0  0  0  0  0  0  0
   20.6057  -14.5815  -15.9455 C   0  0  0  0  0  0  0  0  0  0  0  0
   19.7693  -12.2014  -15.8407 C   0  0  0  0  0  0  0  0  0  0  0  0
   18.8359  -11.2983  -16.6043 C   0  0  2  0  0  0  0  0  0  0  0  0
   19.3075  -11.3104  -17.9890 N   0  0  0  0  0  0  0  0  0  0  0  0
   18.7637   -9.9350  -16.0764 C   0  0  0  0  0  0  0  0  0  0  0  0
   18.2911   -9.8349  -14.8840 O   0  0  0  0  0  0  0  0  0  0  0  0
   19.1455   -8.7590  -16.7152 N   0  0  0  0  0  0  0  0  0  0  0  0
   18.9949   -7.4764  -16.0810 C   0  0  0  0  0  0  0  0  0  0  0  0
   20.2175   -6.9413  -15.4627 C   0  0  0  0  0  0  0  0  0  0  0  0
   21.1240   -7.8016  -15.1672 O   0  0  0  0  0  0  0  0  0  0  0  0
   20.4771   -5.6125  -15.1771 N   0  0  0  0  0  0  0  0  0  0  0  0
   21.7676   -5.1056  -14.6790 C   0  0  1  0  0  0  0  0  0  0  0  0
   21.7981   -3.6613  -15.1570 C   0  0  0  0  0  0  0  0  0  0  0  0
   21.7481   -3.5476  -16.6529 C   0  0  0  0  0  0  0  0  0  0  0  0
   21.7342   -2.1002  -17.0072 C   0  0  0  0  0  0  0  0  0  0  0  0
   21.7907   -1.2492  -16.0915 O   0  0  0  0  0  0  0  0  0  0  0  0
   21.9479   -5.2952  -13.2630 C   0  0  0  0  0  0  0  0  0  0  0  0
   20.9547   -5.4536  -12.4831 O   0  0  0  0  0  0  0  0  0  0  0  0
   21.6606   -1.6356  -18.3105 O   0  0  0  0  0  0  0  0  0  0  0  0
   23.2003   -5.3148  -12.6881 O   0  0  0  0  0  0  0  0  0  0  0  0
  2  1  1  1
  2  4  1  0
  2  3  1  0
  4  5  1  0
  5  6  1  6
  5  7  1  0
  7  8  2  0
  9  7  1  0
  9 10  1  0
 10 11  1  0
 11 13  1  0
 11 12  2  0
 13 14  1  0
 14 19  1  0
 14 15  1  1
 16 15  1  0
 17 16  1  0
 17 21  1  0
 18 17  2  0
 19 22  1  0
 20 19  2  0
M  END
$$$$
