LGE.pdb
     RDKit          3D

 22 21  0  0  1  0  0  0  0  0999 V2000
   25.3095  -11.7184  -16.7234 C   0  0  0  0  0  0  0  0  0  0  0  0
   25.9997  -10.3749  -16.5838 C   0  0  2  0  0  0  0  0  0  0  0  0
   26.7608  -10.2724  -15.2971 C   0  0  0  0  0  0  0  0  0  0  0  0
   25.0339   -9.2303  -16.8162 C   0  0  0  0  0  0  0  0  0  0  0  0
   24.4831   -9.4229  -18.2052 C   0  0  2  0  0  0  0  0  0  0  0  0
   25.5969   -9.1680  -19.1187 N   0  0  0  0  0  0  0  0  0  0  0  0
   23.3343   -8.5696  -18.5126 C   0  0  0  0  0  0  0  0  0  0  0  0
   22.2606   -8.8417  -17.8580 O   0  0  0  0  0  0  0  0  0  0  0  0
   23.2818   -7.5154  -19.4197 N   0  0  0  0  0  0  0  0  0  0  0  0
   22.0780   -6.7525  -19.6164 C   0  0  0  0  0  0  0  0  0  0  0  0
   21.7878   -5.7667  -18.5641 C   0  0  0  0  0  0  0  0  0  0  0  0
   20.8921   -4.8899  -18.8431 O   0  0  0  0  0  0  0  0  0  0  0  0
   22.3825   -5.7013  -17.3164 N   0  0  0  0  0  0  0  0  0  0  0  0
   22.0191   -4.7279  -16.2720 C   0  0  1  0  0  0  0  0  0  0  0  0
   20.5823   -5.0890  -15.9245 C   0  0  0  0  0  0  0  0  0  0  0  0
   20.4919   -6.2586  -14.9880 C   0  0  0  0  0  0  0  0  0  0  0  0
   19.0762   -6.3851  -14.5402 C   0  0  0  0  0  0  0  0  0  0  0  0
   18.3538   -7.2707  -15.0499 O   0  0  0  0  0  0  0  0  0  0  0  0
   22.9395   -4.7074  -15.1647 C   0  0  0  0  0  0  0  0  0  0  0  0
   22.9174   -3.7731  -14.3008 O   0  0  0  0  0  0  0  0  0  0  0  0
   18.5052   -5.5668  -13.5790 O   0  0  0  0  0  0  0  0  0  0  0  0
   23.8835   -5.6959  -14.9888 O   0  0  0  0  0  0  0  0  0  0  0  0
  2  1  1  1
  2  4  1  0
  2  3  1  0
  4  5  1  0
  5  6  1  6
  5  7  1  0
  7  8  2  0
  9  7  1  0
  9 10  1  0
 10 11  1  0
 11 13  1  0
 11 12  2  0
 13 14  1  0
 14 19  1  0
 14 15  1  1
 16 15  1  0
 17 16  1  0
 17 21  1  0
 18 17  2  0
 19 22  1  0
 20 19  2  0
M  END
$$$$
