LGE.pdb
     RDKit          3D

 22 21  0  0  1  0  0  0  0  0999 V2000
   17.3709  -12.6687  -18.5828 C   0  0  0  0  0  0  0  0  0  0  0  0
   17.0097  -11.1955  -18.5995 C   0  0  2  0  0  0  0  0  0  0  0  0
   15.9254  -10.9006  -19.5907 C   0  0  0  0  0  0  0  0  0  0  0  0
   18.2405  -10.3263  -18.7624 C   0  0  0  0  0  0  0  0  0  0  0  0
   19.1256  -10.6283  -17.5813 C   0  0  2  0  0  0  0  0  0  0  0  0
   18.2744  -10.5031  -16.3982 N   0  0  0  0  0  0  0  0  0  0  0  0
   20.3039   -9.7653  -17.4854 C   0  0  0  0  0  0  0  0  0  0  0  0
   21.1344   -9.8635  -18.4631 O   0  0  0  0  0  0  0  0  0  0  0  0
   20.6143   -8.8669  -16.4688 N   0  0  0  0  0  0  0  0  0  0  0  0
   21.7166   -7.9499  -16.5870 C   0  0  0  0  0  0  0  0  0  0  0  0
   21.3477   -6.5817  -16.9809 C   0  0  0  0  0  0  0  0  0  0  0  0
   21.0059   -6.4200  -18.2081 O   0  0  0  0  0  0  0  0  0  0  0  0
   21.3329   -5.4685  -16.1592 N   0  0  0  0  0  0  0  0  0  0  0  0
   20.8244   -4.1453  -16.5604 C   0  0  1  0  0  0  0  0  0  0  0  0
   19.6540   -3.9061  -15.6178 C   0  0  0  0  0  0  0  0  0  0  0  0
   19.0092   -2.5668  -15.8270 C   0  0  0  0  0  0  0  0  0  0  0  0
   17.8964   -2.4301  -14.8454 C   0  0  0  0  0  0  0  0  0  0  0  0
   17.6499   -3.3801  -14.0690 O   0  0  0  0  0  0  0  0  0  0  0  0
   21.8370   -3.1215  -16.5655 C   0  0  0  0  0  0  0  0  0  0  0  0
   21.6099   -1.9662  -17.0487 O   0  0  0  0  0  0  0  0  0  0  0  0
   17.1071   -1.2961  -14.7417 O   0  0  0  0  0  0  0  0  0  0  0  0
   23.0949   -3.3437  -16.0481 O   0  0  0  0  0  0  0  0  0  0  0  0
  2  1  1  6
  2  4  1  0
  2  3  1  0
  4  5  1  0
  5  6  1  1
  5  7  1  0
  7  8  2  0
  9  7  1  0
  9 10  1  0
 10 11  1  0
 11 13  1  0
 11 12  2  0
 13 14  1  0
 14 19  1  0
 14 15  1  1
 16 15  1  0
 17 16  1  0
 17 21  1  0
 18 17  2  0
 19 22  1  0
 20 19  2  0
M  END
$$$$
