LED.pdb
     RDKit          3D

 26 25  0  0  1  0  0  0  0  0999 V2000
   19.5947  -14.9234  -15.5424 C   0  0  0  0  0  0  0  0  0  0  0  0
   19.5945  -13.7296  -16.4912 C   0  0  1  0  0  0  0  0  0  0  0  0
   18.3340  -13.8906  -17.3532 C   0  0  0  0  0  0  0  0  0  0  0  0
   19.4471  -12.4356  -15.7757 C   0  0  0  0  0  0  0  0  0  0  0  0
   19.3874  -11.2004  -16.6193 C   0  0  2  0  0  0  0  0  0  0  0  0
   20.7018  -11.0709  -17.2881 N   0  0  0  0  0  0  0  0  0  0  0  0
   19.1845   -9.9415  -15.8379 C   0  0  0  0  0  0  0  0  0  0  0  0
   18.1769   -9.9018  -15.0973 O   0  0  0  0  0  0  0  0  0  0  0  0
   20.0648   -8.8448  -15.9113 N   0  0  0  0  0  0  0  0  0  0  0  0
   19.9406   -7.5670  -15.2730 C   0  0  1  0  0  0  0  0  0  0  0  0
   21.2395   -6.8829  -15.0475 C   0  0  0  0  0  0  0  0  0  0  0  0
   20.9902   -5.6148  -14.2151 C   0  0  0  0  0  0  0  0  0  0  0  0
   22.3050   -4.9168  -14.0352 C   0  0  0  0  0  0  0  0  0  0  0  0
   22.8289   -4.9547  -12.8785 O   0  0  0  0  0  0  0  0  0  0  0  0
   18.8013   -6.7318  -15.6682 C   0  0  0  0  0  0  0  0  0  0  0  0
   18.5904   -6.3696  -16.8503 O   0  0  0  0  0  0  0  0  0  0  0  0
   22.9462   -4.2557  -15.0491 O   0  0  0  0  0  0  0  0  0  0  0  0
   17.8271   -6.2609  -14.7185 N   0  0  0  0  0  0  0  0  0  0  0  0
   16.7044   -5.4387  -15.1336 C   0  0  1  0  0  0  0  0  0  0  0  0
   15.4016   -5.8112  -14.5253 C   0  0  0  0  0  0  0  0  0  0  0  0
   14.2699   -4.9810  -14.9715 C   0  0  0  0  0  0  0  0  0  0  0  0
   14.2804   -4.5072  -16.1339 O   0  0  0  0  0  0  0  0  0  0  0  0
   17.0110   -4.0114  -14.7614 C   0  0  0  0  0  0  0  0  0  0  0  0
   16.2942   -3.1296  -15.3211 O   0  0  0  0  0  0  0  0  0  0  0  0
   13.1745   -4.6851  -14.1772 O   0  0  0  0  0  0  0  0  0  0  0  0
   17.9828   -3.6293  -13.8890 O   0  0  0  0  0  0  0  0  0  0  0  0
  2  1  1  1
  2  3  1  0
  4  2  1  0
  5  4  1  0
  5  6  1  1
  7  9  1  0
  7  5  1  0
  8  7  2  0
 10  9  1  0
 11 12  1  0
 10 11  1  6
 12 13  1  0
 13 14  2  0
 13 17  1  0
 15 16  2  0
 15 10  1  0
 18 15  1  0
 19 20  1  1
 19 18  1  0
 21 20  1  0
 21 25  1  0
 22 21  2  0
 23 19  1  0
 24 23  2  0
 26 23  1  0
M  END
$$$$
