LED.pdb
     RDKit          3D

 26 25  0  0  1  0  0  0  0  0999 V2000
   28.1201  -17.6647  -17.9887 C   0  0  0  0  0  0  0  0  0  0  0  0
   28.4558  -18.9008  -17.1613 C   0  0  1  0  0  0  0  0  0  0  0  0
   29.3851  -18.4065  -16.0433 C   0  0  0  0  0  0  0  0  0  0  0  0
   27.2621  -19.4742  -16.4872 C   0  0  0  0  0  0  0  0  0  0  0  0
   27.5013  -20.6071  -15.5385 C   0  0  2  0  0  0  0  0  0  0  0  0
   27.9906  -21.7486  -16.3443 N   0  0  0  0  0  0  0  0  0  0  0  0
   26.2685  -21.0817  -14.8374 C   0  0  0  0  0  0  0  0  0  0  0  0
   25.5018  -21.8188  -15.4962 O   0  0  0  0  0  0  0  0  0  0  0  0
   25.9628  -20.7345  -13.5073 N   0  0  0  0  0  0  0  0  0  0  0  0
   24.7001  -20.8343  -12.8353 C   0  0  1  0  0  0  0  0  0  0  0  0
   24.7958  -20.6949  -11.3597 C   0  0  0  0  0  0  0  0  0  0  0  0
   23.4110  -20.9635  -10.7489 C   0  0  0  0  0  0  0  0  0  0  0  0
   23.5249  -20.8030   -9.2624 C   0  0  0  0  0  0  0  0  0  0  0  0
   24.6941  -20.6902   -8.7785 O   0  0  0  0  0  0  0  0  0  0  0  0
   23.5432  -20.2188  -13.4944 C   0  0  0  0  0  0  0  0  0  0  0  0
   23.5195  -19.0214  -13.8672 O   0  0  0  0  0  0  0  0  0  0  0  0
   22.4394  -20.7740   -8.4275 O   0  0  0  0  0  0  0  0  0  0  0  0
   22.3344  -20.9514  -13.7679 N   0  0  0  0  0  0  0  0  0  0  0  0
   21.2404  -20.3522  -14.5114 C   0  0  1  0  0  0  0  0  0  0  0  0
   21.1156  -20.8158  -15.9170 C   0  0  0  0  0  0  0  0  0  0  0  0
   21.1820  -19.7348  -16.9153 C   0  0  0  0  0  0  0  0  0  0  0  0
   21.3788  -18.5570  -16.5285 O   0  0  0  0  0  0  0  0  0  0  0  0
   19.9574  -20.6733  -13.7902 C   0  0  0  0  0  0  0  0  0  0  0  0
   19.9189  -21.7973  -13.2074 O   0  0  0  0  0  0  0  0  0  0  0  0
   21.0399  -19.9383  -18.2778 O   0  0  0  0  0  0  0  0  0  0  0  0
   18.8736  -19.8524  -13.7332 O   0  0  0  0  0  0  0  0  0  0  0  0
  2  1  1  6
  2  3  1  0
  4  2  1  0
  5  4  1  0
  5  6  1  6
  7  9  1  0
  7  5  1  0
  8  7  2  0
 10  9  1  0
 11 12  1  0
 10 11  1  1
 12 13  1  0
 13 14  2  0
 13 17  1  0
 15 16  2  0
 15 10  1  0
 18 15  1  0
 19 20  1  6
 19 18  1  0
 21 20  1  0
 21 25  1  0
 22 21  2  0
 23 19  1  0
 24 23  2  0
 26 23  1  0
M  END
$$$$
