LED.pdb
     RDKit          3D

 26 25  0  0  1  0  0  0  0  0999 V2000
   29.4223  -12.4245  -16.8200 C   0  0  0  0  0  0  0  0  0  0  0  0
   28.0230  -13.0304  -16.8101 C   0  0  1  0  0  0  0  0  0  0  0  0
   27.8629  -13.6710  -15.4238 C   0  0  0  0  0  0  0  0  0  0  0  0
   26.9574  -12.0004  -16.9183 C   0  0  0  0  0  0  0  0  0  0  0  0
   25.5424  -12.4809  -16.8316 C   0  0  2  0  0  0  0  0  0  0  0  0
   25.3592  -13.4797  -17.9089 N   0  0  0  0  0  0  0  0  0  0  0  0
   24.5233  -11.4121  -17.0679 C   0  0  0  0  0  0  0  0  0  0  0  0
   24.7147  -10.6684  -18.0556 O   0  0  0  0  0  0  0  0  0  0  0  0
   23.3986  -11.2305  -16.2402 N   0  0  0  0  0  0  0  0  0  0  0  0
   22.3468  -10.2656  -16.3767 C   0  0  1  0  0  0  0  0  0  0  0  0
   21.0122  -10.8678  -16.6262 C   0  0  0  0  0  0  0  0  0  0  0  0
   20.0223   -9.7443  -16.9737 C   0  0  0  0  0  0  0  0  0  0  0  0
   18.6806  -10.3703  -17.2107 C   0  0  0  0  0  0  0  0  0  0  0  0
   17.7402   -9.6033  -17.5865 O   0  0  0  0  0  0  0  0  0  0  0  0
   22.4005   -9.0917  -15.4990 C   0  0  0  0  0  0  0  0  0  0  0  0
   22.6385   -9.1614  -14.2694 O   0  0  0  0  0  0  0  0  0  0  0  0
   18.4383  -11.7077  -17.0408 O   0  0  0  0  0  0  0  0  0  0  0  0
   22.1834   -7.7551  -15.9883 N   0  0  0  0  0  0  0  0  0  0  0  0
   22.1694   -6.6151  -15.0890 C   0  0  1  0  0  0  0  0  0  0  0  0
   22.3397   -5.2970  -15.7523 C   0  0  0  0  0  0  0  0  0  0  0  0
   22.3939   -4.1573  -14.8210 C   0  0  0  0  0  0  0  0  0  0  0  0
   22.3489   -4.3749  -13.5855 O   0  0  0  0  0  0  0  0  0  0  0  0
   20.8502   -6.6131  -14.3615 C   0  0  0  0  0  0  0  0  0  0  0  0
   20.7506   -5.7915  -13.4026 O   0  0  0  0  0  0  0  0  0  0  0  0
   22.4942   -2.8373  -15.2280 O   0  0  0  0  0  0  0  0  0  0  0  0
   19.7962   -7.4185  -14.6651 O   0  0  0  0  0  0  0  0  0  0  0  0
  2  1  1  1
  2  3  1  0
  4  2  1  0
  5  4  1  0
  5  6  1  6
  7  9  1  0
  7  5  1  0
  8  7  2  0
 10  9  1  0
 11 12  1  0
 10 11  1  1
 12 13  1  0
 13 14  2  0
 13 17  1  0
 15 16  2  0
 15 10  1  0
 18 15  1  0
 19 20  1  6
 19 18  1  0
 21 20  1  0
 21 25  1  0
 22 21  2  0
 23 19  1  0
 24 23  2  0
 26 23  1  0
M  END
$$$$
