LED.pdb
     RDKit          3D

 26 25  0  0  1  0  0  0  0  0999 V2000
   13.3551  -10.0438  -16.2678 C   0  0  0  0  0  0  0  0  0  0  0  0
   14.4929  -11.0589  -16.2781 C   0  0  1  0  0  0  0  0  0  0  0  0
   14.7729  -11.3467  -17.7602 C   0  0  0  0  0  0  0  0  0  0  0  0
   15.7525  -10.5058  -15.7162 C   0  0  0  0  0  0  0  0  0  0  0  0
   16.9407  -11.4160  -15.6978 C   0  0  2  0  0  0  0  0  0  0  0  0
   16.7347  -12.3718  -14.5861 N   0  0  0  0  0  0  0  0  0  0  0  0
   18.2347  -10.7187  -15.4219 C   0  0  0  0  0  0  0  0  0  0  0  0
   18.3188  -10.1115  -14.3312 O   0  0  0  0  0  0  0  0  0  0  0  0
   19.3172  -10.7295  -16.3226 N   0  0  0  0  0  0  0  0  0  0  0  0
   20.5806  -10.0640  -16.1945 C   0  0  1  0  0  0  0  0  0  0  0  0
   21.6836  -10.7280  -16.9351 C   0  0  0  0  0  0  0  0  0  0  0  0
   23.0103  -10.0521  -16.5528 C   0  0  0  0  0  0  0  0  0  0  0  0
   24.1156  -10.7725  -17.2654 C   0  0  0  0  0  0  0  0  0  0  0  0
   24.7904  -11.6119  -16.5917 O   0  0  0  0  0  0  0  0  0  0  0  0
   20.5643   -8.5972  -16.1870 C   0  0  0  0  0  0  0  0  0  0  0  0
   20.0915   -7.9091  -17.1230 O   0  0  0  0  0  0  0  0  0  0  0  0
   24.4165  -10.5630  -18.5852 O   0  0  0  0  0  0  0  0  0  0  0  0
   21.0940   -7.8279  -15.0914 N   0  0  0  0  0  0  0  0  0  0  0  0
   21.0438   -6.3767  -15.0942 C   0  0  1  0  0  0  0  0  0  0  0  0
   19.6760   -5.8014  -15.1603 C   0  0  0  0  0  0  0  0  0  0  0  0
   19.6383   -4.3303  -15.0976 C   0  0  0  0  0  0  0  0  0  0  0  0
   20.6504   -3.6774  -15.4514 O   0  0  0  0  0  0  0  0  0  0  0  0
   21.7043   -5.8863  -13.8321 C   0  0  0  0  0  0  0  0  0  0  0  0
   22.1026   -6.7850  -13.0333 O   0  0  0  0  0  0  0  0  0  0  0  0
   18.5378   -3.6081  -14.6668 O   0  0  0  0  0  0  0  0  0  0  0  0
   21.8889   -4.5766  -13.5121 O   0  0  0  0  0  0  0  0  0  0  0  0
  2  1  1  6
  2  3  1  0
  4  2  1  0
  5  4  1  0
  5  6  1  1
  7  9  1  0
  7  5  1  0
  8  7  2  0
 10  9  1  0
 11 12  1  0
 10 11  1  6
 12 13  1  0
 13 14  2  0
 13 17  1  0
 15 16  2  0
 15 10  1  0
 18 15  1  0
 19 20  1  1
 19 18  1  0
 21 20  1  0
 21 25  1  0
 22 21  2  0
 23 19  1  0
 24 23  2  0
 26 23  1  0
M  END
$$$$
