LED.pdb
     RDKit          3D

 26 25  0  0  1  0  0  0  0  0999 V2000
    9.8866  -10.6030   -7.6683 C   0  0  0  0  0  0  0  0  0  0  0  0
   10.5601  -11.2555   -8.8707 C   0  0  1  0  0  0  0  0  0  0  0  0
    9.7095  -10.8554  -10.0849 C   0  0  0  0  0  0  0  0  0  0  0  0
   11.9220  -10.7163   -9.1206 C   0  0  0  0  0  0  0  0  0  0  0  0
   12.6417  -11.2321  -10.3275 C   0  0  2  0  0  0  0  0  0  0  0  0
   12.9893  -12.6445  -10.0516 N   0  0  0  0  0  0  0  0  0  0  0  0
   13.9295  -10.5274  -10.6130 C   0  0  0  0  0  0  0  0  0  0  0  0
   14.8275  -10.6361   -9.7488 O   0  0  0  0  0  0  0  0  0  0  0  0
   14.1476   -9.7761  -11.7840 N   0  0  0  0  0  0  0  0  0  0  0  0
   15.3259   -9.0528  -12.1638 C   0  0  1  0  0  0  0  0  0  0  0  0
   16.0678   -9.6697  -13.2930 C   0  0  0  0  0  0  0  0  0  0  0  0
   16.6507  -11.0125  -12.8241 C   0  0  0  0  0  0  0  0  0  0  0  0
   17.4270  -11.6003  -13.9643 C   0  0  0  0  0  0  0  0  0  0  0  0
   18.6413  -11.2465  -14.0836 O   0  0  0  0  0  0  0  0  0  0  0  0
   15.2492   -7.5883  -12.1308 C   0  0  0  0  0  0  0  0  0  0  0  0
   14.3784   -6.9303  -12.7488 O   0  0  0  0  0  0  0  0  0  0  0  0
   16.8867  -12.4842  -14.8605 O   0  0  0  0  0  0  0  0  0  0  0  0
   16.1771   -6.7866  -11.3766 N   0  0  0  0  0  0  0  0  0  0  0  0
   16.0954   -5.3367  -11.3763 C   0  0  1  0  0  0  0  0  0  0  0  0
   15.6333   -4.7396  -10.0973 C   0  0  0  0  0  0  0  0  0  0  0  0
   16.4482   -5.1145   -8.9291 C   0  0  0  0  0  0  0  0  0  0  0  0
   17.3913   -5.9295   -9.0780 O   0  0  0  0  0  0  0  0  0  0  0  0
   17.4663   -4.7939  -11.6854 C   0  0  0  0  0  0  0  0  0  0  0  0
   17.5359   -3.5419  -11.8652 O   0  0  0  0  0  0  0  0  0  0  0  0
   16.2380   -4.6157   -7.6543 O   0  0  0  0  0  0  0  0  0  0  0  0
   18.5952   -5.5477  -11.7811 O   0  0  0  0  0  0  0  0  0  0  0  0
  2  1  1  1
  2  3  1  0
  4  2  1  0
  5  4  1  0
  5  6  1  1
  7  9  1  0
  7  5  1  0
  8  7  2  0
 10  9  1  0
 11 12  1  0
 10 11  1  6
 12 13  1  0
 13 14  2  0
 13 17  1  0
 15 16  2  0
 15 10  1  0
 18 15  1  0
 19 20  1  1
 19 18  1  0
 21 20  1  0
 21 25  1  0
 22 21  2  0
 23 19  1  0
 24 23  2  0
 26 23  1  0
M  END
$$$$
