LED.pdb
     RDKit          3D

 26 25  0  0  1  0  0  0  0  0999 V2000
   25.5194  -12.3838  -15.5276 C   0  0  0  0  0  0  0  0  0  0  0  0
   24.2341  -12.7184  -16.2769 C   0  0  1  0  0  0  0  0  0  0  0  0
   23.6290  -13.9206  -15.5377 C   0  0  0  0  0  0  0  0  0  0  0  0
   23.2276  -11.6284  -16.1928 C   0  0  0  0  0  0  0  0  0  0  0  0
   21.9273  -11.8539  -16.8992 C   0  0  2  0  0  0  0  0  0  0  0  0
   22.2291  -11.9223  -18.3470 N   0  0  0  0  0  0  0  0  0  0  0  0
   20.9415  -10.7429  -16.7246 C   0  0  0  0  0  0  0  0  0  0  0  0
   21.2077   -9.6659  -17.3028 O   0  0  0  0  0  0  0  0  0  0  0  0
   19.7679  -10.8745  -15.9574 N   0  0  0  0  0  0  0  0  0  0  0  0
   18.7841   -9.8726  -15.6675 C   0  0  1  0  0  0  0  0  0  0  0  0
   17.4239  -10.4211  -15.4326 C   0  0  0  0  0  0  0  0  0  0  0  0
   16.4379   -9.2500  -15.2943 C   0  0  0  0  0  0  0  0  0  0  0  0
   15.0678   -9.8239  -15.0901 C   0  0  0  0  0  0  0  0  0  0  0  0
   14.4412   -9.4723  -14.0423 O   0  0  0  0  0  0  0  0  0  0  0  0
   19.2072   -8.7447  -14.8306 C   0  0  0  0  0  0  0  0  0  0  0  0
   19.6530   -8.8804  -13.6661 O   0  0  0  0  0  0  0  0  0  0  0  0
   14.4813  -10.6929  -15.9717 O   0  0  0  0  0  0  0  0  0  0  0  0
   19.1436   -7.3812  -15.2885 N   0  0  0  0  0  0  0  0  0  0  0  0
   19.6936   -6.2935  -14.4992 C   0  0  1  0  0  0  0  0  0  0  0  0
   21.1681   -6.1407  -14.5921 C   0  0  0  0  0  0  0  0  0  0  0  0
   21.6991   -4.9740  -13.8668 C   0  0  0  0  0  0  0  0  0  0  0  0
   20.8974   -4.1773  -13.3206 O   0  0  0  0  0  0  0  0  0  0  0  0
   19.0536   -5.0116  -14.9647 C   0  0  0  0  0  0  0  0  0  0  0  0
   18.6249   -5.0105  -16.1567 O   0  0  0  0  0  0  0  0  0  0  0  0
   23.0502   -4.6950  -13.7455 O   0  0  0  0  0  0  0  0  0  0  0  0
   18.9167   -3.8922  -14.2031 O   0  0  0  0  0  0  0  0  0  0  0  0
  2  1  1  1
  2  3  1  0
  4  2  1  0
  5  4  1  0
  5  6  1  6
  7  9  1  0
  7  5  1  0
  8  7  2  0
 10  9  1  0
 11 12  1  0
 10 11  1  1
 12 13  1  0
 13 14  2  0
 13 17  1  0
 15 16  2  0
 15 10  1  0
 18 15  1  0
 19 20  1  6
 19 18  1  0
 21 20  1  0
 21 25  1  0
 22 21  2  0
 23 19  1  0
 24 23  2  0
 26 23  1  0
M  END
$$$$
