FNI.pdb
     RDKit          3D

 28 28  0  0  1  0  0  0  0  0999 V2000
    7.0768  -17.8403   18.8322 N   0  0  0  0  0  0  0  0  0  0  0  0
    7.5750  -16.7030   19.5340 C   0  0  1  0  0  0  0  0  0  0  0  0
    6.5752  -15.5845   19.3813 C   0  0  0  0  0  0  0  0  0  0  0  0
    7.1526  -14.3552   19.9609 C   0  0  0  0  0  0  0  0  0  0  0  0
    7.9646  -13.5302   19.2199 C   0  0  0  0  0  0  0  0  0  0  0  0
    8.5173  -12.3803   19.7347 C   0  0  0  0  0  0  0  0  0  0  0  0
    8.2496  -12.0429   21.0358 C   0  0  0  0  0  0  0  0  0  0  0  0
    7.4337  -12.8416   21.8342 C   0  0  0  0  0  0  0  0  0  0  0  0
    6.8965  -13.9991   21.2637 C   0  0  0  0  0  0  0  0  0  0  0  0
    7.8812  -16.9857   20.9741 C   0  0  0  0  0  0  0  0  0  0  0  0
    6.9558  -17.4228   21.6859 O   0  0  0  0  0  0  0  0  0  0  0  0
   10.6816  -20.1593   22.2307 N   0  0  0  0  0  0  0  0  0  0  0  0
   11.1633  -18.8561   21.9956 C   0  0  0  0  0  0  0  0  0  0  0  0
   11.7779  -18.6607   20.8980 O   0  0  0  0  0  0  0  0  0  0  0  0
   11.0100  -17.7114   22.9149 C   0  0  0  0  0  0  0  0  0  0  0  0
    9.6968  -16.9811   22.8043 C   0  0  2  0  0  0  0  0  0  0  0  0
    9.1390  -16.7809   21.5338 N   0  0  0  0  0  0  0  0  0  0  0  0
    9.6750  -15.8490   23.7154 C   0  0  0  0  0  0  0  0  0  0  0  0
   10.4831  -14.8640   23.6120 O   0  0  0  0  0  0  0  0  0  0  0  0
    6.5215  -12.0563   26.9036 C   0  0  0  0  0  0  0  0  0  0  0  0
    7.7504  -12.9104   27.0082 C   0  0  0  0  0  0  0  0  0  0  0  0
    7.6893  -13.9730   25.9475 C   0  0  2  0  0  0  0  0  0  0  0  0
    6.3969  -14.7376   25.9202 C   0  0  0  0  0  0  0  0  0  0  0  0
    8.9156  -14.8479   25.8948 C   0  0  2  0  0  0  0  0  0  0  0  0
    8.7466  -15.7715   24.7782 N   0  0  0  0  0  0  0  0  0  0  0  0
    9.2270  -15.5443   27.1525 C   0  0  0  0  0  0  0  0  0  0  0  0
    9.6605  -14.8739   28.1234 O   0  0  0  0  0  0  0  0  0  0  0  0
    9.0835  -16.9035   27.3696 O   0  0  0  0  0  0  0  0  0  0  0  0
  2  1  1  1
  2  3  1  0
  2 10  1  0
  4  9  2  0
  4  3  1  0
  5  4  1  0
  6  7  1  0
  6  5  2  0
  7  8  2  0
  8  9  1  0
 10 11  2  0
 13 12  1  0
 13 14  2  0
 15 13  1  0
 16 15  1  6
 17 10  1  0
 17 16  1  0
 18 19  2  0
 18 16  1  0
 21 22  1  0
 21 20  1  0
 22 24  1  0
 22 23  1  1
 24 26  1  0
 24 25  1  6
 25 18  1  0
 26 28  1  0
 27 26  2  0
M  END
$$$$
