FNI.pdb
     RDKit          3D

 28 28  0  0  1  0  0  0  0  0999 V2000
    6.6746  -18.0157   20.0318 N   0  0  0  0  0  0  0  0  0  0  0  0
    7.3099  -16.8385   20.5266 C   0  0  1  0  0  0  0  0  0  0  0  0
    6.3172  -15.7056   20.4535 C   0  0  0  0  0  0  0  0  0  0  0  0
    7.0414  -14.4327   20.6420 C   0  0  0  0  0  0  0  0  0  0  0  0
    7.7460  -13.8536   19.6138 C   0  0  0  0  0  0  0  0  0  0  0  0
    8.4310  -12.6697   19.7619 C   0  0  0  0  0  0  0  0  0  0  0  0
    8.4118  -12.0425   20.9803 C   0  0  0  0  0  0  0  0  0  0  0  0
    7.7147  -12.5834   22.0585 C   0  0  0  0  0  0  0  0  0  0  0  0
    7.0348  -13.7878   21.8561 C   0  0  0  0  0  0  0  0  0  0  0  0
    7.8668  -17.0047   21.9085 C   0  0  0  0  0  0  0  0  0  0  0  0
    7.0830  -17.3700   22.8065 O   0  0  0  0  0  0  0  0  0  0  0  0
   11.7437  -18.9938   25.3083 N   0  0  0  0  0  0  0  0  0  0  0  0
   12.0321  -17.8805   24.4939 C   0  0  0  0  0  0  0  0  0  0  0  0
   12.9496  -17.0961   24.8981 O   0  0  0  0  0  0  0  0  0  0  0  0
   11.3592  -17.5585   23.2201 C   0  0  0  0  0  0  0  0  0  0  0  0
    9.9937  -16.9383   23.3638 C   0  0  2  0  0  0  0  0  0  0  0  0
    9.2032  -16.7698   22.2182 N   0  0  0  0  0  0  0  0  0  0  0  0
   10.0456  -15.8227   24.2939 C   0  0  0  0  0  0  0  0  0  0  0  0
   10.7351  -14.7697   24.0712 O   0  0  0  0  0  0  0  0  0  0  0  0
    6.4626  -12.9467   26.3855 C   0  0  0  0  0  0  0  0  0  0  0  0
    7.6960  -13.6276   25.8700 C   0  0  0  0  0  0  0  0  0  0  0  0
    8.4389  -14.2219   27.0330 C   0  0  2  0  0  0  0  0  0  0  0  0
    8.6492  -13.2708   28.1761 C   0  0  0  0  0  0  0  0  0  0  0  0
    9.6795  -14.9804   26.6359 C   0  0  2  0  0  0  0  0  0  0  0  0
    9.3264  -15.8387   25.5104 N   0  0  0  0  0  0  0  0  0  0  0  0
   10.3174  -15.7290   27.7297 C   0  0  0  0  0  0  0  0  0  0  0  0
    9.9252  -16.8986   27.9710 O   0  0  0  0  0  0  0  0  0  0  0  0
   11.3343  -15.2514   28.5377 O   0  0  0  0  0  0  0  0  0  0  0  0
  2  1  1  1
  2  3  1  0
  2 10  1  0
  4  9  2  0
  4  3  1  0
  5  4  1  0
  6  7  1  0
  6  5  2  0
  7  8  2  0
  8  9  1  0
 10 11  2  0
 13 12  1  0
 13 14  2  0
 15 13  1  0
 16 15  1  6
 17 10  1  0
 17 16  1  0
 18 19  2  0
 18 16  1  0
 21 22  1  0
 21 20  1  0
 22 24  1  0
 22 23  1  1
 24 26  1  0
 24 25  1  6
 25 18  1  0
 26 28  1  0
 27 26  2  0
M  END
$$$$
