FNI.pdb
     RDKit          3D

 28 28  0  0  1  0  0  0  0  0999 V2000
    6.3050  -15.7188   23.4336 N   0  0  0  0  0  0  0  0  0  0  0  0
    6.4539  -16.7396   22.4487 C   0  0  1  0  0  0  0  0  0  0  0  0
    6.1192  -16.1444   21.1041 C   0  0  0  0  0  0  0  0  0  0  0  0
    6.8707  -14.8829   20.9480 C   0  0  0  0  0  0  0  0  0  0  0  0
    6.7016  -14.0838   19.8426 C   0  0  0  0  0  0  0  0  0  0  0  0
    7.3897  -12.9049   19.6706 C   0  0  0  0  0  0  0  0  0  0  0  0
    8.2782  -12.5107   20.6367 C   0  0  0  0  0  0  0  0  0  0  0  0
    8.4905  -13.2809   21.7781 C   0  0  0  0  0  0  0  0  0  0  0  0
    7.7666  -14.4697   21.9053 C   0  0  0  0  0  0  0  0  0  0  0  0
    7.8125  -17.3734   22.4563 C   0  0  0  0  0  0  0  0  0  0  0  0
    7.9338  -18.4850   21.9051 O   0  0  0  0  0  0  0  0  0  0  0  0
   11.6359  -17.7798   20.8962 N   0  0  0  0  0  0  0  0  0  0  0  0
   11.7201  -17.2616   22.2040 C   0  0  0  0  0  0  0  0  0  0  0  0
   12.3504  -16.1650   22.3473 O   0  0  0  0  0  0  0  0  0  0  0  0
   11.1378  -17.8865   23.4079 C   0  0  0  0  0  0  0  0  0  0  0  0
    9.9091  -17.2010   23.9465 C   0  0  2  0  0  0  0  0  0  0  0  0
    8.9222  -16.7754   23.0461 N   0  0  0  0  0  0  0  0  0  0  0  0
   10.2757  -16.2733   25.0035 C   0  0  0  0  0  0  0  0  0  0  0  0
   11.0577  -15.2809   24.8103 O   0  0  0  0  0  0  0  0  0  0  0  0
    7.1889  -13.2685   26.9098 C   0  0  0  0  0  0  0  0  0  0  0  0
    8.4088  -14.0340   26.4900 C   0  0  0  0  0  0  0  0  0  0  0  0
    9.0578  -14.6139   27.7148 C   0  0  2  0  0  0  0  0  0  0  0  0
    9.3653  -13.6028   28.7820 C   0  0  0  0  0  0  0  0  0  0  0  0
   10.2032  -15.5452   27.4104 C   0  0  2  0  0  0  0  0  0  0  0  0
    9.7807  -16.4168   26.3194 N   0  0  0  0  0  0  0  0  0  0  0  0
   10.7023  -16.3029   28.5682 C   0  0  0  0  0  0  0  0  0  0  0  0
   10.2209  -17.4408   28.7992 O   0  0  0  0  0  0  0  0  0  0  0  0
   11.6768  -15.8663   29.4485 O   0  0  0  0  0  0  0  0  0  0  0  0
  2  1  1  1
  2  3  1  0
  2 10  1  0
  4  9  2  0
  4  3  1  0
  5  4  1  0
  6  7  1  0
  6  5  2  0
  7  8  2  0
  8  9  1  0
 10 11  2  0
 13 12  1  0
 13 14  2  0
 15 13  1  0
 16 15  1  6
 17 10  1  0
 17 16  1  0
 18 19  2  0
 18 16  1  0
 21 22  1  0
 21 20  1  0
 22 24  1  0
 22 23  1  1
 24 26  1  0
 24 25  1  6
 25 18  1  0
 26 28  1  0
 27 26  2  0
M  END
$$$$
