FNI.pdb
     RDKit          3D

 28 28  0  0  1  0  0  0  0  0999 V2000
    6.6892  -17.2172   21.2267 N   0  0  0  0  0  0  0  0  0  0  0  0
    7.2914  -16.2398   22.0731 C   0  0  1  0  0  0  0  0  0  0  0  0
    6.2049  -15.6133   22.9105 C   0  0  0  0  0  0  0  0  0  0  0  0
    6.6984  -14.3233   23.4327 C   0  0  0  0  0  0  0  0  0  0  0  0
    7.4203  -13.4623   22.6411 C   0  0  0  0  0  0  0  0  0  0  0  0
    7.8936  -12.2555   23.1020 C   0  0  0  0  0  0  0  0  0  0  0  0
    7.6372  -11.8965   24.3995 C   0  0  0  0  0  0  0  0  0  0  0  0
    6.9110  -12.7297   25.2478 C   0  0  0  0  0  0  0  0  0  0  0  0
    6.4521  -13.9446   24.7311 C   0  0  0  0  0  0  0  0  0  0  0  0
    8.3991  -16.7930   22.9184 C   0  0  0  0  0  0  0  0  0  0  0  0
    8.0845  -17.5421   23.8639 O   0  0  0  0  0  0  0  0  0  0  0  0
   12.4995  -16.6261   20.0692 N   0  0  0  0  0  0  0  0  0  0  0  0
   12.2671  -17.2897   21.2905 C   0  0  0  0  0  0  0  0  0  0  0  0
   12.0657  -18.5453   21.2321 O   0  0  0  0  0  0  0  0  0  0  0  0
   12.2410  -16.6467   22.6189 C   0  0  0  0  0  0  0  0  0  0  0  0
   10.9383  -16.7828   23.3635 C   0  0  2  0  0  0  0  0  0  0  0  0
    9.7412  -16.5047   22.6888 N   0  0  0  0  0  0  0  0  0  0  0  0
   11.0718  -16.2484   24.7084 C   0  0  0  0  0  0  0  0  0  0  0  0
   11.5936  -15.1065   24.9489 O   0  0  0  0  0  0  0  0  0  0  0  0
   10.6772  -13.6005   28.7859 C   0  0  0  0  0  0  0  0  0  0  0  0
    9.9463  -14.9046   28.9107 C   0  0  0  0  0  0  0  0  0  0  0  0
    9.7987  -15.5062   27.5418 C   0  0  2  0  0  0  0  0  0  0  0  0
    8.4072  -15.9740   27.2250 C   0  0  0  0  0  0  0  0  0  0  0  0
   10.8706  -16.5102   27.2023 C   0  0  2  0  0  0  0  0  0  0  0  0
   10.6250  -16.9687   25.8393 N   0  0  0  0  0  0  0  0  0  0  0  0
   10.9893  -17.6262   28.1533 C   0  0  0  0  0  0  0  0  0  0  0  0
   11.6172  -17.4417   29.2265 O   0  0  0  0  0  0  0  0  0  0  0  0
   10.4606  -18.8918   27.9696 O   0  0  0  0  0  0  0  0  0  0  0  0
  2  1  1  1
  2  3  1  0
  2 10  1  0
  4  9  2  0
  4  3  1  0
  5  4  1  0
  6  7  1  0
  6  5  2  0
  7  8  2  0
  8  9  1  0
 10 11  2  0
 13 12  1  0
 13 14  2  0
 15 13  1  0
 16 15  1  6
 17 10  1  0
 17 16  1  0
 18 19  2  0
 18 16  1  0
 21 22  1  0
 21 20  1  0
 22 24  1  0
 22 23  1  1
 24 26  1  0
 24 25  1  6
 25 18  1  0
 26 28  1  0
 27 26  2  0
M  END
$$$$
