FNI.pdb
     RDKit          3D

 28 28  0  0  1  0  0  0  0  0999 V2000
    6.5554  -18.1376   20.0651 N   0  0  0  0  0  0  0  0  0  0  0  0
    7.1662  -17.0122   20.6932 C   0  0  1  0  0  0  0  0  0  0  0  0
    6.1760  -15.8749   20.6799 C   0  0  0  0  0  0  0  0  0  0  0  0
    6.9180  -14.6039   20.7995 C   0  0  0  0  0  0  0  0  0  0  0  0
    7.0512  -13.9666   22.0100 C   0  0  0  0  0  0  0  0  0  0  0  0
    7.7352  -12.7811   22.1499 C   0  0  0  0  0  0  0  0  0  0  0  0
    8.3058  -12.2120   21.0415 C   0  0  0  0  0  0  0  0  0  0  0  0
    8.2027  -12.8129   19.7887 C   0  0  0  0  0  0  0  0  0  0  0  0
    7.4976  -14.0165   19.7000 C   0  0  0  0  0  0  0  0  0  0  0  0
    7.6612  -17.3055   22.0776 C   0  0  0  0  0  0  0  0  0  0  0  0
    6.8486  -17.7872   22.8910 O   0  0  0  0  0  0  0  0  0  0  0  0
   12.1026  -17.6645   21.4196 N   0  0  0  0  0  0  0  0  0  0  0  0
   12.0262  -17.5338   22.8207 C   0  0  0  0  0  0  0  0  0  0  0  0
   12.9769  -16.9087   23.3915 O   0  0  0  0  0  0  0  0  0  0  0  0
   10.9381  -18.0600   23.6681 C   0  0  0  0  0  0  0  0  0  0  0  0
    9.6822  -17.2278   23.6762 C   0  0  2  0  0  0  0  0  0  0  0  0
    8.9717  -17.0633   22.4788 N   0  0  0  0  0  0  0  0  0  0  0  0
    9.8729  -16.0411   24.4933 C   0  0  0  0  0  0  0  0  0  0  0  0
   10.6293  -15.0734   24.1391 O   0  0  0  0  0  0  0  0  0  0  0  0
    6.6384  -12.7249   26.2767 C   0  0  0  0  0  0  0  0  0  0  0  0
    7.8052  -13.5596   25.8382 C   0  0  0  0  0  0  0  0  0  0  0  0
    8.5638  -14.0037   27.0569 C   0  0  2  0  0  0  0  0  0  0  0  0
    8.9417  -12.8847   27.9847 C   0  0  0  0  0  0  0  0  0  0  0  0
    9.6957  -14.9519   26.7540 C   0  0  2  0  0  0  0  0  0  0  0  0
    9.2234  -15.8874   25.7390 N   0  0  0  0  0  0  0  0  0  0  0  0
   10.2520  -15.6388   27.9299 C   0  0  0  0  0  0  0  0  0  0  0  0
    9.8116  -16.7774   28.2295 O   0  0  0  0  0  0  0  0  0  0  0  0
   11.2396  -15.1333   28.7571 O   0  0  0  0  0  0  0  0  0  0  0  0
  2  1  1  1
  2  3  1  0
  2 10  1  0
  4  9  2  0
  4  3  1  0
  5  4  1  0
  6  7  1  0
  6  5  2  0
  7  8  2  0
  8  9  1  0
 10 11  2  0
 13 12  1  0
 13 14  2  0
 15 13  1  0
 16 15  1  6
 17 10  1  0
 17 16  1  0
 18 19  2  0
 18 16  1  0
 21 22  1  0
 21 20  1  0
 22 24  1  0
 22 23  1  6
 24 26  1  0
 24 25  1  6
 25 18  1  0
 26 28  1  0
 27 26  2  0
M  END
$$$$
