FNI.pdb
     RDKit          3D

 28 28  0  0  1  0  0  0  0  0999 V2000
    6.2333  -17.9802   20.1755 N   0  0  0  0  0  0  0  0  0  0  0  0
    6.9226  -16.8286   20.6582 C   0  0  1  0  0  0  0  0  0  0  0  0
    5.9788  -15.6546   20.5863 C   0  0  0  0  0  0  0  0  0  0  0  0
    6.7295  -14.4267   20.9166 C   0  0  0  0  0  0  0  0  0  0  0  0
    6.7557  -13.9291   22.1975 C   0  0  0  0  0  0  0  0  0  0  0  0
    7.4451  -12.7868   22.5329 C   0  0  0  0  0  0  0  0  0  0  0  0
    8.1323  -12.1176   21.5539 C   0  0  0  0  0  0  0  0  0  0  0  0
    8.1408  -12.5754   20.2380 C   0  0  0  0  0  0  0  0  0  0  0  0
    7.4251  -13.7407   19.9494 C   0  0  0  0  0  0  0  0  0  0  0  0
    7.4832  -17.0108   22.0366 C   0  0  0  0  0  0  0  0  0  0  0  0
    6.6785  -17.2350   22.9619 O   0  0  0  0  0  0  0  0  0  0  0  0
   11.2802  -19.2637   21.1578 N   0  0  0  0  0  0  0  0  0  0  0  0
   10.7053  -19.1737   22.4413 C   0  0  0  0  0  0  0  0  0  0  0  0
   10.0122  -20.1679   22.8307 O   0  0  0  0  0  0  0  0  0  0  0  0
   10.8451  -18.0266   23.3598 C   0  0  0  0  0  0  0  0  0  0  0  0
    9.6297  -17.1418   23.4584 C   0  0  2  0  0  0  0  0  0  0  0  0
    8.8452  -16.9399   22.3141 N   0  0  0  0  0  0  0  0  0  0  0  0
    9.9277  -15.9693   24.2638 C   0  0  0  0  0  0  0  0  0  0  0  0
   10.8913  -15.1737   23.9947 O   0  0  0  0  0  0  0  0  0  0  0  0
    7.0513  -12.0629   25.3855 C   0  0  0  0  0  0  0  0  0  0  0  0
    8.1355  -13.0759   25.1642 C   0  0  0  0  0  0  0  0  0  0  0  0
    8.5940  -13.5892   26.4998 C   0  0  2  0  0  0  0  0  0  0  0  0
    8.9464  -12.5097   27.4828 C   0  0  0  0  0  0  0  0  0  0  0  0
    9.6227  -14.6870   26.4065 C   0  0  2  0  0  0  0  0  0  0  0  0
    9.1584  -15.6377   25.4020 N   0  0  0  0  0  0  0  0  0  0  0  0
    9.9420  -15.3389   27.6859 C   0  0  0  0  0  0  0  0  0  0  0  0
    9.3218  -16.3853   28.0027 O   0  0  0  0  0  0  0  0  0  0  0  0
   10.8856  -14.8941   28.5953 O   0  0  0  0  0  0  0  0  0  0  0  0
  2  1  1  1
  2  3  1  0
  2 10  1  0
  4  9  2  0
  4  3  1  0
  5  4  1  0
  6  7  1  0
  6  5  2  0
  7  8  2  0
  8  9  1  0
 10 11  2  0
 13 12  1  0
 13 14  2  0
 15 13  1  0
 16 15  1  6
 17 10  1  0
 17 16  1  0
 18 19  2  0
 18 16  1  0
 21 22  1  0
 21 20  1  0
 22 24  1  0
 22 23  1  1
 24 26  1  0
 24 25  1  6
 25 18  1  0
 26 28  1  0
 27 26  2  0
M  END
$$$$
