FNI.pdb
     RDKit          3D

 28 28  0  0  1  0  0  0  0  0999 V2000
    5.9727  -18.4948   23.4592 N   0  0  0  0  0  0  0  0  0  0  0  0
    6.7375  -17.3546   23.8455 C   0  0  1  0  0  0  0  0  0  0  0  0
    5.9732  -16.6206   24.9184 C   0  0  0  0  0  0  0  0  0  0  0  0
    6.3726  -15.1993   24.8916 C   0  0  0  0  0  0  0  0  0  0  0  0
    5.8641  -14.2980   25.7961 C   0  0  0  0  0  0  0  0  0  0  0  0
    6.2173  -12.9683   25.7929 C   0  0  0  0  0  0  0  0  0  0  0  0
    7.1095  -12.5232   24.8527 C   0  0  0  0  0  0  0  0  0  0  0  0
    7.6569  -13.3916   23.9107 C   0  0  0  0  0  0  0  0  0  0  0  0
    7.2660  -14.7327   23.9566 C   0  0  0  0  0  0  0  0  0  0  0  0
    8.1283  -17.6989   24.2869 C   0  0  0  0  0  0  0  0  0  0  0  0
    8.2514  -18.4943   25.2389 O   0  0  0  0  0  0  0  0  0  0  0  0
   10.4665  -15.1231   21.4730 N   0  0  0  0  0  0  0  0  0  0  0  0
   11.5411  -15.7229   22.1596 C   0  0  0  0  0  0  0  0  0  0  0  0
   12.5755  -15.0047   22.3459 O   0  0  0  0  0  0  0  0  0  0  0  0
   11.5580  -17.1059   22.6751 C   0  0  0  0  0  0  0  0  0  0  0  0
   10.6454  -17.3566   23.8474 C   0  0  2  0  0  0  0  0  0  0  0  0
    9.2655  -17.1713   23.6823 N   0  0  0  0  0  0  0  0  0  0  0  0
   11.2367  -16.8268   25.0647 C   0  0  0  0  0  0  0  0  0  0  0  0
   12.5002  -16.7412   25.2379 O   0  0  0  0  0  0  0  0  0  0  0  0
    9.3590  -12.5993   27.4323 C   0  0  0  0  0  0  0  0  0  0  0  0
   10.3218  -13.6505   26.9648 C   0  0  0  0  0  0  0  0  0  0  0  0
   10.2891  -14.7979   27.9343 C   0  0  2  0  0  0  0  0  0  0  0  0
   10.6408  -14.4187   29.3444 C   0  0  0  0  0  0  0  0  0  0  0  0
   11.0025  -16.0300   27.4394 C   0  0  2  0  0  0  0  0  0  0  0  0
   10.4384  -16.3692   26.1374 N   0  0  0  0  0  0  0  0  0  0  0  0
   10.9794  -17.1682   28.3709 C   0  0  0  0  0  0  0  0  0  0  0  0
   10.0164  -17.9744   28.3167 O   0  0  0  0  0  0  0  0  0  0  0  0
   11.9441  -17.4389   29.3254 O   0  0  0  0  0  0  0  0  0  0  0  0
  2  1  1  1
  2  3  1  0
  2 10  1  0
  4  9  2  0
  4  3  1  0
  5  4  1  0
  6  7  1  0
  6  5  2  0
  7  8  2  0
  8  9  1  0
 10 11  2  0
 13 12  1  0
 13 14  2  0
 15 13  1  0
 16 15  1  6
 17 10  1  0
 17 16  1  0
 18 19  2  0
 18 16  1  0
 21 22  1  0
 21 20  1  0
 22 24  1  0
 22 23  1  1
 24 26  1  0
 24 25  1  6
 25 18  1  0
 26 28  1  0
 27 26  2  0
M  END
$$$$
