FNI.pdb
     RDKit          3D

 28 28  0  0  1  0  0  0  0  0999 V2000
  193.7345 -638.0127-3056.4790 N   0  0  0  0  0  0  0  0  0  0  0  0
  193.8337 -639.1962-3055.6887 C   0  0  1  0  0  0  0  0  0  0  0  0
  192.8354 -640.1955-3056.2156 C   0  0  0  0  0  0  0  0  0  0  0  0
  192.8387 -640.1291-3057.6921 C   0  0  0  0  0  0  0  0  0  0  0  0
  191.7500 -639.6613-3058.3870 C   0  0  0  0  0  0  0  0  0  0  0  0
  191.7252 -639.5907-3059.7607 C   0  0  0  0  0  0  0  0  0  0  0  0
  192.8276 -640.0043-3060.4639 C   0  0  0  0  0  0  0  0  0  0  0  0
  193.9585 -640.4877-3059.8125 C   0  0  0  0  0  0  0  0  0  0  0  0
  193.9335 -640.5388-3058.4158 C   0  0  0  0  0  0  0  0  0  0  0  0
  195.2212 -639.7621-3055.6440 C   0  0  0  0  0  0  0  0  0  0  0  0
  195.6203 -640.3904-3056.6448 O   0  0  0  0  0  0  0  0  0  0  0  0
  195.6728 -635.7811-3055.3877 N   0  0  0  0  0  0  0  0  0  0  0  0
  195.2918 -636.6501-3054.3464 C   0  0  0  0  0  0  0  0  0  0  0  0
  194.0429 -636.8238-3054.1729 O   0  0  0  0  0  0  0  0  0  0  0  0
  196.2210 -637.3673-3053.4514 C   0  0  0  0  0  0  0  0  0  0  0  0
  196.8754 -638.5811-3054.0579 C   0  0  2  0  0  0  0  0  0  0  0  0
  196.0635 -639.6146-3054.5459 N   0  0  0  0  0  0  0  0  0  0  0  0
  198.0316 -638.9731-3053.2703 C   0  0  0  0  0  0  0  0  0  0  0  0
  199.1258 -638.3107-3053.2725 O   0  0  0  0  0  0  0  0  0  0  0  0
  198.1927 -639.8563-3047.8503 C   0  0  0  0  0  0  0  0  0  0  0  0
  199.0958 -639.3326-3048.9270 C   0  0  0  0  0  0  0  0  0  0  0  0
  198.3303 -639.2979-3050.2200 C   0  0  2  0  0  0  0  0  0  0  0  0
  196.8385 -639.3577-3050.0520 C   0  0  0  0  0  0  0  0  0  0  0  0
  198.8619 -640.2463-3051.2644 C   0  0  2  0  0  0  0  0  0  0  0  0
  198.0118 -640.1199-3052.4441 N   0  0  0  0  0  0  0  0  0  0  0  0
  198.9916 -641.6421-3050.8184 C   0  0  0  0  0  0  0  0  0  0  0  0
  198.0955 -642.1265-3050.0833 O   0  0  0  0  0  0  0  0  0  0  0  0
  200.0357 -642.4907-3051.1433 O   0  0  0  0  0  0  0  0  0  0  0  0
  2  1  1  6
  2  3  1  0
  2 10  1  0
  4  9  2  0
  4  3  1  0
  5  4  1  0
  6  7  1  0
  6  5  2  0
  7  8  2  0
  8  9  1  0
 10 11  2  0
 13 12  1  0
 13 14  2  0
 15 13  1  0
 16 15  1  1
 17 10  1  0
 17 16  1  0
 18 19  2  0
 18 16  1  0
 21 22  1  0
 21 20  1  0
 22 24  1  0
 22 23  1  1
 24 26  1  0
 24 25  1  6
 25 18  1  0
 26 28  1  0
 27 26  2  0
M  END
$$$$
