RND.pdb
     RDKit          3D

 28 27  0  0  1  0  0  0  0  0999 V2000
    7.3240  -14.5527   14.4572 N   0  0  0  0  0  0  0  0  0  0  0  0
    8.0134  -13.9602   15.5465 C   0  0  0  0  0  0  0  0  0  0  0  0
    9.2655  -13.6155   15.4573 N   0  0  0  0  0  0  0  0  0  0  0  0
    7.3912  -13.7027   16.8021 N   0  0  0  0  0  0  0  0  0  0  0  0
    8.1360  -13.1150   17.8798 C   0  0  0  0  0  0  0  0  0  0  0  0
    8.8566  -14.0862   18.7367 C   0  0  0  0  0  0  0  0  0  0  0  0
    8.6095  -14.0121   20.2001 C   0  0  0  0  0  0  0  0  0  0  0  0
    9.3171  -15.0529   21.0217 C   0  0  2  0  0  0  0  0  0  0  0  0
    9.5722  -16.2830   20.3433 N   0  0  0  0  0  0  0  0  0  0  0  0
    8.6743  -15.2424   22.3433 C   0  0  0  0  0  0  0  0  0  0  0  0
    7.7714  -16.1072   22.4348 O   0  0  0  0  0  0  0  0  0  0  0  0
    9.7362  -13.2697   16.3282 N   0  0  0  0  0  0  0  0  0  0  0  0
    6.3649  -13.9471   26.9492 C   0  0  0  0  0  0  0  0  0  0  0  0
    6.0776  -14.8345   25.8713 O   0  0  0  0  0  0  0  0  0  0  0  0
    5.1890  -15.7235   26.0110 C   0  0  0  0  0  0  0  0  0  0  0  0
    6.7822  -14.7647   24.5717 C   0  0  1  0  0  0  0  0  0  0  0  0
    8.2715  -14.6132   24.7455 N   0  0  0  0  0  0  0  0  0  0  0  0
    9.0021  -14.5189   23.5176 C   0  0  0  0  0  0  0  0  0  0  0  0
    8.7575  -15.7927   25.5363 O   0  0  0  0  0  0  0  0  0  0  0  0
    8.3517  -15.9426   26.7110 N   0  0  0  0  0  0  0  0  0  0  0  0
    9.6548  -16.7376   25.0021 C   0  0  1  0  0  0  0  0  0  0  0  0
   10.1426  -17.9142   25.7063 C   0  0  0  0  0  0  0  0  0  0  0  0
   11.6190  -18.0187   25.4689 C   0  0  0  0  0  0  0  0  0  0  0  0
   11.9968  -18.2216   24.0612 O   0  0  0  0  0  0  0  0  0  0  0  0
   11.1036  -18.3446   23.1863 C   0  0  0  0  0  0  0  0  0  0  0  0
    9.8155  -17.8294   27.1476 O   0  0  0  0  0  0  0  0  0  0  0  0
    9.2839  -16.7959   27.5910 O   0  0  0  0  0  0  0  0  0  0  0  0
   13.3058  -18.2813   23.6695 O   0  0  0  0  0  0  0  0  0  0  0  0
  2  1  1  0
  3  2  2  0
  4  2  1  0
  5  4  1  0
  6  5  1  0
  7  6  1  0
  8  7  1  0
  8  9  1  6
 10 17  1  0
 10  8  1  0
 11 10  2  0
 13 12  1  0
 14 13  2  0
 16 15  1  1
 15 13  1  0
 16 17  1  0
 18 16  1  0
 19 18  2  0
 20 18  1  0
 21 20  1  0
 21 25  1  0
 21 22  1  1
 23 22  1  0
 24 23  2  0
 25 28  1  0
 26 25  2  0
 27 23  1  0
M  END
$$$$
