RND.pdb
     RDKit          3D

 28 27  0  0  1  0  0  0  0  0999 V2000
    6.6918  -13.3491   19.6253 N   0  0  0  0  0  0  0  0  0  0  0  0
    8.0513  -13.1618   19.2653 C   0  0  0  0  0  0  0  0  0  0  0  0
    8.5285  -11.9834   18.9855 N   0  0  0  0  0  0  0  0  0  0  0  0
    8.9813  -14.2382   19.1856 N   0  0  0  0  0  0  0  0  0  0  0  0
    8.6033  -15.5622   19.5927 C   0  0  0  0  0  0  0  0  0  0  0  0
    8.4913  -15.7513   21.0585 C   0  0  0  0  0  0  0  0  0  0  0  0
    9.7547  -15.7442   21.8408 C   0  0  0  0  0  0  0  0  0  0  0  0
   10.0485  -17.0124   22.5923 C   0  0  2  0  0  0  0  0  0  0  0  0
    9.5676  -18.2045   21.9711 N   0  0  0  0  0  0  0  0  0  0  0  0
    9.6658  -16.9079   24.0200 C   0  0  0  0  0  0  0  0  0  0  0  0
   10.0346  -15.8890   24.6504 O   0  0  0  0  0  0  0  0  0  0  0  0
    9.5352  -11.9240   18.6979 N   0  0  0  0  0  0  0  0  0  0  0  0
    6.0837  -16.4839   25.0367 C   0  0  0  0  0  0  0  0  0  0  0  0
    6.2144  -17.8315   25.4827 O   0  0  0  0  0  0  0  0  0  0  0  0
    5.4532  -18.7245   25.0112 C   0  0  0  0  0  0  0  0  0  0  0  0
    7.2171  -18.2441   26.4902 C   0  0  2  0  0  0  0  0  0  0  0  0
    8.6043  -17.7803   26.1274 N   0  0  0  0  0  0  0  0  0  0  0  0
    8.9117  -17.8745   24.7320 C   0  0  0  0  0  0  0  0  0  0  0  0
    9.5785  -18.6035   26.9187 O   0  0  0  0  0  0  0  0  0  0  0  0
    9.4860  -18.6166   28.1670 N   0  0  0  0  0  0  0  0  0  0  0  0
   10.5938  -19.3624   26.3051 C   0  0  2  0  0  0  0  0  0  0  0  0
   11.6221  -20.1076   27.0160 C   0  0  0  0  0  0  0  0  0  0  0  0
   12.9588  -19.6252   26.5391 C   0  0  0  0  0  0  0  0  0  0  0  0
   13.0991  -19.5679   25.0753 O   0  0  0  0  0  0  0  0  0  0  0  0
   12.1078  -19.8113   24.3429 C   0  0  0  0  0  0  0  0  0  0  0  0
   11.4621  -19.9468   28.4789 O   0  0  0  0  0  0  0  0  0  0  0  0
   11.2874  -20.9550   29.1862 O   0  0  0  0  0  0  0  0  0  0  0  0
   14.2891  -19.2541   24.4788 O   0  0  0  0  0  0  0  0  0  0  0  0
  2  1  1  0
  3  2  2  0
  4  2  1  0
  5  4  1  0
  6  5  1  0
  7  6  1  0
  8  7  1  0
  8  9  1  6
 10 17  1  0
 10  8  1  0
 11 10  2  0
 13 12  1  0
 14 13  2  0
 16 15  1  6
 15 13  1  0
 16 17  1  0
 18 16  1  0
 19 18  2  0
 20 18  1  0
 21 20  1  0
 21 25  1  0
 21 22  1  6
 23 22  1  0
 24 23  2  0
 25 28  1  0
 26 25  2  0
 27 23  1  0
M  END
$$$$
