RND.pdb
     RDKit          3D

 28 27  0  0  1  0  0  0  0  0999 V2000
    6.0975  -13.5592   19.3594 N   0  0  0  0  0  0  0  0  0  0  0  0
    6.9062  -12.9870   18.3438 C   0  0  0  0  0  0  0  0  0  0  0  0
    6.4180  -12.6665   17.1803 N   0  0  0  0  0  0  0  0  0  0  0  0
    8.2951  -12.7248   18.5227 N   0  0  0  0  0  0  0  0  0  0  0  0
    9.2080  -13.7924   18.8198 C   0  0  0  0  0  0  0  0  0  0  0  0
    9.6500  -13.8542   20.2333 C   0  0  0  0  0  0  0  0  0  0  0  0
   10.6158  -14.9241   20.5948 C   0  0  0  0  0  0  0  0  0  0  0  0
   10.3246  -16.2749   20.0034 C   0  0  2  0  0  0  0  0  0  0  0  0
    9.1281  -16.8933   20.4771 N   0  0  0  0  0  0  0  0  0  0  0  0
   11.5038  -17.1698   20.0668 C   0  0  0  0  0  0  0  0  0  0  0  0
   11.8600  -17.5875   21.1938 O   0  0  0  0  0  0  0  0  0  0  0  0
    7.0824  -12.2846   16.4645 N   0  0  0  0  0  0  0  0  0  0  0  0
   12.4555  -21.4771   17.9674 C   0  0  0  0  0  0  0  0  0  0  0  0
   12.5493  -20.1251   17.5256 O   0  0  0  0  0  0  0  0  0  0  0  0
   11.6149  -19.6247   16.8359 C   0  0  0  0  0  0  0  0  0  0  0  0
   13.7095  -19.2620   17.8410 C   0  0  2  0  0  0  0  0  0  0  0  0
   13.4517  -18.3875   19.0410 N   0  0  0  0  0  0  0  0  0  0  0  0
   12.2642  -17.5928   18.9474 C   0  0  0  0  0  0  0  0  0  0  0  0
   14.6465  -17.4963   19.2171 O   0  0  0  0  0  0  0  0  0  0  0  0
   15.2168  -17.0405   18.2002 N   0  0  0  0  0  0  0  0  0  0  0  0
   15.1486  -17.1547   20.4877 C   0  0  2  0  0  0  0  0  0  0  0  0
   16.0014  -16.0086   20.7660 C   0  0  0  0  0  0  0  0  0  0  0  0
   15.3072  -14.7797   20.2614 C   0  0  0  0  0  0  0  0  0  0  0  0
   15.9235  -14.1783   19.0680 O   0  0  0  0  0  0  0  0  0  0  0  0
   17.0083  -14.6346   18.6283 C   0  0  0  0  0  0  0  0  0  0  0  0
   16.3011  -15.9237   22.2132 O   0  0  0  0  0  0  0  0  0  0  0  0
   15.4678  -16.3493   23.0329 O   0  0  0  0  0  0  0  0  0  0  0  0
   15.3461  -13.1253   18.4138 O   0  0  0  0  0  0  0  0  0  0  0  0
  2  1  1  0
  3  2  2  0
  4  2  1  0
  5  4  1  0
  6  5  1  0
  7  6  1  0
  8  7  1  0
  8  9  1  1
 10 17  1  0
 10  8  1  0
 11 10  2  0
 13 12  1  0
 14 13  2  0
 16 15  1  1
 15 13  1  0
 16 17  1  0
 18 16  1  0
 19 18  2  0
 20 18  1  0
 21 20  1  0
 21 25  1  0
 21 22  1  6
 23 22  1  0
 24 23  2  0
 25 28  1  0
 26 25  2  0
 27 23  1  0
M  END
$$$$
