RND.pdb
     RDKit          3D

 28 27  0  0  1  0  0  0  0  0999 V2000
    7.5728  -12.9444   17.7928 N   0  0  0  0  0  0  0  0  0  0  0  0
    7.9777  -12.8642   19.1502 C   0  0  0  0  0  0  0  0  0  0  0  0
    7.7493  -11.8042   19.8706 N   0  0  0  0  0  0  0  0  0  0  0  0
    8.6557  -13.9266   19.8147 N   0  0  0  0  0  0  0  0  0  0  0  0
    8.6549  -15.2522   19.2631 C   0  0  0  0  0  0  0  0  0  0  0  0
    8.2271  -16.3145   20.2042 C   0  0  0  0  0  0  0  0  0  0  0  0
    8.7262  -16.2232   21.6009 C   0  0  0  0  0  0  0  0  0  0  0  0
    8.9682  -17.5416   22.2809 C   0  0  2  0  0  0  0  0  0  0  0  0
    8.3266  -18.6605   21.6686 N   0  0  0  0  0  0  0  0  0  0  0  0
    8.7253  -17.4615   23.7404 C   0  0  0  0  0  0  0  0  0  0  0  0
    9.3281  -16.5709   24.3846 O   0  0  0  0  0  0  0  0  0  0  0  0
    8.1236  -11.7941   20.8501 N   0  0  0  0  0  0  0  0  0  0  0  0
    6.1138  -21.3380   26.0647 C   0  0  0  0  0  0  0  0  0  0  0  0
    5.9508  -19.9977   25.6076 O   0  0  0  0  0  0  0  0  0  0  0  0
    5.4030  -19.7791   24.4889 C   0  0  0  0  0  0  0  0  0  0  0  0
    6.4001  -18.8270   26.3938 C   0  0  1  0  0  0  0  0  0  0  0  0
    7.7124  -18.2814   25.8923 N   0  0  0  0  0  0  0  0  0  0  0  0
    7.8604  -18.3170   24.4685 C   0  0  0  0  0  0  0  0  0  0  0  0
    8.8097  -19.0770   26.5369 O   0  0  0  0  0  0  0  0  0  0  0  0
    8.5477  -20.2153   26.9873 N   0  0  0  0  0  0  0  0  0  0  0  0
   10.1249  -18.5872   26.6527 C   0  0  1  0  0  0  0  0  0  0  0  0
   11.3090  -19.4140   26.8335 C   0  0  0  0  0  0  0  0  0  0  0  0
   12.3142  -19.0193   25.7938 C   0  0  0  0  0  0  0  0  0  0  0  0
   13.6291  -19.6632   25.9423 O   0  0  0  0  0  0  0  0  0  0  0  0
   13.6991  -20.9014   26.1434 C   0  0  0  0  0  0  0  0  0  0  0  0
   11.8414  -19.2652   28.2068 O   0  0  0  0  0  0  0  0  0  0  0  0
   12.8497  -19.9121   28.5417 O   0  0  0  0  0  0  0  0  0  0  0  0
   14.7925  -18.9480   25.8674 O   0  0  0  0  0  0  0  0  0  0  0  0
  2  1  1  0
  3  2  2  0
  4  2  1  0
  5  4  1  0
  6  5  1  0
  7  6  1  0
  8  7  1  0
  8  9  1  6
 10 17  1  0
 10  8  1  0
 11 10  2  0
 13 12  1  0
 14 13  2  0
 16 15  1  6
 15 13  1  0
 16 17  1  0
 18 16  1  0
 19 18  2  0
 20 18  1  0
 21 20  1  0
 21 25  1  0
 21 22  1  1
 23 22  1  0
 24 23  2  0
 25 28  1  0
 26 25  2  0
 27 23  1  0
M  END
$$$$
