RND.pdb
     RDKit          3D

 28 27  0  0  1  0  0  0  0  0999 V2000
    9.1388  -15.2500   14.3275 N   0  0  0  0  0  0  0  0  0  0  0  0
    8.5163  -14.0169   14.6514 C   0  0  0  0  0  0  0  0  0  0  0  0
    8.5512  -12.9993   13.8402 N   0  0  0  0  0  0  0  0  0  0  0  0
    7.8159  -13.8066   15.8741 N   0  0  0  0  0  0  0  0  0  0  0  0
    7.5169  -14.9090   16.7440 C   0  0  0  0  0  0  0  0  0  0  0  0
    8.1826  -14.8523   18.0671 C   0  0  0  0  0  0  0  0  0  0  0  0
    9.6503  -15.0828   18.0973 C   0  0  0  0  0  0  0  0  0  0  0  0
   10.1157  -16.1113   19.0897 C   0  0  2  0  0  0  0  0  0  0  0  0
    9.3991  -17.3457   19.0569 N   0  0  0  0  0  0  0  0  0  0  0  0
   10.2343  -15.5460   20.4543 C   0  0  0  0  0  0  0  0  0  0  0  0
   10.9518  -14.5291   20.6048 O   0  0  0  0  0  0  0  0  0  0  0  0
    7.9714  -12.1616   14.0884 N   0  0  0  0  0  0  0  0  0  0  0  0
    6.3518  -14.8609   22.2458 C   0  0  0  0  0  0  0  0  0  0  0  0
    7.4671  -14.4394   23.0272 O   0  0  0  0  0  0  0  0  0  0  0  0
    7.6833  -13.2049   23.1963 C   0  0  0  0  0  0  0  0  0  0  0  0
    8.4022  -15.3947   23.6623 C   0  0  2  0  0  0  0  0  0  0  0  0
    9.7066  -15.4890   22.9134 N   0  0  0  0  0  0  0  0  0  0  0  0
    9.5968  -16.0676   21.6082 C   0  0  0  0  0  0  0  0  0  0  0  0
   10.6520  -16.3001   23.7506 O   0  0  0  0  0  0  0  0  0  0  0  0
   10.8904  -15.9320   24.9231 N   0  0  0  0  0  0  0  0  0  0  0  0
   11.2805  -17.4620   23.2627 C   0  0  1  0  0  0  0  0  0  0  0  0
   12.3229  -18.2008   23.9598 C   0  0  0  0  0  0  0  0  0  0  0  0
   12.5620  -19.4802   23.2162 C   0  0  0  0  0  0  0  0  0  0  0  0
   11.3620  -20.3123   23.0341 O   0  0  0  0  0  0  0  0  0  0  0  0
   10.3787  -20.1670   23.8024 C   0  0  0  0  0  0  0  0  0  0  0  0
   13.5524  -17.3838   24.0709 O   0  0  0  0  0  0  0  0  0  0  0  0
   14.1343  -17.3064   25.1676 O   0  0  0  0  0  0  0  0  0  0  0  0
   11.2816  -21.2509   22.0425 O   0  0  0  0  0  0  0  0  0  0  0  0
  2  1  1  0
  3  2  2  0
  4  2  1  0
  5  4  1  0
  6  5  1  0
  7  6  1  0
  8  7  1  0
  8  9  1  1
 10 17  1  0
 10  8  1  0
 11 10  2  0
 13 12  1  0
 14 13  2  0
 16 15  1  6
 15 13  1  0
 16 17  1  0
 18 16  1  0
 19 18  2  0
 20 18  1  0
 21 20  1  0
 21 25  1  0
 21 22  1  1
 23 22  1  0
 24 23  2  0
 25 28  1  0
 26 25  2  0
 27 23  1  0
M  END
$$$$
