CLG.pdb
     RDKit          3D

 19 18  0  0  1  0  0  0  0  0999 V2000
    7.2029  -15.2871   20.7727 N   0  0  0  0  0  0  0  0  0  0  0  0
    6.7277  -15.7050   22.1183 C   0  0  1  0  0  0  0  0  0  0  0  0
    6.9191  -17.1802   22.2174 C   0  0  0  0  0  0  0  0  0  0  0  0
    6.4079  -17.8007   23.8146 S   0  0  0  0  0  0  0  0  0  0  0  0
    7.6213  -15.0121   23.0794 C   0  0  0  0  0  0  0  0  0  0  0  0
    8.8066  -14.6557   22.7388 O   0  0  0  0  0  0  0  0  0  0  0  0
    7.1765  -11.1789   25.2924 C   0  0  0  0  0  0  0  0  0  0  0  0
    6.5149  -12.3443   26.0237 C   0  0  2  0  0  0  0  0  0  0  0  0
    5.6884  -11.7885   27.1399 C   0  0  0  0  0  0  0  0  0  0  0  0
    7.5833  -13.3004   26.4243 C   0  0  0  0  0  0  0  0  0  0  0  0
    8.2173  -14.0694   25.3024 C   0  0  2  0  0  0  0  0  0  0  0  0
    7.2916  -14.6747   24.4183 N   0  0  0  0  0  0  0  0  0  0  0  0
    9.2077  -14.9837   25.9252 C   0  0  0  0  0  0  0  0  0  0  0  0
    9.6982  -14.6055   27.0217 O   0  0  0  0  0  0  0  0  0  0  0  0
    9.6343  -16.2107   25.4029 N   0  0  0  0  0  0  0  0  0  0  0  0
   10.6189  -17.0595   26.0642 C   0  0  0  0  0  0  0  0  0  0  0  0
   10.8120  -18.3297   25.3656 C   0  0  0  0  0  0  0  0  0  0  0  0
   10.2260  -18.5865   24.2904 O   0  0  0  0  0  0  0  0  0  0  0  0
   11.6610  -19.2817   25.8947 O   0  0  0  0  0  0  0  0  0  0  0  0
  2  1  1  6
  2  3  1  0
  4  3  1  0
  5  6  2  0
  5  2  1  0
  8  7  1  1
  8 10  1  0
  9  8  1  0
 11 10  1  1
 11 12  1  0
 12  5  1  0
 13 15  1  0
 13 11  1  0
 14 13  2  0
 16 15  1  0
 17 16  1  0
 18 17  2  0
 19 17  1  0
M  END
$$$$
