CLG.pdb
     RDKit          3D

 19 18  0  0  1  0  0  0  0  0999 V2000
    5.3780  -18.3460   22.6911 N   0  0  0  0  0  0  0  0  0  0  0  0
    5.8470  -18.1740   24.0917 C   0  0  1  0  0  0  0  0  0  0  0  0
    6.5724  -19.4196   24.4722 C   0  0  0  0  0  0  0  0  0  0  0  0
    7.2508  -19.3038   26.1225 S   0  0  0  0  0  0  0  0  0  0  0  0
    6.7916  -17.0303   24.0484 C   0  0  0  0  0  0  0  0  0  0  0  0
    7.5275  -16.8213   23.0175 O   0  0  0  0  0  0  0  0  0  0  0  0
    6.7689  -12.2760   24.6946 C   0  0  0  0  0  0  0  0  0  0  0  0
    6.6078  -13.1820   25.9127 C   0  0  2  0  0  0  0  0  0  0  0  0
    6.2640  -12.3265   27.0909 C   0  0  0  0  0  0  0  0  0  0  0  0
    7.8462  -13.9972   26.0451 C   0  0  0  0  0  0  0  0  0  0  0  0
    8.0061  -15.0991   25.0389 C   0  0  2  0  0  0  0  0  0  0  0  0
    6.9843  -16.0783   25.0836 N   0  0  0  0  0  0  0  0  0  0  0  0
    9.3936  -15.6068   25.1869 C   0  0  0  0  0  0  0  0  0  0  0  0
   10.3113  -14.7510   25.0798 O   0  0  0  0  0  0  0  0  0  0  0  0
    9.7598  -16.9358   25.4316 N   0  0  0  0  0  0  0  0  0  0  0  0
   11.1463  -17.3871   25.4668 C   0  0  0  0  0  0  0  0  0  0  0  0
   11.5132  -17.9448   26.7679 C   0  0  0  0  0  0  0  0  0  0  0  0
   10.6732  -18.0899   27.6837 O   0  0  0  0  0  0  0  0  0  0  0  0
   12.8187  -18.3263   27.0075 O   0  0  0  0  0  0  0  0  0  0  0  0
  2  1  1  6
  2  3  1  0
  4  3  1  0
  5  6  2  0
  5  2  1  0
  8  7  1  6
  8 10  1  0
  9  8  1  0
 11 10  1  1
 11 12  1  0
 12  5  1  0
 13 15  1  0
 13 11  1  0
 14 13  2  0
 16 15  1  0
 17 16  1  0
 18 17  2  0
 19 17  1  0
M  END
$$$$
