CLG.pdb
     RDKit          3D

 19 18  0  0  1  0  0  0  0  0999 V2000
    8.0161  -14.9412   20.3284 N   0  0  0  0  0  0  0  0  0  0  0  0
    7.1872  -15.4816   21.4384 C   0  0  1  0  0  0  0  0  0  0  0  0
    7.2186  -16.9683   21.3317 C   0  0  0  0  0  0  0  0  0  0  0  0
    6.3828  -17.7413   22.7105 S   0  0  0  0  0  0  0  0  0  0  0  0
    7.8713  -15.0481   22.6819 C   0  0  0  0  0  0  0  0  0  0  0  0
    9.1500  -14.9462   22.7301 O   0  0  0  0  0  0  0  0  0  0  0  0
    7.7481  -11.4731   25.3854 C   0  0  0  0  0  0  0  0  0  0  0  0
    6.6007  -12.4369   25.6774 C   0  0  2  0  0  0  0  0  0  0  0  0
    5.6593  -11.7700   26.6298 C   0  0  0  0  0  0  0  0  0  0  0  0
    7.1888  -13.7225   26.1435 C   0  0  0  0  0  0  0  0  0  0  0  0
    7.9443  -14.5018   25.1072 C   0  0  2  0  0  0  0  0  0  0  0  0
    7.2301  -14.7089   23.9022 N   0  0  0  0  0  0  0  0  0  0  0  0
    8.4419  -15.7276   25.7815 C   0  0  0  0  0  0  0  0  0  0  0  0
    7.6641  -16.2527   26.6213 O   0  0  0  0  0  0  0  0  0  0  0  0
    9.6833  -16.3376   25.5646 N   0  0  0  0  0  0  0  0  0  0  0  0
   10.1011  -17.5586   26.2439 C   0  0  0  0  0  0  0  0  0  0  0  0
   11.4530  -17.9674   25.8646 C   0  0  0  0  0  0  0  0  0  0  0  0
   12.0857  -17.3885   24.9535 O   0  0  0  0  0  0  0  0  0  0  0  0
   12.0613  -19.0195   26.5205 O   0  0  0  0  0  0  0  0  0  0  0  0
  2  1  1  6
  2  3  1  0
  4  3  1  0
  5  6  2  0
  5  2  1  0
  8  7  1  1
  8 10  1  0
  9  8  1  0
 11 10  1  1
 11 12  1  0
 12  5  1  0
 13 15  1  0
 13 11  1  0
 14 13  2  0
 16 15  1  0
 17 16  1  0
 18 17  2  0
 19 17  1  0
M  END
$$$$
