CLG.pdb
     RDKit          3D

 19 18  0  0  1  0  0  0  0  0999 V2000
    6.3573  -17.6080   22.0801 N   0  0  0  0  0  0  0  0  0  0  0  0
    6.2270  -17.5076   23.5579 C   0  0  1  0  0  0  0  0  0  0  0  0
    6.6258  -18.8259   24.1285 C   0  0  0  0  0  0  0  0  0  0  0  0
    6.5490  -18.8162   25.9149 S   0  0  0  0  0  0  0  0  0  0  0  0
    7.2003  -16.4638   23.9647 C   0  0  0  0  0  0  0  0  0  0  0  0
    8.2763  -16.2675   23.2926 O   0  0  0  0  0  0  0  0  0  0  0  0
    6.8130  -11.8797   24.6955 C   0  0  0  0  0  0  0  0  0  0  0  0
    6.3508  -12.7801   25.8384 C   0  0  2  0  0  0  0  0  0  0  0  0
    5.6603  -11.9284   26.8561 C   0  0  0  0  0  0  0  0  0  0  0  0
    7.5317  -13.5429   26.3277 C   0  0  0  0  0  0  0  0  0  0  0  0
    8.0332  -14.6185   25.4092 C   0  0  2  0  0  0  0  0  0  0  0  0
    7.0664  -15.6003   25.0835 N   0  0  0  0  0  0  0  0  0  0  0  0
    9.2945  -15.1272   26.0052 C   0  0  0  0  0  0  0  0  0  0  0  0
   10.1656  -14.2609   26.2819 O   0  0  0  0  0  0  0  0  0  0  0  0
    9.5904  -16.4678   26.2801 N   0  0  0  0  0  0  0  0  0  0  0  0
   10.8293  -16.8957   26.9196 C   0  0  0  0  0  0  0  0  0  0  0  0
   10.8349  -18.3289   27.2105 C   0  0  0  0  0  0  0  0  0  0  0  0
    9.9601  -18.8589   27.9310 O   0  0  0  0  0  0  0  0  0  0  0  0
   11.8264  -19.1324   26.6827 O   0  0  0  0  0  0  0  0  0  0  0  0
  2  1  1  6
  2  3  1  0
  4  3  1  0
  5  6  2  0
  5  2  1  0
  8  7  1  6
  8 10  1  0
  9  8  1  0
 11 10  1  1
 11 12  1  0
 12  5  1  0
 13 15  1  0
 13 11  1  0
 14 13  2  0
 16 15  1  0
 17 16  1  0
 18 17  2  0
 19 17  1  0
M  END
$$$$
