CLG.pdb
     RDKit          3D

 19 18  0  0  1  0  0  0  0  0999 V2000
    8.0779  -12.7385   19.9090 N   0  0  0  0  0  0  0  0  0  0  0  0
    7.3857  -13.7789   20.7150 C   0  0  1  0  0  0  0  0  0  0  0  0
    7.7053  -15.0998   20.1019 C   0  0  0  0  0  0  0  0  0  0  0  0
    6.9954  -16.4459   21.0405 S   0  0  0  0  0  0  0  0  0  0  0  0
    7.9890  -13.6887   22.0678 C   0  0  0  0  0  0  0  0  0  0  0  0
    9.2016  -13.2978   22.2246 O   0  0  0  0  0  0  0  0  0  0  0  0
    7.4550  -11.4434   26.1145 C   0  0  0  0  0  0  0  0  0  0  0  0
    6.4061  -12.5078   25.8021 C   0  0  2  0  0  0  0  0  0  0  0  0
    5.3194  -12.4095   26.8255 C   0  0  0  0  0  0  0  0  0  0  0  0
    7.0981  -13.8230   25.7182 C   0  0  0  0  0  0  0  0  0  0  0  0
    8.0032  -14.0036   24.5349 C   0  0  2  0  0  0  0  0  0  0  0  0
    7.3338  -14.0036   23.2872 N   0  0  0  0  0  0  0  0  0  0  0  0
    8.8365  -15.1990   24.8203 C   0  0  0  0  0  0  0  0  0  0  0  0
    9.3575  -15.2507   25.9657 O   0  0  0  0  0  0  0  0  0  0  0  0
    9.0869  -16.2555   23.9363 N   0  0  0  0  0  0  0  0  0  0  0  0
    9.8391  -17.4473   24.3112 C   0  0  0  0  0  0  0  0  0  0  0  0
   11.2513  -17.3477   23.9447 C   0  0  0  0  0  0  0  0  0  0  0  0
   11.6697  -16.4615   23.1667 O   0  0  0  0  0  0  0  0  0  0  0  0
   12.1602  -18.2490   24.4632 O   0  0  0  0  0  0  0  0  0  0  0  0
  2  1  1  6
  2  3  1  0
  4  3  1  0
  5  6  2  0
  5  2  1  0
  8  7  1  1
  8 10  1  0
  9  8  1  0
 11 10  1  1
 11 12  1  0
 12  5  1  0
 13 15  1  0
 13 11  1  0
 14 13  2  0
 16 15  1  0
 17 16  1  0
 18 17  2  0
 19 17  1  0
M  END
$$$$
