CLG.pdb
     RDKit          3D

 19 18  0  0  1  0  0  0  0  0999 V2000
    8.8084  -15.1249   20.6001 N   0  0  0  0  0  0  0  0  0  0  0  0
    7.9061  -15.6927   21.6367 C   0  0  1  0  0  0  0  0  0  0  0  0
    8.0597  -17.1750   21.5941 C   0  0  0  0  0  0  0  0  0  0  0  0
    6.6425  -17.9583   20.8358 S   0  0  0  0  0  0  0  0  0  0  0  0
    8.4164  -15.1671   22.9273 C   0  0  0  0  0  0  0  0  0  0  0  0
    9.6644  -14.9132   23.0889 O   0  0  0  0  0  0  0  0  0  0  0  0
    7.7355  -11.5207   25.5916 C   0  0  0  0  0  0  0  0  0  0  0  0
    6.6281  -12.5634   25.7213 C   0  0  2  0  0  0  0  0  0  0  0  0
    5.5304  -11.9803   26.5538 C   0  0  0  0  0  0  0  0  0  0  0  0
    7.2377  -13.8177   26.2419 C   0  0  0  0  0  0  0  0  0  0  0  0
    8.1970  -14.5043   25.3144 C   0  0  2  0  0  0  0  0  0  0  0  0
    7.6297  -14.8930   24.0767 N   0  0  0  0  0  0  0  0  0  0  0  0
    8.8387  -15.5892   26.0995 C   0  0  0  0  0  0  0  0  0  0  0  0
    9.3249  -15.2550   27.2121 O   0  0  0  0  0  0  0  0  0  0  0  0
    8.9462  -16.9301   25.7115 N   0  0  0  0  0  0  0  0  0  0  0  0
    9.5256  -17.9624   26.5634 C   0  0  0  0  0  0  0  0  0  0  0  0
   10.9858  -17.9868   26.4869 C   0  0  0  0  0  0  0  0  0  0  0  0
   11.6197  -17.2137   25.7346 O   0  0  0  0  0  0  0  0  0  0  0  0
   11.6987  -18.8819   27.2601 O   0  0  0  0  0  0  0  0  0  0  0  0
  2  1  1  6
  2  3  1  0
  4  3  1  0
  5  6  2  0
  5  2  1  0
  8  7  1  1
  8 10  1  0
  9  8  1  0
 11 10  1  1
 11 12  1  0
 12  5  1  0
 13 15  1  0
 13 11  1  0
 14 13  2  0
 16 15  1  0
 17 16  1  0
 18 17  2  0
 19 17  1  0
M  END
$$$$
