FQW.pdb
     RDKit          3D

 35 37  0  0  1  0  0  0  0  0999 V2000
    6.7657  -18.0627   20.0260 N   0  0  0  0  0  0  0  0  0  0  0  0
    7.3792  -16.8443   20.5424 C   0  0  1  0  0  0  0  0  0  0  0  0
    6.2112  -15.9130   20.8932 C   0  0  0  0  0  0  0  0  0  0  0  0
    6.8150  -14.6458   21.3464 C   0  0  0  0  0  0  0  0  0  0  0  0
    7.1789  -13.6583   20.4646 C   0  0  0  0  0  0  0  0  0  0  0  0
    7.7486  -12.4647   20.9166 C   0  0  0  0  0  0  0  0  0  0  0  0
    7.9559  -12.2564   22.2595 C   0  0  0  0  0  0  0  0  0  0  0  0
    7.5917  -13.2446   23.1453 C   0  0  0  0  0  0  0  0  0  0  0  0
    7.0238  -14.4341   22.6887 C   0  0  0  0  0  0  0  0  0  0  0  0
    8.0634  -17.1771   21.8134 C   0  0  0  0  0  0  0  0  0  0  0  0
    7.4970  -17.9246   22.6707 O   0  0  0  0  0  0  0  0  0  0  0  0
   13.9963  -17.9478   21.2738 N   0  0  0  0  0  0  0  0  0  0  0  0
   13.7491  -18.4843   22.5480 C   0  0  0  0  0  0  0  0  0  0  0  0
   14.6448  -19.1125   23.1420 O   0  0  0  0  0  0  0  0  0  0  0  0
   12.4297  -18.3018   23.1770 C   0  0  0  0  0  0  0  0  0  0  0  0
   11.5722  -17.4548   22.2709 C   0  0  0  0  0  0  0  0  0  0  0  0
   10.2324  -17.2947   22.9598 C   0  0  2  0  0  0  0  0  0  0  0  0
    9.3523  -16.6406   22.0367 N   0  0  0  0  0  0  0  0  0  0  0  0
   10.3187  -16.4942   24.1935 C   0  0  0  0  0  0  0  0  0  0  0  0
   10.7344  -15.3148   24.1068 O   0  0  0  0  0  0  0  0  0  0  0  0
    9.9499  -17.0173   25.4487 N   0  0  0  0  0  0  0  0  0  0  0  0
   10.3013  -16.2826   26.6601 C   0  0  1  0  0  0  0  0  0  0  0  0
    9.0547  -15.9218   27.4202 C   0  0  0  0  0  0  0  0  0  0  0  0
    8.0636  -15.2425   26.5773 C   0  0  0  0  0  0  0  0  0  0  0  0
    7.0490  -15.8554   25.8304 C   0  0  0  0  0  0  0  0  0  0  0  0
    6.3562  -14.9306   25.1561 N   0  0  0  0  0  0  0  0  0  0  0  0
    6.8444  -13.7119   25.4034 C   0  0  0  0  0  0  0  0  0  0  0  0
    6.4688  -12.4508   24.9673 C   0  0  0  0  0  0  0  0  0  0  0  0
    7.1922  -11.3816   25.4471 C   0  0  0  0  0  0  0  0  0  0  0  0
    8.2472  -11.5254   26.3223 C   0  0  0  0  0  0  0  0  0  0  0  0
    8.5995  -12.7816   26.7380 C   0  0  0  0  0  0  0  0  0  0  0  0
    7.9132  -13.8870   26.2911 C   0  0  0  0  0  0  0  0  0  0  0  0
   11.3760  -16.9198   27.4058 C   0  0  0  0  0  0  0  0  0  0  0  0
   12.0479  -18.0655   27.0114 O   0  0  0  0  0  0  0  0  0  0  0  0
   11.7821  -16.4404   28.5295 O   0  0  0  0  0  0  0  0  0  0  0  0
  2  1  1  1
  2  3  1  0
  3  4  1  0
  4  9  1  0
  4  5  2  0
  5  6  1  0
  6  7  2  0
  8  7  1  0
  9  8  2  0
 10 18  1  0
 10  2  1  0
 11 10  2  0
 12 13  1  0
 13 14  2  0
 15 16  1  0
 15 13  1  0
 17 16  1  6
 17 18  1  0
 19 17  1  0
 19 20  2  0
 21 19  1  0
 22 21  1  0
 22 33  1  0
 22 23  1  1
 24 23  1  0
 25 24  2  0
 26 25  1  0
 27 26  1  0
 27 32  2  0
 28 27  1  0
 29 28  2  0
 29 30  1  0
 30 31  2  0
 31 32  1  0
 32 24  1  0
 33 34  1  0
 35 33  2  0
M  END
$$$$
