FQW.pdb
     RDKit          3D

 35 37  0  0  1  0  0  0  0  0999 V2000
    6.1312  -18.1951   20.7505 N   0  0  0  0  0  0  0  0  0  0  0  0
    6.9750  -17.0279   20.9814 C   0  0  1  0  0  0  0  0  0  0  0  0
    6.1242  -16.0653   21.8203 C   0  0  0  0  0  0  0  0  0  0  0  0
    6.8153  -14.7627   21.7824 C   0  0  0  0  0  0  0  0  0  0  0  0
    7.2647  -14.1454   22.9235 C   0  0  0  0  0  0  0  0  0  0  0  0
    7.9182  -12.9112   22.8637 C   0  0  0  0  0  0  0  0  0  0  0  0
    8.1243  -12.2899   21.6550 C   0  0  0  0  0  0  0  0  0  0  0  0
    7.6751  -12.9069   20.5098 C   0  0  0  0  0  0  0  0  0  0  0  0
    7.0231  -14.1384   20.5753 C   0  0  0  0  0  0  0  0  0  0  0  0
    8.1164  -17.4459   21.8280 C   0  0  0  0  0  0  0  0  0  0  0  0
    7.9381  -18.2534   22.7928 O   0  0  0  0  0  0  0  0  0  0  0  0
   14.5783  -18.8367   20.4383 N   0  0  0  0  0  0  0  0  0  0  0  0
   14.1087  -17.7459   21.1881 C   0  0  0  0  0  0  0  0  0  0  0  0
   14.7073  -16.6554   21.1404 O   0  0  0  0  0  0  0  0  0  0  0  0
   12.9089  -17.8967   22.0291 C   0  0  0  0  0  0  0  0  0  0  0  0
   11.7380  -17.2592   21.3245 C   0  0  0  0  0  0  0  0  0  0  0  0
   10.5384  -17.4196   22.2357 C   0  0  2  0  0  0  0  0  0  0  0  0
    9.3950  -16.9216   21.5292 N   0  0  0  0  0  0  0  0  0  0  0  0
   10.6824  -16.6806   23.5019 C   0  0  0  0  0  0  0  0  0  0  0  0
   11.1914  -15.5356   23.4652 O   0  0  0  0  0  0  0  0  0  0  0  0
   10.2669  -17.2241   24.7336 N   0  0  0  0  0  0  0  0  0  0  0  0
   10.6432  -16.5528   25.9740 C   0  0  1  0  0  0  0  0  0  0  0  0
   10.3509  -15.0813   25.8693 C   0  0  0  0  0  0  0  0  0  0  0  0
    8.9195  -14.8073   25.6954 C   0  0  0  0  0  0  0  0  0  0  0  0
    7.9250  -15.7464   25.3921 C   0  0  0  0  0  0  0  0  0  0  0  0
    6.7407  -15.1355   25.2741 N   0  0  0  0  0  0  0  0  0  0  0  0
    6.8721  -13.8224   25.4821 C   0  0  0  0  0  0  0  0  0  0  0  0
    5.9550  -12.7828   25.4881 C   0  0  0  0  0  0  0  0  0  0  0  0
    6.4380  -11.5239   25.7678 C   0  0  0  0  0  0  0  0  0  0  0  0
    7.7674  -11.2755   26.0341 C   0  0  0  0  0  0  0  0  0  0  0  0
    8.6540  -12.3189   26.0216 C   0  0  0  0  0  0  0  0  0  0  0  0
    8.2286  -13.5982   25.7476 C   0  0  0  0  0  0  0  0  0  0  0  0
   10.1522  -17.2478   27.1543 C   0  0  0  0  0  0  0  0  0  0  0  0
   10.3396  -16.8273   28.4611 O   0  0  0  0  0  0  0  0  0  0  0  0
    9.4898  -18.3470   27.0525 O   0  0  0  0  0  0  0  0  0  0  0  0
  2  1  1  1
  2  3  1  0
  3  4  1  0
  4  9  1  0
  4  5  2  0
  5  6  1  0
  6  7  2  0
  8  7  1  0
  9  8  2  0
 10 18  1  0
 10  2  1  0
 11 10  2  0
 12 13  1  0
 13 14  2  0
 15 16  1  0
 15 13  1  0
 17 16  1  6
 17 18  1  0
 19 17  1  0
 19 20  2  0
 21 19  1  0
 22 21  1  0
 22 33  1  0
 22 23  1  6
 24 23  1  0
 25 24  2  0
 26 25  1  0
 27 26  1  0
 27 32  2  0
 28 27  1  0
 29 28  2  0
 29 30  1  0
 30 31  2  0
 31 32  1  0
 32 24  1  0
 33 34  1  0
 35 33  2  0
M  END
$$$$
