FQW.pdb
     RDKit          3D

 35 37  0  0  1  0  0  0  0  0999 V2000
    6.6174  -18.4997   20.3706 N   0  0  0  0  0  0  0  0  0  0  0  0
    7.2930  -17.2189   20.5456 C   0  0  1  0  0  0  0  0  0  0  0  0
    6.2330  -16.2706   21.1215 C   0  0  0  0  0  0  0  0  0  0  0  0
    6.8612  -14.9373   21.1832 C   0  0  0  0  0  0  0  0  0  0  0  0
    7.1397  -14.2126   20.0508 C   0  0  0  0  0  0  0  0  0  0  0  0
    7.7345  -12.9503   20.1330 C   0  0  0  0  0  0  0  0  0  0  0  0
    8.0531  -12.4086   21.3556 C   0  0  0  0  0  0  0  0  0  0  0  0
    7.7747  -13.1331   22.4921 C   0  0  0  0  0  0  0  0  0  0  0  0
    7.1812  -14.3926   22.4042 C   0  0  0  0  0  0  0  0  0  0  0  0
    8.3341  -17.3864   21.5859 C   0  0  0  0  0  0  0  0  0  0  0  0
    8.1320  -18.1537   22.5785 O   0  0  0  0  0  0  0  0  0  0  0  0
   14.2181  -16.8844   20.2408 N   0  0  0  0  0  0  0  0  0  0  0  0
   14.2742  -17.1858   21.6114 C   0  0  0  0  0  0  0  0  0  0  0  0
   15.3433  -17.5714   22.1195 O   0  0  0  0  0  0  0  0  0  0  0  0
   13.0666  -17.0448   22.4430 C   0  0  0  0  0  0  0  0  0  0  0  0
   11.9173  -16.6215   21.5634 C   0  0  0  0  0  0  0  0  0  0  0  0
   10.6447  -16.9706   22.3076 C   0  0  2  0  0  0  0  0  0  0  0  0
    9.5451  -16.6719   21.4381 N   0  0  0  0  0  0  0  0  0  0  0  0
   10.4902  -16.2095   23.5594 C   0  0  0  0  0  0  0  0  0  0  0  0
    9.9174  -15.0957   23.5088 O   0  0  0  0  0  0  0  0  0  0  0  0
   10.9646  -16.6988   24.7925 N   0  0  0  0  0  0  0  0  0  0  0  0
   10.1474  -16.5298   25.9903 C   0  0  1  0  0  0  0  0  0  0  0  0
    8.7255  -16.9245   25.7001 C   0  0  0  0  0  0  0  0  0  0  0  0
    7.8054  -15.7826   25.7610 C   0  0  0  0  0  0  0  0  0  0  0  0
    6.4663  -15.7722   25.3493 C   0  0  0  0  0  0  0  0  0  0  0  0
    5.9457  -14.5515   25.5192 N   0  0  0  0  0  0  0  0  0  0  0  0
    6.8612  -13.7224   26.0282 C   0  0  0  0  0  0  0  0  0  0  0  0
    6.8088  -12.3860   26.3931 C   0  0  0  0  0  0  0  0  0  0  0  0
    7.9565  -11.8353   26.9183 C   0  0  0  0  0  0  0  0  0  0  0  0
    9.1209  -12.5533   27.0866 C   0  0  0  0  0  0  0  0  0  0  0  0
    9.1479  -13.8718   26.7179 C   0  0  0  0  0  0  0  0  0  0  0  0
    8.0314  -14.4751   26.1867 C   0  0  0  0  0  0  0  0  0  0  0  0
   10.7699  -17.1020   27.1744 C   0  0  0  0  0  0  0  0  0  0  0  0
   11.8584  -17.9591   27.1659 O   0  0  0  0  0  0  0  0  0  0  0  0
   10.3242  -16.8402   28.3535 O   0  0  0  0  0  0  0  0  0  0  0  0
  2  1  1  1
  2  3  1  0
  3  4  1  0
  4  9  1  0
  4  5  2  0
  5  6  1  0
  6  7  2  0
  8  7  1  0
  9  8  2  0
 10 18  1  0
 10  2  1  0
 11 10  2  0
 12 13  1  0
 13 14  2  0
 15 16  1  0
 15 13  1  0
 17 16  1  6
 17 18  1  0
 19 17  1  0
 19 20  2  0
 21 19  1  0
 22 21  1  0
 22 33  1  0
 22 23  1  6
 24 23  1  0
 25 24  2  0
 26 25  1  0
 27 26  1  0
 27 32  2  0
 28 27  1  0
 29 28  2  0
 29 30  1  0
 30 31  2  0
 31 32  1  0
 32 24  1  0
 33 34  1  0
 35 33  2  0
M  END
$$$$
