FQW.pdb
     RDKit          3D

 35 37  0  0  1  0  0  0  0  0999 V2000
    5.9607  -18.0630   21.3868 N   0  0  0  0  0  0  0  0  0  0  0  0
    6.9873  -17.0511   21.1637 C   0  0  1  0  0  0  0  0  0  0  0  0
    6.4752  -15.7851   21.8633 C   0  0  0  0  0  0  0  0  0  0  0  0
    6.9655  -14.6452   21.0656 C   0  0  0  0  0  0  0  0  0  0  0  0
    6.7363  -13.3444   21.4403 C   0  0  0  0  0  0  0  0  0  0  0  0
    7.2113  -12.2796   20.6694 C   0  0  0  0  0  0  0  0  0  0  0  0
    7.9205  -12.5165   19.5160 C   0  0  0  0  0  0  0  0  0  0  0  0
    8.1517  -13.8196   19.1384 C   0  0  0  0  0  0  0  0  0  0  0  0
    7.6750  -14.8786   19.9114 C   0  0  0  0  0  0  0  0  0  0  0  0
    8.2134  -17.4743   21.8791 C   0  0  0  0  0  0  0  0  0  0  0  0
    8.1860  -18.4730   22.6643 O   0  0  0  0  0  0  0  0  0  0  0  0
   13.1792  -16.2024   19.0717 N   0  0  0  0  0  0  0  0  0  0  0  0
   12.9211  -17.5673   19.2788 C   0  0  0  0  0  0  0  0  0  0  0  0
   13.3024  -18.4058   18.4412 O   0  0  0  0  0  0  0  0  0  0  0  0
   12.1992  -18.0018   20.4869 C   0  0  0  0  0  0  0  0  0  0  0  0
   11.7390  -16.7814   21.2436 C   0  0  0  0  0  0  0  0  0  0  0  0
   10.6393  -17.2362   22.1811 C   0  0  2  0  0  0  0  0  0  0  0  0
    9.4003  -16.7377   21.6607 N   0  0  0  0  0  0  0  0  0  0  0  0
   10.8205  -16.7378   23.5554 C   0  0  0  0  0  0  0  0  0  0  0  0
   11.4485  -15.6653   23.7189 O   0  0  0  0  0  0  0  0  0  0  0  0
   10.3112  -17.4295   24.6723 N   0  0  0  0  0  0  0  0  0  0  0  0
   10.6943  -17.0004   26.0140 C   0  0  1  0  0  0  0  0  0  0  0  0
   10.3643  -15.5450   26.2001 C   0  0  0  0  0  0  0  0  0  0  0  0
    8.9603  -15.3339   26.5721 C   0  0  0  0  0  0  0  0  0  0  0  0
    7.9614  -16.3143   26.6352 C   0  0  0  0  0  0  0  0  0  0  0  0
    6.7943  -15.7559   26.9758 N   0  0  0  0  0  0  0  0  0  0  0  0
    6.9420  -14.4397   27.1505 C   0  0  0  0  0  0  0  0  0  0  0  0
    6.0522  -13.4421   27.5175 C   0  0  0  0  0  0  0  0  0  0  0  0
    6.5549  -12.1648   27.6281 C   0  0  0  0  0  0  0  0  0  0  0  0
    7.8780  -11.8593   27.3915 C   0  0  0  0  0  0  0  0  0  0  0  0
    8.7373  -12.8620   27.0295 C   0  0  0  0  0  0  0  0  0  0  0  0
    8.2909  -14.1571   26.9026 C   0  0  0  0  0  0  0  0  0  0  0  0
   10.2426  -17.9236   27.0440 C   0  0  0  0  0  0  0  0  0  0  0  0
   10.5567  -17.8298   28.3902 O   0  0  0  0  0  0  0  0  0  0  0  0
    9.4958  -18.9313   26.7540 O   0  0  0  0  0  0  0  0  0  0  0  0
  2  1  1  1
  2  3  1  0
  3  4  1  0
  4  9  1  0
  4  5  2  0
  5  6  1  0
  6  7  2  0
  8  7  1  0
  9  8  2  0
 10 18  1  0
 10  2  1  0
 11 10  2  0
 12 13  1  0
 13 14  2  0
 15 16  1  0
 15 13  1  0
 17 16  1  6
 17 18  1  0
 19 17  1  0
 19 20  2  0
 21 19  1  0
 22 21  1  0
 22 33  1  0
 22 23  1  1
 24 23  1  0
 25 24  2  0
 26 25  1  0
 27 26  1  0
 27 32  2  0
 28 27  1  0
 29 28  2  0
 29 30  1  0
 30 31  2  0
 31 32  1  0
 32 24  1  0
 33 34  1  0
 35 33  2  0
M  END
$$$$
