FQW.pdb
     RDKit          3D

 35 37  0  0  1  0  0  0  0  0999 V2000
    7.1150  -17.9609   20.4593 N   0  0  0  0  0  0  0  0  0  0  0  0
    8.1390  -16.9690   20.7677 C   0  0  1  0  0  0  0  0  0  0  0  0
    7.4971  -16.0194   21.7878 C   0  0  0  0  0  0  0  0  0  0  0  0
    7.4924  -14.6833   21.1627 C   0  0  0  0  0  0  0  0  0  0  0  0
    8.0251  -14.4626   19.9166 C   0  0  0  0  0  0  0  0  0  0  0  0
    8.0089  -13.1880   19.3430 C   0  0  0  0  0  0  0  0  0  0  0  0
    7.4561  -12.1267   20.0195 C   0  0  0  0  0  0  0  0  0  0  0  0
    6.9213  -12.3455   21.2685 C   0  0  0  0  0  0  0  0  0  0  0  0
    6.9405  -13.6195   21.8364 C   0  0  0  0  0  0  0  0  0  0  0  0
    9.2529  -17.6578   21.4598 C   0  0  0  0  0  0  0  0  0  0  0  0
    9.0477  -18.7489   22.0780 O   0  0  0  0  0  0  0  0  0  0  0  0
   15.1903  -17.1239   19.8700 N   0  0  0  0  0  0  0  0  0  0  0  0
   15.2334  -17.9487   21.0060 C   0  0  0  0  0  0  0  0  0  0  0  0
   16.2770  -18.5674   21.2853 O   0  0  0  0  0  0  0  0  0  0  0  0
   14.0426  -18.0788   21.8630 C   0  0  0  0  0  0  0  0  0  0  0  0
   12.8483  -17.5326   21.1220 C   0  0  0  0  0  0  0  0  0  0  0  0
   11.6437  -17.7448   22.0160 C   0  0  2  0  0  0  0  0  0  0  0  0
   10.5362  -17.0666   21.4094 N   0  0  0  0  0  0  0  0  0  0  0  0
   11.8450  -17.2181   23.3769 C   0  0  0  0  0  0  0  0  0  0  0  0
   12.5371  -16.1821   23.5150 O   0  0  0  0  0  0  0  0  0  0  0  0
   11.2852  -17.8436   24.5085 N   0  0  0  0  0  0  0  0  0  0  0  0
   10.5002  -17.0494   25.4487 C   0  0  1  0  0  0  0  0  0  0  0  0
    9.6576  -16.0539   24.6996 C   0  0  0  0  0  0  0  0  0  0  0  0
    8.6104  -15.4633   25.5414 C   0  0  0  0  0  0  0  0  0  0  0  0
    7.8016  -16.1440   26.4609 C   0  0  0  0  0  0  0  0  0  0  0  0
    6.9345  -15.2943   27.0231 N   0  0  0  0  0  0  0  0  0  0  0  0
    7.1080  -14.0627   26.5356 C   0  0  0  0  0  0  0  0  0  0  0  0
    6.4817  -12.8559   26.8064 C   0  0  0  0  0  0  0  0  0  0  0  0
    6.9342  -11.7491   26.1233 C   0  0  0  0  0  0  0  0  0  0  0  0
    7.9613  -11.8052   25.2058 C   0  0  0  0  0  0  0  0  0  0  0  0
    8.5636  -13.0090   24.9551 C   0  0  0  0  0  0  0  0  0  0  0  0
    8.1528  -14.1486   25.6072 C   0  0  0  0  0  0  0  0  0  0  0  0
    9.8329  -17.8692   26.4486 C   0  0  0  0  0  0  0  0  0  0  0  0
    9.9775  -17.7277   27.8192 O   0  0  0  0  0  0  0  0  0  0  0  0
    9.0372  -18.8214   26.1058 O   0  0  0  0  0  0  0  0  0  0  0  0
  2  1  1  1
  2  3  1  0
  3  4  1  0
  4  9  1  0
  4  5  2  0
  5  6  1  0
  6  7  2  0
  8  7  1  0
  9  8  2  0
 10 18  1  0
 10  2  1  0
 11 10  2  0
 12 13  1  0
 13 14  2  0
 15 16  1  0
 15 13  1  0
 17 16  1  6
 17 18  1  0
 19 17  1  0
 19 20  2  0
 21 19  1  0
 22 21  1  0
 22 33  1  0
 22 23  1  6
 24 23  1  0
 25 24  2  0
 26 25  1  0
 27 26  1  0
 27 32  2  0
 28 27  1  0
 29 28  2  0
 29 30  1  0
 30 31  2  0
 31 32  1  0
 32 24  1  0
 33 34  1  0
 35 33  2  0
M  END
$$$$
