FQW.pdb
     RDKit          3D

 35 37  0  0  1  0  0  0  0  0999 V2000
    5.9757  -17.5788   20.1973 N   0  0  0  0  0  0  0  0  0  0  0  0
    6.9918  -16.5763   20.4970 C   0  0  1  0  0  0  0  0  0  0  0  0
    6.2315  -15.3888   21.1021 C   0  0  0  0  0  0  0  0  0  0  0  0
    7.0811  -14.2020   20.8883 C   0  0  0  0  0  0  0  0  0  0  0  0
    7.4699  -13.8036   19.6333 C   0  0  0  0  0  0  0  0  0  0  0  0
    8.2746  -12.6748   19.4542 C   0  0  0  0  0  0  0  0  0  0  0  0
    8.6935  -11.9389   20.5371 C   0  0  0  0  0  0  0  0  0  0  0  0
    8.3048  -12.3362   21.7961 C   0  0  0  0  0  0  0  0  0  0  0  0
    7.5019  -13.4638   21.9691 C   0  0  0  0  0  0  0  0  0  0  0  0
    7.8697  -17.1152   21.5615 C   0  0  0  0  0  0  0  0  0  0  0  0
    7.5298  -18.1544   22.2089 O   0  0  0  0  0  0  0  0  0  0  0  0
   13.6255  -17.2060   20.2031 N   0  0  0  0  0  0  0  0  0  0  0  0
   13.6266  -17.9211   21.4120 C   0  0  0  0  0  0  0  0  0  0  0  0
   14.6454  -18.5435   21.7647 O   0  0  0  0  0  0  0  0  0  0  0  0
   12.4211  -17.9320   22.2583 C   0  0  0  0  0  0  0  0  0  0  0  0
   11.3604  -17.0826   21.6046 C   0  0  0  0  0  0  0  0  0  0  0  0
   10.1395  -17.1411   22.4997 C   0  0  2  0  0  0  0  0  0  0  0  0
    9.0836  -16.4414   21.8290 N   0  0  0  0  0  0  0  0  0  0  0  0
   10.3686  -16.5212   23.8163 C   0  0  0  0  0  0  0  0  0  0  0  0
   10.8253  -15.3544   23.8505 O   0  0  0  0  0  0  0  0  0  0  0  0
   10.0896  -17.2007   25.0186 N   0  0  0  0  0  0  0  0  0  0  0  0
   10.4965  -16.6041   26.2873 C   0  0  1  0  0  0  0  0  0  0  0  0
    9.3753  -16.7066   27.2845 C   0  0  0  0  0  0  0  0  0  0  0  0
    8.0980  -16.2319   26.7394 C   0  0  0  0  0  0  0  0  0  0  0  0
    7.1514  -17.0019   26.0508 C   0  0  0  0  0  0  0  0  0  0  0  0
    6.1255  -16.2319   25.6708 N   0  0  0  0  0  0  0  0  0  0  0  0
    6.3201  -14.9703   26.0649 C   0  0  0  0  0  0  0  0  0  0  0  0
    5.5535  -13.8230   25.9316 C   0  0  0  0  0  0  0  0  0  0  0  0
    6.0545  -12.6676   26.4888 C   0  0  0  0  0  0  0  0  0  0  0  0
    7.2600  -12.6208   27.1554 C   0  0  0  0  0  0  0  0  0  0  0  0
    7.9992  -13.7673   27.2733 C   0  0  0  0  0  0  0  0  0  0  0  0
    7.5491  -14.9510   26.7357 C   0  0  0  0  0  0  0  0  0  0  0  0
   11.8130  -17.0512   26.7160 C   0  0  0  0  0  0  0  0  0  0  0  0
   12.5233  -16.5263   27.7836 O   0  0  0  0  0  0  0  0  0  0  0  0
   12.4280  -17.9991   26.0990 O   0  0  0  0  0  0  0  0  0  0  0  0
  2  1  1  1
  2  3  1  0
  3  4  1  0
  4  9  1  0
  4  5  2  0
  5  6  1  0
  6  7  2  0
  8  7  1  0
  9  8  2  0
 10 18  1  0
 10  2  1  0
 11 10  2  0
 12 13  1  0
 13 14  2  0
 15 16  1  0
 15 13  1  0
 17 16  1  6
 17 18  1  0
 19 17  1  0
 19 20  2  0
 21 19  1  0
 22 21  1  0
 22 33  1  0
 22 23  1  1
 24 23  1  0
 25 24  2  0
 26 25  1  0
 27 26  1  0
 27 32  2  0
 28 27  1  0
 29 28  2  0
 29 30  1  0
 30 31  2  0
 31 32  1  0
 32 24  1  0
 33 34  1  0
 35 33  2  0
M  END
$$$$
