TRV.pdb
     RDKit          3D

 26 25  0  0  1  0  0  0  0  0999 V2000
    8.8548  -12.2722   20.3434 C   0  0  0  0  0  0  0  0  0  0  0  0
    8.0939  -12.9755   19.2397 C   0  0  1  0  0  0  0  0  0  0  0  0
    8.3201  -12.4269   17.9951 O   0  0  0  0  0  0  0  0  0  0  0  0
    8.4301  -14.4365   19.2986 C   0  0  2  0  0  0  0  0  0  0  0  0
    7.9025  -15.2082   18.2193 N   0  0  0  0  0  0  0  0  0  0  0  0
    8.0741  -15.0289   20.6282 C   0  0  0  0  0  0  0  0  0  0  0  0
    6.8835  -15.3361   20.8617 O   0  0  0  0  0  0  0  0  0  0  0  0
   11.3573  -18.9567   19.9273 N   0  0  0  0  0  0  0  0  0  0  0  0
   11.8457  -19.4125   21.2188 C   0  0  0  0  0  0  0  0  0  0  0  0
   13.0737  -19.6267   21.3890 N   0  0  0  0  0  0  0  0  0  0  0  0
   10.9289  -19.6100   22.2810 N   0  0  0  0  0  0  0  0  0  0  0  0
    9.5202  -19.5292   22.2225 C   0  0  0  0  0  0  0  0  0  0  0  0
    8.8856  -18.1960   22.0271 C   0  0  0  0  0  0  0  0  0  0  0  0
    9.3277  -17.1771   23.1003 C   0  0  0  0  0  0  0  0  0  0  0  0
    8.7941  -15.8166   22.8996 C   0  0  2  0  0  0  0  0  0  0  0  0
    9.0572  -15.2435   21.6140 N   0  0  0  0  0  0  0  0  0  0  0  0
    9.1336  -14.8937   24.0384 C   0  0  0  0  0  0  0  0  0  0  0  0
   10.2819  -14.4298   24.1870 O   0  0  0  0  0  0  0  0  0  0  0  0
   13.5526  -19.9607   22.1925 C   0  0  0  0  0  0  0  0  0  0  0  0
    7.3117  -11.6806   25.3313 C   0  0  2  0  0  0  0  0  0  0  0  0
    7.4212  -12.6858   26.4586 C   0  0  0  0  0  0  0  0  0  0  0  0
    6.0619  -13.3748   26.5486 C   0  0  2  0  0  0  0  0  0  0  0  0
    8.4882  -13.7218   26.1685 N   0  0  0  0  0  0  0  0  0  0  0  0
    8.1612  -14.5082   24.9964 C   0  0  0  0  0  0  0  0  0  0  0  0
    8.6177  -14.6236   27.3150 O   0  0  0  0  0  0  0  0  0  0  0  0
    8.3023  -15.8479   27.2453 O   0  0  0  0  0  0  0  0  0  0  0  0
  2  1  1  1
  2  3  1  0
  4  6  1  0
  4  2  1  0
  4  5  1  6
  6  7  2  0
  9 11  1  0
  9  8  1  0
 10  9  2  0
 12 11  1  0
 13 12  1  0
 15 14  1  1
 14 13  1  0
 16  6  1  0
 16 15  1  0
 17 15  1  0
 17 18  2  0
 20 19  1  1
 20 22  1  0
 21 20  1  0
 22 23  1  1
 22 24  1  0
 23 17  1  0
 24 26  1  0
 25 24  2  0
M  END
$$$$
