TRV.pdb
     RDKit          3D

 26 25  0  0  1  0  0  0  0  0999 V2000
    6.2437  -17.7311   24.4264 C   0  0  0  0  0  0  0  0  0  0  0  0
    6.7330  -18.8328   23.5105 C   0  0  1  0  0  0  0  0  0  0  0  0
    5.9008  -19.9321   23.4977 O   0  0  0  0  0  0  0  0  0  0  0  0
    6.9401  -18.2471   22.1449 C   0  0  2  0  0  0  0  0  0  0  0  0
    7.0805  -19.2130   21.1027 N   0  0  0  0  0  0  0  0  0  0  0  0
    8.0650  -17.2570   22.1368 C   0  0  0  0  0  0  0  0  0  0  0  0
    9.2441  -17.6717   22.0721 O   0  0  0  0  0  0  0  0  0  0  0  0
    9.0524  -15.1151   18.2038 N   0  0  0  0  0  0  0  0  0  0  0  0
    8.2520  -14.1557   17.4601 C   0  0  0  0  0  0  0  0  0  0  0  0
    7.9091  -14.4041   16.2754 N   0  0  0  0  0  0  0  0  0  0  0  0
    7.8610  -12.9436   18.0811 N   0  0  0  0  0  0  0  0  0  0  0  0
    7.3520  -12.7761   19.3878 C   0  0  0  0  0  0  0  0  0  0  0  0
    7.4573  -13.9088   20.3492 C   0  0  0  0  0  0  0  0  0  0  0  0
    8.7298  -13.8181   21.2197 C   0  0  0  0  0  0  0  0  0  0  0  0
    8.8371  -14.8717   22.2466 C   0  0  2  0  0  0  0  0  0  0  0  0
    7.8139  -15.8724   22.2006 N   0  0  0  0  0  0  0  0  0  0  0  0
    9.0511  -14.3087   23.6255 C   0  0  0  0  0  0  0  0  0  0  0  0
    9.3420  -13.1094   23.8068 O   0  0  0  0  0  0  0  0  0  0  0  0
    7.4198  -13.8344   15.6254 C   0  0  0  0  0  0  0  0  0  0  0  0
    6.5093  -14.5951   26.5420 C   0  0  1  0  0  0  0  0  0  0  0  0
    7.7490  -13.7334   26.4250 C   0  0  0  0  0  0  0  0  0  0  0  0
    7.9240  -13.0524   27.7802 C   0  0  1  0  0  0  0  0  0  0  0  0
    8.9746  -14.5727   26.1258 N   0  0  0  0  0  0  0  0  0  0  0  0
    8.9311  -15.1181   24.7843 C   0  0  0  0  0  0  0  0  0  0  0  0
    9.0513  -15.6820   27.0788 O   0  0  0  0  0  0  0  0  0  0  0  0
    8.8956  -16.8865   26.7212 O   0  0  0  0  0  0  0  0  0  0  0  0
  2  1  1  1
  2  3  1  0
  4  6  1  0
  4  2  1  0
  4  5  1  6
  6  7  2  0
  9 11  1  0
  9  8  1  0
 10  9  2  0
 12 11  1  0
 13 12  1  0
 15 14  1  6
 14 13  1  0
 16  6  1  0
 16 15  1  0
 17 15  1  0
 17 18  2  0
 20 19  1  6
 20 22  1  0
 21 20  1  0
 22 23  1  6
 22 24  1  0
 23 17  1  0
 24 26  1  0
 25 24  2  0
M  END
$$$$
