TRV.pdb
     RDKit          3D

 26 25  0  0  1  0  0  0  0  0999 V2000
   12.2631  -20.2333   23.1076 C   0  0  0  0  0  0  0  0  0  0  0  0
   11.5623  -18.9623   23.5381 C   0  0  1  0  0  0  0  0  0  0  0  0
   11.5093  -18.8138   24.9079 O   0  0  0  0  0  0  0  0  0  0  0  0
   12.2316  -17.8060   22.8555 C   0  0  2  0  0  0  0  0  0  0  0  0
   13.6096  -17.6391   23.1905 N   0  0  0  0  0  0  0  0  0  0  0  0
   11.4590  -16.5357   23.0426 C   0  0  0  0  0  0  0  0  0  0  0  0
   11.8579  -15.6950   23.8796 O   0  0  0  0  0  0  0  0  0  0  0  0
    7.1439  -15.5286   18.4384 N   0  0  0  0  0  0  0  0  0  0  0  0
    7.6765  -14.2160   18.1107 C   0  0  0  0  0  0  0  0  0  0  0  0
    8.2441  -14.0238   17.0045 N   0  0  0  0  0  0  0  0  0  0  0  0
    7.5484  -13.1582   19.0448 N   0  0  0  0  0  0  0  0  0  0  0  0
    6.9253  -13.2050   20.3113 C   0  0  0  0  0  0  0  0  0  0  0  0
    7.7560  -13.5133   21.5084 C   0  0  0  0  0  0  0  0  0  0  0  0
    8.6181  -14.7793   21.3095 C   0  0  0  0  0  0  0  0  0  0  0  0
    9.4687  -15.1202   22.4654 C   0  0  2  0  0  0  0  0  0  0  0  0
   10.2953  -16.2767   22.2923 N   0  0  0  0  0  0  0  0  0  0  0  0
    8.7005  -15.1316   23.7591 C   0  0  0  0  0  0  0  0  0  0  0  0
    8.3565  -16.1972   24.3087 O   0  0  0  0  0  0  0  0  0  0  0  0
    8.6030  -13.1837   16.6147 C   0  0  0  0  0  0  0  0  0  0  0  0
    6.1429  -12.0242   25.3273 C   0  0  2  0  0  0  0  0  0  0  0  0
    7.3266  -12.5070   26.1389 C   0  0  0  0  0  0  0  0  0  0  0  0
    6.8690  -12.5171   27.5954 C   0  0  1  0  0  0  0  0  0  0  0  0
    7.7347  -13.9089   25.7338 N   0  0  0  0  0  0  0  0  0  0  0  0
    8.3321  -13.9285   24.4140 C   0  0  0  0  0  0  0  0  0  0  0  0
    6.5557  -14.7775   25.7257 O   0  0  0  0  0  0  0  0  0  0  0  0
    5.7950  -14.8679   24.7176 O   0  0  0  0  0  0  0  0  0  0  0  0
  2  1  1  1
  2  3  1  0
  4  6  1  0
  4  2  1  0
  4  5  1  1
  6  7  2  0
  9 11  1  0
  9  8  1  0
 10  9  2  0
 12 11  1  0
 13 12  1  0
 15 14  1  6
 14 13  1  0
 16  6  1  0
 16 15  1  0
 17 15  1  0
 17 18  2  0
 20 19  1  1
 20 22  1  0
 21 20  1  0
 22 23  1  6
 22 24  1  0
 23 17  1  0
 24 26  1  0
 25 24  2  0
M  END
$$$$
