TRV.pdb
     RDKit          3D

 26 25  0  0  1  0  0  0  0  0999 V2000
    9.2637  -12.5792   20.3157 C   0  0  0  0  0  0  0  0  0  0  0  0
    8.3398  -13.1235   19.2470 C   0  0  1  0  0  0  0  0  0  0  0  0
    8.7857  -12.8670   17.9677 O   0  0  0  0  0  0  0  0  0  0  0  0
    8.1362  -14.5870   19.5071 C   0  0  2  0  0  0  0  0  0  0  0  0
    7.4096  -15.2729   18.4871 N   0  0  0  0  0  0  0  0  0  0  0  0
    7.5460  -14.8269   20.8634 C   0  0  0  0  0  0  0  0  0  0  0  0
    6.4441  -14.3078   21.1513 O   0  0  0  0  0  0  0  0  0  0  0  0
    9.3921  -19.9562   26.8895 N   0  0  0  0  0  0  0  0  0  0  0  0
    9.2286  -20.3096   25.4886 C   0  0  0  0  0  0  0  0  0  0  0  0
   10.0885  -21.0262   24.9143 N   0  0  0  0  0  0  0  0  0  0  0  0
    8.0940  -19.8431   24.7795 N   0  0  0  0  0  0  0  0  0  0  0  0
    7.0615  -19.0119   25.2671 C   0  0  0  0  0  0  0  0  0  0  0  0
    7.0853  -17.5627   24.9245 C   0  0  0  0  0  0  0  0  0  0  0  0
    7.6425  -17.3078   23.5068 C   0  0  0  0  0  0  0  0  0  0  0  0
    7.7188  -15.8828   23.1335 C   0  0  2  0  0  0  0  0  0  0  0  0
    8.2119  -15.6252   21.8140 N   0  0  0  0  0  0  0  0  0  0  0  0
    8.3927  -15.0488   24.1891 C   0  0  0  0  0  0  0  0  0  0  0  0
    9.6334  -14.9302   24.2387 O   0  0  0  0  0  0  0  0  0  0  0  0
   10.1160  -21.3534   23.9770 C   0  0  0  0  0  0  0  0  0  0  0  0
    7.4184  -11.4042   25.3821 C   0  0  2  0  0  0  0  0  0  0  0  0
    7.4778  -12.3457   26.5666 C   0  0  0  0  0  0  0  0  0  0  0  0
    6.0340  -12.7351   26.8741 C   0  0  2  0  0  0  0  0  0  0  0  0
    8.2722  -13.5931   26.2369 N   0  0  0  0  0  0  0  0  0  0  0  0
    7.6460  -14.3580   25.1777 C   0  0  0  0  0  0  0  0  0  0  0  0
    8.3703  -14.4387   27.4286 O   0  0  0  0  0  0  0  0  0  0  0  0
    7.8272  -15.5809   27.4881 O   0  0  0  0  0  0  0  0  0  0  0  0
  2  1  1  1
  2  3  1  0
  4  6  1  0
  4  2  1  0
  4  5  1  6
  6  7  2  0
  9 11  1  0
  9  8  1  0
 10  9  2  0
 12 11  1  0
 13 12  1  0
 15 14  1  1
 14 13  1  0
 16  6  1  0
 16 15  1  0
 17 15  1  0
 17 18  2  0
 20 19  1  1
 20 22  1  0
 21 20  1  0
 22 23  1  1
 22 24  1  0
 23 17  1  0
 24 26  1  0
 25 24  2  0
M  END
$$$$
