TRV.pdb
     RDKit          3D

 26 25  0  0  1  0  0  0  0  0999 V2000
    9.0398  -12.3763   19.9870 C   0  0  0  0  0  0  0  0  0  0  0  0
    8.1078  -12.9838   18.9602 C   0  0  1  0  0  0  0  0  0  0  0  0
    8.2516  -12.4282   17.7065 O   0  0  0  0  0  0  0  0  0  0  0  0
    8.3153  -14.4697   18.9626 C   0  0  2  0  0  0  0  0  0  0  0  0
    7.6267  -15.1642   17.9222 N   0  0  0  0  0  0  0  0  0  0  0  0
    8.0270  -15.0624   20.3083 C   0  0  0  0  0  0  0  0  0  0  0  0
    6.8396  -15.2792   20.6394 O   0  0  0  0  0  0  0  0  0  0  0  0
   12.3798  -19.5284   26.0638 N   0  0  0  0  0  0  0  0  0  0  0  0
   11.0395  -20.0076   26.3606 C   0  0  0  0  0  0  0  0  0  0  0  0
   10.7684  -20.4545   27.5050 N   0  0  0  0  0  0  0  0  0  0  0  0
   10.0442  -19.9641   25.3530 N   0  0  0  0  0  0  0  0  0  0  0  0
   10.0956  -19.2628   24.1282 C   0  0  0  0  0  0  0  0  0  0  0  0
    9.4486  -17.9241   24.0406 C   0  0  0  0  0  0  0  0  0  0  0  0
    9.5970  -17.2957   22.6376 C   0  0  0  0  0  0  0  0  0  0  0  0
    8.8775  -16.0193   22.4668 C   0  0  2  0  0  0  0  0  0  0  0  0
    9.0699  -15.3771   21.2015 N   0  0  0  0  0  0  0  0  0  0  0  0
    9.0706  -15.0914   23.6355 C   0  0  0  0  0  0  0  0  0  0  0  0
   10.1629  -14.5304   23.8545 O   0  0  0  0  0  0  0  0  0  0  0  0
    9.9095  -20.8039   27.8610 C   0  0  0  0  0  0  0  0  0  0  0  0
    6.9988  -12.2826   27.1729 C   0  0  2  0  0  0  0  0  0  0  0  0
    6.8360  -13.2604   26.0281 C   0  0  0  0  0  0  0  0  0  0  0  0
    6.3051  -12.4502   24.8480 C   0  0  1  0  0  0  0  0  0  0  0  0
    8.1626  -13.8861   25.6479 N   0  0  0  0  0  0  0  0  0  0  0  0
    8.0168  -14.8118   24.5430 C   0  0  0  0  0  0  0  0  0  0  0  0
    8.7070  -14.6125   26.7971 O   0  0  0  0  0  0  0  0  0  0  0  0
    8.6737  -15.8760   26.8700 O   0  0  0  0  0  0  0  0  0  0  0  0
  2  1  1  1
  2  3  1  0
  4  6  1  0
  4  2  1  0
  4  5  1  6
  6  7  2  0
  9 11  1  0
  9  8  1  0
 10  9  2  0
 12 11  1  0
 13 12  1  0
 15 14  1  1
 14 13  1  0
 16  6  1  0
 16 15  1  0
 17 15  1  0
 17 18  2  0
 20 19  1  1
 20 22  1  0
 21 20  1  0
 22 23  1  1
 22 24  1  0
 23 17  1  0
 24 26  1  0
 25 24  2  0
M  END
$$$$
