GTI.pdb
     RDKit          3D

 20 19  0  0  1  0  0  0  0  0999 V2000
   15.4341  -13.9697  -16.8618 N   0  0  0  0  0  0  0  0  0  0  0  0
   15.3504  -12.5400  -16.7923 C   0  0  0  0  0  0  0  0  0  0  0  0
   16.6164  -11.8848  -17.2708 C   0  0  0  0  0  0  0  0  0  0  0  0
   17.4657  -12.5091  -17.9408 O   0  0  0  0  0  0  0  0  0  0  0  0
   16.5760   -8.8317  -19.2603 C   0  0  0  0  0  0  0  0  0  0  0  0
   17.4117   -8.4923  -18.0427 C   0  0  1  0  0  0  0  0  0  0  0  0
   16.6068   -7.8289  -17.1204 O   0  0  0  0  0  0  0  0  0  0  0  0
   17.9836   -9.7662  -17.4113 C   0  0  2  0  0  0  0  0  0  0  0  0
   16.8531  -10.5356  -16.9579 N   0  0  0  0  0  0  0  0  0  0  0  0
   18.7844   -9.3690  -16.2339 C   0  0  0  0  0  0  0  0  0  0  0  0
   18.2335   -9.3954  -15.1082 O   0  0  0  0  0  0  0  0  0  0  0  0
   23.7506  -10.9600  -13.7552 C   0  0  0  0  0  0  0  0  0  0  0  0
   22.8427   -9.7476  -13.7956 C   0  0  0  0  0  0  0  0  0  0  0  0
   22.0344   -9.8370  -15.0636 C   0  0  2  0  0  0  0  0  0  0  0  0
   22.9795   -9.7043  -16.2328 C   0  0  0  0  0  0  0  0  0  0  0  0
   21.0065   -8.7400  -15.1838 C   0  0  2  0  0  0  0  0  0  0  0  0
   20.1398   -8.9619  -16.3213 N   0  0  0  0  0  0  0  0  0  0  0  0
   21.6112   -7.3937  -15.2042 C   0  0  0  0  0  0  0  0  0  0  0  0
   21.7367   -6.7738  -16.2906 O   0  0  0  0  0  0  0  0  0  0  0  0
   22.0639   -6.7506  -14.0607 O   0  0  0  0  0  0  0  0  0  0  0  0
  2  1  1  0
  3  4  2  0
  3  2  1  0
  6  5  1  6
  6  8  1  0
  7  6  1  0
  8  9  1  1
  9  3  1  0
 10  8  1  0
 10 17  1  0
 11 10  2  0
 12 13  1  0
 13 14  1  0
 14 16  1  0
 14 15  1  6
 16 17  1  6
 16 18  1  0
 18 19  2  0
 18 20  1  0
M  END
$$$$
