GTI.pdb
     RDKit          3D

 20 19  0  0  1  0  0  0  0  0999 V2000
   22.4372  -11.4255  -19.4979 N   0  0  0  0  0  0  0  0  0  0  0  0
   23.8115  -11.2705  -19.8761 C   0  0  0  0  0  0  0  0  0  0  0  0
   24.6688  -10.8726  -18.7066 C   0  0  0  0  0  0  0  0  0  0  0  0
   24.3871   -9.8884  -17.9912 O   0  0  0  0  0  0  0  0  0  0  0  0
   28.1204  -12.3424  -15.5580 C   0  0  0  0  0  0  0  0  0  0  0  0
   27.0992  -12.5891  -16.6500 C   0  0  1  0  0  0  0  0  0  0  0  0
   25.9364  -13.0876  -16.0686 O   0  0  0  0  0  0  0  0  0  0  0  0
   26.7890  -11.2888  -17.3994 C   0  0  2  0  0  0  0  0  0  0  0  0
   25.8171  -11.6253  -18.4082 N   0  0  0  0  0  0  0  0  0  0  0  0
   28.0291  -10.8452  -18.0709 C   0  0  0  0  0  0  0  0  0  0  0  0
   28.4371  -11.5058  -19.0550 O   0  0  0  0  0  0  0  0  0  0  0  0
   28.5858   -6.8095  -20.8892 C   0  0  0  0  0  0  0  0  0  0  0  0
   28.7704   -8.1592  -20.2258 C   0  0  0  0  0  0  0  0  0  0  0  0
   29.7101   -7.9616  -19.0653 C   0  0  2  0  0  0  0  0  0  0  0  0
   31.0310   -7.4742  -19.6088 C   0  0  0  0  0  0  0  0  0  0  0  0
   29.9754   -9.2343  -18.3008 C   0  0  2  0  0  0  0  0  0  0  0  0
   28.7726   -9.7124  -17.6535 N   0  0  0  0  0  0  0  0  0  0  0  0
   31.0990   -9.1044  -17.3526 C   0  0  0  0  0  0  0  0  0  0  0  0
   30.9454   -8.4792  -16.2727 O   0  0  0  0  0  0  0  0  0  0  0  0
   32.3542   -9.6475  -17.5882 O   0  0  0  0  0  0  0  0  0  0  0  0
  2  1  1  0
  3  4  2  0
  3  2  1  0
  6  5  1  1
  6  8  1  0
  7  6  1  0
  8  9  1  6
  9  3  1  0
 10  8  1  0
 10 17  1  0
 11 10  2  0
 12 13  1  0
 13 14  1  0
 14 16  1  0
 14 15  1  6
 16 17  1  1
 16 18  1  0
 18 19  2  0
 18 20  1  0
M  END
$$$$
