GTI.pdb
     RDKit          3D

 20 19  0  0  1  0  0  0  0  0999 V2000
   14.9817  -14.1498  -16.5245 N   0  0  0  0  0  0  0  0  0  0  0  0
   15.3343  -12.9048  -15.9069 C   0  0  0  0  0  0  0  0  0  0  0  0
   16.5308  -12.2762  -16.5659 C   0  0  0  0  0  0  0  0  0  0  0  0
   17.2918  -12.9325  -17.3074 O   0  0  0  0  0  0  0  0  0  0  0  0
   16.4766   -9.1896  -18.6590 C   0  0  0  0  0  0  0  0  0  0  0  0
   17.3678   -8.8962  -17.4691 C   0  0  1  0  0  0  0  0  0  0  0  0
   16.6177   -8.2292  -16.5041 O   0  0  0  0  0  0  0  0  0  0  0  0
   17.9282  -10.1969  -16.8837 C   0  0  2  0  0  0  0  0  0  0  0  0
   16.8024  -10.9157  -16.3438 N   0  0  0  0  0  0  0  0  0  0  0  0
   18.8351   -9.8405  -15.7721 C   0  0  0  0  0  0  0  0  0  0  0  0
   18.3522   -9.7595  -14.6181 O   0  0  0  0  0  0  0  0  0  0  0  0
   23.6152  -12.0497  -15.2780 C   0  0  0  0  0  0  0  0  0  0  0  0
   22.2516  -11.4373  -15.0303 C   0  0  0  0  0  0  0  0  0  0  0  0
   22.4326   -9.9423  -14.9987 C   0  0  2  0  0  0  0  0  0  0  0  0
   23.2519   -9.5944  -13.7799 C   0  0  0  0  0  0  0  0  0  0  0  0
   21.1270   -9.1943  -14.8968 C   0  0  2  0  0  0  0  0  0  0  0  0
   20.2186   -9.5877  -15.9524 N   0  0  0  0  0  0  0  0  0  0  0  0
   21.3124   -7.7310  -14.8441 C   0  0  0  0  0  0  0  0  0  0  0  0
   21.3480   -7.0600  -15.9066 O   0  0  0  0  0  0  0  0  0  0  0  0
   21.4544   -7.0289  -13.6555 O   0  0  0  0  0  0  0  0  0  0  0  0
  2  1  1  0
  3  4  2  0
  3  2  1  0
  6  5  1  6
  6  8  1  0
  7  6  1  0
  8  9  1  1
  9  3  1  0
 10  8  1  0
 10 17  1  0
 11 10  2  0
 12 13  1  0
 13 14  1  0
 14 16  1  0
 14 15  1  1
 16 17  1  6
 16 18  1  0
 18 19  2  0
 18 20  1  0
M  END
$$$$
