GTI.pdb
     RDKit          3D

 20 19  0  0  1  0  0  0  0  0999 V2000
   15.2464  -13.9314  -16.9741 N   0  0  0  0  0  0  0  0  0  0  0  0
   15.7077  -13.0931  -15.9062 C   0  0  0  0  0  0  0  0  0  0  0  0
   16.5968  -11.9898  -16.4096 C   0  0  0  0  0  0  0  0  0  0  0  0
   17.5626  -12.2195  -17.1674 O   0  0  0  0  0  0  0  0  0  0  0  0
   16.8977   -7.0509  -16.7699 C   0  0  0  0  0  0  0  0  0  0  0  0
   16.1612   -8.3229  -16.4018 C   0  0  1  0  0  0  0  0  0  0  0  0
   15.1415   -8.5313  -17.3268 O   0  0  0  0  0  0  0  0  0  0  0  0
   17.1191   -9.5191  -16.4066 C   0  0  2  0  0  0  0  0  0  0  0  0
   16.3370  -10.6653  -16.0192 N   0  0  0  0  0  0  0  0  0  0  0  0
   18.1479   -9.2807  -15.3722 C   0  0  0  0  0  0  0  0  0  0  0  0
   17.8021   -9.3445  -14.1689 O   0  0  0  0  0  0  0  0  0  0  0  0
   23.6986  -10.8064  -14.0214 C   0  0  0  0  0  0  0  0  0  0  0  0
   22.6947   -9.6983  -13.7768 C   0  0  0  0  0  0  0  0  0  0  0  0
   21.6118   -9.8398  -14.8142 C   0  0  2  0  0  0  0  0  0  0  0  0
   22.2448   -9.6927  -16.1764 C   0  0  0  0  0  0  0  0  0  0  0  0
   20.5416   -8.7838  -14.6944 C   0  0  2  0  0  0  0  0  0  0  0  0
   19.5002   -8.9849  -15.6790 N   0  0  0  0  0  0  0  0  0  0  0  0
   21.0875   -7.4133  -14.7395 C   0  0  0  0  0  0  0  0  0  0  0  0
   21.1513   -6.7942  -15.8318 O   0  0  0  0  0  0  0  0  0  0  0  0
   21.5491   -6.7457  -13.6138 O   0  0  0  0  0  0  0  0  0  0  0  0
  2  1  1  0
  3  4  2  0
  3  2  1  0
  6  5  1  6
  6  8  1  0
  7  6  1  0
  8  9  1  1
  9  3  1  0
 10  8  1  0
 10 17  1  0
 11 10  2  0
 12 13  1  0
 13 14  1  0
 14 16  1  0
 14 15  1  6
 16 17  1  6
 16 18  1  0
 18 19  2  0
 18 20  1  0
M  END
$$$$
