GTI.pdb
     RDKit          3D

 20 19  0  0  1  0  0  0  0  0999 V2000
   21.8109  -31.8954  -15.5250 N   0  0  0  0  0  0  0  0  0  0  0  0
   23.2263  -31.8537  -15.2995 C   0  0  0  0  0  0  0  0  0  0  0  0
   23.6686  -32.9247  -14.3411 C   0  0  0  0  0  0  0  0  0  0  0  0
   22.8460  -33.6327  -13.7232 O   0  0  0  0  0  0  0  0  0  0  0  0
   27.5937  -35.6595  -13.1153 C   0  0  0  0  0  0  0  0  0  0  0  0
   26.8239  -34.7095  -14.0103 C   0  0  1  0  0  0  0  0  0  0  0  0
   26.4125  -35.4018  -15.1461 O   0  0  0  0  0  0  0  0  0  0  0  0
   25.6030  -34.1478  -13.2738 C   0  0  2  0  0  0  0  0  0  0  0  0
   25.0419  -33.1368  -14.1332 N   0  0  0  0  0  0  0  0  0  0  0  0
   26.0798  -33.4990  -12.0340 C   0  0  0  0  0  0  0  0  0  0  0  0
   26.9174  -32.5720  -12.1366 O   0  0  0  0  0  0  0  0  0  0  0  0
   22.9434  -31.4421   -8.4636 C   0  0  0  0  0  0  0  0  0  0  0  0
   24.1349  -31.7366   -9.3520 C   0  0  0  0  0  0  0  0  0  0  0  0
   24.9519  -32.7997   -8.6655 C   0  0  2  0  0  0  0  0  0  0  0  0
   25.5294  -32.2061   -7.4037 C   0  0  0  0  0  0  0  0  0  0  0  0
   26.1046  -33.2891   -9.5059 C   0  0  2  0  0  0  0  0  0  0  0  0
   25.6342  -33.8765  -10.7420 N   0  0  0  0  0  0  0  0  0  0  0  0
   27.0006  -34.2001   -8.7670 C   0  0  0  0  0  0  0  0  0  0  0  0
   27.9453  -33.7367   -8.0792 O   0  0  0  0  0  0  0  0  0  0  0  0
   26.8588  -35.5805   -8.7863 O   0  0  0  0  0  0  0  0  0  0  0  0
  2  1  1  0
  3  4  2  0
  3  2  1  0
  6  5  1  1
  6  8  1  0
  7  6  1  0
  8  9  1  6
  9  3  1  0
 10  8  1  0
 10 17  1  0
 11 10  2  0
 12 13  1  0
 13 14  1  0
 14 16  1  0
 14 15  1  1
 16 17  1  6
 16 18  1  0
 18 19  2  0
 18 20  1  0
M  END
$$$$
