GTI.pdb
     RDKit          3D

 20 19  0  0  1  0  0  0  0  0999 V2000
   25.7619  -23.4279  -15.1849 N   0  0  0  0  0  0  0  0  0  0  0  0
   25.8463  -22.2989  -16.0648 C   0  0  0  0  0  0  0  0  0  0  0  0
   25.1977  -21.0799  -15.4693 C   0  0  0  0  0  0  0  0  0  0  0  0
   24.5466  -21.1368  -14.4051 O   0  0  0  0  0  0  0  0  0  0  0  0
   26.7513  -18.2395  -14.0829 C   0  0  0  0  0  0  0  0  0  0  0  0
   26.0385  -17.7219  -15.3159 C   0  0  1  0  0  0  0  0  0  0  0  0
   26.9264  -17.7480  -16.3880 O   0  0  0  0  0  0  0  0  0  0  0  0
   24.8154  -18.5891  -15.6333 C   0  0  2  0  0  0  0  0  0  0  0  0
   25.3255  -19.8436  -16.1247 N   0  0  0  0  0  0  0  0  0  0  0  0
   24.0617  -17.9299  -16.7208 C   0  0  0  0  0  0  0  0  0  0  0  0
   24.1241  -18.4281  -17.8694 O   0  0  0  0  0  0  0  0  0  0  0  0
   19.8647  -17.5825  -19.8843 C   0  0  0  0  0  0  0  0  0  0  0  0
   20.6775  -16.4671  -19.2590 C   0  0  0  0  0  0  0  0  0  0  0  0
   21.4674  -17.0704  -18.1273 C   0  0  2  0  0  0  0  0  0  0  0  0
   20.5048  -17.4271  -17.0210 C   0  0  0  0  0  0  0  0  0  0  0  0
   22.4887  -16.1214  -17.5521 C   0  0  2  0  0  0  0  0  0  0  0  0
   23.2763  -16.7661  -16.5233 N   0  0  0  0  0  0  0  0  0  0  0  0
   21.8885  -14.8588  -17.0787 C   0  0  0  0  0  0  0  0  0  0  0  0
   21.3483  -14.0706  -17.8956 O   0  0  0  0  0  0  0  0  0  0  0  0
   21.8844  -14.4769  -15.7444 O   0  0  0  0  0  0  0  0  0  0  0  0
  2  1  1  0
  3  4  2  0
  3  2  1  0
  6  5  1  1
  6  8  1  0
  7  6  1  0
  8  9  1  6
  9  3  1  0
 10  8  1  0
 10 17  1  0
 11 10  2  0
 12 13  1  0
 13 14  1  0
 14 16  1  0
 14 15  1  1
 16 17  1  1
 16 18  1  0
 18 19  2  0
 18 20  1  0
M  END
$$$$
