GTI.pdb
     RDKit          3D

 20 19  0  0  1  0  0  0  0  0999 V2000
   15.5071  -11.4154  -17.5146 N   0  0  0  0  0  0  0  0  0  0  0  0
   15.7223  -10.4287  -16.4968 C   0  0  0  0  0  0  0  0  0  0  0  0
   16.8993   -9.5487  -16.8152 C   0  0  0  0  0  0  0  0  0  0  0  0
   17.7558   -9.8794  -17.6619 O   0  0  0  0  0  0  0  0  0  0  0  0
   16.6590   -5.8870  -17.6323 C   0  0  0  0  0  0  0  0  0  0  0  0
   17.5341   -6.0079  -16.4012 C   0  0  1  0  0  0  0  0  0  0  0  0
   16.7549   -5.7598  -15.2743 O   0  0  0  0  0  0  0  0  0  0  0  0
   18.1450   -7.4105  -16.3117 C   0  0  2  0  0  0  0  0  0  0  0  0
   17.0421   -8.3222  -16.1447 N   0  0  0  0  0  0  0  0  0  0  0  0
   18.9858   -7.4626  -15.0969 C   0  0  0  0  0  0  0  0  0  0  0  0
   18.5970   -8.1715  -14.1390 O   0  0  0  0  0  0  0  0  0  0  0  0
   23.4066  -10.0555  -13.3856 C   0  0  0  0  0  0  0  0  0  0  0  0
   22.8556   -8.6787  -13.0750 C   0  0  0  0  0  0  0  0  0  0  0  0
   21.8662   -8.3387  -14.1587 C   0  0  2  0  0  0  0  0  0  0  0  0
   22.6104   -8.2742  -15.4701 C   0  0  0  0  0  0  0  0  0  0  0  0
   21.2004   -7.0019  -13.9483 C   0  0  2  0  0  0  0  0  0  0  0  0
   20.2051   -6.7504  -14.9683 N   0  0  0  0  0  0  0  0  0  0  0  0
   22.1702   -5.8947  -13.8377 C   0  0  0  0  0  0  0  0  0  0  0  0
   22.4934   -5.2337  -14.8570 O   0  0  0  0  0  0  0  0  0  0  0  0
   22.7655   -5.5277  -12.6390 O   0  0  0  0  0  0  0  0  0  0  0  0
  2  1  1  0
  3  4  2  0
  3  2  1  0
  6  5  1  6
  6  8  1  0
  7  6  1  0
  8  9  1  1
  9  3  1  0
 10  8  1  0
 10 17  1  0
 11 10  2  0
 12 13  1  0
 13 14  1  0
 14 16  1  0
 14 15  1  6
 16 17  1  6
 16 18  1  0
 18 19  2  0
 18 20  1  0
M  END
$$$$
