NQK.pdb
     RDKit          3D

 27 26  0  0  1  0  0  0  0  0999 V2000
   14.4047  -12.2241  -15.5265 N   0  0  0  0  0  0  0  0  0  0  0  0
   13.5674  -11.5481  -14.6160 C   0  0  0  0  0  0  0  0  0  0  0  0
   12.3371  -11.3846  -14.9270 O   0  0  0  0  0  0  0  0  0  0  0  0
   14.1296  -11.0511  -13.3379 C   0  0  0  0  0  0  0  0  0  0  0  0
   15.5973  -11.2920  -13.2222 C   0  0  2  0  0  0  0  0  0  0  0  0
   15.9403  -12.6663  -12.9772 N   0  0  0  0  0  0  0  0  0  0  0  0
   16.2418  -10.4098  -12.2176 C   0  0  0  0  0  0  0  0  0  0  0  0
   16.0302  -10.5813  -10.9753 O   0  0  0  0  0  0  0  0  0  0  0  0
   21.1063   -7.0145  -13.6924 N   0  0  0  0  0  0  0  0  0  0  0  0
   21.0239   -6.5933  -12.3418 C   0  0  0  0  0  0  0  0  0  0  0  0
   21.9228   -5.8413  -11.8981 O   0  0  0  0  0  0  0  0  0  0  0  0
   19.8695   -7.0593  -11.4933 C   0  0  0  0  0  0  0  0  0  0  0  0
   18.9707   -7.9188  -12.3131 C   0  0  0  0  0  0  0  0  0  0  0  0
   17.7915   -8.5024  -11.5889 C   0  0  2  0  0  0  0  0  0  0  0  0
   17.1089   -9.3504  -12.5763 N   0  0  0  0  0  0  0  0  0  0  0  0
   16.8917   -7.3976  -11.1621 C   0  0  0  0  0  0  0  0  0  0  0  0
   16.2704   -6.7504  -12.0142 O   0  0  0  0  0  0  0  0  0  0  0  0
   16.6991   -7.0338   -9.8114 N   0  0  0  0  0  0  0  0  0  0  0  0
   15.9218   -5.8952   -9.3711 C   0  0  1  0  0  0  0  0  0  0  0  0
   14.9125   -6.3521   -8.3565 C   0  0  0  0  0  0  0  0  0  0  0  0
   13.6943   -6.9792   -8.9161 C   0  0  0  0  0  0  0  0  0  0  0  0
   12.7813   -7.3973   -7.7866 C   0  0  0  0  0  0  0  0  0  0  0  0
   11.4793   -7.9900   -8.3371 C   0  0  0  0  0  0  0  0  0  0  0  0
   10.5734   -8.2991   -7.2533 N   0  0  0  0  0  0  0  0  0  0  0  0
   16.7507   -4.7706   -8.9203 C   0  0  0  0  0  0  0  0  0  0  0  0
   16.2077   -3.5262   -8.6320 O   0  0  0  0  0  0  0  0  0  0  0  0
   18.0156   -4.8394   -8.7580 O   0  0  0  0  0  0  0  0  0  0  0  0
  2  1  1  0
  3  2  2  0
  4  2  1  0
  5  6  1  1
  5  4  1  0
  7  5  1  0
  8  7  2  0
  9 10  1  0
 10 11  2  0
 10 12  1  0
 12 13  1  0
 14 13  1  6
 14 15  1  0
 15  7  1  0
 16 18  1  0
 16 14  1  0
 17 16  2  0
 19 18  1  0
 19 25  1  0
 19 20  1  1
 21 20  1  0
 22 21  1  0
 23 24  1  0
 23 22  1  0
 25 26  1  0
 27 25  2  0
M  END
$$$$
