NQK.pdb
     RDKit          3D

 27 26  0  0  1  0  0  0  0  0999 V2000
   23.6455  -13.1796  -19.5361 N   0  0  0  0  0  0  0  0  0  0  0  0
   23.5113  -11.7779  -19.6008 C   0  0  0  0  0  0  0  0  0  0  0  0
   24.1118  -11.1521  -20.5415 O   0  0  0  0  0  0  0  0  0  0  0  0
   22.6873  -11.0760  -18.5885 C   0  0  0  0  0  0  0  0  0  0  0  0
   23.3449   -9.8436  -18.0647 C   0  0  2  0  0  0  0  0  0  0  0  0
   24.5903  -10.0940  -17.3919 N   0  0  0  0  0  0  0  0  0  0  0  0
   22.4430   -9.0390  -17.2035 C   0  0  0  0  0  0  0  0  0  0  0  0
   21.9628   -9.5295  -16.1329 O   0  0  0  0  0  0  0  0  0  0  0  0
   23.2033   -5.1572  -14.0823 N   0  0  0  0  0  0  0  0  0  0  0  0
   22.0722   -4.3564  -14.3783 C   0  0  0  0  0  0  0  0  0  0  0  0
   21.6638   -3.5582  -13.5028 O   0  0  0  0  0  0  0  0  0  0  0  0
   21.4054   -4.4904  -15.7227 C   0  0  0  0  0  0  0  0  0  0  0  0
   22.0673   -5.5788  -16.4947 C   0  0  0  0  0  0  0  0  0  0  0  0
   21.2899   -6.8586  -16.6103 C   0  0  2  0  0  0  0  0  0  0  0  0
   22.0732   -7.7094  -17.5174 N   0  0  0  0  0  0  0  0  0  0  0  0
   19.9620   -6.5644  -17.2126 C   0  0  0  0  0  0  0  0  0  0  0  0
   19.8981   -6.1160  -18.3640 O   0  0  0  0  0  0  0  0  0  0  0  0
   18.7412   -6.7706  -16.5339 N   0  0  0  0  0  0  0  0  0  0  0  0
   17.4359   -6.4775  -17.0858 C   0  0  1  0  0  0  0  0  0  0  0  0
   16.4096   -7.3363  -16.4030 C   0  0  0  0  0  0  0  0  0  0  0  0
   15.0203   -7.1612  -16.8822 C   0  0  0  0  0  0  0  0  0  0  0  0
   14.1037   -8.0821  -16.1102 C   0  0  0  0  0  0  0  0  0  0  0  0
   12.6644   -7.9652  -16.6242 C   0  0  0  0  0  0  0  0  0  0  0  0
   11.7599   -8.6683  -15.7421 N   0  0  0  0  0  0  0  0  0  0  0  0
   17.1139   -5.0453  -17.0763 C   0  0  0  0  0  0  0  0  0  0  0  0
   17.6740   -4.1719  -16.1544 O   0  0  0  0  0  0  0  0  0  0  0  0
   16.3082   -4.4919  -17.8982 O   0  0  0  0  0  0  0  0  0  0  0  0
  2  1  1  0
  3  2  2  0
  4  2  1  0
  5  6  1  1
  5  4  1  0
  7  5  1  0
  8  7  2  0
  9 10  1  0
 10 11  2  0
 10 12  1  0
 12 13  1  0
 14 13  1  6
 14 15  1  0
 15  7  1  0
 16 18  1  0
 16 14  1  0
 17 16  2  0
 19 18  1  0
 19 25  1  0
 19 20  1  1
 21 20  1  0
 22 21  1  0
 23 24  1  0
 23 22  1  0
 25 26  1  0
 27 25  2  0
M  END
$$$$
