NQK.pdb
     RDKit          3D

 27 26  0  0  1  0  0  0  0  0999 V2000
   27.5775  -12.7098  -15.3564 N   0  0  0  0  0  0  0  0  0  0  0  0
   27.7399  -11.9693  -16.5448 C   0  0  0  0  0  0  0  0  0  0  0  0
   28.8748  -12.0068  -17.1345 O   0  0  0  0  0  0  0  0  0  0  0  0
   26.6040  -11.1766  -17.0720 C   0  0  0  0  0  0  0  0  0  0  0  0
   25.3870  -11.2739  -16.2147 C   0  0  2  0  0  0  0  0  0  0  0  0
   24.9015  -12.6168  -16.0499 N   0  0  0  0  0  0  0  0  0  0  0  0
   24.2944  -10.3802  -16.6734 C   0  0  0  0  0  0  0  0  0  0  0  0
   23.5604  -10.7087  -17.6586 O   0  0  0  0  0  0  0  0  0  0  0  0
   19.3216  -10.2179  -15.6537 N   0  0  0  0  0  0  0  0  0  0  0  0
   20.1136   -9.9172  -14.5176 C   0  0  0  0  0  0  0  0  0  0  0  0
   19.6702  -10.2234  -13.3862 O   0  0  0  0  0  0  0  0  0  0  0  0
   21.4491   -9.2460  -14.7067 C   0  0  0  0  0  0  0  0  0  0  0  0
   21.6586   -8.9644  -16.1542 C   0  0  0  0  0  0  0  0  0  0  0  0
   22.9324   -8.2472  -16.4989 C   0  0  2  0  0  0  0  0  0  0  0  0
   24.0134   -9.1386  -16.0550 N   0  0  0  0  0  0  0  0  0  0  0  0
   22.9871   -6.9686  -15.7409 C   0  0  0  0  0  0  0  0  0  0  0  0
   23.5231   -6.9405  -14.6260 O   0  0  0  0  0  0  0  0  0  0  0  0
   22.4516   -5.7562  -16.2279 N   0  0  0  0  0  0  0  0  0  0  0  0
   22.5699   -4.4791  -15.5576 C   0  0  1  0  0  0  0  0  0  0  0  0
   21.9085   -3.4216  -16.3950 C   0  0  0  0  0  0  0  0  0  0  0  0
   21.9950   -2.0453  -15.8576 C   0  0  0  0  0  0  0  0  0  0  0  0
   21.4084   -1.0778  -16.8597 C   0  0  0  0  0  0  0  0  0  0  0  0
   21.4535    0.3547  -16.3161 C   0  0  0  0  0  0  0  0  0  0  0  0
   20.7968    1.2585  -17.2341 N   0  0  0  0  0  0  0  0  0  0  0  0
   22.1041   -4.5129  -14.1659 C   0  0  0  0  0  0  0  0  0  0  0  0
   22.8470   -3.9670  -13.1283 O   0  0  0  0  0  0  0  0  0  0  0  0
   20.9985   -5.0360  -13.7984 O   0  0  0  0  0  0  0  0  0  0  0  0
  2  1  1  0
  3  2  2  0
  4  2  1  0
  5  6  1  6
  5  4  1  0
  7  5  1  0
  8  7  2  0
  9 10  1  0
 10 11  2  0
 10 12  1  0
 12 13  1  0
 14 13  1  1
 14 15  1  0
 15  7  1  0
 16 18  1  0
 16 14  1  0
 17 16  2  0
 19 18  1  0
 19 25  1  0
 19 20  1  6
 21 20  1  0
 22 21  1  0
 23 24  1  0
 23 22  1  0
 25 26  1  0
 27 25  2  0
M  END
$$$$
