NQK.pdb
     RDKit          3D

 27 26  0  0  1  0  0  0  0  0999 V2000
   16.7837  -23.5223  -11.6164 N   0  0  0  0  0  0  0  0  0  0  0  0
   16.4536  -22.3905  -12.3892 C   0  0  0  0  0  0  0  0  0  0  0  0
   15.2614  -22.2903  -12.8429 O   0  0  0  0  0  0  0  0  0  0  0  0
   17.4855  -21.3596  -12.6518 C   0  0  0  0  0  0  0  0  0  0  0  0
   18.7934  -21.6772  -12.0082 C   0  0  2  0  0  0  0  0  0  0  0  0
   18.7868  -21.5250  -10.5789 N   0  0  0  0  0  0  0  0  0  0  0  0
   19.9209  -20.9187  -12.6052 C   0  0  0  0  0  0  0  0  0  0  0  0
   19.7699  -19.7065  -12.9587 O   0  0  0  0  0  0  0  0  0  0  0  0
   25.6783  -23.0830  -12.4251 N   0  0  0  0  0  0  0  0  0  0  0  0
   25.9419  -22.0067  -13.3085 C   0  0  0  0  0  0  0  0  0  0  0  0
   27.1175  -21.8421  -13.7103 O   0  0  0  0  0  0  0  0  0  0  0  0
   24.8108  -21.1055  -13.7307 C   0  0  0  0  0  0  0  0  0  0  0  0
   23.5387  -21.5979  -13.1325 C   0  0  0  0  0  0  0  0  0  0  0  0
   22.3311  -20.7387  -13.3755 C   0  0  2  0  0  0  0  0  0  0  0  0
   21.2000  -21.4884  -12.8112 N   0  0  0  0  0  0  0  0  0  0  0  0
   22.1457  -20.5698  -14.8417 C   0  0  0  0  0  0  0  0  0  0  0  0
   21.7610  -21.5275  -15.5241 O   0  0  0  0  0  0  0  0  0  0  0  0
   22.3879  -19.3541  -15.5178 N   0  0  0  0  0  0  0  0  0  0  0  0
   22.2426  -19.1662  -16.9453 C   0  0  1  0  0  0  0  0  0  0  0  0
   22.0669  -17.7021  -17.2328 C   0  0  0  0  0  0  0  0  0  0  0  0
   22.0412  -17.3391  -18.6673 C   0  0  0  0  0  0  0  0  0  0  0  0
   20.6573  -16.8581  -19.0382 C   0  0  0  0  0  0  0  0  0  0  0  0
   20.5901  -16.5068  -20.5288 C   0  0  0  0  0  0  0  0  0  0  0  0
   19.2310  -16.1892  -20.9067 N   0  0  0  0  0  0  0  0  0  0  0  0
   23.3143  -19.8001  -17.7227 C   0  0  0  0  0  0  0  0  0  0  0  0
   23.0775  -20.3905  -18.9564 O   0  0  0  0  0  0  0  0  0  0  0  0
   24.5308  -19.8613  -17.3388 O   0  0  0  0  0  0  0  0  0  0  0  0
  2  1  1  0
  3  2  2  0
  4  2  1  0
  5  6  1  1
  5  4  1  0
  7  5  1  0
  8  7  2  0
  9 10  1  0
 10 11  2  0
 10 12  1  0
 12 13  1  0
 14 13  1  6
 14 15  1  0
 15  7  1  0
 16 18  1  0
 16 14  1  0
 17 16  2  0
 19 18  1  0
 19 25  1  0
 19 20  1  1
 21 20  1  0
 22 21  1  0
 23 24  1  0
 23 22  1  0
 25 26  1  0
 27 25  2  0
M  END
$$$$
