NQK.pdb
     RDKit          3D

 27 26  0  0  1  0  0  0  0  0999 V2000
   17.0266  -11.4431  -17.9734 N   0  0  0  0  0  0  0  0  0  0  0  0
   15.9912  -10.9371  -17.1615 C   0  0  0  0  0  0  0  0  0  0  0  0
   14.8310  -10.7855  -17.6794 O   0  0  0  0  0  0  0  0  0  0  0  0
   16.2725  -10.5986  -15.7463 C   0  0  0  0  0  0  0  0  0  0  0  0
   17.6939  -10.8455  -15.3668 C   0  0  2  0  0  0  0  0  0  0  0  0
   18.0332  -12.2390  -15.2704 N   0  0  0  0  0  0  0  0  0  0  0  0
   18.0848  -10.1298  -14.1267 C   0  0  0  0  0  0  0  0  0  0  0  0
   17.9039  -10.6641  -12.9869 O   0  0  0  0  0  0  0  0  0  0  0  0
   21.8848   -5.3314  -14.3661 N   0  0  0  0  0  0  0  0  0  0  0  0
   21.7887   -5.4000  -12.9538 C   0  0  0  0  0  0  0  0  0  0  0  0
   22.5323   -4.6576  -12.2710 O   0  0  0  0  0  0  0  0  0  0  0  0
   20.8051   -6.3538  -12.3273 C   0  0  0  0  0  0  0  0  0  0  0  0
   20.1262   -7.1355  -13.3981 C   0  0  0  0  0  0  0  0  0  0  0  0
   19.1287   -8.1541  -12.9258 C   0  0  2  0  0  0  0  0  0  0  0  0
   18.6677   -8.8402  -14.1410 N   0  0  0  0  0  0  0  0  0  0  0  0
   17.9893   -7.4504  -12.2785 C   0  0  0  0  0  0  0  0  0  0  0  0
   17.2091   -6.7841  -12.9701 O   0  0  0  0  0  0  0  0  0  0  0  0
   17.7383   -7.4976  -10.8898 N   0  0  0  0  0  0  0  0  0  0  0  0
   16.6542   -6.8040  -10.2279 C   0  0  1  0  0  0  0  0  0  0  0  0
   15.6857   -7.8141   -9.6815 C   0  0  0  0  0  0  0  0  0  0  0  0
   14.5357   -7.2493   -8.9407 C   0  0  0  0  0  0  0  0  0  0  0  0
   13.6854   -8.3758   -8.3999 C   0  0  0  0  0  0  0  0  0  0  0  0
   12.5217   -7.8223   -7.5698 C   0  0  0  0  0  0  0  0  0  0  0  0
   11.6669   -8.9008   -7.1260 N   0  0  0  0  0  0  0  0  0  0  0  0
   17.1160   -5.8258   -9.2355 C   0  0  0  0  0  0  0  0  0  0  0  0
   16.2946   -4.8097   -8.7672 O   0  0  0  0  0  0  0  0  0  0  0  0
   18.2882   -5.8260   -8.7286 O   0  0  0  0  0  0  0  0  0  0  0  0
  2  1  1  0
  3  2  2  0
  4  2  1  0
  5  6  1  1
  5  4  1  0
  7  5  1  0
  8  7  2  0
  9 10  1  0
 10 11  2  0
 10 12  1  0
 12 13  1  0
 14 13  1  6
 14 15  1  0
 15  7  1  0
 16 18  1  0
 16 14  1  0
 17 16  2  0
 19 18  1  0
 19 25  1  0
 19 20  1  1
 21 20  1  0
 22 21  1  0
 23 24  1  0
 23 22  1  0
 25 26  1  0
 27 25  2  0
M  END
$$$$
