VNQ.pdb
     RDKit          3D

 25 24  0  0  1  0  0  0  0  0999 V2000
    8.2567  -12.2722   18.9750 C   0  0  0  0  0  0  0  0  0  0  0  0
    8.0311  -13.4083   19.9815 C   0  0  1  0  0  0  0  0  0  0  0  0
    7.5801  -14.6144   19.1730 C   0  0  0  0  0  0  0  0  0  0  0  0
    9.3240  -13.7570   20.6360 C   0  0  2  0  0  0  0  0  0  0  0  0
   10.3344  -13.9960   19.6640 N   0  0  0  0  0  0  0  0  0  0  0  0
    9.2011  -14.8587   21.6320 C   0  0  0  0  0  0  0  0  0  0  0  0
    8.1821  -14.8721   22.3610 O   0  0  0  0  0  0  0  0  0  0  0  0
   10.1551  -18.1374   19.5907 N   0  0  0  0  0  0  0  0  0  0  0  0
   10.5972  -18.6134   20.8733 C   0  0  0  0  0  0  0  0  0  0  0  0
   11.6570  -19.2312   20.9872 O   0  0  0  0  0  0  0  0  0  0  0  0
    9.7242  -18.3233   22.0171 C   0  0  0  0  0  0  0  0  0  0  0  0
   10.1532  -17.0126   22.6406 C   0  0  2  0  0  0  0  0  0  0  0  0
   10.1722  -15.8744   21.7873 N   0  0  0  0  0  0  0  0  0  0  0  0
   11.2355  -17.0942   23.6066 C   0  0  0  0  0  0  0  0  0  0  0  0
   11.9593  -18.1324   23.5888 O   0  0  0  0  0  0  0  0  0  0  0  0
   10.4162  -13.4388   28.1085 N   0  0  0  0  0  0  0  0  0  0  0  0
   10.0795  -14.6801   28.6959 C   0  0  0  0  0  0  0  0  0  0  0  0
   10.0414  -14.6800   29.9720 O   0  0  0  0  0  0  0  0  0  0  0  0
    9.7878  -15.9186   27.9422 C   0  0  0  0  0  0  0  0  0  0  0  0
   10.0610  -15.6647   26.4800 C   0  0  0  0  0  0  0  0  0  0  0  0
   11.3262  -16.2820   25.9989 C   0  0  2  0  0  0  0  0  0  0  0  0
   11.5754  -16.1330   24.5776 N   0  0  0  0  0  0  0  0  0  0  0  0
   11.4196  -17.7313   26.3937 C   0  0  0  0  0  0  0  0  0  0  0  0
   12.2525  -18.1738   27.3933 O   0  0  0  0  0  0  0  0  0  0  0  0
   10.7168  -18.5933   25.8002 O   0  0  0  0  0  0  0  0  0  0  0  0
  2  1  1  6
  2  4  1  0
  3  2  1  0
  4  6  1  0
  4  5  1  6
  6 13  1  0
  7  6  2  0
  8  9  1  0
  9 10  2  0
 12 11  1  6
 11  9  1  0
 13 12  1  0
 14 12  1  0
 14 15  2  0
 16 17  1  0
 17 18  2  0
 17 19  1  0
 19 20  1  0
 21 20  1  6
 21 22  1  0
 21 23  1  0
 22 14  1  0
 23 24  1  0
 25 23  2  0
M  END
$$$$
