VNQ.pdb
     RDKit          3D

 25 24  0  0  1  0  0  0  0  0999 V2000
    7.6592  -13.0259   17.9595 C   0  0  0  0  0  0  0  0  0  0  0  0
    8.5930  -13.2781   19.1508 C   0  0  1  0  0  0  0  0  0  0  0  0
    8.3495  -12.1443   20.1342 C   0  0  0  0  0  0  0  0  0  0  0  0
    8.2101  -14.5526   19.8219 C   0  0  2  0  0  0  0  0  0  0  0  0
    6.8036  -14.6147   20.0242 N   0  0  0  0  0  0  0  0  0  0  0  0
    8.9899  -14.8216   21.0630 C   0  0  0  0  0  0  0  0  0  0  0  0
    9.1090  -13.8867   21.8887 O   0  0  0  0  0  0  0  0  0  0  0  0
   11.0667  -16.5059   25.5356 N   0  0  0  0  0  0  0  0  0  0  0  0
   10.9473  -17.5121   24.5158 C   0  0  0  0  0  0  0  0  0  0  0  0
   11.6853  -18.4986   24.5116 O   0  0  0  0  0  0  0  0  0  0  0  0
    9.9110  -17.2956   23.4989 C   0  0  0  0  0  0  0  0  0  0  0  0
   10.4776  -16.4218   22.4007 C   0  0  2  0  0  0  0  0  0  0  0  0
    9.5931  -16.0691   21.3437 N   0  0  0  0  0  0  0  0  0  0  0  0
   11.8475  -16.7052   22.0081 C   0  0  0  0  0  0  0  0  0  0  0  0
   12.0260  -17.4729   21.0177 O   0  0  0  0  0  0  0  0  0  0  0  0
   15.7597  -14.9625   18.4836 N   0  0  0  0  0  0  0  0  0  0  0  0
   14.7538  -14.2615   19.1879 C   0  0  0  0  0  0  0  0  0  0  0  0
   14.4207  -13.1396   18.6778 O   0  0  0  0  0  0  0  0  0  0  0  0
   14.1037  -14.7383   20.4277 C   0  0  0  0  0  0  0  0  0  0  0  0
   14.6732  -16.0914   20.7769 C   0  0  0  0  0  0  0  0  0  0  0  0
   14.3640  -16.5223   22.1669 C   0  0  2  0  0  0  0  0  0  0  0  0
   13.0191  -16.2148   22.6156 N   0  0  0  0  0  0  0  0  0  0  0  0
   15.3735  -15.9906   23.1484 C   0  0  0  0  0  0  0  0  0  0  0  0
   15.0110  -15.3414   24.3042 O   0  0  0  0  0  0  0  0  0  0  0  0
   16.6060  -16.1337   22.9255 O   0  0  0  0  0  0  0  0  0  0  0  0
  2  1  1  6
  2  4  1  0
  3  2  1  0
  4  6  1  0
  4  5  1  1
  6 13  1  0
  7  6  2  0
  8  9  1  0
  9 10  2  0
 12 11  1  6
 11  9  1  0
 13 12  1  0
 14 12  1  0
 14 15  2  0
 16 17  1  0
 17 18  2  0
 17 19  1  0
 19 20  1  0
 21 20  1  6
 21 22  1  0
 21 23  1  0
 22 14  1  0
 23 24  1  0
 25 23  2  0
M  END
$$$$
