VNQ.pdb
     RDKit          3D

 25 24  0  0  1  0  0  0  0  0999 V2000
    7.8906  -13.6476   18.1724 C   0  0  0  0  0  0  0  0  0  0  0  0
    8.4083  -13.2166   19.5511 C   0  0  1  0  0  0  0  0  0  0  0  0
    7.2841  -12.4284   20.2042 C   0  0  0  0  0  0  0  0  0  0  0  0
    8.6625  -14.4243   20.3868 C   0  0  2  0  0  0  0  0  0  0  0  0
    7.7025  -15.4380   20.1155 N   0  0  0  0  0  0  0  0  0  0  0  0
    8.7922  -14.1181   21.8394 C   0  0  0  0  0  0  0  0  0  0  0  0
    9.7596  -13.4079   22.1996 O   0  0  0  0  0  0  0  0  0  0  0  0
    7.8008  -12.4611   26.9192 N   0  0  0  0  0  0  0  0  0  0  0  0
    7.0788  -13.5467   26.3133 C   0  0  0  0  0  0  0  0  0  0  0  0
    6.6163  -14.4592   26.9997 O   0  0  0  0  0  0  0  0  0  0  0  0
    6.9296  -13.5014   24.8537 C   0  0  0  0  0  0  0  0  0  0  0  0
    7.9311  -14.4489   24.2295 C   0  0  2  0  0  0  0  0  0  0  0  0
    7.8831  -14.5890   22.8145 N   0  0  0  0  0  0  0  0  0  0  0  0
    8.2015  -15.6667   24.9745 C   0  0  0  0  0  0  0  0  0  0  0  0
    7.2975  -16.5524   24.9970 O   0  0  0  0  0  0  0  0  0  0  0  0
   11.8345  -19.0287   22.4017 N   0  0  0  0  0  0  0  0  0  0  0  0
   12.2703  -18.2393   23.4907 C   0  0  0  0  0  0  0  0  0  0  0  0
   13.5017  -18.3773   23.7980 O   0  0  0  0  0  0  0  0  0  0  0  0
   11.4112  -17.3106   24.2566 C   0  0  0  0  0  0  0  0  0  0  0  0
   10.4680  -18.1236   25.1088 C   0  0  0  0  0  0  0  0  0  0  0  0
    9.7388  -17.3136   26.1215 C   0  0  2  0  0  0  0  0  0  0  0  0
    9.3751  -15.9781   25.6872 N   0  0  0  0  0  0  0  0  0  0  0  0
   10.4900  -17.2498   27.4241 C   0  0  0  0  0  0  0  0  0  0  0  0
   10.9212  -18.3747   28.0855 O   0  0  0  0  0  0  0  0  0  0  0  0
   10.7470  -16.1334   27.9501 O   0  0  0  0  0  0  0  0  0  0  0  0
  2  1  1  6
  2  4  1  0
  3  2  1  0
  4  6  1  0
  4  5  1  1
  6 13  1  0
  7  6  2  0
  8  9  1  0
  9 10  2  0
 12 11  1  1
 11  9  1  0
 13 12  1  0
 14 12  1  0
 14 15  2  0
 16 17  1  0
 17 18  2  0
 17 19  1  0
 19 20  1  0
 21 20  1  6
 21 22  1  0
 21 23  1  0
 22 14  1  0
 23 24  1  0
 25 23  2  0
M  END
$$$$
