VNQ.pdb
     RDKit          3D

 25 24  0  0  1  0  0  0  0  0999 V2000
    7.7039  -12.6631   19.6498 C   0  0  0  0  0  0  0  0  0  0  0  0
    7.6448  -13.6870   20.7912 C   0  0  1  0  0  0  0  0  0  0  0  0
    6.8783  -14.8850   20.2535 C   0  0  0  0  0  0  0  0  0  0  0  0
    9.0248  -14.1417   21.1235 C   0  0  2  0  0  0  0  0  0  0  0  0
    9.6999  -14.6009   19.9589 N   0  0  0  0  0  0  0  0  0  0  0  0
    9.0675  -15.1207   22.2461 C   0  0  0  0  0  0  0  0  0  0  0  0
    8.4520  -14.8269   23.2973 O   0  0  0  0  0  0  0  0  0  0  0  0
   11.2704  -19.1198   20.5371 N   0  0  0  0  0  0  0  0  0  0  0  0
   11.2974  -18.9366   21.9628 C   0  0  0  0  0  0  0  0  0  0  0  0
   12.3657  -18.9015   22.5755 O   0  0  0  0  0  0  0  0  0  0  0  0
    9.9979  -18.7965   22.6309 C   0  0  0  0  0  0  0  0  0  0  0  0
    9.8643  -17.3814   23.1505 C   0  0  2  0  0  0  0  0  0  0  0  0
    9.7638  -16.3493   22.1766 N   0  0  0  0  0  0  0  0  0  0  0  0
   10.6521  -17.0616   24.3288 C   0  0  0  0  0  0  0  0  0  0  0  0
   11.5322  -16.1588   24.2174 O   0  0  0  0  0  0  0  0  0  0  0  0
   10.3227  -13.1233   27.1901 N   0  0  0  0  0  0  0  0  0  0  0  0
    9.6923  -14.0631   28.0378 C   0  0  0  0  0  0  0  0  0  0  0  0
    8.8020  -13.5777   28.8133 O   0  0  0  0  0  0  0  0  0  0  0  0
   10.0014  -15.5090   28.0717 C   0  0  0  0  0  0  0  0  0  0  0  0
   11.1331  -15.7792   27.1108 C   0  0  0  0  0  0  0  0  0  0  0  0
   11.2886  -17.2191   26.7703 C   0  0  2  0  0  0  0  0  0  0  0  0
   10.5461  -17.6530   25.6020 N   0  0  0  0  0  0  0  0  0  0  0  0
   10.9702  -18.1031   27.9461 C   0  0  0  0  0  0  0  0  0  0  0  0
   11.6738  -18.0478   29.1254 O   0  0  0  0  0  0  0  0  0  0  0  0
   10.0260  -18.9350   27.8724 O   0  0  0  0  0  0  0  0  0  0  0  0
  2  1  1  6
  2  4  1  0
  3  2  1  0
  4  6  1  0
  4  5  1  6
  6 13  1  0
  7  6  2  0
  8  9  1  0
  9 10  2  0
 12 11  1  6
 11  9  1  0
 13 12  1  0
 14 12  1  0
 14 15  2  0
 16 17  1  0
 17 18  2  0
 17 19  1  0
 19 20  1  0
 21 20  1  1
 21 22  1  0
 21 23  1  0
 22 14  1  0
 23 24  1  0
 25 23  2  0
M  END
$$$$
