VNQ.pdb
     RDKit          3D

 25 24  0  0  1  0  0  0  0  0999 V2000
    8.1244  -12.3602   20.9214 C   0  0  0  0  0  0  0  0  0  0  0  0
    7.7392  -13.5082   19.9788 C   0  0  1  0  0  0  0  0  0  0  0  0
    8.1131  -13.0553   18.5763 C   0  0  0  0  0  0  0  0  0  0  0  0
    8.5566  -14.7121   20.3012 C   0  0  2  0  0  0  0  0  0  0  0  0
    8.3625  -15.7304   19.3274 N   0  0  0  0  0  0  0  0  0  0  0  0
    8.3654  -15.1967   21.6973 C   0  0  0  0  0  0  0  0  0  0  0  0
    8.5573  -14.3794   22.6276 O   0  0  0  0  0  0  0  0  0  0  0  0
    5.4449  -18.6729   21.5769 N   0  0  0  0  0  0  0  0  0  0  0  0
    5.7762  -18.2497   22.9103 C   0  0  0  0  0  0  0  0  0  0  0  0
    4.9284  -17.7299   23.6375 O   0  0  0  0  0  0  0  0  0  0  0  0
    7.1612  -18.4710   23.3435 C   0  0  0  0  0  0  0  0  0  0  0  0
    7.9092  -17.1567   23.2828 C   0  0  2  0  0  0  0  0  0  0  0  0
    7.9828  -16.5208   22.0122 N   0  0  0  0  0  0  0  0  0  0  0  0
    9.1067  -17.0702   24.1011 C   0  0  0  0  0  0  0  0  0  0  0  0
    9.9736  -16.2054   23.7809 O   0  0  0  0  0  0  0  0  0  0  0  0
    8.9935  -14.2312   28.9558 N   0  0  0  0  0  0  0  0  0  0  0  0
   10.0295  -13.9961   28.0227 C   0  0  0  0  0  0  0  0  0  0  0  0
   10.6116  -12.8656   28.1368 O   0  0  0  0  0  0  0  0  0  0  0  0
   10.4486  -14.9467   26.9702 C   0  0  0  0  0  0  0  0  0  0  0  0
    9.5378  -16.1488   27.0206 C   0  0  0  0  0  0  0  0  0  0  0  0
   10.1268  -17.3636   26.3955 C   0  0  2  0  0  0  0  0  0  0  0  0
    9.4177  -17.8538   25.2287 N   0  0  0  0  0  0  0  0  0  0  0  0
   10.3045  -18.4712   27.3989 C   0  0  0  0  0  0  0  0  0  0  0  0
    9.7180  -19.7052   27.2504 O   0  0  0  0  0  0  0  0  0  0  0  0
   11.0142  -18.2858   28.4241 O   0  0  0  0  0  0  0  0  0  0  0  0
  2  1  1  1
  2  4  1  0
  3  2  1  0
  4  6  1  0
  4  5  1  6
  6 13  1  0
  7  6  2  0
  8  9  1  0
  9 10  2  0
 12 11  1  6
 11  9  1  0
 13 12  1  0
 14 12  1  0
 14 15  2  0
 16 17  1  0
 17 18  2  0
 17 19  1  0
 19 20  1  0
 21 20  1  1
 21 22  1  0
 21 23  1  0
 22 14  1  0
 23 24  1  0
 25 23  2  0
M  END
$$$$
