VNQ.pdb
     RDKit          3D

 25 24  0  0  1  0  0  0  0  0999 V2000
    8.2976  -12.8132   17.9774 C   0  0  0  0  0  0  0  0  0  0  0  0
    8.1797  -13.0450   19.4897 C   0  0  1  0  0  0  0  0  0  0  0  0
    6.7283  -13.4120   19.7554 C   0  0  0  0  0  0  0  0  0  0  0  0
    9.0226  -14.2101   19.8816 C   0  0  2  0  0  0  0  0  0  0  0  0
    9.0921  -15.1614   18.8267 N   0  0  0  0  0  0  0  0  0  0  0  0
    8.6241  -14.8129   21.1849 C   0  0  0  0  0  0  0  0  0  0  0  0
    8.5998  -14.0634   22.1887 O   0  0  0  0  0  0  0  0  0  0  0  0
    5.6221  -18.4747   24.2289 N   0  0  0  0  0  0  0  0  0  0  0  0
    6.9029  -18.7717   23.6474 C   0  0  0  0  0  0  0  0  0  0  0  0
    7.7168  -19.4818   24.2400 O   0  0  0  0  0  0  0  0  0  0  0  0
    7.1759  -18.1873   22.3288 C   0  0  0  0  0  0  0  0  0  0  0  0
    7.9338  -16.8906   22.5153 C   0  0  2  0  0  0  0  0  0  0  0  0
    8.2779  -16.1755   21.3345 N   0  0  0  0  0  0  0  0  0  0  0  0
    8.9349  -16.8870   23.5684 C   0  0  0  0  0  0  0  0  0  0  0  0
   10.1170  -17.2121   23.2539 O   0  0  0  0  0  0  0  0  0  0  0  0
   11.0689  -13.6778   29.9582 N   0  0  0  0  0  0  0  0  0  0  0  0
   10.2219  -14.2136   28.9609 C   0  0  0  0  0  0  0  0  0  0  0  0
    9.0170  -13.7932   28.9940 O   0  0  0  0  0  0  0  0  0  0  0  0
   10.6413  -15.1923   27.9346 C   0  0  0  0  0  0  0  0  0  0  0  0
    9.5178  -15.3543   26.9403 C   0  0  0  0  0  0  0  0  0  0  0  0
    9.8041  -16.3616   25.8834 C   0  0  2  0  0  0  0  0  0  0  0  0
    8.7351  -16.5580   24.9227 N   0  0  0  0  0  0  0  0  0  0  0  0
   10.2198  -17.6814   26.4753 C   0  0  0  0  0  0  0  0  0  0  0  0
   11.5166  -17.9530   26.8406 O   0  0  0  0  0  0  0  0  0  0  0  0
    9.3645  -18.5901   26.6537 O   0  0  0  0  0  0  0  0  0  0  0  0
  2  1  1  6
  2  4  1  0
  3  2  1  0
  4  6  1  0
  4  5  1  6
  6 13  1  0
  7  6  2  0
  8  9  1  0
  9 10  2  0
 12 11  1  6
 11  9  1  0
 13 12  1  0
 14 12  1  0
 14 15  2  0
 16 17  1  0
 17 18  2  0
 17 19  1  0
 19 20  1  0
 21 20  1  1
 21 22  1  0
 21 23  1  0
 22 14  1  0
 23 24  1  0
 25 23  2  0
M  END
$$$$
