VNQ.pdb
     RDKit          3D

 25 24  0  0  1  0  0  0  0  0999 V2000
    6.7706  -12.9968   18.8945 C   0  0  0  0  0  0  0  0  0  0  0  0
    8.1165  -13.6491   19.2379 C   0  0  1  0  0  0  0  0  0  0  0  0
    8.9241  -12.5988   19.9840 C   0  0  0  0  0  0  0  0  0  0  0  0
    7.8923  -14.7941   20.1652 C   0  0  2  0  0  0  0  0  0  0  0  0
    7.2020  -14.3702   21.3343 N   0  0  0  0  0  0  0  0  0  0  0  0
    9.1350  -15.5590   20.4672 C   0  0  0  0  0  0  0  0  0  0  0  0
    9.6249  -16.2575   19.5496 O   0  0  0  0  0  0  0  0  0  0  0  0
   14.4057  -14.7345   21.9332 N   0  0  0  0  0  0  0  0  0  0  0  0
   13.4973  -15.7531   21.4816 C   0  0  0  0  0  0  0  0  0  0  0  0
   13.8332  -16.9383   21.4671 O   0  0  0  0  0  0  0  0  0  0  0  0
   12.1698  -15.3021   21.0469 C   0  0  0  0  0  0  0  0  0  0  0  0
   11.1391  -15.7770   22.0482 C   0  0  2  0  0  0  0  0  0  0  0  0
    9.7750  -15.5307   21.7276 N   0  0  0  0  0  0  0  0  0  0  0  0
   11.4956  -15.6203   23.4480 C   0  0  0  0  0  0  0  0  0  0  0  0
   12.7039  -15.8161   23.7700 O   0  0  0  0  0  0  0  0  0  0  0  0
    6.6732  -18.0673   23.2973 N   0  0  0  0  0  0  0  0  0  0  0  0
    6.5422  -16.7360   23.7553 C   0  0  0  0  0  0  0  0  0  0  0  0
    5.4239  -16.1814   23.4876 O   0  0  0  0  0  0  0  0  0  0  0  0
    7.5869  -15.9897   24.4892 C   0  0  0  0  0  0  0  0  0  0  0  0
    8.7763  -16.8977   24.6840 C   0  0  0  0  0  0  0  0  0  0  0  0
    9.9313  -16.2268   25.3391 C   0  0  2  0  0  0  0  0  0  0  0  0
   10.6341  -15.2702   24.5051 N   0  0  0  0  0  0  0  0  0  0  0  0
   10.8995  -17.2265   25.9120 C   0  0  0  0  0  0  0  0  0  0  0  0
   11.9361  -17.7555   25.1810 O   0  0  0  0  0  0  0  0  0  0  0  0
   10.7772  -17.6100   27.1067 O   0  0  0  0  0  0  0  0  0  0  0  0
  2  1  1  1
  2  4  1  0
  3  2  1  0
  4  6  1  0
  4  5  1  1
  6 13  1  0
  7  6  2  0
  8  9  1  0
  9 10  2  0
 12 11  1  6
 11  9  1  0
 13 12  1  0
 14 12  1  0
 14 15  2  0
 16 17  1  0
 17 18  2  0
 17 19  1  0
 19 20  1  0
 21 20  1  6
 21 22  1  0
 21 23  1  0
 22 14  1  0
 23 24  1  0
 25 23  2  0
M  END
$$$$
