VNQ.pdb
     RDKit          3D

 25 24  0  0  1  0  0  0  0  0999 V2000
   14.8057  -21.6040   24.7306 C   0  0  0  0  0  0  0  0  0  0  0  0
   13.9862  -21.1116   23.5303 C   0  0  1  0  0  0  0  0  0  0  0  0
   14.8997  -21.2084   22.3187 C   0  0  0  0  0  0  0  0  0  0  0  0
   12.8332  -22.0288   23.3052 C   0  0  2  0  0  0  0  0  0  0  0  0
   12.1585  -21.7053   22.0956 N   0  0  0  0  0  0  0  0  0  0  0  0
   11.9171  -22.1211   24.4769 C   0  0  0  0  0  0  0  0  0  0  0  0
   11.3259  -21.0764   24.8362 O   0  0  0  0  0  0  0  0  0  0  0  0
   12.1876  -25.7628   25.9631 N   0  0  0  0  0  0  0  0  0  0  0  0
   10.7699  -25.9583   26.0996 C   0  0  0  0  0  0  0  0  0  0  0  0
   10.2811  -27.0885   26.0612 O   0  0  0  0  0  0  0  0  0  0  0  0
    9.9560  -24.7507   26.2841 C   0  0  0  0  0  0  0  0  0  0  0  0
   10.8710  -23.5460   26.3312 C   0  0  2  0  0  0  0  0  0  0  0  0
   11.6906  -23.3205   25.1905 N   0  0  0  0  0  0  0  0  0  0  0  0
   11.4898  -23.2696   27.6165 C   0  0  0  0  0  0  0  0  0  0  0  0
   12.6716  -23.6844   27.7987 O   0  0  0  0  0  0  0  0  0  0  0  0
   11.8290  -18.2118   30.8630 N   0  0  0  0  0  0  0  0  0  0  0  0
   12.7631  -18.7956   29.9765 C   0  0  0  0  0  0  0  0  0  0  0  0
   13.6614  -18.0006   29.5397 O   0  0  0  0  0  0  0  0  0  0  0  0
   12.7488  -20.2110   29.5480 C   0  0  0  0  0  0  0  0  0  0  0  0
   11.7294  -20.9521   30.3777 C   0  0  0  0  0  0  0  0  0  0  0  0
   11.5661  -22.3765   29.9803 C   0  0  2  0  0  0  0  0  0  0  0  0
   10.9132  -22.5816   28.7011 N   0  0  0  0  0  0  0  0  0  0  0  0
   10.8719  -23.1735   31.0517 C   0  0  0  0  0  0  0  0  0  0  0  0
    9.6993  -23.8536   30.8254 O   0  0  0  0  0  0  0  0  0  0  0  0
   11.3646  -23.2363   32.2103 O   0  0  0  0  0  0  0  0  0  0  0  0
  2  1  1  1
  2  4  1  0
  3  2  1  0
  4  6  1  0
  4  5  1  6
  6 13  1  0
  7  6  2  0
  8  9  1  0
  9 10  2  0
 12 11  1  1
 11  9  1  0
 13 12  1  0
 14 12  1  0
 14 15  2  0
 16 17  1  0
 17 18  2  0
 17 19  1  0
 19 20  1  0
 21 20  1  1
 21 22  1  0
 21 23  1  0
 22 14  1  0
 23 24  1  0
 25 23  2  0
M  END
$$$$
