VNQ.pdb
     RDKit          3D

 25 24  0  0  1  0  0  0  0  0999 V2000
    6.8277  -13.2158   19.7461 C   0  0  0  0  0  0  0  0  0  0  0  0
    8.1495  -13.4704   19.0094 C   0  0  1  0  0  0  0  0  0  0  0  0
    9.1544  -12.4803   19.5768 C   0  0  0  0  0  0  0  0  0  0  0  0
    8.6373  -14.8435   19.3226 C   0  0  2  0  0  0  0  0  0  0  0  0
    8.5221  -15.1158   20.7138 N   0  0  0  0  0  0  0  0  0  0  0  0
    9.9991  -15.1213   18.7851 C   0  0  0  0  0  0  0  0  0  0  0  0
   10.0839  -15.5543   17.6124 O   0  0  0  0  0  0  0  0  0  0  0  0
   15.8592  -13.8894   18.7947 N   0  0  0  0  0  0  0  0  0  0  0  0
   14.6354  -14.3890   18.2293 C   0  0  0  0  0  0  0  0  0  0  0  0
   14.6507  -15.1452   17.2569 O   0  0  0  0  0  0  0  0  0  0  0  0
   13.3898  -13.9504   18.8704 C   0  0  0  0  0  0  0  0  0  0  0  0
   12.5333  -15.1646   19.1581 C   0  0  2  0  0  0  0  0  0  0  0  0
   11.1826  -14.9203   19.5321 N   0  0  0  0  0  0  0  0  0  0  0  0
   13.1930  -16.2550   19.8559 C   0  0  0  0  0  0  0  0  0  0  0  0
   14.4182  -16.1125   20.1397 O   0  0  0  0  0  0  0  0  0  0  0  0
    9.9142  -14.6727   23.4873 N   0  0  0  0  0  0  0  0  0  0  0  0
   10.1988  -15.8604   24.1997 C   0  0  0  0  0  0  0  0  0  0  0  0
    9.8321  -15.8567   25.4225 O   0  0  0  0  0  0  0  0  0  0  0  0
   10.8711  -17.0468   23.6274 C   0  0  0  0  0  0  0  0  0  0  0  0
   11.3025  -16.7196   22.2189 C   0  0  0  0  0  0  0  0  0  0  0  0
   12.1708  -17.7626   21.6091 C   0  0  2  0  0  0  0  0  0  0  0  0
   12.6138  -17.4736   20.2582 N   0  0  0  0  0  0  0  0  0  0  0  0
   11.5258  -19.1212   21.6649 C   0  0  0  0  0  0  0  0  0  0  0  0
   11.2013  -19.8333   20.5351 O   0  0  0  0  0  0  0  0  0  0  0  0
   11.2627  -19.6493   22.7789 O   0  0  0  0  0  0  0  0  0  0  0  0
  2  1  1  1
  2  4  1  0
  3  2  1  0
  4  6  1  0
  4  5  1  1
  6 13  1  0
  7  6  2  0
  8  9  1  0
  9 10  2  0
 12 11  1  1
 11  9  1  0
 13 12  1  0
 14 12  1  0
 14 15  2  0
 16 17  1  0
 17 18  2  0
 17 19  1  0
 19 20  1  0
 21 20  1  6
 21 22  1  0
 21 23  1  0
 22 14  1  0
 23 24  1  0
 25 23  2  0
M  END
$$$$
