VNQ.pdb
     RDKit          3D

 25 24  0  0  1  0  0  0  0  0999 V2000
    7.1616  -12.9094   19.8083 C   0  0  0  0  0  0  0  0  0  0  0  0
    8.5158  -12.9335   19.0870 C   0  0  1  0  0  0  0  0  0  0  0  0
    9.5673  -12.6152   20.1381 C   0  0  0  0  0  0  0  0  0  0  0  0
    8.7836  -14.3082   18.5773 C   0  0  2  0  0  0  0  0  0  0  0  0
    7.8982  -14.6342   17.5130 N   0  0  0  0  0  0  0  0  0  0  0  0
    8.8080  -15.3401   19.6521 C   0  0  0  0  0  0  0  0  0  0  0  0
    7.7866  -16.0510   19.7986 O   0  0  0  0  0  0  0  0  0  0  0  0
   12.1314  -19.3267   22.6528 N   0  0  0  0  0  0  0  0  0  0  0  0
   10.9016  -18.6725   22.2972 C   0  0  0  0  0  0  0  0  0  0  0  0
    9.8566  -18.9196   22.9011 O   0  0  0  0  0  0  0  0  0  0  0  0
   10.9668  -17.7102   21.1907 C   0  0  0  0  0  0  0  0  0  0  0  0
   10.0972  -16.5179   21.5267 C   0  0  2  0  0  0  0  0  0  0  0  0
    9.9188  -15.5474   20.5019 N   0  0  0  0  0  0  0  0  0  0  0  0
   10.2338  -15.9932   22.8747 C   0  0  0  0  0  0  0  0  0  0  0  0
   11.3119  -15.3966   23.1644 O   0  0  0  0  0  0  0  0  0  0  0  0
    5.4823  -13.3577   25.8653 N   0  0  0  0  0  0  0  0  0  0  0  0
    6.6414  -12.8726   26.5136 C   0  0  0  0  0  0  0  0  0  0  0  0
    6.4469  -11.8843   27.2979 O   0  0  0  0  0  0  0  0  0  0  0  0
    8.0018  -13.4239   26.3336 C   0  0  0  0  0  0  0  0  0  0  0  0
    7.9540  -14.4718   25.2488 C   0  0  0  0  0  0  0  0  0  0  0  0
    9.2464  -15.1833   25.0565 C   0  0  2  0  0  0  0  0  0  0  0  0
    9.2869  -16.0756   23.9134 N   0  0  0  0  0  0  0  0  0  0  0  0
    9.6651  -15.9159   26.3026 C   0  0  0  0  0  0  0  0  0  0  0  0
    9.8559  -17.2767   26.3322 O   0  0  0  0  0  0  0  0  0  0  0  0
    9.8553  -15.2801   27.3744 O   0  0  0  0  0  0  0  0  0  0  0  0
  2  1  1  1
  2  4  1  0
  3  2  1  0
  4  6  1  0
  4  5  1  6
  6 13  1  0
  7  6  2  0
  8  9  1  0
  9 10  2  0
 12 11  1  6
 11  9  1  0
 13 12  1  0
 14 12  1  0
 14 15  2  0
 16 17  1  0
 17 18  2  0
 17 19  1  0
 19 20  1  0
 21 20  1  1
 21 22  1  0
 21 23  1  0
 22 14  1  0
 23 24  1  0
 25 23  2  0
M  END
$$$$
