IKF.pdb
     RDKit          3D

 29 29  0  0  1  0  0  0  0  0999 V2000
   17.7399  -20.8675  -13.6843 C   0  0  0  0  0  0  0  0  0  0  0  0
   18.8215  -19.9187  -13.2218 C   0  0  0  0  0  0  0  0  0  0  0  0
   20.0231  -20.6933  -12.6799 C   0  0  2  0  0  0  0  0  0  0  0  0
   19.5594  -21.6156  -11.5833 C   0  0  0  0  0  0  0  0  0  0  0  0
   21.0956  -19.7090  -12.2242 C   0  0  2  0  0  0  0  0  0  0  0  0
   21.3702  -18.9170  -13.4436 N   0  0  0  0  0  0  0  0  0  0  0  0
   22.3484  -20.4529  -11.9646 C   0  0  0  0  0  0  0  0  0  0  0  0
   22.4630  -21.2665  -10.9798 O   0  0  0  0  0  0  0  0  0  0  0  0
   23.4808  -20.2942  -12.8093 N   0  0  0  0  0  0  0  0  0  0  0  0
   24.7463  -20.9450  -12.5254 C   0  0  1  0  0  0  0  0  0  0  0  0
   25.6170  -20.9692  -13.7915 C   0  0  0  0  0  0  0  0  0  0  0  0
   26.9256  -21.6517  -13.5346 C   0  0  0  0  0  0  0  0  0  0  0  0
   27.7384  -21.5854  -14.8091 C   0  0  0  0  0  0  0  0  0  0  0  0
   29.0625  -22.3040  -14.6585 C   0  0  0  0  0  0  0  0  0  0  0  0
   29.7625  -22.2254  -15.9234 N   0  0  0  0  0  0  0  0  0  0  0  0
   25.4980  -20.3223  -11.4172 C   0  0  0  0  0  0  0  0  0  0  0  0
   25.7094  -19.0619  -11.3854 O   0  0  0  0  0  0  0  0  0  0  0  0
   26.0208  -21.0735  -10.3386 N   0  0  0  0  0  0  0  0  0  0  0  0
   26.9767  -20.5223   -9.3866 C   0  0  1  0  0  0  0  0  0  0  0  0
   26.4221  -20.5009   -8.0014 C   0  0  0  0  0  0  0  0  0  0  0  0
   27.4221  -20.1250   -6.9885 C   0  0  0  0  0  0  0  0  0  0  0  0
   28.0014  -21.0418   -6.1249 C   0  0  0  0  0  0  0  0  0  0  0  0
   28.9507  -20.6824   -5.1927 C   0  0  0  0  0  0  0  0  0  0  0  0
   29.3538  -19.3611   -5.1002 C   0  0  0  0  0  0  0  0  0  0  0  0
   28.7980  -18.4282   -5.9430 C   0  0  0  0  0  0  0  0  0  0  0  0
   27.8404  -18.8203   -6.8757 C   0  0  0  0  0  0  0  0  0  0  0  0
   28.2171  -21.3156   -9.4544 C   0  0  0  0  0  0  0  0  0  0  0  0
   28.1787  -22.6506   -9.8417 O   0  0  0  0  0  0  0  0  0  0  0  0
   29.3499  -20.8585   -9.1779 O   0  0  0  0  0  0  0  0  0  0  0  0
  2  1  1  0
  3  2  1  0
  3  4  1  1
  5  3  1  0
  5  6  1  6
  7  8  2  0
  7  5  1  0
  9  7  1  0
 10  9  1  0
 11 12  1  0
 10 11  1  6
 12 13  1  0
 13 14  1  0
 14 15  1  0
 16 17  2  0
 16 10  1  0
 18 16  1  0
 19 20  1  1
 19 18  1  0
 20 21  1  0
 21 26  2  0
 21 22  1  0
 22 23  2  0
 23 24  1  0
 25 24  2  0
 26 25  1  0
 27 19  1  0
 28 27  1  0
 29 27  2  0
M  END
$$$$
