IKF.pdb
     RDKit          3D

 29 29  0  0  1  0  0  0  0  0999 V2000
   24.8475  -16.5227  -16.1217 C   0  0  0  0  0  0  0  0  0  0  0  0
   25.6599  -17.6558  -15.5386 C   0  0  0  0  0  0  0  0  0  0  0  0
   27.0008  -17.1434  -15.0126 C   0  0  2  0  0  0  0  0  0  0  0  0
   27.7955  -16.5783  -16.1604 C   0  0  0  0  0  0  0  0  0  0  0  0
   27.7212  -18.2709  -14.2803 C   0  0  2  0  0  0  0  0  0  0  0  0
   27.7367  -19.3666  -15.2747 N   0  0  0  0  0  0  0  0  0  0  0  0
   26.8532  -18.7627  -13.1871 C   0  0  0  0  0  0  0  0  0  0  0  0
   26.3636  -17.9740  -12.3022 O   0  0  0  0  0  0  0  0  0  0  0  0
   26.5235  -20.1415  -13.0799 N   0  0  0  0  0  0  0  0  0  0  0  0
   25.7354  -20.6578  -11.9763 C   0  0  1  0  0  0  0  0  0  0  0  0
   25.1982  -22.0544  -12.3264 C   0  0  0  0  0  0  0  0  0  0  0  0
   24.2002  -21.9858  -13.4415 C   0  0  0  0  0  0  0  0  0  0  0  0
   23.6830  -23.3869  -13.6845 C   0  0  0  0  0  0  0  0  0  0  0  0
   24.7486  -24.2712  -14.2967 C   0  0  0  0  0  0  0  0  0  0  0  0
   24.1671  -25.5754  -14.5356 N   0  0  0  0  0  0  0  0  0  0  0  0
   26.4714  -20.7148  -10.6974 C   0  0  0  0  0  0  0  0  0  0  0  0
   27.7493  -20.7418  -10.6685 O   0  0  0  0  0  0  0  0  0  0  0  0
   25.8150  -20.7412   -9.4447 N   0  0  0  0  0  0  0  0  0  0  0  0
   26.5354  -20.8285   -8.1809 C   0  0  1  0  0  0  0  0  0  0  0  0
   27.4932  -19.6962   -8.0153 C   0  0  0  0  0  0  0  0  0  0  0  0
   28.1729  -19.7057   -6.7094 C   0  0  0  0  0  0  0  0  0  0  0  0
   27.7599  -18.9273   -5.6392 C   0  0  0  0  0  0  0  0  0  0  0  0
   28.3920  -18.9578   -4.4149 C   0  0  0  0  0  0  0  0  0  0  0  0
   29.4819  -19.7906   -4.2275 C   0  0  0  0  0  0  0  0  0  0  0  0
   29.9156  -20.5751   -5.2697 C   0  0  0  0  0  0  0  0  0  0  0  0
   29.2572  -20.5237   -6.4963 C   0  0  0  0  0  0  0  0  0  0  0  0
   25.5533  -20.8639   -7.0823 C   0  0  0  0  0  0  0  0  0  0  0  0
   25.8952  -21.4092   -5.8497 O   0  0  0  0  0  0  0  0  0  0  0  0
   24.3858  -20.4213   -7.1800 O   0  0  0  0  0  0  0  0  0  0  0  0
  2  1  1  0
  3  2  1  0
  3  4  1  6
  5  3  1  0
  5  6  1  6
  7  8  2  0
  7  5  1  0
  9  7  1  0
 10  9  1  0
 11 12  1  0
 10 11  1  6
 12 13  1  0
 13 14  1  0
 14 15  1  0
 16 17  2  0
 16 10  1  0
 18 16  1  0
 19 20  1  1
 19 18  1  0
 20 21  1  0
 21 26  2  0
 21 22  1  0
 22 23  2  0
 23 24  1  0
 25 24  2  0
 26 25  1  0
 27 19  1  0
 28 27  1  0
 29 27  2  0
M  END
$$$$
