IKF.pdb
     RDKit          3D

 29 29  0  0  1  0  0  0  0  0999 V2000
   18.5136  -22.3764  -14.7907 C   0  0  0  0  0  0  0  0  0  0  0  0
   19.4408  -23.4561  -14.2821 C   0  0  0  0  0  0  0  0  0  0  0  0
   18.9044  -24.0607  -12.9844 C   0  0  2  0  0  0  0  0  0  0  0  0
   18.7654  -22.9703  -11.9548 C   0  0  0  0  0  0  0  0  0  0  0  0
   19.8210  -25.1953  -12.5382 C   0  0  2  0  0  0  0  0  0  0  0  0
   19.8244  -26.1076  -13.7033 N   0  0  0  0  0  0  0  0  0  0  0  0
   19.1499  -25.9573  -11.4615 C   0  0  0  0  0  0  0  0  0  0  0  0
   17.8786  -25.9212  -11.2955 O   0  0  0  0  0  0  0  0  0  0  0  0
   19.8977  -26.7690  -10.5654 N   0  0  0  0  0  0  0  0  0  0  0  0
   19.2692  -27.4768   -9.4656 C   0  0  1  0  0  0  0  0  0  0  0  0
   20.0457  -28.7682   -9.1636 C   0  0  0  0  0  0  0  0  0  0  0  0
   20.0758  -29.6725  -10.3575 C   0  0  0  0  0  0  0  0  0  0  0  0
   21.4476  -30.3080  -10.4203 C   0  0  0  0  0  0  0  0  0  0  0  0
   21.5840  -31.2109  -11.6279 C   0  0  0  0  0  0  0  0  0  0  0  0
   22.9772  -31.5835  -11.7551 N   0  0  0  0  0  0  0  0  0  0  0  0
   19.1469  -26.6710   -8.2342 C   0  0  0  0  0  0  0  0  0  0  0  0
   20.1043  -25.9251   -7.8322 O   0  0  0  0  0  0  0  0  0  0  0  0
   17.9782  -26.6754   -7.4373 N   0  0  0  0  0  0  0  0  0  0  0  0
   17.8864  -25.9587   -6.1718 C   0  0  1  0  0  0  0  0  0  0  0  0
   17.8231  -24.4825   -6.3799 C   0  0  0  0  0  0  0  0  0  0  0  0
   16.7566  -24.0793   -7.3111 C   0  0  0  0  0  0  0  0  0  0  0  0
   15.4362  -23.9186   -6.9207 C   0  0  0  0  0  0  0  0  0  0  0  0
   14.4487  -23.5225   -7.7967 C   0  0  0  0  0  0  0  0  0  0  0  0
   14.7680  -23.2709   -9.1202 C   0  0  0  0  0  0  0  0  0  0  0  0
   16.0689  -23.4211   -9.5381 C   0  0  0  0  0  0  0  0  0  0  0  0
   17.0463  -23.8228   -8.6304 C   0  0  0  0  0  0  0  0  0  0  0  0
   16.7036  -26.4474   -5.4405 C   0  0  0  0  0  0  0  0  0  0  0  0
   15.9217  -27.4689   -5.9687 O   0  0  0  0  0  0  0  0  0  0  0  0
   16.3348  -25.9929   -4.3333 O   0  0  0  0  0  0  0  0  0  0  0  0
  2  1  1  0
  3  2  1  0
  3  4  1  1
  5  3  1  0
  5  6  1  6
  7  8  2  0
  7  5  1  0
  9  7  1  0
 10  9  1  0
 11 12  1  0
 10 11  1  1
 12 13  1  0
 13 14  1  0
 14 15  1  0
 16 17  2  0
 16 10  1  0
 18 16  1  0
 19 20  1  6
 19 18  1  0
 20 21  1  0
 21 26  2  0
 21 22  1  0
 22 23  2  0
 23 24  1  0
 25 24  2  0
 26 25  1  0
 27 19  1  0
 28 27  1  0
 29 27  2  0
M  END
$$$$
