IKF.pdb
     RDKit          3D

 29 29  0  0  1  0  0  0  0  0999 V2000
   29.3829  -17.4300  -18.0838 C   0  0  0  0  0  0  0  0  0  0  0  0
   28.3599  -16.6177  -17.3238 C   0  0  0  0  0  0  0  0  0  0  0  0
   27.5814  -17.5041  -16.3513 C   0  0  2  0  0  0  0  0  0  0  0  0
   28.5113  -17.9765  -15.2649 C   0  0  0  0  0  0  0  0  0  0  0  0
   26.9270  -18.6467  -17.1213 C   0  0  2  0  0  0  0  0  0  0  0  0
   25.9312  -17.9571  -17.9714 N   0  0  0  0  0  0  0  0  0  0  0  0
   26.1247  -19.4599  -16.1804 C   0  0  0  0  0  0  0  0  0  0  0  0
   25.1521  -18.9602  -15.5102 O   0  0  0  0  0  0  0  0  0  0  0  0
   26.4034  -20.8405  -15.9868 N   0  0  0  0  0  0  0  0  0  0  0  0
   25.6774  -21.6406  -15.0181 C   0  0  1  0  0  0  0  0  0  0  0  0
   25.6172  -23.1026  -15.4882 C   0  0  0  0  0  0  0  0  0  0  0  0
   24.7575  -23.9273  -14.5800 C   0  0  0  0  0  0  0  0  0  0  0  0
   24.6767  -25.3217  -15.1620 C   0  0  0  0  0  0  0  0  0  0  0  0
   23.5575  -25.4337  -16.1757 C   0  0  0  0  0  0  0  0  0  0  0  0
   23.6480  -26.7357  -16.8025 N   0  0  0  0  0  0  0  0  0  0  0  0
   26.2431  -21.5798  -13.6554 C   0  0  0  0  0  0  0  0  0  0  0  0
   27.5048  -21.6400  -13.4580 O   0  0  0  0  0  0  0  0  0  0  0  0
   25.4333  -21.4518  -12.5027 N   0  0  0  0  0  0  0  0  0  0  0  0
   25.9853  -21.4068  -11.1547 C   0  0  1  0  0  0  0  0  0  0  0  0
   27.0287  -20.3481  -11.0234 C   0  0  0  0  0  0  0  0  0  0  0  0
   27.5414  -20.2147   -9.6499 C   0  0  0  0  0  0  0  0  0  0  0  0
   28.6338  -20.9277   -9.1807 C   0  0  0  0  0  0  0  0  0  0  0  0
   29.1174  -20.7813   -7.8985 C   0  0  0  0  0  0  0  0  0  0  0  0
   28.5025  -19.8938   -7.0319 C   0  0  0  0  0  0  0  0  0  0  0  0
   27.4168  -19.1719   -7.4675 C   0  0  0  0  0  0  0  0  0  0  0  0
   26.9498  -19.3404   -8.7691 C   0  0  0  0  0  0  0  0  0  0  0  0
   24.8811  -21.1912  -10.2024 C   0  0  0  0  0  0  0  0  0  0  0  0
   23.8620  -20.2924  -10.4979 O   0  0  0  0  0  0  0  0  0  0  0  0
   24.7881  -21.7811   -9.1015 O   0  0  0  0  0  0  0  0  0  0  0  0
  2  1  1  0
  3  2  1  0
  3  4  1  1
  5  3  1  0
  5  6  1  6
  7  8  2  0
  7  5  1  0
  9  7  1  0
 10  9  1  0
 11 12  1  0
 10 11  1  6
 12 13  1  0
 13 14  1  0
 14 15  1  0
 16 17  2  0
 16 10  1  0
 18 16  1  0
 19 20  1  6
 19 18  1  0
 20 21  1  0
 21 26  2  0
 21 22  1  0
 22 23  2  0
 23 24  1  0
 25 24  2  0
 26 25  1  0
 27 19  1  0
 28 27  1  0
 29 27  2  0
M  END
$$$$
