IKF.pdb
     RDKit          3D

 29 29  0  0  1  0  0  0  0  0999 V2000
   25.8133  -17.1909  -17.2229 C   0  0  0  0  0  0  0  0  0  0  0  0
   26.4060  -18.3556  -16.4639 C   0  0  0  0  0  0  0  0  0  0  0  0
   27.2432  -17.8609  -15.2842 C   0  0  2  0  0  0  0  0  0  0  0  0
   28.3558  -16.9881  -15.8027 C   0  0  0  0  0  0  0  0  0  0  0  0
   27.7426  -19.0577  -14.4811 C   0  0  2  0  0  0  0  0  0  0  0  0
   27.3255  -20.2158  -15.3024 N   0  0  0  0  0  0  0  0  0  0  0  0
   26.9456  -19.1665  -13.2389 C   0  0  0  0  0  0  0  0  0  0  0  0
   26.9771  -18.2613  -12.3308 O   0  0  0  0  0  0  0  0  0  0  0  0
   26.1037  -20.2883  -13.0068 N   0  0  0  0  0  0  0  0  0  0  0  0
   25.2510  -20.3777  -11.8361 C   0  0  1  0  0  0  0  0  0  0  0  0
   24.1072  -21.3703  -12.0975 C   0  0  0  0  0  0  0  0  0  0  0  0
   23.2366  -20.9071  -13.2252 C   0  0  0  0  0  0  0  0  0  0  0  0
   22.1346  -21.9280  -13.4065 C   0  0  0  0  0  0  0  0  0  0  0  0
   21.2180  -21.5545  -14.5523 C   0  0  0  0  0  0  0  0  0  0  0  0
   20.1284  -22.5074  -14.5846 N   0  0  0  0  0  0  0  0  0  0  0  0
   25.9712  -20.7624  -10.6057 C   0  0  0  0  0  0  0  0  0  0  0  0
   26.7255  -21.7942  -10.5741 O   0  0  0  0  0  0  0  0  0  0  0  0
   25.8717  -20.0212   -9.4050 N   0  0  0  0  0  0  0  0  0  0  0  0
   26.5821  -20.3949   -8.1887 C   0  0  1  0  0  0  0  0  0  0  0  0
   27.4672  -19.2934   -7.7091 C   0  0  0  0  0  0  0  0  0  0  0  0
   28.0784  -19.5770   -6.4002 C   0  0  0  0  0  0  0  0  0  0  0  0
   29.2623  -20.2843   -6.2586 C   0  0  0  0  0  0  0  0  0  0  0  0
   29.8360  -20.5280   -5.0295 C   0  0  0  0  0  0  0  0  0  0  0  0
   29.2217  -20.0569   -3.8816 C   0  0  0  0  0  0  0  0  0  0  0  0
   28.0466  -19.3518   -3.9890 C   0  0  0  0  0  0  0  0  0  0  0  0
   27.4897  -19.1204   -5.2447 C   0  0  0  0  0  0  0  0  0  0  0  0
   25.5919  -20.7709   -7.1636 C   0  0  0  0  0  0  0  0  0  0  0  0
   25.9777  -21.5070   -6.0487 O   0  0  0  0  0  0  0  0  0  0  0  0
   24.3791  -20.4644   -7.2241 O   0  0  0  0  0  0  0  0  0  0  0  0
  2  1  1  0
  3  2  1  0
  3  4  1  6
  5  3  1  0
  5  6  1  6
  7  8  2  0
  7  5  1  0
  9  7  1  0
 10  9  1  0
 11 12  1  0
 10 11  1  6
 12 13  1  0
 13 14  1  0
 14 15  1  0
 16 17  2  0
 16 10  1  0
 18 16  1  0
 19 20  1  1
 19 18  1  0
 20 21  1  0
 21 26  2  0
 21 22  1  0
 22 23  2  0
 23 24  1  0
 25 24  2  0
 26 25  1  0
 27 19  1  0
 28 27  1  0
 29 27  2  0
M  END
$$$$
