IKF.pdb
     RDKit          3D

 29 29  0  0  1  0  0  0  0  0999 V2000
   25.9560  -20.0051   -9.0955 C   0  0  0  0  0  0  0  0  0  0  0  0
   26.8611  -19.8875  -10.3000 C   0  0  0  0  0  0  0  0  0  0  0  0
   26.1764  -20.4491  -11.5463 C   0  0  2  0  0  0  0  0  0  0  0  0
   25.6668  -21.8340  -11.2453 C   0  0  0  0  0  0  0  0  0  0  0  0
   27.1499  -20.4087  -12.7199 C   0  0  2  0  0  0  0  0  0  0  0  0
   27.4497  -18.9667  -12.8632 N   0  0  0  0  0  0  0  0  0  0  0  0
   26.4228  -20.7700  -13.9573 C   0  0  0  0  0  0  0  0  0  0  0  0
   25.4746  -20.0435  -14.4241 O   0  0  0  0  0  0  0  0  0  0  0  0
   26.7557  -21.9461  -14.6834 N   0  0  0  0  0  0  0  0  0  0  0  0
   25.9446  -22.4196  -15.7895 C   0  0  1  0  0  0  0  0  0  0  0  0
   26.7627  -23.3851  -16.6615 C   0  0  0  0  0  0  0  0  0  0  0  0
   27.9855  -22.7150  -17.2090 C   0  0  0  0  0  0  0  0  0  0  0  0
   28.7327  -23.7307  -18.0454 C   0  0  0  0  0  0  0  0  0  0  0  0
   28.3303  -23.6503  -19.5028 C   0  0  0  0  0  0  0  0  0  0  0  0
   29.1920  -24.5369  -20.2561 N   0  0  0  0  0  0  0  0  0  0  0  0
   24.6895  -23.0733  -15.3675 C   0  0  0  0  0  0  0  0  0  0  0  0
   24.6624  -23.8780  -14.3744 O   0  0  0  0  0  0  0  0  0  0  0  0
   23.4585  -22.8499  -16.0275 N   0  0  0  0  0  0  0  0  0  0  0  0
   22.1822  -23.2965  -15.4839 C   0  0  1  0  0  0  0  0  0  0  0  0
   21.8266  -22.5561  -14.2381 C   0  0  0  0  0  0  0  0  0  0  0  0
   21.6873  -21.1063  -14.4519 C   0  0  0  0  0  0  0  0  0  0  0  0
   22.6497  -20.1902  -14.0564 C   0  0  0  0  0  0  0  0  0  0  0  0
   22.5180  -18.8364  -14.2783 C   0  0  0  0  0  0  0  0  0  0  0  0
   21.3893  -18.3542  -14.9189 C   0  0  0  0  0  0  0  0  0  0  0  0
   20.4168  -19.2375  -15.3234 C   0  0  0  0  0  0  0  0  0  0  0  0
   20.5769  -20.6008  -15.0858 C   0  0  0  0  0  0  0  0  0  0  0  0
   21.1469  -23.1297  -16.5197 C   0  0  0  0  0  0  0  0  0  0  0  0
   21.4656  -22.5628  -17.7488 O   0  0  0  0  0  0  0  0  0  0  0  0
   19.9523  -23.4746  -16.3695 O   0  0  0  0  0  0  0  0  0  0  0  0
  2  1  1  0
  3  2  1  0
  3  4  1  1
  5  3  1  0
  5  6  1  6
  7  8  2  0
  7  5  1  0
  9  7  1  0
 10  9  1  0
 11 12  1  0
 10 11  1  1
 12 13  1  0
 13 14  1  0
 14 15  1  0
 16 17  2  0
 16 10  1  0
 18 16  1  0
 19 20  1  1
 19 18  1  0
 20 21  1  0
 21 26  2  0
 21 22  1  0
 22 23  2  0
 23 24  1  0
 25 24  2  0
 26 25  1  0
 27 19  1  0
 28 27  1  0
 29 27  2  0
M  END
$$$$
