IKF.pdb
     RDKit          3D

 29 29  0  0  1  0  0  0  0  0999 V2000
   24.2948  -15.8557  -16.0680 C   0  0  0  0  0  0  0  0  0  0  0  0
   25.7356  -16.3094  -16.1132 C   0  0  0  0  0  0  0  0  0  0  0  0
   25.8885  -17.6855  -15.4647 C   0  0  2  0  0  0  0  0  0  0  0  0
   25.2484  -17.6603  -14.1016 C   0  0  0  0  0  0  0  0  0  0  0  0
   27.3651  -18.0664  -15.4284 C   0  0  2  0  0  0  0  0  0  0  0  0
   27.7287  -18.1538  -16.8602 N   0  0  0  0  0  0  0  0  0  0  0  0
   27.4897  -19.4506  -14.9199 C   0  0  0  0  0  0  0  0  0  0  0  0
   26.9841  -20.4509  -15.5434 O   0  0  0  0  0  0  0  0  0  0  0  0
   28.1859  -19.7250  -13.7110 N   0  0  0  0  0  0  0  0  0  0  0  0
   28.3761  -21.0795  -13.2264 C   0  0  1  0  0  0  0  0  0  0  0  0
   29.7091  -21.1807  -12.4684 C   0  0  0  0  0  0  0  0  0  0  0  0
   30.8647  -21.2741  -13.4171 C   0  0  0  0  0  0  0  0  0  0  0  0
   31.2108  -22.7381  -13.5797 C   0  0  0  0  0  0  0  0  0  0  0  0
   32.3926  -22.9271  -14.5070 C   0  0  0  0  0  0  0  0  0  0  0  0
   32.6581  -24.3465  -14.6126 N   0  0  0  0  0  0  0  0  0  0  0  0
   27.2772  -21.5613  -12.3657 C   0  0  0  0  0  0  0  0  0  0  0  0
   26.8832  -22.7767  -12.4116 O   0  0  0  0  0  0  0  0  0  0  0  0
   26.6049  -20.7182  -11.4502 N   0  0  0  0  0  0  0  0  0  0  0  0
   25.4927  -21.1779  -10.6283 C   0  0  1  0  0  0  0  0  0  0  0  0
   25.9677  -21.7799   -9.3483 C   0  0  0  0  0  0  0  0  0  0  0  0
   26.7030  -20.8250   -8.5029 C   0  0  0  0  0  0  0  0  0  0  0  0
   26.1071  -19.7131   -7.9281 C   0  0  0  0  0  0  0  0  0  0  0  0
   26.8003  -18.8355   -7.1227 C   0  0  0  0  0  0  0  0  0  0  0  0
   28.1429  -19.0560   -6.8665 C   0  0  0  0  0  0  0  0  0  0  0  0
   28.7625  -20.1501   -7.4219 C   0  0  0  0  0  0  0  0  0  0  0  0
   28.0367  -21.0204   -8.2320 C   0  0  0  0  0  0  0  0  0  0  0  0
   24.5896  -20.0394  -10.3817 C   0  0  0  0  0  0  0  0  0  0  0  0
   23.3912  -20.2259   -9.7013 O   0  0  0  0  0  0  0  0  0  0  0  0
   24.8305  -18.8683  -10.7545 O   0  0  0  0  0  0  0  0  0  0  0  0
  2  1  1  0
  3  2  1  0
  3  4  1  1
  5  3  1  0
  5  6  1  6
  7  8  2  0
  7  5  1  0
  9  7  1  0
 10  9  1  0
 11 12  1  0
 10 11  1  1
 12 13  1  0
 13 14  1  0
 14 15  1  0
 16 17  2  0
 16 10  1  0
 18 16  1  0
 19 20  1  1
 19 18  1  0
 20 21  1  0
 21 26  2  0
 21 22  1  0
 22 23  2  0
 23 24  1  0
 25 24  2  0
 26 25  1  0
 27 19  1  0
 28 27  1  0
 29 27  2  0
M  END
$$$$
