IKF.pdb
     RDKit          3D

 29 29  0  0  1  0  0  0  0  0999 V2000
   29.5937  -20.4841  -17.3890 C   0  0  0  0  0  0  0  0  0  0  0  0
   28.1706  -20.8755  -17.0639 C   0  0  0  0  0  0  0  0  0  0  0  0
   27.7223  -20.2366  -15.7493 C   0  0  2  0  0  0  0  0  0  0  0  0
   28.7044  -20.5990  -14.6666 C   0  0  0  0  0  0  0  0  0  0  0  0
   26.2944  -20.6725  -15.4362 C   0  0  2  0  0  0  0  0  0  0  0  0
   25.5090  -20.0845  -16.5439 N   0  0  0  0  0  0  0  0  0  0  0  0
   25.8321  -19.9610  -14.2236 C   0  0  0  0  0  0  0  0  0  0  0  0
   25.8060  -18.6805  -14.1565 O   0  0  0  0  0  0  0  0  0  0  0  0
   25.3911  -20.6791  -13.0786 N   0  0  0  0  0  0  0  0  0  0  0  0
   24.9903  -20.0045  -11.8580 C   0  0  1  0  0  0  0  0  0  0  0  0
   23.4691  -20.1206  -11.6723 C   0  0  0  0  0  0  0  0  0  0  0  0
   22.9583  -21.4263  -12.1996 C   0  0  0  0  0  0  0  0  0  0  0  0
   21.4701  -21.4814  -11.9319 C   0  0  0  0  0  0  0  0  0  0  0  0
   20.8854  -22.8195  -12.3318 C   0  0  0  0  0  0  0  0  0  0  0  0
   19.4667  -22.7937  -12.0444 N   0  0  0  0  0  0  0  0  0  0  0  0
   25.6778  -20.5048  -10.6506 C   0  0  0  0  0  0  0  0  0  0  0  0
   25.9928  -21.7380  -10.5300 O   0  0  0  0  0  0  0  0  0  0  0  0
   26.0254  -19.6601   -9.5705 N   0  0  0  0  0  0  0  0  0  0  0  0
   26.7594  -20.1357   -8.4048 C   0  0  1  0  0  0  0  0  0  0  0  0
   27.4657  -19.0210   -7.7081 C   0  0  0  0  0  0  0  0  0  0  0  0
   28.0857  -19.4382   -6.4397 C   0  0  0  0  0  0  0  0  0  0  0  0
   27.5473  -19.1291   -5.2002 C   0  0  0  0  0  0  0  0  0  0  0  0
   28.1256  -19.5407   -4.0190 C   0  0  0  0  0  0  0  0  0  0  0  0
   29.2882  -20.2919   -4.0511 C   0  0  0  0  0  0  0  0  0  0  0  0
   29.8466  -20.6149   -5.2649 C   0  0  0  0  0  0  0  0  0  0  0  0
   29.2399  -20.1852   -6.4430 C   0  0  0  0  0  0  0  0  0  0  0  0
   25.8150  -20.8181   -7.5019 C   0  0  0  0  0  0  0  0  0  0  0  0
   26.2493  -21.8524   -6.6801 O   0  0  0  0  0  0  0  0  0  0  0  0
   24.6007  -20.5241   -7.4160 O   0  0  0  0  0  0  0  0  0  0  0  0
  2  1  1  0
  3  2  1  0
  3  4  1  1
  5  3  1  0
  5  6  1  6
  7  8  2  0
  7  5  1  0
  9  7  1  0
 10  9  1  0
 11 12  1  0
 10 11  1  1
 12 13  1  0
 13 14  1  0
 14 15  1  0
 16 17  2  0
 16 10  1  0
 18 16  1  0
 19 20  1  1
 19 18  1  0
 20 21  1  0
 21 26  2  0
 21 22  1  0
 22 23  2  0
 23 24  1  0
 25 24  2  0
 26 25  1  0
 27 19  1  0
 28 27  1  0
 29 27  2  0
M  END
$$$$
