IKF.pdb
     RDKit          3D

 29 29  0  0  1  0  0  0  0  0999 V2000
   34.1135  -26.7761  -19.3598 C   0  0  0  0  0  0  0  0  0  0  0  0
   33.3500  -28.0747  -19.2389 C   0  0  0  0  0  0  0  0  0  0  0  0
   31.8903  -27.8100  -18.8694 C   0  0  2  0  0  0  0  0  0  0  0  0
   31.8437  -26.9930  -17.6050 C   0  0  0  0  0  0  0  0  0  0  0  0
   31.1487  -29.1380  -18.7547 C   0  0  2  0  0  0  0  0  0  0  0  0
   31.2250  -29.6893  -20.1259 N   0  0  0  0  0  0  0  0  0  0  0  0
   29.7108  -28.8654  -18.5346 C   0  0  0  0  0  0  0  0  0  0  0  0
   28.9654  -28.3702  -19.4534 O   0  0  0  0  0  0  0  0  0  0  0  0
   29.0961  -29.1501  -17.2847 N   0  0  0  0  0  0  0  0  0  0  0  0
   27.6991  -28.8505  -17.0315 C   0  0  1  0  0  0  0  0  0  0  0  0
   27.2067  -29.6464  -15.8124 C   0  0  0  0  0  0  0  0  0  0  0  0
   26.6352  -30.9682  -16.2249 C   0  0  0  0  0  0  0  0  0  0  0  0
   25.4542  -30.6975  -17.1312 C   0  0  0  0  0  0  0  0  0  0  0  0
   24.8026  -31.9850  -17.5897 C   0  0  0  0  0  0  0  0  0  0  0  0
   23.7280  -31.6455  -18.4987 N   0  0  0  0  0  0  0  0  0  0  0  0
   27.4279  -27.4131  -16.8289 C   0  0  0  0  0  0  0  0  0  0  0  0
   28.3775  -26.5814  -16.6258 O   0  0  0  0  0  0  0  0  0  0  0  0
   26.1188  -26.8777  -16.8486 N   0  0  0  0  0  0  0  0  0  0  0  0
   25.8550  -25.4445  -16.8502 C   0  0  1  0  0  0  0  0  0  0  0  0
   26.5783  -24.7541  -17.9578 C   0  0  0  0  0  0  0  0  0  0  0  0
   27.9285  -24.3110  -17.5733 C   0  0  0  0  0  0  0  0  0  0  0  0
   28.1694  -23.4827  -16.4881 C   0  0  0  0  0  0  0  0  0  0  0  0
   29.4393  -23.0890  -16.1254 C   0  0  0  0  0  0  0  0  0  0  0  0
   30.5280  -23.5270  -16.8602 C   0  0  0  0  0  0  0  0  0  0  0  0
   30.3219  -24.3496  -17.9420 C   0  0  0  0  0  0  0  0  0  0  0  0
   29.0269  -24.7314  -18.2853 C   0  0  0  0  0  0  0  0  0  0  0  0
   24.3993  -25.2353  -16.9492 C   0  0  0  0  0  0  0  0  0  0  0  0
   23.5442  -26.3154  -17.1383 O   0  0  0  0  0  0  0  0  0  0  0  0
   23.8524  -24.1112  -16.8725 O   0  0  0  0  0  0  0  0  0  0  0  0
  2  1  1  0
  3  2  1  0
  3  4  1  1
  5  3  1  0
  5  6  1  6
  7  8  2  0
  7  5  1  0
  9  7  1  0
 10  9  1  0
 11 12  1  0
 10 11  1  1
 12 13  1  0
 13 14  1  0
 14 15  1  0
 16 17  2  0
 16 10  1  0
 18 16  1  0
 19 20  1  6
 19 18  1  0
 20 21  1  0
 21 26  2  0
 21 22  1  0
 22 23  2  0
 23 24  1  0
 25 24  2  0
 26 25  1  0
 27 19  1  0
 28 27  1  0
 29 27  2  0
M  END
$$$$
