IKF.pdb
     RDKit          3D

 29 29  0  0  1  0  0  0  0  0999 V2000
   24.0741  -14.2509  -14.9868 C   0  0  0  0  0  0  0  0  0  0  0  0
   24.7606  -15.4265  -15.6429 C   0  0  0  0  0  0  0  0  0  0  0  0
   25.0804  -16.5088  -14.6116 C   0  0  2  0  0  0  0  0  0  0  0  0
   25.9467  -15.9174  -13.5308 C   0  0  0  0  0  0  0  0  0  0  0  0
   25.7238  -17.7011  -15.3125 C   0  0  2  0  0  0  0  0  0  0  0  0
   24.7258  -18.0696  -16.3410 N   0  0  0  0  0  0  0  0  0  0  0  0
   25.7481  -18.8490  -14.3786 C   0  0  0  0  0  0  0  0  0  0  0  0
   24.6924  -19.5241  -14.1053 O   0  0  0  0  0  0  0  0  0  0  0  0
   26.9566  -19.2520  -13.7474 N   0  0  0  0  0  0  0  0  0  0  0  0
   27.0465  -20.4770  -12.9749 C   0  0  1  0  0  0  0  0  0  0  0  0
   28.2316  -21.3210  -13.4699 C   0  0  0  0  0  0  0  0  0  0  0  0
   28.2006  -21.4749  -14.9597 C   0  0  0  0  0  0  0  0  0  0  0  0
   28.5683  -22.9065  -15.2832 C   0  0  0  0  0  0  0  0  0  0  0  0
   28.6703  -23.1270  -16.7777 C   0  0  0  0  0  0  0  0  0  0  0  0
   28.9648  -24.5260  -17.0062 N   0  0  0  0  0  0  0  0  0  0  0  0
   27.1691  -20.2533  -11.5204 C   0  0  0  0  0  0  0  0  0  0  0  0
   27.8653  -19.2876  -11.0544 O   0  0  0  0  0  0  0  0  0  0  0  0
   26.5307  -21.0826  -10.5687 N   0  0  0  0  0  0  0  0  0  0  0  0
   26.7803  -20.9735   -9.1371 C   0  0  1  0  0  0  0  0  0  0  0  0
   27.6824  -19.8272   -8.8226 C   0  0  0  0  0  0  0  0  0  0  0  0
   27.9426  -19.6803   -7.3811 C   0  0  0  0  0  0  0  0  0  0  0  0
   27.5522  -18.5660   -6.6545 C   0  0  0  0  0  0  0  0  0  0  0  0
   27.7841  -18.4468   -5.3012 C   0  0  0  0  0  0  0  0  0  0  0  0
   28.4297  -19.4677   -4.6246 C   0  0  0  0  0  0  0  0  0  0  0  0
   28.8292  -20.5858   -5.3172 C   0  0  0  0  0  0  0  0  0  0  0  0
   28.5813  -20.6790   -6.6849 C   0  0  0  0  0  0  0  0  0  0  0  0
   25.4862  -20.8422   -8.4438 C   0  0  0  0  0  0  0  0  0  0  0  0
   24.3438  -20.4783   -9.1483 O   0  0  0  0  0  0  0  0  0  0  0  0
   25.3320  -21.0419   -7.2171 O   0  0  0  0  0  0  0  0  0  0  0  0
  2  1  1  0
  3  2  1  0
  3  4  1  1
  5  3  1  0
  5  6  1  6
  7  8  2  0
  7  5  1  0
  9  7  1  0
 10  9  1  0
 11 12  1  0
 10 11  1  6
 12 13  1  0
 13 14  1  0
 14 15  1  0
 16 17  2  0
 16 10  1  0
 18 16  1  0
 19 20  1  6
 19 18  1  0
 20 21  1  0
 21 26  2  0
 21 22  1  0
 22 23  2  0
 23 24  1  0
 25 24  2  0
 26 25  1  0
 27 19  1  0
 28 27  1  0
 29 27  2  0
M  END
$$$$
