IKF.pdb
     RDKit          3D

 29 29  0  0  1  0  0  0  0  0999 V2000
   27.2829  -15.0397  -15.6620 C   0  0  0  0  0  0  0  0  0  0  0  0
   27.1199  -16.5201  -15.9188 C   0  0  0  0  0  0  0  0  0  0  0  0
   26.6053  -17.2313  -14.6671 C   0  0  2  0  0  0  0  0  0  0  0  0
   27.5962  -17.0379  -13.5495 C   0  0  0  0  0  0  0  0  0  0  0  0
   26.3433  -18.6987  -14.9908 C   0  0  2  0  0  0  0  0  0  0  0  0
   25.3154  -18.6340  -16.0533 N   0  0  0  0  0  0  0  0  0  0  0  0
   25.6594  -19.3280  -13.8390 C   0  0  0  0  0  0  0  0  0  0  0  0
   24.5037  -18.9397  -13.4409 O   0  0  0  0  0  0  0  0  0  0  0  0
   26.2636  -20.4002  -13.1272 N   0  0  0  0  0  0  0  0  0  0  0  0
   25.6125  -21.0317  -11.9946 C   0  0  1  0  0  0  0  0  0  0  0  0
   25.3156  -22.5047  -12.3173 C   0  0  0  0  0  0  0  0  0  0  0  0
   24.9372  -22.6770  -13.7565 C   0  0  0  0  0  0  0  0  0  0  0  0
   24.5576  -24.1271  -13.9631 C   0  0  0  0  0  0  0  0  0  0  0  0
   24.0985  -24.3815  -15.3833 C   0  0  0  0  0  0  0  0  0  0  0  0
   23.8920  -25.8059  -15.5401 N   0  0  0  0  0  0  0  0  0  0  0  0
   26.3873  -20.9443  -10.7405 C   0  0  0  0  0  0  0  0  0  0  0  0
   27.6587  -20.8104  -10.7546 O   0  0  0  0  0  0  0  0  0  0  0  0
   25.7767  -21.0015   -9.4658 N   0  0  0  0  0  0  0  0  0  0  0  0
   26.5430  -21.0092   -8.2262 C   0  0  1  0  0  0  0  0  0  0  0  0
   27.4600  -19.8352   -8.1400 C   0  0  0  0  0  0  0  0  0  0  0  0
   28.0829  -19.6896   -6.8141 C   0  0  0  0  0  0  0  0  0  0  0  0
   29.0275  -20.5778   -6.3236 C   0  0  0  0  0  0  0  0  0  0  0  0
   29.6185  -20.4218   -5.0884 C   0  0  0  0  0  0  0  0  0  0  0  0
   29.2686  -19.3438   -4.2931 C   0  0  0  0  0  0  0  0  0  0  0  0
   28.3349  -18.4453   -4.7516 C   0  0  0  0  0  0  0  0  0  0  0  0
   27.7540  -18.6282   -6.0045 C   0  0  0  0  0  0  0  0  0  0  0  0
   25.6014  -21.0375   -7.0926 C   0  0  0  0  0  0  0  0  0  0  0  0
   24.2396  -20.8510   -7.3037 O   0  0  0  0  0  0  0  0  0  0  0  0
   25.9503  -21.2245   -5.9044 O   0  0  0  0  0  0  0  0  0  0  0  0
  2  1  1  0
  3  2  1  0
  3  4  1  1
  5  3  1  0
  5  6  1  6
  7  8  2  0
  7  5  1  0
  9  7  1  0
 10  9  1  0
 11 12  1  0
 10 11  1  6
 12 13  1  0
 13 14  1  0
 14 15  1  0
 16 17  2  0
 16 10  1  0
 18 16  1  0
 19 20  1  1
 19 18  1  0
 20 21  1  0
 21 26  2  0
 21 22  1  0
 22 23  2  0
 23 24  1  0
 25 24  2  0
 26 25  1  0
 27 19  1  0
 28 27  1  0
 29 27  2  0
M  END
$$$$
