MIH.pdb
     RDKit          3D

 27 27  0  0  1  0  0  0  0  0999 V2000
   34.5299  -34.6752   -7.7483 C   0  0  0  0  0  0  0  0  0  0  0  0
   34.1395  -35.2871   -6.1324 S   0  0  0  0  0  0  0  0  0  0  0  0
   32.5436  -36.0044   -5.8732 C   0  0  0  0  0  0  0  0  0  0  0  0
   31.3946  -35.0773   -5.7876 C   0  0  0  0  0  0  0  0  0  0  0  0
   30.0625  -35.6877   -5.5817 C   0  0  2  0  0  0  0  0  0  0  0  0
   29.5689  -36.4845   -6.6516 N   0  0  0  0  0  0  0  0  0  0  0  0
   29.0518  -34.6497   -5.2059 C   0  0  0  0  0  0  0  0  0  0  0  0
   29.2657  -33.9251   -4.2218 O   0  0  0  0  0  0  0  0  0  0  0  0
   26.2678  -32.1168   -8.9721 C   0  0  0  0  0  0  0  0  0  0  0  0
   26.9716  -32.5123   -7.7201 C   0  0  0  0  0  0  0  0  0  0  0  0
   26.0222  -33.0724   -6.6600 C   0  0  2  0  0  0  0  0  0  0  0  0
   25.1032  -31.9275   -6.3246 C   0  0  0  0  0  0  0  0  0  0  0  0
   26.8478  -33.4817   -5.4688 C   0  0  2  0  0  0  0  0  0  0  0  0
   27.8640  -34.4597   -5.9246 N   0  0  0  0  0  0  0  0  0  0  0  0
   26.0606  -34.0952   -4.3686 C   0  0  0  0  0  0  0  0  0  0  0  0
   25.4255  -35.1815   -4.6441 O   0  0  0  0  0  0  0  0  0  0  0  0
   25.9299  -33.6258   -3.0530 N   0  0  0  0  0  0  0  0  0  0  0  0
   25.1924  -34.3523   -2.0194 C   0  0  1  0  0  0  0  0  0  0  0  0
   25.8062  -34.2343   -0.6804 C   0  0  0  0  0  0  0  0  0  0  0  0
   27.1421  -34.8612   -0.6494 C   0  0  0  0  0  0  0  0  0  0  0  0
   27.8243  -35.5422   -1.6436 C   0  0  0  0  0  0  0  0  0  0  0  0
   29.0071  -35.9837   -1.2214 N   0  0  0  0  0  0  0  0  0  0  0  0
   29.1029  -35.5878    0.0654 C   0  0  0  0  0  0  0  0  0  0  0  0
   27.9999  -34.9201    0.4148 N   0  0  0  0  0  0  0  0  0  0  0  0
   23.7604  -33.9994   -2.0788 C   0  0  0  0  0  0  0  0  0  0  0  0
   22.9356  -34.5972   -1.3580 O   0  0  0  0  0  0  0  0  0  0  0  0
   23.2591  -33.0058   -2.9196 O   0  0  0  0  0  0  0  0  0  0  0  0
  1  2  1  0
  3  4  1  0
  3  2  1  0
  4  5  1  0
  5  6  1  6
  5  7  1  0
  7  8  2  0
  9 10  1  0
 11 10  1  0
 11 12  1  1
 13 11  1  0
 14  7  1  0
 13 14  1  6
 15 13  1  0
 15 16  2  0
 17 15  1  0
 18 17  1  0
 18 19  1  1
 20 19  1  0
 21 20  2  0
 22 23  1  0
 22 21  1  0
 23 24  2  0
 24 20  1  0
 25 18  1  0
 26 25  2  0
 27 25  1  0
M  END
$$$$
