MIH.pdb
     RDKit          3D

 27 27  0  0  1  0  0  0  0  0999 V2000
   25.8205  -15.5580  -15.9218 C   0  0  0  0  0  0  0  0  0  0  0  0
   27.5357  -15.8982  -16.2052 S   0  0  0  0  0  0  0  0  0  0  0  0
   28.1519  -17.5003  -15.7781 C   0  0  0  0  0  0  0  0  0  0  0  0
   27.2625  -18.3735  -14.9822 C   0  0  0  0  0  0  0  0  0  0  0  0
   27.7566  -19.7379  -14.6927 C   0  0  2  0  0  0  0  0  0  0  0  0
   28.0844  -20.5360  -15.8235 N   0  0  0  0  0  0  0  0  0  0  0  0
   26.8032  -20.4737  -13.8040 C   0  0  0  0  0  0  0  0  0  0  0  0
   26.0266  -21.3021  -14.3038 O   0  0  0  0  0  0  0  0  0  0  0  0
   27.8244  -21.1002   -8.5881 C   0  0  0  0  0  0  0  0  0  0  0  0
   27.2400  -21.3593   -9.9337 C   0  0  0  0  0  0  0  0  0  0  0  0
   25.9325  -20.6011  -10.1664 C   0  0  2  0  0  0  0  0  0  0  0  0
   24.9214  -21.3054   -9.3007 C   0  0  0  0  0  0  0  0  0  0  0  0
   25.5827  -20.7182  -11.6265 C   0  0  2  0  0  0  0  0  0  0  0  0
   26.7500  -20.2649  -12.4194 N   0  0  0  0  0  0  0  0  0  0  0  0
   24.3971  -19.9199  -12.0309 C   0  0  0  0  0  0  0  0  0  0  0  0
   24.6213  -18.7354  -12.4849 O   0  0  0  0  0  0  0  0  0  0  0  0
   23.0508  -20.3110  -11.9776 N   0  0  0  0  0  0  0  0  0  0  0  0
   22.1150  -20.0913  -13.0804 C   0  0  1  0  0  0  0  0  0  0  0  0
   22.6868  -20.4305  -14.4000 C   0  0  0  0  0  0  0  0  0  0  0  0
   21.7316  -20.1368  -15.4862 C   0  0  0  0  0  0  0  0  0  0  0  0
   20.9485  -19.0145  -15.6977 C   0  0  0  0  0  0  0  0  0  0  0  0
   20.1916  -19.1349  -16.7863 N   0  0  0  0  0  0  0  0  0  0  0  0
   20.4813  -20.3508  -17.2957 C   0  0  0  0  0  0  0  0  0  0  0  0
   21.3951  -20.9539  -16.5307 N   0  0  0  0  0  0  0  0  0  0  0  0
   20.8214  -20.7359  -12.7805 C   0  0  0  0  0  0  0  0  0  0  0  0
   20.7667  -21.9634  -12.5631 O   0  0  0  0  0  0  0  0  0  0  0  0
   19.6189  -20.0315  -12.7240 O   0  0  0  0  0  0  0  0  0  0  0  0
  1  2  1  0
  3  4  1  0
  3  2  1  0
  4  5  1  0
  5  6  1  6
  5  7  1  0
  7  8  2  0
  9 10  1  0
 11 10  1  0
 11 12  1  1
 13 11  1  0
 14  7  1  0
 13 14  1  6
 15 13  1  0
 15 16  2  0
 17 15  1  0
 18 17  1  0
 18 19  1  6
 20 19  1  0
 21 20  2  0
 22 23  1  0
 22 21  1  0
 23 24  2  0
 24 20  1  0
 25 18  1  0
 26 25  2  0
 27 25  1  0
M  END
$$$$
