MIH.pdb
     RDKit          3D

 27 27  0  0  1  0  0  0  0  0999 V2000
   20.6622  -14.1040  -24.0007 C   0  0  0  0  0  0  0  0  0  0  0  0
   20.7809  -13.1675  -22.5017 S   0  0  0  0  0  0  0  0  0  0  0  0
   21.7239  -13.8431  -21.1663 C   0  0  0  0  0  0  0  0  0  0  0  0
   21.8021  -13.0431  -19.9251 C   0  0  0  0  0  0  0  0  0  0  0  0
   22.6326  -13.5938  -18.8311 C   0  0  2  0  0  0  0  0  0  0  0  0
   22.2751  -14.8903  -18.3681 N   0  0  0  0  0  0  0  0  0  0  0  0
   22.7020  -12.6388  -17.6808 C   0  0  0  0  0  0  0  0  0  0  0  0
   21.7943  -12.6431  -16.8351 O   0  0  0  0  0  0  0  0  0  0  0  0
   27.4167  -11.6102  -15.5377 C   0  0  0  0  0  0  0  0  0  0  0  0
   25.9447  -11.7816  -15.6896 C   0  0  0  0  0  0  0  0  0  0  0  0
   25.2334  -10.4804  -16.0633 C   0  0  2  0  0  0  0  0  0  0  0  0
   25.3595   -9.6097  -14.8411 C   0  0  0  0  0  0  0  0  0  0  0  0
   23.7935  -10.8080  -16.3588 C   0  0  2  0  0  0  0  0  0  0  0  0
   23.7578  -11.7322  -17.5170 N   0  0  0  0  0  0  0  0  0  0  0  0
   22.9552   -9.6227  -16.6730 C   0  0  0  0  0  0  0  0  0  0  0  0
   23.1915   -9.0229  -17.7883 O   0  0  0  0  0  0  0  0  0  0  0  0
   21.9258   -9.0782  -15.8906 N   0  0  0  0  0  0  0  0  0  0  0  0
   21.1889   -7.8738  -16.2730 C   0  0  1  0  0  0  0  0  0  0  0  0
   20.0281   -8.1579  -17.1422 C   0  0  0  0  0  0  0  0  0  0  0  0
   19.3056   -6.9184  -17.4886 C   0  0  0  0  0  0  0  0  0  0  0  0
   19.5713   -5.6081  -17.1282 C   0  0  0  0  0  0  0  0  0  0  0  0
   18.6695   -4.7637  -17.6243 N   0  0  0  0  0  0  0  0  0  0  0  0
   17.8011   -5.5289  -18.3189 C   0  0  0  0  0  0  0  0  0  0  0  0
   18.1703   -6.8105  -18.2444 N   0  0  0  0  0  0  0  0  0  0  0  0
   20.8842   -7.0669  -15.0751 C   0  0  0  0  0  0  0  0  0  0  0  0
   20.8175   -7.6088  -13.9530 O   0  0  0  0  0  0  0  0  0  0  0  0
   20.6595   -5.6912  -15.1252 O   0  0  0  0  0  0  0  0  0  0  0  0
  1  2  1  0
  3  4  1  0
  3  2  1  0
  4  5  1  0
  5  6  1  1
  5  7  1  0
  7  8  2  0
  9 10  1  0
 11 10  1  0
 11 12  1  1
 13 11  1  0
 14  7  1  0
 13 14  1  6
 15 13  1  0
 15 16  2  0
 17 15  1  0
 18 17  1  0
 18 19  1  1
 20 19  1  0
 21 20  2  0
 22 23  1  0
 22 21  1  0
 23 24  2  0
 24 20  1  0
 25 18  1  0
 26 25  2  0
 27 25  1  0
M  END
$$$$
