MIH.pdb
     RDKit          3D

 27 27  0  0  1  0  0  0  0  0999 V2000
   24.9214  -13.6267  -14.2813 C   0  0  0  0  0  0  0  0  0  0  0  0
   26.1939  -13.6184  -15.5137 S   0  0  0  0  0  0  0  0  0  0  0  0
   26.9374  -15.1606  -15.9579 C   0  0  0  0  0  0  0  0  0  0  0  0
   26.2213  -16.3922  -15.5615 C   0  0  0  0  0  0  0  0  0  0  0  0
   26.9529  -17.6679  -15.7253 C   0  0  2  0  0  0  0  0  0  0  0  0
   27.3668  -17.9846  -17.0487 N   0  0  0  0  0  0  0  0  0  0  0  0
   26.1762  -18.8074  -15.1437 C   0  0  0  0  0  0  0  0  0  0  0  0
   25.4995  -19.5251  -15.8962 O   0  0  0  0  0  0  0  0  0  0  0  0
   28.3046  -21.3482  -11.0513 C   0  0  0  0  0  0  0  0  0  0  0  0
   27.4993  -21.0760  -12.2747 C   0  0  0  0  0  0  0  0  0  0  0  0
   26.0524  -20.6957  -11.9576 C   0  0  2  0  0  0  0  0  0  0  0  0
   25.4264  -21.9646  -11.4422 C   0  0  0  0  0  0  0  0  0  0  0  0
   25.4016  -20.2421  -13.2377 C   0  0  2  0  0  0  0  0  0  0  0  0
   26.1809  -19.1008  -13.7735 N   0  0  0  0  0  0  0  0  0  0  0  0
   23.9871  -19.8169  -13.0800 C   0  0  0  0  0  0  0  0  0  0  0  0
   23.7442  -18.9283  -12.1795 O   0  0  0  0  0  0  0  0  0  0  0  0
   22.8766  -20.2729  -13.8061 N   0  0  0  0  0  0  0  0  0  0  0  0
   21.5361  -19.7096  -13.6456 C   0  0  1  0  0  0  0  0  0  0  0  0
   21.3975  -18.3669  -14.2468 C   0  0  0  0  0  0  0  0  0  0  0  0
   20.0376  -17.8300  -14.0442 C   0  0  0  0  0  0  0  0  0  0  0  0
   19.5493  -17.0106  -13.0404 C   0  0  0  0  0  0  0  0  0  0  0  0
   18.2507  -16.7594  -13.1919 N   0  0  0  0  0  0  0  0  0  0  0  0
   17.8819  -17.4218  -14.3087 C   0  0  0  0  0  0  0  0  0  0  0  0
   18.9363  -18.0610  -14.8225 N   0  0  0  0  0  0  0  0  0  0  0  0
   20.5214  -20.6907  -14.0777 C   0  0  0  0  0  0  0  0  0  0  0  0
   19.4090  -20.7336  -13.5139 O   0  0  0  0  0  0  0  0  0  0  0  0
   20.7397  -21.6011  -15.1116 O   0  0  0  0  0  0  0  0  0  0  0  0
  1  2  1  0
  3  4  1  0
  3  2  1  0
  4  5  1  0
  5  6  1  6
  5  7  1  0
  7  8  2  0
  9 10  1  0
 11 10  1  0
 11 12  1  6
 13 11  1  0
 14  7  1  0
 13 14  1  1
 15 13  1  0
 15 16  2  0
 17 15  1  0
 18 17  1  0
 18 19  1  6
 20 19  1  0
 21 20  2  0
 22 23  1  0
 22 21  1  0
 23 24  2  0
 24 20  1  0
 25 18  1  0
 26 25  2  0
 27 25  1  0
M  END
$$$$
