MIH.pdb
     RDKit          3D

 27 27  0  0  1  0  0  0  0  0999 V2000
   28.7136  -22.8699  -16.7426 C   0  0  0  0  0  0  0  0  0  0  0  0
   29.2726  -22.1982  -18.2834 S   0  0  0  0  0  0  0  0  0  0  0  0
   28.4867  -20.7350  -18.8918 C   0  0  0  0  0  0  0  0  0  0  0  0
   27.4544  -20.1179  -18.0313 C   0  0  0  0  0  0  0  0  0  0  0  0
   26.7644  -18.9260  -18.5723 C   0  0  2  0  0  0  0  0  0  0  0  0
   27.5999  -17.8374  -18.9466 N   0  0  0  0  0  0  0  0  0  0  0  0
   25.6971  -18.4552  -17.6345 C   0  0  0  0  0  0  0  0  0  0  0  0
   25.9760  -17.5990  -16.7811 O   0  0  0  0  0  0  0  0  0  0  0  0
   19.8543  -17.0645  -17.1712 C   0  0  0  0  0  0  0  0  0  0  0  0
   21.0738  -17.6043  -16.5073 C   0  0  0  0  0  0  0  0  0  0  0  0
   22.1647  -17.9976  -17.5043 C   0  0  2  0  0  0  0  0  0  0  0  0
   21.5620  -19.1179  -18.3101 C   0  0  0  0  0  0  0  0  0  0  0  0
   23.3617  -18.4666  -16.7200 C   0  0  2  0  0  0  0  0  0  0  0  0
   24.3849  -18.9447  -17.6798 N   0  0  0  0  0  0  0  0  0  0  0  0
   23.0655  -19.5607  -15.7599 C   0  0  0  0  0  0  0  0  0  0  0  0
   23.7955  -20.6189  -15.8414 O   0  0  0  0  0  0  0  0  0  0  0  0
   22.0764  -19.5737  -14.7650 N   0  0  0  0  0  0  0  0  0  0  0  0
   22.2940  -20.1433  -13.4352 C   0  0  1  0  0  0  0  0  0  0  0  0
   23.4682  -19.5693  -12.7457 C   0  0  0  0  0  0  0  0  0  0  0  0
   23.6766  -20.2043  -11.4297 C   0  0  0  0  0  0  0  0  0  0  0  0
   23.0102  -21.2674  -10.8438 C   0  0  0  0  0  0  0  0  0  0  0  0
   23.4771  -21.5360   -9.6263 N   0  0  0  0  0  0  0  0  0  0  0  0
   24.4618  -20.6385   -9.4102 C   0  0  0  0  0  0  0  0  0  0  0  0
   24.5882  -19.8428  -10.4757 N   0  0  0  0  0  0  0  0  0  0  0  0
   21.0392  -20.1062  -12.6588 C   0  0  0  0  0  0  0  0  0  0  0  0
   20.5577  -21.1588  -12.1925 O   0  0  0  0  0  0  0  0  0  0  0  0
   20.3379  -18.9269  -12.4079 O   0  0  0  0  0  0  0  0  0  0  0  0
  1  2  1  0
  3  4  1  0
  3  2  1  0
  4  5  1  0
  5  6  1  1
  5  7  1  0
  7  8  2  0
  9 10  1  0
 11 10  1  0
 11 12  1  6
 13 11  1  0
 14  7  1  0
 13 14  1  6
 15 13  1  0
 15 16  2  0
 17 15  1  0
 18 17  1  0
 18 19  1  1
 20 19  1  0
 21 20  2  0
 22 23  1  0
 22 21  1  0
 23 24  2  0
 24 20  1  0
 25 18  1  0
 26 25  2  0
 27 25  1  0
M  END
$$$$
