NYK.pdb
     RDKit          3D

 30 30  0  0  1  0  0  0  0  0999 V2000
   30.1287  -19.7745  -19.1421 N   0  0  0  0  0  0  0  0  0  0  0  0
   28.7966  -20.0685  -19.5292 C   0  0  0  0  0  0  0  0  0  0  0  0
   28.3117  -19.4706  -20.5194 O   0  0  0  0  0  0  0  0  0  0  0  0
   28.0288  -21.0628  -18.7576 C   0  0  0  0  0  0  0  0  0  0  0  0
   28.8888  -21.5600  -17.5950 C   0  0  2  0  0  0  0  0  0  0  0  0
   29.5587  -22.7936  -17.9932 N   0  0  0  0  0  0  0  0  0  0  0  0
   27.9966  -21.7947  -16.4248 C   0  0  0  0  0  0  0  0  0  0  0  0
   27.2054  -22.7493  -16.4704 O   0  0  0  0  0  0  0  0  0  0  0  0
   24.3636  -20.3137   -8.3555 O   0  0  0  0  0  0  0  0  0  0  0  0
   25.1685  -20.2833   -9.4855 C   0  0  0  0  0  0  0  0  0  0  0  0
   25.9109  -21.3946   -9.8260 C   0  0  0  0  0  0  0  0  0  0  0  0
   26.7214  -21.4079  -10.9373 C   0  0  0  0  0  0  0  0  0  0  0  0
   26.8357  -20.2954  -11.7806 C   0  0  0  0  0  0  0  0  0  0  0  0
   27.7231  -20.3127  -12.9612 C   0  0  0  0  0  0  0  0  0  0  0  0
   27.1680  -21.1325  -14.1223 C   0  0  2  0  0  0  0  0  0  0  0  0
   28.0289  -20.9773  -15.2906 N   0  0  0  0  0  0  0  0  0  0  0  0
   25.8292  -20.6213  -14.4500 C   0  0  0  0  0  0  0  0  0  0  0  0
   25.6702  -19.5333  -15.1003 O   0  0  0  0  0  0  0  0  0  0  0  0
   26.0734  -19.2008  -11.4019 C   0  0  0  0  0  0  0  0  0  0  0  0
   25.2606  -19.1737  -10.2965 C   0  0  0  0  0  0  0  0  0  0  0  0
   24.6192  -21.2721  -14.0854 N   0  0  0  0  0  0  0  0  0  0  0  0
   23.2940  -20.6570  -14.3167 C   0  0  1  0  0  0  0  0  0  0  0  0
   22.5707  -21.3924  -15.4051 C   0  0  0  0  0  0  0  0  0  0  0  0
   21.2147  -20.9291  -15.7431 C   0  0  0  0  0  0  0  0  0  0  0  0
   20.5314  -21.6983  -16.8364 C   0  0  0  0  0  0  0  0  0  0  0  0
   19.1867  -21.1109  -17.1980 C   0  0  0  0  0  0  0  0  0  0  0  0
   18.5137  -21.8686  -18.2283 N   0  0  0  0  0  0  0  0  0  0  0  0
   22.4831  -20.7557  -13.0725 C   0  0  0  0  0  0  0  0  0  0  0  0
   22.6638  -21.6181  -12.1826 O   0  0  0  0  0  0  0  0  0  0  0  0
   21.4533  -19.8452  -12.8579 O   0  0  0  0  0  0  0  0  0  0  0  0
  2  3  2  0
  2  1  1  0
  4  5  1  0
  4  2  1  0
  5  7  1  0
  5  6  1  6
  7  8  2  0
  9 10  1  0
 10 11  2  0
 11 12  1  0
 13 14  1  0
 13 12  2  0
 15 14  1  1
 15 17  1  0
 16 15  1  0
 16  7  1  0
 17 18  2  0
 19 13  1  0
 20 19  2  0
 20 10  1  0
 21 17  1  0
 21 22  1  0
 22 28  1  0
 22 23  1  6
 24 23  1  0
 25 24  1  0
 26 25  1  0
 26 27  1  0
 28 29  2  0
 28 30  1  0
M  END
$$$$
