NYK.pdb
     RDKit          3D

 30 30  0  0  1  0  0  0  0  0999 V2000
   28.1047  -23.5656  -19.6061 N   0  0  0  0  0  0  0  0  0  0  0  0
   28.6838  -22.9365  -18.4749 C   0  0  0  0  0  0  0  0  0  0  0  0
   29.7445  -22.2843  -18.6262 O   0  0  0  0  0  0  0  0  0  0  0  0
   28.0229  -23.0698  -17.1638 C   0  0  0  0  0  0  0  0  0  0  0  0
   27.2315  -21.7936  -16.8753 C   0  0  2  0  0  0  0  0  0  0  0  0
   28.1463  -20.6568  -16.8766 N   0  0  0  0  0  0  0  0  0  0  0  0
   26.5752  -21.9449  -15.5460 C   0  0  0  0  0  0  0  0  0  0  0  0
   25.7033  -22.8179  -15.4165 O   0  0  0  0  0  0  0  0  0  0  0  0
   24.8818  -20.5239   -6.8721 O   0  0  0  0  0  0  0  0  0  0  0  0
   25.4306  -20.5581   -8.1463 C   0  0  0  0  0  0  0  0  0  0  0  0
   25.9535  -19.4066   -8.6964 C   0  0  0  0  0  0  0  0  0  0  0  0
   26.5070  -19.3955   -9.9555 C   0  0  0  0  0  0  0  0  0  0  0  0
   26.5688  -20.5511  -10.7447 C   0  0  0  0  0  0  0  0  0  0  0  0
   27.1482  -20.5253  -12.1031 C   0  0  0  0  0  0  0  0  0  0  0  0
   26.2483  -21.1659  -13.1558 C   0  0  2  0  0  0  0  0  0  0  0  0
   26.9135  -21.1386  -14.4547 N   0  0  0  0  0  0  0  0  0  0  0  0
   25.0084  -20.3810  -13.2429 C   0  0  0  0  0  0  0  0  0  0  0  0
   25.0027  -19.1899  -13.7044 O   0  0  0  0  0  0  0  0  0  0  0  0
   26.0321  -21.6851  -10.1540 C   0  0  0  0  0  0  0  0  0  0  0  0
   25.4773  -21.7106   -8.8992 C   0  0  0  0  0  0  0  0  0  0  0  0
   23.7342  -20.8609  -12.8343 N   0  0  0  0  0  0  0  0  0  0  0  0
   22.5087  -20.0415  -12.9558 C   0  0  1  0  0  0  0  0  0  0  0  0
   22.1868  -19.8125  -14.4024 C   0  0  0  0  0  0  0  0  0  0  0  0
   20.9892  -19.0117  -14.7059 C   0  0  0  0  0  0  0  0  0  0  0  0
   20.6784  -18.8565  -16.1665 C   0  0  0  0  0  0  0  0  0  0  0  0
   19.4878  -17.9575  -16.4081 C   0  0  0  0  0  0  0  0  0  0  0  0
   19.1365  -17.8729  -17.8073 N   0  0  0  0  0  0  0  0  0  0  0  0
   21.3679  -20.7701  -12.3368 C   0  0  0  0  0  0  0  0  0  0  0  0
   20.4441  -20.2163  -11.6979 O   0  0  0  0  0  0  0  0  0  0  0  0
   21.2974  -22.1541  -12.4603 O   0  0  0  0  0  0  0  0  0  0  0  0
  2  3  2  0
  2  1  1  0
  4  5  1  0
  4  2  1  0
  5  7  1  0
  5  6  1  1
  7  8  2  0
  9 10  1  0
 10 11  2  0
 11 12  1  0
 13 14  1  0
 13 12  2  0
 15 14  1  1
 15 17  1  0
 16 15  1  0
 16  7  1  0
 17 18  2  0
 19 13  1  0
 20 19  2  0
 20 10  1  0
 21 17  1  0
 21 22  1  0
 22 28  1  0
 22 23  1  6
 24 23  1  0
 25 24  1  0
 26 25  1  0
 26 27  1  0
 28 29  2  0
 28 30  1  0
M  END
$$$$
