NFK.pdb
     RDKit          3D

 29 29  0  0  1  0  0  0  0  0999 V2000
   26.9888  -23.2857  -16.2099 N   0  0  0  0  0  0  0  0  0  0  0  0
   28.2432  -22.5983  -16.3383 C   0  0  0  0  0  0  0  0  0  0  0  0
   29.2551  -23.2973  -16.0761 O   0  0  0  0  0  0  0  0  0  0  0  0
   28.2614  -21.1854  -16.7498 C   0  0  0  0  0  0  0  0  0  0  0  0
   26.9330  -20.5589  -16.9802 C   0  0  2  0  0  0  0  0  0  0  0  0
   27.2168  -19.2365  -17.5885 N   0  0  0  0  0  0  0  0  0  0  0  0
   26.1496  -20.2620  -15.7687 C   0  0  0  0  0  0  0  0  0  0  0  0
   26.6522  -19.5076  -14.9046 O   0  0  0  0  0  0  0  0  0  0  0  0
   24.8695  -20.7697  -15.5139 N   0  0  0  0  0  0  0  0  0  0  0  0
   24.0209  -20.3208  -14.3761 C   0  0  1  0  0  0  0  0  0  0  0  0
   23.9159  -18.8698  -14.5169 C   0  0  0  0  0  0  0  0  0  0  0  0
   23.1901  -18.2452  -15.5857 C   0  0  0  0  0  0  0  0  0  0  0  0
   23.8698  -17.7996  -16.6976 C   0  0  0  0  0  0  0  0  0  0  0  0
   23.2128  -17.1800  -17.7633 C   0  0  0  0  0  0  0  0  0  0  0  0
   21.8476  -17.0219  -17.6767 C   0  0  0  0  0  0  0  0  0  0  0  0
   21.1430  -17.4611  -16.5709 C   0  0  0  0  0  0  0  0  0  0  0  0
   21.8211  -18.0679  -15.5372 C   0  0  0  0  0  0  0  0  0  0  0  0
   22.7460  -21.0589  -14.4437 C   0  0  0  0  0  0  0  0  0  0  0  0
   22.3117  -21.3955  -15.6062 O   0  0  0  0  0  0  0  0  0  0  0  0
   21.9342  -21.4530  -13.3751 N   0  0  0  0  0  0  0  0  0  0  0  0
   20.6374  -22.1876  -13.6385 C   0  0  1  0  0  0  0  0  0  0  0  0
   20.4898  -23.1623  -12.5085 C   0  0  0  0  0  0  0  0  0  0  0  0
   19.4205  -24.1211  -12.4405 C   0  0  0  0  0  0  0  0  0  0  0  0
   19.1891  -25.1096  -11.3978 C   0  0  0  0  0  0  0  0  0  0  0  0
   19.4346  -26.5462  -11.6874 C   0  0  0  0  0  0  0  0  0  0  0  0
   19.1860  -27.3970  -10.5808 N   0  0  0  0  0  0  0  0  0  0  0  0
   19.6386  -21.1378  -13.6305 C   0  0  0  0  0  0  0  0  0  0  0  0
   19.9222  -20.0064  -13.1057 O   0  0  0  0  0  0  0  0  0  0  0  0
   18.3847  -21.2477  -14.1536 O   0  0  0  0  0  0  0  0  0  0  0  0
  1  2  1  0
  2  3  2  0
  4  5  1  0
  4  2  1  0
  5  6  1  1
  5  7  1  0
  7  8  2  0
  9  7  1  0
  9 10  1  0
 10 18  1  0
 11 12  1  0
 10 11  1  6
 12 13  2  0
 13 14  1  0
 15 14  2  0
 16 15  1  0
 17 12  1  0
 17 16  2  0
 18 20  1  0
 19 18  2  0
 20 21  1  0
 21 27  1  0
 21 22  1  1
 23 22  1  0
 24 23  1  0
 25 24  1  0
 26 25  1  0
 27 28  2  0
 27 29  1  0
M  END
$$$$
