NFK.pdb
     RDKit          3D

 29 29  0  0  1  0  0  0  0  0999 V2000
   19.8437  -23.1012   -9.3727 N   0  0  0  0  0  0  0  0  0  0  0  0
   19.7357  -21.9028  -10.1567 C   0  0  0  0  0  0  0  0  0  0  0  0
   18.5887  -21.6802  -10.6217 O   0  0  0  0  0  0  0  0  0  0  0  0
   20.9203  -21.0525  -10.3555 C   0  0  0  0  0  0  0  0  0  0  0  0
   22.1755  -21.5276   -9.7159 C   0  0  2  0  0  0  0  0  0  0  0  0
   22.0006  -21.2805   -8.2641 N   0  0  0  0  0  0  0  0  0  0  0  0
   23.3969  -20.7915  -10.0844 C   0  0  0  0  0  0  0  0  0  0  0  0
   23.2854  -19.5998  -10.4533 O   0  0  0  0  0  0  0  0  0  0  0  0
   24.6863  -21.3370  -10.0506 N   0  0  0  0  0  0  0  0  0  0  0  0
   25.9156  -20.5550  -10.3562 C   0  0  1  0  0  0  0  0  0  0  0  0
   26.9399  -21.0684   -9.4487 C   0  0  0  0  0  0  0  0  0  0  0  0
   27.1951  -20.4893   -8.1608 C   0  0  0  0  0  0  0  0  0  0  0  0
   28.0310  -21.1378   -7.2791 C   0  0  0  0  0  0  0  0  0  0  0  0
   28.3086  -20.6208   -6.0114 C   0  0  0  0  0  0  0  0  0  0  0  0
   27.7184  -19.4285   -5.6565 C   0  0  0  0  0  0  0  0  0  0  0  0
   26.8757  -18.7585   -6.5242 C   0  0  0  0  0  0  0  0  0  0  0  0
   26.6226  -19.2955   -7.7669 C   0  0  0  0  0  0  0  0  0  0  0  0
   26.2054  -20.7111  -11.7938 C   0  0  0  0  0  0  0  0  0  0  0  0
   25.9131  -21.8362  -12.3432 O   0  0  0  0  0  0  0  0  0  0  0  0
   26.7664  -19.7631  -12.6556 N   0  0  0  0  0  0  0  0  0  0  0  0
   27.0019  -20.1064  -14.1107 C   0  0  1  0  0  0  0  0  0  0  0  0
   27.3703  -18.8137  -14.7753 C   0  0  0  0  0  0  0  0  0  0  0  0
   27.8163  -18.7380  -16.1401 C   0  0  0  0  0  0  0  0  0  0  0  0
   28.2072  -17.5435  -16.8737 C   0  0  0  0  0  0  0  0  0  0  0  0
   28.6281  -17.6646  -18.2937 C   0  0  0  0  0  0  0  0  0  0  0  0
   29.1009  -16.4491  -18.8495 N   0  0  0  0  0  0  0  0  0  0  0  0
   28.0883  -21.0644  -14.0676 C   0  0  0  0  0  0  0  0  0  0  0  0
   28.1189  -22.0168  -14.9207 O   0  0  0  0  0  0  0  0  0  0  0  0
   29.1178  -21.0393  -13.1745 O   0  0  0  0  0  0  0  0  0  0  0  0
  1  2  1  0
  2  3  2  0
  4  5  1  0
  4  2  1  0
  5  6  1  1
  5  7  1  0
  7  8  2  0
  9  7  1  0
  9 10  1  0
 10 18  1  0
 11 12  1  0
 10 11  1  1
 12 13  2  0
 13 14  1  0
 15 14  2  0
 16 15  1  0
 17 12  1  0
 17 16  2  0
 18 20  1  0
 19 18  2  0
 20 21  1  0
 21 27  1  0
 21 22  1  6
 23 22  1  0
 24 23  1  0
 25 24  1  0
 26 25  1  0
 27 28  2  0
 27 29  1  0
M  END
$$$$
