NFK.pdb
     RDKit          3D

 29 29  0  0  1  0  0  0  0  0999 V2000
   19.1573   -6.9350  -12.6650 N   0  0  0  0  0  0  0  0  0  0  0  0
   19.3881   -8.3515  -12.7167 C   0  0  0  0  0  0  0  0  0  0  0  0
   18.7354   -9.0217  -11.8762 O   0  0  0  0  0  0  0  0  0  0  0  0
   20.3302   -8.9010  -13.7047 C   0  0  0  0  0  0  0  0  0  0  0  0
   21.1326   -7.9041  -14.4614 C   0  0  2  0  0  0  0  0  0  0  0  0
   20.1611   -7.1736  -15.3109 N   0  0  0  0  0  0  0  0  0  0  0  0
   22.1193   -8.4618  -15.4022 C   0  0  0  0  0  0  0  0  0  0  0  0
   21.7682   -8.6533  -16.5891 O   0  0  0  0  0  0  0  0  0  0  0  0
   23.4351   -8.7959  -15.0582 N   0  0  0  0  0  0  0  0  0  0  0  0
   24.4160   -9.3635  -16.0234 C   0  0  1  0  0  0  0  0  0  0  0  0
   25.7201   -9.2315  -15.3769 C   0  0  0  0  0  0  0  0  0  0  0  0
   26.9115   -9.8320  -15.9053 C   0  0  0  0  0  0  0  0  0  0  0  0
   27.5629   -9.2324  -16.9603 C   0  0  0  0  0  0  0  0  0  0  0  0
   28.7228   -9.7778  -17.5157 C   0  0  0  0  0  0  0  0  0  0  0  0
   29.2091  -10.9477  -16.9764 C   0  0  0  0  0  0  0  0  0  0  0  0
   28.5731  -11.5684  -15.9170 C   0  0  0  0  0  0  0  0  0  0  0  0
   27.4313  -11.0046  -15.3926 C   0  0  0  0  0  0  0  0  0  0  0  0
   23.9984  -10.7432  -16.3343 C   0  0  0  0  0  0  0  0  0  0  0  0
   23.5671  -11.4694  -15.3649 O   0  0  0  0  0  0  0  0  0  0  0  0
   24.0077  -11.3732  -17.5830 N   0  0  0  0  0  0  0  0  0  0  0  0
   23.6069  -12.8279  -17.7016 C   0  0  1  0  0  0  0  0  0  0  0  0
   22.3682  -12.8370  -18.5467 C   0  0  0  0  0  0  0  0  0  0  0  0
   21.7611  -14.0485  -19.0272 C   0  0  0  0  0  0  0  0  0  0  0  0
   20.5561  -14.1696  -19.8342 C   0  0  0  0  0  0  0  0  0  0  0  0
   20.0952  -15.5168  -20.2593 C   0  0  0  0  0  0  0  0  0  0  0  0
   18.9367  -15.4869  -21.0760 N   0  0  0  0  0  0  0  0  0  0  0  0
   24.7485  -13.4490  -18.3424 C   0  0  0  0  0  0  0  0  0  0  0  0
   24.9477  -14.7032  -18.1901 O   0  0  0  0  0  0  0  0  0  0  0  0
   25.6567  -12.7981  -19.1232 O   0  0  0  0  0  0  0  0  0  0  0  0
  1  2  1  0
  2  3  2  0
  4  5  1  0
  4  2  1  0
  5  6  1  6
  5  7  1  0
  7  8  2  0
  9  7  1  0
  9 10  1  0
 10 18  1  0
 11 12  1  0
 10 11  1  1
 12 13  2  0
 13 14  1  0
 15 14  2  0
 16 15  1  0
 17 12  1  0
 17 16  2  0
 18 20  1  0
 19 18  2  0
 20 21  1  0
 21 27  1  0
 21 22  1  6
 23 22  1  0
 24 23  1  0
 25 24  1  0
 26 25  1  0
 27 28  2  0
 27 29  1  0
M  END
$$$$
