NFK.pdb
     RDKit          3D

 29 29  0  0  1  0  0  0  0  0999 V2000
   28.9249  -21.0325  -19.1480 N   0  0  0  0  0  0  0  0  0  0  0  0
   27.5274  -20.7049  -19.1057 C   0  0  0  0  0  0  0  0  0  0  0  0
   27.1369  -19.9463  -20.0296 O   0  0  0  0  0  0  0  0  0  0  0  0
   26.6822  -21.2532  -18.0329 C   0  0  0  0  0  0  0  0  0  0  0  0
   27.3927  -22.0119  -16.9700 C   0  0  2  0  0  0  0  0  0  0  0  0
   27.5836  -23.3775  -17.5159 N   0  0  0  0  0  0  0  0  0  0  0  0
   26.6453  -22.2030  -15.7153 C   0  0  0  0  0  0  0  0  0  0  0  0
   25.9630  -23.2446  -15.5813 O   0  0  0  0  0  0  0  0  0  0  0  0
   26.6448  -21.2919  -14.6517 N   0  0  0  0  0  0  0  0  0  0  0  0
   25.9322  -21.5319  -13.3668 C   0  0  1  0  0  0  0  0  0  0  0  0
   26.6937  -20.8006  -12.3562 C   0  0  0  0  0  0  0  0  0  0  0  0
   26.2629  -20.6879  -10.9920 C   0  0  0  0  0  0  0  0  0  0  0  0
   26.9659  -21.3389  -10.0027 C   0  0  0  0  0  0  0  0  0  0  0  0
   26.5863  -21.2670   -8.6603 C   0  0  0  0  0  0  0  0  0  0  0  0
   25.4753  -20.5183   -8.3422 C   0  0  0  0  0  0  0  0  0  0  0  0
   24.7532  -19.8555   -9.3175 C   0  0  0  0  0  0  0  0  0  0  0  0
   25.1541  -19.9470  -10.6319 C   0  0  0  0  0  0  0  0  0  0  0  0
   24.5316  -21.1036  -13.5393 C   0  0  0  0  0  0  0  0  0  0  0  0
   24.3202  -19.9577  -14.0829 O   0  0  0  0  0  0  0  0  0  0  0  0
   23.3772  -21.8078  -13.1822 N   0  0  0  0  0  0  0  0  0  0  0  0
   22.0179  -21.1573  -13.3230 C   0  0  1  0  0  0  0  0  0  0  0  0
   21.0289  -22.2844  -13.3152 C   0  0  0  0  0  0  0  0  0  0  0  0
   19.6067  -22.0737  -13.3087 C   0  0  0  0  0  0  0  0  0  0  0  0
   18.5663  -23.0898  -13.2525 C   0  0  0  0  0  0  0  0  0  0  0  0
   17.1405  -22.6791  -13.3331 C   0  0  0  0  0  0  0  0  0  0  0  0
   16.2333  -23.7659  -13.2563 N   0  0  0  0  0  0  0  0  0  0  0  0
   21.9246  -20.2983  -12.1596 C   0  0  0  0  0  0  0  0  0  0  0  0
   21.3875  -19.1433  -12.2744 O   0  0  0  0  0  0  0  0  0  0  0  0
   22.3667  -20.6218  -10.9115 O   0  0  0  0  0  0  0  0  0  0  0  0
  1  2  1  0
  2  3  2  0
  4  5  1  0
  4  2  1  0
  5  6  1  6
  5  7  1  0
  7  8  2  0
  9  7  1  0
  9 10  1  0
 10 18  1  0
 11 12  1  0
 10 11  1  1
 12 13  2  0
 13 14  1  0
 15 14  2  0
 16 15  1  0
 17 12  1  0
 17 16  2  0
 18 20  1  0
 19 18  2  0
 20 21  1  0
 21 27  1  0
 21 22  1  1
 23 22  1  0
 24 23  1  0
 25 24  1  0
 26 25  1  0
 27 28  2  0
 27 29  1  0
M  END
$$$$
