NFK.pdb
     RDKit          3D

 29 29  0  0  1  0  0  0  0  0999 V2000
   29.6593  -18.0924  -15.6139 N   0  0  0  0  0  0  0  0  0  0  0  0
   28.2403  -17.9492  -15.7818 C   0  0  0  0  0  0  0  0  0  0  0  0
   27.8955  -17.0893  -16.6322 O   0  0  0  0  0  0  0  0  0  0  0  0
   27.3242  -18.7802  -14.9842 C   0  0  0  0  0  0  0  0  0  0  0  0
   27.9554  -19.6055  -13.9209 C   0  0  2  0  0  0  0  0  0  0  0  0
   28.8484  -20.5534  -14.6304 N   0  0  0  0  0  0  0  0  0  0  0  0
   27.0367  -20.4549  -13.1437 C   0  0  0  0  0  0  0  0  0  0  0  0
   26.8477  -21.6326  -13.5257 O   0  0  0  0  0  0  0  0  0  0  0  0
   26.3534  -20.0328  -11.9964 N   0  0  0  0  0  0  0  0  0  0  0  0
   25.3928  -20.8921  -11.2515 C   0  0  1  0  0  0  0  0  0  0  0  0
   25.3987  -20.3857   -9.8805 C   0  0  0  0  0  0  0  0  0  0  0  0
   26.5488  -20.4730   -9.0269 C   0  0  0  0  0  0  0  0  0  0  0  0
   26.6793  -19.5962   -7.9728 C   0  0  0  0  0  0  0  0  0  0  0  0
   27.7812  -19.6342   -7.1152 C   0  0  0  0  0  0  0  0  0  0  0  0
   28.7505  -20.5835   -7.3503 C   0  0  0  0  0  0  0  0  0  0  0  0
   28.6420  -21.4749   -8.4018 C   0  0  0  0  0  0  0  0  0  0  0  0
   27.5429  -21.4105   -9.2291 C   0  0  0  0  0  0  0  0  0  0  0  0
   24.0939  -20.8266  -11.9468 C   0  0  0  0  0  0  0  0  0  0  0  0
   23.7992  -19.7356  -12.5601 O   0  0  0  0  0  0  0  0  0  0  0  0
   23.1222  -21.8292  -12.0291 N   0  0  0  0  0  0  0  0  0  0  0  0
   21.8749  -21.6104  -12.8579 C   0  0  1  0  0  0  0  0  0  0  0  0
   21.5246  -22.9550  -13.4218 C   0  0  0  0  0  0  0  0  0  0  0  0
   20.3640  -23.1790  -14.2404 C   0  0  0  0  0  0  0  0  0  0  0  0
   19.8176  -24.4603  -14.6617 C   0  0  0  0  0  0  0  0  0  0  0  0
   18.5840  -24.4905  -15.4896 C   0  0  0  0  0  0  0  0  0  0  0  0
   18.0868  -25.7986  -15.7167 N   0  0  0  0  0  0  0  0  0  0  0  0
   20.9068  -21.1152  -11.9000 C   0  0  0  0  0  0  0  0  0  0  0  0
   21.1140  -21.2922  -10.6504 O   0  0  0  0  0  0  0  0  0  0  0  0
   19.7601  -20.4512  -12.2195 O   0  0  0  0  0  0  0  0  0  0  0  0
  1  2  1  0
  2  3  2  0
  4  5  1  0
  4  2  1  0
  5  6  1  6
  5  7  1  0
  7  8  2  0
  9  7  1  0
  9 10  1  0
 10 18  1  0
 11 12  1  0
 10 11  1  1
 12 13  2  0
 13 14  1  0
 15 14  2  0
 16 15  1  0
 17 12  1  0
 17 16  2  0
 18 20  1  0
 19 18  2  0
 20 21  1  0
 21 27  1  0
 21 22  1  1
 23 22  1  0
 24 23  1  0
 25 24  1  0
 26 25  1  0
 27 28  2  0
 27 29  1  0
M  END
$$$$
