NFK.pdb
     RDKit          3D

 29 29  0  0  1  0  0  0  0  0999 V2000
   27.6727  -21.2454  -19.3562 N   0  0  0  0  0  0  0  0  0  0  0  0
   26.8928  -22.4346  -19.1561 C   0  0  0  0  0  0  0  0  0  0  0  0
   26.8379  -23.2011  -20.1515 O   0  0  0  0  0  0  0  0  0  0  0  0
   26.2388  -22.6678  -17.8585 C   0  0  0  0  0  0  0  0  0  0  0  0
   26.4333  -21.6085  -16.8336 C   0  0  2  0  0  0  0  0  0  0  0  0
   27.8701  -21.6648  -16.4708 N   0  0  0  0  0  0  0  0  0  0  0  0
   25.7110  -21.8083  -15.5655 C   0  0  0  0  0  0  0  0  0  0  0  0
   24.6215  -22.4255  -15.5917 O   0  0  0  0  0  0  0  0  0  0  0  0
   26.1623  -21.3514  -14.3210 N   0  0  0  0  0  0  0  0  0  0  0  0
   25.3786  -21.4906  -13.0630 C   0  0  1  0  0  0  0  0  0  0  0  0
   26.3288  -21.2376  -11.9817 C   0  0  0  0  0  0  0  0  0  0  0  0
   25.9152  -20.9445  -10.6392 C   0  0  0  0  0  0  0  0  0  0  0  0
   24.6268  -21.2335  -10.2479 C   0  0  0  0  0  0  0  0  0  0  0  0
   24.1714  -20.9634   -8.9553 C   0  0  0  0  0  0  0  0  0  0  0  0
   25.0537  -20.3925   -8.0655 C   0  0  0  0  0  0  0  0  0  0  0  0
   26.3523  -20.0933   -8.4345 C   0  0  0  0  0  0  0  0  0  0  0  0
   26.7696  -20.3721   -9.7170 C   0  0  0  0  0  0  0  0  0  0  0  0
   24.2371  -20.5597  -13.1357 C   0  0  0  0  0  0  0  0  0  0  0  0
   24.4759  -19.3492  -13.4974 O   0  0  0  0  0  0  0  0  0  0  0  0
   22.8945  -20.8378  -12.8594 N   0  0  0  0  0  0  0  0  0  0  0  0
   21.8675  -19.7265  -12.8923 C   0  0  1  0  0  0  0  0  0  0  0  0
   21.3848  -19.6657  -14.3107 C   0  0  0  0  0  0  0  0  0  0  0  0
   20.7877  -20.7894  -14.9800 C   0  0  0  0  0  0  0  0  0  0  0  0
   21.2971  -21.4902  -16.1493 C   0  0  0  0  0  0  0  0  0  0  0  0
   20.5146  -22.6153  -16.7237 C   0  0  0  0  0  0  0  0  0  0  0  0
   21.1116  -23.1909  -17.8736 N   0  0  0  0  0  0  0  0  0  0  0  0
   20.8536  -20.1662  -11.9550 C   0  0  0  0  0  0  0  0  0  0  0  0
   20.7914  -21.4023  -11.6327 O   0  0  0  0  0  0  0  0  0  0  0  0
   19.9330  -19.3549  -11.3615 O   0  0  0  0  0  0  0  0  0  0  0  0
  1  2  1  0
  2  3  2  0
  4  5  1  0
  4  2  1  0
  5  6  1  1
  5  7  1  0
  7  8  2  0
  9  7  1  0
  9 10  1  0
 10 18  1  0
 11 12  1  0
 10 11  1  1
 12 13  2  0
 13 14  1  0
 15 14  2  0
 16 15  1  0
 17 12  1  0
 17 16  2  0
 18 20  1  0
 19 18  2  0
 20 21  1  0
 21 27  1  0
 21 22  1  6
 23 22  1  0
 24 23  1  0
 25 24  1  0
 26 25  1  0
 27 28  2  0
 27 29  1  0
M  END
$$$$
