NFK.pdb
     RDKit          3D

 29 29  0  0  1  0  0  0  0  0999 V2000
   29.0122  -21.2627  -19.6700 N   0  0  0  0  0  0  0  0  0  0  0  0
   29.7390  -21.6593  -18.4966 C   0  0  0  0  0  0  0  0  0  0  0  0
   30.9863  -21.7184  -18.6456 O   0  0  0  0  0  0  0  0  0  0  0  0
   29.0098  -21.9569  -17.2534 C   0  0  0  0  0  0  0  0  0  0  0  0
   27.5324  -21.8034  -17.3144 C   0  0  2  0  0  0  0  0  0  0  0  0
   27.2912  -20.3559  -17.5287 N   0  0  0  0  0  0  0  0  0  0  0  0
   26.8057  -22.1327  -16.0762 C   0  0  0  0  0  0  0  0  0  0  0  0
   26.8956  -23.2974  -15.6248 O   0  0  0  0  0  0  0  0  0  0  0  0
   26.0136  -21.2249  -15.3622 N   0  0  0  0  0  0  0  0  0  0  0  0
   25.3245  -21.5643  -14.0870 C   0  0  1  0  0  0  0  0  0  0  0  0
   25.8759  -20.6487  -13.0902 C   0  0  0  0  0  0  0  0  0  0  0  0
   25.4339  -20.6314  -11.7250 C   0  0  0  0  0  0  0  0  0  0  0  0
   24.1819  -20.1431  -11.4235 C   0  0  0  0  0  0  0  0  0  0  0  0
   23.7050  -20.0985  -10.1113 C   0  0  0  0  0  0  0  0  0  0  0  0
   24.5276  -20.5614   -9.1088 C   0  0  0  0  0  0  0  0  0  0  0  0
   25.7886  -21.0565   -9.3863 C   0  0  0  0  0  0  0  0  0  0  0  0
   26.2287  -21.0864  -10.6909 C   0  0  0  0  0  0  0  0  0  0  0  0
   23.8716  -21.4546  -14.3147 C   0  0  0  0  0  0  0  0  0  0  0  0
   23.4414  -20.4140  -14.9355 O   0  0  0  0  0  0  0  0  0  0  0  0
   22.8805  -22.3658  -13.9358 N   0  0  0  0  0  0  0  0  0  0  0  0
   21.4196  -22.0225  -14.1320 C   0  0  1  0  0  0  0  0  0  0  0  0
   20.6792  -23.3195  -13.9970 C   0  0  0  0  0  0  0  0  0  0  0  0
   19.2472  -23.4128  -14.0855 C   0  0  0  0  0  0  0  0  0  0  0  0
   18.4378  -24.6204  -14.0212 C   0  0  0  0  0  0  0  0  0  0  0  0
   16.9579  -24.5118  -14.1003 C   0  0  0  0  0  0  0  0  0  0  0  0
   16.2858  -25.7307  -13.8310 N   0  0  0  0  0  0  0  0  0  0  0  0
   21.1397  -21.0833  -13.0646 C   0  0  0  0  0  0  0  0  0  0  0  0
   20.5150  -19.9995  -13.3307 O   0  0  0  0  0  0  0  0  0  0  0  0
   21.4881  -21.2577  -11.7584 O   0  0  0  0  0  0  0  0  0  0  0  0
  1  2  1  0
  2  3  2  0
  4  5  1  0
  4  2  1  0
  5  6  1  1
  5  7  1  0
  7  8  2  0
  9  7  1  0
  9 10  1  0
 10 18  1  0
 11 12  1  0
 10 11  1  1
 12 13  2  0
 13 14  1  0
 15 14  2  0
 16 15  1  0
 17 12  1  0
 17 16  2  0
 18 20  1  0
 19 18  2  0
 20 21  1  0
 21 27  1  0
 21 22  1  1
 23 22  1  0
 24 23  1  0
 25 24  1  0
 26 25  1  0
 27 28  2  0
 27 29  1  0
M  END
$$$$
