NFK.pdb
     RDKit          3D

 29 29  0  0  1  0  0  0  0  0999 V2000
   21.7777   -4.9904  -13.3775 N   0  0  0  0  0  0  0  0  0  0  0  0
   20.8776   -5.4319  -14.4057 C   0  0  0  0  0  0  0  0  0  0  0  0
   19.7107   -4.9717  -14.3162 O   0  0  0  0  0  0  0  0  0  0  0  0
   21.3577   -6.3519  -15.4492 C   0  0  0  0  0  0  0  0  0  0  0  0
   22.8003   -6.7062  -15.3890 C   0  0  2  0  0  0  0  0  0  0  0  0
   23.5272   -5.4912  -15.8300 N   0  0  0  0  0  0  0  0  0  0  0  0
   23.2349   -7.7680  -16.3128 C   0  0  0  0  0  0  0  0  0  0  0  0
   23.4492   -7.4654  -17.5091 O   0  0  0  0  0  0  0  0  0  0  0  0
   23.4268   -9.1049  -15.9426 N   0  0  0  0  0  0  0  0  0  0  0  0
   23.8203  -10.1730  -16.9021 C   0  0  1  0  0  0  0  0  0  0  0  0
   24.7705  -11.0158  -16.1790 C   0  0  0  0  0  0  0  0  0  0  0  0
   26.1884  -10.9391  -16.3861 C   0  0  0  0  0  0  0  0  0  0  0  0
   27.0413  -11.4672  -15.4424 C   0  0  0  0  0  0  0  0  0  0  0  0
   28.4291  -11.4142  -15.5921 C   0  0  0  0  0  0  0  0  0  0  0  0
   28.9345  -10.8125  -16.7228 C   0  0  0  0  0  0  0  0  0  0  0  0
   28.0988  -10.2752  -17.6845 C   0  0  0  0  0  0  0  0  0  0  0  0
   26.7349  -10.3439  -17.5064 C   0  0  0  0  0  0  0  0  0  0  0  0
   22.5906  -10.8484  -17.3564 C   0  0  0  0  0  0  0  0  0  0  0  0
   21.6726  -11.0683  -16.4834 O   0  0  0  0  0  0  0  0  0  0  0  0
   22.2889  -11.2847  -18.6506 N   0  0  0  0  0  0  0  0  0  0  0  0
   21.0228  -12.0723  -18.9096 C   0  0  1  0  0  0  0  0  0  0  0  0
   20.7403  -11.9112  -20.3735 C   0  0  0  0  0  0  0  0  0  0  0  0
   19.6622  -12.5910  -21.0390 C   0  0  0  0  0  0  0  0  0  0  0  0
   19.3248  -12.5335  -22.4534 C   0  0  0  0  0  0  0  0  0  0  0  0
   18.1442  -13.2852  -22.9528 C   0  0  0  0  0  0  0  0  0  0  0  0
   17.8401  -13.0229  -24.3125 N   0  0  0  0  0  0  0  0  0  0  0  0
   21.3765  -13.4267  -18.5348 C   0  0  0  0  0  0  0  0  0  0  0  0
   22.6105  -13.7499  -18.4425 O   0  0  0  0  0  0  0  0  0  0  0  0
   20.4845  -14.4193  -18.2570 O   0  0  0  0  0  0  0  0  0  0  0  0
  1  2  1  0
  2  3  2  0
  4  5  1  0
  4  2  1  0
  5  6  1  6
  5  7  1  0
  7  8  2  0
  9  7  1  0
  9 10  1  0
 10 18  1  0
 11 12  1  0
 10 11  1  1
 12 13  2  0
 13 14  1  0
 15 14  2  0
 16 15  1  0
 17 12  1  0
 17 16  2  0
 18 20  1  0
 19 18  2  0
 20 21  1  0
 21 27  1  0
 21 22  1  6
 23 22  1  0
 24 23  1  0
 25 24  1  0
 26 25  1  0
 27 28  2  0
 27 29  1  0
M  END
$$$$
