NFK.pdb
     RDKit          3D

 29 29  0  0  1  0  0  0  0  0999 V2000
   28.4146  -21.0365  -18.9831 N   0  0  0  0  0  0  0  0  0  0  0  0
   28.3590  -22.3923  -18.5128 C   0  0  0  0  0  0  0  0  0  0  0  0
   28.8513  -23.2420  -19.2984 O   0  0  0  0  0  0  0  0  0  0  0  0
   27.7572  -22.6851  -17.2021 C   0  0  0  0  0  0  0  0  0  0  0  0
   27.1371  -21.5309  -16.4997 C   0  0  2  0  0  0  0  0  0  0  0  0
   28.2309  -20.5483  -16.3064 N   0  0  0  0  0  0  0  0  0  0  0  0
   26.6281  -21.8074  -15.1454 C   0  0  0  0  0  0  0  0  0  0  0  0
   25.9471  -22.8429  -14.9652 O   0  0  0  0  0  0  0  0  0  0  0  0
   26.8551  -20.9848  -14.0350 N   0  0  0  0  0  0  0  0  0  0  0  0
   26.2723  -21.2439  -12.6899 C   0  0  1  0  0  0  0  0  0  0  0  0
   27.1951  -20.6264  -11.7396 C   0  0  0  0  0  0  0  0  0  0  0  0
   26.9006  -20.5048  -10.3404 C   0  0  0  0  0  0  0  0  0  0  0  0
   25.9747  -19.5757   -9.9203 C   0  0  0  0  0  0  0  0  0  0  0  0
   25.6553  -19.4125   -8.5703 C   0  0  0  0  0  0  0  0  0  0  0  0
   26.2967  -20.2145   -7.6530 C   0  0  0  0  0  0  0  0  0  0  0  0
   27.2298  -21.1546   -8.0501 C   0  0  0  0  0  0  0  0  0  0  0  0
   27.5222  -21.2901   -9.3890 C   0  0  0  0  0  0  0  0  0  0  0  0
   24.8987  -20.7073  -12.6809 C   0  0  0  0  0  0  0  0  0  0  0  0
   24.7109  -19.5385  -13.1828 O   0  0  0  0  0  0  0  0  0  0  0  0
   23.7465  -21.3284  -12.1881 N   0  0  0  0  0  0  0  0  0  0  0  0
   22.4203  -20.5999  -12.2181 C   0  0  1  0  0  0  0  0  0  0  0  0
   21.5116  -21.4512  -13.0537 C   0  0  0  0  0  0  0  0  0  0  0  0
   20.1041  -21.1902  -13.1883 C   0  0  0  0  0  0  0  0  0  0  0  0
   19.1309  -21.9731  -13.9350 C   0  0  0  0  0  0  0  0  0  0  0  0
   17.7210  -21.5091  -14.0054 C   0  0  0  0  0  0  0  0  0  0  0  0
   16.8789  -22.3693  -14.7544 N   0  0  0  0  0  0  0  0  0  0  0  0
   22.0310  -20.5348  -10.8237 C   0  0  0  0  0  0  0  0  0  0  0  0
   22.4988  -21.3953  -10.0012 O   0  0  0  0  0  0  0  0  0  0  0  0
   21.1881  -19.6061  -10.2898 O   0  0  0  0  0  0  0  0  0  0  0  0
  1  2  1  0
  2  3  2  0
  4  5  1  0
  4  2  1  0
  5  6  1  1
  5  7  1  0
  7  8  2  0
  9  7  1  0
  9 10  1  0
 10 18  1  0
 11 12  1  0
 10 11  1  1
 12 13  2  0
 13 14  1  0
 15 14  2  0
 16 15  1  0
 17 12  1  0
 17 16  2  0
 18 20  1  0
 19 18  2  0
 20 21  1  0
 21 27  1  0
 21 22  1  6
 23 22  1  0
 24 23  1  0
 25 24  1  0
 26 25  1  0
 27 28  2  0
 27 29  1  0
M  END
$$$$
