NFK.pdb
     RDKit          3D

 29 29  0  0  1  0  0  0  0  0999 V2000
   29.5705  -23.5198  -16.4493 N   0  0  0  0  0  0  0  0  0  0  0  0
   28.1877  -23.3864  -16.8130 C   0  0  0  0  0  0  0  0  0  0  0  0
   27.9766  -23.2801  -18.0481 O   0  0  0  0  0  0  0  0  0  0  0  0
   27.1552  -23.3830  -15.7642 C   0  0  0  0  0  0  0  0  0  0  0  0
   25.8413  -22.8031  -16.1484 C   0  0  2  0  0  0  0  0  0  0  0  0
   26.1097  -21.3769  -16.4536 N   0  0  0  0  0  0  0  0  0  0  0  0
   24.8197  -22.7811  -15.0875 C   0  0  0  0  0  0  0  0  0  0  0  0
   24.5746  -23.8454  -14.4746 O   0  0  0  0  0  0  0  0  0  0  0  0
   24.0965  -21.6416  -14.7133 N   0  0  0  0  0  0  0  0  0  0  0  0
   23.0742  -21.6380  -13.6313 C   0  0  1  0  0  0  0  0  0  0  0  0
   23.2570  -20.3708  -12.9263 C   0  0  0  0  0  0  0  0  0  0  0  0
   22.3483  -19.9070  -11.9172 C   0  0  0  0  0  0  0  0  0  0  0  0
   21.3480  -19.0242  -12.2593 C   0  0  0  0  0  0  0  0  0  0  0  0
   20.4406  -18.5375  -11.3154 C   0  0  0  0  0  0  0  0  0  0  0  0
   20.5699  -18.9668  -10.0135 C   0  0  0  0  0  0  0  0  0  0  0  0
   21.5658  -19.8527   -9.6455 C   0  0  0  0  0  0  0  0  0  0  0  0
   22.4444  -20.3136  -10.6006 C   0  0  0  0  0  0  0  0  0  0  0  0
   21.7527  -21.8315  -14.2566 C   0  0  0  0  0  0  0  0  0  0  0  0
   21.4593  -21.0985  -15.2715 O   0  0  0  0  0  0  0  0  0  0  0  0
   20.7577  -22.7385  -13.8780 N   0  0  0  0  0  0  0  0  0  0  0  0
   19.4283  -22.7515  -14.6013 C   0  0  1  0  0  0  0  0  0  0  0  0
   18.8679  -24.1263  -14.3900 C   0  0  0  0  0  0  0  0  0  0  0  0
   19.2367  -25.2523  -15.2044 C   0  0  0  0  0  0  0  0  0  0  0  0
   18.7672  -26.6237  -15.0754 C   0  0  0  0  0  0  0  0  0  0  0  0
   19.2726  -27.6590  -16.0139 C   0  0  0  0  0  0  0  0  0  0  0  0
   18.7341  -28.9489  -15.7769 N   0  0  0  0  0  0  0  0  0  0  0  0
   18.6670  -21.7094  -13.9423 C   0  0  0  0  0  0  0  0  0  0  0  0
   18.5117  -21.7531  -12.6735 O   0  0  0  0  0  0  0  0  0  0  0  0
   18.0866  -20.6485  -14.5713 O   0  0  0  0  0  0  0  0  0  0  0  0
  1  2  1  0
  2  3  2  0
  4  5  1  0
  4  2  1  0
  5  6  1  1
  5  7  1  0
  7  8  2  0
  9  7  1  0
  9 10  1  0
 10 18  1  0
 11 12  1  0
 10 11  1  6
 12 13  2  0
 13 14  1  0
 15 14  2  0
 16 15  1  0
 17 12  1  0
 17 16  2  0
 18 20  1  0
 19 18  2  0
 20 21  1  0
 21 27  1  0
 21 22  1  1
 23 22  1  0
 24 23  1  0
 25 24  1  0
 26 25  1  0
 27 28  2  0
 27 29  1  0
M  END
$$$$
