CAR.pdb
     RDKit          3D

 23 22  0  0  1  0  0  0  0  0999 V2000
   28.8594  -20.7164  -17.2785 N   0  0  0  0  0  0  0  0  0  0  0  0
   28.9150  -19.7833  -16.1937 C   0  0  1  0  0  0  0  0  0  0  0  0
   27.9370  -18.6418  -16.3468 C   0  0  0  0  0  0  0  0  0  0  0  0
   28.2456  -17.6207  -17.7799 S   0  0  0  0  0  0  0  0  0  0  0  0
   28.5411  -20.4949  -14.9211 C   0  0  0  0  0  0  0  0  0  0  0  0
   27.5220  -21.2623  -14.9104 O   0  0  0  0  0  0  0  0  0  0  0  0
   29.9971  -20.7430  -11.4864 C   0  0  0  0  0  0  0  0  0  0  0  0
   28.9073  -20.9301  -12.5176 C   0  0  2  0  0  0  0  0  0  0  0  0
   29.3184  -20.3083  -13.7518 N   0  0  0  0  0  0  0  0  0  0  0  0
   27.6260  -20.2963  -12.0663 C   0  0  0  0  0  0  0  0  0  0  0  0
   27.2986  -19.1539  -12.5092 O   0  0  0  0  0  0  0  0  0  0  0  0
   20.1041  -21.7398  -11.6591 N   0  0  0  0  0  0  0  0  0  0  0  0
   19.9662  -20.6696  -12.5778 C   0  0  0  0  0  0  0  0  0  0  0  0
   18.8378  -20.0425  -12.6710 N   0  0  0  0  0  0  0  0  0  0  0  0
   21.0526  -20.2733  -13.4022 N   0  0  0  0  0  0  0  0  0  0  0  0
   22.3410  -20.9519  -13.3100 C   0  0  0  0  0  0  0  0  0  0  0  0
   23.0663  -20.5048  -12.0583 C   0  0  0  0  0  0  0  0  0  0  0  0
   24.5178  -20.8740  -12.2093 C   0  0  0  0  0  0  0  0  0  0  0  0
   25.3548  -20.5007  -11.0261 C   0  0  2  0  0  0  0  0  0  0  0  0
   26.7360  -20.9019  -11.1578 N   0  0  0  0  0  0  0  0  0  0  0  0
   24.7657  -20.9522   -9.7408 C   0  0  0  0  0  0  0  0  0  0  0  0
   25.0934  -22.0743   -9.2643 O   0  0  0  0  0  0  0  0  0  0  0  0
   23.8560  -20.2115   -9.0038 O   0  0  0  0  0  0  0  0  0  0  0  0
  2  1  1  6
  2  3  1  0
  3  4  1  0
  5  2  1  0
  6  5  2  0
  8  7  1  1
  8 10  1  0
  8  9  1  0
  9  5  1  0
 10 20  1  0
 11 10  2  0
 12 13  1  0
 13 15  1  0
 14 13  2  0
 16 15  1  0
 16 17  1  0
 18 17  1  0
 19 18  1  6
 19 21  1  0
 20 19  1  0
 21 23  1  0
 22 21  2  0
M  END
$$$$
