CAR.pdb
     RDKit          3D

 23 22  0  0  1  0  0  0  0  0999 V2000
   13.7418  -11.2303  -10.1463 N   0  0  0  0  0  0  0  0  0  0  0  0
   14.9781  -10.5828   -9.8256 C   0  0  1  0  0  0  0  0  0  0  0  0
   16.0956  -10.9404  -10.7774 C   0  0  0  0  0  0  0  0  0  0  0  0
   16.6335  -12.6390  -10.6460 S   0  0  0  0  0  0  0  0  0  0  0  0
   14.7888   -9.0934   -9.9332 C   0  0  0  0  0  0  0  0  0  0  0  0
   14.1783   -8.6126  -10.9451 O   0  0  0  0  0  0  0  0  0  0  0  0
   15.0053   -6.2303   -7.6300 C   0  0  0  0  0  0  0  0  0  0  0  0
   15.0868   -6.8177   -9.0208 C   0  0  2  0  0  0  0  0  0  0  0  0
   15.2869   -8.2418   -8.9170 N   0  0  0  0  0  0  0  0  0  0  0  0
   16.2327   -6.2283   -9.7867 C   0  0  0  0  0  0  0  0  0  0  0  0
   17.4129   -6.6380   -9.5683 O   0  0  0  0  0  0  0  0  0  0  0  0
   21.4482   -8.4015  -12.4770 N   0  0  0  0  0  0  0  0  0  0  0  0
   20.6038   -8.2773  -13.6084 C   0  0  0  0  0  0  0  0  0  0  0  0
   20.1615   -9.3394  -14.2011 N   0  0  0  0  0  0  0  0  0  0  0  0
   20.2344   -6.9988  -14.1043 N   0  0  0  0  0  0  0  0  0  0  0  0
   19.8378   -5.9336  -13.1895 C   0  0  0  0  0  0  0  0  0  0  0  0
   18.5378   -5.3145  -13.6580 C   0  0  0  0  0  0  0  0  0  0  0  0
   17.4474   -5.7699  -12.7255 C   0  0  0  0  0  0  0  0  0  0  0  0
   17.1588   -4.7979  -11.6247 C   0  0  2  0  0  0  0  0  0  0  0  0
   16.0821   -5.2215  -10.7604 N   0  0  0  0  0  0  0  0  0  0  0  0
   16.9613   -3.4125  -12.1194 C   0  0  0  0  0  0  0  0  0  0  0  0
   15.7938   -2.9954  -12.3569 O   0  0  0  0  0  0  0  0  0  0  0  0
   17.9939   -2.5172  -12.3464 O   0  0  0  0  0  0  0  0  0  0  0  0
  2  1  1  6
  2  3  1  0
  3  4  1  0
  5  2  1  0
  6  5  2  0
  8  7  1  1
  8 10  1  0
  8  9  1  0
  9  5  1  0
 10 20  1  0
 11 10  2  0
 12 13  1  0
 13 15  1  0
 14 13  2  0
 16 15  1  0
 16 17  1  0
 18 17  1  0
 19 18  1  6
 19 21  1  0
 20 19  1  0
 21 23  1  0
 22 21  2  0
M  END
$$$$
