CAR.pdb
     RDKit          3D

 23 22  0  0  1  0  0  0  0  0999 V2000
   26.2021  -15.9258  -19.9654 N   0  0  0  0  0  0  0  0  0  0  0  0
   26.2312  -14.8756  -18.9923 C   0  0  1  0  0  0  0  0  0  0  0  0
   26.6490  -13.5448  -19.5730 C   0  0  0  0  0  0  0  0  0  0  0  0
   28.2702  -13.5670  -20.3233 S   0  0  0  0  0  0  0  0  0  0  0  0
   24.8428  -14.6826  -18.4441 C   0  0  0  0  0  0  0  0  0  0  0  0
   23.8401  -14.8111  -19.2225 O   0  0  0  0  0  0  0  0  0  0  0  0
   23.3881  -14.3496  -15.0365 C   0  0  0  0  0  0  0  0  0  0  0  0
   23.3254  -14.2504  -16.5439 C   0  0  2  0  0  0  0  0  0  0  0  0
   24.6605  -14.3614  -17.0767 N   0  0  0  0  0  0  0  0  0  0  0  0
   22.7473  -12.9353  -16.9722 C   0  0  0  0  0  0  0  0  0  0  0  0
   23.4988  -11.9180  -17.0662 O   0  0  0  0  0  0  0  0  0  0  0  0
   15.2018  -10.7529  -21.2349 N   0  0  0  0  0  0  0  0  0  0  0  0
   15.8910   -9.5306  -21.0363 C   0  0  0  0  0  0  0  0  0  0  0  0
   15.3814   -8.4254  -21.4767 N   0  0  0  0  0  0  0  0  0  0  0  0
   17.1387   -9.5001  -20.3587 N   0  0  0  0  0  0  0  0  0  0  0  0
   17.7091  -10.7201  -19.7974 C   0  0  0  0  0  0  0  0  0  0  0  0
   19.0491  -10.4135  -19.1625 C   0  0  0  0  0  0  0  0  0  0  0  0
   19.5891  -11.6937  -18.5833 C   0  0  0  0  0  0  0  0  0  0  0  0
   20.8683  -11.5139  -17.8275 C   0  0  2  0  0  0  0  0  0  0  0  0
   21.3868  -12.7485  -17.2862 N   0  0  0  0  0  0  0  0  0  0  0  0
   20.7814  -10.4492  -16.7971 C   0  0  0  0  0  0  0  0  0  0  0  0
   20.4475  -10.7487  -15.6171 O   0  0  0  0  0  0  0  0  0  0  0  0
   21.0476   -9.1118  -17.0418 O   0  0  0  0  0  0  0  0  0  0  0  0
  2  1  1  6
  2  3  1  0
  3  4  1  0
  5  2  1  0
  6  5  2  0
  8  7  1  1
  8 10  1  0
  8  9  1  0
  9  5  1  0
 10 20  1  0
 11 10  2  0
 12 13  1  0
 13 15  1  0
 14 13  2  0
 16 15  1  0
 16 17  1  0
 18 17  1  0
 19 18  1  1
 19 21  1  0
 20 19  1  0
 21 23  1  0
 22 21  2  0
M  END
$$$$
