CAR.pdb
     RDKit          3D

 23 22  0  0  1  0  0  0  0  0999 V2000
   26.2035  -15.9373  -16.2019 N   0  0  0  0  0  0  0  0  0  0  0  0
   26.4974  -14.7188  -16.8944 C   0  0  1  0  0  0  0  0  0  0  0  0
   25.7561  -14.5915  -18.2048 C   0  0  0  0  0  0  0  0  0  0  0  0
   26.0198  -15.9666  -19.3143 S   0  0  0  0  0  0  0  0  0  0  0  0
   26.0576  -13.5579  -16.0432 C   0  0  0  0  0  0  0  0  0  0  0  0
   24.9623  -13.6387  -15.3940 O   0  0  0  0  0  0  0  0  0  0  0  0
   27.6045  -10.3793  -14.8859 C   0  0  0  0  0  0  0  0  0  0  0  0
   26.4215  -11.2793  -15.1626 C   0  0  2  0  0  0  0  0  0  0  0  0
   26.8578  -12.3916  -15.9697 N   0  0  0  0  0  0  0  0  0  0  0  0
   25.3475  -10.5422  -15.9044 C   0  0  0  0  0  0  0  0  0  0  0  0
   25.3675  -10.5085  -17.1720 O   0  0  0  0  0  0  0  0  0  0  0  0
   16.7900   -8.8874  -14.4592 N   0  0  0  0  0  0  0  0  0  0  0  0
   17.0937   -8.2188  -15.6713 C   0  0  0  0  0  0  0  0  0  0  0  0
   16.1468   -7.6553  -16.3503 N   0  0  0  0  0  0  0  0  0  0  0  0
   18.4276   -8.1580  -16.1548 N   0  0  0  0  0  0  0  0  0  0  0  0
   19.5145   -8.7936  -15.4175 C   0  0  0  0  0  0  0  0  0  0  0  0
   20.8261   -8.5605  -16.1374 C   0  0  0  0  0  0  0  0  0  0  0  0
   21.9062   -9.2773  -15.3723 C   0  0  0  0  0  0  0  0  0  0  0  0
   23.2606   -9.1571  -15.9976 C   0  0  2  0  0  0  0  0  0  0  0  0
   24.2874   -9.8655  -15.2698 N   0  0  0  0  0  0  0  0  0  0  0  0
   23.6442   -7.7494  -16.2701 C   0  0  0  0  0  0  0  0  0  0  0  0
   24.3855   -7.1354  -15.4534 O   0  0  0  0  0  0  0  0  0  0  0  0
   23.2368   -7.0387  -17.3874 O   0  0  0  0  0  0  0  0  0  0  0  0
  2  1  1  1
  2  3  1  0
  3  4  1  0
  5  2  1  0
  6  5  2  0
  8  7  1  6
  8 10  1  0
  8  9  1  0
  9  5  1  0
 10 20  1  0
 11 10  2  0
 12 13  1  0
 13 15  1  0
 14 13  2  0
 16 15  1  0
 16 17  1  0
 18 17  1  0
 19 18  1  1
 19 21  1  0
 20 19  1  0
 21 23  1  0
 22 21  2  0
M  END
$$$$
