CAR.pdb
     RDKit          3D

 23 22  0  0  1  0  0  0  0  0999 V2000
   10.6725   -6.8695   -7.2732 N   0  0  0  0  0  0  0  0  0  0  0  0
   11.8760   -7.6436   -7.2193 C   0  0  1  0  0  0  0  0  0  0  0  0
   11.6649   -9.0899   -7.6019 C   0  0  0  0  0  0  0  0  0  0  0  0
   10.8775  -10.0616   -6.3261 S   0  0  0  0  0  0  0  0  0  0  0  0
   12.8601   -7.0816   -8.2099 C   0  0  0  0  0  0  0  0  0  0  0  0
   12.4548   -6.7486   -9.3730 O   0  0  0  0  0  0  0  0  0  0  0  0
   15.9139   -5.2309   -8.0310 C   0  0  0  0  0  0  0  0  0  0  0  0
   15.1357   -6.2988   -8.7657 C   0  0  2  0  0  0  0  0  0  0  0  0
   14.2203   -6.9277   -7.8463 N   0  0  0  0  0  0  0  0  0  0  0  0
   16.0530   -7.3472   -9.3194 C   0  0  0  0  0  0  0  0  0  0  0  0
   16.6458   -8.1449   -8.5314 O   0  0  0  0  0  0  0  0  0  0  0  0
   15.6098  -14.1959  -14.6344 N   0  0  0  0  0  0  0  0  0  0  0  0
   16.8961  -13.6259  -14.8043 C   0  0  0  0  0  0  0  0  0  0  0  0
   17.6232  -13.9684  -15.8188 N   0  0  0  0  0  0  0  0  0  0  0  0
   17.4021  -12.6802  -13.8733 N   0  0  0  0  0  0  0  0  0  0  0  0
   16.5868  -11.5476  -13.4477 C   0  0  0  0  0  0  0  0  0  0  0  0
   17.4070  -10.6292  -12.5664 C   0  0  0  0  0  0  0  0  0  0  0  0
   16.4941   -9.5501  -12.0484 C   0  0  0  0  0  0  0  0  0  0  0  0
   17.1957   -8.5245  -11.2142 C   0  0  2  0  0  0  0  0  0  0  0  0
   16.3080   -7.5103  -10.6951 N   0  0  0  0  0  0  0  0  0  0  0  0
   18.3724   -7.9343  -11.8997 C   0  0  0  0  0  0  0  0  0  0  0  0
   18.2775   -6.7931  -12.4310 O   0  0  0  0  0  0  0  0  0  0  0  0
   19.6034   -8.5616  -12.0025 O   0  0  0  0  0  0  0  0  0  0  0  0
  2  1  1  6
  2  3  1  0
  3  4  1  0
  5  2  1  0
  6  5  2  0
  8  7  1  1
  8 10  1  0
  8  9  1  0
  9  5  1  0
 10 20  1  0
 11 10  2  0
 12 13  1  0
 13 15  1  0
 14 13  2  0
 16 15  1  0
 16 17  1  0
 18 17  1  0
 19 18  1  6
 19 21  1  0
 20 19  1  0
 21 23  1  0
 22 21  2  0
M  END
$$$$
