CAR.pdb
     RDKit          3D

 23 22  0  0  1  0  0  0  0  0999 V2000
   23.1493  -15.1030  -18.8746 N   0  0  0  0  0  0  0  0  0  0  0  0
   23.7348  -13.8046  -19.0224 C   0  0  1  0  0  0  0  0  0  0  0  0
   23.1583  -13.0260  -20.1818 C   0  0  0  0  0  0  0  0  0  0  0  0
   23.6574  -13.6465  -21.7811 S   0  0  0  0  0  0  0  0  0  0  0  0
   23.4472  -12.9981  -17.7845 C   0  0  0  0  0  0  0  0  0  0  0  0
   22.2574  -12.9609  -17.3253 O   0  0  0  0  0  0  0  0  0  0  0  0
   25.4934  -11.0314  -15.3549 C   0  0  0  0  0  0  0  0  0  0  0  0
   24.1956  -11.4663  -15.9974 C   0  0  2  0  0  0  0  0  0  0  0  0
   24.4928  -12.2906  -17.1424 N   0  0  0  0  0  0  0  0  0  0  0  0
   23.3990  -10.2817  -16.4547 C   0  0  0  0  0  0  0  0  0  0  0  0
   23.6975   -9.7048  -17.5440 O   0  0  0  0  0  0  0  0  0  0  0  0
   16.7915  -10.1610  -17.9096 N   0  0  0  0  0  0  0  0  0  0  0  0
   16.4554   -8.8144  -18.1962 C   0  0  0  0  0  0  0  0  0  0  0  0
   15.7061   -8.5410  -19.2155 N   0  0  0  0  0  0  0  0  0  0  0  0
   16.9311   -7.7553  -17.3783 N   0  0  0  0  0  0  0  0  0  0  0  0
   17.7510   -8.0345  -16.2041 C   0  0  0  0  0  0  0  0  0  0  0  0
   19.1994   -7.7088  -16.5022 C   0  0  0  0  0  0  0  0  0  0  0  0
   20.0413   -8.8541  -16.0068 C   0  0  0  0  0  0  0  0  0  0  0  0
   21.5087   -8.6524  -16.2210 C   0  0  2  0  0  0  0  0  0  0  0  0
   22.3102   -9.7513  -15.7352 N   0  0  0  0  0  0  0  0  0  0  0  0
   21.9894   -7.3453  -15.7078 C   0  0  0  0  0  0  0  0  0  0  0  0
   22.5183   -7.2807  -14.5634 O   0  0  0  0  0  0  0  0  0  0  0  0
   21.8979   -6.1561  -16.4125 O   0  0  0  0  0  0  0  0  0  0  0  0
  2  1  1  1
  2  3  1  0
  3  4  1  0
  5  2  1  0
  6  5  2  0
  8  7  1  6
  8 10  1  0
  8  9  1  0
  9  5  1  0
 10 20  1  0
 11 10  2  0
 12 13  1  0
 13 15  1  0
 14 13  2  0
 16 15  1  0
 16 17  1  0
 18 17  1  0
 19 18  1  1
 19 21  1  0
 20 19  1  0
 21 23  1  0
 22 21  2  0
M  END
$$$$
