CAR.pdb
     RDKit          3D

 23 22  0  0  1  0  0  0  0  0999 V2000
   28.1530  -19.8937  -15.9336 N   0  0  0  0  0  0  0  0  0  0  0  0
   27.7378  -19.3694  -14.6674 C   0  0  1  0  0  0  0  0  0  0  0  0
   27.1096  -17.9995  -14.7734 C   0  0  0  0  0  0  0  0  0  0  0  0
   28.2711  -16.7086  -15.1935 S   0  0  0  0  0  0  0  0  0  0  0  0
   26.6850  -20.2757  -14.0879 C   0  0  0  0  0  0  0  0  0  0  0  0
   25.8993  -20.9030  -14.8734 O   0  0  0  0  0  0  0  0  0  0  0  0
   25.6607  -21.2892  -10.6346 C   0  0  0  0  0  0  0  0  0  0  0  0
   25.4845  -21.1909  -12.1331 C   0  0  2  0  0  0  0  0  0  0  0  0
   26.5746  -20.4245  -12.6837 N   0  0  0  0  0  0  0  0  0  0  0  0
   24.1962  -20.5069  -12.4789 C   0  0  0  0  0  0  0  0  0  0  0  0
   24.1674  -19.2452  -12.6047 O   0  0  0  0  0  0  0  0  0  0  0  0
   21.1354  -16.1915  -18.0539 N   0  0  0  0  0  0  0  0  0  0  0  0
   19.9403  -16.3917  -17.3192 C   0  0  0  0  0  0  0  0  0  0  0  0
   18.9234  -15.6166  -17.5204 N   0  0  0  0  0  0  0  0  0  0  0  0
   19.8411  -17.4346  -16.3603 N   0  0  0  0  0  0  0  0  0  0  0  0
   21.0248  -18.1845  -15.9535 C   0  0  0  0  0  0  0  0  0  0  0  0
   20.6348  -19.2543  -14.9555 C   0  0  0  0  0  0  0  0  0  0  0  0
   21.8963  -19.9248  -14.4811 C   0  0  0  0  0  0  0  0  0  0  0  0
   21.7731  -20.5330  -13.1192 C   0  0  2  0  0  0  0  0  0  0  0  0
   22.9812  -21.1909  -12.6793 N   0  0  0  0  0  0  0  0  0  0  0  0
   20.5836  -21.4109  -12.9880 C   0  0  0  0  0  0  0  0  0  0  0  0
   20.7397  -22.6536  -12.8304 O   0  0  0  0  0  0  0  0  0  0  0  0
   19.2763  -20.9539  -13.0269 O   0  0  0  0  0  0  0  0  0  0  0  0
  2  1  1  6
  2  3  1  0
  3  4  1  0
  5  2  1  0
  6  5  2  0
  8  7  1  1
  8 10  1  0
  8  9  1  0
  9  5  1  0
 10 20  1  0
 11 10  2  0
 12 13  1  0
 13 15  1  0
 14 13  2  0
 16 15  1  0
 16 17  1  0
 18 17  1  0
 19 18  1  6
 19 21  1  0
 20 19  1  0
 21 23  1  0
 22 21  2  0
M  END
$$$$
