CAR.pdb
     RDKit          3D

 23 22  0  0  1  0  0  0  0  0999 V2000
   21.6070  -15.3201  -15.8176 N   0  0  0  0  0  0  0  0  0  0  0  0
   22.9480  -15.7715  -16.0378 C   0  0  1  0  0  0  0  0  0  0  0  0
   23.9725  -14.9785  -15.2603 C   0  0  0  0  0  0  0  0  0  0  0  0
   24.2355  -13.3295  -15.8954 S   0  0  0  0  0  0  0  0  0  0  0  0
   23.0651  -17.1956  -15.5647 C   0  0  0  0  0  0  0  0  0  0  0  0
   22.4665  -17.5500  -14.4952 O   0  0  0  0  0  0  0  0  0  0  0  0
   23.8526  -20.4004  -17.0854 C   0  0  0  0  0  0  0  0  0  0  0  0
   23.9002  -19.4996  -15.8721 C   0  0  2  0  0  0  0  0  0  0  0  0
   23.8344  -18.1260  -16.3055 N   0  0  0  0  0  0  0  0  0  0  0  0
   25.1724  -19.6986  -15.1047 C   0  0  0  0  0  0  0  0  0  0  0  0
   26.2281  -19.0977  -15.4694 O   0  0  0  0  0  0  0  0  0  0  0  0
   22.6690  -19.7657   -9.0318 N   0  0  0  0  0  0  0  0  0  0  0  0
   23.3545  -20.9920   -8.8459 C   0  0  0  0  0  0  0  0  0  0  0  0
   22.8474  -21.9031   -8.0791 N   0  0  0  0  0  0  0  0  0  0  0  0
   24.5958  -21.2374   -9.4909 N   0  0  0  0  0  0  0  0  0  0  0  0
   25.2230  -20.2065  -10.3112 C   0  0  0  0  0  0  0  0  0  0  0  0
   26.5776  -20.6863  -10.7884 C   0  0  0  0  0  0  0  0  0  0  0  0
   26.3615  -21.5347  -12.0130 C   0  0  0  0  0  0  0  0  0  0  0  0
   26.5276  -20.7832  -13.2965 C   0  0  2  0  0  0  0  0  0  0  0  0
   25.2769  -20.5316  -13.9736 N   0  0  0  0  0  0  0  0  0  0  0  0
   27.5321  -21.4010  -14.1976 C   0  0  0  0  0  0  0  0  0  0  0  0
   28.6847  -20.8941  -14.2880 O   0  0  0  0  0  0  0  0  0  0  0  0
   27.2913  -22.5260  -14.9696 O   0  0  0  0  0  0  0  0  0  0  0  0
  2  1  1  1
  2  3  1  0
  3  4  1  0
  5  2  1  0
  6  5  2  0
  8  7  1  6
  8 10  1  0
  8  9  1  0
  9  5  1  0
 10 20  1  0
 11 10  2  0
 12 13  1  0
 13 15  1  0
 14 13  2  0
 16 15  1  0
 16 17  1  0
 18 17  1  0
 19 18  1  1
 19 21  1  0
 20 19  1  0
 21 23  1  0
 22 21  2  0
M  END
$$$$
