LHW.pdb
     RDKit          3D

 33 35  0  0  1  0  0  0  0  0999 V2000
   17.2853  -16.9231  -14.4028 C   0  0  0  0  0  0  0  0  0  0  0  0
   18.7781  -16.6830  -14.4417 C   0  0  1  0  0  0  0  0  0  0  0  0
   19.0564  -15.3302  -13.8681 C   0  0  0  0  0  0  0  0  0  0  0  0
   19.5421  -17.7353  -13.6717 C   0  0  0  0  0  0  0  0  0  0  0  0
   21.0328  -17.4941  -13.7199 C   0  0  2  0  0  0  0  0  0  0  0  0
   21.4741  -16.9592  -14.9639 N   0  0  0  0  0  0  0  0  0  0  0  0
   21.7338  -18.7008  -13.2669 C   0  0  0  0  0  0  0  0  0  0  0  0
   21.4567  -19.2123  -12.1511 O   0  0  0  0  0  0  0  0  0  0  0  0
   22.7573  -19.3796  -14.0239 N   0  0  0  0  0  0  0  0  0  0  0  0
   23.4412  -20.5209  -13.5106 C   0  0  1  0  0  0  0  0  0  0  0  0
   23.9743  -21.4737  -14.5056 C   0  0  0  0  0  0  0  0  0  0  0  0
   24.6224  -22.6884  -14.0048 C   0  0  0  0  0  0  0  0  0  0  0  0
   24.0544  -23.8075  -13.4701 C   0  0  0  0  0  0  0  0  0  0  0  0
   25.0212  -24.7199  -13.1588 N   0  0  0  0  0  0  0  0  0  0  0  0
   26.1776  -24.1469  -13.5088 C   0  0  0  0  0  0  0  0  0  0  0  0
   25.9685  -22.9342  -14.0165 N   0  0  0  0  0  0  0  0  0  0  0  0
   24.4912  -20.0642  -12.5338 C   0  0  0  0  0  0  0  0  0  0  0  0
   25.0739  -18.9755  -12.7202 O   0  0  0  0  0  0  0  0  0  0  0  0
   24.8258  -20.8461  -11.4128 N   0  0  0  0  0  0  0  0  0  0  0  0
   25.9569  -20.4582  -10.5432 C   0  0  1  0  0  0  0  0  0  0  0  0
   25.4453  -20.2243   -9.1529 C   0  0  0  0  0  0  0  0  0  0  0  0
   26.4621  -19.6395   -8.2754 C   0  0  0  0  0  0  0  0  0  0  0  0
   27.0663  -18.3851   -8.4406 C   0  0  0  0  0  0  0  0  0  0  0  0
   27.9795  -18.1968   -7.4813 N   0  0  0  0  0  0  0  0  0  0  0  0
   28.0101  -19.2714   -6.6819 C   0  0  0  0  0  0  0  0  0  0  0  0
   28.7476  -19.5746   -5.5499 C   0  0  0  0  0  0  0  0  0  0  0  0
   28.5622  -20.7522   -4.8999 C   0  0  0  0  0  0  0  0  0  0  0  0
   27.6342  -21.6554   -5.3669 C   0  0  0  0  0  0  0  0  0  0  0  0
   26.9038  -21.3765   -6.4740 C   0  0  0  0  0  0  0  0  0  0  0  0
   27.0888  -20.1745   -7.1444 C   0  0  0  0  0  0  0  0  0  0  0  0
   27.0447  -21.4110  -10.5880 C   0  0  0  0  0  0  0  0  0  0  0  0
   28.3494  -20.9004  -10.7393 O   0  0  0  0  0  0  0  0  0  0  0  0
   26.8534  -22.6294  -10.4982 O   0  0  0  0  0  0  0  0  0  0  0  0
  2  3  1  1
  2  1  1  0
  4  5  1  0
  4  2  1  0
  5  6  1  6
  7  5  1  0
  8  7  2  0
  9  7  1  0
 10  9  1  0
 11 12  1  0
 10 11  1  6
 12 16  1  0
 13 12  2  0
 13 14  1  0
 14 15  1  0
 16 15  2  0
 17 19  1  0
 17 10  1  0
 18 17  2  0
 20 31  1  0
 20 19  1  0
 20 21  1  1
 21 22  1  0
 22 23  2  0
 22 30  1  0
 23 24  1  0
 24 25  1  0
 25 26  2  0
 27 26  1  0
 28 27  2  0
 29 30  2  0
 29 28  1  0
 30 25  1  0
 31 32  1  0
 33 31  2  0
M  END
$$$$
