LHW.pdb
     RDKit          3D

 33 35  0  0  1  0  0  0  0  0999 V2000
   19.0342  -21.4901  -16.3325 C   0  0  0  0  0  0  0  0  0  0  0  0
   19.9160  -20.3981  -15.7688 C   0  0  1  0  0  0  0  0  0  0  0  0
   19.0807  -19.1761  -15.5557 C   0  0  0  0  0  0  0  0  0  0  0  0
   20.5668  -20.8095  -14.4683 C   0  0  0  0  0  0  0  0  0  0  0  0
   21.6740  -19.8615  -14.0705 C   0  0  2  0  0  0  0  0  0  0  0  0
   22.1763  -19.0968  -15.1620 N   0  0  0  0  0  0  0  0  0  0  0  0
   22.6821  -20.5923  -13.2943 C   0  0  0  0  0  0  0  0  0  0  0  0
   22.3329  -21.3156  -12.3256 O   0  0  0  0  0  0  0  0  0  0  0  0
   24.0998  -20.5503  -13.5582 N   0  0  0  0  0  0  0  0  0  0  0  0
   25.0249  -21.3575  -12.8326 C   0  0  1  0  0  0  0  0  0  0  0  0
   26.0757  -22.0302  -13.6235 C   0  0  0  0  0  0  0  0  0  0  0  0
   25.6708  -23.1454  -14.4830 C   0  0  0  0  0  0  0  0  0  0  0  0
   24.4229  -23.6487  -14.7071 C   0  0  0  0  0  0  0  0  0  0  0  0
   24.4863  -24.6745  -15.6059 N   0  0  0  0  0  0  0  0  0  0  0  0
   25.7799  -24.7886  -15.9251 C   0  0  0  0  0  0  0  0  0  0  0  0
   26.5088  -23.8882  -15.2694 N   0  0  0  0  0  0  0  0  0  0  0  0
   25.5909  -20.5512  -11.6949 C   0  0  0  0  0  0  0  0  0  0  0  0
   25.5315  -19.3043  -11.7342 O   0  0  0  0  0  0  0  0  0  0  0  0
   26.1861  -21.1817  -10.5868 N   0  0  0  0  0  0  0  0  0  0  0  0
   27.0084  -20.4019   -9.6371 C   0  0  1  0  0  0  0  0  0  0  0  0
   26.4036  -20.5063   -8.2686 C   0  0  0  0  0  0  0  0  0  0  0  0
   27.1692  -19.7663   -7.2625 C   0  0  0  0  0  0  0  0  0  0  0  0
   27.2404  -18.3707   -7.1474 C   0  0  0  0  0  0  0  0  0  0  0  0
   28.0657  -18.0443   -6.1466 N   0  0  0  0  0  0  0  0  0  0  0  0
   28.5480  -19.1622   -5.5877 C   0  0  0  0  0  0  0  0  0  0  0  0
   29.4080  -19.3810   -4.5248 C   0  0  0  0  0  0  0  0  0  0  0  0
   29.7216  -20.6445   -4.1390 C   0  0  0  0  0  0  0  0  0  0  0  0
   29.1823  -21.7203   -4.8075 C   0  0  0  0  0  0  0  0  0  0  0  0
   28.3395  -21.5257   -5.8510 C   0  0  0  0  0  0  0  0  0  0  0  0
   28.0151  -20.2363   -6.2516 C   0  0  0  0  0  0  0  0  0  0  0  0
   28.4032  -20.7849   -9.6649 C   0  0  0  0  0  0  0  0  0  0  0  0
   28.6984  -22.1480   -9.8665 O   0  0  0  0  0  0  0  0  0  0  0  0
   29.3129  -19.9599   -9.5192 O   0  0  0  0  0  0  0  0  0  0  0  0
  2  3  1  1
  2  1  1  0
  4  5  1  0
  4  2  1  0
  5  6  1  6
  7  5  1  0
  8  7  2  0
  9  7  1  0
 10  9  1  0
 11 12  1  0
 10 11  1  6
 12 16  1  0
 13 12  2  0
 13 14  1  0
 14 15  1  0
 16 15  2  0
 17 19  1  0
 17 10  1  0
 18 17  2  0
 20 31  1  0
 20 19  1  0
 20 21  1  1
 21 22  1  0
 22 23  2  0
 22 30  1  0
 23 24  1  0
 24 25  1  0
 25 26  2  0
 27 26  1  0
 28 27  2  0
 29 30  2  0
 29 28  1  0
 30 25  1  0
 31 32  1  0
 33 31  2  0
M  END
$$$$
