LHW.pdb
     RDKit          3D

 33 35  0  0  1  0  0  0  0  0999 V2000
   39.4114  -25.9635  -24.2421 C   0  0  0  0  0  0  0  0  0  0  0  0
   38.5460  -25.5597  -23.0692 C   0  0  1  0  0  0  0  0  0  0  0  0
   37.1556  -25.3206  -23.5654 C   0  0  0  0  0  0  0  0  0  0  0  0
   38.5314  -26.6132  -21.9858 C   0  0  0  0  0  0  0  0  0  0  0  0
   37.6528  -26.2115  -20.8242 C   0  0  2  0  0  0  0  0  0  0  0  0
   38.1528  -25.0882  -20.1054 N   0  0  0  0  0  0  0  0  0  0  0  0
   37.3495  -27.3962  -20.0135 C   0  0  0  0  0  0  0  0  0  0  0  0
   38.1855  -27.8188  -19.1733 O   0  0  0  0  0  0  0  0  0  0  0  0
   36.1225  -28.1498  -20.1014 N   0  0  0  0  0  0  0  0  0  0  0  0
   35.8829  -29.2958  -19.2871 C   0  0  1  0  0  0  0  0  0  0  0  0
   34.7887  -29.1873  -18.3006 C   0  0  0  0  0  0  0  0  0  0  0  0
   33.4799  -28.7392  -18.7831 C   0  0  0  0  0  0  0  0  0  0  0  0
   33.1032  -28.3908  -20.0470 C   0  0  0  0  0  0  0  0  0  0  0  0
   31.7782  -28.0619  -20.0666 N   0  0  0  0  0  0  0  0  0  0  0  0
   31.3551  -28.2138  -18.8072 C   0  0  0  0  0  0  0  0  0  0  0  0
   32.3503  -28.6174  -18.0206 N   0  0  0  0  0  0  0  0  0  0  0  0
   35.7393  -30.5043  -20.1724 C   0  0  0  0  0  0  0  0  0  0  0  0
   35.3494  -30.3621  -21.3503 O   0  0  0  0  0  0  0  0  0  0  0  0
   36.0384  -31.7927  -19.6925 N   0  0  0  0  0  0  0  0  0  0  0  0
   35.8082  -32.9787  -20.5450 C   0  0  1  0  0  0  0  0  0  0  0  0
   36.3584  -34.1904  -19.8534 C   0  0  0  0  0  0  0  0  0  0  0  0
   36.3055  -35.3865  -20.6976 C   0  0  0  0  0  0  0  0  0  0  0  0
   37.0106  -35.5791  -21.8941 C   0  0  0  0  0  0  0  0  0  0  0  0
   36.6872  -36.7660  -22.4197 N   0  0  0  0  0  0  0  0  0  0  0  0
   35.7971  -37.3747  -21.6249 C   0  0  0  0  0  0  0  0  0  0  0  0
   35.1663  -38.6053  -21.6967 C   0  0  0  0  0  0  0  0  0  0  0  0
   34.3061  -38.9982  -20.7225 C   0  0  0  0  0  0  0  0  0  0  0  0
   34.0557  -38.1693  -19.6524 C   0  0  0  0  0  0  0  0  0  0  0  0
   34.6629  -36.9607  -19.5655 C   0  0  0  0  0  0  0  0  0  0  0  0
   35.5432  -36.5518  -20.5586 C   0  0  0  0  0  0  0  0  0  0  0  0
   34.4200  -33.1303  -20.9233 C   0  0  0  0  0  0  0  0  0  0  0  0
   34.1489  -33.5881  -22.2281 O   0  0  0  0  0  0  0  0  0  0  0  0
   33.4957  -32.8724  -20.1432 O   0  0  0  0  0  0  0  0  0  0  0  0
  2  3  1  6
  2  1  1  0
  4  5  1  0
  4  2  1  0
  5  6  1  1
  7  5  1  0
  8  7  2  0
  9  7  1  0
 10  9  1  0
 11 12  1  0
 10 11  1  6
 12 16  1  0
 13 12  2  0
 13 14  1  0
 14 15  1  0
 16 15  2  0
 17 19  1  0
 17 10  1  0
 18 17  2  0
 20 31  1  0
 20 19  1  0
 20 21  1  1
 21 22  1  0
 22 23  2  0
 22 30  1  0
 23 24  1  0
 24 25  1  0
 25 26  2  0
 27 26  1  0
 28 27  2  0
 29 30  2  0
 29 28  1  0
 30 25  1  0
 31 32  1  0
 33 31  2  0
M  END
$$$$
