LHW.pdb
     RDKit          3D

 33 35  0  0  1  0  0  0  0  0999 V2000
   18.0676  -21.5273  -15.8084 C   0  0  0  0  0  0  0  0  0  0  0  0
   18.9033  -21.1509  -14.6052 C   0  0  1  0  0  0  0  0  0  0  0  0
   18.5537  -22.0698  -13.4783 C   0  0  0  0  0  0  0  0  0  0  0  0
   20.3843  -21.2328  -14.8952 C   0  0  0  0  0  0  0  0  0  0  0  0
   21.2129  -20.7843  -13.7142 C   0  0  2  0  0  0  0  0  0  0  0  0
   20.5474  -19.8300  -12.8926 N   0  0  0  0  0  0  0  0  0  0  0  0
   22.5488  -20.3949  -14.1794 C   0  0  0  0  0  0  0  0  0  0  0  0
   23.3079  -21.2474  -14.7090 O   0  0  0  0  0  0  0  0  0  0  0  0
   23.0891  -19.0611  -14.0771 N   0  0  0  0  0  0  0  0  0  0  0  0
   24.3663  -18.7230  -14.6140 C   0  0  1  0  0  0  0  0  0  0  0  0
   24.5667  -17.3117  -15.0017 C   0  0  0  0  0  0  0  0  0  0  0  0
   25.8429  -16.9523  -15.6250 C   0  0  0  0  0  0  0  0  0  0  0  0
   26.9184  -17.7451  -15.9000 C   0  0  0  0  0  0  0  0  0  0  0  0
   27.8935  -17.0140  -16.5156 N   0  0  0  0  0  0  0  0  0  0  0  0
   27.4016  -15.7743  -16.6122 C   0  0  0  0  0  0  0  0  0  0  0  0
   26.1794  -15.7096  -16.0886 N   0  0  0  0  0  0  0  0  0  0  0  0
   25.4370  -19.2188  -13.6798 C   0  0  0  0  0  0  0  0  0  0  0  0
   25.5801  -18.6769  -12.5638 O   0  0  0  0  0  0  0  0  0  0  0  0
   26.2795  -20.2849  -14.0453 N   0  0  0  0  0  0  0  0  0  0  0  0
   27.5143  -20.5568  -13.2788 C   0  0  1  0  0  0  0  0  0  0  0  0
   27.2613  -21.6934  -12.3337 C   0  0  0  0  0  0  0  0  0  0  0  0
   26.7251  -21.2407  -11.0478 C   0  0  0  0  0  0  0  0  0  0  0  0
   25.3670  -21.1208  -10.7207 C   0  0  0  0  0  0  0  0  0  0  0  0
   25.2451  -20.6362   -9.4798 N   0  0  0  0  0  0  0  0  0  0  0  0
   26.4639  -20.4284   -8.9638 C   0  0  0  0  0  0  0  0  0  0  0  0
   26.8914  -19.9655   -7.7307 C   0  0  0  0  0  0  0  0  0  0  0  0
   28.2165  -19.8718   -7.4499 C   0  0  0  0  0  0  0  0  0  0  0  0
   29.1465  -20.2388   -8.3961 C   0  0  0  0  0  0  0  0  0  0  0  0
   28.7469  -20.6931   -9.6090 C   0  0  0  0  0  0  0  0  0  0  0  0
   27.3934  -20.7908   -9.9035 C   0  0  0  0  0  0  0  0  0  0  0  0
   28.6604  -20.7815  -14.1327 C   0  0  0  0  0  0  0  0  0  0  0  0
   29.9373  -20.6864  -13.5442 O   0  0  0  0  0  0  0  0  0  0  0  0
   28.5408  -21.0479  -15.3344 O   0  0  0  0  0  0  0  0  0  0  0  0
  2  3  1  1
  2  1  1  0
  4  5  1  0
  4  2  1  0
  5  6  1  6
  7  5  1  0
  8  7  2  0
  9  7  1  0
 10  9  1  0
 11 12  1  0
 10 11  1  1
 12 16  1  0
 13 12  2  0
 13 14  1  0
 14 15  1  0
 16 15  2  0
 17 19  1  0
 17 10  1  0
 18 17  2  0
 20 31  1  0
 20 19  1  0
 20 21  1  6
 21 22  1  0
 22 23  2  0
 22 30  1  0
 23 24  1  0
 24 25  1  0
 25 26  2  0
 27 26  1  0
 28 27  2  0
 29 30  2  0
 29 28  1  0
 30 25  1  0
 31 32  1  0
 33 31  2  0
M  END
$$$$
