LHW.pdb
     RDKit          3D

 33 35  0  0  1  0  0  0  0  0999 V2000
   26.0415  -22.5048  -20.1959 C   0  0  0  0  0  0  0  0  0  0  0  0
   26.5826  -23.3198  -19.0424 C   0  0  1  0  0  0  0  0  0  0  0  0
   27.5730  -24.3033  -19.5795 C   0  0  0  0  0  0  0  0  0  0  0  0
   27.2373  -22.4518  -17.9926 C   0  0  0  0  0  0  0  0  0  0  0  0
   26.2160  -21.7437  -17.1334 C   0  0  2  0  0  0  0  0  0  0  0  0
   25.4936  -20.7372  -17.8360 N   0  0  0  0  0  0  0  0  0  0  0  0
   26.8511  -21.3096  -15.8841 C   0  0  0  0  0  0  0  0  0  0  0  0
   28.0546  -21.5959  -15.6532 O   0  0  0  0  0  0  0  0  0  0  0  0
   26.1852  -20.5501  -14.8540 N   0  0  0  0  0  0  0  0  0  0  0  0
   26.8832  -20.0555  -13.7130 C   0  0  1  0  0  0  0  0  0  0  0  0
   27.0832  -18.5935  -13.6442 C   0  0  0  0  0  0  0  0  0  0  0  0
   27.6072  -17.9219  -14.8362 C   0  0  0  0  0  0  0  0  0  0  0  0
   27.9324  -18.4541  -16.0493 C   0  0  0  0  0  0  0  0  0  0  0  0
   28.3571  -17.4690  -16.8940 N   0  0  0  0  0  0  0  0  0  0  0  0
   28.2863  -16.3374  -16.1851 C   0  0  0  0  0  0  0  0  0  0  0  0
   27.8417  -16.5789  -14.9539 N   0  0  0  0  0  0  0  0  0  0  0  0
   26.2396  -20.6056  -12.4688 C   0  0  0  0  0  0  0  0  0  0  0  0
   25.0281  -20.9086  -12.4843 O   0  0  0  0  0  0  0  0  0  0  0  0
   26.9831  -20.7842  -11.2877 N   0  0  0  0  0  0  0  0  0  0  0  0
   26.3216  -21.2607  -10.0542 C   0  0  1  0  0  0  0  0  0  0  0  0
   27.3683  -21.5470   -9.0189 C   0  0  0  0  0  0  0  0  0  0  0  0
   27.5398  -20.4377   -8.0776 C   0  0  0  0  0  0  0  0  0  0  0  0
   26.9017  -19.1914   -8.1520 C   0  0  0  0  0  0  0  0  0  0  0  0
   27.3284  -18.4084   -7.1549 N   0  0  0  0  0  0  0  0  0  0  0  0
   28.2233  -19.0788   -6.4171 C   0  0  0  0  0  0  0  0  0  0  0  0
   28.9398  -18.7420   -5.2810 C   0  0  0  0  0  0  0  0  0  0  0  0
   29.7823  -19.6376   -4.7051 C   0  0  0  0  0  0  0  0  0  0  0  0
   29.9286  -20.8924   -5.2519 C   0  0  0  0  0  0  0  0  0  0  0  0
   29.2365  -21.2397   -6.3643 C   0  0  0  0  0  0  0  0  0  0  0  0
   28.3738  -20.3286   -6.9592 C   0  0  0  0  0  0  0  0  0  0  0  0
   25.3009  -20.3499   -9.5834 C   0  0  0  0  0  0  0  0  0  0  0  0
   24.2678  -20.8866   -8.7893 O   0  0  0  0  0  0  0  0  0  0  0  0
   25.3203  -19.1443   -9.8583 O   0  0  0  0  0  0  0  0  0  0  0  0
  2  3  1  6
  2  1  1  0
  4  5  1  0
  4  2  1  0
  5  6  1  6
  7  5  1  0
  8  7  2  0
  9  7  1  0
 10  9  1  0
 11 12  1  0
 10 11  1  1
 12 16  1  0
 13 12  2  0
 13 14  1  0
 14 15  1  0
 16 15  2  0
 17 19  1  0
 17 10  1  0
 18 17  2  0
 20 31  1  0
 20 19  1  0
 20 21  1  1
 21 22  1  0
 22 23  2  0
 22 30  1  0
 23 24  1  0
 24 25  1  0
 25 26  2  0
 27 26  1  0
 28 27  2  0
 29 30  2  0
 29 28  1  0
 30 25  1  0
 31 32  1  0
 33 31  2  0
M  END
$$$$
