LHW.pdb
     RDKit          3D

 33 35  0  0  1  0  0  0  0  0999 V2000
   17.9679  -23.8359  -16.2459 C   0  0  0  0  0  0  0  0  0  0  0  0
   18.4906  -22.7460  -15.3368 C   0  0  1  0  0  0  0  0  0  0  0  0
   17.3918  -22.3334  -14.4099 C   0  0  0  0  0  0  0  0  0  0  0  0
   19.6923  -23.1994  -14.5403 C   0  0  0  0  0  0  0  0  0  0  0  0
   20.2820  -22.0731  -13.7241 C   0  0  2  0  0  0  0  0  0  0  0  0
   20.1670  -20.8023  -14.3570 N   0  0  0  0  0  0  0  0  0  0  0  0
   21.6344  -22.4437  -13.2927 C   0  0  0  0  0  0  0  0  0  0  0  0
   21.8441  -23.5650  -12.7614 O   0  0  0  0  0  0  0  0  0  0  0  0
   22.7937  -21.5961  -13.4316 N   0  0  0  0  0  0  0  0  0  0  0  0
   24.0815  -22.0006  -12.9715 C   0  0  1  0  0  0  0  0  0  0  0  0
   25.1366  -22.1342  -13.9967 C   0  0  0  0  0  0  0  0  0  0  0  0
   25.0340  -23.2534  -14.9364 C   0  0  0  0  0  0  0  0  0  0  0  0
   24.1102  -23.4710  -15.9163 C   0  0  0  0  0  0  0  0  0  0  0  0
   24.4001  -24.6255  -16.5850 N   0  0  0  0  0  0  0  0  0  0  0  0
   25.5052  -25.1052  -16.0045 C   0  0  0  0  0  0  0  0  0  0  0  0
   25.9048  -24.3058  -15.0179 N   0  0  0  0  0  0  0  0  0  0  0  0
   24.4973  -21.1083  -11.8332 C   0  0  0  0  0  0  0  0  0  0  0  0
   24.0614  -19.9394  -11.7759 O   0  0  0  0  0  0  0  0  0  0  0  0
   25.3702  -21.5720  -10.8317 N   0  0  0  0  0  0  0  0  0  0  0  0
   26.0402  -20.6158   -9.9245 C   0  0  1  0  0  0  0  0  0  0  0  0
   26.4633  -21.3388   -8.6804 C   0  0  0  0  0  0  0  0  0  0  0  0
   26.9902  -20.4301   -7.6592 C   0  0  0  0  0  0  0  0  0  0  0  0
   26.4901  -19.1556   -7.3571 C   0  0  0  0  0  0  0  0  0  0  0  0
   27.2420  -18.5923   -6.4049 N   0  0  0  0  0  0  0  0  0  0  0  0
   28.2223  -19.4367   -6.0573 C   0  0  0  0  0  0  0  0  0  0  0  0
   29.2415  -19.3537   -5.1236 C   0  0  0  0  0  0  0  0  0  0  0  0
   30.1055  -20.3867   -4.9508 C   0  0  0  0  0  0  0  0  0  0  0  0
   29.9710  -21.5283   -5.7082 C   0  0  0  0  0  0  0  0  0  0  0  0
   28.9803  -21.6273   -6.6278 C   0  0  0  0  0  0  0  0  0  0  0  0
   28.0935  -20.5744   -6.8106 C   0  0  0  0  0  0  0  0  0  0  0  0
   27.1315  -19.9138  -10.5643 C   0  0  0  0  0  0  0  0  0  0  0  0
   27.2040  -18.5188  -10.3782 O   0  0  0  0  0  0  0  0  0  0  0  0
   27.9760  -20.5008  -11.2509 O   0  0  0  0  0  0  0  0  0  0  0  0
  2  3  1  1
  2  1  1  0
  4  5  1  0
  4  2  1  0
  5  6  1  6
  7  5  1  0
  8  7  2  0
  9  7  1  0
 10  9  1  0
 11 12  1  0
 10 11  1  6
 12 16  1  0
 13 12  2  0
 13 14  1  0
 14 15  1  0
 16 15  2  0
 17 19  1  0
 17 10  1  0
 18 17  2  0
 20 31  1  0
 20 19  1  0
 20 21  1  1
 21 22  1  0
 22 23  2  0
 22 30  1  0
 23 24  1  0
 24 25  1  0
 25 26  2  0
 27 26  1  0
 28 27  2  0
 29 30  2  0
 29 28  1  0
 30 25  1  0
 31 32  1  0
 33 31  2  0
M  END
$$$$
