LHW.pdb
     RDKit          3D

 33 35  0  0  1  0  0  0  0  0999 V2000
   27.4622  -16.1455  -18.1114 C   0  0  0  0  0  0  0  0  0  0  0  0
   27.6913  -17.4409  -17.3649 C   0  0  1  0  0  0  0  0  0  0  0  0
   28.8512  -18.1495  -17.9888 C   0  0  0  0  0  0  0  0  0  0  0  0
   27.9599  -17.2091  -15.8958 C   0  0  0  0  0  0  0  0  0  0  0  0
   28.2364  -18.5022  -15.1651 C   0  0  2  0  0  0  0  0  0  0  0  0
   28.3320  -19.6273  -16.0333 N   0  0  0  0  0  0  0  0  0  0  0  0
   27.2908  -18.6418  -14.0521 C   0  0  0  0  0  0  0  0  0  0  0  0
   26.9924  -17.6436  -13.3464 O   0  0  0  0  0  0  0  0  0  0  0  0
   26.6464  -19.8785  -13.6822 N   0  0  0  0  0  0  0  0  0  0  0  0
   25.7049  -19.9465  -12.6132 C   0  0  1  0  0  0  0  0  0  0  0  0
   24.3900  -20.5411  -12.9287 C   0  0  0  0  0  0  0  0  0  0  0  0
   23.5671  -19.8740  -13.9407 C   0  0  0  0  0  0  0  0  0  0  0  0
   23.7878  -18.6921  -14.5852 C   0  0  0  0  0  0  0  0  0  0  0  0
   22.7834  -18.4513  -15.4782 N   0  0  0  0  0  0  0  0  0  0  0  0
   21.9539  -19.4947  -15.3709 C   0  0  0  0  0  0  0  0  0  0  0  0
   22.3978  -20.3587  -14.4607 N   0  0  0  0  0  0  0  0  0  0  0  0
   26.3592  -20.5986  -11.4251 C   0  0  0  0  0  0  0  0  0  0  0  0
   27.3508  -21.3381  -11.5969 O   0  0  0  0  0  0  0  0  0  0  0  0
   25.8703  -20.3868  -10.1229 N   0  0  0  0  0  0  0  0  0  0  0  0
   26.1439  -21.3709   -9.0538 C   0  0  1  0  0  0  0  0  0  0  0  0
   27.5676  -21.2216   -8.6064 C   0  0  0  0  0  0  0  0  0  0  0  0
   27.7116  -20.2509   -7.5188 C   0  0  0  0  0  0  0  0  0  0  0  0
   26.8332  -19.1942   -7.2394 C   0  0  0  0  0  0  0  0  0  0  0  0
   27.2992  -18.4844   -6.2058 N   0  0  0  0  0  0  0  0  0  0  0  0
   28.4506  -19.0225   -5.7821 C   0  0  0  0  0  0  0  0  0  0  0  0
   29.3141  -18.6925   -4.7511 C   0  0  0  0  0  0  0  0  0  0  0  0
   30.4258  -19.4359   -4.5169 C   0  0  0  0  0  0  0  0  0  0  0  0
   30.7010  -20.5279   -5.3087 C   0  0  0  0  0  0  0  0  0  0  0  0
   29.8680  -20.8655   -6.3231 C   0  0  0  0  0  0  0  0  0  0  0  0
   28.7296  -20.1092   -6.5692 C   0  0  0  0  0  0  0  0  0  0  0  0
   25.2000  -21.2815   -7.9611 C   0  0  0  0  0  0  0  0  0  0  0  0
   25.3139  -22.2303   -6.9253 O   0  0  0  0  0  0  0  0  0  0  0  0
   24.3215  -20.4120   -7.9227 O   0  0  0  0  0  0  0  0  0  0  0  0
  2  3  1  6
  2  1  1  0
  4  5  1  0
  4  2  1  0
  5  6  1  6
  7  5  1  0
  8  7  2  0
  9  7  1  0
 10  9  1  0
 11 12  1  0
 10 11  1  6
 12 16  1  0
 13 12  2  0
 13 14  1  0
 14 15  1  0
 16 15  2  0
 17 19  1  0
 17 10  1  0
 18 17  2  0
 20 31  1  0
 20 19  1  0
 20 21  1  1
 21 22  1  0
 22 23  2  0
 22 30  1  0
 23 24  1  0
 24 25  1  0
 25 26  2  0
 27 26  1  0
 28 27  2  0
 29 30  2  0
 29 28  1  0
 30 25  1  0
 31 32  1  0
 33 31  2  0
M  END
$$$$
