LHW.pdb
     RDKit          3D

 33 35  0  0  1  0  0  0  0  0999 V2000
   23.8251  -17.3489  -21.3017 C   0  0  0  0  0  0  0  0  0  0  0  0
   24.8776  -17.7802  -20.3047 C   0  0  1  0  0  0  0  0  0  0  0  0
   25.4978  -16.5562  -19.7098 C   0  0  0  0  0  0  0  0  0  0  0  0
   24.3004  -18.6481  -19.2103 C   0  0  0  0  0  0  0  0  0  0  0  0
   25.3494  -19.0477  -18.1991 C   0  0  2  0  0  0  0  0  0  0  0  0
   26.4462  -19.7493  -18.7766 N   0  0  0  0  0  0  0  0  0  0  0  0
   24.7000  -19.7143  -17.0648 C   0  0  0  0  0  0  0  0  0  0  0  0
   24.3621  -20.9234  -17.1503 O   0  0  0  0  0  0  0  0  0  0  0  0
   24.4033  -19.0743  -15.8063 N   0  0  0  0  0  0  0  0  0  0  0  0
   23.8953  -19.8046  -14.6917 C   0  0  1  0  0  0  0  0  0  0  0  0
   24.3272  -19.3517  -13.3536 C   0  0  0  0  0  0  0  0  0  0  0  0
   23.8488  -20.1068  -12.1928 C   0  0  0  0  0  0  0  0  0  0  0  0
   23.0989  -21.2457  -12.1581 C   0  0  0  0  0  0  0  0  0  0  0  0
   22.9006  -21.6363  -10.8649 N   0  0  0  0  0  0  0  0  0  0  0  0
   23.5355  -20.7275  -10.1172 C   0  0  0  0  0  0  0  0  0  0  0  0
   24.1100  -19.8036  -10.8842 N   0  0  0  0  0  0  0  0  0  0  0  0
   22.3979  -19.8992  -14.8096 C   0  0  0  0  0  0  0  0  0  0  0  0
   21.7227  -18.8560  -14.9337 O   0  0  0  0  0  0  0  0  0  0  0  0
   21.7471  -21.1464  -14.7824 N   0  0  0  0  0  0  0  0  0  0  0  0
   20.2711  -21.2192  -14.8299 C   0  0  1  0  0  0  0  0  0  0  0  0
   19.8672  -22.5083  -15.4815 C   0  0  0  0  0  0  0  0  0  0  0  0
   18.4241  -22.5833  -15.7224 C   0  0  0  0  0  0  0  0  0  0  0  0
   17.6761  -21.6978  -16.5112 C   0  0  0  0  0  0  0  0  0  0  0  0
   16.3840  -22.0418  -16.4701 N   0  0  0  0  0  0  0  0  0  0  0  0
   16.2373  -23.1198  -15.6884 C   0  0  0  0  0  0  0  0  0  0  0  0
   15.1322  -23.8750  -15.3336 C   0  0  0  0  0  0  0  0  0  0  0  0
   15.2666  -24.9589  -14.5270 C   0  0  0  0  0  0  0  0  0  0  0  0
   16.5102  -25.3139  -14.0555 C   0  0  0  0  0  0  0  0  0  0  0  0
   17.6033  -24.5862  -14.3911 C   0  0  0  0  0  0  0  0  0  0  0  0
   17.4733  -23.4758  -15.2149 C   0  0  0  0  0  0  0  0  0  0  0  0
   19.6632  -21.0326  -13.5304 C   0  0  0  0  0  0  0  0  0  0  0  0
   18.5251  -20.2048  -13.4587 O   0  0  0  0  0  0  0  0  0  0  0  0
   20.1129  -21.5720  -12.5125 O   0  0  0  0  0  0  0  0  0  0  0  0
  2  3  1  1
  2  1  1  0
  4  5  1  0
  4  2  1  0
  5  6  1  6
  7  5  1  0
  8  7  2  0
  9  7  1  0
 10  9  1  0
 11 12  1  0
 10 11  1  1
 12 16  1  0
 13 12  2  0
 13 14  1  0
 14 15  1  0
 16 15  2  0
 17 19  1  0
 17 10  1  0
 18 17  2  0
 20 31  1  0
 20 19  1  0
 20 21  1  1
 21 22  1  0
 22 23  2  0
 22 30  1  0
 23 24  1  0
 24 25  1  0
 25 26  2  0
 27 26  1  0
 28 27  2  0
 29 30  2  0
 29 28  1  0
 30 25  1  0
 31 32  1  0
 33 31  2  0
M  END
$$$$
