LHW.pdb
     RDKit          3D

 33 35  0  0  1  0  0  0  0  0999 V2000
   28.0609  -14.7791  -15.1336 C   0  0  0  0  0  0  0  0  0  0  0  0
   27.2487  -14.1834  -16.2619 C   0  0  1  0  0  0  0  0  0  0  0  0
   26.7380  -15.2976  -17.1189 C   0  0  0  0  0  0  0  0  0  0  0  0
   26.0921  -13.3548  -15.7522 C   0  0  0  0  0  0  0  0  0  0  0  0
   25.2994  -12.7423  -16.8832 C   0  0  2  0  0  0  0  0  0  0  0  0
   26.1199  -12.1940  -17.9102 N   0  0  0  0  0  0  0  0  0  0  0  0
   24.2884  -11.8341  -16.3301 C   0  0  0  0  0  0  0  0  0  0  0  0
   23.5717  -12.1991  -15.3623 O   0  0  0  0  0  0  0  0  0  0  0  0
   24.0354  -10.5017  -16.8222 N   0  0  0  0  0  0  0  0  0  0  0  0
   23.0766   -9.6422  -16.2091 C   0  0  1  0  0  0  0  0  0  0  0  0
   23.4318   -8.2108  -16.1253 C   0  0  0  0  0  0  0  0  0  0  0  0
   22.4965   -7.3172  -15.4375 C   0  0  0  0  0  0  0  0  0  0  0  0
   21.8916   -7.4746  -14.2250 C   0  0  0  0  0  0  0  0  0  0  0  0
   21.1154   -6.3869  -13.9444 N   0  0  0  0  0  0  0  0  0  0  0  0
   21.2546   -5.5700  -14.9939 C   0  0  0  0  0  0  0  0  0  0  0  0
   22.0734   -6.1007  -15.8995 N   0  0  0  0  0  0  0  0  0  0  0  0
   21.7360   -9.8637  -16.8561 C   0  0  0  0  0  0  0  0  0  0  0  0
   21.6611   -9.9665  -18.0985 O   0  0  0  0  0  0  0  0  0  0  0  0
   20.5651   -9.9572  -16.0815 N   0  0  0  0  0  0  0  0  0  0  0  0
   19.2388   -9.9878  -16.7344 C   0  0  1  0  0  0  0  0  0  0  0  0
   18.4107  -11.0688  -16.1058 C   0  0  0  0  0  0  0  0  0  0  0  0
   18.7057  -12.3917  -16.6615 C   0  0  0  0  0  0  0  0  0  0  0  0
   19.9630  -12.8409  -17.0897 C   0  0  0  0  0  0  0  0  0  0  0  0
   19.8535  -14.0803  -17.5810 N   0  0  0  0  0  0  0  0  0  0  0  0
   18.5771  -14.4784  -17.4982 C   0  0  0  0  0  0  0  0  0  0  0  0
   17.9413  -15.6596  -17.8415 C   0  0  0  0  0  0  0  0  0  0  0  0
   16.6100  -15.8156  -17.6247 C   0  0  0  0  0  0  0  0  0  0  0  0
   15.8821  -14.7932  -17.0592 C   0  0  0  0  0  0  0  0  0  0  0  0
   16.4870  -13.6294  -16.7176 C   0  0  0  0  0  0  0  0  0  0  0  0
   17.8480  -13.4625  -16.9372 C   0  0  0  0  0  0  0  0  0  0  0  0
   18.5826   -8.6985  -16.7207 C   0  0  0  0  0  0  0  0  0  0  0  0
   19.1603   -7.6843  -15.9311 O   0  0  0  0  0  0  0  0  0  0  0  0
   17.5542   -8.4790  -17.3714 O   0  0  0  0  0  0  0  0  0  0  0  0
  2  3  1  6
  2  1  1  0
  4  5  1  0
  4  2  1  0
  5  6  1  6
  7  5  1  0
  8  7  2  0
  9  7  1  0
 10  9  1  0
 11 12  1  0
 10 11  1  6
 12 16  1  0
 13 12  2  0
 13 14  1  0
 14 15  1  0
 16 15  2  0
 17 19  1  0
 17 10  1  0
 18 17  2  0
 20 31  1  0
 20 19  1  0
 20 21  1  1
 21 22  1  0
 22 23  2  0
 22 30  1  0
 23 24  1  0
 24 25  1  0
 25 26  2  0
 27 26  1  0
 28 27  2  0
 29 30  2  0
 29 28  1  0
 30 25  1  0
 31 32  1  0
 33 31  2  0
M  END
$$$$
