LHW.pdb
     RDKit          3D

 33 35  0  0  1  0  0  0  0  0999 V2000
   20.1727  -18.2688  -17.2343 C   0  0  0  0  0  0  0  0  0  0  0  0
   21.3083  -17.5462  -16.5444 C   0  0  1  0  0  0  0  0  0  0  0  0
   20.8818  -17.2132  -15.1502 C   0  0  0  0  0  0  0  0  0  0  0  0
   22.5714  -18.3754  -16.5117 C   0  0  0  0  0  0  0  0  0  0  0  0
   23.6742  -17.6879  -15.7410 C   0  0  2  0  0  0  0  0  0  0  0  0
   23.8491  -16.3233  -16.1096 N   0  0  0  0  0  0  0  0  0  0  0  0
   24.8854  -18.5147  -15.7864 C   0  0  0  0  0  0  0  0  0  0  0  0
   25.1017  -19.2664  -16.7721 O   0  0  0  0  0  0  0  0  0  0  0  0
   25.8922  -18.5403  -14.7533 N   0  0  0  0  0  0  0  0  0  0  0  0
   27.1264  -19.2346  -14.9221 C   0  0  1  0  0  0  0  0  0  0  0  0
   28.3518  -18.4098  -14.9303 C   0  0  0  0  0  0  0  0  0  0  0  0
   28.4543  -17.3542  -15.9411 C   0  0  0  0  0  0  0  0  0  0  0  0
   29.0123  -17.4065  -17.1847 C   0  0  0  0  0  0  0  0  0  0  0  0
   28.8660  -16.2038  -17.8143 N   0  0  0  0  0  0  0  0  0  0  0  0
   28.2157  -15.4235  -16.9446 C   0  0  0  0  0  0  0  0  0  0  0  0
   27.9576  -16.0850  -15.8187 N   0  0  0  0  0  0  0  0  0  0  0  0
   27.1973  -20.3573  -13.9223 C   0  0  0  0  0  0  0  0  0  0  0  0
   28.2250  -21.0642  -13.8619 O   0  0  0  0  0  0  0  0  0  0  0  0
   26.1223  -20.6221  -13.0540 N   0  0  0  0  0  0  0  0  0  0  0  0
   26.1715  -21.7813  -12.1374 C   0  0  1  0  0  0  0  0  0  0  0  0
   27.2983  -21.5878  -11.1667 C   0  0  0  0  0  0  0  0  0  0  0  0
   26.8465  -21.0218   -9.8933 C   0  0  0  0  0  0  0  0  0  0  0  0
   25.5326  -20.6434   -9.5828 C   0  0  0  0  0  0  0  0  0  0  0  0
   25.4940  -20.1248   -8.3504 N   0  0  0  0  0  0  0  0  0  0  0  0
   26.7259  -20.1416   -7.8241 C   0  0  0  0  0  0  0  0  0  0  0  0
   27.2229  -19.7477   -6.5931 C   0  0  0  0  0  0  0  0  0  0  0  0
   28.5396  -19.9002   -6.2991 C   0  0  0  0  0  0  0  0  0  0  0  0
   29.3916  -20.4507   -7.2298 C   0  0  0  0  0  0  0  0  0  0  0  0
   28.9235  -20.8411   -8.4404 C   0  0  0  0  0  0  0  0  0  0  0  0
   27.5782  -20.6873   -8.7483 C   0  0  0  0  0  0  0  0  0  0  0  0
   24.9042  -22.0277  -11.4843 C   0  0  0  0  0  0  0  0  0  0  0  0
   24.0147  -20.9416  -11.3622 O   0  0  0  0  0  0  0  0  0  0  0  0
   24.5986  -23.1425  -11.0451 O   0  0  0  0  0  0  0  0  0  0  0  0
  2  3  1  1
  2  1  1  0
  4  5  1  0
  4  2  1  0
  5  6  1  6
  7  5  1  0
  8  7  2  0
  9  7  1  0
 10  9  1  0
 11 12  1  0
 10 11  1  1
 12 16  1  0
 13 12  2  0
 13 14  1  0
 14 15  1  0
 16 15  2  0
 17 19  1  0
 17 10  1  0
 18 17  2  0
 20 31  1  0
 20 19  1  0
 20 21  1  1
 21 22  1  0
 22 23  2  0
 22 30  1  0
 23 24  1  0
 24 25  1  0
 25 26  2  0
 27 26  1  0
 28 27  2  0
 29 30  2  0
 29 28  1  0
 30 25  1  0
 31 32  1  0
 33 31  2  0
M  END
$$$$
