QNN.pdb
     RDKit          3D

 26 25  0  0  1  0  0  0  0  0999 V2000
   27.4016  -24.2358  -16.1756 N   0  0  0  0  0  0  0  0  0  0  0  0
   27.8048  -23.4506  -17.2727 C   0  0  0  0  0  0  0  0  0  0  0  0
   28.9563  -23.5780  -17.7300 O   0  0  0  0  0  0  0  0  0  0  0  0
   26.8808  -22.4807  -17.8861 C   0  0  0  0  0  0  0  0  0  0  0  0
   25.5522  -22.3694  -17.2017 C   0  0  0  0  0  0  0  0  0  0  0  0
   25.3195  -21.0569  -16.5344 C   0  0  2  0  0  0  0  0  0  0  0  0
   26.5014  -20.5957  -15.8176 N   0  0  0  0  0  0  0  0  0  0  0  0
   24.2429  -21.2466  -15.5011 C   0  0  0  0  0  0  0  0  0  0  0  0
   23.1781  -21.7872  -15.9093 O   0  0  0  0  0  0  0  0  0  0  0  0
   26.0926  -22.0007  -10.8240 N   0  0  0  0  0  0  0  0  0  0  0  0
   24.9242  -22.2233  -11.6108 C   0  0  0  0  0  0  0  0  0  0  0  0
   24.8007  -23.3471  -12.1565 O   0  0  0  0  0  0  0  0  0  0  0  0
   23.8951  -21.1541  -11.7721 C   0  0  0  0  0  0  0  0  0  0  0  0
   23.3738  -21.0543  -13.1874 C   0  0  2  0  0  0  0  0  0  0  0  0
   24.4084  -20.8470  -14.1602 N   0  0  0  0  0  0  0  0  0  0  0  0
   22.3154  -20.0074  -13.2802 C   0  0  0  0  0  0  0  0  0  0  0  0
   22.5881  -18.7831  -13.2657 O   0  0  0  0  0  0  0  0  0  0  0  0
   19.0381  -18.3645  -17.4502 N   0  0  0  0  0  0  0  0  0  0  0  0
   19.5344  -18.1808  -16.1333 C   0  0  0  0  0  0  0  0  0  0  0  0
   19.1841  -17.1553  -15.5035 O   0  0  0  0  0  0  0  0  0  0  0  0
   20.4432  -19.1540  -15.4991 C   0  0  0  0  0  0  0  0  0  0  0  0
   19.9827  -19.6070  -14.1439 C   0  0  2  0  0  0  0  0  0  0  0  0
   20.9262  -20.3673  -13.3902 N   0  0  0  0  0  0  0  0  0  0  0  0
   18.6490  -20.2998  -14.2313 C   0  0  0  0  0  0  0  0  0  0  0  0
   17.4680  -19.6628  -13.8870 O   0  0  0  0  0  0  0  0  0  0  0  0
   18.5503  -21.4858  -14.6198 O   0  0  0  0  0  0  0  0  0  0  0  0
  2  3  2  0
  2  1  1  0
  4  2  1  0
  5  4  1  0
  6  5  1  0
  6  7  1  1
  8  9  2  0
  8  6  1  0
 11 10  1  0
 11 13  1  0
 12 11  2  0
 14 13  1  1
 14 15  1  0
 15  8  1  0
 16 23  1  0
 16 14  1  0
 17 16  2  0
 18 19  1  0
 19 21  1  0
 20 19  2  0
 22 21  1  6
 22 23  1  0
 22 24  1  0
 24 25  1  0
 26 24  2  0
M  END
$$$$
