QNN.pdb
     RDKit          3D

 26 25  0  0  1  0  0  0  0  0999 V2000
   13.9084  -10.6296  -11.4034 N   0  0  0  0  0  0  0  0  0  0  0  0
   13.3679  -10.2427  -10.1620 C   0  0  0  0  0  0  0  0  0  0  0  0
   12.4658  -10.9274   -9.6436 O   0  0  0  0  0  0  0  0  0  0  0  0
   13.8570   -9.0379   -9.4691 C   0  0  0  0  0  0  0  0  0  0  0  0
   14.9690   -8.3231  -10.1751 C   0  0  0  0  0  0  0  0  0  0  0  0
   16.1185   -7.9667   -9.2954 C   0  0  2  0  0  0  0  0  0  0  0  0
   15.7745   -6.9070   -8.3561 N   0  0  0  0  0  0  0  0  0  0  0  0
   17.2174   -7.4223  -10.1664 C   0  0  0  0  0  0  0  0  0  0  0  0
   17.3051   -6.1644  -10.2192 O   0  0  0  0  0  0  0  0  0  0  0  0
   21.1505   -6.7908  -13.4455 N   0  0  0  0  0  0  0  0  0  0  0  0
   21.1860   -8.1637  -13.0614 C   0  0  0  0  0  0  0  0  0  0  0  0
   22.1628   -8.8480  -13.4532 O   0  0  0  0  0  0  0  0  0  0  0  0
   20.0983   -8.7530  -12.2260 C   0  0  0  0  0  0  0  0  0  0  0  0
   19.1083   -7.7184  -11.7420 C   0  0  2  0  0  0  0  0  0  0  0  0
   18.0961   -8.2604  -10.8809 N   0  0  0  0  0  0  0  0  0  0  0  0
   18.5121   -6.9872  -12.8973 C   0  0  0  0  0  0  0  0  0  0  0  0
   17.7550   -7.5522  -13.7225 O   0  0  0  0  0  0  0  0  0  0  0  0
   17.0105   -3.2930  -16.2230 N   0  0  0  0  0  0  0  0  0  0  0  0
   16.6690   -3.0037  -14.8762 C   0  0  0  0  0  0  0  0  0  0  0  0
   15.8273   -2.1012  -14.6569 O   0  0  0  0  0  0  0  0  0  0  0  0
   17.2761   -3.7285  -13.7442 C   0  0  0  0  0  0  0  0  0  0  0  0
   18.1987   -4.8344  -14.1680 C   0  0  2  0  0  0  0  0  0  0  0  0
   18.7873   -5.5908  -13.1108 N   0  0  0  0  0  0  0  0  0  0  0  0
   19.2337   -4.3312  -15.1386 C   0  0  0  0  0  0  0  0  0  0  0  0
   20.5816   -4.6111  -14.9835 O   0  0  0  0  0  0  0  0  0  0  0  0
   18.9190   -3.6353  -16.1306 O   0  0  0  0  0  0  0  0  0  0  0  0
  2  3  2  0
  2  1  1  0
  4  2  1  0
  5  4  1  0
  6  5  1  0
  6  7  1  1
  8  9  2  0
  8  6  1  0
 11 10  1  0
 11 13  1  0
 12 11  2  0
 14 13  1  6
 14 15  1  0
 15  8  1  0
 16 23  1  0
 16 14  1  0
 17 16  2  0
 18 19  1  0
 19 21  1  0
 20 19  2  0
 22 21  1  1
 22 23  1  0
 22 24  1  0
 24 25  1  0
 26 24  2  0
M  END
$$$$
