QNN.pdb
     RDKit          3D

 26 25  0  0  1  0  0  0  0  0999 V2000
   15.9725  -12.0285  -13.9666 N   0  0  0  0  0  0  0  0  0  0  0  0
   16.6699  -12.8009  -14.9151 C   0  0  0  0  0  0  0  0  0  0  0  0
   16.7687  -14.0319  -14.7532 O   0  0  0  0  0  0  0  0  0  0  0  0
   17.2838  -12.1703  -16.0968 C   0  0  0  0  0  0  0  0  0  0  0  0
   17.6215  -10.7206  -15.9227 C   0  0  0  0  0  0  0  0  0  0  0  0
   18.9574  -10.3379  -16.4623 C   0  0  2  0  0  0  0  0  0  0  0  0
   20.0016  -11.2564  -16.0271 N   0  0  0  0  0  0  0  0  0  0  0  0
   19.3158   -8.9897  -15.8995 C   0  0  0  0  0  0  0  0  0  0  0  0
   18.5287   -8.0464  -16.1884 O   0  0  0  0  0  0  0  0  0  0  0  0
   21.6178   -4.9535  -13.6897 N   0  0  0  0  0  0  0  0  0  0  0  0
   22.0178   -6.1001  -12.9421 C   0  0  0  0  0  0  0  0  0  0  0  0
   22.6664   -5.9033  -11.8853 O   0  0  0  0  0  0  0  0  0  0  0  0
   21.6732   -7.4758  -13.4078 C   0  0  0  0  0  0  0  0  0  0  0  0
   20.8470   -7.4737  -14.6736 C   0  0  2  0  0  0  0  0  0  0  0  0
   20.4580   -8.7879  -15.0998 N   0  0  0  0  0  0  0  0  0  0  0  0
   21.5553   -6.7326  -15.7570 C   0  0  0  0  0  0  0  0  0  0  0  0
   22.4055   -7.2859  -16.4949 O   0  0  0  0  0  0  0  0  0  0  0  0
   21.4760   -4.8844  -20.9579 N   0  0  0  0  0  0  0  0  0  0  0  0
   22.0330   -4.8372  -19.6535 C   0  0  0  0  0  0  0  0  0  0  0  0
   23.1719   -4.3335  -19.5110 O   0  0  0  0  0  0  0  0  0  0  0  0
   21.3136   -5.3631  -18.4782 C   0  0  0  0  0  0  0  0  0  0  0  0
   21.6732   -4.6685  -17.1968 C   0  0  2  0  0  0  0  0  0  0  0  0
   21.2870   -5.3393  -15.9979 N   0  0  0  0  0  0  0  0  0  0  0  0
   21.2084   -3.2367  -17.2106 C   0  0  0  0  0  0  0  0  0  0  0  0
   22.0794   -2.1810  -16.9962 O   0  0  0  0  0  0  0  0  0  0  0  0
   20.0101   -2.9382  -17.4168 O   0  0  0  0  0  0  0  0  0  0  0  0
  2  3  2  0
  2  1  1  0
  4  2  1  0
  5  4  1  0
  6  5  1  0
  6  7  1  1
  8  9  2  0
  8  6  1  0
 11 10  1  0
 11 13  1  0
 12 11  2  0
 14 13  1  1
 14 15  1  0
 15  8  1  0
 16 23  1  0
 16 14  1  0
 17 16  2  0
 18 19  1  0
 19 21  1  0
 20 19  2  0
 22 21  1  6
 22 23  1  0
 22 24  1  0
 24 25  1  0
 26 24  2  0
M  END
$$$$
