QNN.pdb
     RDKit          3D

 26 25  0  0  1  0  0  0  0  0999 V2000
   20.1108  -15.7465  -20.4832 N   0  0  0  0  0  0  0  0  0  0  0  0
   20.7783  -15.7945  -19.2443 C   0  0  0  0  0  0  0  0  0  0  0  0
   21.3192  -16.8549  -18.8777 O   0  0  0  0  0  0  0  0  0  0  0  0
   20.8448  -14.6054  -18.3769 C   0  0  0  0  0  0  0  0  0  0  0  0
   20.0761  -13.4228  -18.8834 C   0  0  0  0  0  0  0  0  0  0  0  0
   20.7216  -12.1098  -18.5978 C   0  0  2  0  0  0  0  0  0  0  0  0
   21.6710  -12.2004  -17.4959 N   0  0  0  0  0  0  0  0  0  0  0  0
   19.6488  -11.1520  -18.1568 C   0  0  0  0  0  0  0  0  0  0  0  0
   18.5773  -11.1820  -18.8229 O   0  0  0  0  0  0  0  0  0  0  0  0
   16.6928   -7.5608  -16.1386 N   0  0  0  0  0  0  0  0  0  0  0  0
   16.4286   -8.9590  -16.0438 C   0  0  0  0  0  0  0  0  0  0  0  0
   15.2837   -9.3061  -15.6636 O   0  0  0  0  0  0  0  0  0  0  0  0
   17.4805   -9.9614  -16.3858 C   0  0  0  0  0  0  0  0  0  0  0  0
   18.8127   -9.3234  -16.7067 C   0  0  2  0  0  0  0  0  0  0  0  0
   19.8250  -10.2742  -17.0690 N   0  0  0  0  0  0  0  0  0  0  0  0
   19.2569   -8.4507  -15.5817 C   0  0  0  0  0  0  0  0  0  0  0  0
   19.5643   -8.9181  -14.4590 O   0  0  0  0  0  0  0  0  0  0  0  0
   21.8199   -4.5521  -13.3090 N   0  0  0  0  0  0  0  0  0  0  0  0
   22.3652   -5.1193  -14.4900 C   0  0  0  0  0  0  0  0  0  0  0  0
   23.5771   -4.9202  -14.7407 O   0  0  0  0  0  0  0  0  0  0  0  0
   21.5488   -5.9238  -15.4183 C   0  0  0  0  0  0  0  0  0  0  0  0
   20.1621   -6.1968  -14.9121 C   0  0  2  0  0  0  0  0  0  0  0  0
   19.3495   -7.0236  -15.7442 N   0  0  0  0  0  0  0  0  0  0  0  0
   19.4615   -4.9168  -14.5415 C   0  0  0  0  0  0  0  0  0  0  0  0
   18.9054   -4.7219  -13.2878 O   0  0  0  0  0  0  0  0  0  0  0  0
   19.3510   -3.9707  -15.3539 O   0  0  0  0  0  0  0  0  0  0  0  0
  2  3  2  0
  2  1  1  0
  4  2  1  0
  5  4  1  0
  6  5  1  0
  6  7  1  1
  8  9  2  0
  8  6  1  0
 11 10  1  0
 11 13  1  0
 12 11  2  0
 14 13  1  1
 14 15  1  0
 15  8  1  0
 16 23  1  0
 16 14  1  0
 17 16  2  0
 18 19  1  0
 19 21  1  0
 20 19  2  0
 22 21  1  6
 22 23  1  0
 22 24  1  0
 24 25  1  0
 26 24  2  0
M  END
$$$$
