QNN.pdb
     RDKit          3D

 26 25  0  0  1  0  0  0  0  0999 V2000
   11.5943   -9.2343  -11.8796 N   0  0  0  0  0  0  0  0  0  0  0  0
   11.4414  -10.3457  -11.0285 C   0  0  0  0  0  0  0  0  0  0  0  0
   10.3236  -10.8826  -10.9127 O   0  0  0  0  0  0  0  0  0  0  0  0
   12.5881  -10.8810  -10.2739 C   0  0  0  0  0  0  0  0  0  0  0  0
   13.8510  -10.0866  -10.4156 C   0  0  0  0  0  0  0  0  0  0  0  0
   14.9804  -10.8432  -11.0275 C   0  0  2  0  0  0  0  0  0  0  0  0
   15.2396  -12.0932  -10.3247 N   0  0  0  0  0  0  0  0  0  0  0  0
   16.2255  -10.0109  -10.8875 C   0  0  0  0  0  0  0  0  0  0  0  0
   16.7089   -9.9359   -9.7242 O   0  0  0  0  0  0  0  0  0  0  0  0
   20.3929   -7.0974  -11.5648 N   0  0  0  0  0  0  0  0  0  0  0  0
   20.1934   -7.8343  -12.7692 C   0  0  0  0  0  0  0  0  0  0  0  0
   21.0790   -7.7451  -13.6545 O   0  0  0  0  0  0  0  0  0  0  0  0
   18.9750   -8.6756  -12.9587 C   0  0  0  0  0  0  0  0  0  0  0  0
   17.9891   -8.5397  -11.8210 C   0  0  2  0  0  0  0  0  0  0  0  0
   16.8184   -9.3541  -11.9839 N   0  0  0  0  0  0  0  0  0  0  0  0
   17.6352   -7.1067  -11.6065 C   0  0  0  0  0  0  0  0  0  0  0  0
   16.8912   -6.4799  -12.3983 O   0  0  0  0  0  0  0  0  0  0  0  0
   16.9180   -2.4472   -9.4061 N   0  0  0  0  0  0  0  0  0  0  0  0
   17.3591   -3.3271   -8.3837 C   0  0  0  0  0  0  0  0  0  0  0  0
   17.3799   -2.9049   -7.2037 O   0  0  0  0  0  0  0  0  0  0  0  0
   17.7908   -4.7071   -8.6745 C   0  0  0  0  0  0  0  0  0  0  0  0
   17.7040   -5.0668  -10.1294 C   0  0  2  0  0  0  0  0  0  0  0  0
   18.1409   -6.3817  -10.4706 N   0  0  0  0  0  0  0  0  0  0  0  0
   18.3651   -4.0188  -10.9844 C   0  0  0  0  0  0  0  0  0  0  0  0
   17.6690   -2.9253  -11.4732 O   0  0  0  0  0  0  0  0  0  0  0  0
   19.5766   -4.0916  -11.2916 O   0  0  0  0  0  0  0  0  0  0  0  0
  2  3  2  0
  2  1  1  0
  4  2  1  0
  5  4  1  0
  6  5  1  0
  6  7  1  1
  8  9  2  0
  8  6  1  0
 11 10  1  0
 11 13  1  0
 12 11  2  0
 14 13  1  6
 14 15  1  0
 15  8  1  0
 16 23  1  0
 16 14  1  0
 17 16  2  0
 18 19  1  0
 19 21  1  0
 20 19  2  0
 22 21  1  1
 22 23  1  0
 22 24  1  0
 24 25  1  0
 26 24  2  0
M  END
$$$$
