QNN.pdb
     RDKit          3D

 26 25  0  0  1  0  0  0  0  0999 V2000
   29.8659  -20.5121  -17.8226 N   0  0  0  0  0  0  0  0  0  0  0  0
   29.5925  -19.1513  -18.0598 C   0  0  0  0  0  0  0  0  0  0  0  0
   30.1141  -18.5801  -19.0360 O   0  0  0  0  0  0  0  0  0  0  0  0
   28.6964  -18.3954  -17.1673 C   0  0  0  0  0  0  0  0  0  0  0  0
   28.1777  -19.1780  -15.9992 C   0  0  0  0  0  0  0  0  0  0  0  0
   26.7510  -19.5906  -16.1285 C   0  0  2  0  0  0  0  0  0  0  0  0
   25.8646  -18.4422  -16.2656 N   0  0  0  0  0  0  0  0  0  0  0  0
   26.3523  -20.2857  -14.8555 C   0  0  0  0  0  0  0  0  0  0  0  0
   27.2648  -20.9361  -14.2751 O   0  0  0  0  0  0  0  0  0  0  0  0
   25.9487  -22.0326  -10.0912 N   0  0  0  0  0  0  0  0  0  0  0  0
   25.3072  -20.8755  -10.6233 C   0  0  0  0  0  0  0  0  0  0  0  0
   24.4213  -20.3312   -9.9198 O   0  0  0  0  0  0  0  0  0  0  0  0
   25.6828  -20.3415  -11.9657 C   0  0  0  0  0  0  0  0  0  0  0  0
   24.7197  -20.7627  -13.0519 C   0  0  2  0  0  0  0  0  0  0  0  0
   25.0429  -20.2178  -14.3398 N   0  0  0  0  0  0  0  0  0  0  0  0
   23.3172  -20.4434  -12.6572 C   0  0  0  0  0  0  0  0  0  0  0  0
   23.0163  -19.3701  -12.0821 O   0  0  0  0  0  0  0  0  0  0  0  0
   18.8023  -18.5340  -14.0376 N   0  0  0  0  0  0  0  0  0  0  0  0
   19.4618  -19.5707  -14.7479 C   0  0  0  0  0  0  0  0  0  0  0  0
   18.8397  -20.1490  -15.6696 O   0  0  0  0  0  0  0  0  0  0  0  0
   20.8423  -19.9798  -14.4282 C   0  0  0  0  0  0  0  0  0  0  0  0
   20.9294  -20.9471  -13.2834 C   0  0  2  0  0  0  0  0  0  0  0  0
   22.2453  -21.3661  -12.9239 N   0  0  0  0  0  0  0  0  0  0  0  0
   20.0084  -22.1189  -13.4963 C   0  0  0  0  0  0  0  0  0  0  0  0
   20.3382  -23.1667  -14.3403 O   0  0  0  0  0  0  0  0  0  0  0  0
   18.9009  -22.1961  -12.9176 O   0  0  0  0  0  0  0  0  0  0  0  0
  2  3  2  0
  2  1  1  0
  4  2  1  0
  5  4  1  0
  6  5  1  0
  6  7  1  1
  8  9  2  0
  8  6  1  0
 11 10  1  0
 11 13  1  0
 12 11  2  0
 14 13  1  1
 14 15  1  0
 15  8  1  0
 16 23  1  0
 16 14  1  0
 17 16  2  0
 18 19  1  0
 19 21  1  0
 20 19  2  0
 22 21  1  6
 22 23  1  0
 22 24  1  0
 24 25  1  0
 26 24  2  0
M  END
$$$$
