QNN.pdb
     RDKit          3D

 26 25  0  0  1  0  0  0  0  0999 V2000
   27.8789  -27.1610  -15.8425 N   0  0  0  0  0  0  0  0  0  0  0  0
   28.3540  -27.2148  -17.1670 C   0  0  0  0  0  0  0  0  0  0  0  0
   28.6407  -28.3160  -17.6734 O   0  0  0  0  0  0  0  0  0  0  0  0
   28.5155  -25.9841  -17.9609 C   0  0  0  0  0  0  0  0  0  0  0  0
   28.0380  -24.7377  -17.2794 C   0  0  0  0  0  0  0  0  0  0  0  0
   28.9755  -23.5843  -17.3939 C   0  0  2  0  0  0  0  0  0  0  0  0
   30.2941  -23.9023  -16.8613 N   0  0  0  0  0  0  0  0  0  0  0  0
   28.4355  -22.4625  -16.5497 C   0  0  0  0  0  0  0  0  0  0  0  0
   28.8566  -22.4170  -15.3609 O   0  0  0  0  0  0  0  0  0  0  0  0
   26.4776  -18.1522  -14.6817 N   0  0  0  0  0  0  0  0  0  0  0  0
   27.3917  -17.9669  -15.7605 C   0  0  0  0  0  0  0  0  0  0  0  0
   27.8865  -16.8226  -15.9083 O   0  0  0  0  0  0  0  0  0  0  0  0
   27.7389  -19.0969  -16.6720 C   0  0  0  0  0  0  0  0  0  0  0  0
   27.0920  -20.3993  -16.2598 C   0  0  2  0  0  0  0  0  0  0  0  0
   27.5165  -21.5194  -17.0506 N   0  0  0  0  0  0  0  0  0  0  0  0
   25.6065  -20.2640  -16.2528 C   0  0  0  0  0  0  0  0  0  0  0  0
   24.9252  -20.3606  -17.3015 O   0  0  0  0  0  0  0  0  0  0  0  0
   20.6777  -20.1659  -14.7956 N   0  0  0  0  0  0  0  0  0  0  0  0
   21.4173  -19.9913  -13.5970 C   0  0  0  0  0  0  0  0  0  0  0  0
   20.7997  -20.0255  -12.5068 O   0  0  0  0  0  0  0  0  0  0  0  0
   22.8755  -19.7701  -13.6050 C   0  0  0  0  0  0  0  0  0  0  0  0
   23.4797  -19.8162  -14.9786 C   0  0  2  0  0  0  0  0  0  0  0  0
   24.8921  -20.0138  -15.0287 N   0  0  0  0  0  0  0  0  0  0  0  0
   23.0525  -18.6263  -15.7959 C   0  0  0  0  0  0  0  0  0  0  0  0
   23.9663  -17.7089  -16.2884 O   0  0  0  0  0  0  0  0  0  0  0  0
   21.8485  -18.4142  -16.0658 O   0  0  0  0  0  0  0  0  0  0  0  0
  2  3  2  0
  2  1  1  0
  4  2  1  0
  5  4  1  0
  6  5  1  0
  6  7  1  1
  8  9  2  0
  8  6  1  0
 11 10  1  0
 11 13  1  0
 12 11  2  0
 14 13  1  6
 14 15  1  0
 15  8  1  0
 16 23  1  0
 16 14  1  0
 17 16  2  0
 18 19  1  0
 19 21  1  0
 20 19  2  0
 22 21  1  1
 22 23  1  0
 22 24  1  0
 24 25  1  0
 26 24  2  0
M  END
$$$$
