ERQ.pdb
     RDKit          3D

 30 29  0  0  1  0  0  0  0  0999 V2000
    6.2134  -19.0573   24.5598 N   0  0  0  0  0  0  0  0  0  0  0  0
    6.9029  -19.4342   23.3447 C   0  0  1  0  0  0  0  0  0  0  0  0
    5.9560  -19.7200   22.2305 C   0  0  0  0  0  0  0  0  0  0  0  0
    5.4440  -21.1373   22.2125 C   0  0  0  0  0  0  0  0  0  0  0  0
    4.0621  -21.3041   22.6623 C   0  0  0  0  0  0  0  0  0  0  0  0
    3.6845  -21.3358   23.8754 O   0  0  0  0  0  0  0  0  0  0  0  0
    7.9038  -18.3683   22.9487 C   0  0  0  0  0  0  0  0  0  0  0  0
    8.7105  -18.6092   22.0366 O   0  0  0  0  0  0  0  0  0  0  0  0
    3.0511  -21.4431   21.6931 O   0  0  0  0  0  0  0  0  0  0  0  0
    7.0549  -12.1374   19.5380 N   0  0  0  0  0  0  0  0  0  0  0  0
    7.5636  -13.2322   18.8060 C   0  0  0  0  0  0  0  0  0  0  0  0
    7.1190  -13.5620   17.6618 N   0  0  0  0  0  0  0  0  0  0  0  0
    8.6203  -14.0196   19.3522 N   0  0  0  0  0  0  0  0  0  0  0  0
    8.9455  -14.0519   20.7397 C   0  0  0  0  0  0  0  0  0  0  0  0
    7.7921  -14.5472   21.5910 C   0  0  0  0  0  0  0  0  0  0  0  0
    8.1512  -14.7150   23.0155 C   0  0  0  0  0  0  0  0  0  0  0  0
    8.8082  -16.0189   23.3929 C   0  0  2  0  0  0  0  0  0  0  0  0
    7.9145  -17.1198   23.6110 N   0  0  0  0  0  0  0  0  0  0  0  0
    9.6467  -15.7974   24.5804 C   0  0  0  0  0  0  0  0  0  0  0  0
    9.8195  -14.6554   25.1093 O   0  0  0  0  0  0  0  0  0  0  0  0
    7.5238  -14.3050   17.0526 N   0  0  0  0  0  0  0  0  0  0  0  0
   10.0131  -12.5430   28.5017 C   0  0  0  0  0  0  0  0  0  0  0  0
   10.4839  -13.8702   28.6205 O   0  0  0  0  0  0  0  0  0  0  0  0
   10.5546  -14.4106   29.7267 C   0  0  0  0  0  0  0  0  0  0  0  0
   10.8802  -14.5590   27.3458 C   0  0  0  0  0  0  0  0  0  0  0  0
   10.6701  -16.0420   27.4536 C   0  0  2  0  0  0  0  0  0  0  0  0
   11.2683  -16.7412   26.2856 N   0  0  0  0  0  0  0  0  0  0  0  0
   10.3088  -16.8769   25.1936 C   0  0  0  0  0  0  0  0  0  0  0  0
   11.6970  -18.0999   26.6607 O   0  0  0  0  0  0  0  0  0  0  0  0
   11.2243  -19.1673   26.1760 O   0  0  0  0  0  0  0  0  0  0  0  0
  2  1  1  1
  3  2  1  0
  3  4  1  0
  5  4  1  0
  5  9  1  0
  6  5  2  0
  7  2  1  0
  7  8  2  0
 10 11  1  0
 11 12  2  0
 13 11  1  0
 13 14  1  0
 14 15  1  0
 16 15  1  0
 17 16  1  1
 17 18  1  0
 18  7  1  0
 19 20  2  0
 19 17  1  0
 22 21  1  0
 22 23  2  0
 24 22  1  0
 25 24  1  0
 26 25  1  6
 26 27  1  0
 27 19  1  0
 28 26  1  0
 29 28  2  0
 30 28  1  0
M  END
$$$$
