ERQ.pdb
     RDKit          3D

 30 29  0  0  1  0  0  0  0  0999 V2000
   12.2561  -16.7865   19.3267 N   0  0  0  0  0  0  0  0  0  0  0  0
   13.1958  -16.3642   20.3428 C   0  0  1  0  0  0  0  0  0  0  0  0
   14.1568  -15.3486   19.8281 C   0  0  0  0  0  0  0  0  0  0  0  0
   14.2472  -15.3002   18.3245 C   0  0  0  0  0  0  0  0  0  0  0  0
   15.2037  -14.3306   17.7908 C   0  0  0  0  0  0  0  0  0  0  0  0
   14.9034  -13.1945   17.3068 O   0  0  0  0  0  0  0  0  0  0  0  0
   12.4626  -15.8499   21.5645 C   0  0  0  0  0  0  0  0  0  0  0  0
   13.1183  -15.3656   22.5005 O   0  0  0  0  0  0  0  0  0  0  0  0
   16.5722  -14.6588   17.8027 O   0  0  0  0  0  0  0  0  0  0  0  0
    7.7487  -12.3799   17.6249 N   0  0  0  0  0  0  0  0  0  0  0  0
    7.5710  -13.5715   18.3610 C   0  0  0  0  0  0  0  0  0  0  0  0
    8.1262  -14.6688   18.0398 N   0  0  0  0  0  0  0  0  0  0  0  0
    6.7360  -13.5715   19.5176 N   0  0  0  0  0  0  0  0  0  0  0  0
    6.9875  -14.3670   20.6735 C   0  0  0  0  0  0  0  0  0  0  0  0
    8.4488  -14.3492   21.0791 C   0  0  0  0  0  0  0  0  0  0  0  0
    8.7418  -15.2230   22.2354 C   0  0  0  0  0  0  0  0  0  0  0  0
   10.1920  -15.3523   22.6284 C   0  0  2  0  0  0  0  0  0  0  0  0
   11.0527  -15.9226   21.6324 N   0  0  0  0  0  0  0  0  0  0  0  0
   10.2744  -16.1230   23.8780 C   0  0  0  0  0  0  0  0  0  0  0  0
   10.3626  -17.3898   23.9118 O   0  0  0  0  0  0  0  0  0  0  0  0
    8.0874  -15.5471   18.6005 N   0  0  0  0  0  0  0  0  0  0  0  0
   10.8947  -13.5610   29.6190 C   0  0  0  0  0  0  0  0  0  0  0  0
   10.7416  -14.9202   29.9744 O   0  0  0  0  0  0  0  0  0  0  0  0
   10.8069  -15.2675   31.1558 C   0  0  0  0  0  0  0  0  0  0  0  0
   10.5001  -15.8857   28.8492 C   0  0  0  0  0  0  0  0  0  0  0  0
   10.5507  -15.1826   27.5233 C   0  0  1  0  0  0  0  0  0  0  0  0
   10.3112  -16.1421   26.4130 N   0  0  0  0  0  0  0  0  0  0  0  0
   10.2583  -15.4641   25.1211 C   0  0  0  0  0  0  0  0  0  0  0  0
    9.0228  -16.8329   26.5959 O   0  0  0  0  0  0  0  0  0  0  0  0
    8.8252  -17.7973   27.3888 O   0  0  0  0  0  0  0  0  0  0  0  0
  2  1  1  6
  3  2  1  0
  3  4  1  0
  5  4  1  0
  5  9  1  0
  6  5  2  0
  7  2  1  0
  7  8  2  0
 10 11  1  0
 11 12  2  0
 13 11  1  0
 13 14  1  0
 14 15  1  0
 16 15  1  0
 17 16  1  6
 17 18  1  0
 18  7  1  0
 19 20  2  0
 19 17  1  0
 22 21  1  0
 22 23  2  0
 24 22  1  0
 25 24  1  0
 26 25  1  6
 26 27  1  0
 27 19  1  0
 28 26  1  0
 29 28  2  0
 30 28  1  0
M  END
$$$$
