ERQ.pdb
     RDKit          3D

 30 29  0  0  1  0  0  0  0  0999 V2000
   12.6921  -17.9881   19.6350 N   0  0  0  0  0  0  0  0  0  0  0  0
   13.6318  -17.5385   20.6393 C   0  0  1  0  0  0  0  0  0  0  0  0
   14.7080  -16.6884   20.0571 C   0  0  0  0  0  0  0  0  0  0  0  0
   14.3344  -16.0412   18.7484 C   0  0  0  0  0  0  0  0  0  0  0  0
   15.3655  -15.1850   18.1622 C   0  0  0  0  0  0  0  0  0  0  0  0
   16.6145  -15.4184   18.1885 O   0  0  0  0  0  0  0  0  0  0  0  0
   12.9100  -16.8135   21.7565 C   0  0  0  0  0  0  0  0  0  0  0  0
   13.5775  -16.2342   22.6280 O   0  0  0  0  0  0  0  0  0  0  0  0
   14.9681  -14.0020   17.5117 O   0  0  0  0  0  0  0  0  0  0  0  0
    7.7786  -12.1818   20.3640 N   0  0  0  0  0  0  0  0  0  0  0  0
    7.6334  -13.0440   19.2556 C   0  0  0  0  0  0  0  0  0  0  0  0
    7.8160  -12.6620   18.0571 N   0  0  0  0  0  0  0  0  0  0  0  0
    7.2647  -14.4065   19.4618 N   0  0  0  0  0  0  0  0  0  0  0  0
    7.4842  -15.1081   20.6832 C   0  0  0  0  0  0  0  0  0  0  0  0
    8.9449  -15.1125   21.0912 C   0  0  0  0  0  0  0  0  0  0  0  0
    9.2122  -15.9418   22.2859 C   0  0  0  0  0  0  0  0  0  0  0  0
   10.6553  -16.0701   22.7046 C   0  0  2  0  0  0  0  0  0  0  0  0
   11.4974  -16.8001   21.8011 N   0  0  0  0  0  0  0  0  0  0  0  0
   10.7048  -16.6685   24.0469 C   0  0  0  0  0  0  0  0  0  0  0  0
   10.7957  -17.9192   24.2502 O   0  0  0  0  0  0  0  0  0  0  0  0
    7.7400  -13.2722   17.2151 N   0  0  0  0  0  0  0  0  0  0  0  0
   10.6427  -13.3401   29.4236 C   0  0  0  0  0  0  0  0  0  0  0  0
   10.6901  -14.6515   29.9481 O   0  0  0  0  0  0  0  0  0  0  0  0
   10.7244  -14.8353   31.1670 C   0  0  0  0  0  0  0  0  0  0  0  0
   10.6948  -15.7743   28.9502 C   0  0  0  0  0  0  0  0  0  0  0  0
   10.7491  -15.2408   27.5476 C   0  0  1  0  0  0  0  0  0  0  0  0
   10.6781  -16.3521   26.5623 N   0  0  0  0  0  0  0  0  0  0  0  0
   10.6520  -15.8513   25.1911 C   0  0  0  0  0  0  0  0  0  0  0  0
    9.4503  -17.1417   26.7614 O   0  0  0  0  0  0  0  0  0  0  0  0
    8.3666  -16.9643   26.1355 O   0  0  0  0  0  0  0  0  0  0  0  0
  2  1  1  6
  3  2  1  0
  3  4  1  0
  5  4  1  0
  5  9  1  0
  6  5  2  0
  7  2  1  0
  7  8  2  0
 10 11  1  0
 11 12  2  0
 13 11  1  0
 13 14  1  0
 14 15  1  0
 16 15  1  0
 17 16  1  6
 17 18  1  0
 18  7  1  0
 19 20  2  0
 19 17  1  0
 22 21  1  0
 22 23  2  0
 24 22  1  0
 25 24  1  0
 26 25  1  6
 26 27  1  0
 27 19  1  0
 28 26  1  0
 29 28  2  0
 30 28  1  0
M  END
$$$$
