ERQ.pdb
     RDKit          3D

 30 29  0  0  1  0  0  0  0  0999 V2000
   13.2743  -17.4999   11.6270 N   0  0  0  0  0  0  0  0  0  0  0  0
   13.2343  -16.5072   12.6790 C   0  0  1  0  0  0  0  0  0  0  0  0
   11.9823  -16.5936   13.4820 C   0  0  0  0  0  0  0  0  0  0  0  0
   10.7228  -16.5596   12.6550 C   0  0  0  0  0  0  0  0  0  0  0  0
    9.4887  -16.8326   13.3915 C   0  0  0  0  0  0  0  0  0  0  0  0
    9.3823  -16.8650   14.6576 O   0  0  0  0  0  0  0  0  0  0  0  0
   14.4580  -16.6211   13.5646 C   0  0  0  0  0  0  0  0  0  0  0  0
   14.7714  -17.7333   14.0180 O   0  0  0  0  0  0  0  0  0  0  0  0
    8.3112  -17.0828   12.6624 O   0  0  0  0  0  0  0  0  0  0  0  0
   19.5606  -11.4965   12.6115 N   0  0  0  0  0  0  0  0  0  0  0  0
   20.1113  -11.5425   13.9107 C   0  0  0  0  0  0  0  0  0  0  0  0
   20.4051  -10.4974   14.5717 N   0  0  0  0  0  0  0  0  0  0  0  0
   20.3605  -12.8032   14.5299 N   0  0  0  0  0  0  0  0  0  0  0  0
   19.9996  -14.0539   13.9489 C   0  0  0  0  0  0  0  0  0  0  0  0
   18.8782  -14.7393   14.7059 C   0  0  0  0  0  0  0  0  0  0  0  0
   17.5751  -14.6607   14.0114 C   0  0  0  0  0  0  0  0  0  0  0  0
   16.4294  -15.4066   14.6479 C   0  0  2  0  0  0  0  0  0  0  0  0
   15.2278  -15.4751   13.8670 N   0  0  0  0  0  0  0  0  0  0  0  0
   16.1517  -14.8099   15.9629 C   0  0  0  0  0  0  0  0  0  0  0  0
   16.3053  -13.5743   16.2148 O   0  0  0  0  0  0  0  0  0  0  0  0
   20.8051  -10.4895   15.5345 N   0  0  0  0  0  0  0  0  0  0  0  0
   18.7620  -19.3620   16.1532 C   0  0  0  0  0  0  0  0  0  0  0  0
   19.0148  -19.1831   17.5321 O   0  0  0  0  0  0  0  0  0  0  0  0
   19.8710  -19.8626   18.1030 C   0  0  0  0  0  0  0  0  0  0  0  0
   18.1949  -18.1392   18.2354 C   0  0  0  0  0  0  0  0  0  0  0  0
   17.4046  -17.3281   17.2491 C   0  0  2  0  0  0  0  0  0  0  0  0
   16.5602  -16.3269   17.9528 N   0  0  0  0  0  0  0  0  0  0  0  0
   15.6908  -15.6115   17.0235 C   0  0  0  0  0  0  0  0  0  0  0  0
   17.4021  -15.3213   18.6241 O   0  0  0  0  0  0  0  0  0  0  0  0
   17.9917  -14.3666   18.0423 O   0  0  0  0  0  0  0  0  0  0  0  0
  2  1  1  6
  3  2  1  0
  3  4  1  0
  5  4  1  0
  5  9  1  0
  6  5  2  0
  7  2  1  0
  7  8  2  0
 10 11  1  0
 11 12  2  0
 13 11  1  0
 13 14  1  0
 14 15  1  0
 16 15  1  0
 17 16  1  6
 17 18  1  0
 18  7  1  0
 19 20  2  0
 19 17  1  0
 22 21  1  0
 22 23  2  0
 24 22  1  0
 25 24  1  0
 26 25  1  1
 26 27  1  0
 27 19  1  0
 28 26  1  0
 29 28  2  0
 30 28  1  0
M  END
$$$$
