ERQ.pdb
     RDKit          3D

 30 29  0  0  1  0  0  0  0  0999 V2000
   17.1350  -11.8063   15.1151 N   0  0  0  0  0  0  0  0  0  0  0  0
   16.2731  -12.9472   15.3365 C   0  0  1  0  0  0  0  0  0  0  0  0
   16.7256  -14.1457   14.5758 C   0  0  0  0  0  0  0  0  0  0  0  0
   18.0630  -14.6811   15.0187 C   0  0  0  0  0  0  0  0  0  0  0  0
   18.6007  -15.7656   14.1975 C   0  0  0  0  0  0  0  0  0  0  0  0
   18.0467  -16.2418   13.1575 O   0  0  0  0  0  0  0  0  0  0  0  0
   16.1630  -13.2514   16.8164 C   0  0  0  0  0  0  0  0  0  0  0  0
   17.1657  -13.1150   17.5352 O   0  0  0  0  0  0  0  0  0  0  0  0
   19.8285  -16.3452   14.5680 O   0  0  0  0  0  0  0  0  0  0  0  0
    9.7319  -16.8025   16.2866 N   0  0  0  0  0  0  0  0  0  0  0  0
   10.6523  -17.5193   17.0818 C   0  0  0  0  0  0  0  0  0  0  0  0
   11.3562  -18.4755   16.6282 N   0  0  0  0  0  0  0  0  0  0  0  0
   10.8168  -17.1772   18.4569 N   0  0  0  0  0  0  0  0  0  0  0  0
   11.2654  -15.9005   18.9051 C   0  0  0  0  0  0  0  0  0  0  0  0
   12.7297  -15.6609   18.5911 C   0  0  0  0  0  0  0  0  0  0  0  0
   13.2107  -14.3359   19.0379 C   0  0  0  0  0  0  0  0  0  0  0  0
   14.6509  -14.0073   18.7340 C   0  0  2  0  0  0  0  0  0  0  0  0
   14.9345  -13.6838   17.3654 N   0  0  0  0  0  0  0  0  0  0  0  0
   15.4936  -15.1266   19.1805 C   0  0  0  0  0  0  0  0  0  0  0  0
   15.4507  -16.2838   18.6581 O   0  0  0  0  0  0  0  0  0  0  0  0
   12.0820  -18.9943   17.1679 N   0  0  0  0  0  0  0  0  0  0  0  0
   21.2420  -15.5845   18.0286 C   0  0  0  0  0  0  0  0  0  0  0  0
   20.3372  -16.3757   18.7719 O   0  0  0  0  0  0  0  0  0  0  0  0
   20.6691  -17.4938   19.1724 C   0  0  0  0  0  0  0  0  0  0  0  0
   18.9833  -15.7803   19.0346 C   0  0  0  0  0  0  0  0  0  0  0  0
   18.6979  -15.7343   20.5082 C   0  0  2  0  0  0  0  0  0  0  0  0
   17.2603  -16.0077   20.7712 N   0  0  0  0  0  0  0  0  0  0  0  0
   16.4073  -14.9506   20.2359 C   0  0  0  0  0  0  0  0  0  0  0  0
   17.0051  -16.0818   22.2204 O   0  0  0  0  0  0  0  0  0  0  0  0
   17.3885  -17.0202   22.9754 O   0  0  0  0  0  0  0  0  0  0  0  0
  2  1  1  1
  3  2  1  0
  3  4  1  0
  5  4  1  0
  5  9  1  0
  6  5  2  0
  7  2  1  0
  7  8  2  0
 10 11  1  0
 11 12  2  0
 13 11  1  0
 13 14  1  0
 14 15  1  0
 16 15  1  0
 17 16  1  6
 17 18  1  0
 18  7  1  0
 19 20  2  0
 19 17  1  0
 22 21  1  0
 22 23  2  0
 24 22  1  0
 25 24  1  0
 26 25  1  6
 26 27  1  0
 27 19  1  0
 28 26  1  0
 29 28  2  0
 30 28  1  0
M  END
$$$$
