ERQ.pdb
     RDKit          3D

 30 29  0  0  1  0  0  0  0  0999 V2000
    9.0751  -20.1816   19.3863 N   0  0  0  0  0  0  0  0  0  0  0  0
    9.8772  -19.2540   18.6181 C   0  0  1  0  0  0  0  0  0  0  0  0
    9.2953  -18.9939   17.2715 C   0  0  0  0  0  0  0  0  0  0  0  0
    8.1346  -19.8903   16.9242 C   0  0  0  0  0  0  0  0  0  0  0  0
    7.5619  -19.6780   15.5951 C   0  0  0  0  0  0  0  0  0  0  0  0
    7.9657  -18.8173   14.7516 O   0  0  0  0  0  0  0  0  0  0  0  0
   10.0762  -17.9622   19.3839 C   0  0  0  0  0  0  0  0  0  0  0  0
   10.7657  -17.0626   18.8780 O   0  0  0  0  0  0  0  0  0  0  0  0
    6.4756  -20.4781   15.1947 O   0  0  0  0  0  0  0  0  0  0  0  0
    7.7546  -12.3181   17.6237 N   0  0  0  0  0  0  0  0  0  0  0  0
    8.0516  -12.3521   19.0035 C   0  0  0  0  0  0  0  0  0  0  0  0
    9.0302  -11.7210   19.5132 N   0  0  0  0  0  0  0  0  0  0  0  0
    7.2355  -13.1217   19.8848 N   0  0  0  0  0  0  0  0  0  0  0  0
    7.4910  -14.4862   20.2084 C   0  0  0  0  0  0  0  0  0  0  0  0
    8.0177  -14.6551   21.6206 C   0  0  0  0  0  0  0  0  0  0  0  0
    8.2718  -16.0665   21.9813 C   0  0  0  0  0  0  0  0  0  0  0  0
    9.5842  -16.6506   21.5223 C   0  0  2  0  0  0  0  0  0  0  0  0
    9.4833  -17.7891   20.6552 N   0  0  0  0  0  0  0  0  0  0  0  0
   10.3931  -16.9787   22.7056 C   0  0  0  0  0  0  0  0  0  0  0  0
   10.1029  -17.9176   23.5106 O   0  0  0  0  0  0  0  0  0  0  0  0
    9.3030  -11.7489   20.5191 N   0  0  0  0  0  0  0  0  0  0  0  0
   16.2123  -14.9213   22.0497 C   0  0  0  0  0  0  0  0  0  0  0  0
   16.4553  -15.9532   22.9843 O   0  0  0  0  0  0  0  0  0  0  0  0
   17.6032  -16.1911   23.3669 C   0  0  0  0  0  0  0  0  0  0  0  0
   15.2561  -16.7183   23.4671 C   0  0  0  0  0  0  0  0  0  0  0  0
   13.9860  -16.0802   22.9824 C   0  0  2  0  0  0  0  0  0  0  0  0
   12.8017  -16.8269   23.4829 N   0  0  0  0  0  0  0  0  0  0  0  0
   11.5552  -16.2413   22.9981 C   0  0  0  0  0  0  0  0  0  0  0  0
   12.7548  -16.7949   24.9551 O   0  0  0  0  0  0  0  0  0  0  0  0
   12.0638  -15.9876   25.6395 O   0  0  0  0  0  0  0  0  0  0  0  0
  2  1  1  1
  3  2  1  0
  3  4  1  0
  5  4  1  0
  5  9  1  0
  6  5  2  0
  7  2  1  0
  7  8  2  0
 10 11  1  0
 11 12  2  0
 13 11  1  0
 13 14  1  0
 14 15  1  0
 16 15  1  0
 17 16  1  1
 17 18  1  0
 18  7  1  0
 19 20  2  0
 19 17  1  0
 22 21  1  0
 22 23  2  0
 24 22  1  0
 25 24  1  0
 26 25  1  6
 26 27  1  0
 27 19  1  0
 28 26  1  0
 29 28  2  0
 30 28  1  0
M  END
$$$$
