ERQ.pdb
     RDKit          3D

 30 29  0  0  1  0  0  0  0  0999 V2000
   11.0203  -16.5423   19.0844 N   0  0  0  0  0  0  0  0  0  0  0  0
   10.6145  -17.6107   19.9718 C   0  0  1  0  0  0  0  0  0  0  0  0
   11.6683  -18.6551   20.1077 C   0  0  0  0  0  0  0  0  0  0  0  0
   13.0565  -18.1684   19.7796 C   0  0  0  0  0  0  0  0  0  0  0  0
   14.1094  -19.1786   19.8832 C   0  0  0  0  0  0  0  0  0  0  0  0
   14.8092  -19.4048   20.9198 O   0  0  0  0  0  0  0  0  0  0  0  0
   10.2195  -17.0568   21.3253 C   0  0  0  0  0  0  0  0  0  0  0  0
   10.7696  -16.0229   21.7365 O   0  0  0  0  0  0  0  0  0  0  0  0
   14.3893  -19.9767   18.7583 O   0  0  0  0  0  0  0  0  0  0  0  0
    4.7386  -21.8992   22.3593 N   0  0  0  0  0  0  0  0  0  0  0  0
    5.7101  -22.3545   23.2770 C   0  0  0  0  0  0  0  0  0  0  0  0
    6.2005  -23.5264   23.2362 N   0  0  0  0  0  0  0  0  0  0  0  0
    6.1766  -21.4825   24.3051 N   0  0  0  0  0  0  0  0  0  0  0  0
    6.1131  -20.0607   24.2242 C   0  0  0  0  0  0  0  0  0  0  0  0
    7.4535  -19.4425   23.8754 C   0  0  0  0  0  0  0  0  0  0  0  0
    7.4027  -17.9688   23.7648 C   0  0  0  0  0  0  0  0  0  0  0  0
    8.6812  -17.2822   23.3547 C   0  0  2  0  0  0  0  0  0  0  0  0
    9.2384  -17.7114   22.1042 N   0  0  0  0  0  0  0  0  0  0  0  0
    9.6670  -17.4382   24.4346 C   0  0  0  0  0  0  0  0  0  0  0  0
   10.5655  -18.3362   24.4346 O   0  0  0  0  0  0  0  0  0  0  0  0
    6.9048  -23.9053   23.9052 N   0  0  0  0  0  0  0  0  0  0  0  0
   10.4242  -13.1605   28.9277 C   0  0  0  0  0  0  0  0  0  0  0  0
    9.1897  -13.8328   28.7816 O   0  0  0  0  0  0  0  0  0  0  0  0
    8.1647  -13.3733   29.2905 C   0  0  0  0  0  0  0  0  0  0  0  0
    9.2089  -15.1076   27.9872 C   0  0  0  0  0  0  0  0  0  0  0  0
   10.5849  -15.3816   27.4520 C   0  0  1  0  0  0  0  0  0  0  0  0
   10.5952  -16.6355   26.6531 N   0  0  0  0  0  0  0  0  0  0  0  0
    9.6502  -16.5706   25.5422 C   0  0  0  0  0  0  0  0  0  0  0  0
   10.2064  -17.7844   27.4896 O   0  0  0  0  0  0  0  0  0  0  0  0
    9.1241  -18.4276   27.3773 O   0  0  0  0  0  0  0  0  0  0  0  0
  2  1  1  6
  3  2  1  0
  3  4  1  0
  5  4  1  0
  5  9  1  0
  6  5  2  0
  7  2  1  0
  7  8  2  0
 10 11  1  0
 11 12  2  0
 13 11  1  0
 13 14  1  0
 14 15  1  0
 16 15  1  0
 17 16  1  1
 17 18  1  0
 18  7  1  0
 19 20  2  0
 19 17  1  0
 22 21  1  0
 22 23  2  0
 24 22  1  0
 25 24  1  0
 26 25  1  6
 26 27  1  0
 27 19  1  0
 28 26  1  0
 29 28  2  0
 30 28  1  0
M  END
$$$$
