ERQ.pdb
     RDKit          3D

 30 29  0  0  1  0  0  0  0  0999 V2000
   12.8260  -15.6363   18.6487 N   0  0  0  0  0  0  0  0  0  0  0  0
   12.2427  -16.5845   19.5731 C   0  0  1  0  0  0  0  0  0  0  0  0
   13.2522  -17.5457   20.0992 C   0  0  0  0  0  0  0  0  0  0  0  0
   13.9138  -18.3809   19.0334 C   0  0  0  0  0  0  0  0  0  0  0  0
   14.8217  -19.4151   19.5292 C   0  0  0  0  0  0  0  0  0  0  0  0
   14.5057  -20.3408   20.3407 O   0  0  0  0  0  0  0  0  0  0  0  0
   11.5387  -15.8616   20.7030 C   0  0  0  0  0  0  0  0  0  0  0  0
   12.1855  -15.0691   21.4060 O   0  0  0  0  0  0  0  0  0  0  0  0
   16.1579  -19.4057   19.0874 O   0  0  0  0  0  0  0  0  0  0  0  0
    8.3783  -12.1879   18.5237 N   0  0  0  0  0  0  0  0  0  0  0  0
    8.1698  -13.5820   18.4447 C   0  0  0  0  0  0  0  0  0  0  0  0
    8.3329  -14.2430   17.3714 N   0  0  0  0  0  0  0  0  0  0  0  0
    7.7562  -14.3030   19.6040 N   0  0  0  0  0  0  0  0  0  0  0  0
    7.5084  -13.6918   20.8678 C   0  0  0  0  0  0  0  0  0  0  0  0
    7.0520  -14.6920   21.9125 C   0  0  0  0  0  0  0  0  0  0  0  0
    7.9076  -15.8964   21.9769 C   0  0  0  0  0  0  0  0  0  0  0  0
    9.3934  -15.6594   22.0785 C   0  0  2  0  0  0  0  0  0  0  0  0
   10.1657  -16.0898   20.9486 N   0  0  0  0  0  0  0  0  0  0  0  0
    9.8886  -16.2946   23.3087 C   0  0  0  0  0  0  0  0  0  0  0  0
   10.4396  -17.4391   23.3298 O   0  0  0  0  0  0  0  0  0  0  0  0
    8.2791  -15.2813   17.2926 N   0  0  0  0  0  0  0  0  0  0  0  0
    9.4336  -13.7469   29.0834 C   0  0  0  0  0  0  0  0  0  0  0  0
   10.3066  -14.8241   29.3569 O   0  0  0  0  0  0  0  0  0  0  0  0
   10.7426  -15.0001   30.4969 C   0  0  0  0  0  0  0  0  0  0  0  0
   10.6570  -15.7153   28.1995 C   0  0  0  0  0  0  0  0  0  0  0  0
   10.0388  -15.2069   26.9289 C   0  0  2  0  0  0  0  0  0  0  0  0
   10.3337  -16.1273   25.7991 N   0  0  0  0  0  0  0  0  0  0  0  0
    9.7665  -15.6367   24.5464 C   0  0  0  0  0  0  0  0  0  0  0  0
    9.7512  -17.4571   26.0501 O   0  0  0  0  0  0  0  0  0  0  0  0
    8.5828  -17.8089   25.7205 O   0  0  0  0  0  0  0  0  0  0  0  0
  2  1  1  6
  3  2  1  0
  3  4  1  0
  5  4  1  0
  5  9  1  0
  6  5  2  0
  7  2  1  0
  7  8  2  0
 10 11  1  0
 11 12  2  0
 13 11  1  0
 13 14  1  0
 14 15  1  0
 16 15  1  0
 17 16  1  6
 17 18  1  0
 18  7  1  0
 19 20  2  0
 19 17  1  0
 22 21  1  0
 22 23  2  0
 24 22  1  0
 25 24  1  0
 26 25  1  6
 26 27  1  0
 27 19  1  0
 28 26  1  0
 29 28  2  0
 30 28  1  0
M  END
$$$$
