SNE.pdb
     RDKit          3D

 24 23  0  0  1  0  0  0  0  0999 V2000
    9.6672  -21.0067   20.0759 O   0  0  0  0  0  0  0  0  0  0  0  0
    8.3880  -20.4772   19.8944 C   0  0  0  0  0  0  0  0  0  0  0  0
    8.3869  -18.9817   20.0399 C   0  0  2  0  0  0  0  0  0  0  0  0
    9.1842  -18.3543   19.0358 N   0  0  0  0  0  0  0  0  0  0  0  0
    8.8617  -18.6592   21.4223 C   0  0  0  0  0  0  0  0  0  0  0  0
   10.0286  -18.2464   21.6455 O   0  0  0  0  0  0  0  0  0  0  0  0
    6.4763  -18.0231   26.9541 N   0  0  0  0  0  0  0  0  0  0  0  0
    7.3357  -17.5322   25.9459 C   0  0  0  0  0  0  0  0  0  0  0  0
    8.2441  -16.7345   26.2670 O   0  0  0  0  0  0  0  0  0  0  0  0
    7.1719  -17.9430   24.5609 C   0  0  0  0  0  0  0  0  0  0  0  0
    8.4713  -18.3824   23.8694 C   0  0  2  0  0  0  0  0  0  0  0  0
    8.0210  -18.8023   22.5505 N   0  0  0  0  0  0  0  0  0  0  0  0
    9.1636  -19.4582   24.5830 C   0  0  0  0  0  0  0  0  0  0  0  0
    8.6537  -20.6036   24.6532 O   0  0  0  0  0  0  0  0  0  0  0  0
   10.4173  -19.2866   25.2200 N   0  0  0  0  0  0  0  0  0  0  0  0
   10.9717  -20.3385   26.0012 C   0  0  1  0  0  0  0  0  0  0  0  0
   12.4669  -20.5039   25.7025 C   0  0  0  0  0  0  0  0  0  0  0  0
   13.1761  -19.1705   25.7886 C   0  0  0  0  0  0  0  0  0  0  0  0
   14.3005  -19.1408   24.8194 C   0  0  0  0  0  0  0  0  0  0  0  0
   14.2912  -18.3977   23.7879 O   0  0  0  0  0  0  0  0  0  0  0  0
   10.8296  -20.2174   27.4477 C   0  0  0  0  0  0  0  0  0  0  0  0
   11.2261  -21.1122   28.3984 O   0  0  0  0  0  0  0  0  0  0  0  0
   15.4422  -19.9322   24.9842 O   0  0  0  0  0  0  0  0  0  0  0  0
   10.2702  -19.1519   27.8697 O   0  0  0  0  0  0  0  0  0  0  0  0
  1  2  1  0
  2  3  1  0
  3  4  1  6
  5  3  1  0
  6  5  2  0
  7  8  1  0
  8 10  1  0
  9  8  2  0
 11 10  1  1
 11 13  1  0
 11 12  1  0
 12  5  1  0
 13 15  1  0
 14 13  2  0
 15 16  1  0
 16 21  1  0
 16 17  1  1
 18 17  1  0
 19 18  1  0
 20 19  2  0
 21 24  2  0
 21 22  1  0
 23 19  1  0
M  END
$$$$
