SNE.pdb
     RDKit          3D

 24 23  0  0  1  0  0  0  0  0999 V2000
    8.0718  -12.9854   20.6306 O   0  0  0  0  0  0  0  0  0  0  0  0
    8.4718  -12.2531   19.5110 C   0  0  0  0  0  0  0  0  0  0  0  0
    8.5952  -13.1297   18.2968 C   0  0  2  0  0  0  0  0  0  0  0  0
    7.3695  -13.8002   18.0045 N   0  0  0  0  0  0  0  0  0  0  0  0
    9.7196  -14.0874   18.5401 C   0  0  0  0  0  0  0  0  0  0  0  0
    9.5147  -15.2942   18.8293 O   0  0  0  0  0  0  0  0  0  0  0  0
   14.2672  -16.4485   18.1552 N   0  0  0  0  0  0  0  0  0  0  0  0
   14.1292  -15.3624   17.2624 C   0  0  0  0  0  0  0  0  0  0  0  0
   14.9596  -15.2376   16.3353 O   0  0  0  0  0  0  0  0  0  0  0  0
   13.0449  -14.4056   17.4136 C   0  0  0  0  0  0  0  0  0  0  0  0
   12.1471  -14.6489   18.6360 C   0  0  2  0  0  0  0  0  0  0  0  0
   11.0725  -13.6837   18.4572 N   0  0  0  0  0  0  0  0  0  0  0  0
   12.8493  -14.4618   19.9079 C   0  0  0  0  0  0  0  0  0  0  0  0
   13.5185  -13.4197   20.1157 O   0  0  0  0  0  0  0  0  0  0  0  0
   12.8201  -15.4116   20.9585 N   0  0  0  0  0  0  0  0  0  0  0  0
   13.5693  -15.1860   22.1468 C   0  0  1  0  0  0  0  0  0  0  0  0
   12.7999  -15.6880   23.3748 C   0  0  0  0  0  0  0  0  0  0  0  0
   12.6417  -17.1916   23.3241 C   0  0  0  0  0  0  0  0  0  0  0  0
   11.9088  -17.6563   24.5288 C   0  0  0  0  0  0  0  0  0  0  0  0
   11.5554  -16.8646   25.4588 O   0  0  0  0  0  0  0  0  0  0  0  0
   14.9008  -15.7792   22.1973 C   0  0  0  0  0  0  0  0  0  0  0  0
   15.4281  -16.7085   21.3488 O   0  0  0  0  0  0  0  0  0  0  0  0
   11.5616  -18.9989   24.7133 O   0  0  0  0  0  0  0  0  0  0  0  0
   15.6568  -15.3820   23.1444 O   0  0  0  0  0  0  0  0  0  0  0  0
  1  2  1  0
  2  3  1  0
  3  4  1  1
  5  3  1  0
  6  5  2  0
  7  8  1  0
  8 10  1  0
  9  8  2  0
 11 10  1  6
 11 13  1  0
 11 12  1  0
 12  5  1  0
 13 15  1  0
 14 13  2  0
 15 16  1  0
 16 21  1  0
 16 17  1  1
 18 17  1  0
 19 18  1  0
 20 19  2  0
 21 24  2  0
 21 22  1  0
 23 19  1  0
M  END
$$$$
