SNE.pdb
     RDKit          3D

 24 23  0  0  1  0  0  0  0  0999 V2000
   10.8412  -15.6318   15.4210 O   0  0  0  0  0  0  0  0  0  0  0  0
   10.1821  -16.2739   16.4712 C   0  0  0  0  0  0  0  0  0  0  0  0
   10.3085  -15.5009   17.7535 C   0  0  2  0  0  0  0  0  0  0  0  0
   10.0929  -14.1046   17.5500 N   0  0  0  0  0  0  0  0  0  0  0  0
   11.6621  -15.7868   18.3250 C   0  0  0  0  0  0  0  0  0  0  0  0
   12.0633  -16.9612   18.5295 O   0  0  0  0  0  0  0  0  0  0  0  0
   15.1189  -13.3979   16.3037 N   0  0  0  0  0  0  0  0  0  0  0  0
   15.2983  -14.2919   17.3827 C   0  0  0  0  0  0  0  0  0  0  0  0
   15.9166  -15.3604   17.1811 O   0  0  0  0  0  0  0  0  0  0  0  0
   14.7765  -13.9810   18.7038 C   0  0  0  0  0  0  0  0  0  0  0  0
   13.8416  -15.0512   19.2870 C   0  0  2  0  0  0  0  0  0  0  0  0
   12.5609  -14.7492   18.6651 N   0  0  0  0  0  0  0  0  0  0  0  0
   13.7668  -15.0101   20.7494 C   0  0  0  0  0  0  0  0  0  0  0  0
   12.7872  -14.4695   21.3195 O   0  0  0  0  0  0  0  0  0  0  0  0
   14.7611  -15.5624   21.5940 N   0  0  0  0  0  0  0  0  0  0  0  0
   14.5224  -15.6888   22.9908 C   0  0  1  0  0  0  0  0  0  0  0  0
   13.2241  -16.4630   23.2499 C   0  0  0  0  0  0  0  0  0  0  0  0
   13.0274  -16.6885   24.7328 C   0  0  0  0  0  0  0  0  0  0  0  0
   11.7678  -17.4412   24.9593 C   0  0  0  0  0  0  0  0  0  0  0  0
   10.7949  -16.9581   25.6199 O   0  0  0  0  0  0  0  0  0  0  0  0
   15.5728  -16.3300   23.7736 C   0  0  0  0  0  0  0  0  0  0  0  0
   15.9025  -16.0883   25.0754 O   0  0  0  0  0  0  0  0  0  0  0  0
   11.5756  -18.7328   24.4573 O   0  0  0  0  0  0  0  0  0  0  0  0
   16.2605  -17.2180   23.1697 O   0  0  0  0  0  0  0  0  0  0  0  0
  1  2  1  0
  2  3  1  0
  3  4  1  6
  5  3  1  0
  6  5  2  0
  7  8  1  0
  8 10  1  0
  9  8  2  0
 11 10  1  6
 11 13  1  0
 11 12  1  0
 12  5  1  0
 13 15  1  0
 14 13  2  0
 15 16  1  0
 16 21  1  0
 16 17  1  6
 18 17  1  0
 19 18  1  0
 20 19  2  0
 21 24  2  0
 21 22  1  0
 23 19  1  0
M  END
$$$$
