SNE.pdb
     RDKit          3D

 24 23  0  0  1  0  0  0  0  0999 V2000
    6.8703  -21.6607   18.2350 O   0  0  0  0  0  0  0  0  0  0  0  0
    6.2171  -22.1795   19.3548 C   0  0  0  0  0  0  0  0  0  0  0  0
    4.8499  -21.5788   19.5204 C   0  0  2  0  0  0  0  0  0  0  0  0
    4.7858  -20.2588   18.9811 N   0  0  0  0  0  0  0  0  0  0  0  0
    4.5129  -21.6110   20.9785 C   0  0  0  0  0  0  0  0  0  0  0  0
    4.5311  -20.5729   21.6885 O   0  0  0  0  0  0  0  0  0  0  0  0
    0.5413  -23.6801   21.7453 N   0  0  0  0  0  0  0  0  0  0  0  0
    1.3408  -23.1598   22.7874 C   0  0  0  0  0  0  0  0  0  0  0  0
    0.9293  -22.1617   23.4191 O   0  0  0  0  0  0  0  0  0  0  0  0
    2.6176  -23.7689   23.1232 C   0  0  0  0  0  0  0  0  0  0  0  0
    3.8178  -22.8131   23.0495 C   0  0  2  0  0  0  0  0  0  0  0  0
    4.1563  -22.8123   21.6339 N   0  0  0  0  0  0  0  0  0  0  0  0
    4.9427  -23.2416   23.8842 C   0  0  0  0  0  0  0  0  0  0  0  0
    5.7544  -24.1017   23.4620 O   0  0  0  0  0  0  0  0  0  0  0  0
    5.1861  -22.7295   25.1824 N   0  0  0  0  0  0  0  0  0  0  0  0
    6.3530  -23.1191   25.8971 C   0  0  1  0  0  0  0  0  0  0  0  0
    6.8707  -21.9615   26.7597 C   0  0  0  0  0  0  0  0  0  0  0  0
    8.1519  -22.3543   27.4617 C   0  0  0  0  0  0  0  0  0  0  0  0
    8.6375  -21.2180   28.2846 C   0  0  0  0  0  0  0  0  0  0  0  0
    9.6781  -21.2984   29.0107 O   0  0  0  0  0  0  0  0  0  0  0  0
    6.2237  -24.2831   26.7663 C   0  0  0  0  0  0  0  0  0  0  0  0
    5.1731  -24.6010   27.5769 O   0  0  0  0  0  0  0  0  0  0  0  0
    7.9761  -19.9855   28.3105 O   0  0  0  0  0  0  0  0  0  0  0  0
    7.2067  -25.0954   26.7670 O   0  0  0  0  0  0  0  0  0  0  0  0
  1  2  1  0
  2  3  1  0
  3  4  1  1
  5  3  1  0
  6  5  2  0
  7  8  1  0
  8 10  1  0
  9  8  2  0
 11 10  1  6
 11 13  1  0
 11 12  1  0
 12  5  1  0
 13 15  1  0
 14 13  2  0
 15 16  1  0
 16 21  1  0
 16 17  1  1
 18 17  1  0
 19 18  1  0
 20 19  2  0
 21 24  2  0
 21 22  1  0
 23 19  1  0
M  END
$$$$
