SNE.pdb
     RDKit          3D

 24 23  0  0  1  0  0  0  0  0999 V2000
    3.5544  -20.2988   20.6637 O   0  0  0  0  0  0  0  0  0  0  0  0
    4.0309  -19.1198   21.2404 C   0  0  0  0  0  0  0  0  0  0  0  0
    5.5126  -19.1860   21.4811 C   0  0  2  0  0  0  0  0  0  0  0  0
    6.0616  -20.4301   21.0470 N   0  0  0  0  0  0  0  0  0  0  0  0
    5.7475  -18.9422   22.9391 C   0  0  0  0  0  0  0  0  0  0  0  0
    5.3689  -17.8853   23.5063 O   0  0  0  0  0  0  0  0  0  0  0  0
    7.2190  -19.6022   27.9099 N   0  0  0  0  0  0  0  0  0  0  0  0
    6.3933  -20.6146   27.3721 C   0  0  0  0  0  0  0  0  0  0  0  0
    5.9173  -21.4752   28.1450 O   0  0  0  0  0  0  0  0  0  0  0  0
    6.0993  -20.6598   25.9489 C   0  0  0  0  0  0  0  0  0  0  0  0
    6.7812  -19.5587   25.1228 C   0  0  2  0  0  0  0  0  0  0  0  0
    6.4085  -19.8893   23.7553 N   0  0  0  0  0  0  0  0  0  0  0  0
    8.2344  -19.5243   25.3044 C   0  0  0  0  0  0  0  0  0  0  0  0
    8.9396  -20.5062   24.9643 O   0  0  0  0  0  0  0  0  0  0  0  0
    8.9224  -18.4154   25.8555 N   0  0  0  0  0  0  0  0  0  0  0  0
   10.3143  -18.5056   26.1362 C   0  0  1  0  0  0  0  0  0  0  0  0
   11.0752  -17.3489   25.4766 C   0  0  0  0  0  0  0  0  0  0  0  0
   10.8098  -17.3197   23.9875 C   0  0  0  0  0  0  0  0  0  0  0  0
   11.6445  -16.2682   23.3534 C   0  0  0  0  0  0  0  0  0  0  0  0
   11.2111  -15.0926   23.1373 O   0  0  0  0  0  0  0  0  0  0  0  0
   10.6927  -18.5259   27.5446 C   0  0  0  0  0  0  0  0  0  0  0  0
   11.9383  -18.7201   28.0666 O   0  0  0  0  0  0  0  0  0  0  0  0
   12.9634  -16.5092   22.9541 O   0  0  0  0  0  0  0  0  0  0  0  0
    9.7491  -18.3407   28.3823 O   0  0  0  0  0  0  0  0  0  0  0  0
  1  2  1  0
  2  3  1  0
  3  4  1  1
  5  3  1  0
  6  5  2  0
  7  8  1  0
  8 10  1  0
  9  8  2  0
 11 10  1  1
 11 13  1  0
 11 12  1  0
 12  5  1  0
 13 15  1  0
 14 13  2  0
 15 16  1  0
 16 21  1  0
 16 17  1  6
 18 17  1  0
 19 18  1  0
 20 19  2  0
 21 24  2  0
 21 22  1  0
 23 19  1  0
M  END
$$$$
