SNE.pdb
     RDKit          3D

 24 23  0  0  1  0  0  0  0  0999 V2000
    7.8539  -14.2656   20.8477 O   0  0  0  0  0  0  0  0  0  0  0  0
    8.2839  -13.0064   20.4243 C   0  0  0  0  0  0  0  0  0  0  0  0
    8.5657  -12.9899   18.9484 C   0  0  2  0  0  0  0  0  0  0  0  0
    7.3980  -13.2939   18.1859 N   0  0  0  0  0  0  0  0  0  0  0  0
    9.6789  -13.9560   18.6875 C   0  0  0  0  0  0  0  0  0  0  0  0
    9.5585  -14.9047   17.8706 O   0  0  0  0  0  0  0  0  0  0  0  0
   15.6281  -14.4664   19.2639 N   0  0  0  0  0  0  0  0  0  0  0  0
   14.4540  -14.4693   18.4783 C   0  0  0  0  0  0  0  0  0  0  0  0
   14.4793  -15.0339   17.3624 O   0  0  0  0  0  0  0  0  0  0  0  0
   13.2373  -13.8303   18.9529 C   0  0  0  0  0  0  0  0  0  0  0  0
   12.0157  -14.7590   19.0217 C   0  0  2  0  0  0  0  0  0  0  0  0
   10.9254  -13.8515   19.3473 N   0  0  0  0  0  0  0  0  0  0  0  0
   12.1617  -15.8236   20.0173 C   0  0  0  0  0  0  0  0  0  0  0  0
   13.1013  -16.6519   19.9271 O   0  0  0  0  0  0  0  0  0  0  0  0
   11.2831  -15.9849   21.1167 N   0  0  0  0  0  0  0  0  0  0  0  0
   11.7037  -16.7081   22.2675 C   0  0  1  0  0  0  0  0  0  0  0  0
   13.2313  -16.8415   22.2941 C   0  0  0  0  0  0  0  0  0  0  0  0
   13.8505  -15.6986   23.0680 C   0  0  0  0  0  0  0  0  0  0  0  0
   15.3196  -15.8950   23.1561 C   0  0  0  0  0  0  0  0  0  0  0  0
   15.9708  -15.6930   24.2292 O   0  0  0  0  0  0  0  0  0  0  0  0
   11.2932  -16.1691   23.5591 C   0  0  0  0  0  0  0  0  0  0  0  0
   10.6183  -15.0074   23.7970 O   0  0  0  0  0  0  0  0  0  0  0  0
   16.0783  -16.3159   22.0587 O   0  0  0  0  0  0  0  0  0  0  0  0
   11.6017  -16.8656   24.5819 O   0  0  0  0  0  0  0  0  0  0  0  0
  1  2  1  0
  2  3  1  0
  3  4  1  6
  5  3  1  0
  6  5  2  0
  7  8  1  0
  8 10  1  0
  9  8  2  0
 11 10  1  1
 11 13  1  0
 11 12  1  0
 12  5  1  0
 13 15  1  0
 14 13  2  0
 15 16  1  0
 16 21  1  0
 16 17  1  1
 18 17  1  0
 19 18  1  0
 20 19  2  0
 21 24  2  0
 21 22  1  0
 23 19  1  0
M  END
$$$$
