SNE.pdb
     RDKit          3D

 24 23  0  0  1  0  0  0  0  0999 V2000
   11.3859  -17.8763   15.0201 O   0  0  0  0  0  0  0  0  0  0  0  0
   10.2732  -17.4714   14.2801 C   0  0  0  0  0  0  0  0  0  0  0  0
   10.3162  -15.9987   13.9850 C   0  0  2  0  0  0  0  0  0  0  0  0
   11.3607  -15.6758   13.0673 N   0  0  0  0  0  0  0  0  0  0  0  0
   10.4659  -15.2782   15.2885 C   0  0  0  0  0  0  0  0  0  0  0  0
   11.5677  -14.7997   15.6614 O   0  0  0  0  0  0  0  0  0  0  0  0
    9.0644  -12.5887   19.5514 N   0  0  0  0  0  0  0  0  0  0  0  0
    7.9458  -13.2613   19.0107 C   0  0  0  0  0  0  0  0  0  0  0  0
    6.8107  -13.0029   19.4681 O   0  0  0  0  0  0  0  0  0  0  0  0
    8.1054  -14.2356   17.9433 C   0  0  0  0  0  0  0  0  0  0  0  0
    9.5440  -14.3816   17.4247 C   0  0  2  0  0  0  0  0  0  0  0  0
    9.3742  -15.0982   16.1693 N   0  0  0  0  0  0  0  0  0  0  0  0
   10.4173  -15.1007   18.3553 C   0  0  0  0  0  0  0  0  0  0  0  0
   10.4610  -16.3557   18.3431 O   0  0  0  0  0  0  0  0  0  0  0  0
   11.2483  -14.4506   19.3006 N   0  0  0  0  0  0  0  0  0  0  0  0
   12.1830  -15.2018   20.0664 C   0  0  1  0  0  0  0  0  0  0  0  0
   13.5946  -14.6210   19.9180 C   0  0  0  0  0  0  0  0  0  0  0  0
   14.5848  -15.4157   20.7406 C   0  0  0  0  0  0  0  0  0  0  0  0
   15.9563  -14.8975   20.5065 C   0  0  0  0  0  0  0  0  0  0  0  0
   16.3286  -13.7498   20.9075 O   0  0  0  0  0  0  0  0  0  0  0  0
   11.9094  -15.3164   21.4944 C   0  0  0  0  0  0  0  0  0  0  0  0
   12.3704  -16.2707   22.3538 O   0  0  0  0  0  0  0  0  0  0  0  0
   16.9251  -15.6443   19.8277 O   0  0  0  0  0  0  0  0  0  0  0  0
   11.1521  -14.4206   21.9947 O   0  0  0  0  0  0  0  0  0  0  0  0
  1  2  1  0
  2  3  1  0
  3  4  1  6
  5  3  1  0
  6  5  2  0
  7  8  1  0
  8 10  1  0
  9  8  2  0
 11 10  1  1
 11 13  1  0
 11 12  1  0
 12  5  1  0
 13 15  1  0
 14 13  2  0
 15 16  1  0
 16 21  1  0
 16 17  1  1
 18 17  1  0
 19 18  1  0
 20 19  2  0
 21 24  2  0
 21 22  1  0
 23 19  1  0
M  END
$$$$
