QKP.pdb
     RDKit          3D

 26 26  0  0  1  0  0  0  0  0999 V2000
   27.0388  -24.6410  -15.7414 N   0  0  0  0  0  0  0  0  0  0  0  0
   28.1874  -24.2176  -16.4914 C   0  0  0  0  0  0  0  0  0  0  0  0
   28.9939  -23.4802  -15.8814 O   0  0  0  0  0  0  0  0  0  0  0  0
   28.3492  -24.6531  -17.8863 C   0  0  0  0  0  0  0  0  0  0  0  0
   27.3122  -25.5579  -18.4303 C   0  0  0  0  0  0  0  0  0  0  0  0
   26.5257  -25.0197  -19.5782 C   0  0  2  0  0  0  0  0  0  0  0  0
   27.2366  -24.9449  -20.8098 N   0  0  0  0  0  0  0  0  0  0  0  0
   25.8667  -23.7360  -19.2077 C   0  0  0  0  0  0  0  0  0  0  0  0
   26.4579  -22.6734  -19.4602 O   0  0  0  0  0  0  0  0  0  0  0  0
   24.5958  -23.6698  -18.5797 N   0  0  0  0  0  0  0  0  0  0  0  0
   23.9900  -22.4019  -18.2243 C   0  0  1  0  0  0  0  0  0  0  0  0
   22.6658  -22.2935  -18.9350 C   0  0  0  0  0  0  0  0  0  0  0  0
   21.9579  -20.9981  -18.8240 C   0  0  0  0  0  0  0  0  0  0  0  0
   20.6462  -20.9397  -19.5696 C   0  0  0  0  0  0  0  0  0  0  0  0
   20.0187  -19.5613  -19.3877 C   0  0  0  0  0  0  0  0  0  0  0  0
   18.7825  -19.4541  -20.1407 N   0  0  0  0  0  0  0  0  0  0  0  0
   23.9120  -22.1830  -16.7875 C   0  0  0  0  0  0  0  0  0  0  0  0
   23.6870  -23.2301  -16.0822 O   0  0  0  0  0  0  0  0  0  0  0  0
   24.0523  -20.9792  -16.0947 N   0  0  0  0  0  0  0  0  0  0  0  0
   24.2121  -19.6840  -16.8295 C   0  0  0  0  0  0  0  0  0  0  0  0
   25.2475  -18.9669  -16.0164 C   0  0  0  0  0  0  0  0  0  0  0  0
   25.0487  -19.4495  -14.6208 C   0  0  0  0  0  0  0  0  0  0  0  0
   24.0813  -20.5984  -14.7054 C   0  0  1  0  0  0  0  0  0  0  0  0
   22.7514  -20.1789  -14.2111 C   0  0  0  0  0  0  0  0  0  0  0  0
   22.5567  -20.0352  -12.8578 O   0  0  0  0  0  0  0  0  0  0  0  0
   21.8346  -19.9636  -15.0214 O   0  0  0  0  0  0  0  0  0  0  0  0
  2  1  1  0
  2  3  2  0
  4  5  1  0
  4  2  1  0
  6  7  1  6
  6  5  1  0
  8  6  1  0
  8  9  2  0
 10  8  1  0
 11 10  1  0
 12 13  1  0
 11 12  1  1
 13 14  1  0
 14 15  1  0
 16 15  1  0
 17 11  1  0
 18 17  2  0
 19 17  1  0
 19 23  1  0
 20 19  1  0
 20 21  1  0
 21 22  1  0
 23 22  1  0
 24 25  1  0
 23 24  1  6
 26 24  2  0
M  END
$$$$
