QKP.pdb
     RDKit          3D

 26 26  0  0  1  0  0  0  0  0999 V2000
   20.6791  -18.1767  -19.0309 N   0  0  0  0  0  0  0  0  0  0  0  0
   19.2792  -17.8590  -19.0464 C   0  0  0  0  0  0  0  0  0  0  0  0
   18.6398  -18.2666  -20.0420 O   0  0  0  0  0  0  0  0  0  0  0  0
   18.6916  -17.0967  -17.9350 C   0  0  0  0  0  0  0  0  0  0  0  0
   19.5776  -16.7907  -16.7900 C   0  0  0  0  0  0  0  0  0  0  0  0
   20.0849  -17.9729  -16.0343 C   0  0  2  0  0  0  0  0  0  0  0  0
   19.3209  -18.3225  -14.8845 N   0  0  0  0  0  0  0  0  0  0  0  0
   21.5389  -17.8271  -15.7447 C   0  0  0  0  0  0  0  0  0  0  0  0
   21.9503  -16.7357  -15.3181 O   0  0  0  0  0  0  0  0  0  0  0  0
   22.4762  -18.8758  -15.9336 N   0  0  0  0  0  0  0  0  0  0  0  0
   23.8997  -18.6609  -15.7654 C   0  0  1  0  0  0  0  0  0  0  0  0
   24.5670  -20.0034  -15.6142 C   0  0  0  0  0  0  0  0  0  0  0  0
   26.0464  -20.0061  -15.5618 C   0  0  0  0  0  0  0  0  0  0  0  0
   26.6198  -20.0158  -14.1649 C   0  0  0  0  0  0  0  0  0  0  0  0
   28.1411  -19.9318  -14.2390 C   0  0  0  0  0  0  0  0  0  0  0  0
   28.7246  -19.9672  -12.9105 N   0  0  0  0  0  0  0  0  0  0  0  0
   24.4824  -17.8220  -16.8022 C   0  0  0  0  0  0  0  0  0  0  0  0
   23.9928  -17.9781  -17.9770 O   0  0  0  0  0  0  0  0  0  0  0  0
   25.5013  -16.8771  -16.6686 N   0  0  0  0  0  0  0  0  0  0  0  0
   26.1856  -16.6659  -15.3533 C   0  0  0  0  0  0  0  0  0  0  0  0
   26.3386  -15.1757  -15.2944 C   0  0  0  0  0  0  0  0  0  0  0  0
   26.4743  -14.7425  -16.7137 C   0  0  0  0  0  0  0  0  0  0  0  0
   26.1542  -15.9476  -17.5551 C   0  0  1  0  0  0  0  0  0  0  0  0
   27.3956  -16.5047  -18.1361 C   0  0  0  0  0  0  0  0  0  0  0  0
   27.9717  -17.6065  -17.5494 O   0  0  0  0  0  0  0  0  0  0  0  0
   27.8971  -15.9719  -19.1401 O   0  0  0  0  0  0  0  0  0  0  0  0
  2  1  1  0
  2  3  2  0
  4  5  1  0
  4  2  1  0
  6  7  1  1
  6  5  1  0
  8  6  1  0
  8  9  2  0
 10  8  1  0
 11 10  1  0
 12 13  1  0
 11 12  1  6
 13 14  1  0
 14 15  1  0
 16 15  1  0
 17 11  1  0
 18 17  2  0
 19 17  1  0
 19 23  1  0
 20 19  1  0
 20 21  1  0
 21 22  1  0
 23 22  1  0
 24 25  1  0
 23 24  1  1
 26 24  2  0
M  END
$$$$
