QKP.pdb
     RDKit          3D

 26 26  0  0  1  0  0  0  0  0999 V2000
   20.4723  -22.5559  -11.3129 N   0  0  0  0  0  0  0  0  0  0  0  0
   21.2366  -21.3861  -11.6424 C   0  0  0  0  0  0  0  0  0  0  0  0
   21.2784  -21.0878  -12.8571 O   0  0  0  0  0  0  0  0  0  0  0  0
   21.9086  -20.6292  -10.5760 C   0  0  0  0  0  0  0  0  0  0  0  0
   23.1408  -19.8985  -10.9471 C   0  0  0  0  0  0  0  0  0  0  0  0
   24.3982  -20.7010  -10.9200 C   0  0  2  0  0  0  0  0  0  0  0  0
   24.9441  -20.9168   -9.6226 N   0  0  0  0  0  0  0  0  0  0  0  0
   25.3918  -20.1536  -11.8857 C   0  0  0  0  0  0  0  0  0  0  0  0
   26.1667  -19.2645  -11.4967 O   0  0  0  0  0  0  0  0  0  0  0  0
   25.4945  -20.5996  -13.2291 N   0  0  0  0  0  0  0  0  0  0  0  0
   26.4172  -19.9867  -14.1638 C   0  0  1  0  0  0  0  0  0  0  0  0
   27.2750  -21.0710  -14.7628 C   0  0  0  0  0  0  0  0  0  0  0  0
   26.7204  -22.4433  -14.7404 C   0  0  0  0  0  0  0  0  0  0  0  0
   26.6802  -23.1206  -16.0893 C   0  0  0  0  0  0  0  0  0  0  0  0
   25.9855  -24.4724  -15.9593 C   0  0  0  0  0  0  0  0  0  0  0  0
   25.9078  -25.1381  -17.2467 N   0  0  0  0  0  0  0  0  0  0  0  0
   25.7620  -19.1371  -15.1473 C   0  0  0  0  0  0  0  0  0  0  0  0
   24.5442  -19.4392  -15.4122 O   0  0  0  0  0  0  0  0  0  0  0  0
   26.2986  -18.0433  -15.8288 N   0  0  0  0  0  0  0  0  0  0  0  0
   27.7259  -17.6370  -15.6266 C   0  0  0  0  0  0  0  0  0  0  0  0
   27.6436  -16.1404  -15.5957 C   0  0  0  0  0  0  0  0  0  0  0  0
   26.4915  -15.7962  -16.4758 C   0  0  0  0  0  0  0  0  0  0  0  0
   25.7980  -17.0936  -16.7898 C   0  0  1  0  0  0  0  0  0  0  0  0
   26.0882  -17.4996  -18.1827 C   0  0  0  0  0  0  0  0  0  0  0  0
   26.8401  -18.6286  -18.4063 O   0  0  0  0  0  0  0  0  0  0  0  0
   25.6510  -16.8183  -19.1250 O   0  0  0  0  0  0  0  0  0  0  0  0
  2  1  1  0
  2  3  2  0
  4  5  1  0
  4  2  1  0
  6  7  1  1
  6  5  1  0
  8  6  1  0
  8  9  2  0
 10  8  1  0
 11 10  1  0
 12 13  1  0
 11 12  1  6
 13 14  1  0
 14 15  1  0
 16 15  1  0
 17 11  1  0
 18 17  2  0
 19 17  1  0
 19 23  1  0
 20 19  1  0
 20 21  1  0
 21 22  1  0
 23 22  1  0
 24 25  1  0
 23 24  1  6
 26 24  2  0
M  END
$$$$
