QKP.pdb
     RDKit          3D

 26 26  0  0  1  0  0  0  0  0999 V2000
   12.7162  -10.0262  -13.4183 N   0  0  0  0  0  0  0  0  0  0  0  0
   12.2537   -9.8319  -14.7635 C   0  0  0  0  0  0  0  0  0  0  0  0
   11.0122   -9.7698  -14.9083 O   0  0  0  0  0  0  0  0  0  0  0  0
   13.2260   -9.7234  -15.8609 C   0  0  0  0  0  0  0  0  0  0  0  0
   14.6582   -9.8073  -15.4980 C   0  0  0  0  0  0  0  0  0  0  0  0
   15.3203  -11.1128  -15.7864 C   0  0  2  0  0  0  0  0  0  0  0  0
   14.8005  -12.2221  -15.0604 N   0  0  0  0  0  0  0  0  0  0  0  0
   16.8006  -10.9870  -15.6760 C   0  0  0  0  0  0  0  0  0  0  0  0
   17.3239  -11.1239  -14.5580 O   0  0  0  0  0  0  0  0  0  0  0  0
   17.6410  -10.7178  -16.7874 N   0  0  0  0  0  0  0  0  0  0  0  0
   19.0759  -10.5785  -16.6377 C   0  0  1  0  0  0  0  0  0  0  0  0
   19.7145  -10.7736  -17.9885 C   0  0  0  0  0  0  0  0  0  0  0  0
   21.1882  -10.6483  -18.0493 C   0  0  0  0  0  0  0  0  0  0  0  0
   21.7767  -10.8816  -19.4202 C   0  0  0  0  0  0  0  0  0  0  0  0
   23.2984  -10.8138  -19.3387 C   0  0  0  0  0  0  0  0  0  0  0  0
   23.9007  -11.2235  -20.5941 N   0  0  0  0  0  0  0  0  0  0  0  0
   19.4687   -9.3474  -15.9679 C   0  0  0  0  0  0  0  0  0  0  0  0
   18.7015   -8.3404  -16.1719 O   0  0  0  0  0  0  0  0  0  0  0  0
   20.5713   -9.1371  -15.1379 N   0  0  0  0  0  0  0  0  0  0  0  0
   21.6186  -10.1943  -14.9691 C   0  0  0  0  0  0  0  0  0  0  0  0
   21.9277  -10.1239  -13.5039 C   0  0  0  0  0  0  0  0  0  0  0  0
   21.6963   -8.7013  -13.1256 C   0  0  0  0  0  0  0  0  0  0  0  0
   21.0333   -8.0524  -14.3097 C   0  0  1  0  0  0  0  0  0  0  0  0
   21.9973   -7.1795  -15.0152 C   0  0  0  0  0  0  0  0  0  0  0  0
   22.4921   -7.5793  -16.2340 O   0  0  0  0  0  0  0  0  0  0  0  0
   22.3439   -6.1039  -14.4994 O   0  0  0  0  0  0  0  0  0  0  0  0
  2  1  1  0
  2  3  2  0
  4  5  1  0
  4  2  1  0
  6  7  1  1
  6  5  1  0
  8  6  1  0
  8  9  2  0
 10  8  1  0
 11 10  1  0
 12 13  1  0
 11 12  1  6
 13 14  1  0
 14 15  1  0
 16 15  1  0
 17 11  1  0
 18 17  2  0
 19 17  1  0
 19 23  1  0
 20 19  1  0
 20 21  1  0
 21 22  1  0
 23 22  1  0
 24 25  1  0
 23 24  1  6
 26 24  2  0
M  END
$$$$
