QKP.pdb
     RDKit          3D

 26 26  0  0  1  0  0  0  0  0999 V2000
   16.5767  -17.6967  -14.8368 N   0  0  0  0  0  0  0  0  0  0  0  0
   17.8677  -17.4602  -14.2549 C   0  0  0  0  0  0  0  0  0  0  0  0
   18.6644  -16.7923  -14.9516 O   0  0  0  0  0  0  0  0  0  0  0  0
   18.1768  -17.9977  -12.9218 C   0  0  0  0  0  0  0  0  0  0  0  0
   19.3679  -18.8686  -12.8100 C   0  0  0  0  0  0  0  0  0  0  0  0
   19.2398  -20.2181  -13.4332 C   0  0  2  0  0  0  0  0  0  0  0  0
   18.2628  -21.0644  -12.8354 N   0  0  0  0  0  0  0  0  0  0  0  0
   20.5744  -20.8679  -13.5585 C   0  0  0  0  0  0  0  0  0  0  0  0
   21.0514  -21.4361  -12.5624 O   0  0  0  0  0  0  0  0  0  0  0  0
   21.3269  -20.8683  -14.7618 N   0  0  0  0  0  0  0  0  0  0  0  0
   22.6420  -21.4733  -14.8344 C   0  0  1  0  0  0  0  0  0  0  0  0
   22.8555  -21.9760  -16.2387 C   0  0  0  0  0  0  0  0  0  0  0  0
   24.1830  -22.5577  -16.5398 C   0  0  0  0  0  0  0  0  0  0  0  0
   24.3663  -22.9789  -17.9782 C   0  0  0  0  0  0  0  0  0  0  0  0
   25.7715  -23.5412  -18.1685 C   0  0  0  0  0  0  0  0  0  0  0  0
   26.0241  -23.8352  -19.5672 N   0  0  0  0  0  0  0  0  0  0  0  0
   23.7036  -20.6049  -14.3472 C   0  0  0  0  0  0  0  0  0  0  0  0
   23.5202  -19.3502  -14.5384 O   0  0  0  0  0  0  0  0  0  0  0  0
   24.8855  -20.9743  -13.7027 N   0  0  0  0  0  0  0  0  0  0  0  0
   25.1938  -22.4142  -13.4293 C   0  0  0  0  0  0  0  0  0  0  0  0
   25.7867  -22.3710  -12.0531 C   0  0  0  0  0  0  0  0  0  0  0  0
   26.4536  -21.0418  -11.9586 C   0  0  0  0  0  0  0  0  0  0  0  0
   26.0242  -20.2669  -13.1743 C   0  0  1  0  0  0  0  0  0  0  0  0
   27.1371  -20.1906  -14.1462 C   0  0  0  0  0  0  0  0  0  0  0  0
   28.1454  -19.2798  -13.9367 O   0  0  0  0  0  0  0  0  0  0  0  0
   27.1447  -20.9463  -15.1322 O   0  0  0  0  0  0  0  0  0  0  0  0
  2  1  1  0
  2  3  2  0
  4  5  1  0
  4  2  1  0
  6  7  1  1
  6  5  1  0
  8  6  1  0
  8  9  2  0
 10  8  1  0
 11 10  1  0
 12 13  1  0
 11 12  1  6
 13 14  1  0
 14 15  1  0
 16 15  1  0
 17 11  1  0
 18 17  2  0
 19 17  1  0
 19 23  1  0
 20 19  1  0
 20 21  1  0
 21 22  1  0
 23 22  1  0
 24 25  1  0
 23 24  1  6
 26 24  2  0
M  END
$$$$
