QKP.pdb
     RDKit          3D

 26 26  0  0  1  0  0  0  0  0999 V2000
   18.3952  -20.3891  -16.4910 N   0  0  0  0  0  0  0  0  0  0  0  0
   19.0830  -20.7604  -17.6952 C   0  0  0  0  0  0  0  0  0  0  0  0
   18.3547  -21.0845  -18.6599 O   0  0  0  0  0  0  0  0  0  0  0  0
   20.5528  -20.7448  -17.7305 C   0  0  0  0  0  0  0  0  0  0  0  0
   21.2472  -20.2667  -16.5144 C   0  0  0  0  0  0  0  0  0  0  0  0
   22.2618  -19.1946  -16.7315 C   0  0  2  0  0  0  0  0  0  0  0  0
   22.5064  -18.8677  -18.0958 N   0  0  0  0  0  0  0  0  0  0  0  0
   23.5085  -19.4891  -15.9710 C   0  0  0  0  0  0  0  0  0  0  0  0
   23.8408  -20.6758  -15.8171 O   0  0  0  0  0  0  0  0  0  0  0  0
   24.3341  -18.4782  -15.4139 N   0  0  0  0  0  0  0  0  0  0  0  0
   25.4167  -18.7979  -14.5047 C   0  0  1  0  0  0  0  0  0  0  0  0
   26.2255  -17.5480  -14.2726 C   0  0  0  0  0  0  0  0  0  0  0  0
   27.2258  -17.2039  -15.3082 C   0  0  0  0  0  0  0  0  0  0  0  0
   26.8064  -16.0848  -16.2311 C   0  0  0  0  0  0  0  0  0  0  0  0
   27.9206  -15.8099  -17.2360 C   0  0  0  0  0  0  0  0  0  0  0  0
   27.5529  -14.7273  -18.1301 N   0  0  0  0  0  0  0  0  0  0  0  0
   24.9696  -19.4509  -13.2831 C   0  0  0  0  0  0  0  0  0  0  0  0
   23.7519  -19.2243  -12.9514 O   0  0  0  0  0  0  0  0  0  0  0  0
   25.7038  -20.2863  -12.4394 N   0  0  0  0  0  0  0  0  0  0  0  0
   27.1731  -20.4888  -12.6472 C   0  0  0  0  0  0  0  0  0  0  0  0
   27.3461  -21.9549  -12.3865 C   0  0  0  0  0  0  0  0  0  0  0  0
   26.2949  -22.2989  -11.3880 C   0  0  0  0  0  0  0  0  0  0  0  0
   25.3997  -21.0943  -11.2858 C   0  0  1  0  0  0  0  0  0  0  0  0
   25.6559  -20.3784  -10.0166 C   0  0  0  0  0  0  0  0  0  0  0  0
   25.0416  -20.8161   -8.8672 O   0  0  0  0  0  0  0  0  0  0  0  0
   26.4181  -19.3974  -10.0075 O   0  0  0  0  0  0  0  0  0  0  0  0
  2  1  1  0
  2  3  2  0
  4  5  1  0
  4  2  1  0
  6  7  1  6
  6  5  1  0
  8  6  1  0
  8  9  2  0
 10  8  1  0
 11 10  1  0
 12 13  1  0
 11 12  1  1
 13 14  1  0
 14 15  1  0
 16 15  1  0
 17 11  1  0
 18 17  2  0
 19 17  1  0
 19 23  1  0
 20 19  1  0
 20 21  1  0
 21 22  1  0
 23 22  1  0
 24 25  1  0
 23 24  1  1
 26 24  2  0
M  END
$$$$
