RIR.pdb
     RDKit          3D

 31 30  0  0  1  0  0  0  0  0999 V2000
    7.8406  -22.8869   16.3789 N   0  0  0  0  0  0  0  0  0  0  0  0
    7.7612  -22.4619   15.0232 C   0  0  0  0  0  0  0  0  0  0  0  0
    6.9549  -23.0696   14.2231 N   0  0  0  0  0  0  0  0  0  0  0  0
    8.5300  -21.3945   14.5025 N   0  0  0  0  0  0  0  0  0  0  0  0
    8.9720  -20.3552   15.3763 C   0  0  0  0  0  0  0  0  0  0  0  0
    8.0384  -20.0454   16.4903 C   0  0  0  0  0  0  0  0  0  0  0  0
    8.5178  -19.1247   17.5432 C   0  0  0  0  0  0  0  0  0  0  0  0
    8.8864  -17.7572   17.0974 C   0  0  2  0  0  0  0  0  0  0  0  0
    9.7219  -17.6984   15.9287 N   0  0  0  0  0  0  0  0  0  0  0  0
    9.4228  -16.9041   18.1833 C   0  0  0  0  0  0  0  0  0  0  0  0
   10.6692  -16.8595   18.3469 O   0  0  0  0  0  0  0  0  0  0  0  0
    6.8617  -22.7825   13.2250 C   0  0  0  0  0  0  0  0  0  0  0  0
    6.5542  -12.4922   20.0802 C   0  0  0  0  0  0  0  0  0  0  0  0
    7.6943  -13.3431   19.5563 C   0  0  2  0  0  0  0  0  0  0  0  0
    8.1325  -14.3314   20.6177 C   0  0  0  0  0  0  0  0  0  0  0  0
    8.6139  -13.6167   21.8587 C   0  0  2  0  0  0  0  0  0  0  0  0
    9.1683  -15.2939   20.0863 N   0  0  0  0  0  0  0  0  0  0  0  0
    8.6212  -16.1369   19.0476 C   0  0  0  0  0  0  0  0  0  0  0  0
    9.6044  -16.1303   21.2650 O   0  0  0  0  0  0  0  0  0  0  0  0
    8.8498  -17.0173   21.7459 N   0  0  0  0  0  0  0  0  0  0  0  0
   16.0162  -15.3387   22.9082 C   0  0  0  0  0  0  0  0  0  0  0  0
   16.5408  -16.4005   23.7168 N   0  0  0  0  0  0  0  0  0  0  0  0
   17.7967  -16.6409   23.6356 N   0  0  0  0  0  0  0  0  0  0  0  0
   15.6588  -17.1222   24.5541 C   0  0  0  0  0  0  0  0  0  0  0  0
   14.8512  -18.1632   23.9424 C   0  0  0  0  0  0  0  0  0  0  0  0
   13.4089  -17.7795   24.0784 C   0  0  0  0  0  0  0  0  0  0  0  0
   12.8301  -17.0302   22.9382 C   0  0  1  0  0  0  0  0  0  0  0  0
   11.3619  -16.8152   22.9370 N   0  0  0  0  0  0  0  0  0  0  0  0
   10.8729  -15.9543   21.8763 C   0  0  0  0  0  0  0  0  0  0  0  0
   10.7910  -16.3405   24.2195 O   0  0  0  0  0  0  0  0  0  0  0  0
   10.9152  -16.9692   25.3019 O   0  0  0  0  0  0  0  0  0  0  0  0
  2  1  1  0
  3  2  2  0
  4  2  1  0
  5  4  1  0
  6  5  1  0
  7  6  1  0
  8  7  1  0
  8  9  1  6
 10  8  1  0
 10 11  2  0
 13 12  1  0
 14 16  1  0
 14 13  1  0
 14 15  1  1
 16 17  1  6
 17 10  1  0
 18 16  1  0
 19 18  2  0
 21 22  2  0
 21 20  1  0
 23 21  1  0
 24 23  1  0
 25 24  1  0
 26 25  1  0
 27 26  1  6
 27 28  1  0
 28 18  1  0
 29 31  1  0
 29 27  1  0
 30 29  2  0
M  END
$$$$
