RIR.pdb
     RDKit          3D

 31 30  0  0  1  0  0  0  0  0999 V2000
    7.9602  -12.8890   16.8329 N   0  0  0  0  0  0  0  0  0  0  0  0
    8.2676  -14.0421   16.0580 C   0  0  0  0  0  0  0  0  0  0  0  0
    7.9108  -14.0779   14.8206 N   0  0  0  0  0  0  0  0  0  0  0  0
    8.9528  -15.1638   16.5814 N   0  0  0  0  0  0  0  0  0  0  0  0
    9.0089  -15.3561   17.9952 C   0  0  0  0  0  0  0  0  0  0  0  0
    7.8186  -16.0312   18.5751 C   0  0  0  0  0  0  0  0  0  0  0  0
    7.7827  -16.2040   20.0430 C   0  0  0  0  0  0  0  0  0  0  0  0
    6.8577  -15.3095   20.7839 C   0  0  2  0  0  0  0  0  0  0  0  0
    6.0518  -14.4465   19.9634 N   0  0  0  0  0  0  0  0  0  0  0  0
    7.5128  -14.5525   21.8759 C   0  0  0  0  0  0  0  0  0  0  0  0
    8.4019  -13.7160   21.5724 O   0  0  0  0  0  0  0  0  0  0  0  0
    8.1815  -14.8712   14.2004 C   0  0  0  0  0  0  0  0  0  0  0  0
    6.5441  -11.8695   27.2046 C   0  0  0  0  0  0  0  0  0  0  0  0
    7.5725  -12.5322   26.3092 C   0  0  2  0  0  0  0  0  0  0  0  0
    6.8771  -13.3421   25.2340 C   0  0  0  0  0  0  0  0  0  0  0  0
    5.9463  -14.3649   25.8421 C   0  0  2  0  0  0  0  0  0  0  0  0
    7.8693  -13.9772   24.2886 N   0  0  0  0  0  0  0  0  0  0  0  0
    7.2013  -14.7117   23.2382 C   0  0  0  0  0  0  0  0  0  0  0  0
    8.7080  -14.9099   25.1288 O   0  0  0  0  0  0  0  0  0  0  0  0
    8.1823  -15.8666   25.7576 N   0  0  0  0  0  0  0  0  0  0  0  0
   15.1401  -16.5130   20.4832 C   0  0  0  0  0  0  0  0  0  0  0  0
   14.0228  -15.7376   20.9377 N   0  0  0  0  0  0  0  0  0  0  0  0
   13.1164  -15.4467   20.0802 N   0  0  0  0  0  0  0  0  0  0  0  0
   13.9751  -15.3360   22.2929 C   0  0  0  0  0  0  0  0  0  0  0  0
   14.4410  -16.2823   23.2917 C   0  0  0  0  0  0  0  0  0  0  0  0
   13.3088  -16.5698   24.2306 C   0  0  0  0  0  0  0  0  0  0  0  0
   12.1806  -15.6093   24.1944 C   0  0  1  0  0  0  0  0  0  0  0  0
   11.0448  -15.8548   25.1172 N   0  0  0  0  0  0  0  0  0  0  0  0
   10.1133  -14.7496   25.2446 C   0  0  0  0  0  0  0  0  0  0  0  0
   11.4212  -16.3029   26.4786 O   0  0  0  0  0  0  0  0  0  0  0  0
   11.4120  -15.5416   27.4800 O   0  0  0  0  0  0  0  0  0  0  0  0
  2  1  1  0
  3  2  2  0
  4  2  1  0
  5  4  1  0
  6  5  1  0
  7  6  1  0
  8  7  1  0
  8  9  1  6
 10  8  1  0
 10 11  2  0
 13 12  1  0
 14 16  1  0
 14 13  1  0
 14 15  1  6
 16 17  1  1
 17 10  1  0
 18 16  1  0
 19 18  2  0
 21 22  2  0
 21 20  1  0
 23 21  1  0
 24 23  1  0
 25 24  1  0
 26 25  1  0
 27 26  1  6
 27 28  1  0
 28 18  1  0
 29 31  1  0
 29 27  1  0
 30 29  2  0
M  END
$$$$
