RIR.pdb
     RDKit          3D

 31 30  0  0  1  0  0  0  0  0999 V2000
    6.8516  -17.2276   17.3085 N   0  0  0  0  0  0  0  0  0  0  0  0
    7.4420  -18.4945   17.0419 C   0  0  0  0  0  0  0  0  0  0  0  0
    6.8934  -19.2698   16.1716 N   0  0  0  0  0  0  0  0  0  0  0  0
    8.6135  -18.9521   17.6899 N   0  0  0  0  0  0  0  0  0  0  0  0
    9.1744  -18.1821   18.7536 C   0  0  0  0  0  0  0  0  0  0  0  0
    8.2705  -17.1393   19.3054 C   0  0  0  0  0  0  0  0  0  0  0  0
    8.8253  -16.2336   20.3339 C   0  0  0  0  0  0  0  0  0  0  0  0
    7.8856  -15.2317   20.8978 C   0  0  2  0  0  0  0  0  0  0  0  0
    7.4039  -14.2501   19.9641 N   0  0  0  0  0  0  0  0  0  0  0  0
    8.3760  -14.5932   22.1414 C   0  0  0  0  0  0  0  0  0  0  0  0
    9.3555  -13.8078   22.0630 O   0  0  0  0  0  0  0  0  0  0  0  0
    7.2387  -20.2414   16.0160 C   0  0  0  0  0  0  0  0  0  0  0  0
    7.0976  -11.7366   26.8609 C   0  0  0  0  0  0  0  0  0  0  0  0
    7.7351  -13.1102   26.7886 C   0  0  2  0  0  0  0  0  0  0  0  0
    7.2140  -13.8595   25.5792 C   0  0  0  0  0  0  0  0  0  0  0  0
    6.4353  -15.0856   25.9949 C   0  0  2  0  0  0  0  0  0  0  0  0
    8.3263  -14.2003   24.6157 N   0  0  0  0  0  0  0  0  0  0  0  0
    7.8120  -14.8114   23.4112 C   0  0  0  0  0  0  0  0  0  0  0  0
    9.2313  -15.1625   25.3466 O   0  0  0  0  0  0  0  0  0  0  0  0
    9.0318  -16.4055   25.2976 N   0  0  0  0  0  0  0  0  0  0  0  0
   13.2879  -19.9798   31.3663 C   0  0  0  0  0  0  0  0  0  0  0  0
   12.0889  -19.2328   31.6124 N   0  0  0  0  0  0  0  0  0  0  0  0
   11.2632  -19.7050   32.4708 N   0  0  0  0  0  0  0  0  0  0  0  0
   11.8774  -18.0263   30.9054 C   0  0  0  0  0  0  0  0  0  0  0  0
   11.3596  -18.1219   29.5516 C   0  0  0  0  0  0  0  0  0  0  0  0
   11.1840  -16.7330   29.0168 C   0  0  0  0  0  0  0  0  0  0  0  0
   10.6671  -16.6355   27.6312 C   0  0  2  0  0  0  0  0  0  0  0  0
   11.2796  -15.6159   26.7440 N   0  0  0  0  0  0  0  0  0  0  0  0
   10.3365  -14.7110   26.1137 C   0  0  0  0  0  0  0  0  0  0  0  0
   12.1815  -16.1490   25.6960 O   0  0  0  0  0  0  0  0  0  0  0  0
   13.3293  -15.6839   25.4752 O   0  0  0  0  0  0  0  0  0  0  0  0
  2  1  1  0
  3  2  2  0
  4  2  1  0
  5  4  1  0
  6  5  1  0
  7  6  1  0
  8  7  1  0
  8  9  1  6
 10  8  1  0
 10 11  2  0
 13 12  1  0
 14 16  1  0
 14 13  1  0
 14 15  1  6
 16 17  1  1
 17 10  1  0
 18 16  1  0
 19 18  2  0
 21 22  2  0
 21 20  1  0
 23 21  1  0
 24 23  1  0
 25 24  1  0
 26 25  1  0
 27 26  1  1
 27 28  1  0
 28 18  1  0
 29 31  1  0
 29 27  1  0
 30 29  2  0
M  END
$$$$
