RIR.pdb
     RDKit          3D

 31 30  0  0  1  0  0  0  0  0999 V2000
    8.9547  -22.7084   14.4905 N   0  0  0  0  0  0  0  0  0  0  0  0
    8.3844  -21.7661   13.5897 C   0  0  0  0  0  0  0  0  0  0  0  0
    8.7063  -21.8177   12.3434 N   0  0  0  0  0  0  0  0  0  0  0  0
    7.4718  -20.7642   13.9960 N   0  0  0  0  0  0  0  0  0  0  0  0
    7.8858  -19.7787   14.9428 C   0  0  0  0  0  0  0  0  0  0  0  0
    8.8299  -18.7640   14.4062 C   0  0  0  0  0  0  0  0  0  0  0  0
    9.3872  -17.7818   15.3605 C   0  0  0  0  0  0  0  0  0  0  0  0
    8.9419  -16.3761   15.1863 C   0  0  2  0  0  0  0  0  0  0  0  0
    9.1672  -15.8196   13.8798 N   0  0  0  0  0  0  0  0  0  0  0  0
    9.4276  -15.4645   16.2482 C   0  0  0  0  0  0  0  0  0  0  0  0
   10.5418  -14.9026   16.0889 O   0  0  0  0  0  0  0  0  0  0  0  0
    8.3487  -21.1151   11.6609 C   0  0  0  0  0  0  0  0  0  0  0  0
    5.9550  -12.9429   19.7976 C   0  0  0  0  0  0  0  0  0  0  0  0
    7.1013  -13.1600   18.8295 C   0  0  2  0  0  0  0  0  0  0  0  0
    8.1865  -13.9862   19.4893 C   0  0  0  0  0  0  0  0  0  0  0  0
    8.7629  -13.2675   20.6867 C   0  0  2  0  0  0  0  0  0  0  0  0
    9.2589  -14.3836   18.5026 N   0  0  0  0  0  0  0  0  0  0  0  0
    8.7172  -15.1865   17.4298 C   0  0  0  0  0  0  0  0  0  0  0  0
   10.2759  -15.1758   19.2883 O   0  0  0  0  0  0  0  0  0  0  0  0
   10.1306  -16.4131   19.4758 N   0  0  0  0  0  0  0  0  0  0  0  0
   18.7893  -14.4521   17.6398 C   0  0  0  0  0  0  0  0  0  0  0  0
   17.6301  -13.6992   18.0213 N   0  0  0  0  0  0  0  0  0  0  0  0
   17.7131  -12.4214   17.9756 N   0  0  0  0  0  0  0  0  0  0  0  0
   16.4658  -14.3934   18.4245 C   0  0  0  0  0  0  0  0  0  0  0  0
   16.3969  -14.8479   19.8024 C   0  0  0  0  0  0  0  0  0  0  0  0
   15.1110  -15.5952   19.9868 C   0  0  0  0  0  0  0  0  0  0  0  0
   13.8771  -14.8528   19.6360 C   0  0  2  0  0  0  0  0  0  0  0  0
   12.6049  -15.3175   20.2419 N   0  0  0  0  0  0  0  0  0  0  0  0
   11.4298  -14.5648   19.8442 C   0  0  0  0  0  0  0  0  0  0  0  0
   12.6094  -15.4229   21.7200 O   0  0  0  0  0  0  0  0  0  0  0  0
   11.8340  -14.7629   22.4587 O   0  0  0  0  0  0  0  0  0  0  0  0
  2  1  1  0
  3  2  2  0
  4  2  1  0
  5  4  1  0
  6  5  1  0
  7  6  1  0
  8  7  1  0
  8  9  1  6
 10  8  1  0
 10 11  2  0
 13 12  1  0
 14 16  1  0
 14 13  1  0
 14 15  1  1
 16 17  1  6
 17 10  1  0
 18 16  1  0
 19 18  2  0
 21 22  2  0
 21 20  1  0
 23 21  1  0
 24 23  1  0
 25 24  1  0
 26 25  1  0
 27 26  1  6
 27 28  1  0
 28 18  1  0
 29 31  1  0
 29 27  1  0
 30 29  2  0
M  END
$$$$
