RIR.pdb
     RDKit          3D

 31 30  0  0  1  0  0  0  0  0999 V2000
    9.5207  -14.6847   16.7880 N   0  0  0  0  0  0  0  0  0  0  0  0
    8.1564  -14.9568   16.4891 C   0  0  0  0  0  0  0  0  0  0  0  0
    7.4707  -14.0796   15.8410 N   0  0  0  0  0  0  0  0  0  0  0  0
    7.5064  -16.1542   16.8706 N   0  0  0  0  0  0  0  0  0  0  0  0
    7.9478  -16.8529   18.0350 C   0  0  0  0  0  0  0  0  0  0  0  0
    7.4153  -16.3187   19.3156 C   0  0  0  0  0  0  0  0  0  0  0  0
    8.3529  -15.5763   20.1849 C   0  0  0  0  0  0  0  0  0  0  0  0
    7.7846  -14.4182   20.9202 C   0  0  2  0  0  0  0  0  0  0  0  0
    7.9132  -13.1488   20.2571 N   0  0  0  0  0  0  0  0  0  0  0  0
    8.2314  -14.3341   22.3301 C   0  0  0  0  0  0  0  0  0  0  0  0
    9.4238  -14.6328   22.5973 O   0  0  0  0  0  0  0  0  0  0  0  0
    6.4773  -14.2544   15.5765 C   0  0  0  0  0  0  0  0  0  0  0  0
    7.5927  -11.1185   27.4248 C   0  0  0  0  0  0  0  0  0  0  0  0
    8.0392  -12.4263   26.8014 C   0  0  2  0  0  0  0  0  0  0  0  0
    7.4444  -12.5682   25.4151 C   0  0  0  0  0  0  0  0  0  0  0  0
    5.9422  -12.4119   25.4508 C   0  0  2  0  0  0  0  0  0  0  0  0
    7.8589  -13.8665   24.7636 N   0  0  0  0  0  0  0  0  0  0  0  0
    7.4012  -13.9393   23.3946 C   0  0  0  0  0  0  0  0  0  0  0  0
    7.2299  -14.9654   25.5858 O   0  0  0  0  0  0  0  0  0  0  0  0
    6.0642  -15.3746   25.3387 N   0  0  0  0  0  0  0  0  0  0  0  0
    6.0169  -21.0468   22.2253 C   0  0  0  0  0  0  0  0  0  0  0  0
    6.3720  -19.6589   22.2882 N   0  0  0  0  0  0  0  0  0  0  0  0
    6.2199  -18.9605   21.2249 N   0  0  0  0  0  0  0  0  0  0  0  0
    6.8668  -19.1340   23.5046 C   0  0  0  0  0  0  0  0  0  0  0  0
    7.0057  -20.0483   24.6247 C   0  0  0  0  0  0  0  0  0  0  0  0
    7.5607  -19.2844   25.7885 C   0  0  0  0  0  0  0  0  0  0  0  0
    7.4370  -17.8096   25.7106 C   0  0  1  0  0  0  0  0  0  0  0  0
    7.9803  -17.0179   26.8419 N   0  0  0  0  0  0  0  0  0  0  0  0
    7.9199  -15.5791   26.6633 C   0  0  0  0  0  0  0  0  0  0  0  0
    9.3558  -17.3755   27.2614 O   0  0  0  0  0  0  0  0  0  0  0  0
   10.3166  -16.5641   27.2313 O   0  0  0  0  0  0  0  0  0  0  0  0
  2  1  1  0
  3  2  2  0
  4  2  1  0
  5  4  1  0
  6  5  1  0
  7  6  1  0
  8  7  1  0
  8  9  1  6
 10  8  1  0
 10 11  2  0
 13 12  1  0
 14 16  1  0
 14 13  1  0
 14 15  1  6
 16 17  1  1
 17 10  1  0
 18 16  1  0
 19 18  2  0
 21 22  2  0
 21 20  1  0
 23 21  1  0
 24 23  1  0
 25 24  1  0
 26 25  1  0
 27 26  1  1
 27 28  1  0
 28 18  1  0
 29 31  1  0
 29 27  1  0
 30 29  2  0
M  END
$$$$
