RIR.pdb
     RDKit          3D

 31 30  0  0  1  0  0  0  0  0999 V2000
    9.8615  -13.9662   17.6028 N   0  0  0  0  0  0  0  0  0  0  0  0
    8.6768  -13.8964   16.8177 C   0  0  0  0  0  0  0  0  0  0  0  0
    8.6177  -13.0504   15.8479 N   0  0  0  0  0  0  0  0  0  0  0  0
    7.5479  -14.7171   17.0490 N   0  0  0  0  0  0  0  0  0  0  0  0
    7.4371  -15.4284   18.2823 C   0  0  0  0  0  0  0  0  0  0  0  0
    6.8116  -14.6562   19.3874 C   0  0  0  0  0  0  0  0  0  0  0  0
    7.6393  -14.3874   20.5826 C   0  0  0  0  0  0  0  0  0  0  0  0
    7.7021  -15.4746   21.5920 C   0  0  2  0  0  0  0  0  0  0  0  0
    6.4678  -16.1786   21.8116 N   0  0  0  0  0  0  0  0  0  0  0  0
    8.3173  -15.0586   22.8738 C   0  0  0  0  0  0  0  0  0  0  0  0
    9.5188  -14.6859   22.8661 O   0  0  0  0  0  0  0  0  0  0  0  0
    7.7846  -12.9987   15.2229 C   0  0  0  0  0  0  0  0  0  0  0  0
    5.8965  -11.8386   25.9115 C   0  0  0  0  0  0  0  0  0  0  0  0
    7.0762  -12.5520   25.2809 C   0  0  2  0  0  0  0  0  0  0  0  0
    7.4968  -13.7218   26.1472 C   0  0  0  0  0  0  0  0  0  0  0  0
    8.2507  -13.2490   27.3681 C   0  0  2  0  0  0  0  0  0  0  0  0
    8.2859  -14.7406   25.3592 N   0  0  0  0  0  0  0  0  0  0  0  0
    7.6386  -15.0545   24.1057 C   0  0  0  0  0  0  0  0  0  0  0  0
    8.3662  -15.9709   26.2304 O   0  0  0  0  0  0  0  0  0  0  0  0
    7.4921  -16.8754   26.1581 N   0  0  0  0  0  0  0  0  0  0  0  0
   10.5924  -19.1747   21.9502 C   0  0  0  0  0  0  0  0  0  0  0  0
   11.9915  -18.9030   22.1086 N   0  0  0  0  0  0  0  0  0  0  0  0
   12.6121  -18.3935   21.1102 N   0  0  0  0  0  0  0  0  0  0  0  0
   12.6117  -19.2065   23.3429 C   0  0  0  0  0  0  0  0  0  0  0  0
   11.7502  -19.4442   24.4881 C   0  0  0  0  0  0  0  0  0  0  0  0
   12.0511  -18.4056   25.5258 C   0  0  0  0  0  0  0  0  0  0  0  0
   11.0232  -17.3526   25.7020 C   0  0  1  0  0  0  0  0  0  0  0  0
   10.3947  -17.2288   27.0405 N   0  0  0  0  0  0  0  0  0  0  0  0
    9.4215  -16.1592   27.1602 C   0  0  0  0  0  0  0  0  0  0  0  0
   11.3406  -17.1241   28.1763 O   0  0  0  0  0  0  0  0  0  0  0  0
   11.8161  -18.1262   28.7696 O   0  0  0  0  0  0  0  0  0  0  0  0
  2  1  1  0
  3  2  2  0
  4  2  1  0
  5  4  1  0
  6  5  1  0
  7  6  1  0
  8  7  1  0
  8  9  1  1
 10  8  1  0
 10 11  2  0
 13 12  1  0
 14 16  1  0
 14 13  1  0
 14 15  1  1
 16 17  1  6
 17 10  1  0
 18 16  1  0
 19 18  2  0
 21 22  2  0
 21 20  1  0
 23 21  1  0
 24 23  1  0
 25 24  1  0
 26 25  1  0
 27 26  1  6
 27 28  1  0
 28 18  1  0
 29 31  1  0
 29 27  1  0
 30 29  2  0
M  END
$$$$
