RIR.pdb
     RDKit          3D

 31 30  0  0  1  0  0  0  0  0999 V2000
    7.8716  -12.9473   16.2106 N   0  0  0  0  0  0  0  0  0  0  0  0
    8.1944  -14.1353   16.9243 C   0  0  0  0  0  0  0  0  0  0  0  0
    8.1238  -15.2691   16.3168 N   0  0  0  0  0  0  0  0  0  0  0  0
    8.5936  -14.1360   18.2816 N   0  0  0  0  0  0  0  0  0  0  0  0
    7.7871  -13.4669   19.2516 C   0  0  0  0  0  0  0  0  0  0  0  0
    6.8069  -14.3397   19.9488 C   0  0  0  0  0  0  0  0  0  0  0  0
    7.1771  -15.7578   20.1437 C   0  0  0  0  0  0  0  0  0  0  0  0
    8.3412  -16.0135   21.0293 C   0  0  2  0  0  0  0  0  0  0  0  0
    9.2243  -17.0610   20.5931 N   0  0  0  0  0  0  0  0  0  0  0  0
    7.9759  -16.1796   22.4554 C   0  0  0  0  0  0  0  0  0  0  0  0
    6.7560  -16.2459   22.7553 O   0  0  0  0  0  0  0  0  0  0  0  0
    8.3999  -16.1564   16.7898 C   0  0  0  0  0  0  0  0  0  0  0  0
    6.1975  -18.7181   26.4878 C   0  0  0  0  0  0  0  0  0  0  0  0
    7.6495  -18.2846   26.4433 C   0  0  2  0  0  0  0  0  0  0  0  0
    8.0554  -17.9811   25.0154 C   0  0  0  0  0  0  0  0  0  0  0  0
    9.0754  -18.9783   24.5179 C   0  0  2  0  0  0  0  0  0  0  0  0
    8.5415  -16.5587   24.8669 N   0  0  0  0  0  0  0  0  0  0  0  0
    8.9128  -16.2681   23.5007 C   0  0  0  0  0  0  0  0  0  0  0  0
    9.7410  -16.4307   25.7747 O   0  0  0  0  0  0  0  0  0  0  0  0
   10.5103  -17.4081   25.9752 N   0  0  0  0  0  0  0  0  0  0  0  0
    5.6718  -13.0200   25.8763 C   0  0  0  0  0  0  0  0  0  0  0  0
    6.6206  -11.9805   26.1510 N   0  0  0  0  0  0  0  0  0  0  0  0
    6.8823  -11.1539   25.2077 N   0  0  0  0  0  0  0  0  0  0  0  0
    7.2146  -11.9180   27.4329 C   0  0  0  0  0  0  0  0  0  0  0  0
    7.7038  -13.1586   28.0089 C   0  0  0  0  0  0  0  0  0  0  0  0
    9.1963  -13.0716   28.1130 C   0  0  0  0  0  0  0  0  0  0  0  0
    9.8716  -14.2501   28.7060 C   0  0  2  0  0  0  0  0  0  0  0  0
   10.5886  -15.1632   27.7818 N   0  0  0  0  0  0  0  0  0  0  0  0
   10.0502  -15.2134   26.4353 C   0  0  0  0  0  0  0  0  0  0  0  0
   10.7532  -16.5535   28.2673 O   0  0  0  0  0  0  0  0  0  0  0  0
    9.7854  -17.3338   28.4593 O   0  0  0  0  0  0  0  0  0  0  0  0
  2  1  1  0
  3  2  2  0
  4  2  1  0
  5  4  1  0
  6  5  1  0
  7  6  1  0
  8  7  1  0
  8  9  1  6
 10  8  1  0
 10 11  2  0
 13 12  1  0
 14 16  1  0
 14 13  1  0
 14 15  1  6
 16 17  1  1
 17 10  1  0
 18 16  1  0
 19 18  2  0
 21 22  2  0
 21 20  1  0
 23 21  1  0
 24 23  1  0
 25 24  1  0
 26 25  1  0
 27 26  1  6
 27 28  1  0
 28 18  1  0
 29 31  1  0
 29 27  1  0
 30 29  2  0
M  END
$$$$
