RIR.pdb
     RDKit          3D

 31 30  0  0  1  0  0  0  0  0999 V2000
    9.5436  -18.6240   12.1355 N   0  0  0  0  0  0  0  0  0  0  0  0
    8.9803  -17.8725   11.0665 C   0  0  0  0  0  0  0  0  0  0  0  0
    8.6468  -18.4812    9.9813 N   0  0  0  0  0  0  0  0  0  0  0  0
    8.7648  -16.4758   11.1343 N   0  0  0  0  0  0  0  0  0  0  0  0
    8.8405  -15.8137   12.3972 C   0  0  0  0  0  0  0  0  0  0  0  0
    8.1236  -16.5037   13.5011 C   0  0  0  0  0  0  0  0  0  0  0  0
    7.9700  -15.7700   14.7755 C   0  0  0  0  0  0  0  0  0  0  0  0
    7.9778  -16.5953   16.0098 C   0  0  2  0  0  0  0  0  0  0  0  0
    6.6855  -17.0365   16.4599 N   0  0  0  0  0  0  0  0  0  0  0  0
    8.7557  -15.9957   17.1189 C   0  0  0  0  0  0  0  0  0  0  0  0
   10.0039  -15.9048   16.9915 O   0  0  0  0  0  0  0  0  0  0  0  0
    8.2257  -17.9669    9.1779 C   0  0  0  0  0  0  0  0  0  0  0  0
    6.3097  -13.4697   21.6984 C   0  0  0  0  0  0  0  0  0  0  0  0
    6.9714  -14.5311   20.8417 C   0  0  2  0  0  0  0  0  0  0  0  0
    8.2243  -13.9709   20.1998 C   0  0  0  0  0  0  0  0  0  0  0  0
    7.9044  -12.7658   19.3467 C   0  0  1  0  0  0  0  0  0  0  0  0
    8.9695  -15.0289   19.4207 N   0  0  0  0  0  0  0  0  0  0  0  0
    8.1830  -15.5195   18.3119 C   0  0  0  0  0  0  0  0  0  0  0  0
    9.2519  -16.1449   20.3975 O   0  0  0  0  0  0  0  0  0  0  0  0
    8.7629  -17.2937   20.2293 N   0  0  0  0  0  0  0  0  0  0  0  0
   13.5268  -21.2427   17.3295 C   0  0  0  0  0  0  0  0  0  0  0  0
   14.0937  -20.3678   18.3141 N   0  0  0  0  0  0  0  0  0  0  0  0
   15.3206  -20.0286   18.1680 N   0  0  0  0  0  0  0  0  0  0  0  0
   13.2826  -19.9268   19.3853 C   0  0  0  0  0  0  0  0  0  0  0  0
   13.8572  -18.9692   20.3143 C   0  0  0  0  0  0  0  0  0  0  0  0
   12.8114  -18.6108   21.3261 C   0  0  0  0  0  0  0  0  0  0  0  0
   11.8762  -17.5304   20.9328 C   0  0  2  0  0  0  0  0  0  0  0  0
   11.0303  -16.9378   21.9982 N   0  0  0  0  0  0  0  0  0  0  0  0
   10.0740  -15.9485   21.5374 C   0  0  0  0  0  0  0  0  0  0  0  0
   11.7695  -16.3671   23.1488 O   0  0  0  0  0  0  0  0  0  0  0  0
   12.2449  -15.2025   23.1512 O   0  0  0  0  0  0  0  0  0  0  0  0
  2  1  1  0
  3  2  2  0
  4  2  1  0
  5  4  1  0
  6  5  1  0
  7  6  1  0
  8  7  1  0
  8  9  1  1
 10  8  1  0
 10 11  2  0
 13 12  1  0
 14 16  1  0
 14 13  1  0
 14 15  1  1
 16 17  1  6
 17 10  1  0
 18 16  1  0
 19 18  2  0
 21 22  2  0
 21 20  1  0
 23 21  1  0
 24 23  1  0
 25 24  1  0
 26 25  1  0
 27 26  1  6
 27 28  1  0
 28 18  1  0
 29 31  1  0
 29 27  1  0
 30 29  2  0
M  END
$$$$
