GYL.pdb
     RDKit          3D

 25 25  0  0  1  0  0  0  0  0999 V2000
    7.6334  -18.9838   21.3433 N   0  0  0  0  0  0  0  0  0  0  0  0
    9.0592  -18.8636   21.2480 C   0  0  0  0  0  0  0  0  0  0  0  0
    9.4840  -17.6078   21.9142 C   0  0  0  0  0  0  0  0  0  0  0  0
   10.6880  -17.2347   21.8988 O   0  0  0  0  0  0  0  0  0  0  0  0
    7.3914  -13.2314   17.3509 O   0  0  0  0  0  0  0  0  0  0  0  0
    7.5215  -13.5338   18.7007 C   0  0  0  0  0  0  0  0  0  0  0  0
    6.7766  -14.5125   19.3206 C   0  0  0  0  0  0  0  0  0  0  0  0
    6.8796  -14.8376   20.6533 C   0  0  0  0  0  0  0  0  0  0  0  0
    7.7766  -14.1553   21.4332 C   0  0  0  0  0  0  0  0  0  0  0  0
    7.9224  -14.4922   22.8526 C   0  0  0  0  0  0  0  0  0  0  0  0
    8.9787  -15.4975   23.1265 C   0  0  2  0  0  0  0  0  0  0  0  0
    8.5452  -16.8083   22.5775 N   0  0  0  0  0  0  0  0  0  0  0  0
    9.1574  -15.7450   24.5631 C   0  0  0  0  0  0  0  0  0  0  0  0
    8.1676  -16.2674   25.2044 O   0  0  0  0  0  0  0  0  0  0  0  0
    8.5512  -13.1546   20.8425 C   0  0  0  0  0  0  0  0  0  0  0  0
    8.4231  -12.8577   19.5173 C   0  0  0  0  0  0  0  0  0  0  0  0
    8.1862  -12.8638   27.9768 C   0  0  0  0  0  0  0  0  0  0  0  0
    9.4348  -13.6014   27.4990 C   0  0  1  0  0  0  0  0  0  0  0  0
   10.5007  -13.4807   28.5982 C   0  0  0  0  0  0  0  0  0  0  0  0
    9.1594  -15.0594   27.3522 C   0  0  0  0  0  0  0  0  0  0  0  0
   10.3101  -15.8443   26.7347 C   0  0  2  0  0  0  0  0  0  0  0  0
   10.3250  -15.4757   25.3327 N   0  0  0  0  0  0  0  0  0  0  0  0
   10.1348  -17.2877   26.8800 C   0  0  0  0  0  0  0  0  0  0  0  0
    9.5256  -18.0090   26.0703 O   0  0  0  0  0  0  0  0  0  0  0  0
   10.6703  -17.9629   27.9916 O   0  0  0  0  0  0  0  0  0  0  0  0
  2  1  1  0
  3  2  1  0
  4  3  2  0
  6  5  1  0
  6 16  2  0
  7  6  1  0
  8  7  2  0
  8  9  1  0
  9 15  2  0
 10  9  1  0
 11 10  1  1
 11 12  1  0
 12  3  1  0
 13 22  1  0
 13 11  1  0
 14 13  2  0
 15 16  1  0
 18 17  1  1
 19 18  1  0
 20 18  1  0
 21 22  1  0
 21 20  1  1
 23 21  1  0
 23 25  1  0
 24 23  2  0
M  END
$$$$
