GYL.pdb
     RDKit          3D

 25 25  0  0  1  0  0  0  0  0999 V2000
    7.4272  -19.7506   21.2478 N   0  0  0  0  0  0  0  0  0  0  0  0
    6.8475  -18.6114   21.8979 C   0  0  0  0  0  0  0  0  0  0  0  0
    7.8095  -17.4831   21.8447 C   0  0  0  0  0  0  0  0  0  0  0  0
    8.9681  -17.6338   21.3715 O   0  0  0  0  0  0  0  0  0  0  0  0
    7.7140  -13.7007   16.1378 O   0  0  0  0  0  0  0  0  0  0  0  0
    7.7524  -13.7563   17.5255 C   0  0  0  0  0  0  0  0  0  0  0  0
    8.3540  -12.7845   18.2942 C   0  0  0  0  0  0  0  0  0  0  0  0
    8.4104  -12.8078   19.6685 C   0  0  0  0  0  0  0  0  0  0  0  0
    7.8359  -13.8578   20.3364 C   0  0  0  0  0  0  0  0  0  0  0  0
    7.8634  -13.9007   21.8015 C   0  0  0  0  0  0  0  0  0  0  0  0
    8.4627  -15.1398   22.3555 C   0  0  2  0  0  0  0  0  0  0  0  0
    7.4427  -16.2197   22.3242 N   0  0  0  0  0  0  0  0  0  0  0  0
    8.8099  -15.0074   23.7764 C   0  0  0  0  0  0  0  0  0  0  0  0
    9.9581  -14.4940   24.0628 O   0  0  0  0  0  0  0  0  0  0  0  0
    7.2158  -14.8645   19.5932 C   0  0  0  0  0  0  0  0  0  0  0  0
    7.1785  -14.8100   18.2308 C   0  0  0  0  0  0  0  0  0  0  0  0
    5.9364  -12.3700   26.8202 C   0  0  0  0  0  0  0  0  0  0  0  0
    7.2353  -12.9819   26.3008 C   0  0  1  0  0  0  0  0  0  0  0  0
    8.3927  -12.0779   26.7504 C   0  0  0  0  0  0  0  0  0  0  0  0
    7.4807  -14.3091   26.9344 C   0  0  0  0  0  0  0  0  0  0  0  0
    8.5296  -15.1495   26.2168 C   0  0  2  0  0  0  0  0  0  0  0  0
    8.0005  -15.3806   24.8870 N   0  0  0  0  0  0  0  0  0  0  0  0
    8.7772  -16.4203   26.8944 C   0  0  0  0  0  0  0  0  0  0  0  0
    9.1613  -16.5280   28.0725 O   0  0  0  0  0  0  0  0  0  0  0  0
    8.5844  -17.6386   26.2183 O   0  0  0  0  0  0  0  0  0  0  0  0
  2  1  1  0
  3  2  1  0
  4  3  2  0
  6  5  1  0
  6 16  2  0
  7  6  1  0
  8  7  2  0
  8  9  1  0
  9 15  2  0
 10  9  1  0
 11 10  1  1
 11 12  1  0
 12  3  1  0
 13 22  1  0
 13 11  1  0
 14 13  2  0
 15 16  1  0
 18 17  1  1
 19 18  1  0
 20 18  1  0
 21 22  1  0
 21 20  1  1
 23 21  1  0
 23 25  1  0
 24 23  2  0
M  END
$$$$
