GYL.pdb
     RDKit          3D

 25 25  0  0  1  0  0  0  0  0999 V2000
    6.1846  -21.1142   21.1653 N   0  0  0  0  0  0  0  0  0  0  0  0
    6.9797  -20.9041   22.3400 C   0  0  0  0  0  0  0  0  0  0  0  0
    6.3944  -19.7909   23.1271 C   0  0  0  0  0  0  0  0  0  0  0  0
    5.3362  -19.2146   22.7571 O   0  0  0  0  0  0  0  0  0  0  0  0
   11.4078  -19.9585   28.7176 O   0  0  0  0  0  0  0  0  0  0  0  0
   10.1726  -19.6289   28.1737 C   0  0  0  0  0  0  0  0  0  0  0  0
    9.3027  -20.5722   27.6732 C   0  0  0  0  0  0  0  0  0  0  0  0
    8.0735  -20.2814   27.1283 C   0  0  0  0  0  0  0  0  0  0  0  0
    7.6683  -18.9734   27.0705 C   0  0  0  0  0  0  0  0  0  0  0  0
    6.3557  -18.6341   26.5127 C   0  0  0  0  0  0  0  0  0  0  0  0
    6.3920  -18.2524   25.0794 C   0  0  2  0  0  0  0  0  0  0  0  0
    7.0141  -19.3578   24.3057 N   0  0  0  0  0  0  0  0  0  0  0  0
    7.2636  -17.0969   24.8294 C   0  0  0  0  0  0  0  0  0  0  0  0
    8.4037  -17.3219   24.2696 O   0  0  0  0  0  0  0  0  0  0  0  0
    8.5218  -17.9861   27.5674 C   0  0  0  0  0  0  0  0  0  0  0  0
    9.7347  -18.3098   28.1011 C   0  0  0  0  0  0  0  0  0  0  0  0
    7.6943  -12.2360   26.8178 C   0  0  0  0  0  0  0  0  0  0  0  0
    6.6527  -13.0874   26.0955 C   0  0  1  0  0  0  0  0  0  0  0  0
    5.3809  -12.2406   25.9395 C   0  0  0  0  0  0  0  0  0  0  0  0
    7.1050  -13.4083   24.7116 C   0  0  0  0  0  0  0  0  0  0  0  0
    7.8681  -14.7226   24.6024 C   0  0  2  0  0  0  0  0  0  0  0  0
    6.9774  -15.7355   25.1337 N   0  0  0  0  0  0  0  0  0  0  0  0
    9.1197  -14.6988   25.3563 C   0  0  0  0  0  0  0  0  0  0  0  0
   10.1609  -14.1341   24.9765 O   0  0  0  0  0  0  0  0  0  0  0  0
    9.2130  -15.3412   26.6041 O   0  0  0  0  0  0  0  0  0  0  0  0
  2  1  1  0
  3  2  1  0
  4  3  2  0
  6  5  1  0
  6 16  2  0
  7  6  1  0
  8  7  2  0
  8  9  1  0
  9 15  2  0
 10  9  1  0
 11 10  1  1
 11 12  1  0
 12  3  1  0
 13 22  1  0
 13 11  1  0
 14 13  2  0
 15 16  1  0
 18 17  1  6
 19 18  1  0
 20 18  1  0
 21 22  1  0
 21 20  1  1
 23 21  1  0
 23 25  1  0
 24 23  2  0
M  END
$$$$
