GYL.pdb
     RDKit          3D

 25 25  0  0  1  0  0  0  0  0999 V2000
    6.8333  -21.0440   24.7250 N   0  0  0  0  0  0  0  0  0  0  0  0
    6.0658  -19.8414   24.5796 C   0  0  0  0  0  0  0  0  0  0  0  0
    6.8447  -18.8649   23.7789 C   0  0  0  0  0  0  0  0  0  0  0  0
    8.0415  -19.0921   23.4548 O   0  0  0  0  0  0  0  0  0  0  0  0
    8.7789  -12.1500   18.4000 O   0  0  0  0  0  0  0  0  0  0  0  0
    8.1263  -13.0346   19.2497 C   0  0  0  0  0  0  0  0  0  0  0  0
    7.8632  -14.3420   18.9055 C   0  0  0  0  0  0  0  0  0  0  0  0
    7.2200  -15.2439   19.7212 C   0  0  0  0  0  0  0  0  0  0  0  0
    6.8061  -14.8352   20.9622 C   0  0  0  0  0  0  0  0  0  0  0  0
    6.1349  -15.7789   21.8612 C   0  0  0  0  0  0  0  0  0  0  0  0
    7.0580  -16.7171   22.5460 C   0  0  2  0  0  0  0  0  0  0  0  0
    6.2573  -17.6629   23.3657 N   0  0  0  0  0  0  0  0  0  0  0  0
    7.9274  -16.0391   23.5164 C   0  0  0  0  0  0  0  0  0  0  0  0
    8.9686  -15.4306   23.0588 O   0  0  0  0  0  0  0  0  0  0  0  0
    7.0535  -13.5165   21.3492 C   0  0  0  0  0  0  0  0  0  0  0  0
    7.6940  -12.6480   20.5148 C   0  0  0  0  0  0  0  0  0  0  0  0
    7.3635  -11.7034   27.1729 C   0  0  0  0  0  0  0  0  0  0  0  0
    8.2913  -12.8999   26.9759 C   0  0  1  0  0  0  0  0  0  0  0  0
    8.5473  -13.5272   28.3542 C   0  0  0  0  0  0  0  0  0  0  0  0
    7.6219  -13.9549   26.1623 C   0  0  0  0  0  0  0  0  0  0  0  0
    8.5648  -15.0490   25.6769 C   0  0  2  0  0  0  0  0  0  0  0  0
    7.7366  -15.9721   24.9261 N   0  0  0  0  0  0  0  0  0  0  0  0
    9.2243  -15.7403   26.7826 C   0  0  0  0  0  0  0  0  0  0  0  0
    8.7679  -16.7432   27.3596 O   0  0  0  0  0  0  0  0  0  0  0  0
   10.4629  -15.2860   27.2705 O   0  0  0  0  0  0  0  0  0  0  0  0
  2  1  1  0
  3  2  1  0
  4  3  2  0
  6  5  1  0
  6 16  2  0
  7  6  1  0
  8  7  2  0
  8  9  1  0
  9 15  2  0
 10  9  1  0
 11 10  1  1
 11 12  1  0
 12  3  1  0
 13 22  1  0
 13 11  1  0
 14 13  2  0
 15 16  1  0
 18 17  1  1
 19 18  1  0
 20 18  1  0
 21 22  1  0
 21 20  1  1
 23 21  1  0
 23 25  1  0
 24 23  2  0
M  END
$$$$
