GYL.pdb
     RDKit          3D

 25 25  0  0  1  0  0  0  0  0999 V2000
    3.9345  -17.7564   20.5052 N   0  0  0  0  0  0  0  0  0  0  0  0
    5.3164  -17.4630   20.7521 C   0  0  0  0  0  0  0  0  0  0  0  0
    5.5548  -17.4555   22.2165 C   0  0  0  0  0  0  0  0  0  0  0  0
    4.5960  -17.4637   23.0348 O   0  0  0  0  0  0  0  0  0  0  0  0
    8.8981  -19.4604   30.0125 O   0  0  0  0  0  0  0  0  0  0  0  0
    8.6448  -19.2922   28.6568 C   0  0  0  0  0  0  0  0  0  0  0  0
    7.3800  -19.3777   28.1184 C   0  0  0  0  0  0  0  0  0  0  0  0
    7.0936  -19.2167   26.7825 C   0  0  0  0  0  0  0  0  0  0  0  0
    8.1198  -18.9527   25.9132 C   0  0  0  0  0  0  0  0  0  0  0  0
    7.8433  -18.7575   24.4868 C   0  0  0  0  0  0  0  0  0  0  0  0
    7.0676  -17.5287   24.1874 C   0  0  2  0  0  0  0  0  0  0  0  0
    6.8617  -17.4391   22.7187 N   0  0  0  0  0  0  0  0  0  0  0  0
    7.8041  -16.3045   24.5277 C   0  0  0  0  0  0  0  0  0  0  0  0
    8.8338  -16.0105   23.8085 O   0  0  0  0  0  0  0  0  0  0  0  0
    9.4179  -18.8585   26.4194 C   0  0  0  0  0  0  0  0  0  0  0  0
    9.6664  -19.0240   27.7504 C   0  0  0  0  0  0  0  0  0  0  0  0
    5.5005  -11.7348   26.1650 C   0  0  0  0  0  0  0  0  0  0  0  0
    6.3901  -12.7635   25.4707 C   0  0  1  0  0  0  0  0  0  0  0  0
    7.0167  -12.0886   24.2415 C   0  0  0  0  0  0  0  0  0  0  0  0
    7.5288  -13.1524   26.3511 C   0  0  0  0  0  0  0  0  0  0  0  0
    8.3926  -14.2713   25.7824 C   0  0  2  0  0  0  0  0  0  0  0  0
    7.4939  -15.3896   25.5740 N   0  0  0  0  0  0  0  0  0  0  0  0
    9.4742  -14.6493   26.6893 C   0  0  0  0  0  0  0  0  0  0  0  0
    9.3962  -15.5511   27.5424 O   0  0  0  0  0  0  0  0  0  0  0  0
   10.7120  -13.9829   26.6401 O   0  0  0  0  0  0  0  0  0  0  0  0
  2  1  1  0
  3  2  1  0
  4  3  2  0
  6  5  1  0
  6 16  2  0
  7  6  1  0
  8  7  2  0
  8  9  1  0
  9 15  2  0
 10  9  1  0
 11 10  1  6
 11 12  1  0
 12  3  1  0
 13 22  1  0
 13 11  1  0
 14 13  2  0
 15 16  1  0
 18 17  1  1
 19 18  1  0
 20 18  1  0
 21 22  1  0
 21 20  1  1
 23 21  1  0
 23 25  1  0
 24 23  2  0
M  END
$$$$
