GYL.pdb
     RDKit          3D

 25 25  0  0  1  0  0  0  0  0999 V2000
    6.9457  -19.7017   27.6417 N   0  0  0  0  0  0  0  0  0  0  0  0
    7.1573  -19.4563   26.2447 C   0  0  0  0  0  0  0  0  0  0  0  0
    7.3198  -17.9973   26.0295 C   0  0  0  0  0  0  0  0  0  0  0  0
    6.4157  -17.1832   26.3593 O   0  0  0  0  0  0  0  0  0  0  0  0
   10.2805  -14.7974   31.1386 O   0  0  0  0  0  0  0  0  0  0  0  0
   10.1721  -14.9760   29.7650 C   0  0  0  0  0  0  0  0  0  0  0  0
    9.6816  -14.0026   28.9231 C   0  0  0  0  0  0  0  0  0  0  0  0
    9.5608  -14.1455   27.5602 C   0  0  0  0  0  0  0  0  0  0  0  0
    9.9488  -15.3260   26.9819 C   0  0  0  0  0  0  0  0  0  0  0  0
    9.8496  -15.5010   25.5298 C   0  0  0  0  0  0  0  0  0  0  0  0
    8.5506  -16.0583   25.0787 C   0  0  2  0  0  0  0  0  0  0  0  0
    8.4919  -17.4956   25.4506 N   0  0  0  0  0  0  0  0  0  0  0  0
    8.4170  -16.0543   23.6161 C   0  0  0  0  0  0  0  0  0  0  0  0
    8.5499  -17.1818   23.0036 O   0  0  0  0  0  0  0  0  0  0  0  0
   10.4515  -16.3389   27.8014 C   0  0  0  0  0  0  0  0  0  0  0  0
   10.5575  -16.1635   29.1500 C   0  0  0  0  0  0  0  0  0  0  0  0
    6.9123  -12.5351   18.7608 C   0  0  0  0  0  0  0  0  0  0  0  0
    7.6515  -13.7662   19.2798 C   0  0  1  0  0  0  0  0  0  0  0  0
    9.1300  -13.6255   18.8886 C   0  0  0  0  0  0  0  0  0  0  0  0
    7.6227  -13.8065   20.7699 C   0  0  0  0  0  0  0  0  0  0  0  0
    8.0728  -15.1378   21.3587 C   0  0  2  0  0  0  0  0  0  0  0  0
    8.1431  -14.9263   22.7912 N   0  0  0  0  0  0  0  0  0  0  0  0
    9.3731  -15.5589   20.8417 C   0  0  0  0  0  0  0  0  0  0  0  0
   10.4662  -15.1179   21.2390 O   0  0  0  0  0  0  0  0  0  0  0  0
    9.4569  -16.5267   19.8245 O   0  0  0  0  0  0  0  0  0  0  0  0
  2  1  1  0
  3  2  1  0
  4  3  2  0
  6  5  1  0
  6 16  2  0
  7  6  1  0
  8  7  2  0
  8  9  1  0
  9 15  2  0
 10  9  1  0
 11 10  1  6
 11 12  1  0
 12  3  1  0
 13 22  1  0
 13 11  1  0
 14 13  2  0
 15 16  1  0
 18 17  1  1
 19 18  1  0
 20 18  1  0
 21 22  1  0
 21 20  1  6
 23 21  1  0
 23 25  1  0
 24 23  2  0
M  END
$$$$
