GYL.pdb
     RDKit          3D

 25 25  0  0  1  0  0  0  0  0999 V2000
    5.7932  -19.0323   21.3223 N   0  0  0  0  0  0  0  0  0  0  0  0
    5.6697  -17.7607   21.9736 C   0  0  0  0  0  0  0  0  0  0  0  0
    6.9994  -17.1033   22.0063 C   0  0  0  0  0  0  0  0  0  0  0  0
    8.0374  -17.7087   21.6257 O   0  0  0  0  0  0  0  0  0  0  0  0
    7.8063  -13.9044   16.2772 O   0  0  0  0  0  0  0  0  0  0  0  0
    7.9590  -13.8789   17.6579 C   0  0  0  0  0  0  0  0  0  0  0  0
    6.8983  -13.7225   18.5224 C   0  0  0  0  0  0  0  0  0  0  0  0
    7.0133  -13.6927   19.8930 C   0  0  0  0  0  0  0  0  0  0  0  0
    8.2559  -13.8262   20.4556 C   0  0  0  0  0  0  0  0  0  0  0  0
    8.4077  -13.8174   21.9137 C   0  0  0  0  0  0  0  0  0  0  0  0
    8.4753  -15.1702   22.5193 C   0  0  2  0  0  0  0  0  0  0  0  0
    7.1244  -15.7863   22.4653 N   0  0  0  0  0  0  0  0  0  0  0  0
    8.7995  -15.1273   23.9512 C   0  0  0  0  0  0  0  0  0  0  0  0
   10.0079  -14.8166   24.2785 O   0  0  0  0  0  0  0  0  0  0  0  0
    9.3580  -13.9866   19.6130 C   0  0  0  0  0  0  0  0  0  0  0  0
    9.2079  -14.0113   18.2574 C   0  0  0  0  0  0  0  0  0  0  0  0
    6.1106  -12.1818   26.8577 C   0  0  0  0  0  0  0  0  0  0  0  0
    7.3360  -12.9428   26.3569 C   0  0  1  0  0  0  0  0  0  0  0  0
    8.5817  -12.1290   26.7374 C   0  0  0  0  0  0  0  0  0  0  0  0
    7.4674  -14.2494   27.0628 C   0  0  0  0  0  0  0  0  0  0  0  0
    8.4175  -15.2254   26.3799 C   0  0  2  0  0  0  0  0  0  0  0  0
    7.9088  -15.3856   25.0319 N   0  0  0  0  0  0  0  0  0  0  0  0
    8.4671  -16.5167   27.0623 C   0  0  0  0  0  0  0  0  0  0  0  0
    8.0086  -17.5765   26.6000 O   0  0  0  0  0  0  0  0  0  0  0  0
    9.0626  -16.6302   28.3315 O   0  0  0  0  0  0  0  0  0  0  0  0
  2  1  1  0
  3  2  1  0
  4  3  2  0
  6  5  1  0
  6 16  2  0
  7  6  1  0
  8  7  2  0
  8  9  1  0
  9 15  2  0
 10  9  1  0
 11 10  1  1
 11 12  1  0
 12  3  1  0
 13 22  1  0
 13 11  1  0
 14 13  2  0
 15 16  1  0
 18 17  1  1
 19 18  1  0
 20 18  1  0
 21 22  1  0
 21 20  1  1
 23 21  1  0
 23 25  1  0
 24 23  2  0
M  END
$$$$
