GYL.pdb
     RDKit          3D

 25 25  0  0  1  0  0  0  0  0999 V2000
   12.5415  -16.9246   20.0175 N   0  0  0  0  0  0  0  0  0  0  0  0
   11.3461  -17.4573   20.6038 C   0  0  0  0  0  0  0  0  0  0  0  0
   10.8774  -16.5355   21.6677 C   0  0  0  0  0  0  0  0  0  0  0  0
   11.5865  -15.5669   22.0524 O   0  0  0  0  0  0  0  0  0  0  0  0
    5.6534  -12.0902   27.1801 O   0  0  0  0  0  0  0  0  0  0  0  0
    6.1555  -12.9545   26.2151 C   0  0  0  0  0  0  0  0  0  0  0  0
    6.9004  -12.5208   25.1409 C   0  0  0  0  0  0  0  0  0  0  0  0
    7.4124  -13.3479   24.1682 C   0  0  0  0  0  0  0  0  0  0  0  0
    7.1780  -14.6955   24.2551 C   0  0  0  0  0  0  0  0  0  0  0  0
    7.7266  -15.6041   23.2438 C   0  0  0  0  0  0  0  0  0  0  0  0
    9.1947  -15.7957   23.3409 C   0  0  2  0  0  0  0  0  0  0  0  0
    9.6273  -16.7282   22.2681 N   0  0  0  0  0  0  0  0  0  0  0  0
    9.5911  -16.4645   24.5871 C   0  0  0  0  0  0  0  0  0  0  0  0
   10.0495  -17.6669   24.4970 O   0  0  0  0  0  0  0  0  0  0  0  0
    6.4263  -15.1758   25.3296 C   0  0  0  0  0  0  0  0  0  0  0  0
    5.9331  -14.3270   26.2768 C   0  0  0  0  0  0  0  0  0  0  0  0
   10.4438  -13.4120   29.0054 C   0  0  0  0  0  0  0  0  0  0  0  0
   10.5869  -14.3432   27.8038 C   0  0  1  0  0  0  0  0  0  0  0  0
   12.0765  -14.4081   27.4351 C   0  0  0  0  0  0  0  0  0  0  0  0
   10.1929  -15.7343   28.1678 C   0  0  0  0  0  0  0  0  0  0  0  0
   10.1225  -16.6853   26.9794 C   0  0  2  0  0  0  0  0  0  0  0  0
    9.5323  -15.9175   25.9005 N   0  0  0  0  0  0  0  0  0  0  0  0
    9.3126  -17.8676   27.2653 C   0  0  0  0  0  0  0  0  0  0  0  0
    8.1178  -17.9980   26.9452 O   0  0  0  0  0  0  0  0  0  0  0  0
    9.8687  -18.9654   27.9465 O   0  0  0  0  0  0  0  0  0  0  0  0
  2  1  1  0
  3  2  1  0
  4  3  2  0
  6  5  1  0
  6 16  2  0
  7  6  1  0
  8  7  2  0
  8  9  1  0
  9 15  2  0
 10  9  1  0
 11 10  1  1
 11 12  1  0
 12  3  1  0
 13 22  1  0
 13 11  1  0
 14 13  2  0
 15 16  1  0
 18 17  1  1
 19 18  1  0
 20 18  1  0
 21 22  1  0
 21 20  1  1
 23 21  1  0
 23 25  1  0
 24 23  2  0
M  END
$$$$
