VQE.pdb
     RDKit          3D

 26 25  0  0  1  0  0  0  0  0999 V2000
    9.1509  -12.6109   20.3121 C   0  0  0  0  0  0  0  0  0  0  0  0
    8.2726  -13.6873   19.7122 C   0  0  1  0  0  0  0  0  0  0  0  0
    6.9493  -13.0738   19.3788 C   0  0  0  0  0  0  0  0  0  0  0  0
    8.9582  -14.3324   18.5347 C   0  0  2  0  0  0  0  0  0  0  0  0
    8.1002  -15.2421   17.8454 N   0  0  0  0  0  0  0  0  0  0  0  0
   10.2687  -14.9132   18.8936 C   0  0  0  0  0  0  0  0  0  0  0  0
   10.2565  -16.1320   19.2809 O   0  0  0  0  0  0  0  0  0  0  0  0
   15.7886  -13.8255   16.2333 N   0  0  0  0  0  0  0  0  0  0  0  0
   16.1655  -14.1005   17.5911 C   0  0  0  0  0  0  0  0  0  0  0  0
   17.3291  -13.7855   17.9330 O   0  0  0  0  0  0  0  0  0  0  0  0
   15.2012  -14.7312   18.5300 C   0  0  0  0  0  0  0  0  0  0  0  0
   13.8394  -14.1643   18.2423 C   0  0  0  0  0  0  0  0  0  0  0  0
   12.7600  -14.7968   19.0941 C   0  0  2  0  0  0  0  0  0  0  0  0
   11.4807  -14.1923   18.8241 N   0  0  0  0  0  0  0  0  0  0  0  0
   13.1160  -14.7517   20.5316 C   0  0  0  0  0  0  0  0  0  0  0  0
   13.1599  -13.6405   21.0993 O   0  0  0  0  0  0  0  0  0  0  0  0
   13.3967  -15.9150   21.2425 N   0  0  0  0  0  0  0  0  0  0  0  0
   13.7201  -15.9400   22.6738 C   0  0  1  0  0  0  0  0  0  0  0  0
   13.2384  -17.1788   23.3182 C   0  0  0  0  0  0  0  0  0  0  0  0
   11.7468  -17.1992   23.4500 C   0  0  0  0  0  0  0  0  0  0  0  0
   11.1956  -18.4497   24.0212 C   0  0  0  0  0  0  0  0  0  0  0  0
   11.5482  -19.5242   23.4716 O   0  0  0  0  0  0  0  0  0  0  0  0
   15.1873  -15.8372   22.7582 C   0  0  0  0  0  0  0  0  0  0  0  0
   15.8637  -15.5117   23.9479 O   0  0  0  0  0  0  0  0  0  0  0  0
   10.3345  -18.5277   25.0949 O   0  0  0  0  0  0  0  0  0  0  0  0
   15.8893  -16.0478   21.7122 O   0  0  0  0  0  0  0  0  0  0  0  0
  2  1  1  6
  2  3  1  0
  4  2  1  0
  4  5  1  1
  6  4  1  0
  6  7  2  0
  9 10  2  0
  9  8  1  0
 11  9  1  0
 13 12  1  6
 12 11  1  0
 13 14  1  0
 14  6  1  0
 15 13  1  0
 16 15  2  0
 17 15  1  0
 18 19  1  6
 18 17  1  0
 19 20  1  0
 21 20  1  0
 21 25  1  0
 22 21  2  0
 23 24  1  0
 23 18  1  0
 26 23  2  0
M  END
$$$$
