VQE.pdb
     RDKit          3D

 26 25  0  0  1  0  0  0  0  0999 V2000
    8.8044  -12.9084   18.5725 C   0  0  0  0  0  0  0  0  0  0  0  0
    8.4801  -13.4609   19.9435 C   0  0  1  0  0  0  0  0  0  0  0  0
    7.2743  -12.7414   20.4602 C   0  0  0  0  0  0  0  0  0  0  0  0
    8.3161  -14.9582   19.8839 C   0  0  2  0  0  0  0  0  0  0  0  0
    7.4504  -15.3624   18.8228 N   0  0  0  0  0  0  0  0  0  0  0  0
    7.9556  -15.5389   21.1941 C   0  0  0  0  0  0  0  0  0  0  0  0
    6.7059  -15.5933   21.4602 O   0  0  0  0  0  0  0  0  0  0  0  0
    8.0563  -20.1469   24.8611 N   0  0  0  0  0  0  0  0  0  0  0  0
    7.6744  -19.9849   23.4866 C   0  0  0  0  0  0  0  0  0  0  0  0
    6.9348  -20.8685   22.9943 O   0  0  0  0  0  0  0  0  0  0  0  0
    8.1479  -18.8136   22.7037 C   0  0  0  0  0  0  0  0  0  0  0  0
    8.9087  -17.9130   23.6357 C   0  0  0  0  0  0  0  0  0  0  0  0
    8.5543  -16.4540   23.4445 C   0  0  2  0  0  0  0  0  0  0  0  0
    8.9099  -16.0145   22.1196 N   0  0  0  0  0  0  0  0  0  0  0  0
    9.1600  -15.6119   24.5025 C   0  0  0  0  0  0  0  0  0  0  0  0
   10.3831  -15.3684   24.4420 O   0  0  0  0  0  0  0  0  0  0  0  0
    8.3926  -15.0989   25.5443 N   0  0  0  0  0  0  0  0  0  0  0  0
    8.9426  -14.3092   26.6523 C   0  0  1  0  0  0  0  0  0  0  0  0
    7.9376  -13.3809   27.2093 C   0  0  0  0  0  0  0  0  0  0  0  0
    7.4692  -12.3855   26.1932 C   0  0  0  0  0  0  0  0  0  0  0  0
    6.3622  -11.5136   26.6494 C   0  0  0  0  0  0  0  0  0  0  0  0
    5.8011  -11.8324   27.7285 O   0  0  0  0  0  0  0  0  0  0  0  0
    9.3790  -15.2850   27.6660 C   0  0  0  0  0  0  0  0  0  0  0  0
    9.1114  -16.6625   27.5662 O   0  0  0  0  0  0  0  0  0  0  0  0
    5.9020  -10.3935   25.9905 O   0  0  0  0  0  0  0  0  0  0  0  0
   10.0277  -14.8766   28.6876 O   0  0  0  0  0  0  0  0  0  0  0  0
  2  1  1  6
  2  3  1  0
  4  2  1  0
  4  5  1  6
  6  4  1  0
  6  7  2  0
  9 10  2  0
  9  8  1  0
 11  9  1  0
 13 12  1  1
 12 11  1  0
 13 14  1  0
 14  6  1  0
 15 13  1  0
 16 15  2  0
 17 15  1  0
 18 19  1  1
 18 17  1  0
 19 20  1  0
 21 20  1  0
 21 25  1  0
 22 21  2  0
 23 24  1  0
 23 18  1  0
 26 23  2  0
M  END
$$$$
