VQE.pdb
     RDKit          3D

 26 25  0  0  1  0  0  0  0  0999 V2000
    7.0549  -16.0822   19.8432 C   0  0  0  0  0  0  0  0  0  0  0  0
    7.6689  -14.9832   19.0034 C   0  0  1  0  0  0  0  0  0  0  0  0
    7.0006  -14.9941   17.6647 C   0  0  0  0  0  0  0  0  0  0  0  0
    7.5776  -13.6592   19.7183 C   0  0  2  0  0  0  0  0  0  0  0  0
    8.0341  -12.5772   18.9061 N   0  0  0  0  0  0  0  0  0  0  0  0
    8.2015  -13.6968   21.0573 C   0  0  0  0  0  0  0  0  0  0  0  0
    9.4802  -13.6973   21.0820 O   0  0  0  0  0  0  0  0  0  0  0  0
    5.2919  -12.7677   26.5488 N   0  0  0  0  0  0  0  0  0  0  0  0
    6.6713  -12.8094   26.9449 C   0  0  0  0  0  0  0  0  0  0  0  0
    6.9357  -12.4653   28.1204 O   0  0  0  0  0  0  0  0  0  0  0  0
    7.7201  -13.2446   25.9859 C   0  0  0  0  0  0  0  0  0  0  0  0
    7.0834  -13.3663   24.6300 C   0  0  0  0  0  0  0  0  0  0  0  0
    8.0817  -13.7416   23.5561 C   0  0  2  0  0  0  0  0  0  0  0  0
    7.4585  -13.7307   22.2574 N   0  0  0  0  0  0  0  0  0  0  0  0
    8.7352  -15.0361   23.8601 C   0  0  0  0  0  0  0  0  0  0  0  0
    8.0718  -16.0849   23.7213 O   0  0  0  0  0  0  0  0  0  0  0  0
   10.0574  -15.0936   24.2912 N   0  0  0  0  0  0  0  0  0  0  0  0
   10.8238  -16.3392   24.4131 C   0  0  1  0  0  0  0  0  0  0  0  0
   12.2478  -16.1362   24.0768 C   0  0  0  0  0  0  0  0  0  0  0  0
   13.0479  -17.3912   24.2426 C   0  0  0  0  0  0  0  0  0  0  0  0
   14.5009  -17.2317   24.0038 C   0  0  0  0  0  0  0  0  0  0  0  0
   15.2437  -18.1648   24.4019 O   0  0  0  0  0  0  0  0  0  0  0  0
   10.6685  -16.7736   25.8122 C   0  0  0  0  0  0  0  0  0  0  0  0
   10.6308  -18.1275   26.1925 O   0  0  0  0  0  0  0  0  0  0  0  0
   15.0971  -16.1519   23.3880 O   0  0  0  0  0  0  0  0  0  0  0  0
   10.5595  -15.8934   26.7311 O   0  0  0  0  0  0  0  0  0  0  0  0
  2  1  1  1
  2  3  1  0
  4  2  1  0
  4  5  1  6
  6  4  1  0
  6  7  2  0
  9 10  2  0
  9  8  1  0
 11  9  1  0
 13 12  1  1
 12 11  1  0
 13 14  1  0
 14  6  1  0
 15 13  1  0
 16 15  2  0
 17 15  1  0
 18 19  1  1
 18 17  1  0
 19 20  1  0
 21 20  1  0
 21 25  1  0
 22 21  2  0
 23 24  1  0
 23 18  1  0
 26 23  2  0
M  END
$$$$
