VQE.pdb
     RDKit          3D

 26 25  0  0  1  0  0  0  0  0999 V2000
    9.7124  -12.3002   19.3336 C   0  0  0  0  0  0  0  0  0  0  0  0
    8.4455  -13.1164   19.4704 C   0  0  1  0  0  0  0  0  0  0  0  0
    7.3137  -12.3135   18.9110 C   0  0  0  0  0  0  0  0  0  0  0  0
    8.6142  -14.4657   18.8197 C   0  0  2  0  0  0  0  0  0  0  0  0
    7.3835  -15.1863   18.7493 N   0  0  0  0  0  0  0  0  0  0  0  0
    9.7212  -15.2440   19.4134 C   0  0  0  0  0  0  0  0  0  0  0  0
    9.4228  -15.9607   20.4297 O   0  0  0  0  0  0  0  0  0  0  0  0
   13.0810  -18.8386   17.2679 N   0  0  0  0  0  0  0  0  0  0  0  0
   14.1282  -18.5742   18.2138 C   0  0  0  0  0  0  0  0  0  0  0  0
   14.9484  -19.4973   18.4265 O   0  0  0  0  0  0  0  0  0  0  0  0
   14.2144  -17.2571   18.8972 C   0  0  0  0  0  0  0  0  0  0  0  0
   13.0996  -16.3938   18.3771 C   0  0  0  0  0  0  0  0  0  0  0  0
   12.0908  -16.0464   19.4506 C   0  0  2  0  0  0  0  0  0  0  0  0
   11.0410  -15.2198   18.9125 N   0  0  0  0  0  0  0  0  0  0  0  0
   12.7495  -15.4316   20.6268 C   0  0  0  0  0  0  0  0  0  0  0  0
   13.2864  -14.3125   20.4910 O   0  0  0  0  0  0  0  0  0  0  0  0
   12.7753  -16.0778   21.8594 N   0  0  0  0  0  0  0  0  0  0  0  0
   13.3576  -15.4966   23.0747 C   0  0  1  0  0  0  0  0  0  0  0  0
   12.7754  -16.0922   24.2946 C   0  0  0  0  0  0  0  0  0  0  0  0
   13.0340  -17.5649   24.3784 C   0  0  0  0  0  0  0  0  0  0  0  0
   12.4945  -18.2171   25.5938 C   0  0  0  0  0  0  0  0  0  0  0  0
   11.9741  -17.4630   26.4549 O   0  0  0  0  0  0  0  0  0  0  0  0
   14.8045  -15.7624   22.9961 C   0  0  0  0  0  0  0  0  0  0  0  0
   15.7524  -15.0679   23.7695 O   0  0  0  0  0  0  0  0  0  0  0  0
   12.5192  -19.5708   25.8537 O   0  0  0  0  0  0  0  0  0  0  0  0
   15.2322  -16.6585   22.1929 O   0  0  0  0  0  0  0  0  0  0  0  0
  2  1  1  6
  2  3  1  0
  4  2  1  0
  4  5  1  1
  6  4  1  0
  6  7  2  0
  9 10  2  0
  9  8  1  0
 11  9  1  0
 13 12  1  6
 12 11  1  0
 13 14  1  0
 14  6  1  0
 15 13  1  0
 16 15  2  0
 17 15  1  0
 18 19  1  1
 18 17  1  0
 19 20  1  0
 21 20  1  0
 21 25  1  0
 22 21  2  0
 23 24  1  0
 23 18  1  0
 26 23  2  0
M  END
$$$$
