VQE.pdb
     RDKit          3D

 26 25  0  0  1  0  0  0  0  0999 V2000
   12.7028  -20.1104   18.8892 C   0  0  0  0  0  0  0  0  0  0  0  0
   12.4234  -18.9901   17.9110 C   0  0  1  0  0  0  0  0  0  0  0  0
   12.5325  -19.5456   16.5261 C   0  0  0  0  0  0  0  0  0  0  0  0
   11.0905  -18.3511   18.2071 C   0  0  2  0  0  0  0  0  0  0  0  0
   10.7086  -17.4133   17.2003 N   0  0  0  0  0  0  0  0  0  0  0  0
   11.0179  -17.8071   19.5791 C   0  0  0  0  0  0  0  0  0  0  0  0
   11.7588  -16.7934   19.8220 O   0  0  0  0  0  0  0  0  0  0  0  0
    6.8224  -19.3755   23.9820 N   0  0  0  0  0  0  0  0  0  0  0  0
    7.6167  -18.4116   24.6900 C   0  0  0  0  0  0  0  0  0  0  0  0
    7.2377  -18.0994   25.8428 O   0  0  0  0  0  0  0  0  0  0  0  0
    8.8295  -17.8246   24.0625 C   0  0  0  0  0  0  0  0  0  0  0  0
    8.9156  -18.3406   22.6536 C   0  0  0  0  0  0  0  0  0  0  0  0
   10.1220  -17.8021   21.9153 C   0  0  2  0  0  0  0  0  0  0  0  0
   10.1901  -18.3510   20.5852 N   0  0  0  0  0  0  0  0  0  0  0  0
   11.3672  -18.0278   22.6859 C   0  0  0  0  0  0  0  0  0  0  0  0
   11.7452  -19.2027   22.8752 O   0  0  0  0  0  0  0  0  0  0  0  0
   12.1063  -16.9623   23.1916 N   0  0  0  0  0  0  0  0  0  0  0  0
   13.3079  -17.1210   24.0192 C   0  0  1  0  0  0  0  0  0  0  0  0
   14.2959  -16.0557   23.7527 C   0  0  0  0  0  0  0  0  0  0  0  0
   15.2225  -16.4172   22.6332 C   0  0  0  0  0  0  0  0  0  0  0  0
   16.2339  -15.3837   22.3123 C   0  0  0  0  0  0  0  0  0  0  0  0
   15.8222  -14.3591   21.7110 O   0  0  0  0  0  0  0  0  0  0  0  0
   12.8447  -17.0739   25.4169 C   0  0  0  0  0  0  0  0  0  0  0  0
   13.6227  -17.5318   26.4958 O   0  0  0  0  0  0  0  0  0  0  0  0
   17.5767  -15.4565   22.6157 O   0  0  0  0  0  0  0  0  0  0  0  0
   11.6867  -16.6015   25.6755 O   0  0  0  0  0  0  0  0  0  0  0  0
  2  1  1  1
  2  3  1  0
  4  2  1  0
  4  5  1  6
  6  4  1  0
  6  7  2  0
  9 10  2  0
  9  8  1  0
 11  9  1  0
 13 12  1  1
 12 11  1  0
 13 14  1  0
 14  6  1  0
 15 13  1  0
 16 15  2  0
 17 15  1  0
 18 19  1  1
 18 17  1  0
 19 20  1  0
 21 20  1  0
 21 25  1  0
 22 21  2  0
 23 24  1  0
 23 18  1  0
 26 23  2  0
M  END
$$$$
