VQE.pdb
     RDKit          3D

 26 25  0  0  1  0  0  0  0  0999 V2000
   16.0575  -14.8373   17.3348 C   0  0  0  0  0  0  0  0  0  0  0  0
   14.9554  -14.7068   16.3060 C   0  0  1  0  0  0  0  0  0  0  0  0
   15.5357  -15.0182   14.9625 C   0  0  0  0  0  0  0  0  0  0  0  0
   13.7809  -15.5757   16.6777 C   0  0  2  0  0  0  0  0  0  0  0  0
   12.8997  -15.7890   15.5746 N   0  0  0  0  0  0  0  0  0  0  0  0
   13.0951  -15.1050   17.8991 C   0  0  0  0  0  0  0  0  0  0  0  0
   13.8199  -15.0057   18.9480 O   0  0  0  0  0  0  0  0  0  0  0  0
    7.1220  -12.0416   19.2885 N   0  0  0  0  0  0  0  0  0  0  0  0
    7.4606  -13.3574   19.7525 C   0  0  0  0  0  0  0  0  0  0  0  0
    6.5308  -14.1951   19.8143 O   0  0  0  0  0  0  0  0  0  0  0  0
    8.8582  -13.6868   20.1366 C   0  0  0  0  0  0  0  0  0  0  0  0
    9.6154  -14.0186   18.8815 C   0  0  0  0  0  0  0  0  0  0  0  0
   11.0361  -14.4572   19.1645 C   0  0  2  0  0  0  0  0  0  0  0  0
   11.7225  -14.7764   17.9389 N   0  0  0  0  0  0  0  0  0  0  0  0
   11.0690  -15.5724   20.1394 C   0  0  0  0  0  0  0  0  0  0  0  0
   10.6090  -16.6801   19.7924 O   0  0  0  0  0  0  0  0  0  0  0  0
   11.5982  -15.4003   21.4153 N   0  0  0  0  0  0  0  0  0  0  0  0
   11.7953  -16.4950   22.3726 C   0  0  1  0  0  0  0  0  0  0  0  0
   13.2272  -16.8144   22.5455 C   0  0  0  0  0  0  0  0  0  0  0  0
   14.0144  -15.6282   23.0102 C   0  0  0  0  0  0  0  0  0  0  0  0
   15.4792  -15.7509   22.8278 C   0  0  0  0  0  0  0  0  0  0  0  0
   15.9019  -16.8467   22.3789 O   0  0  0  0  0  0  0  0  0  0  0  0
   11.2002  -16.0356   23.6395 C   0  0  0  0  0  0  0  0  0  0  0  0
   10.6566  -14.7489   23.8065 O   0  0  0  0  0  0  0  0  0  0  0  0
   16.4058  -14.7700   23.1100 O   0  0  0  0  0  0  0  0  0  0  0  0
   11.1716  -16.8289   24.6401 O   0  0  0  0  0  0  0  0  0  0  0  0
  2  1  1  1
  2  3  1  0
  4  2  1  0
  4  5  1  6
  6  4  1  0
  6  7  2  0
  9 10  2  0
  9  8  1  0
 11  9  1  0
 13 12  1  6
 12 11  1  0
 13 14  1  0
 14  6  1  0
 15 13  1  0
 16 15  2  0
 17 15  1  0
 18 19  1  1
 18 17  1  0
 19 20  1  0
 21 20  1  0
 21 25  1  0
 22 21  2  0
 23 24  1  0
 23 18  1  0
 26 23  2  0
M  END
$$$$
