VQE.pdb
     RDKit          3D

 26 25  0  0  1  0  0  0  0  0999 V2000
    7.5067  -14.4670   16.6381 C   0  0  0  0  0  0  0  0  0  0  0  0
    8.2709  -14.6576   17.9302 C   0  0  1  0  0  0  0  0  0  0  0  0
    9.7282  -14.7352   17.6001 C   0  0  0  0  0  0  0  0  0  0  0  0
    7.9268  -13.5672   18.9127 C   0  0  2  0  0  0  0  0  0  0  0  0
    8.1700  -12.2657   18.3782 N   0  0  0  0  0  0  0  0  0  0  0  0
    8.5435  -13.7864   20.2376 C   0  0  0  0  0  0  0  0  0  0  0  0
    9.5287  -13.0260   20.5319 O   0  0  0  0  0  0  0  0  0  0  0  0
    7.4650  -16.1280   27.1577 N   0  0  0  0  0  0  0  0  0  0  0  0
    7.1973  -15.9598   25.7572 C   0  0  0  0  0  0  0  0  0  0  0  0
    6.0076  -16.0910   25.3862 O   0  0  0  0  0  0  0  0  0  0  0  0
    8.2984  -15.6448   24.8099 C   0  0  0  0  0  0  0  0  0  0  0  0
    7.6873  -15.3896   23.4608 C   0  0  0  0  0  0  0  0  0  0  0  0
    8.7169  -14.9797   22.4299 C   0  0  2  0  0  0  0  0  0  0  0  0
    8.0953  -14.7683   21.1477 N   0  0  0  0  0  0  0  0  0  0  0  0
    9.8299  -15.9555   22.3661 C   0  0  0  0  0  0  0  0  0  0  0  0
    9.6339  -17.0451   21.7888 O   0  0  0  0  0  0  0  0  0  0  0  0
   11.0696  -15.6744   22.9332 N   0  0  0  0  0  0  0  0  0  0  0  0
   12.2533  -16.5273   22.7740 C   0  0  1  0  0  0  0  0  0  0  0  0
   13.4510  -15.7354   22.4271 C   0  0  0  0  0  0  0  0  0  0  0  0
   13.4067  -15.2410   21.0142 C   0  0  0  0  0  0  0  0  0  0  0  0
   14.5952  -14.4620   20.5964 C   0  0  0  0  0  0  0  0  0  0  0  0
   15.4906  -14.2911   21.4624 O   0  0  0  0  0  0  0  0  0  0  0  0
   12.4313  -17.2159   24.0642 C   0  0  0  0  0  0  0  0  0  0  0  0
   11.5868  -17.0006   25.1685 O   0  0  0  0  0  0  0  0  0  0  0  0
   14.7942  -13.9138   19.3472 O   0  0  0  0  0  0  0  0  0  0  0  0
   13.3921  -18.0460   24.2018 O   0  0  0  0  0  0  0  0  0  0  0  0
  2  1  1  6
  2  3  1  0
  4  2  1  0
  4  5  1  6
  6  4  1  0
  6  7  2  0
  9 10  2  0
  9  8  1  0
 11  9  1  0
 13 12  1  1
 12 11  1  0
 13 14  1  0
 14  6  1  0
 15 13  1  0
 16 15  2  0
 17 15  1  0
 18 19  1  1
 18 17  1  0
 19 20  1  0
 21 20  1  0
 21 25  1  0
 22 21  2  0
 23 24  1  0
 23 18  1  0
 26 23  2  0
M  END
$$$$
