VQE.pdb
     RDKit          3D

 26 25  0  0  1  0  0  0  0  0999 V2000
    5.9871  -10.5771   26.1134 C   0  0  0  0  0  0  0  0  0  0  0  0
    6.8145  -11.7711   25.6891 C   0  0  1  0  0  0  0  0  0  0  0  0
    7.8470  -12.0181   26.7434 C   0  0  0  0  0  0  0  0  0  0  0  0
    5.9266  -12.9586   25.4170 C   0  0  2  0  0  0  0  0  0  0  0  0
    5.1657  -13.3352   26.5651 N   0  0  0  0  0  0  0  0  0  0  0  0
    6.6612  -14.0828   24.8005 C   0  0  0  0  0  0  0  0  0  0  0  0
    6.9140  -15.0761   25.5654 O   0  0  0  0  0  0  0  0  0  0  0  0
    9.5706  -16.4123   18.4009 N   0  0  0  0  0  0  0  0  0  0  0  0
    8.4677  -16.0124   19.2285 C   0  0  0  0  0  0  0  0  0  0  0  0
    7.4903  -15.4787   18.6540 O   0  0  0  0  0  0  0  0  0  0  0  0
    8.5070  -16.2320   20.6980 C   0  0  0  0  0  0  0  0  0  0  0  0
    7.8472  -15.0541   21.3582 C   0  0  0  0  0  0  0  0  0  0  0  0
    7.7896  -15.1950   22.8640 C   0  0  2  0  0  0  0  0  0  0  0  0
    7.0736  -14.0910   23.4502 N   0  0  0  0  0  0  0  0  0  0  0  0
    9.1449  -15.3609   23.4393 C   0  0  0  0  0  0  0  0  0  0  0  0
    9.8161  -14.3374   23.6862 O   0  0  0  0  0  0  0  0  0  0  0  0
    9.6676  -16.6238   23.7025 N   0  0  0  0  0  0  0  0  0  0  0  0
   10.8485  -16.8609   24.5410 C   0  0  1  0  0  0  0  0  0  0  0  0
   10.5423  -17.7661   25.6674 C   0  0  0  0  0  0  0  0  0  0  0  0
   11.7665  -18.1129   26.4572 C   0  0  0  0  0  0  0  0  0  0  0  0
   11.5269  -19.0331   27.5929 C   0  0  0  0  0  0  0  0  0  0  0  0
   10.3501  -19.4498   27.7427 O   0  0  0  0  0  0  0  0  0  0  0  0
   11.8639  -17.4503   23.6511 C   0  0  0  0  0  0  0  0  0  0  0  0
   13.2447  -17.3708   23.9084 O   0  0  0  0  0  0  0  0  0  0  0  0
   12.4814  -19.4626   28.4901 O   0  0  0  0  0  0  0  0  0  0  0  0
   11.4891  -18.0613   22.5941 O   0  0  0  0  0  0  0  0  0  0  0  0
  2  1  1  1
  2  3  1  0
  4  2  1  0
  4  5  1  1
  6  4  1  0
  6  7  2  0
  9 10  2  0
  9  8  1  0
 11  9  1  0
 13 12  1  6
 12 11  1  0
 13 14  1  0
 14  6  1  0
 15 13  1  0
 16 15  2  0
 17 15  1  0
 18 19  1  1
 18 17  1  0
 19 20  1  0
 21 20  1  0
 21 25  1  0
 22 21  2  0
 23 24  1  0
 23 18  1  0
 26 23  2  0
M  END
$$$$
