VQE.pdb
     RDKit          3D

 26 25  0  0  1  0  0  0  0  0999 V2000
   11.5777  -16.4952   17.9352 C   0  0  0  0  0  0  0  0  0  0  0  0
   10.9983  -15.1157   17.7086 C   0  0  1  0  0  0  0  0  0  0  0  0
   10.1454  -15.1669   16.4803 C   0  0  0  0  0  0  0  0  0  0  0  0
   10.2663  -14.6421   18.9383 C   0  0  2  0  0  0  0  0  0  0  0  0
    9.6176  -13.3876   18.7281 N   0  0  0  0  0  0  0  0  0  0  0  0
   11.1156  -14.6726   20.1473 C   0  0  0  0  0  0  0  0  0  0  0  0
   12.0922  -13.8473   20.1693 O   0  0  0  0  0  0  0  0  0  0  0  0
   10.0860  -17.8261   25.4847 N   0  0  0  0  0  0  0  0  0  0  0  0
   11.4827  -17.5211   25.6166 C   0  0  0  0  0  0  0  0  0  0  0  0
   12.0491  -17.8948   26.6701 O   0  0  0  0  0  0  0  0  0  0  0  0
   12.2025  -16.7937   24.5387 C   0  0  0  0  0  0  0  0  0  0  0  0
   11.2282  -16.5410   23.4227 C   0  0  0  0  0  0  0  0  0  0  0  0
   11.8265  -15.7022   22.3140 C   0  0  2  0  0  0  0  0  0  0  0  0
   10.8892  -15.5488   21.2310 N   0  0  0  0  0  0  0  0  0  0  0  0
   13.1258  -16.2549   21.8649 C   0  0  0  0  0  0  0  0  0  0  0  0
   13.1216  -17.2733   21.1424 O   0  0  0  0  0  0  0  0  0  0  0  0
   14.3292  -15.6607   22.2339 N   0  0  0  0  0  0  0  0  0  0  0  0
   15.6463  -16.1527   21.8132 C   0  0  1  0  0  0  0  0  0  0  0  0
   16.0159  -15.6419   20.4773 C   0  0  0  0  0  0  0  0  0  0  0  0
   16.1606  -14.1515   20.4668 C   0  0  0  0  0  0  0  0  0  0  0  0
   16.4836  -13.5730   19.1421 C   0  0  0  0  0  0  0  0  0  0  0  0
   15.5099  -13.2536   18.4135 O   0  0  0  0  0  0  0  0  0  0  0  0
   16.5972  -15.6877   22.8378 C   0  0  0  0  0  0  0  0  0  0  0  0
   17.9644  -16.0184   22.8181 O   0  0  0  0  0  0  0  0  0  0  0  0
   17.7536  -13.3612   18.6493 O   0  0  0  0  0  0  0  0  0  0  0  0
   16.1756  -14.9534   23.7939 O   0  0  0  0  0  0  0  0  0  0  0  0
  2  1  1  1
  2  3  1  0
  4  2  1  0
  4  5  1  6
  6  4  1  0
  6  7  2  0
  9 10  2  0
  9  8  1  0
 11  9  1  0
 13 12  1  1
 12 11  1  0
 13 14  1  0
 14  6  1  0
 15 13  1  0
 16 15  2  0
 17 15  1  0
 18 19  1  6
 18 17  1  0
 19 20  1  0
 21 20  1  0
 21 25  1  0
 22 21  2  0
 23 24  1  0
 23 18  1  0
 26 23  2  0
M  END
$$$$
