VQE.pdb
     RDKit          3D

 26 25  0  0  1  0  0  0  0  0999 V2000
    7.3254  -12.1393   19.2141 C   0  0  0  0  0  0  0  0  0  0  0  0
    8.5298  -12.9357   19.6670 C   0  0  1  0  0  0  0  0  0  0  0  0
    8.1992  -13.5696   20.9814 C   0  0  0  0  0  0  0  0  0  0  0  0
    8.9415  -13.9209   18.6029 C   0  0  2  0  0  0  0  0  0  0  0  0
    7.8837  -14.8174   18.2620 N   0  0  0  0  0  0  0  0  0  0  0  0
   10.2122  -14.6024   18.9262 C   0  0  0  0  0  0  0  0  0  0  0  0
   10.1111  -15.7896   19.3908 O   0  0  0  0  0  0  0  0  0  0  0  0
   15.8732  -13.1216   16.7855 N   0  0  0  0  0  0  0  0  0  0  0  0
   16.2136  -14.1519   17.7257 C   0  0  0  0  0  0  0  0  0  0  0  0
   17.4230  -14.4693   17.8081 O   0  0  0  0  0  0  0  0  0  0  0  0
   15.1610  -14.7980   18.5526 C   0  0  0  0  0  0  0  0  0  0  0  0
   13.8606  -14.0984   18.2732 C   0  0  0  0  0  0  0  0  0  0  0  0
   12.7093  -14.6857   19.0606 C   0  0  2  0  0  0  0  0  0  0  0  0
   11.4791  -14.0061   18.7447 N   0  0  0  0  0  0  0  0  0  0  0  0
   12.9988  -14.6871   20.5137 C   0  0  0  0  0  0  0  0  0  0  0  0
   12.9473  -13.6035   21.1319 O   0  0  0  0  0  0  0  0  0  0  0  0
   13.3219  -15.8633   21.1842 N   0  0  0  0  0  0  0  0  0  0  0  0
   13.5026  -15.9521   22.6379 C   0  0  1  0  0  0  0  0  0  0  0  0
   12.9893  -17.2299   23.1723 C   0  0  0  0  0  0  0  0  0  0  0  0
   13.1976  -17.3437   24.6509 C   0  0  0  0  0  0  0  0  0  0  0  0
   12.6564  -18.5827   25.2559 C   0  0  0  0  0  0  0  0  0  0  0  0
   13.0772  -19.6703   24.7857 O   0  0  0  0  0  0  0  0  0  0  0  0
   14.9514  -15.8253   22.8732 C   0  0  0  0  0  0  0  0  0  0  0  0
   15.4913  -15.3712   24.0902 O   0  0  0  0  0  0  0  0  0  0  0  0
   11.7365  -18.6371   26.2812 O   0  0  0  0  0  0  0  0  0  0  0  0
   15.7653  -16.1354   21.9391 O   0  0  0  0  0  0  0  0  0  0  0  0
  2  1  1  6
  2  3  1  0
  4  2  1  0
  4  5  1  1
  6  4  1  0
  6  7  2  0
  9 10  2  0
  9  8  1  0
 11  9  1  0
 13 12  1  6
 12 11  1  0
 13 14  1  0
 14  6  1  0
 15 13  1  0
 16 15  2  0
 17 15  1  0
 18 19  1  6
 18 17  1  0
 19 20  1  0
 21 20  1  0
 21 25  1  0
 22 21  2  0
 23 24  1  0
 23 18  1  0
 26 23  2  0
M  END
$$$$
