TLL.pdb
     RDKit          3D

 24 23  0  0  1  0  0  0  0  0999 V2000
    7.9301  -20.1789   21.7040 C   0  0  0  0  0  0  0  0  0  0  0  0
    8.4120  -18.9345   22.4482 C   0  0  1  0  0  0  0  0  0  0  0  0
    9.7094  -19.1423   22.8885 O   0  0  0  0  0  0  0  0  0  0  0  0
    8.3675  -17.7870   21.4712 C   0  0  2  0  0  0  0  0  0  0  0  0
    9.1710  -18.0109   20.3055 N   0  0  0  0  0  0  0  0  0  0  0  0
    8.8166  -16.5387   22.1608 C   0  0  0  0  0  0  0  0  0  0  0  0
    9.9263  -16.0114   21.9075 O   0  0  0  0  0  0  0  0  0  0  0  0
    5.9300  -13.6184   26.5244 C   0  0  0  0  0  0  0  0  0  0  0  0
    7.0332  -13.3417   25.5864 C   0  0  2  0  0  0  0  0  0  0  0  0
    7.2146  -11.8233   25.4680 C   0  0  0  0  0  0  0  0  0  0  0  0
    7.0918  -14.0029   24.2812 C   0  0  0  0  0  0  0  0  0  0  0  0
    8.3382  -14.6393   23.7836 C   0  0  2  0  0  0  0  0  0  0  0  0
    7.9803  -15.9244   23.1259 N   0  0  0  0  0  0  0  0  0  0  0  0
    9.3572  -14.8913   24.8069 C   0  0  0  0  0  0  0  0  0  0  0  0
   10.3655  -14.1738   25.0046 O   0  0  0  0  0  0  0  0  0  0  0  0
   11.2616  -13.8278   27.7999 C   0  0  0  0  0  0  0  0  0  0  0  0
    9.9567  -14.5344   28.1873 C   0  0  2  0  0  0  0  0  0  0  0  0
    9.5767  -14.1951   29.6105 C   0  0  0  0  0  0  0  0  0  0  0  0
   10.1352  -16.0055   27.9815 C   0  0  0  0  0  0  0  0  0  0  0  0
   10.3831  -16.4212   26.5592 C   0  0  2  0  0  0  0  0  0  0  0  0
    9.2791  -16.0218   25.6974 N   0  0  0  0  0  0  0  0  0  0  0  0
   10.5170  -17.8862   26.4584 C   0  0  0  0  0  0  0  0  0  0  0  0
   11.4095  -18.4667   27.1181 O   0  0  0  0  0  0  0  0  0  0  0  0
    9.7080  -18.6835   25.6704 O   0  0  0  0  0  0  0  0  0  0  0  0
  2  4  1  0
  2  1  1  6
  3  2  1  0
  4  5  1  6
  6  4  1  0
  6 13  1  0
  7  6  2  0
  9  8  1  6
  9 11  1  0
  9 10  1  0
 12 11  1  1
 12 13  1  0
 14 12  1  0
 15 14  2  0
 17 16  1  1
 17 19  1  0
 18 17  1  0
 20 19  1  1
 20 21  1  0
 20 22  1  0
 21 14  1  0
 22 24  1  0
 23 22  2  0
M  END
$$$$
