TLL.pdb
     RDKit          3D

 24 23  0  0  1  0  0  0  0  0999 V2000
    8.0735  -19.1505   23.6821 C   0  0  0  0  0  0  0  0  0  0  0  0
    8.8206  -18.8941   22.3741 C   0  0  1  0  0  0  0  0  0  0  0  0
    8.6442  -19.9788   21.5300 O   0  0  0  0  0  0  0  0  0  0  0  0
    8.2287  -17.6506   21.7604 C   0  0  2  0  0  0  0  0  0  0  0  0
    8.6000  -17.4708   20.3876 N   0  0  0  0  0  0  0  0  0  0  0  0
    8.6550  -16.4600   22.5580 C   0  0  0  0  0  0  0  0  0  0  0  0
    9.6796  -15.8012   22.2581 O   0  0  0  0  0  0  0  0  0  0  0  0
    7.8802  -12.1350   25.8991 C   0  0  0  0  0  0  0  0  0  0  0  0
    6.7186  -12.9668   25.5355 C   0  0  2  0  0  0  0  0  0  0  0  0
    5.6790  -12.8859   26.6603 C   0  0  0  0  0  0  0  0  0  0  0  0
    6.8988  -14.3381   25.0549 C   0  0  0  0  0  0  0  0  0  0  0  0
    8.1571  -14.7766   24.3987 C   0  0  2  0  0  0  0  0  0  0  0  0
    7.8943  -16.0532   23.6823 N   0  0  0  0  0  0  0  0  0  0  0  0
    9.2968  -14.9591   25.3024 C   0  0  0  0  0  0  0  0  0  0  0  0
    9.8657  -14.0369   25.9321 O   0  0  0  0  0  0  0  0  0  0  0  0
   11.9155  -14.1382   27.7216 C   0  0  0  0  0  0  0  0  0  0  0  0
   10.3913  -14.2840   27.8096 C   0  0  2  0  0  0  0  0  0  0  0  0
    9.8515  -13.4789   28.9695 C   0  0  0  0  0  0  0  0  0  0  0  0
   10.0602  -15.7385   27.9238 C   0  0  0  0  0  0  0  0  0  0  0  0
   10.5547  -16.5921   26.7906 C   0  0  2  0  0  0  0  0  0  0  0  0
    9.8743  -16.2566   25.5474 N   0  0  0  0  0  0  0  0  0  0  0  0
   10.3032  -18.0193   27.0628 C   0  0  0  0  0  0  0  0  0  0  0  0
   10.8768  -18.5688   28.0312 O   0  0  0  0  0  0  0  0  0  0  0  0
    9.4588  -18.8126   26.3085 O   0  0  0  0  0  0  0  0  0  0  0  0
  2  4  1  0
  2  1  1  1
  3  2  1  0
  4  5  1  6
  6  4  1  0
  6 13  1  0
  7  6  2  0
  9  8  1  1
  9 11  1  0
  9 10  1  0
 12 11  1  1
 12 13  1  0
 14 12  1  0
 15 14  2  0
 17 16  1  1
 17 19  1  0
 18 17  1  0
 20 19  1  1
 20 21  1  0
 20 22  1  0
 21 14  1  0
 22 24  1  0
 23 22  2  0
M  END
$$$$
