TLL.pdb
     RDKit          3D

 24 23  0  0  1  0  0  0  0  0999 V2000
    9.4490  -17.5720   18.2693 C   0  0  0  0  0  0  0  0  0  0  0  0
    9.5964  -16.5778   19.4202 C   0  0  1  0  0  0  0  0  0  0  0  0
    8.7303  -15.5154   19.2166 O   0  0  0  0  0  0  0  0  0  0  0  0
    9.2387  -17.3100   20.6888 C   0  0  2  0  0  0  0  0  0  0  0  0
    7.8854  -17.7821   20.7018 N   0  0  0  0  0  0  0  0  0  0  0  0
    9.4686  -16.4062   21.8575 C   0  0  0  0  0  0  0  0  0  0  0  0
   10.5844  -15.8719   22.0650 O   0  0  0  0  0  0  0  0  0  0  0  0
    5.6699  -13.4770   25.8512 C   0  0  0  0  0  0  0  0  0  0  0  0
    7.0126  -13.6368   25.2637 C   0  0  2  0  0  0  0  0  0  0  0  0
    7.6135  -12.2479   25.0145 C   0  0  0  0  0  0  0  0  0  0  0  0
    7.2338  -14.5395   24.1323 C   0  0  0  0  0  0  0  0  0  0  0  0
    8.5539  -15.1741   23.8862 C   0  0  2  0  0  0  0  0  0  0  0  0
    8.4110  -16.1369   22.7615 N   0  0  0  0  0  0  0  0  0  0  0  0
    9.1338  -15.8671   25.0405 C   0  0  0  0  0  0  0  0  0  0  0  0
    8.4941  -16.5994   25.8310 O   0  0  0  0  0  0  0  0  0  0  0  0
    9.4211  -14.8627   29.8455 C   0  0  0  0  0  0  0  0  0  0  0  0
   10.7136  -14.7515   29.0274 C   0  0  2  0  0  0  0  0  0  0  0  0
   11.4968  -13.5277   29.4440 C   0  0  0  0  0  0  0  0  0  0  0  0
   10.3549  -14.7303   27.5751 C   0  0  0  0  0  0  0  0  0  0  0  0
   11.0214  -15.7878   26.7418 C   0  0  2  0  0  0  0  0  0  0  0  0
   10.5326  -15.7584   25.3702 N   0  0  0  0  0  0  0  0  0  0  0  0
   10.7446  -17.1313   27.2826 C   0  0  0  0  0  0  0  0  0  0  0  0
   11.3489  -17.5145   28.3107 O   0  0  0  0  0  0  0  0  0  0  0  0
    9.8438  -18.0187   26.7238 O   0  0  0  0  0  0  0  0  0  0  0  0
  2  4  1  0
  2  1  1  6
  3  2  1  0
  4  5  1  6
  6  4  1  0
  6 13  1  0
  7  6  2  0
  9  8  1  6
  9 11  1  0
  9 10  1  0
 12 11  1  1
 12 13  1  0
 14 12  1  0
 15 14  2  0
 17 16  1  1
 17 19  1  0
 18 17  1  0
 20 19  1  1
 20 21  1  0
 20 22  1  0
 21 14  1  0
 22 24  1  0
 23 22  2  0
M  END
$$$$
