TLL.pdb
     RDKit          3D

 24 23  0  0  1  0  0  0  0  0999 V2000
    6.5106  -18.6650   23.4592 C   0  0  0  0  0  0  0  0  0  0  0  0
    7.4695  -19.5202   22.6323 C   0  0  1  0  0  0  0  0  0  0  0  0
    6.8969  -20.7631   22.4141 O   0  0  0  0  0  0  0  0  0  0  0  0
    7.6857  -18.8056   21.3223 C   0  0  2  0  0  0  0  0  0  0  0  0
    8.2883  -19.6368   20.3222 N   0  0  0  0  0  0  0  0  0  0  0  0
    8.5385  -17.6001   21.5568 C   0  0  0  0  0  0  0  0  0  0  0  0
    9.7896  -17.6797   21.6031 O   0  0  0  0  0  0  0  0  0  0  0  0
    9.0841  -13.4888   19.0876 C   0  0  0  0  0  0  0  0  0  0  0  0
    7.8679  -13.7139   19.8900 C   0  0  2  0  0  0  0  0  0  0  0  0
    6.8407  -12.6271   19.5494 C   0  0  0  0  0  0  0  0  0  0  0  0
    7.9542  -13.9521   21.3322 C   0  0  0  0  0  0  0  0  0  0  0  0
    8.7338  -15.0861   21.8911 C   0  0  2  0  0  0  0  0  0  0  0  0
    7.9345  -16.3303   21.7328 N   0  0  0  0  0  0  0  0  0  0  0  0
    9.1204  -14.9395   23.2975 C   0  0  0  0  0  0  0  0  0  0  0  0
   10.2056  -14.4545   23.6945 O   0  0  0  0  0  0  0  0  0  0  0  0
    6.1083  -12.2853   26.7208 C   0  0  0  0  0  0  0  0  0  0  0  0
    7.4581  -12.9990   26.8645 C   0  0  2  0  0  0  0  0  0  0  0  0
    8.5275  -12.2641   26.0891 C   0  0  0  0  0  0  0  0  0  0  0  0
    7.2966  -14.4148   26.4089 C   0  0  0  0  0  0  0  0  0  0  0  0
    8.5134  -15.0165   25.7652 C   0  0  2  0  0  0  0  0  0  0  0  0
    8.2552  -15.3552   24.3725 N   0  0  0  0  0  0  0  0  0  0  0  0
    8.9118  -16.2563   26.4567 C   0  0  0  0  0  0  0  0  0  0  0  0
    8.8471  -17.3472   25.8446 O   0  0  0  0  0  0  0  0  0  0  0  0
    9.3633  -16.3018   27.7626 O   0  0  0  0  0  0  0  0  0  0  0  0
  2  4  1  0
  2  1  1  1
  3  2  1  0
  4  5  1  6
  6  4  1  0
  6 13  1  0
  7  6  2  0
  9  8  1  1
  9 11  1  0
  9 10  1  0
 12 11  1  1
 12 13  1  0
 14 12  1  0
 15 14  2  0
 17 16  1  6
 17 19  1  0
 18 17  1  0
 20 19  1  1
 20 21  1  0
 20 22  1  0
 21 14  1  0
 22 24  1  0
 23 22  2  0
M  END
$$$$
