TLL.pdb
     RDKit          3D

 24 23  0  0  1  0  0  0  0  0999 V2000
    8.0582  -21.1683   22.8918 C   0  0  0  0  0  0  0  0  0  0  0  0
    8.5721  -19.7307   22.9549 C   0  0  1  0  0  0  0  0  0  0  0  0
    9.6212  -19.6625   23.8577 O   0  0  0  0  0  0  0  0  0  0  0  0
    9.0470  -19.3671   21.5709 C   0  0  2  0  0  0  0  0  0  0  0  0
   10.0948  -20.2214   21.0946 N   0  0  0  0  0  0  0  0  0  0  0  0
    9.5152  -17.9471   21.5709 C   0  0  0  0  0  0  0  0  0  0  0  0
   10.7350  -17.6578   21.6139 O   0  0  0  0  0  0  0  0  0  0  0  0
    6.8568  -12.3232   20.6434 C   0  0  0  0  0  0  0  0  0  0  0  0
    8.0118  -13.1716   20.9895 C   0  0  2  0  0  0  0  0  0  0  0  0
    9.1717  -12.8412   20.0420 C   0  0  0  0  0  0  0  0  0  0  0  0
    7.8529  -14.6151   21.1769 C   0  0  0  0  0  0  0  0  0  0  0  0
    8.9658  -15.4655   21.6712 C   0  0  2  0  0  0  0  0  0  0  0  0
    8.5709  -16.8916   21.5213 N   0  0  0  0  0  0  0  0  0  0  0  0
    9.3633  -15.2210   23.0608 C   0  0  0  0  0  0  0  0  0  0  0  0
   10.4735  -14.7619   23.4174 O   0  0  0  0  0  0  0  0  0  0  0  0
    8.1584  -12.1381   26.0234 C   0  0  0  0  0  0  0  0  0  0  0  0
    7.1254  -13.2109   25.6574 C   0  0  2  0  0  0  0  0  0  0  0  0
    5.7568  -12.8192   26.1658 C   0  0  0  0  0  0  0  0  0  0  0  0
    7.5854  -14.5212   26.2138 C   0  0  0  0  0  0  0  0  0  0  0  0
    8.7891  -15.1108   25.5351 C   0  0  2  0  0  0  0  0  0  0  0  0
    8.4802  -15.4982   24.1656 N   0  0  0  0  0  0  0  0  0  0  0  0
    9.2502  -16.3184   26.2444 C   0  0  0  0  0  0  0  0  0  0  0  0
    9.6310  -16.2225   27.4338 O   0  0  0  0  0  0  0  0  0  0  0  0
    9.2922  -17.5786   25.6777 O   0  0  0  0  0  0  0  0  0  0  0  0
  2  4  1  0
  2  1  1  6
  3  2  1  0
  4  5  1  1
  6  4  1  0
  6 13  1  0
  7  6  2  0
  9  8  1  6
  9 11  1  0
  9 10  1  0
 12 11  1  1
 12 13  1  0
 14 12  1  0
 15 14  2  0
 17 16  1  1
 17 19  1  0
 18 17  1  0
 20 19  1  1
 20 21  1  0
 20 22  1  0
 21 14  1  0
 22 24  1  0
 23 22  2  0
M  END
$$$$
