TLL.pdb
     RDKit          3D

 24 23  0  0  1  0  0  0  0  0999 V2000
    6.1357  -17.8442   24.3122 C   0  0  0  0  0  0  0  0  0  0  0  0
    6.6525  -18.9835   23.4349 C   0  0  1  0  0  0  0  0  0  0  0  0
    5.7431  -20.0287   23.4652 O   0  0  0  0  0  0  0  0  0  0  0  0
    6.7821  -18.4420   22.0337 C   0  0  2  0  0  0  0  0  0  0  0  0
    6.9742  -19.4677   21.0511 N   0  0  0  0  0  0  0  0  0  0  0  0
    7.9232  -17.4771   21.9850 C   0  0  0  0  0  0  0  0  0  0  0  0
    9.1125  -17.8695   21.9129 O   0  0  0  0  0  0  0  0  0  0  0  0
    8.7823  -14.0510   18.9866 C   0  0  0  0  0  0  0  0  0  0  0  0
    7.8479  -13.7244   20.0791 C   0  0  2  0  0  0  0  0  0  0  0  0
    7.1684  -12.3853   19.7670 C   0  0  0  0  0  0  0  0  0  0  0  0
    8.2703  -13.8102   21.4785 C   0  0  0  0  0  0  0  0  0  0  0  0
    8.7687  -15.0795   22.0672 C   0  0  2  0  0  0  0  0  0  0  0  0
    7.6719  -16.0828   22.0202 N   0  0  0  0  0  0  0  0  0  0  0  0
    9.2632  -14.9729   23.4431 C   0  0  0  0  0  0  0  0  0  0  0  0
   10.3808  -14.5083   23.7679 O   0  0  0  0  0  0  0  0  0  0  0  0
    8.1987  -12.1289   26.4630 C   0  0  0  0  0  0  0  0  0  0  0  0
    7.2107  -13.2597   26.1508 C   0  0  2  0  0  0  0  0  0  0  0  0
    5.8378  -12.9220   26.6856 C   0  0  0  0  0  0  0  0  0  0  0  0
    7.7486  -14.5314   26.7267 C   0  0  0  0  0  0  0  0  0  0  0  0
    8.8732  -15.1539   25.9489 C   0  0  2  0  0  0  0  0  0  0  0  0
    8.4779  -15.4083   24.5705 N   0  0  0  0  0  0  0  0  0  0  0  0
    9.2680  -16.4446   26.5426 C   0  0  0  0  0  0  0  0  0  0  0  0
    9.6698  -16.4761   27.7286 O   0  0  0  0  0  0  0  0  0  0  0  0
    9.2242  -17.6507   25.8686 O   0  0  0  0  0  0  0  0  0  0  0  0
  2  4  1  0
  2  1  1  1
  3  2  1  0
  4  5  1  6
  6  4  1  0
  6 13  1  0
  7  6  2  0
  9  8  1  6
  9 11  1  0
  9 10  1  0
 12 11  1  1
 12 13  1  0
 14 12  1  0
 15 14  2  0
 17 16  1  1
 17 19  1  0
 18 17  1  0
 20 19  1  1
 20 21  1  0
 20 22  1  0
 21 14  1  0
 22 24  1  0
 23 22  2  0
M  END
$$$$
