TLL.pdb
     RDKit          3D

 24 23  0  0  1  0  0  0  0  0999 V2000
    6.3093  -20.1703   21.6467 C   0  0  0  0  0  0  0  0  0  0  0  0
    7.2561  -19.0541   22.0852 C   0  0  1  0  0  0  0  0  0  0  0  0
    8.1666  -19.5630   22.9976 O   0  0  0  0  0  0  0  0  0  0  0  0
    7.9693  -18.5652   20.8501 C   0  0  2  0  0  0  0  0  0  0  0  0
    8.7850  -19.5720   20.2373 N   0  0  0  0  0  0  0  0  0  0  0  0
    8.8114  -17.3822   21.2066 C   0  0  0  0  0  0  0  0  0  0  0  0
   10.0584  -17.4710   21.3100 O   0  0  0  0  0  0  0  0  0  0  0  0
    8.9642  -13.4636   18.7685 C   0  0  0  0  0  0  0  0  0  0  0  0
    7.9167  -13.6122   19.7953 C   0  0  2  0  0  0  0  0  0  0  0  0
    6.8320  -12.5551   19.5539 C   0  0  0  0  0  0  0  0  0  0  0  0
    8.2661  -13.7234   21.2129 C   0  0  0  0  0  0  0  0  0  0  0  0
    8.9923  -14.9034   21.7479 C   0  0  2  0  0  0  0  0  0  0  0  0
    8.2014  -16.1238   21.4363 N   0  0  0  0  0  0  0  0  0  0  0  0
    9.2656  -14.8632   23.1875 C   0  0  0  0  0  0  0  0  0  0  0  0
   10.1848  -14.2009   23.7231 O   0  0  0  0  0  0  0  0  0  0  0  0
    8.2212  -12.5186   26.4091 C   0  0  0  0  0  0  0  0  0  0  0  0
    7.1683  -13.4344   25.7727 C   0  0  2  0  0  0  0  0  0  0  0  0
    5.7771  -12.9757   26.1453 C   0  0  0  0  0  0  0  0  0  0  0  0
    7.4389  -14.8405   26.2063 C   0  0  0  0  0  0  0  0  0  0  0  0
    8.6439  -15.4780   25.5749 C   0  0  2  0  0  0  0  0  0  0  0  0
    8.4732  -15.6067   24.1343 N   0  0  0  0  0  0  0  0  0  0  0  0
    8.8648  -16.8309   26.1181 C   0  0  0  0  0  0  0  0  0  0  0  0
    9.0248  -16.9773   27.3517 O   0  0  0  0  0  0  0  0  0  0  0  0
    8.9077  -17.9763   25.3452 O   0  0  0  0  0  0  0  0  0  0  0  0
  2  4  1  0
  2  1  1  6
  3  2  1  0
  4  5  1  1
  6  4  1  0
  6 13  1  0
  7  6  2  0
  9  8  1  6
  9 11  1  0
  9 10  1  0
 12 11  1  1
 12 13  1  0
 14 12  1  0
 15 14  2  0
 17 16  1  1
 17 19  1  0
 18 17  1  0
 20 19  1  1
 20 21  1  0
 20 22  1  0
 21 14  1  0
 22 24  1  0
 23 22  2  0
M  END
$$$$
