TLL.pdb
     RDKit          3D

 24 23  0  0  1  0  0  0  0  0999 V2000
    7.9883  -20.1935   21.7931 C   0  0  0  0  0  0  0  0  0  0  0  0
    8.4898  -18.9463   22.5194 C   0  0  1  0  0  0  0  0  0  0  0  0
    9.8590  -19.0491   22.7064 O   0  0  0  0  0  0  0  0  0  0  0  0
    8.1679  -17.7620   21.6435 C   0  0  2  0  0  0  0  0  0  0  0  0
    8.7885  -17.8329   20.3534 N   0  0  0  0  0  0  0  0  0  0  0  0
    8.5925  -16.5084   22.3391 C   0  0  0  0  0  0  0  0  0  0  0  0
    9.6364  -15.8958   22.0094 O   0  0  0  0  0  0  0  0  0  0  0  0
    5.9448  -12.7708   26.6657 C   0  0  0  0  0  0  0  0  0  0  0  0
    7.0362  -13.0738   25.7220 C   0  0  2  0  0  0  0  0  0  0  0  0
    7.3591  -11.8105   24.9146 C   0  0  0  0  0  0  0  0  0  0  0  0
    6.9854  -14.2666   24.8742 C   0  0  0  0  0  0  0  0  0  0  0  0
    8.1719  -14.7351   24.1135 C   0  0  2  0  0  0  0  0  0  0  0  0
    7.8079  -15.9871   23.3978 N   0  0  0  0  0  0  0  0  0  0  0  0
    9.3713  -14.9754   24.9213 C   0  0  0  0  0  0  0  0  0  0  0  0
   10.4022  -14.2631   24.9010 O   0  0  0  0  0  0  0  0  0  0  0  0
   11.4840  -13.8114   27.7778 C   0  0  0  0  0  0  0  0  0  0  0  0
   10.3061  -14.6385   28.3074 C   0  0  2  0  0  0  0  0  0  0  0  0
   10.1054  -14.3837   29.7838 C   0  0  0  0  0  0  0  0  0  0  0  0
   10.5680  -16.0811   28.0096 C   0  0  0  0  0  0  0  0  0  0  0  0
   10.6899  -16.4151   26.5499 C   0  0  2  0  0  0  0  0  0  0  0  0
    9.4648  -16.0869   25.8340 N   0  0  0  0  0  0  0  0  0  0  0  0
   10.9407  -17.8560   26.3624 C   0  0  0  0  0  0  0  0  0  0  0  0
   11.9753  -18.3665   26.8502 O   0  0  0  0  0  0  0  0  0  0  0  0
   10.0952  -18.7040   25.6716 O   0  0  0  0  0  0  0  0  0  0  0  0
  2  4  1  0
  2  1  1  6
  3  2  1  0
  4  5  1  6
  6  4  1  0
  6 13  1  0
  7  6  2  0
  9  8  1  6
  9 11  1  0
  9 10  1  0
 12 11  1  1
 12 13  1  0
 14 12  1  0
 15 14  2  0
 17 16  1  1
 17 19  1  0
 18 17  1  0
 20 19  1  1
 20 21  1  0
 20 22  1  0
 21 14  1  0
 22 24  1  0
 23 22  2  0
M  END
$$$$
