TLL.pdb
     RDKit          3D

 24 23  0  0  1  0  0  0  0  0999 V2000
    4.8734  -19.4080   23.1896 C   0  0  0  0  0  0  0  0  0  0  0  0
    6.1080  -18.5131   23.2885 C   0  0  1  0  0  0  0  0  0  0  0  0
    6.9876  -19.0532   24.2131 O   0  0  0  0  0  0  0  0  0  0  0  0
    6.7418  -18.4773   21.9209 C   0  0  2  0  0  0  0  0  0  0  0  0
    7.1495  -19.7708   21.4571 N   0  0  0  0  0  0  0  0  0  0  0  0
    7.9206  -17.5580   21.9512 C   0  0  0  0  0  0  0  0  0  0  0  0
    9.0927  -17.9889   21.8328 O   0  0  0  0  0  0  0  0  0  0  0  0
    8.6543  -14.1569   18.9924 C   0  0  0  0  0  0  0  0  0  0  0  0
    7.8170  -13.8355   20.1626 C   0  0  2  0  0  0  0  0  0  0  0  0
    7.1024  -12.5021   19.9100 C   0  0  0  0  0  0  0  0  0  0  0  0
    8.3616  -13.9157   21.5194 C   0  0  0  0  0  0  0  0  0  0  0  0
    8.8546  -15.1960   22.0885 C   0  0  2  0  0  0  0  0  0  0  0  0
    7.7258  -16.1641   22.1169 N   0  0  0  0  0  0  0  0  0  0  0  0
    9.4346  -15.0954   23.4311 C   0  0  0  0  0  0  0  0  0  0  0  0
   10.5246  -14.5386   23.6998 O   0  0  0  0  0  0  0  0  0  0  0  0
    8.5158  -12.4799   27.0704 C   0  0  0  0  0  0  0  0  0  0  0  0
    7.6105  -13.5463   26.4418 C   0  0  2  0  0  0  0  0  0  0  0  0
    6.1775  -13.3445   26.8783 C   0  0  0  0  0  0  0  0  0  0  0  0
    8.1354  -14.8956   26.8188 C   0  0  0  0  0  0  0  0  0  0  0  0
    9.2452  -15.4106   25.9468 C   0  0  2  0  0  0  0  0  0  0  0  0
    8.7763  -15.6472   24.5884 N   0  0  0  0  0  0  0  0  0  0  0  0
    9.7671  -16.6886   26.4648 C   0  0  0  0  0  0  0  0  0  0  0  0
   10.2508  -16.7300   27.6195 O   0  0  0  0  0  0  0  0  0  0  0  0
    9.7595  -17.8725   25.7511 O   0  0  0  0  0  0  0  0  0  0  0  0
  2  4  1  0
  2  1  1  6
  3  2  1  0
  4  5  1  1
  6  4  1  0
  6 13  1  0
  7  6  2  0
  9  8  1  6
  9 11  1  0
  9 10  1  0
 12 11  1  1
 12 13  1  0
 14 12  1  0
 15 14  2  0
 17 16  1  1
 17 19  1  0
 18 17  1  0
 20 19  1  1
 20 21  1  0
 20 22  1  0
 21 14  1  0
 22 24  1  0
 23 22  2  0
M  END
$$$$
