EKR.pdb
     RDKit          3D

 30 29  0  0  1  0  0  0  0  0999 V2000
   16.3133  -17.5131    3.0974 N   0  0  0  0  0  0  0  0  0  0  0  0
   16.4621  -17.4971    4.5485 C   0  0  1  0  0  0  0  0  0  0  0  0
   17.4211  -18.5830    4.9181 C   0  0  0  0  0  0  0  0  0  0  0  0
   16.8337  -19.9712    4.8177 C   0  0  0  0  0  0  0  0  0  0  0  0
   17.7798  -20.9927    5.3458 C   0  0  0  0  0  0  0  0  0  0  0  0
   18.8929  -20.6281    5.7952 O   0  0  0  0  0  0  0  0  0  0  0  0
   16.8654  -16.1402    4.9875 C   0  0  0  0  0  0  0  0  0  0  0  0
   17.4177  -15.3682    4.1708 O   0  0  0  0  0  0  0  0  0  0  0  0
   17.4949  -22.3521    5.3700 O   0  0  0  0  0  0  0  0  0  0  0  0
   16.6385  -15.6790    6.3266 N   0  0  0  0  0  0  0  0  0  0  0  0
   17.0622  -14.4341    6.8651 C   0  0  1  0  0  0  0  0  0  0  0  0
   16.1453  -13.7573    7.8266 C   0  0  0  0  0  0  0  0  0  0  0  0
   16.5524  -12.4160    8.3008 C   0  0  0  0  0  0  0  0  0  0  0  0
   15.6315  -11.7967    9.3100 C   0  0  0  0  0  0  0  0  0  0  0  0
   15.9646  -10.4166    9.7525 C   0  0  0  0  0  0  0  0  0  0  0  0
   15.0786   -9.8268   10.7131 N   0  0  0  0  0  0  0  0  0  0  0  0
   18.4945  -14.3781    7.2636 C   0  0  0  0  0  0  0  0  0  0  0  0
   19.0225  -15.4068    7.7259 O   0  0  0  0  0  0  0  0  0  0  0  0
   23.5703   -6.9555    7.7875 N   0  0  0  0  0  0  0  0  0  0  0  0
   24.3626   -8.0122    8.3374 C   0  0  0  0  0  0  0  0  0  0  0  0
   25.4779   -7.7260    8.9175 N   0  0  0  0  0  0  0  0  0  0  0  0
   23.9383   -9.3654    8.2531 N   0  0  0  0  0  0  0  0  0  0  0  0
   22.6468   -9.7398    7.7276 C   0  0  0  0  0  0  0  0  0  0  0  0
   22.3315  -11.1732    7.8785 C   0  0  0  0  0  0  0  0  0  0  0  0
   21.0363  -11.7088    7.4582 C   0  0  0  0  0  0  0  0  0  0  0  0
   20.6898  -13.1402    7.5531 C   0  0  2  0  0  0  0  0  0  0  0  0
   19.2387  -13.2026    7.1299 N   0  0  0  0  0  0  0  0  0  0  0  0
   20.8152  -13.7630    8.8603 C   0  0  0  0  0  0  0  0  0  0  0  0
   20.1244  -13.6460    9.8749 O   0  0  0  0  0  0  0  0  0  0  0  0
   21.9204  -14.6712    9.0241 O   0  0  0  0  0  0  0  0  0  0  0  0
  2  1  1  6
  2  7  1  0
  3  2  1  0
  3  4  1  0
  4  5  1  0
  5  6  2  0
  7  8  2  0
  9  5  1  0
 10  7  1  0
 10 11  1  0
 11 17  1  0
 12 13  1  0
 11 12  1  1
 14 13  1  0
 15 14  1  0
 16 15  1  0
 17 18  2  0
 19 20  1  0
 20 21  2  0
 22 23  1  0
 22 20  1  0
 23 24  1  0
 24 25  1  0
 26 25  1  1
 26 28  1  0
 27 26  1  0
 27 17  1  0
 28 29  2  0
 28 30  1  0
M  END
$$$$
