EKR.pdb
     RDKit          3D

 30 29  0  0  1  0  0  0  0  0999 V2000
   19.5352  -25.5245   -9.2414 N   0  0  0  0  0  0  0  0  0  0  0  0
   18.5650  -24.5960   -8.6716 C   0  0  1  0  0  0  0  0  0  0  0  0
   17.6433  -24.1724   -9.7700 C   0  0  0  0  0  0  0  0  0  0  0  0
   18.3578  -23.6400  -10.9900 C   0  0  0  0  0  0  0  0  0  0  0  0
   17.5718  -22.5553  -11.6403 C   0  0  0  0  0  0  0  0  0  0  0  0
   16.4227  -22.2864  -11.2146 O   0  0  0  0  0  0  0  0  0  0  0  0
   17.8948  -25.2330   -7.5133 C   0  0  0  0  0  0  0  0  0  0  0  0
   16.9336  -24.6501   -6.9618 O   0  0  0  0  0  0  0  0  0  0  0  0
   18.0471  -21.8096  -12.7117 O   0  0  0  0  0  0  0  0  0  0  0  0
   18.3133  -26.5064   -7.0026 N   0  0  0  0  0  0  0  0  0  0  0  0
   17.7112  -27.2150   -5.9281 C   0  0  1  0  0  0  0  0  0  0  0  0
   17.9867  -28.6773   -5.8336 C   0  0  0  0  0  0  0  0  0  0  0  0
   17.4359  -29.5281   -6.9118 C   0  0  0  0  0  0  0  0  0  0  0  0
   17.7421  -30.9906   -6.7809 C   0  0  0  0  0  0  0  0  0  0  0  0
   17.2402  -31.8730   -7.8676 C   0  0  0  0  0  0  0  0  0  0  0  0
   17.6229  -33.2527   -7.7926 N   0  0  0  0  0  0  0  0  0  0  0  0
   17.7463  -26.5135   -4.6165 C   0  0  0  0  0  0  0  0  0  0  0  0
   18.8181  -25.9976   -4.2480 O   0  0  0  0  0  0  0  0  0  0  0  0
   11.7078  -21.3834   -0.7440 N   0  0  0  0  0  0  0  0  0  0  0  0
   12.9167  -21.2811    0.0141 C   0  0  0  0  0  0  0  0  0  0  0  0
   13.0554  -20.3086    0.8491 N   0  0  0  0  0  0  0  0  0  0  0  0
   13.9606  -22.2323   -0.1405 N   0  0  0  0  0  0  0  0  0  0  0  0
   14.1796  -22.9464   -1.3760 C   0  0  0  0  0  0  0  0  0  0  0  0
   15.2171  -23.9917   -1.2877 C   0  0  0  0  0  0  0  0  0  0  0  0
   15.5895  -24.7855   -2.4591 C   0  0  0  0  0  0  0  0  0  0  0  0
   16.6663  -25.7945   -2.4366 C   0  0  2  0  0  0  0  0  0  0  0  0
   16.6097  -26.4325   -3.8072 N   0  0  0  0  0  0  0  0  0  0  0  0
   16.5649  -26.8438   -1.4359 C   0  0  0  0  0  0  0  0  0  0  0  0
   16.1448  -27.9995   -1.5243 O   0  0  0  0  0  0  0  0  0  0  0  0
   17.0245  -26.5032   -0.1146 O   0  0  0  0  0  0  0  0  0  0  0  0
  2  1  1  6
  2  7  1  0
  3  2  1  0
  3  4  1  0
  4  5  1  0
  5  6  2  0
  7  8  2  0
  9  5  1  0
 10  7  1  0
 10 11  1  0
 11 17  1  0
 12 13  1  0
 11 12  1  1
 14 13  1  0
 15 14  1  0
 16 15  1  0
 17 18  2  0
 19 20  1  0
 20 21  2  0
 22 23  1  0
 22 20  1  0
 23 24  1  0
 24 25  1  0
 26 25  1  6
 26 28  1  0
 27 26  1  0
 27 17  1  0
 28 29  2  0
 28 30  1  0
M  END
$$$$
