EKR.pdb
     RDKit          3D

 30 29  0  0  1  0  0  0  0  0999 V2000
   20.4455  -25.1933  -15.2571 N   0  0  0  0  0  0  0  0  0  0  0  0
   20.2676  -26.0275  -14.0737 C   0  0  1  0  0  0  0  0  0  0  0  0
   21.5703  -26.7075  -13.7982 C   0  0  0  0  0  0  0  0  0  0  0  0
   21.9222  -27.7759  -14.8066 C   0  0  0  0  0  0  0  0  0  0  0  0
   22.9339  -27.2807  -15.7806 C   0  0  0  0  0  0  0  0  0  0  0  0
   23.3464  -28.0470  -16.6842 O   0  0  0  0  0  0  0  0  0  0  0  0
   19.7554  -25.1972  -12.9580 C   0  0  0  0  0  0  0  0  0  0  0  0
   19.4993  -25.7363  -11.8572 O   0  0  0  0  0  0  0  0  0  0  0  0
   23.4569  -25.9943  -15.7455 O   0  0  0  0  0  0  0  0  0  0  0  0
   19.5453  -23.7854  -13.0993 N   0  0  0  0  0  0  0  0  0  0  0  0
   19.0538  -22.9086  -12.0948 C   0  0  1  0  0  0  0  0  0  0  0  0
   19.2697  -21.4472  -12.2972 C   0  0  0  0  0  0  0  0  0  0  0  0
   20.5598  -21.0433  -12.8990 C   0  0  0  0  0  0  0  0  0  0  0  0
   20.7790  -19.5621  -12.9875 C   0  0  0  0  0  0  0  0  0  0  0  0
   20.9273  -18.9943  -14.3539 C   0  0  0  0  0  0  0  0  0  0  0  0
   21.1278  -17.5769  -14.4339 N   0  0  0  0  0  0  0  0  0  0  0  0
   17.7022  -23.2473  -11.5734 C   0  0  0  0  0  0  0  0  0  0  0  0
   16.7364  -23.2086  -12.3586 O   0  0  0  0  0  0  0  0  0  0  0  0
   17.2709  -27.6568   -4.4265 N   0  0  0  0  0  0  0  0  0  0  0  0
   17.3666  -26.2350   -4.5537 C   0  0  0  0  0  0  0  0  0  0  0  0
   17.9826  -25.5618   -3.6428 N   0  0  0  0  0  0  0  0  0  0  0  0
   16.7947  -25.5591   -5.6648 N   0  0  0  0  0  0  0  0  0  0  0  0
   15.7175  -26.1236   -6.4427 C   0  0  0  0  0  0  0  0  0  0  0  0
   15.3816  -25.3478   -7.6519 C   0  0  0  0  0  0  0  0  0  0  0  0
   16.4309  -24.7939   -8.5082 C   0  0  0  0  0  0  0  0  0  0  0  0
   16.1443  -23.9975   -9.7172 C   0  0  2  0  0  0  0  0  0  0  0  0
   17.5088  -23.5985  -10.2345 N   0  0  0  0  0  0  0  0  0  0  0  0
   15.3493  -22.7937   -9.5398 C   0  0  0  0  0  0  0  0  0  0  0  0
   14.1404  -22.6011   -9.6870 O   0  0  0  0  0  0  0  0  0  0  0  0
   16.0680  -21.6176   -9.1236 O   0  0  0  0  0  0  0  0  0  0  0  0
  2  1  1  6
  2  7  1  0
  3  2  1  0
  3  4  1  0
  4  5  1  0
  5  6  2  0
  7  8  2  0
  9  5  1  0
 10  7  1  0
 10 11  1  0
 11 17  1  0
 12 13  1  0
 11 12  1  6
 14 13  1  0
 15 14  1  0
 16 15  1  0
 17 18  2  0
 19 20  1  0
 20 21  2  0
 22 23  1  0
 22 20  1  0
 23 24  1  0
 24 25  1  0
 26 25  1  1
 26 28  1  0
 27 26  1  0
 27 17  1  0
 28 29  2  0
 28 30  1  0
M  END
$$$$
