EKR.pdb
     RDKit          3D

 30 29  0  0  1  0  0  0  0  0999 V2000
   25.3053  -22.2954  -14.4213 N   0  0  0  0  0  0  0  0  0  0  0  0
   25.3132  -21.0042  -13.7426 C   0  0  1  0  0  0  0  0  0  0  0  0
   26.4593  -20.2129  -14.2865 C   0  0  0  0  0  0  0  0  0  0  0  0
   27.2026  -20.9100  -15.4017 C   0  0  0  0  0  0  0  0  0  0  0  0
   28.0449  -19.9492  -16.1666 C   0  0  0  0  0  0  0  0  0  0  0  0
   27.9837  -18.7255  -15.8969 O   0  0  0  0  0  0  0  0  0  0  0  0
   23.9879  -20.3586  -13.8964 C   0  0  0  0  0  0  0  0  0  0  0  0
   23.7156  -19.3434  -13.2158 O   0  0  0  0  0  0  0  0  0  0  0  0
   28.9111  -20.3377  -17.1807 O   0  0  0  0  0  0  0  0  0  0  0  0
   23.0020  -20.8615  -14.8087 N   0  0  0  0  0  0  0  0  0  0  0  0
   21.7319  -20.2805  -15.0707 C   0  0  1  0  0  0  0  0  0  0  0  0
   21.5737  -19.5306  -16.3498 C   0  0  0  0  0  0  0  0  0  0  0  0
   20.3051  -18.7913  -16.5339 C   0  0  0  0  0  0  0  0  0  0  0  0
   20.2101  -18.0083  -17.8097 C   0  0  0  0  0  0  0  0  0  0  0  0
   18.9345  -17.2819  -18.0483 C   0  0  0  0  0  0  0  0  0  0  0  0
   18.8461  -16.5398  -19.2719 N   0  0  0  0  0  0  0  0  0  0  0  0
   20.5667  -21.1420  -14.7341 C   0  0  0  0  0  0  0  0  0  0  0  0
   20.6447  -22.3630  -14.9663 O   0  0  0  0  0  0  0  0  0  0  0  0
   19.3592  -24.2700   -7.8988 N   0  0  0  0  0  0  0  0  0  0  0  0
   18.4603  -24.6365   -8.9496 C   0  0  0  0  0  0  0  0  0  0  0  0
   17.8440  -25.7671   -8.8847 N   0  0  0  0  0  0  0  0  0  0  0  0
   18.2389  -23.7751  -10.0575 N   0  0  0  0  0  0  0  0  0  0  0  0
   18.8630  -22.4777  -10.1653 C   0  0  0  0  0  0  0  0  0  0  0  0
   18.4241  -21.6977  -11.3383 C   0  0  0  0  0  0  0  0  0  0  0  0
   18.5562  -22.2342  -12.6931 C   0  0  0  0  0  0  0  0  0  0  0  0
   18.1930  -21.4667  -13.9001 C   0  0  2  0  0  0  0  0  0  0  0  0
   19.4051  -20.6037  -14.1735 N   0  0  0  0  0  0  0  0  0  0  0  0
   17.0262  -20.6050  -13.8065 C   0  0  0  0  0  0  0  0  0  0  0  0
   15.8279  -20.8825  -13.7221 O   0  0  0  0  0  0  0  0  0  0  0  0
   17.2850  -19.1886  -13.8107 O   0  0  0  0  0  0  0  0  0  0  0  0
  2  1  1  6
  2  7  1  0
  3  2  1  0
  3  4  1  0
  4  5  1  0
  5  6  2  0
  7  8  2  0
  9  5  1  0
 10  7  1  0
 10 11  1  0
 11 17  1  0
 12 13  1  0
 11 12  1  6
 14 13  1  0
 15 14  1  0
 16 15  1  0
 17 18  2  0
 19 20  1  0
 20 21  2  0
 22 23  1  0
 22 20  1  0
 23 24  1  0
 24 25  1  0
 26 25  1  1
 26 28  1  0
 27 26  1  0
 27 17  1  0
 28 29  2  0
 28 30  1  0
M  END
$$$$
