EKR.pdb
     RDKit          3D

 30 29  0  0  1  0  0  0  0  0999 V2000
   13.8885  -10.8784  -14.2829 N   0  0  0  0  0  0  0  0  0  0  0  0
   15.0548  -11.0487  -13.4233 C   0  0  1  0  0  0  0  0  0  0  0  0
   15.4754  -12.4810  -13.5079 C   0  0  0  0  0  0  0  0  0  0  0  0
   15.8625  -12.9182  -14.9012 C   0  0  0  0  0  0  0  0  0  0  0  0
   16.1569  -14.3773  -14.9424 C   0  0  0  0  0  0  0  0  0  0  0  0
   17.3248  -14.7771  -14.7188 O   0  0  0  0  0  0  0  0  0  0  0  0
   16.1005  -10.0732  -13.8127 C   0  0  0  0  0  0  0  0  0  0  0  0
   17.1469   -9.9879  -13.1302 O   0  0  0  0  0  0  0  0  0  0  0  0
   15.1939  -15.3395  -15.2192 O   0  0  0  0  0  0  0  0  0  0  0  0
   15.9522   -9.2203  -14.9563 N   0  0  0  0  0  0  0  0  0  0  0  0
   16.8707   -8.2220  -15.3794 C   0  0  1  0  0  0  0  0  0  0  0  0
   17.4114   -8.3331  -16.7646 C   0  0  0  0  0  0  0  0  0  0  0  0
   18.0581   -9.6145  -17.1246 C   0  0  0  0  0  0  0  0  0  0  0  0
   18.6363   -9.6633  -18.5077 C   0  0  0  0  0  0  0  0  0  0  0  0
   19.2840  -10.9398  -18.9110 C   0  0  0  0  0  0  0  0  0  0  0  0
   19.9250  -10.9489  -20.1934 N   0  0  0  0  0  0  0  0  0  0  0  0
   16.5118   -6.8326  -14.9868 C   0  0  0  0  0  0  0  0  0  0  0  0
   15.3706   -6.4152  -15.2588 O   0  0  0  0  0  0  0  0  0  0  0  0
   14.6594   -2.9173   -7.9163 N   0  0  0  0  0  0  0  0  0  0  0  0
   14.8964   -1.8067   -8.7863 C   0  0  0  0  0  0  0  0  0  0  0  0
   14.5771   -0.6208   -8.3941 N   0  0  0  0  0  0  0  0  0  0  0  0
   15.4760   -1.9928  -10.0700 N   0  0  0  0  0  0  0  0  0  0  0  0
   15.7217   -3.3027  -10.6251 C   0  0  0  0  0  0  0  0  0  0  0  0
   16.3106   -3.2790  -11.9778 C   0  0  0  0  0  0  0  0  0  0  0  0
   16.5742   -4.5197  -12.7073 C   0  0  0  0  0  0  0  0  0  0  0  0
   17.1239   -4.5451  -14.0767 C   0  0  2  0  0  0  0  0  0  0  0  0
   17.4275   -6.0053  -14.3308 N   0  0  0  0  0  0  0  0  0  0  0  0
   18.3333   -3.7752  -14.3155 C   0  0  0  0  0  0  0  0  0  0  0  0
   19.5131   -4.1294  -14.3684 O   0  0  0  0  0  0  0  0  0  0  0  0
   18.1514   -2.3629  -14.5286 O   0  0  0  0  0  0  0  0  0  0  0  0
  2  1  1  6
  2  7  1  0
  3  2  1  0
  3  4  1  0
  4  5  1  0
  5  6  2  0
  7  8  2  0
  9  5  1  0
 10  7  1  0
 10 11  1  0
 11 17  1  0
 12 13  1  0
 11 12  1  6
 14 13  1  0
 15 14  1  0
 16 15  1  0
 17 18  2  0
 19 20  1  0
 20 21  2  0
 22 23  1  0
 22 20  1  0
 23 24  1  0
 24 25  1  0
 26 25  1  1
 26 28  1  0
 27 26  1  0
 27 17  1  0
 28 29  2  0
 28 30  1  0
M  END
$$$$
