WSI.pdb
     RDKit          3D

 29 30  0  0  1  0  0  0  0  0999 V2000
   24.8825  -19.6354   -9.1844 N   0  0  0  0  0  0  0  0  0  0  0  0
   26.2301  -20.0198   -9.6776 C   0  0  1  0  0  0  0  0  0  0  0  0
   26.6342  -21.1661   -8.8238 C   0  0  0  0  0  0  0  0  0  0  0  0
   26.8900  -20.8222   -7.4267 C   0  0  0  0  0  0  0  0  0  0  0  0
   25.8749  -20.7597   -6.4770 C   0  0  0  0  0  0  0  0  0  0  0  0
   26.4058  -20.4001   -5.3194 N   0  0  0  0  0  0  0  0  0  0  0  0
   27.7316  -20.2172   -5.4411 C   0  0  0  0  0  0  0  0  0  0  0  0
   28.7234  -19.8577   -4.5409 C   0  0  0  0  0  0  0  0  0  0  0  0
   30.0232  -19.7674   -4.9781 C   0  0  0  0  0  0  0  0  0  0  0  0
   30.3124  -20.0339   -6.2926 C   0  0  0  0  0  0  0  0  0  0  0  0
   29.3603  -20.3890   -7.2014 C   0  0  0  0  0  0  0  0  0  0  0  0
   28.0428  -20.4822   -6.7674 C   0  0  0  0  0  0  0  0  0  0  0  0
   26.0577  -20.2756  -11.1121 C   0  0  0  0  0  0  0  0  0  0  0  0
   24.8957  -20.3222  -11.5814 O   0  0  0  0  0  0  0  0  0  0  0  0
   28.9095  -21.8693  -13.6141 O   0  0  0  0  0  0  0  0  0  0  0  0
   28.1987  -20.8168  -14.1430 C   0  0  0  0  0  0  0  0  0  0  0  0
   26.8644  -20.5782  -13.4707 C   0  0  2  0  0  0  0  0  0  0  0  0
   27.1224  -20.4796  -12.0340 N   0  0  0  0  0  0  0  0  0  0  0  0
   26.0026  -21.7557  -13.7683 C   0  0  0  0  0  0  0  0  0  0  0  0
   26.1460  -22.7801  -13.0556 O   0  0  0  0  0  0  0  0  0  0  0  0
   20.8817  -21.3009  -14.0533 C   0  0  0  0  0  0  0  0  0  0  0  0
   22.2844  -21.8416  -13.8876 C   0  0  0  0  0  0  0  0  0  0  0  0
   22.7207  -22.4976  -15.1951 C   0  0  2  0  0  0  0  0  0  0  0  0
   21.9030  -23.7624  -15.3439 C   0  0  0  0  0  0  0  0  0  0  0  0
   24.1726  -22.9159  -15.0639 C   0  0  2  0  0  0  0  0  0  0  0  0
   25.0367  -21.7900  -14.7995 N   0  0  0  0  0  0  0  0  0  0  0  0
   24.5768  -23.5295  -16.3446 C   0  0  0  0  0  0  0  0  0  0  0  0
   24.7795  -22.8221  -17.3540 O   0  0  0  0  0  0  0  0  0  0  0  0
   24.7263  -24.9040  -16.4040 O   0  0  0  0  0  0  0  0  0  0  0  0
  2  1  1  1
  2 13  1  0
  3  2  1  0
  4  3  1  0
  4 12  1  0
  5  6  1  0
  5  4  2  0
  6  7  1  0
  7  8  1  0
  7 12  2  0
  8  9  2  0
  9 10  1  0
 11 10  2  0
 12 11  1  0
 13 14  2  0
 15 16  1  0
 17 16  1  6
 18 13  1  0
 18 17  1  0
 19 17  1  0
 19 20  2  0
 21 22  1  0
 23 22  1  0
 23 25  1  0
 23 24  1  1
 25 26  1  6
 26 19  1  0
 27 25  1  0
 28 27  2  0
 29 27  1  0
M  END
$$$$
