WSI.pdb
     RDKit          3D

 29 30  0  0  1  0  0  0  0  0999 V2000
   28.3490  -20.5528  -11.1809 N   0  0  0  0  0  0  0  0  0  0  0  0
   27.1113  -21.1704  -10.6390 C   0  0  1  0  0  0  0  0  0  0  0  0
   26.8954  -20.5026   -9.3300 C   0  0  0  0  0  0  0  0  0  0  0  0
   28.0174  -20.6121   -8.4001 C   0  0  0  0  0  0  0  0  0  0  0  0
   29.1790  -21.3113   -8.7132 C   0  0  0  0  0  0  0  0  0  0  0  0
   29.9943  -21.2567   -7.6723 N   0  0  0  0  0  0  0  0  0  0  0  0
   29.4395  -20.5532   -6.6705 C   0  0  0  0  0  0  0  0  0  0  0  0
   29.8802  -20.2039   -5.4029 C   0  0  0  0  0  0  0  0  0  0  0  0
   29.0662  -19.4439   -4.5973 C   0  0  0  0  0  0  0  0  0  0  0  0
   27.8377  -19.0476   -5.0623 C   0  0  0  0  0  0  0  0  0  0  0  0
   27.3762  -19.3751   -6.3025 C   0  0  0  0  0  0  0  0  0  0  0  0
   28.1931  -20.1441   -7.1236 C   0  0  0  0  0  0  0  0  0  0  0  0
   26.0927  -20.9672  -11.6755 C   0  0  0  0  0  0  0  0  0  0  0  0
   25.8959  -19.8069  -12.1088 O   0  0  0  0  0  0  0  0  0  0  0  0
   23.7576  -24.0588  -13.1935 O   0  0  0  0  0  0  0  0  0  0  0  0
   24.0771  -23.0161  -14.0322 C   0  0  0  0  0  0  0  0  0  0  0  0
   24.3419  -21.7106  -13.3146 C   0  0  2  0  0  0  0  0  0  0  0  0
   25.2929  -21.9994  -12.2411 N   0  0  0  0  0  0  0  0  0  0  0  0
   23.0440  -21.2438  -12.7530 C   0  0  0  0  0  0  0  0  0  0  0  0
   22.8491  -21.4020  -11.5221 O   0  0  0  0  0  0  0  0  0  0  0  0
   20.6624  -16.6479  -14.0711 C   0  0  0  0  0  0  0  0  0  0  0  0
   21.0575  -17.8571  -13.2529 C   0  0  0  0  0  0  0  0  0  0  0  0
   20.1684  -19.0339  -13.6461 C   0  0  2  0  0  0  0  0  0  0  0  0
   18.8079  -18.7775  -13.0347 C   0  0  0  0  0  0  0  0  0  0  0  0
   20.7193  -20.2913  -13.0013 C   0  0  2  0  0  0  0  0  0  0  0  0
   22.0229  -20.6357  -13.5175 N   0  0  0  0  0  0  0  0  0  0  0  0
   19.7856  -21.3938  -13.3058 C   0  0  0  0  0  0  0  0  0  0  0  0
   19.8284  -21.9786  -14.4089 O   0  0  0  0  0  0  0  0  0  0  0  0
   18.8622  -21.7661  -12.3447 O   0  0  0  0  0  0  0  0  0  0  0  0
  2  1  1  6
  2 13  1  0
  3  2  1  0
  4  3  1  0
  4 12  1  0
  5  6  1  0
  5  4  2  0
  6  7  1  0
  7  8  1  0
  7 12  2  0
  8  9  2  0
  9 10  1  0
 11 10  2  0
 12 11  1  0
 13 14  2  0
 15 16  1  0
 17 16  1  1
 18 13  1  0
 18 17  1  0
 19 17  1  0
 19 20  2  0
 21 22  1  0
 23 22  1  0
 23 25  1  0
 23 24  1  1
 25 26  1  6
 26 19  1  0
 27 25  1  0
 28 27  2  0
 29 27  1  0
M  END
$$$$
