WSI.pdb
     RDKit          3D

 29 30  0  0  1  0  0  0  0  0999 V2000
   27.0405  -37.0198  -12.4781 N   0  0  0  0  0  0  0  0  0  0  0  0
   27.3867  -37.8924  -11.3267 C   0  0  1  0  0  0  0  0  0  0  0  0
   28.7170  -38.4592  -11.6663 C   0  0  0  0  0  0  0  0  0  0  0  0
   28.6850  -39.5305  -12.6597 C   0  0  0  0  0  0  0  0  0  0  0  0
   28.7530  -39.2808  -14.0270 C   0  0  0  0  0  0  0  0  0  0  0  0
   28.6743  -40.4358  -14.6682 N   0  0  0  0  0  0  0  0  0  0  0  0
   28.5570  -41.4545  -13.7995 C   0  0  0  0  0  0  0  0  0  0  0  0
   28.4554  -42.8281  -13.9608 C   0  0  0  0  0  0  0  0  0  0  0  0
   28.3620  -43.6275  -12.8467 C   0  0  0  0  0  0  0  0  0  0  0  0
   28.3709  -43.0520  -11.6012 C   0  0  0  0  0  0  0  0  0  0  0  0
   28.4689  -41.7058  -11.4100 C   0  0  0  0  0  0  0  0  0  0  0  0
   28.5634  -40.8899  -12.5316 C   0  0  0  0  0  0  0  0  0  0  0  0
   27.3052  -37.0245  -10.1464 C   0  0  0  0  0  0  0  0  0  0  0  0
   27.5766  -35.8067  -10.2729 O   0  0  0  0  0  0  0  0  0  0  0  0
   26.4741  -38.3134   -6.1280 O   0  0  0  0  0  0  0  0  0  0  0  0
   26.0618  -37.1069   -6.6448 C   0  0  0  0  0  0  0  0  0  0  0  0
   26.9861  -36.5444   -7.7025 C   0  0  2  0  0  0  0  0  0  0  0  0
   26.9363  -37.4597   -8.8427 N   0  0  0  0  0  0  0  0  0  0  0  0
   28.3558  -36.5090   -7.1189 C   0  0  0  0  0  0  0  0  0  0  0  0
   29.1366  -37.4513   -7.4025 O   0  0  0  0  0  0  0  0  0  0  0  0
   33.1422  -33.1718   -6.7946 C   0  0  0  0  0  0  0  0  0  0  0  0
   32.3589  -34.1858   -5.9911 C   0  0  0  0  0  0  0  0  0  0  0  0
   30.9255  -34.2325   -6.5140 C   0  0  2  0  0  0  0  0  0  0  0  0
   30.2600  -32.9439   -6.0815 C   0  0  0  0  0  0  0  0  0  0  0  0
   30.1961  -35.3676   -5.8213 C   0  0  2  0  0  0  0  0  0  0  0  0
   28.8286  -35.4833   -6.2694 N   0  0  0  0  0  0  0  0  0  0  0  0
   30.1946  -35.0782   -4.3734 C   0  0  0  0  0  0  0  0  0  0  0  0
   31.2264  -35.2456   -3.6893 O   0  0  0  0  0  0  0  0  0  0  0  0
   29.0274  -34.6178   -3.7898 O   0  0  0  0  0  0  0  0  0  0  0  0
  2  1  1  6
  2 13  1  0
  3  2  1  0
  4  3  1  0
  4 12  1  0
  5  6  1  0
  5  4  2  0
  6  7  1  0
  7  8  1  0
  7 12  2  0
  8  9  2  0
  9 10  1  0
 11 10  2  0
 12 11  1  0
 13 14  2  0
 15 16  1  0
 17 16  1  1
 18 13  1  0
 18 17  1  0
 19 17  1  0
 19 20  2  0
 21 22  1  0
 23 22  1  0
 23 25  1  0
 23 24  1  1
 25 26  1  6
 26 19  1  0
 27 25  1  0
 28 27  2  0
 29 27  1  0
M  END
$$$$
