WSI.pdb
     RDKit          3D

 29 30  0  0  1  0  0  0  0  0999 V2000
   27.1729  -19.8014  -11.8103 N   0  0  0  0  0  0  0  0  0  0  0  0
   26.6078  -21.1713  -11.7056 C   0  0  1  0  0  0  0  0  0  0  0  0
   25.9881  -21.2243  -10.3567 C   0  0  0  0  0  0  0  0  0  0  0  0
   26.8364  -20.7209   -9.2785 C   0  0  0  0  0  0  0  0  0  0  0  0
   26.3736  -19.8176   -8.3265 C   0  0  0  0  0  0  0  0  0  0  0  0
   27.3693  -19.5290   -7.5041 N   0  0  0  0  0  0  0  0  0  0  0  0
   28.4831  -20.1946   -7.8542 C   0  0  0  0  0  0  0  0  0  0  0  0
   29.7617  -20.2460   -7.3198 C   0  0  0  0  0  0  0  0  0  0  0  0
   30.7021  -21.0552   -7.9112 C   0  0  0  0  0  0  0  0  0  0  0  0
   30.3578  -21.7936   -9.0151 C   0  0  0  0  0  0  0  0  0  0  0  0
   29.1103  -21.7644   -9.5640 C   0  0  0  0  0  0  0  0  0  0  0  0
   28.1531  -20.9480   -8.9722 C   0  0  0  0  0  0  0  0  0  0  0  0
   25.7165  -21.3107  -12.8628 C   0  0  0  0  0  0  0  0  0  0  0  0
   25.3714  -20.2789  -13.4865 O   0  0  0  0  0  0  0  0  0  0  0  0
   23.8057  -24.8651  -13.8437 O   0  0  0  0  0  0  0  0  0  0  0  0
   24.1473  -24.0387  -14.8892 C   0  0  0  0  0  0  0  0  0  0  0  0
   24.2995  -22.5851  -14.4978 C   0  0  2  0  0  0  0  0  0  0  0  0
   25.2002  -22.5458  -13.3456 N   0  0  0  0  0  0  0  0  0  0  0  0
   22.9479  -22.0843  -14.1232 C   0  0  0  0  0  0  0  0  0  0  0  0
   22.6631  -22.0290  -12.9009 O   0  0  0  0  0  0  0  0  0  0  0  0
   20.9051  -17.5458  -15.6599 C   0  0  0  0  0  0  0  0  0  0  0  0
   21.1743  -18.8081  -14.8714 C   0  0  0  0  0  0  0  0  0  0  0  0
   20.2795  -19.9249  -15.4026 C   0  0  2  0  0  0  0  0  0  0  0  0
   18.8629  -19.5813  -14.9955 C   0  0  0  0  0  0  0  0  0  0  0  0
   20.6479  -21.2154  -14.6960 C   0  0  2  0  0  0  0  0  0  0  0  0
   21.9706  -21.6688  -15.0556 N   0  0  0  0  0  0  0  0  0  0  0  0
   19.6699  -22.2427  -15.1063 C   0  0  0  0  0  0  0  0  0  0  0  0
   19.8039  -22.8542  -16.1874 O   0  0  0  0  0  0  0  0  0  0  0  0
   18.6019  -22.5143  -14.2692 O   0  0  0  0  0  0  0  0  0  0  0  0
  2  1  1  6
  2 13  1  0
  3  2  1  0
  4  3  1  0
  4 12  1  0
  5  6  1  0
  5  4  2  0
  6  7  1  0
  7  8  1  0
  7 12  2  0
  8  9  2  0
  9 10  1  0
 11 10  2  0
 12 11  1  0
 13 14  2  0
 15 16  1  0
 17 16  1  1
 18 13  1  0
 18 17  1  0
 19 17  1  0
 19 20  2  0
 21 22  1  0
 23 22  1  0
 23 25  1  0
 23 24  1  1
 25 26  1  6
 26 19  1  0
 27 25  1  0
 28 27  2  0
 29 27  1  0
M  END
$$$$
