WSI.pdb
     RDKit          3D

 29 30  0  0  1  0  0  0  0  0999 V2000
   25.2918  -23.5043  -13.7728 N   0  0  0  0  0  0  0  0  0  0  0  0
   26.0052  -22.2200  -13.5524 C   0  0  1  0  0  0  0  0  0  0  0  0
   24.9446  -21.1817  -13.6107 C   0  0  0  0  0  0  0  0  0  0  0  0
   25.4194  -19.8161  -13.3981 C   0  0  0  0  0  0  0  0  0  0  0  0
   25.8517  -19.0063  -14.4440 C   0  0  0  0  0  0  0  0  0  0  0  0
   26.2434  -17.8465  -13.9414 N   0  0  0  0  0  0  0  0  0  0  0  0
   26.0958  -17.8332  -12.6057 C   0  0  0  0  0  0  0  0  0  0  0  0
   26.3437  -16.8731  -11.6361 C   0  0  0  0  0  0  0  0  0  0  0  0
   26.0672  -17.1628  -10.3214 C   0  0  0  0  0  0  0  0  0  0  0  0
   25.5532  -18.3926   -9.9957 C   0  0  0  0  0  0  0  0  0  0  0  0
   25.2991  -19.3570  -10.9251 C   0  0  0  0  0  0  0  0  0  0  0  0
   25.5764  -19.0722  -12.2574 C   0  0  0  0  0  0  0  0  0  0  0  0
   26.7160  -22.3866  -12.2797 C   0  0  0  0  0  0  0  0  0  0  0  0
   26.1971  -23.0991  -11.3875 O   0  0  0  0  0  0  0  0  0  0  0  0
   30.5024  -20.9597  -11.7727 O   0  0  0  0  0  0  0  0  0  0  0  0
   30.1286  -22.0013  -10.9554 C   0  0  0  0  0  0  0  0  0  0  0  0
   28.6396  -22.0740  -10.6964 C   0  0  2  0  0  0  0  0  0  0  0  0
   27.9716  -21.7941  -11.9675 N   0  0  0  0  0  0  0  0  0  0  0  0
   28.3141  -21.0243   -9.6914 C   0  0  0  0  0  0  0  0  0  0  0  0
   28.0427  -19.8733  -10.1153 O   0  0  0  0  0  0  0  0  0  0  0  0
   25.1736  -21.5868   -5.3331 C   0  0  0  0  0  0  0  0  0  0  0  0
   25.9092  -20.9841   -6.5092 C   0  0  0  0  0  0  0  0  0  0  0  0
   27.3502  -20.6942   -6.0971 C   0  0  2  0  0  0  0  0  0  0  0  0
   27.3003  -19.5502   -5.1074 C   0  0  0  0  0  0  0  0  0  0  0  0
   28.1099  -20.2012   -7.3136 C   0  0  2  0  0  0  0  0  0  0  0  0
   28.2914  -21.2438   -8.2955 N   0  0  0  0  0  0  0  0  0  0  0  0
   29.4387  -19.7487   -6.8556 C   0  0  0  0  0  0  0  0  0  0  0  0
   30.4103  -20.5338   -6.8450 O   0  0  0  0  0  0  0  0  0  0  0  0
   29.5859  -18.4374   -6.4384 O   0  0  0  0  0  0  0  0  0  0  0  0
  2  1  1  1
  2 13  1  0
  3  2  1  0
  4  3  1  0
  4 12  1  0
  5  6  1  0
  5  4  2  0
  6  7  1  0
  7  8  1  0
  7 12  2  0
  8  9  2  0
  9 10  1  0
 11 10  2  0
 12 11  1  0
 13 14  2  0
 15 16  1  0
 17 16  1  6
 18 13  1  0
 18 17  1  0
 19 17  1  0
 19 20  2  0
 21 22  1  0
 23 22  1  0
 23 25  1  0
 23 24  1  1
 25 26  1  6
 26 19  1  0
 27 25  1  0
 28 27  2  0
 29 27  1  0
M  END
$$$$
