WSI.pdb
     RDKit          3D

 29 30  0  0  1  0  0  0  0  0999 V2000
   24.5401  -22.5422  -15.0179 N   0  0  0  0  0  0  0  0  0  0  0  0
   24.3033  -21.6632  -13.8439 C   0  0  1  0  0  0  0  0  0  0  0  0
   23.0491  -22.1739  -13.2339 C   0  0  0  0  0  0  0  0  0  0  0  0
   21.8274  -21.7600  -13.9207 C   0  0  0  0  0  0  0  0  0  0  0  0
   20.8864  -22.6749  -14.3834 C   0  0  0  0  0  0  0  0  0  0  0  0
   19.9122  -22.0078  -14.9809 N   0  0  0  0  0  0  0  0  0  0  0  0
   20.1492  -20.6854  -14.9437 C   0  0  0  0  0  0  0  0  0  0  0  0
   19.4444  -19.5847  -15.4071 C   0  0  0  0  0  0  0  0  0  0  0  0
   19.9548  -18.3261  -15.1963 C   0  0  0  0  0  0  0  0  0  0  0  0
   21.1479  -18.1847  -14.5337 C   0  0  0  0  0  0  0  0  0  0  0  0
   21.8642  -19.2464  -14.0668 C   0  0  0  0  0  0  0  0  0  0  0  0
   21.3552  -20.5231  -14.2763 C   0  0  0  0  0  0  0  0  0  0  0  0
   25.5284  -21.7528  -13.0413 C   0  0  0  0  0  0  0  0  0  0  0  0
   26.3528  -22.6623  -13.2979 O   0  0  0  0  0  0  0  0  0  0  0  0
   27.3298  -18.6514  -11.4979 O   0  0  0  0  0  0  0  0  0  0  0  0
   27.9870  -19.8592  -11.5417 C   0  0  0  0  0  0  0  0  0  0  0  0
   27.1078  -21.0481  -11.2209 C   0  0  2  0  0  0  0  0  0  0  0  0
   25.8651  -20.8747  -11.9733 N   0  0  0  0  0  0  0  0  0  0  0  0
   26.8416  -21.0185   -9.7560 C   0  0  0  0  0  0  0  0  0  0  0  0
   25.6430  -21.0025   -9.3799 O   0  0  0  0  0  0  0  0  0  0  0  0
   29.8002  -20.8535   -4.2482 C   0  0  0  0  0  0  0  0  0  0  0  0
   28.5252  -20.8812   -5.0613 C   0  0  0  0  0  0  0  0  0  0  0  0
   28.8831  -20.8698   -6.5452 C   0  0  2  0  0  0  0  0  0  0  0  0
   29.5684  -19.5486   -6.8196 C   0  0  0  0  0  0  0  0  0  0  0  0
   27.5985  -20.8839   -7.3513 C   0  0  2  0  0  0  0  0  0  0  0  0
   27.8513  -21.0079   -8.7673 N   0  0  0  0  0  0  0  0  0  0  0  0
   26.9052  -19.6034   -7.1068 C   0  0  0  0  0  0  0  0  0  0  0  0
   27.0165  -18.6548   -7.9120 O   0  0  0  0  0  0  0  0  0  0  0  0
   26.1297  -19.4754   -5.9678 O   0  0  0  0  0  0  0  0  0  0  0  0
  2  1  1  6
  2 13  1  0
  3  2  1  0
  4  3  1  0
  4 12  1  0
  5  6  1  0
  5  4  2  0
  6  7  1  0
  7  8  1  0
  7 12  2  0
  8  9  2  0
  9 10  1  0
 11 10  2  0
 12 11  1  0
 13 14  2  0
 15 16  1  0
 17 16  1  1
 18 13  1  0
 18 17  1  0
 19 17  1  0
 19 20  2  0
 21 22  1  0
 23 22  1  0
 23 25  1  0
 23 24  1  1
 25 26  1  6
 26 19  1  0
 27 25  1  0
 28 27  2  0
 29 27  1  0
M  END
$$$$
