AII.pdb
     RDKit          3D

 22 21  0  0  1  0  0  0  0  0999 V2000
   19.6413  -14.5411  -17.9592 C   0  0  0  0  0  0  0  0  0  0  0  0
   20.7494  -15.2429  -17.2110 C   0  0  2  0  0  0  0  0  0  0  0  0
   20.1879  -16.3910  -16.5616 N   0  0  0  0  0  0  0  0  0  0  0  0
   21.4519  -14.3250  -16.2762 C   0  0  0  0  0  0  0  0  0  0  0  0
   20.9325  -14.1991  -15.1377 O   0  0  0  0  0  0  0  0  0  0  0  0
   26.5508  -14.5144  -15.2455 C   0  0  0  0  0  0  0  0  0  0  0  0
   25.0407  -14.3429  -15.1079 C   0  0  0  0  0  0  0  0  0  0  0  0
   24.6573  -12.9570  -15.5322 C   0  0  2  0  0  0  0  0  0  0  0  0
   25.4081  -11.8907  -14.7655 C   0  0  0  0  0  0  0  0  0  0  0  0
   23.1872  -12.6977  -15.5943 C   0  0  2  0  0  0  0  0  0  0  0  0
   22.6193  -13.6234  -16.5957 N   0  0  0  0  0  0  0  0  0  0  0  0
   22.7964  -11.3295  -16.0129 C   0  0  0  0  0  0  0  0  0  0  0  0
   23.1335  -10.9071  -17.1760 O   0  0  0  0  0  0  0  0  0  0  0  0
   18.2051   -7.6695  -16.7234 C   0  0  0  0  0  0  0  0  0  0  0  0
   19.6763   -7.6765  -16.3422 C   0  0  0  0  0  0  0  0  0  0  0  0
   20.1695   -9.0467  -16.0512 C   0  0  2  0  0  0  0  0  0  0  0  0
   19.3496   -9.5403  -14.8415 C   0  0  0  0  0  0  0  0  0  0  0  0
   21.6123   -9.1075  -15.5784 C   0  0  2  0  0  0  0  0  0  0  0  0
   22.0577  -10.4248  -15.2151 N   0  0  0  0  0  0  0  0  0  0  0  0
   21.8373   -8.1542  -14.5059 C   0  0  0  0  0  0  0  0  0  0  0  0
   21.8978   -8.5734  -13.2998 O   0  0  0  0  0  0  0  0  0  0  0  0
   21.9937   -6.8003  -14.6999 O   0  0  0  0  0  0  0  0  0  0  0  0
  2  1  1  1
  3  2  1  0
  4  2  1  0
  4  5  2  0
  7  6  1  0
  7  8  1  0
  8 10  1  0
  8  9  1  1
 10 11  1  6
 10 12  1  0
 11  4  1  0
 12 19  1  0
 13 12  2  0
 14 15  1  0
 16 17  1  1
 16 18  1  0
 16 15  1  0
 18 20  1  0
 18 19  1  1
 20 21  2  0
 20 22  1  0
M  END
$$$$
