AII.pdb
     RDKit          3D

 22 21  0  0  1  0  0  0  0  0999 V2000
   21.4925  -18.7645  -16.1709 C   0  0  0  0  0  0  0  0  0  0  0  0
   22.5756  -19.0122  -17.1936 C   0  0  2  0  0  0  0  0  0  0  0  0
   22.0860  -19.9784  -18.1327 N   0  0  0  0  0  0  0  0  0  0  0  0
   23.8572  -19.4119  -16.5548 C   0  0  0  0  0  0  0  0  0  0  0  0
   23.9583  -20.6257  -16.2414 O   0  0  0  0  0  0  0  0  0  0  0  0
   28.7725  -17.4534  -17.8941 C   0  0  0  0  0  0  0  0  0  0  0  0
   27.5907  -18.3559  -17.5512 C   0  0  0  0  0  0  0  0  0  0  0  0
   27.2786  -18.2322  -16.0900 C   0  0  2  0  0  0  0  0  0  0  0  0
   28.5058  -18.4028  -15.2218 C   0  0  0  0  0  0  0  0  0  0  0  0
   26.1190  -19.0480  -15.6189 C   0  0  2  0  0  0  0  0  0  0  0  0
   24.9130  -18.5309  -16.2975 N   0  0  0  0  0  0  0  0  0  0  0  0
   25.8441  -18.9873  -14.1626 C   0  0  0  0  0  0  0  0  0  0  0  0
   25.5638  -17.8587  -13.6218 O   0  0  0  0  0  0  0  0  0  0  0  0
   22.6227  -21.0003   -9.6273 C   0  0  0  0  0  0  0  0  0  0  0  0
   24.0132  -20.5048   -9.9890 C   0  0  0  0  0  0  0  0  0  0  0  0
   24.2535  -20.5410  -11.4541 C   0  0  2  0  0  0  0  0  0  0  0  0
   24.1832  -22.0289  -11.8547 C   0  0  0  0  0  0  0  0  0  0  0  0
   25.6472  -20.1037  -11.8728 C   0  0  2  0  0  0  0  0  0  0  0  0
   25.8620  -20.1035  -13.2939 N   0  0  0  0  0  0  0  0  0  0  0  0
   26.6560  -20.8873  -11.1814 C   0  0  0  0  0  0  0  0  0  0  0  0
   27.3087  -21.7758  -11.8283 O   0  0  0  0  0  0  0  0  0  0  0  0
   26.9666  -20.7379   -9.8486 O   0  0  0  0  0  0  0  0  0  0  0  0
  2  1  1  1
  3  2  1  0
  4  2  1  0
  4  5  2  0
  7  6  1  0
  7  8  1  0
  8 10  1  0
  8  9  1  1
 10 11  1  6
 10 12  1  0
 11  4  1  0
 12 19  1  0
 13 12  2  0
 14 15  1  0
 16 17  1  1
 16 18  1  0
 16 15  1  0
 18 20  1  0
 18 19  1  6
 20 21  2  0
 20 22  1  0
M  END
$$$$
