AII.pdb
     RDKit          3D

 22 21  0  0  1  0  0  0  0  0999 V2000
   19.9855  -11.1956  -21.0353 C   0  0  0  0  0  0  0  0  0  0  0  0
   20.7642  -11.8985  -19.9491 C   0  0  2  0  0  0  0  0  0  0  0  0
   20.3180  -13.2597  -19.8939 N   0  0  0  0  0  0  0  0  0  0  0  0
   20.6548  -11.1917  -18.6458 C   0  0  0  0  0  0  0  0  0  0  0  0
   19.5348  -11.2597  -18.0777 O   0  0  0  0  0  0  0  0  0  0  0  0
   23.3947  -10.3101  -13.5030 C   0  0  0  0  0  0  0  0  0  0  0  0
   22.3633   -9.6613  -14.4218 C   0  0  0  0  0  0  0  0  0  0  0  0
   22.4441  -10.2890  -15.7809 C   0  0  2  0  0  0  0  0  0  0  0  0
   23.8556  -10.3062  -16.3252 C   0  0  0  0  0  0  0  0  0  0  0  0
   21.4481   -9.7825  -16.7726 C   0  0  2  0  0  0  0  0  0  0  0  0
   21.7023  -10.4827  -18.0483 N   0  0  0  0  0  0  0  0  0  0  0  0
   21.5190   -8.3302  -17.0653 C   0  0  0  0  0  0  0  0  0  0  0  0
   22.5100   -7.8718  -17.7381 O   0  0  0  0  0  0  0  0  0  0  0  0
   18.3445   -3.9384  -19.4859 C   0  0  0  0  0  0  0  0  0  0  0  0
   19.3160   -4.2043  -18.3479 C   0  0  0  0  0  0  0  0  0  0  0  0
   19.4860   -5.6566  -18.0888 C   0  0  2  0  0  0  0  0  0  0  0  0
   18.1407   -6.1404  -17.5096 C   0  0  0  0  0  0  0  0  0  0  0  0
   20.5019   -5.9870  -17.0081 C   0  0  2  0  0  0  0  0  0  0  0  0
   20.5550   -7.3794  -16.6561 N   0  0  0  0  0  0  0  0  0  0  0  0
   20.2933   -5.1495  -15.8399 C   0  0  0  0  0  0  0  0  0  0  0  0
   20.6620   -3.9261  -15.8745 O   0  0  0  0  0  0  0  0  0  0  0  0
   19.7135   -5.5893  -14.6713 O   0  0  0  0  0  0  0  0  0  0  0  0
  2  1  1  6
  3  2  1  0
  4  2  1  0
  4  5  2  0
  7  6  1  0
  7  8  1  0
  8 10  1  0
  8  9  1  6
 10 11  1  6
 10 12  1  0
 11  4  1  0
 12 19  1  0
 13 12  2  0
 14 15  1  0
 16 17  1  1
 16 18  1  0
 16 15  1  0
 18 20  1  0
 18 19  1  1
 20 21  2  0
 20 22  1  0
M  END
$$$$
