AII.pdb
     RDKit          3D

 22 21  0  0  1  0  0  0  0  0999 V2000
   27.2817  -20.4853  -16.5378 C   0  0  0  0  0  0  0  0  0  0  0  0
   27.6376  -21.2106  -15.2620 C   0  0  2  0  0  0  0  0  0  0  0  0
   28.3665  -22.3939  -15.6133 N   0  0  0  0  0  0  0  0  0  0  0  0
   26.4366  -21.4863  -14.4303 C   0  0  0  0  0  0  0  0  0  0  0  0
   25.8791  -22.5969  -14.6239 O   0  0  0  0  0  0  0  0  0  0  0  0
   26.4713  -20.6591   -9.2447 C   0  0  0  0  0  0  0  0  0  0  0  0
   26.2352  -21.2645  -10.6255 C   0  0  0  0  0  0  0  0  0  0  0  0
   25.0391  -20.6154  -11.2546 C   0  0  2  0  0  0  0  0  0  0  0  0
   23.8117  -20.6911  -10.3735 C   0  0  0  0  0  0  0  0  0  0  0  0
   24.7647  -21.0254  -12.6649 C   0  0  2  0  0  0  0  0  0  0  0  0
   25.9209  -20.5990  -13.4797 N   0  0  0  0  0  0  0  0  0  0  0  0
   23.5624  -20.4175  -13.2851 C   0  0  0  0  0  0  0  0  0  0  0  0
   23.4750  -19.1407  -13.3686 O   0  0  0  0  0  0  0  0  0  0  0  0
   21.8438  -21.1760  -18.1895 C   0  0  0  0  0  0  0  0  0  0  0  0
   22.1394  -20.7202  -16.7701 C   0  0  0  0  0  0  0  0  0  0  0  0
   21.0367  -21.0600  -15.8352 C   0  0  2  0  0  0  0  0  0  0  0  0
   19.8233  -20.2267  -16.2961 C   0  0  0  0  0  0  0  0  0  0  0  0
   21.2724  -20.6202  -14.3999 C   0  0  2  0  0  0  0  0  0  0  0  0
   22.4723  -21.1490  -13.8117 N   0  0  0  0  0  0  0  0  0  0  0  0
   20.1068  -20.9064  -13.5818 C   0  0  0  0  0  0  0  0  0  0  0  0
   20.0221  -22.0353  -12.9883 O   0  0  0  0  0  0  0  0  0  0  0  0
   19.0630  -20.0284  -13.3955 O   0  0  0  0  0  0  0  0  0  0  0  0
  2  1  1  6
  3  2  1  0
  4  2  1  0
  4  5  2  0
  7  6  1  0
  7  8  1  0
  8 10  1  0
  8  9  1  1
 10 11  1  6
 10 12  1  0
 11  4  1  0
 12 19  1  0
 13 12  2  0
 14 15  1  0
 16 17  1  6
 16 18  1  0
 16 15  1  0
 18 20  1  0
 18 19  1  1
 20 21  2  0
 20 22  1  0
M  END
$$$$
