AII.pdb
     RDKit          3D

 22 21  0  0  1  0  0  0  0  0999 V2000
   24.3480  -20.8682  -17.3118 C   0  0  0  0  0  0  0  0  0  0  0  0
   25.8190  -20.9243  -16.9755 C   0  0  2  0  0  0  0  0  0  0  0  0
   25.9581  -21.5632  -15.6997 N   0  0  0  0  0  0  0  0  0  0  0  0
   26.4495  -19.5791  -17.0299 C   0  0  0  0  0  0  0  0  0  0  0  0
   26.6489  -19.0219  -15.9202 O   0  0  0  0  0  0  0  0  0  0  0  0
   30.5332  -17.9216  -17.7734 C   0  0  0  0  0  0  0  0  0  0  0  0
   29.6612  -18.4701  -18.8993 C   0  0  0  0  0  0  0  0  0  0  0  0
   28.5186  -17.5311  -19.1453 C   0  0  2  0  0  0  0  0  0  0  0  0
   28.9830  -16.1190  -19.4267 C   0  0  0  0  0  0  0  0  0  0  0  0
   27.4226  -17.5882  -18.1315 C   0  0  2  0  0  0  0  0  0  0  0  0
   26.8158  -18.9325  -18.2151 N   0  0  0  0  0  0  0  0  0  0  0  0
   26.3213  -16.6138  -18.3250 C   0  0  0  0  0  0  0  0  0  0  0  0
   25.6883  -16.5931  -19.4402 O   0  0  0  0  0  0  0  0  0  0  0  0
   22.0963  -13.4705  -15.0212 C   0  0  0  0  0  0  0  0  0  0  0  0
   22.9519  -13.5169  -16.2764 C   0  0  0  0  0  0  0  0  0  0  0  0
   24.0048  -14.5609  -16.1943 C   0  0  2  0  0  0  0  0  0  0  0  0
   25.0250  -14.0481  -15.1573 C   0  0  0  0  0  0  0  0  0  0  0  0
   24.8166  -14.7355  -17.4669 C   0  0  2  0  0  0  0  0  0  0  0  0
   25.8944  -15.6793  -17.3527 N   0  0  0  0  0  0  0  0  0  0  0  0
   25.2838  -13.4491  -17.9534 C   0  0  0  0  0  0  0  0  0  0  0  0
   26.4477  -13.0400  -17.6188 O   0  0  0  0  0  0  0  0  0  0  0  0
   24.5457  -12.6201  -18.7677 O   0  0  0  0  0  0  0  0  0  0  0  0
  2  1  1  1
  3  2  1  0
  4  2  1  0
  4  5  2  0
  7  6  1  0
  7  8  1  0
  8 10  1  0
  8  9  1  1
 10 11  1  6
 10 12  1  0
 11  4  1  0
 12 19  1  0
 13 12  2  0
 14 15  1  0
 16 17  1  1
 16 18  1  0
 16 15  1  0
 18 20  1  0
 18 19  1  1
 20 21  2  0
 20 22  1  0
M  END
$$$$
