AII.pdb
     RDKit          3D

 22 21  0  0  1  0  0  0  0  0999 V2000
   21.0311  -17.4557  -14.8209 C   0  0  0  0  0  0  0  0  0  0  0  0
   21.5591  -17.7062  -16.2133 C   0  0  2  0  0  0  0  0  0  0  0  0
   20.5913  -18.4937  -16.9193 N   0  0  0  0  0  0  0  0  0  0  0  0
   22.9116  -18.3227  -16.1882 C   0  0  0  0  0  0  0  0  0  0  0  0
   22.9406  -19.5789  -16.1350 O   0  0  0  0  0  0  0  0  0  0  0  0
   26.9682  -16.8367  -19.3968 C   0  0  0  0  0  0  0  0  0  0  0  0
   25.9191  -17.5927  -18.5865 C   0  0  0  0  0  0  0  0  0  0  0  0
   26.3150  -17.5954  -17.1405 C   0  0  2  0  0  0  0  0  0  0  0  0
   27.7627  -17.9859  -16.9398 C   0  0  0  0  0  0  0  0  0  0  0  0
   25.3860  -18.3315  -16.2310 C   0  0  2  0  0  0  0  0  0  0  0  0
   24.1057  -17.5945  -16.2199 N   0  0  0  0  0  0  0  0  0  0  0  0
   25.8253  -18.4383  -14.8184 C   0  0  0  0  0  0  0  0  0  0  0  0
   26.0001  -17.3695  -14.1314 O   0  0  0  0  0  0  0  0  0  0  0  0
   25.2536  -20.6742   -9.3447 C   0  0  0  0  0  0  0  0  0  0  0  0
   26.2861  -20.3077  -10.3980 C   0  0  0  0  0  0  0  0  0  0  0  0
   25.6892  -20.2166  -11.7547 C   0  0  2  0  0  0  0  0  0  0  0  0
   25.2578  -21.6514  -12.1213 C   0  0  0  0  0  0  0  0  0  0  0  0
   26.6706  -19.8275  -12.8477 C   0  0  2  0  0  0  0  0  0  0  0  0
   26.0717  -19.6564  -14.1429 N   0  0  0  0  0  0  0  0  0  0  0  0
   27.7799  -20.7641  -12.8929 C   0  0  0  0  0  0  0  0  0  0  0  0
   28.6456  -20.7530  -11.9525 O   0  0  0  0  0  0  0  0  0  0  0  0
   27.9698  -21.6839  -13.8994 O   0  0  0  0  0  0  0  0  0  0  0  0
  2  1  1  1
  3  2  1  0
  4  2  1  0
  4  5  2  0
  7  6  1  0
  7  8  1  0
  8 10  1  0
  8  9  1  6
 10 11  1  1
 10 12  1  0
 11  4  1  0
 12 19  1  0
 13 12  2  0
 14 15  1  0
 16 17  1  6
 16 18  1  0
 16 15  1  0
 18 20  1  0
 18 19  1  6
 20 21  2  0
 20 22  1  0
M  END
$$$$
