PMI.pdb
     RDKit          3D

 24 24  0  0  1  0  0  0  0  0999 V2000
    7.8558  -15.6504   19.3358 N   0  0  0  0  0  0  0  0  0  0  0  0
    8.0772  -15.0346   18.0401 C   0  0  0  0  0  0  0  0  0  0  0  0
    7.5148  -13.6348   18.1650 C   0  0  0  0  0  0  0  0  0  0  0  0
    7.1661  -13.4907   19.6522 C   0  0  0  0  0  0  0  0  0  0  0  0
    8.0725  -14.5581   20.2347 C   0  0  1  0  0  0  0  0  0  0  0  0
    7.7702  -14.8625   21.6329 C   0  0  0  0  0  0  0  0  0  0  0  0
    7.9129  -13.9647   22.4998 O   0  0  0  0  0  0  0  0  0  0  0  0
    5.8007  -20.9237   23.3106 C   0  0  0  0  0  0  0  0  0  0  0  0
    6.4214  -20.2699   24.8690 S   0  0  0  0  0  0  0  0  0  0  0  0
    6.5692  -18.4934   24.8311 C   0  0  0  0  0  0  0  0  0  0  0  0
    6.8171  -17.9789   23.4575 C   0  0  0  0  0  0  0  0  0  0  0  0
    7.0772  -16.4690   23.4475 C   0  0  2  0  0  0  0  0  0  0  0  0
    7.3196  -16.1352   22.0589 N   0  0  0  0  0  0  0  0  0  0  0  0
    8.1071  -16.0208   24.3656 C   0  0  0  0  0  0  0  0  0  0  0  0
    9.3192  -16.2926   24.1610 O   0  0  0  0  0  0  0  0  0  0  0  0
    6.5024  -11.4564   26.6516 C   0  0  0  0  0  0  0  0  0  0  0  0
    7.3389  -12.5513   26.0607 C   0  0  0  0  0  0  0  0  0  0  0  0
    7.9816  -13.4613   27.0592 C   0  0  2  0  0  0  0  0  0  0  0  0
    9.0247  -12.7528   27.8961 C   0  0  0  0  0  0  0  0  0  0  0  0
    8.6810  -14.6690   26.3950 C   0  0  2  0  0  0  0  0  0  0  0  0
    7.7319  -15.2589   25.5026 N   0  0  0  0  0  0  0  0  0  0  0  0
    9.0855  -15.6165   27.4779 C   0  0  0  0  0  0  0  0  0  0  0  0
   10.3493  -15.5122   28.0108 O   0  0  0  0  0  0  0  0  0  0  0  0
    8.3100  -16.4910   27.9012 O   0  0  0  0  0  0  0  0  0  0  0  0
  1  5  1  0
  1  2  1  0
  2  3  1  0
  4  3  1  0
  5  4  1  0
  6 13  1  0
  5  6  1  1
  7  6  2  0
  8  9  1  0
  9 10  1  0
 10 11  1  0
 12 11  1  6
 12 13  1  0
 14 15  2  0
 14 12  1  0
 16 17  1  0
 17 18  1  0
 18 20  1  0
 18 19  1  6
 20 22  1  0
 20 21  1  6
 21 14  1  0
 22 23  1  0
 24 22  2  0
M  END
$$$$
