PMI.pdb
     RDKit          3D

 24 24  0  0  1  0  0  0  0  0999 V2000
    7.8226  -17.2625   20.2810 N   0  0  0  0  0  0  0  0  0  0  0  0
    7.6897  -17.5952   18.8743 C   0  0  0  0  0  0  0  0  0  0  0  0
    7.9940  -16.3112   18.1328 C   0  0  0  0  0  0  0  0  0  0  0  0
    8.4821  -15.3447   19.2197 C   0  0  0  0  0  0  0  0  0  0  0  0
    8.9185  -16.3421   20.2755 C   0  0  1  0  0  0  0  0  0  0  0  0
    9.1865  -15.7203   21.5719 C   0  0  0  0  0  0  0  0  0  0  0  0
   10.2945  -15.1614   21.7657 O   0  0  0  0  0  0  0  0  0  0  0  0
    5.7233  -11.0902   25.7479 C   0  0  0  0  0  0  0  0  0  0  0  0
    5.4969  -12.8752   25.8110 S   0  0  0  0  0  0  0  0  0  0  0  0
    7.0268  -13.7480   25.5339 C   0  0  0  0  0  0  0  0  0  0  0  0
    7.0249  -14.4910   24.2451 C   0  0  0  0  0  0  0  0  0  0  0  0
    8.4273  -14.9692   23.8552 C   0  0  2  0  0  0  0  0  0  0  0  0
    8.2450  -15.7191   22.6293 N   0  0  0  0  0  0  0  0  0  0  0  0
    9.1418  -15.6806   24.8983 C   0  0  0  0  0  0  0  0  0  0  0  0
    9.0412  -16.9300   25.0150 O   0  0  0  0  0  0  0  0  0  0  0  0
   11.0288  -14.3353   30.5436 C   0  0  0  0  0  0  0  0  0  0  0  0
   11.2879  -15.1067   29.2844 C   0  0  0  0  0  0  0  0  0  0  0  0
   10.5820  -14.5879   28.0717 C   0  0  2  0  0  0  0  0  0  0  0  0
    9.1092  -14.3460   28.3223 C   0  0  0  0  0  0  0  0  0  0  0  0
   10.6818  -15.5549   26.8701 C   0  0  2  0  0  0  0  0  0  0  0  0
    9.9691  -14.9481   25.7888 N   0  0  0  0  0  0  0  0  0  0  0  0
   10.0679  -16.8556   27.2766 C   0  0  0  0  0  0  0  0  0  0  0  0
    8.7013  -16.9939   27.2044 O   0  0  0  0  0  0  0  0  0  0  0  0
   10.7617  -17.8060   27.6775 O   0  0  0  0  0  0  0  0  0  0  0  0
  1  5  1  0
  1  2  1  0
  2  3  1  0
  4  3  1  0
  5  4  1  0
  6 13  1  0
  5  6  1  1
  7  6  2  0
  8  9  1  0
  9 10  1  0
 10 11  1  0
 12 11  1  1
 12 13  1  0
 14 15  2  0
 14 12  1  0
 16 17  1  0
 17 18  1  0
 18 20  1  0
 18 19  1  1
 20 22  1  0
 20 21  1  6
 21 14  1  0
 22 23  1  0
 24 22  2  0
M  END
$$$$
