PMI.pdb
     RDKit          3D

 24 24  0  0  1  0  0  0  0  0999 V2000
    8.0083  -17.1473   20.3548 N   0  0  0  0  0  0  0  0  0  0  0  0
    7.7987  -17.3631   18.9347 C   0  0  0  0  0  0  0  0  0  0  0  0
    7.5403  -15.9875   18.3584 C   0  0  0  0  0  0  0  0  0  0  0  0
    7.8195  -15.0244   19.5196 C   0  0  0  0  0  0  0  0  0  0  0  0
    8.7136  -15.9021   20.3741 C   0  0  1  0  0  0  0  0  0  0  0  0
    8.9349  -15.3585   21.7137 C   0  0  0  0  0  0  0  0  0  0  0  0
   10.0591  -14.8777   22.0016 O   0  0  0  0  0  0  0  0  0  0  0  0
    6.1759  -11.4328   24.5560 C   0  0  0  0  0  0  0  0  0  0  0  0
    6.2387  -12.2946   26.1355 S   0  0  0  0  0  0  0  0  0  0  0  0
    6.6853  -14.0095   25.9380 C   0  0  0  0  0  0  0  0  0  0  0  0
    6.6969  -14.4268   24.5102 C   0  0  0  0  0  0  0  0  0  0  0  0
    8.1115  -14.7471   24.0164 C   0  0  2  0  0  0  0  0  0  0  0  0
    7.9303  -15.3490   22.7113 N   0  0  0  0  0  0  0  0  0  0  0  0
    8.9168  -15.5285   24.9358 C   0  0  0  0  0  0  0  0  0  0  0  0
    8.8269  -16.7837   24.9688 O   0  0  0  0  0  0  0  0  0  0  0  0
   10.9818  -14.2706   30.5202 C   0  0  0  0  0  0  0  0  0  0  0  0
   11.2479  -14.9679   29.2199 C   0  0  0  0  0  0  0  0  0  0  0  0
   10.2316  -14.7165   28.1513 C   0  0  2  0  0  0  0  0  0  0  0  0
    8.8305  -15.0821   28.5916 C   0  0  0  0  0  0  0  0  0  0  0  0
   10.5208  -15.5152   26.8600 C   0  0  2  0  0  0  0  0  0  0  0  0
    9.8212  -14.8580   25.7999 N   0  0  0  0  0  0  0  0  0  0  0  0
   10.0290  -16.9117   27.0653 C   0  0  0  0  0  0  0  0  0  0  0  0
   10.9433  -17.9018   27.3404 O   0  0  0  0  0  0  0  0  0  0  0  0
    8.8207  -17.1941   26.9906 O   0  0  0  0  0  0  0  0  0  0  0  0
  1  5  1  0
  1  2  1  0
  2  3  1  0
  4  3  1  0
  5  4  1  0
  6 13  1  0
  5  6  1  1
  7  6  2  0
  8  9  1  0
  9 10  1  0
 10 11  1  0
 12 11  1  1
 12 13  1  0
 14 15  2  0
 14 12  1  0
 16 17  1  0
 17 18  1  0
 18 20  1  0
 18 19  1  1
 20 22  1  0
 20 21  1  6
 21 14  1  0
 22 23  1  0
 24 22  2  0
M  END
$$$$
