PMI.pdb
     RDKit          3D

 24 24  0  0  1  0  0  0  0  0999 V2000
    8.4490  -17.0389   20.2350 N   0  0  0  0  0  0  0  0  0  0  0  0
    8.1638  -17.0785   18.8122 C   0  0  0  0  0  0  0  0  0  0  0  0
    7.6270  -15.7035   18.4770 C   0  0  0  0  0  0  0  0  0  0  0  0
    7.8311  -14.8867   19.7596 C   0  0  0  0  0  0  0  0  0  0  0  0
    8.9295  -15.7027   20.4136 C   0  0  1  0  0  0  0  0  0  0  0  0
    9.1633  -15.3305   21.8085 C   0  0  0  0  0  0  0  0  0  0  0  0
   10.3234  -15.0143   22.1718 O   0  0  0  0  0  0  0  0  0  0  0  0
    5.6370  -11.1284   26.0947 C   0  0  0  0  0  0  0  0  0  0  0  0
    5.4870  -12.8991   26.3832 S   0  0  0  0  0  0  0  0  0  0  0  0
    6.9843  -13.7694   25.9591 C   0  0  0  0  0  0  0  0  0  0  0  0
    6.9681  -14.2662   24.5570 C   0  0  0  0  0  0  0  0  0  0  0  0
    8.3251  -14.8385   24.1343 C   0  0  2  0  0  0  0  0  0  0  0  0
    8.1319  -15.3098   22.7782 N   0  0  0  0  0  0  0  0  0  0  0  0
    8.8823  -15.8229   25.0427 C   0  0  0  0  0  0  0  0  0  0  0  0
    8.7301  -17.0551   24.8342 O   0  0  0  0  0  0  0  0  0  0  0  0
   11.0898  -13.3418   29.4756 C   0  0  0  0  0  0  0  0  0  0  0  0
   10.9450  -14.0921   28.1857 C   0  0  0  0  0  0  0  0  0  0  0  0
   10.6240  -15.5456   28.3355 C   0  0  2  0  0  0  0  0  0  0  0  0
   11.7126  -16.3035   29.0643 C   0  0  0  0  0  0  0  0  0  0  0  0
   10.4185  -16.2494   26.9749 C   0  0  2  0  0  0  0  0  0  0  0  0
    9.6141  -15.3789   26.1746 N   0  0  0  0  0  0  0  0  0  0  0  0
    9.7350  -17.5534   27.2323 C   0  0  0  0  0  0  0  0  0  0  0  0
   10.4748  -18.7116   27.1741 O   0  0  0  0  0  0  0  0  0  0  0  0
    8.5210  -17.6119   27.4934 O   0  0  0  0  0  0  0  0  0  0  0  0
  1  5  1  0
  1  2  1  0
  2  3  1  0
  4  3  1  0
  5  4  1  0
  6 13  1  0
  5  6  1  1
  7  6  2  0
  8  9  1  0
  9 10  1  0
 10 11  1  0
 12 11  1  1
 12 13  1  0
 14 15  2  0
 14 12  1  0
 16 17  1  0
 17 18  1  0
 18 20  1  0
 18 19  1  6
 20 22  1  0
 20 21  1  6
 21 14  1  0
 22 23  1  0
 24 22  2  0
M  END
$$$$
