PMI.pdb
     RDKit          3D

 24 24  0  0  1  0  0  0  0  0999 V2000
    7.6095  -15.8363   20.0399 N   0  0  0  0  0  0  0  0  0  0  0  0
    7.5042  -15.7300   18.5960 C   0  0  0  0  0  0  0  0  0  0  0  0
    7.8809  -14.2994   18.2752 C   0  0  0  0  0  0  0  0  0  0  0  0
    8.3756  -13.7228   19.6082 C   0  0  0  0  0  0  0  0  0  0  0  0
    8.7411  -15.0079   20.3259 C   0  0  1  0  0  0  0  0  0  0  0  0
    8.9960  -14.8120   21.7527 C   0  0  0  0  0  0  0  0  0  0  0  0
   10.1205  -14.3911   22.1217 O   0  0  0  0  0  0  0  0  0  0  0  0
    6.4627  -10.9532   26.4655 C   0  0  0  0  0  0  0  0  0  0  0  0
    5.6271  -12.5418   26.3255 S   0  0  0  0  0  0  0  0  0  0  0  0
    6.7772  -13.8728   26.0341 C   0  0  0  0  0  0  0  0  0  0  0  0
    6.7828  -14.3100   24.6122 C   0  0  0  0  0  0  0  0  0  0  0  0
    8.1856  -14.7022   24.1371 C   0  0  2  0  0  0  0  0  0  0  0  0
    8.0240  -15.0774   22.7472 N   0  0  0  0  0  0  0  0  0  0  0  0
    8.8529  -15.6952   24.9576 C   0  0  0  0  0  0  0  0  0  0  0  0
    8.7648  -16.9219   24.6887 O   0  0  0  0  0  0  0  0  0  0  0  0
   10.4502  -14.0269   30.0471 C   0  0  0  0  0  0  0  0  0  0  0  0
   10.0049  -14.6179   28.7431 C   0  0  0  0  0  0  0  0  0  0  0  0
   11.0805  -15.3066   27.9641 C   0  0  2  0  0  0  0  0  0  0  0  0
   12.0909  -14.3346   27.3940 C   0  0  0  0  0  0  0  0  0  0  0  0
   10.5210  -16.1228   26.7769 C   0  0  2  0  0  0  0  0  0  0  0  0
    9.6194  -15.2653   26.0719 N   0  0  0  0  0  0  0  0  0  0  0  0
    9.8231  -17.3216   27.3337 C   0  0  0  0  0  0  0  0  0  0  0  0
    8.4512  -17.3839   27.2573 O   0  0  0  0  0  0  0  0  0  0  0  0
   10.4524  -18.2544   27.8622 O   0  0  0  0  0  0  0  0  0  0  0  0
  1  5  1  0
  1  2  1  0
  2  3  1  0
  4  3  1  0
  5  4  1  0
  6 13  1  0
  5  6  1  1
  7  6  2  0
  8  9  1  0
  9 10  1  0
 10 11  1  0
 12 11  1  1
 12 13  1  0
 14 15  2  0
 14 12  1  0
 16 17  1  0
 17 18  1  0
 18 20  1  0
 18 19  1  6
 20 22  1  0
 20 21  1  1
 21 14  1  0
 22 23  1  0
 24 22  2  0
M  END
$$$$
