CFT.pdb
     RDKit          3D

 25 25  0  0  1  0  0  0  0  0999 V2000
   34.0328  -32.8404  -18.1444 N   0  0  0  0  0  0  0  0  0  0  0  0
   33.0639  -32.7011  -19.1868 C   0  0  1  0  0  0  0  0  0  0  0  0
   33.1005  -33.8436  -20.1728 C   0  0  0  0  0  0  0  0  0  0  0  0
   32.0688  -33.4498  -21.6117 S   0  0  0  0  0  0  0  0  0  0  0  0
   31.6833  -32.6838  -18.5817 C   0  0  0  0  0  0  0  0  0  0  0  0
   31.3662  -33.5567  -17.7400 O   0  0  0  0  0  0  0  0  0  0  0  0
   30.7298  -31.7088  -18.9354 N   0  0  0  0  0  0  0  0  0  0  0  0
   29.4130  -31.6814  -18.3727 C   0  0  1  0  0  0  0  0  0  0  0  0
   28.8699  -30.3236  -18.0782 C   0  0  0  0  0  0  0  0  0  0  0  0
   27.5125  -30.3784  -17.4787 C   0  0  0  0  0  0  0  0  0  0  0  0
   27.4133  -30.5735  -16.1180 C   0  0  0  0  0  0  0  0  0  0  0  0
   26.1431  -30.6209  -15.5836 C   0  0  0  0  0  0  0  0  0  0  0  0
   25.0147  -30.4805  -16.3674 C   0  0  0  0  0  0  0  0  0  0  0  0
   25.1245  -30.2879  -17.7132 C   0  0  0  0  0  0  0  0  0  0  0  0
   26.3896  -30.2381  -18.2629 C   0  0  0  0  0  0  0  0  0  0  0  0
   28.4572  -32.4945  -19.2113 C   0  0  0  0  0  0  0  0  0  0  0  0
   28.3797  -32.2707  -20.4409 O   0  0  0  0  0  0  0  0  0  0  0  0
   28.2012  -36.1598  -19.7501 C   0  0  0  0  0  0  0  0  0  0  0  0
   26.8487  -35.7097  -19.2467 C   0  0  1  0  0  0  0  0  0  0  0  0
   26.7591  -35.9898  -17.8841 O   0  0  0  0  0  0  0  0  0  0  0  0
   26.7423  -34.2202  -19.4948 C   0  0  2  0  0  0  0  0  0  0  0  0
   27.6474  -33.5006  -18.6513 N   0  0  0  0  0  0  0  0  0  0  0  0
   25.3632  -33.7832  -19.2222 C   0  0  0  0  0  0  0  0  0  0  0  0
   24.3170  -34.2183  -20.0198 O   0  0  0  0  0  0  0  0  0  0  0  0
   25.1390  -33.0140  -18.2635 O   0  0  0  0  0  0  0  0  0  0  0  0
  2  5  1  0
  2  1  1  1
  3  2  1  0
  4  3  1  0
  5  6  2  0
  7  8  1  0
  7  5  1  0
  8  9  1  6
  9 10  1  0
 10 15  2  0
 11 10  1  0
 11 12  2  0
 12 13  1  0
 13 14  2  0
 15 14  1  0
 16 17  2  0
 16  8  1  0
 19 18  1  1
 19 21  1  0
 20 19  1  0
 21 23  1  0
 21 22  1  1
 22 16  1  0
 23 24  1  0
 25 23  2  0
M  END
$$$$
