CFT.pdb
     RDKit          3D

 25 25  0  0  1  0  0  0  0  0999 V2000
   22.0763  -11.0972  -18.9308 N   0  0  0  0  0  0  0  0  0  0  0  0
   22.0086   -9.6986  -19.2205 C   0  0  1  0  0  0  0  0  0  0  0  0
   21.1252   -9.3910  -20.4052 C   0  0  0  0  0  0  0  0  0  0  0  0
   21.9374   -9.9265  -21.9361 S   0  0  0  0  0  0  0  0  0  0  0  0
   21.4253   -8.9740  -18.0343 C   0  0  0  0  0  0  0  0  0  0  0  0
   20.3561   -9.3835  -17.5242 O   0  0  0  0  0  0  0  0  0  0  0  0
   22.0494   -7.8410  -17.4759 N   0  0  0  0  0  0  0  0  0  0  0  0
   21.5397   -7.1768  -16.3138 C   0  0  1  0  0  0  0  0  0  0  0  0
   22.5098   -7.0120  -15.1926 C   0  0  0  0  0  0  0  0  0  0  0  0
   22.8374   -8.3039  -14.5377 C   0  0  0  0  0  0  0  0  0  0  0  0
   22.0077   -8.7478  -13.5308 C   0  0  0  0  0  0  0  0  0  0  0  0
   22.3315   -9.9497  -12.9373 C   0  0  0  0  0  0  0  0  0  0  0  0
   23.4349  -10.6832  -13.3268 C   0  0  0  0  0  0  0  0  0  0  0  0
   24.2493  -10.2344  -14.3246 C   0  0  0  0  0  0  0  0  0  0  0  0
   23.9381   -9.0327  -14.9283 C   0  0  0  0  0  0  0  0  0  0  0  0
   20.8930   -5.8657  -16.6890 C   0  0  0  0  0  0  0  0  0  0  0  0
   21.5957   -4.9582  -17.1898 O   0  0  0  0  0  0  0  0  0  0  0  0
   17.1537   -5.6551  -18.0234 C   0  0  0  0  0  0  0  0  0  0  0  0
   18.2118   -4.6004  -18.2537 C   0  0  1  0  0  0  0  0  0  0  0  0
   17.5905   -3.4191  -18.6556 O   0  0  0  0  0  0  0  0  0  0  0  0
   18.9478   -4.3996  -16.9462 C   0  0  2  0  0  0  0  0  0  0  0  0
   19.5189   -5.6312  -16.4926 N   0  0  0  0  0  0  0  0  0  0  0  0
   18.0055   -3.8928  -15.9351 C   0  0  0  0  0  0  0  0  0  0  0  0
   17.6697   -2.5489  -15.8979 O   0  0  0  0  0  0  0  0  0  0  0  0
   17.5072   -4.6838  -15.1063 O   0  0  0  0  0  0  0  0  0  0  0  0
  2  5  1  0
  2  1  1  1
  3  2  1  0
  4  3  1  0
  5  6  2  0
  7  8  1  0
  7  5  1  0
  8  9  1  1
  9 10  1  0
 10 15  2  0
 11 10  1  0
 11 12  2  0
 12 13  1  0
 13 14  2  0
 15 14  1  0
 16 17  2  0
 16  8  1  0
 19 18  1  1
 19 21  1  0
 20 19  1  0
 21 23  1  0
 21 22  1  1
 22 16  1  0
 23 24  1  0
 25 23  2  0
M  END
$$$$
