CFT.pdb
     RDKit          3D

 25 25  0  0  1  0  0  0  0  0999 V2000
   23.9936  -12.9119  -18.9309 N   0  0  0  0  0  0  0  0  0  0  0  0
   23.6242  -11.5640  -19.2330 C   0  0  1  0  0  0  0  0  0  0  0  0
   22.2165  -11.4511  -19.7664 C   0  0  0  0  0  0  0  0  0  0  0  0
   22.1155  -12.2170  -21.4075 S   0  0  0  0  0  0  0  0  0  0  0  0
   23.6869  -10.7382  -17.9733 C   0  0  0  0  0  0  0  0  0  0  0  0
   23.2886  -11.2299  -16.8914 O   0  0  0  0  0  0  0  0  0  0  0  0
   24.1835   -9.4198  -17.9738 N   0  0  0  0  0  0  0  0  0  0  0  0
   24.3015   -8.6422  -16.7767 C   0  0  1  0  0  0  0  0  0  0  0  0
   25.6967   -8.3597  -16.3309 C   0  0  0  0  0  0  0  0  0  0  0  0
   26.5045   -9.5980  -16.1918 C   0  0  0  0  0  0  0  0  0  0  0  0
   27.3748   -9.9208  -17.2104 C   0  0  0  0  0  0  0  0  0  0  0  0
   28.1143  -11.0749  -17.0595 C   0  0  0  0  0  0  0  0  0  0  0  0
   27.9957  -11.8779  -15.9422 C   0  0  0  0  0  0  0  0  0  0  0  0
   27.1311  -11.5489  -14.9400 C   0  0  0  0  0  0  0  0  0  0  0  0
   26.3839  -10.3964  -15.0767 C   0  0  0  0  0  0  0  0  0  0  0  0
   23.4818   -7.3790  -16.8780 C   0  0  0  0  0  0  0  0  0  0  0  0
   23.8283   -6.4879  -17.6867 O   0  0  0  0  0  0  0  0  0  0  0  0
   20.0279   -7.0810  -17.8889 C   0  0  0  0  0  0  0  0  0  0  0  0
   20.0933   -6.3770  -16.5528 C   0  0  1  0  0  0  0  0  0  0  0  0
   19.6331   -7.2444  -15.5635 O   0  0  0  0  0  0  0  0  0  0  0  0
   21.5388   -6.0019  -16.3052 C   0  0  2  0  0  0  0  0  0  0  0  0
   22.3351   -7.1712  -16.0881 N   0  0  0  0  0  0  0  0  0  0  0  0
   21.6148   -5.1287  -15.1224 C   0  0  0  0  0  0  0  0  0  0  0  0
   21.0442   -3.8662  -15.1426 O   0  0  0  0  0  0  0  0  0  0  0  0
   22.1991   -5.5332  -14.0948 O   0  0  0  0  0  0  0  0  0  0  0  0
  2  5  1  0
  2  1  1  1
  3  2  1  0
  4  3  1  0
  5  6  2  0
  7  8  1  0
  7  5  1  0
  8  9  1  6
  9 10  1  0
 10 15  2  0
 11 10  1  0
 11 12  2  0
 12 13  1  0
 13 14  2  0
 15 14  1  0
 16 17  2  0
 16  8  1  0
 19 18  1  6
 19 21  1  0
 20 19  1  0
 21 23  1  0
 21 22  1  1
 22 16  1  0
 23 24  1  0
 25 23  2  0
M  END
$$$$
