CFT.pdb
     RDKit          3D

 25 25  0  0  1  0  0  0  0  0999 V2000
   29.4373  -21.0822  -14.0918 N   0  0  0  0  0  0  0  0  0  0  0  0
   28.6103  -20.0298  -13.5884 C   0  0  1  0  0  0  0  0  0  0  0  0
   28.1265  -19.0990  -14.6738 C   0  0  0  0  0  0  0  0  0  0  0  0
   27.3791  -17.6221  -13.9321 S   0  0  0  0  0  0  0  0  0  0  0  0
   27.3871  -20.6269  -12.9405 C   0  0  0  0  0  0  0  0  0  0  0  0
   26.8986  -21.6856  -13.4003 O   0  0  0  0  0  0  0  0  0  0  0  0
   26.7703  -20.0272  -11.8248 N   0  0  0  0  0  0  0  0  0  0  0  0
   25.6243  -20.5967  -11.1814 C   0  0  1  0  0  0  0  0  0  0  0  0
   25.4069  -20.1736   -9.7675 C   0  0  0  0  0  0  0  0  0  0  0  0
   26.6668  -20.1694   -8.9815 C   0  0  0  0  0  0  0  0  0  0  0  0
   27.6304  -21.1024   -9.2983 C   0  0  0  0  0  0  0  0  0  0  0  0
   28.7917  -21.0797   -8.5552 C   0  0  0  0  0  0  0  0  0  0  0  0
   28.9904  -20.1676   -7.5374 C   0  0  0  0  0  0  0  0  0  0  0  0
   28.0299  -19.2484   -7.2324 C   0  0  0  0  0  0  0  0  0  0  0  0
   26.8617  -19.2587   -7.9675 C   0  0  0  0  0  0  0  0  0  0  0  0
   24.3862  -20.3953  -12.0205 C   0  0  0  0  0  0  0  0  0  0  0  0
   24.1281  -19.2538  -12.4662 O   0  0  0  0  0  0  0  0  0  0  0  0
   23.6845  -22.2677  -15.0736 C   0  0  0  0  0  0  0  0  0  0  0  0
   22.3985  -22.3398  -14.2824 C   0  0  1  0  0  0  0  0  0  0  0  0
   22.3148  -23.5900  -13.6715 O   0  0  0  0  0  0  0  0  0  0  0  0
   22.4393  -21.2388  -13.2443 C   0  0  2  0  0  0  0  0  0  0  0  0
   23.5093  -21.4554  -12.3186 N   0  0  0  0  0  0  0  0  0  0  0  0
   21.1589  -21.2126  -12.5184 C   0  0  0  0  0  0  0  0  0  0  0  0
   21.1091  -21.5220  -11.1687 O   0  0  0  0  0  0  0  0  0  0  0  0
   20.1115  -20.9086  -13.1280 O   0  0  0  0  0  0  0  0  0  0  0  0
  2  5  1  0
  2  1  1  6
  3  2  1  0
  4  3  1  0
  5  6  2  0
  7  8  1  0
  7  5  1  0
  8  9  1  1
  9 10  1  0
 10 15  2  0
 11 10  1  0
 11 12  2  0
 12 13  1  0
 13 14  2  0
 15 14  1  0
 16 17  2  0
 16  8  1  0
 19 18  1  1
 19 21  1  0
 20 19  1  0
 21 23  1  0
 21 22  1  1
 22 16  1  0
 23 24  1  0
 25 23  2  0
M  END
$$$$
