CFT.pdb
     RDKit          3D

 25 25  0  0  1  0  0  0  0  0999 V2000
   28.8144  -20.7467  -14.8211 N   0  0  0  0  0  0  0  0  0  0  0  0
   28.0757  -19.9361  -13.9034 C   0  0  1  0  0  0  0  0  0  0  0  0
   27.6018  -18.6422  -14.5198 C   0  0  0  0  0  0  0  0  0  0  0  0
   29.0251  -17.5907  -14.9179 S   0  0  0  0  0  0  0  0  0  0  0  0
   26.8483  -20.6875  -13.4546 C   0  0  0  0  0  0  0  0  0  0  0  0
   26.2960  -21.4940  -14.2391 O   0  0  0  0  0  0  0  0  0  0  0  0
   26.2976  -20.5103  -12.1700 N   0  0  0  0  0  0  0  0  0  0  0  0
   25.1561  -21.2458  -11.7147 C   0  0  1  0  0  0  0  0  0  0  0  0
   25.1501  -21.5854  -10.2621 C   0  0  0  0  0  0  0  0  0  0  0  0
   26.2994  -20.9839   -9.5391 C   0  0  0  0  0  0  0  0  0  0  0  0
   26.0480  -19.9311   -8.6860 C   0  0  0  0  0  0  0  0  0  0  0  0
   27.1302  -19.3887   -8.0256 C   0  0  0  0  0  0  0  0  0  0  0  0
   28.4119  -19.8710   -8.2038 C   0  0  0  0  0  0  0  0  0  0  0  0
   28.6493  -20.9136   -9.0506 C   0  0  0  0  0  0  0  0  0  0  0  0
   27.5759  -21.4672   -9.7190 C   0  0  0  0  0  0  0  0  0  0  0  0
   23.8781  -20.5602  -12.1324 C   0  0  0  0  0  0  0  0  0  0  0  0
   23.7028  -19.3572  -11.8322 O   0  0  0  0  0  0  0  0  0  0  0  0
   22.7562  -19.8196  -15.4214 C   0  0  0  0  0  0  0  0  0  0  0  0
   21.6093  -20.5988  -14.8194 C   0  0  1  0  0  0  0  0  0  0  0  0
   21.6975  -21.9257  -15.2373 O   0  0  0  0  0  0  0  0  0  0  0  0
   21.7332  -20.5028  -13.3137 C   0  0  2  0  0  0  0  0  0  0  0  0
   22.8734  -21.2344  -12.8520 N   0  0  0  0  0  0  0  0  0  0  0  0
   20.5146  -21.0486  -12.6937 C   0  0  0  0  0  0  0  0  0  0  0  0
   19.2905  -20.4277  -12.8834 O   0  0  0  0  0  0  0  0  0  0  0  0
   20.5895  -22.0795  -11.9919 O   0  0  0  0  0  0  0  0  0  0  0  0
  2  5  1  0
  2  1  1  6
  3  2  1  0
  4  3  1  0
  5  6  2  0
  7  8  1  0
  7  5  1  0
  8  9  1  1
  9 10  1  0
 10 15  2  0
 11 10  1  0
 11 12  2  0
 12 13  1  0
 13 14  2  0
 15 14  1  0
 16 17  2  0
 16  8  1  0
 19 18  1  6
 19 21  1  0
 20 19  1  0
 21 23  1  0
 21 22  1  1
 22 16  1  0
 23 24  1  0
 25 23  2  0
M  END
$$$$
