CFT.pdb
     RDKit          3D

 25 25  0  0  1  0  0  0  0  0999 V2000
   30.8871  -22.1811  -10.6950 N   0  0  0  0  0  0  0  0  0  0  0  0
   30.0988  -20.9895  -10.7537 C   0  0  1  0  0  0  0  0  0  0  0  0
   29.7393  -20.5977  -12.1665 C   0  0  0  0  0  0  0  0  0  0  0  0
   31.2231  -20.0409  -13.0488 S   0  0  0  0  0  0  0  0  0  0  0  0
   28.8043  -21.2142  -10.0145 C   0  0  0  0  0  0  0  0  0  0  0  0
   28.3616  -22.3794   -9.8832 O   0  0  0  0  0  0  0  0  0  0  0  0
   28.0700  -20.1464   -9.4616 N   0  0  0  0  0  0  0  0  0  0  0  0
   26.7167  -20.2932   -9.0162 C   0  0  1  0  0  0  0  0  0  0  0  0
   26.3416  -19.4762   -7.8258 C   0  0  0  0  0  0  0  0  0  0  0  0
   27.2043  -19.7636   -6.6518 C   0  0  0  0  0  0  0  0  0  0  0  0
   26.9561  -20.9122   -5.9318 C   0  0  0  0  0  0  0  0  0  0  0  0
   27.7697  -21.1583   -4.8461 C   0  0  0  0  0  0  0  0  0  0  0  0
   28.7899  -20.2992   -4.4877 C   0  0  0  0  0  0  0  0  0  0  0  0
   29.0268  -19.1651   -5.2074 C   0  0  0  0  0  0  0  0  0  0  0  0
   28.2205  -18.9051   -6.2972 C   0  0  0  0  0  0  0  0  0  0  0  0
   25.7533  -20.0878  -10.1597 C   0  0  0  0  0  0  0  0  0  0  0  0
   25.6646  -18.9565  -10.6892 O   0  0  0  0  0  0  0  0  0  0  0  0
   25.7825  -21.8572  -13.3488 C   0  0  0  0  0  0  0  0  0  0  0  0
   24.3664  -21.9972  -12.8389 C   0  0  1  0  0  0  0  0  0  0  0  0
   24.2179  -23.2573  -12.2616 O   0  0  0  0  0  0  0  0  0  0  0  0
   24.1417  -20.9083  -11.8116 C   0  0  2  0  0  0  0  0  0  0  0  0
   24.9485  -21.1331  -10.6510 N   0  0  0  0  0  0  0  0  0  0  0  0
   22.7207  -20.8935  -11.4273 C   0  0  0  0  0  0  0  0  0  0  0  0
   21.7390  -20.6449  -12.3731 O   0  0  0  0  0  0  0  0  0  0  0  0
   22.4020  -21.1072  -10.2383 O   0  0  0  0  0  0  0  0  0  0  0  0
  2  5  1  0
  2  1  1  6
  3  2  1  0
  4  3  1  0
  5  6  2  0
  7  8  1  0
  7  5  1  0
  8  9  1  1
  9 10  1  0
 10 15  2  0
 11 10  1  0
 11 12  2  0
 12 13  1  0
 13 14  2  0
 15 14  1  0
 16 17  2  0
 16  8  1  0
 19 18  1  1
 19 21  1  0
 20 19  1  0
 21 23  1  0
 21 22  1  1
 22 16  1  0
 23 24  1  0
 25 23  2  0
M  END
$$$$
