CFT.pdb
     RDKit          3D

 25 25  0  0  1  0  0  0  0  0999 V2000
   24.8818  -12.1940  -19.9277 N   0  0  0  0  0  0  0  0  0  0  0  0
   24.7922  -10.7766  -19.7613 C   0  0  1  0  0  0  0  0  0  0  0  0
   23.7162  -10.1560  -20.6190 C   0  0  0  0  0  0  0  0  0  0  0  0
   24.2841  -10.0468  -22.3381 S   0  0  0  0  0  0  0  0  0  0  0  0
   24.4476  -10.4665  -18.3268 C   0  0  0  0  0  0  0  0  0  0  0  0
   23.5745  -11.1475  -17.7396 O   0  0  0  0  0  0  0  0  0  0  0  0
   25.0816   -9.4262  -17.6192 N   0  0  0  0  0  0  0  0  0  0  0  0
   24.7530   -9.1079  -16.2619 C   0  0  1  0  0  0  0  0  0  0  0  0
   25.8484   -9.3176  -15.2712 C   0  0  0  0  0  0  0  0  0  0  0  0
   26.4339  -10.6794  -15.3598 C   0  0  0  0  0  0  0  0  0  0  0  0
   27.5962  -10.8384  -16.0831 C   0  0  0  0  0  0  0  0  0  0  0  0
   28.1215  -12.1115  -16.1515 C   0  0  0  0  0  0  0  0  0  0  0  0
   27.5182  -13.1856  -15.5272 C   0  0  0  0  0  0  0  0  0  0  0  0
   26.3679  -13.0168  -14.8139 C   0  0  0  0  0  0  0  0  0  0  0  0
   25.8299  -11.7480  -14.7363 C   0  0  0  0  0  0  0  0  0  0  0  0
   24.1721   -7.7183  -16.1653 C   0  0  0  0  0  0  0  0  0  0  0  0
   24.8209   -6.7507  -16.6244 O   0  0  0  0  0  0  0  0  0  0  0  0
   21.0531   -6.5144  -17.6265 C   0  0  0  0  0  0  0  0  0  0  0  0
   20.9635   -6.1688  -16.1577 C   0  0  1  0  0  0  0  0  0  0  0  0
   20.1932   -7.1356  -15.5135 O   0  0  0  0  0  0  0  0  0  0  0  0
   22.3731   -6.1530  -15.6060 C   0  0  2  0  0  0  0  0  0  0  0  0
   22.9184   -7.4759  -15.5726 N   0  0  0  0  0  0  0  0  0  0  0  0
   22.3516   -5.5954  -14.2437 C   0  0  0  0  0  0  0  0  0  0  0  0
   22.0250   -4.2653  -14.0333 O   0  0  0  0  0  0  0  0  0  0  0  0
   22.6308   -6.3306  -13.2729 O   0  0  0  0  0  0  0  0  0  0  0  0
  2  5  1  0
  2  1  1  1
  3  2  1  0
  4  3  1  0
  5  6  2  0
  7  8  1  0
  7  5  1  0
  8  9  1  1
  9 10  1  0
 10 15  2  0
 11 10  1  0
 11 12  2  0
 12 13  1  0
 13 14  2  0
 15 14  1  0
 16 17  2  0
 16  8  1  0
 19 18  1  6
 19 21  1  0
 20 19  1  0
 21 23  1  0
 21 22  1  1
 22 16  1  0
 23 24  1  0
 25 23  2  0
M  END
$$$$
