CFT.pdb
     RDKit          3D

 25 25  0  0  1  0  0  0  0  0999 V2000
   19.9768  -12.2111  -18.7052 N   0  0  0  0  0  0  0  0  0  0  0  0
   20.8204  -11.0565  -18.6981 C   0  0  1  0  0  0  0  0  0  0  0  0
   20.6527  -10.2047  -19.9329 C   0  0  0  0  0  0  0  0  0  0  0  0
   18.9161   -9.7126  -20.1117 S   0  0  0  0  0  0  0  0  0  0  0  0
   20.4686  -10.1925  -17.5140 C   0  0  0  0  0  0  0  0  0  0  0  0
   19.3116  -10.2419  -17.0346 O   0  0  0  0  0  0  0  0  0  0  0  0
   21.4075   -9.3234  -16.9239 N   0  0  0  0  0  0  0  0  0  0  0  0
   21.0903   -8.5003  -15.7954 C   0  0  1  0  0  0  0  0  0  0  0  0
   22.0561   -8.5688  -14.6606 C   0  0  0  0  0  0  0  0  0  0  0  0
   21.6636   -7.6848  -13.5338 C   0  0  0  0  0  0  0  0  0  0  0  0
   22.1714   -6.4039  -13.5088 C   0  0  0  0  0  0  0  0  0  0  0  0
   21.7933   -5.6013  -12.4532 C   0  0  0  0  0  0  0  0  0  0  0  0
   20.9448   -6.0509  -11.4607 C   0  0  0  0  0  0  0  0  0  0  0  0
   20.4480   -7.3207  -11.4953 C   0  0  0  0  0  0  0  0  0  0  0  0
   20.8175   -8.1361  -12.5459 C   0  0  0  0  0  0  0  0  0  0  0  0
   20.8375   -7.0766  -16.2276 C   0  0  0  0  0  0  0  0  0  0  0  0
   21.7021   -6.4819  -16.9110 O   0  0  0  0  0  0  0  0  0  0  0  0
   17.0520   -5.3526  -15.7970 C   0  0  0  0  0  0  0  0  0  0  0  0
   17.9526   -5.0576  -16.9747 C   0  0  1  0  0  0  0  0  0  0  0  0
   17.6563   -3.7852  -17.4609 O   0  0  0  0  0  0  0  0  0  0  0  0
   19.3828   -5.1226  -16.4827 C   0  0  2  0  0  0  0  0  0  0  0  0
   19.6550   -6.3941  -15.8847 N   0  0  0  0  0  0  0  0  0  0  0  0
   19.6009   -4.0562  -15.4916 C   0  0  0  0  0  0  0  0  0  0  0  0
   19.7743   -2.7430  -15.8982 O   0  0  0  0  0  0  0  0  0  0  0  0
   19.6291   -4.3419  -14.2756 O   0  0  0  0  0  0  0  0  0  0  0  0
  2  5  1  0
  2  1  1  6
  3  2  1  0
  4  3  1  0
  5  6  2  0
  7  8  1  0
  7  5  1  0
  8  9  1  1
  9 10  1  0
 10 15  2  0
 11 10  1  0
 11 12  2  0
 12 13  1  0
 13 14  2  0
 15 14  1  0
 16 17  2  0
 16  8  1  0
 19 18  1  1
 19 21  1  0
 20 19  1  0
 21 23  1  0
 21 22  1  1
 22 16  1  0
 23 24  1  0
 25 23  2  0
M  END
$$$$
