CFT.pdb
     RDKit          3D

 25 25  0  0  1  0  0  0  0  0999 V2000
   28.9000  -20.8874  -14.6146 N   0  0  0  0  0  0  0  0  0  0  0  0
   28.4719  -20.0896  -13.5079 C   0  0  1  0  0  0  0  0  0  0  0  0
   28.1816  -18.6604  -13.8975 C   0  0  0  0  0  0  0  0  0  0  0  0
   26.6837  -18.5913  -14.9180 S   0  0  0  0  0  0  0  0  0  0  0  0
   27.1953  -20.6629  -12.9475 C   0  0  0  0  0  0  0  0  0  0  0  0
   26.6145  -21.5912  -13.5573 O   0  0  0  0  0  0  0  0  0  0  0  0
   26.6293  -20.1839  -11.7495 N   0  0  0  0  0  0  0  0  0  0  0  0
   25.4896  -20.7992  -11.1378 C   0  0  1  0  0  0  0  0  0  0  0  0
   25.2838  -20.4764   -9.6960 C   0  0  0  0  0  0  0  0  0  0  0  0
   26.5523  -20.5128   -8.9248 C   0  0  0  0  0  0  0  0  0  0  0  0
   27.4797  -21.4791   -9.2495 C   0  0  0  0  0  0  0  0  0  0  0  0
   28.6498  -21.4937   -8.5201 C   0  0  0  0  0  0  0  0  0  0  0  0
   28.8915  -20.5856   -7.5081 C   0  0  0  0  0  0  0  0  0  0  0  0
   27.9666  -19.6333   -7.1950 C   0  0  0  0  0  0  0  0  0  0  0  0
   26.7901  -19.6061   -7.9164 C   0  0  0  0  0  0  0  0  0  0  0  0
   24.2440  -20.5419  -11.9502 C   0  0  0  0  0  0  0  0  0  0  0  0
   23.9402  -19.3642  -12.2481 O   0  0  0  0  0  0  0  0  0  0  0  0
   23.5158  -22.2875  -15.1883 C   0  0  0  0  0  0  0  0  0  0  0  0
   22.2491  -22.3625  -14.3667 C   0  0  1  0  0  0  0  0  0  0  0  0
   22.1542  -23.6324  -13.7998 O   0  0  0  0  0  0  0  0  0  0  0  0
   22.3399  -21.3016  -13.2907 C   0  0  2  0  0  0  0  0  0  0  0  0
   23.4102  -21.5896  -12.3851 N   0  0  0  0  0  0  0  0  0  0  0  0
   21.0683  -21.2555  -12.5503 C   0  0  0  0  0  0  0  0  0  0  0  0
   19.8801  -20.9846  -13.2096 O   0  0  0  0  0  0  0  0  0  0  0  0
   21.0652  -21.4628  -11.3182 O   0  0  0  0  0  0  0  0  0  0  0  0
  2  5  1  0
  2  1  1  6
  3  2  1  0
  4  3  1  0
  5  6  2  0
  7  8  1  0
  7  5  1  0
  8  9  1  1
  9 10  1  0
 10 15  2  0
 11 10  1  0
 11 12  2  0
 12 13  1  0
 13 14  2  0
 15 14  1  0
 16 17  2  0
 16  8  1  0
 19 18  1  6
 19 21  1  0
 20 19  1  0
 21 23  1  0
 21 22  1  1
 22 16  1  0
 23 24  1  0
 25 23  2  0
M  END
$$$$
