CFT.pdb
     RDKit          3D

 25 25  0  0  1  0  0  0  0  0999 V2000
   23.9352  -26.6053  -20.6393 N   0  0  0  0  0  0  0  0  0  0  0  0
   23.5801  -27.1125  -19.3503 C   0  0  1  0  0  0  0  0  0  0  0  0
   22.3344  -27.9645  -19.3822 C   0  0  0  0  0  0  0  0  0  0  0  0
   22.0327  -28.5531  -21.0712 S   0  0  0  0  0  0  0  0  0  0  0  0
   24.6977  -27.9828  -18.8346 C   0  0  0  0  0  0  0  0  0  0  0  0
   25.6121  -28.3409  -19.6135 O   0  0  0  0  0  0  0  0  0  0  0  0
   24.7473  -28.4102  -17.4930 N   0  0  0  0  0  0  0  0  0  0  0  0
   25.8846  -29.0849  -16.9426 C   0  0  1  0  0  0  0  0  0  0  0  0
   26.5678  -28.3782  -15.8205 C   0  0  0  0  0  0  0  0  0  0  0  0
   27.2174  -27.1179  -16.2619 C   0  0  0  0  0  0  0  0  0  0  0  0
   26.4693  -25.9608  -16.2362 C   0  0  0  0  0  0  0  0  0  0  0  0
   27.0933  -24.8029  -16.6504 C   0  0  0  0  0  0  0  0  0  0  0  0
   28.4078  -24.7924  -17.0737 C   0  0  0  0  0  0  0  0  0  0  0  0
   29.1390  -25.9436  -17.0951 C   0  0  0  0  0  0  0  0  0  0  0  0
   28.5281  -27.1108  -16.6833 C   0  0  0  0  0  0  0  0  0  0  0  0
   25.5357  -30.5068  -16.5762 C   0  0  0  0  0  0  0  0  0  0  0  0
   24.4032  -30.7567  -16.1039 O   0  0  0  0  0  0  0  0  0  0  0  0
   26.6830  -35.2529  -16.3729 C   0  0  0  0  0  0  0  0  0  0  0  0
   27.0608  -33.9019  -16.9361 C   0  0  1  0  0  0  0  0  0  0  0  0
   27.0539  -33.9761  -18.3280 O   0  0  0  0  0  0  0  0  0  0  0  0
   26.0346  -32.9015  -16.4486 C   0  0  2  0  0  0  0  0  0  0  0  0
   26.4481  -31.5647  -16.7498 N   0  0  0  0  0  0  0  0  0  0  0  0
   25.8705  -33.0492  -14.9931 C   0  0  0  0  0  0  0  0  0  0  0  0
   24.8909  -33.8822  -14.4768 O   0  0  0  0  0  0  0  0  0  0  0  0
   26.6224  -32.4168  -14.2212 O   0  0  0  0  0  0  0  0  0  0  0  0
  2  5  1  0
  2  1  1  6
  3  2  1  0
  4  3  1  0
  5  6  2  0
  7  8  1  0
  7  5  1  0
  8  9  1  1
  9 10  1  0
 10 15  2  0
 11 10  1  0
 11 12  2  0
 12 13  1  0
 13 14  2  0
 15 14  1  0
 16 17  2  0
 16  8  1  0
 19 18  1  1
 19 21  1  0
 20 19  1  0
 21 23  1  0
 21 22  1  1
 22 16  1  0
 23 24  1  0
 25 23  2  0
M  END
$$$$
