QIS.pdb
     RDKit          3D

 24 23  0  0  1  0  0  0  0  0999 V2000
    5.6949  -19.2698   20.1584 N   0  0  0  0  0  0  0  0  0  0  0  0
    5.5808  -17.8451   20.3482 C   0  0  0  0  0  0  0  0  0  0  0  0
    4.5338  -17.3522   20.8412 O   0  0  0  0  0  0  0  0  0  0  0  0
    6.7328  -17.0334   19.9431 C   0  0  0  0  0  0  0  0  0  0  0  0
    7.4752  -16.5236   21.1295 C   0  0  0  0  0  0  0  0  0  0  0  0
    7.2940  -15.0446   21.2798 C   0  0  2  0  0  0  0  0  0  0  0  0
    7.7050  -14.3131   20.1127 N   0  0  0  0  0  0  0  0  0  0  0  0
    8.0326  -14.6351   22.5012 C   0  0  0  0  0  0  0  0  0  0  0  0
    9.2752  -14.4876   22.3916 O   0  0  0  0  0  0  0  0  0  0  0  0
    5.9901  -11.2477   25.9800 C   0  0  0  0  0  0  0  0  0  0  0  0
    6.9870  -12.0219   25.0868 C   0  0  0  0  0  0  0  0  0  0  0  0
    7.3979  -13.2599   25.8021 C   0  0  2  0  0  0  0  0  0  0  0  0
    8.0240  -12.9500   27.1471 C   0  0  0  0  0  0  0  0  0  0  0  0
    8.2155  -14.2042   24.9894 C   0  0  2  0  0  0  0  0  0  0  0  0
    7.4161  -14.4103   23.7466 N   0  0  0  0  0  0  0  0  0  0  0  0
    8.5271  -15.4981   25.5765 C   0  0  0  0  0  0  0  0  0  0  0  0
    7.6016  -16.3005   25.8559 O   0  0  0  0  0  0  0  0  0  0  0  0
   12.3189  -17.0045   25.4662 O   0  0  0  0  0  0  0  0  0  0  0  0
   11.2512  -17.9032   25.5772 C   0  0  0  0  0  0  0  0  0  0  0  0
   10.1797  -17.2113   26.3809 C   0  0  2  0  0  0  0  0  0  0  0  0
    9.8504  -15.9065   25.8478 N   0  0  0  0  0  0  0  0  0  0  0  0
   10.5423  -17.1633   27.8059 C   0  0  0  0  0  0  0  0  0  0  0  0
   10.5853  -16.0780   28.4300 O   0  0  0  0  0  0  0  0  0  0  0  0
   10.8441  -18.3256   28.4856 O   0  0  0  0  0  0  0  0  0  0  0  0
  1  2  1  0
  2  3  2  0
  4  5  1  0
  4  2  1  0
  5  6  1  0
  6  7  1  6
  8  9  2  0
  8  6  1  0
 11 10  1  0
 11 12  1  0
 12 14  1  0
 12 13  1  1
 14 15  1  6
 15  8  1  0
 16 14  1  0
 17 16  2  0
 18 19  1  0
 20 19  1  6
 20 21  1  0
 21 16  1  0
 22 20  1  0
 22 24  1  0
 23 22  2  0
M  END
$$$$
