QIS.pdb
     RDKit          3D

 24 23  0  0  1  0  0  0  0  0999 V2000
    5.9171  -18.7772   17.7921 N   0  0  0  0  0  0  0  0  0  0  0  0
    6.3559  -19.6883   16.7644 C   0  0  0  0  0  0  0  0  0  0  0  0
    5.5210  -20.2173   15.9864 O   0  0  0  0  0  0  0  0  0  0  0  0
    7.7970  -19.9476   16.6870 C   0  0  0  0  0  0  0  0  0  0  0  0
    8.5412  -19.1557   17.7056 C   0  0  0  0  0  0  0  0  0  0  0  0
    8.8537  -17.7835   17.1939 C   0  0  2  0  0  0  0  0  0  0  0  0
    9.7895  -17.7972   16.1030 N   0  0  0  0  0  0  0  0  0  0  0  0
    9.3338  -16.9842   18.3496 C   0  0  0  0  0  0  0  0  0  0  0  0
   10.5724  -16.9748   18.5591 O   0  0  0  0  0  0  0  0  0  0  0  0
    6.5966  -12.5609   19.7218 C   0  0  0  0  0  0  0  0  0  0  0  0
    7.8023  -13.4802   19.4182 C   0  0  0  0  0  0  0  0  0  0  0  0
    7.9951  -14.4011   20.5706 C   0  0  2  0  0  0  0  0  0  0  0  0
    8.2096  -13.6433   21.8655 C   0  0  0  0  0  0  0  0  0  0  0  0
    9.0138  -15.4662   20.3505 C   0  0  2  0  0  0  0  0  0  0  0  0
    8.4825  -16.2541   19.2003 N   0  0  0  0  0  0  0  0  0  0  0  0
    9.2922  -16.3672   21.4581 C   0  0  0  0  0  0  0  0  0  0  0  0
    8.3835  -17.1088   21.9083 O   0  0  0  0  0  0  0  0  0  0  0  0
   12.8113  -18.0323   21.9913 O   0  0  0  0  0  0  0  0  0  0  0  0
   11.6866  -18.5593   22.6373 C   0  0  0  0  0  0  0  0  0  0  0  0
   10.8730  -17.3870   23.1237 C   0  0  2  0  0  0  0  0  0  0  0  0
   10.5653  -16.4539   22.0607 N   0  0  0  0  0  0  0  0  0  0  0  0
   11.5236  -16.7384   24.2728 C   0  0  0  0  0  0  0  0  0  0  0  0
   11.7871  -15.5138   24.2653 O   0  0  0  0  0  0  0  0  0  0  0  0
   11.8576  -17.4765   25.3898 O   0  0  0  0  0  0  0  0  0  0  0  0
  1  2  1  0
  2  3  2  0
  4  5  1  0
  4  2  1  0
  5  6  1  0
  6  7  1  6
  8  9  2  0
  8  6  1  0
 11 10  1  0
 11 12  1  0
 12 14  1  0
 12 13  1  1
 14 15  1  6
 15  8  1  0
 16 14  1  0
 17 16  2  0
 18 19  1  0
 20 19  1  6
 20 21  1  0
 21 16  1  0
 22 20  1  0
 22 24  1  0
 23 22  2  0
M  END
$$$$
