QIS.pdb
     RDKit          3D

 24 23  0  0  1  0  0  0  0  0999 V2000
    6.5041  -19.0918   21.5718 N   0  0  0  0  0  0  0  0  0  0  0  0
    6.3355  -18.4567   20.2883 C   0  0  0  0  0  0  0  0  0  0  0  0
    5.6526  -19.0124   19.3900 O   0  0  0  0  0  0  0  0  0  0  0  0
    6.9911  -17.1579   20.1062 C   0  0  0  0  0  0  0  0  0  0  0  0
    7.6658  -16.7158   21.3584 C   0  0  0  0  0  0  0  0  0  0  0  0
    7.6040  -15.2266   21.5032 C   0  0  2  0  0  0  0  0  0  0  0  0
    8.1884  -14.5351   20.3868 N   0  0  0  0  0  0  0  0  0  0  0  0
    8.2559  -14.8847   22.7928 C   0  0  0  0  0  0  0  0  0  0  0  0
    9.5034  -14.7378   22.7779 O   0  0  0  0  0  0  0  0  0  0  0  0
    5.7960  -11.6885   26.2521 C   0  0  0  0  0  0  0  0  0  0  0  0
    6.8419  -12.3984   25.3615 C   0  0  0  0  0  0  0  0  0  0  0  0
    7.3137  -13.6187   26.0695 C   0  0  2  0  0  0  0  0  0  0  0  0
    7.8210  -13.2997   27.4616 C   0  0  0  0  0  0  0  0  0  0  0  0
    8.2631  -14.4614   25.2891 C   0  0  2  0  0  0  0  0  0  0  0  0
    7.5543  -14.7221   24.0022 N   0  0  0  0  0  0  0  0  0  0  0  0
    8.6717  -15.7290   25.8740 C   0  0  0  0  0  0  0  0  0  0  0  0
    7.8242  -16.6379   26.0588 O   0  0  0  0  0  0  0  0  0  0  0  0
   12.5974  -16.8045   25.9335 O   0  0  0  0  0  0  0  0  0  0  0  0
   11.6250  -17.8117   25.9300 C   0  0  0  0  0  0  0  0  0  0  0  0
   10.4515  -17.2885   26.7186 C   0  0  2  0  0  0  0  0  0  0  0  0
   10.0066  -15.9944   26.2471 N   0  0  0  0  0  0  0  0  0  0  0  0
   10.7452  -17.2931   28.1602 C   0  0  0  0  0  0  0  0  0  0  0  0
   10.5880  -16.2657   28.8595 O   0  0  0  0  0  0  0  0  0  0  0  0
   11.2035  -18.4418   28.7722 O   0  0  0  0  0  0  0  0  0  0  0  0
  1  2  1  0
  2  3  2  0
  4  5  1  0
  4  2  1  0
  5  6  1  0
  6  7  1  6
  8  9  2  0
  8  6  1  0
 11 10  1  0
 11 12  1  0
 12 14  1  0
 12 13  1  1
 14 15  1  6
 15  8  1  0
 16 14  1  0
 17 16  2  0
 18 19  1  0
 20 19  1  6
 20 21  1  0
 21 16  1  0
 22 20  1  0
 22 24  1  0
 23 22  2  0
M  END
$$$$
