QIS.pdb
     RDKit          3D

 24 23  0  0  1  0  0  0  0  0999 V2000
    8.9186  -14.4274   13.9553 N   0  0  0  0  0  0  0  0  0  0  0  0
    9.1389  -15.8240   13.6728 C   0  0  0  0  0  0  0  0  0  0  0  0
    8.8169  -16.3041   12.5557 O   0  0  0  0  0  0  0  0  0  0  0  0
    9.7475  -16.6230   14.7411 C   0  0  0  0  0  0  0  0  0  0  0  0
    9.9205  -15.8182   15.9824 C   0  0  0  0  0  0  0  0  0  0  0  0
   10.1990  -16.7016   17.1592 C   0  0  2  0  0  0  0  0  0  0  0  0
    9.2022  -17.7221   17.3359 N   0  0  0  0  0  0  0  0  0  0  0  0
   10.3321  -15.8200   18.3466 C   0  0  0  0  0  0  0  0  0  0  0  0
   11.3048  -15.0253   18.3586 O   0  0  0  0  0  0  0  0  0  0  0  0
    6.6265  -12.6427   19.6749 C   0  0  0  0  0  0  0  0  0  0  0  0
    8.0675  -13.1913   19.5587 C   0  0  0  0  0  0  0  0  0  0  0  0
    8.2853  -14.1793   20.6494 C   0  0  2  0  0  0  0  0  0  0  0  0
    8.0144  -13.5784   22.0141 C   0  0  0  0  0  0  0  0  0  0  0  0
    9.5889  -14.8984   20.5846 C   0  0  2  0  0  0  0  0  0  0  0  0
    9.4375  -15.8354   19.4333 N   0  0  0  0  0  0  0  0  0  0  0  0
    9.9996  -15.6497   21.7605 C   0  0  0  0  0  0  0  0  0  0  0  0
   10.1506  -15.0620   22.8605 O   0  0  0  0  0  0  0  0  0  0  0  0
   11.0590  -19.6252   21.5096 O   0  0  0  0  0  0  0  0  0  0  0  0
   10.3756  -19.2942   22.6858 C   0  0  0  0  0  0  0  0  0  0  0  0
   10.5689  -17.8147   22.9015 C   0  0  2  0  0  0  0  0  0  0  0  0
   10.2364  -17.0405   21.7246 N   0  0  0  0  0  0  0  0  0  0  0  0
   11.9238  -17.5304   23.3995 C   0  0  0  0  0  0  0  0  0  0  0  0
   12.7043  -16.7802   22.7694 O   0  0  0  0  0  0  0  0  0  0  0  0
   12.3614  -18.0915   24.5817 O   0  0  0  0  0  0  0  0  0  0  0  0
  1  2  1  0
  2  3  2  0
  4  5  1  0
  4  2  1  0
  5  6  1  0
  6  7  1  1
  8  9  2  0
  8  6  1  0
 11 10  1  0
 11 12  1  0
 12 14  1  0
 12 13  1  1
 14 15  1  6
 15  8  1  0
 16 14  1  0
 17 16  2  0
 18 19  1  0
 20 19  1  6
 20 21  1  0
 21 16  1  0
 22 20  1  0
 22 24  1  0
 23 22  2  0
M  END
$$$$
