QIS.pdb
     RDKit          3D

 24 23  0  0  1  0  0  0  0  0999 V2000
    6.3509  -21.1221   19.5404 N   0  0  0  0  0  0  0  0  0  0  0  0
    7.5584  -21.2767   18.7679 C   0  0  0  0  0  0  0  0  0  0  0  0
    8.2105  -22.3512   18.8176 O   0  0  0  0  0  0  0  0  0  0  0  0
    7.9623  -20.1336   17.9431 C   0  0  0  0  0  0  0  0  0  0  0  0
    7.0222  -18.9906   18.1110 C   0  0  0  0  0  0  0  0  0  0  0  0
    7.5847  -17.7411   17.5067 C   0  0  2  0  0  0  0  0  0  0  0  0
    8.3303  -17.9927   16.3039 N   0  0  0  0  0  0  0  0  0  0  0  0
    8.3982  -17.0755   18.5556 C   0  0  0  0  0  0  0  0  0  0  0  0
    9.6392  -17.2668   18.5193 O   0  0  0  0  0  0  0  0  0  0  0  0
    6.9595  -12.1782   20.1111 C   0  0  0  0  0  0  0  0  0  0  0  0
    7.8413  -13.3747   19.6848 C   0  0  0  0  0  0  0  0  0  0  0  0
    7.9900  -14.2892   20.8486 C   0  0  2  0  0  0  0  0  0  0  0  0
    8.5357  -13.5672   22.0643 C   0  0  0  0  0  0  0  0  0  0  0  0
    8.7191  -15.5551   20.5545 C   0  0  2  0  0  0  0  0  0  0  0  0
    7.8529  -16.2592   19.5644 N   0  0  0  0  0  0  0  0  0  0  0  0
    8.9907  -16.4476   21.6706 C   0  0  0  0  0  0  0  0  0  0  0  0
    8.0398  -16.9872   22.2893 O   0  0  0  0  0  0  0  0  0  0  0  0
   12.5286  -18.3357   22.1225 O   0  0  0  0  0  0  0  0  0  0  0  0
   11.4044  -18.8246   22.7987 C   0  0  0  0  0  0  0  0  0  0  0  0
   10.5875  -17.6265   23.2111 C   0  0  2  0  0  0  0  0  0  0  0  0
   10.3020  -16.7474   22.0973 N   0  0  0  0  0  0  0  0  0  0  0  0
   11.2211  -16.9229   24.3372 C   0  0  0  0  0  0  0  0  0  0  0  0
   11.5745  -15.7251   24.2398 O   0  0  0  0  0  0  0  0  0  0  0  0
   11.4385  -17.5781   25.5320 O   0  0  0  0  0  0  0  0  0  0  0  0
  1  2  1  0
  2  3  2  0
  4  5  1  0
  4  2  1  0
  5  6  1  0
  6  7  1  6
  8  9  2  0
  8  6  1  0
 11 10  1  0
 11 12  1  0
 12 14  1  0
 12 13  1  1
 14 15  1  6
 15  8  1  0
 16 14  1  0
 17 16  2  0
 18 19  1  0
 20 19  1  6
 20 21  1  0
 21 16  1  0
 22 20  1  0
 22 24  1  0
 23 22  2  0
M  END
$$$$
