QIS.pdb
     RDKit          3D

 24 23  0  0  1  0  0  0  0  0999 V2000
    9.2348  -21.2983   17.9473 N   0  0  0  0  0  0  0  0  0  0  0  0
    9.5934  -21.1321   16.5607 C   0  0  0  0  0  0  0  0  0  0  0  0
    9.4413  -22.0798   15.7478 O   0  0  0  0  0  0  0  0  0  0  0  0
   10.1285  -19.8234   16.1722 C   0  0  0  0  0  0  0  0  0  0  0  0
   10.1358  -18.8814   17.3260 C   0  0  0  0  0  0  0  0  0  0  0  0
   10.2334  -17.4622   16.8583 C   0  0  2  0  0  0  0  0  0  0  0  0
   11.2925  -17.2623   15.9073 N   0  0  0  0  0  0  0  0  0  0  0  0
   10.3817  -16.6122   18.0669 C   0  0  0  0  0  0  0  0  0  0  0  0
   11.5427  -16.4752   18.5266 O   0  0  0  0  0  0  0  0  0  0  0  0
    7.5401  -11.9079   20.5312 C   0  0  0  0  0  0  0  0  0  0  0  0
    8.6249  -12.9723   20.8162 C   0  0  0  0  0  0  0  0  0  0  0  0
    8.4658  -14.0815   19.8378 C   0  0  2  0  0  0  0  0  0  0  0  0
    7.0536  -14.6317   19.8369 C   0  0  0  0  0  0  0  0  0  0  0  0
    9.5004  -15.1495   19.9361 C   0  0  2  0  0  0  0  0  0  0  0  0
    9.3044  -15.9688   18.7046 N   0  0  0  0  0  0  0  0  0  0  0  0
    9.4571  -16.0203   21.1004 C   0  0  0  0  0  0  0  0  0  0  0  0
    8.4980  -16.8171   21.2537 O   0  0  0  0  0  0  0  0  0  0  0  0
   12.6662  -17.6338   22.6724 O   0  0  0  0  0  0  0  0  0  0  0  0
   11.3825  -18.1362   22.9172 C   0  0  0  0  0  0  0  0  0  0  0  0
   10.4942  -16.9495   23.1919 C   0  0  2  0  0  0  0  0  0  0  0  0
   10.4674  -16.0164   22.0857 N   0  0  0  0  0  0  0  0  0  0  0  0
   10.8578  -16.3062   24.4640 C   0  0  0  0  0  0  0  0  0  0  0  0
   10.9480  -16.9666   25.5246 O   0  0  0  0  0  0  0  0  0  0  0  0
   11.1085  -14.9500   24.5100 O   0  0  0  0  0  0  0  0  0  0  0  0
  1  2  1  0
  2  3  2  0
  4  5  1  0
  4  2  1  0
  5  6  1  0
  6  7  1  6
  8  9  2  0
  8  6  1  0
 11 10  1  0
 11 12  1  0
 12 14  1  0
 12 13  1  1
 14 15  1  6
 15  8  1  0
 16 14  1  0
 17 16  2  0
 18 19  1  0
 20 19  1  6
 20 21  1  0
 21 16  1  0
 22 20  1  0
 22 24  1  0
 23 22  2  0
M  END
$$$$
