WAC.pdb
     RDKit          3D

 26 27  0  0  1  0  0  0  0  0999 V2000
   26.4250  -22.1700   -8.3004 N   0  0  0  0  0  0  0  0  0  0  0  0
   25.9369  -20.9271   -8.8795 C   0  0  1  0  0  0  0  0  0  0  0  0
   27.0857  -19.9607   -9.1168 C   0  0  0  0  0  0  0  0  0  0  0  0
   28.1827  -20.1794   -8.1414 C   0  0  0  0  0  0  0  0  0  0  0  0
   29.3309  -20.9507   -8.3262 C   0  0  0  0  0  0  0  0  0  0  0  0
   30.0481  -20.8729   -7.1918 N   0  0  0  0  0  0  0  0  0  0  0  0
   29.4116  -20.0892   -6.2937 C   0  0  0  0  0  0  0  0  0  0  0  0
   29.7158  -19.6951   -5.0059 C   0  0  0  0  0  0  0  0  0  0  0  0
   28.8365  -18.8626   -4.3239 C   0  0  0  0  0  0  0  0  0  0  0  0
   27.6668  -18.4149   -4.8905 C   0  0  0  0  0  0  0  0  0  0  0  0
   27.3621  -18.8077   -6.1762 C   0  0  0  0  0  0  0  0  0  0  0  0
   28.2469  -19.6431   -6.8574 C   0  0  0  0  0  0  0  0  0  0  0  0
   25.2533  -21.1709  -10.1748 C   0  0  0  0  0  0  0  0  0  0  0  0
   25.7906  -21.9370  -10.9932 O   0  0  0  0  0  0  0  0  0  0  0  0
   22.0663  -20.1926  -11.8591 C   0  0  0  0  0  0  0  0  0  0  0  0
   23.4581  -20.7997  -11.8542 C   0  0  2  0  0  0  0  0  0  0  0  0
   24.0164  -20.5783  -10.5367 N   0  0  0  0  0  0  0  0  0  0  0  0
   24.3200  -20.1378  -12.8864 C   0  0  0  0  0  0  0  0  0  0  0  0
   24.6573  -18.9431  -12.7592 O   0  0  0  0  0  0  0  0  0  0  0  0
   24.7757  -20.8401  -14.0292 N   0  0  0  0  0  0  0  0  0  0  0  0
   25.6963  -20.3389  -14.9902 C   0  0  1  0  0  0  0  0  0  0  0  0
   26.7707  -21.3275  -15.3745 C   0  0  0  0  0  0  0  0  0  0  0  0
   27.7683  -21.8281  -13.9602 S   0  0  0  0  0  0  0  0  0  0  0  0
   24.9627  -19.9753  -16.2257 C   0  0  0  0  0  0  0  0  0  0  0  0
   23.7245  -20.2059  -16.3550 O   0  0  0  0  0  0  0  0  0  0  0  0
   25.6305  -19.3716  -17.2663 O   0  0  0  0  0  0  0  0  0  0  0  0
  2  1  1  6
  2 13  1  0
  3  4  1  0
  3  2  1  0
  4 12  1  0
  5  4  2  0
  5  6  1  0
  6  7  1  0
  7  8  1  0
  8  9  2  0
 10  9  1  0
 11 10  2  0
 12  7  2  0
 12 11  1  0
 13 14  2  0
 16 15  1  1
 16 18  1  0
 17 13  1  0
 17 16  1  0
 18 20  1  0
 18 19  2  0
 20 21  1  0
 21 24  1  0
 21 22  1  6
 22 23  1  0
 24 25  2  0
 24 26  1  0
M  END
$$$$
