WAC.pdb
     RDKit          3D

 26 27  0  0  1  0  0  0  0  0999 V2000
   28.3206  -20.7621  -16.0651 N   0  0  0  0  0  0  0  0  0  0  0  0
   27.6332  -21.7181  -15.2097 C   0  0  1  0  0  0  0  0  0  0  0  0
   27.1050  -21.0334  -13.9598 C   0  0  0  0  0  0  0  0  0  0  0  0
   28.1891  -20.3235  -13.2365 C   0  0  0  0  0  0  0  0  0  0  0  0
   28.4170  -18.9471  -13.2036 C   0  0  0  0  0  0  0  0  0  0  0  0
   29.5004  -18.7425  -12.4343 N   0  0  0  0  0  0  0  0  0  0  0  0
   29.9731  -19.9224  -11.9760 C   0  0  0  0  0  0  0  0  0  0  0  0
   31.0400  -20.2584  -11.1666 C   0  0  0  0  0  0  0  0  0  0  0  0
   31.2724  -21.5957  -10.8681 C   0  0  0  0  0  0  0  0  0  0  0  0
   30.4720  -22.6022  -11.3538 C   0  0  0  0  0  0  0  0  0  0  0  0
   29.4065  -22.2679  -12.1620 C   0  0  0  0  0  0  0  0  0  0  0  0
   29.1764  -20.9249  -12.4594 C   0  0  0  0  0  0  0  0  0  0  0  0
   26.4906  -22.3477  -15.9186 C   0  0  0  0  0  0  0  0  0  0  0  0
   25.8032  -21.6427  -16.6774 O   0  0  0  0  0  0  0  0  0  0  0  0
   24.9489  -25.7320  -16.2523 C   0  0  0  0  0  0  0  0  0  0  0  0
   24.9321  -24.2217  -16.4087 C   0  0  2  0  0  0  0  0  0  0  0  0
   26.1341  -23.7137  -15.7811 N   0  0  0  0  0  0  0  0  0  0  0  0
   23.7258  -23.6405  -15.7353 C   0  0  0  0  0  0  0  0  0  0  0  0
   22.5798  -23.8914  -16.1606 O   0  0  0  0  0  0  0  0  0  0  0  0
   23.8461  -22.7953  -14.6048 N   0  0  0  0  0  0  0  0  0  0  0  0
   22.7612  -22.2108  -13.8952 C   0  0  1  0  0  0  0  0  0  0  0  0
   23.1589  -21.6026  -12.5719 C   0  0  0  0  0  0  0  0  0  0  0  0
   21.7843  -20.7511  -11.7769 S   0  0  0  0  0  0  0  0  0  0  0  0
   22.1630  -21.1334  -14.7189 C   0  0  0  0  0  0  0  0  0  0  0  0
   22.8807  -20.2808  -15.3197 O   0  0  0  0  0  0  0  0  0  0  0  0
   20.7956  -21.0451  -14.8430 O   0  0  0  0  0  0  0  0  0  0  0  0
  2  1  1  6
  2 13  1  0
  3  4  1  0
  3  2  1  0
  4 12  1  0
  5  4  2  0
  5  6  1  0
  6  7  1  0
  7  8  1  0
  8  9  2  0
 10  9  1  0
 11 10  2  0
 12  7  2  0
 12 11  1  0
 13 14  2  0
 16 15  1  1
 16 18  1  0
 17 13  1  0
 17 16  1  0
 18 20  1  0
 18 19  2  0
 20 21  1  0
 21 24  1  0
 21 22  1  1
 22 23  1  0
 24 25  2  0
 24 26  1  0
M  END
$$$$
