WAC.pdb
     RDKit          3D

 26 27  0  0  1  0  0  0  0  0999 V2000
   27.5731  -21.9337  -14.3131 N   0  0  0  0  0  0  0  0  0  0  0  0
   26.4324  -21.9835  -13.4106 C   0  0  1  0  0  0  0  0  0  0  0  0
   26.3653  -20.7230  -12.5642 C   0  0  0  0  0  0  0  0  0  0  0  0
   27.4454  -20.7002  -11.5466 C   0  0  0  0  0  0  0  0  0  0  0  0
   28.8207  -20.6628  -11.7808 C   0  0  0  0  0  0  0  0  0  0  0  0
   29.4275  -20.6555  -10.5812 N   0  0  0  0  0  0  0  0  0  0  0  0
   28.5047  -20.6865   -9.5947 C   0  0  0  0  0  0  0  0  0  0  0  0
   28.5993  -20.6939   -8.2173 C   0  0  0  0  0  0  0  0  0  0  0  0
   27.4372  -20.7296   -7.4560 C   0  0  0  0  0  0  0  0  0  0  0  0
   26.1886  -20.7580   -8.0303 C   0  0  0  0  0  0  0  0  0  0  0  0
   26.0928  -20.7506   -9.4054 C   0  0  0  0  0  0  0  0  0  0  0  0
   27.2612  -20.7148  -10.1660 C   0  0  0  0  0  0  0  0  0  0  0  0
   25.1587  -22.1126  -14.1624 C   0  0  0  0  0  0  0  0  0  0  0  0
   24.8767  -21.2421  -15.0041 O   0  0  0  0  0  0  0  0  0  0  0  0
   22.7600  -24.7435  -15.0050 C   0  0  0  0  0  0  0  0  0  0  0  0
   23.0518  -23.2674  -14.8016 C   0  0  2  0  0  0  0  0  0  0  0  0
   24.2384  -23.1759  -13.9769 N   0  0  0  0  0  0  0  0  0  0  0  0
   21.9025  -22.5985  -14.1099 C   0  0  0  0  0  0  0  0  0  0  0  0
   20.7388  -22.7321  -14.5402 O   0  0  0  0  0  0  0  0  0  0  0  0
   22.0981  -21.8002  -12.9561 N   0  0  0  0  0  0  0  0  0  0  0  0
   21.0709  -21.1342  -12.2325 C   0  0  1  0  0  0  0  0  0  0  0  0
   21.5018  -20.6580  -10.8662 C   0  0  0  0  0  0  0  0  0  0  0  0
   23.0639  -19.7619  -10.9224 S   0  0  0  0  0  0  0  0  0  0  0  0
   20.6258  -19.9460  -12.9986 C   0  0  0  0  0  0  0  0  0  0  0  0
   21.2434  -19.5522  -14.0314 O   0  0  0  0  0  0  0  0  0  0  0  0
   19.5158  -19.2435  -12.5895 O   0  0  0  0  0  0  0  0  0  0  0  0
  2  1  1  6
  2 13  1  0
  3  4  1  0
  3  2  1  0
  4 12  1  0
  5  4  2  0
  5  6  1  0
  6  7  1  0
  7  8  1  0
  8  9  2  0
 10  9  1  0
 11 10  2  0
 12  7  2  0
 12 11  1  0
 13 14  2  0
 16 15  1  1
 16 18  1  0
 17 13  1  0
 17 16  1  0
 18 20  1  0
 18 19  2  0
 20 21  1  0
 21 24  1  0
 21 22  1  1
 22 23  1  0
 24 25  2  0
 24 26  1  0
M  END
$$$$
