WAC.pdb
     RDKit          3D

 26 27  0  0  1  0  0  0  0  0999 V2000
   25.9091  -19.9093  -15.8708 N   0  0  0  0  0  0  0  0  0  0  0  0
   25.4376  -20.6239  -14.6938 C   0  0  1  0  0  0  0  0  0  0  0  0
   25.6900  -19.8082  -13.4365 C   0  0  0  0  0  0  0  0  0  0  0  0
   27.1395  -19.7317  -13.1269 C   0  0  0  0  0  0  0  0  0  0  0  0
   28.0829  -18.8918  -13.7202 C   0  0  0  0  0  0  0  0  0  0  0  0
   29.2678  -19.1552  -13.1423 N   0  0  0  0  0  0  0  0  0  0  0  0
   29.1241  -20.1224  -12.2098 C   0  0  0  0  0  0  0  0  0  0  0  0
   30.0111  -20.7428  -11.3528 C   0  0  0  0  0  0  0  0  0  0  0  0
   29.5462  -21.7268  -10.4884 C   0  0  0  0  0  0  0  0  0  0  0  0
   28.2254  -22.1065  -10.4569 C   0  0  0  0  0  0  0  0  0  0  0  0
   27.3389  -21.4878  -11.3122 C   0  0  0  0  0  0  0  0  0  0  0  0
   27.8091  -20.5008  -12.1781 C   0  0  0  0  0  0  0  0  0  0  0  0
   23.9831  -20.9077  -14.7852 C   0  0  0  0  0  0  0  0  0  0  0  0
   23.1928  -19.9483  -14.8092 O   0  0  0  0  0  0  0  0  0  0  0  0
   21.7484  -23.6993  -15.6501 C   0  0  0  0  0  0  0  0  0  0  0  0
   22.0034  -22.4076  -14.8936 C   0  0  2  0  0  0  0  0  0  0  0  0
   23.4378  -22.2156  -14.8471 N   0  0  0  0  0  0  0  0  0  0  0  0
   21.4605  -22.5030  -13.4998 C   0  0  0  0  0  0  0  0  0  0  0  0
   22.1856  -22.8935  -12.5623 O   0  0  0  0  0  0  0  0  0  0  0  0
   20.1192  -22.1562  -13.2040 N   0  0  0  0  0  0  0  0  0  0  0  0
   19.5290  -22.1808  -11.9105 C   0  0  1  0  0  0  0  0  0  0  0  0
   18.8126  -20.9029  -11.5458 C   0  0  0  0  0  0  0  0  0  0  0  0
   17.7829  -20.2949  -12.8936 S   0  0  0  0  0  0  0  0  0  0  0  0
   18.5378  -23.2811  -11.8470 C   0  0  0  0  0  0  0  0  0  0  0  0
   18.1447  -23.8816  -12.8900 O   0  0  0  0  0  0  0  0  0  0  0  0
   18.0234  -23.6703  -10.6318 O   0  0  0  0  0  0  0  0  0  0  0  0
  2  1  1  6
  2 13  1  0
  3  4  1  0
  3  2  1  0
  4 12  1  0
  5  4  2  0
  5  6  1  0
  6  7  1  0
  7  8  1  0
  8  9  2  0
 10  9  1  0
 11 10  2  0
 12  7  2  0
 12 11  1  0
 13 14  2  0
 16 15  1  6
 16 18  1  0
 17 13  1  0
 17 16  1  0
 18 20  1  0
 18 19  2  0
 20 21  1  0
 21 24  1  0
 21 22  1  6
 22 23  1  0
 24 25  2  0
 24 26  1  0
M  END
$$$$
