WAC.pdb
     RDKit          3D

 26 27  0  0  1  0  0  0  0  0999 V2000
   28.5256  -20.8434   -9.9591 N   0  0  0  0  0  0  0  0  0  0  0  0
   27.1149  -21.1046   -9.7140 C   0  0  1  0  0  0  0  0  0  0  0  0
   26.5380  -20.0715   -8.7603 C   0  0  0  0  0  0  0  0  0  0  0  0
   27.5076  -19.7258   -7.6912 C   0  0  0  0  0  0  0  0  0  0  0  0
   28.6444  -18.9258   -7.8136 C   0  0  0  0  0  0  0  0  0  0  0  0
   29.2303  -18.8810   -6.6044 N   0  0  0  0  0  0  0  0  0  0  0  0
   28.5210  -19.6140   -5.7182 C   0  0  0  0  0  0  0  0  0  0  0  0
   28.6893  -19.8886   -4.3756 C   0  0  0  0  0  0  0  0  0  0  0  0
   27.7650  -20.6979   -3.7259 C   0  0  0  0  0  0  0  0  0  0  0  0
   26.6820  -21.2381   -4.3777 C   0  0  0  0  0  0  0  0  0  0  0  0
   26.5129  -20.9646   -5.7181 C   0  0  0  0  0  0  0  0  0  0  0  0
   27.4425  -20.1521   -6.3667 C   0  0  0  0  0  0  0  0  0  0  0  0
   26.3347  -21.0653  -10.9766 C   0  0  0  0  0  0  0  0  0  0  0  0
   26.5966  -20.1784  -11.8075 O   0  0  0  0  0  0  0  0  0  0  0  0
   23.9610  -23.2690  -12.7944 C   0  0  0  0  0  0  0  0  0  0  0  0
   24.6469  -21.9308  -12.5839 C   0  0  2  0  0  0  0  0  0  0  0  0
   25.3021  -21.9847  -11.2938 N   0  0  0  0  0  0  0  0  0  0  0  0
   23.6399  -20.8207  -12.5936 C   0  0  0  0  0  0  0  0  0  0  0  0
   23.1300  -20.4179  -11.5283 O   0  0  0  0  0  0  0  0  0  0  0  0
   23.2379  -20.1985  -13.8011 N   0  0  0  0  0  0  0  0  0  0  0  0
   22.2748  -19.1578  -13.9095 C   0  0  1  0  0  0  0  0  0  0  0  0
   22.4750  -18.2686  -15.1131 C   0  0  0  0  0  0  0  0  0  0  0  0
   21.2295  -16.9704  -15.2113 S   0  0  0  0  0  0  0  0  0  0  0  0
   20.9219  -19.7538  -14.0160 C   0  0  0  0  0  0  0  0  0  0  0  0
   20.7033  -20.7833  -14.7200 O   0  0  0  0  0  0  0  0  0  0  0  0
   19.8677  -19.1855  -13.3387 O   0  0  0  0  0  0  0  0  0  0  0  0
  2  1  1  6
  2 13  1  0
  3  4  1  0
  3  2  1  0
  4 12  1  0
  5  4  2  0
  5  6  1  0
  6  7  1  0
  7  8  1  0
  8  9  2  0
 10  9  1  0
 11 10  2  0
 12  7  2  0
 12 11  1  0
 13 14  2  0
 16 15  1  1
 16 18  1  0
 17 13  1  0
 17 16  1  0
 18 20  1  0
 18 19  2  0
 20 21  1  0
 21 24  1  0
 21 22  1  6
 22 23  1  0
 24 25  2  0
 24 26  1  0
M  END
$$$$
