IRG.pdb
     RDKit          3D

 24 23  0  0  1  0  0  0  0  0999 V2000
    9.1002  -13.0246   27.7283 C   0  0  0  0  0  0  0  0  0  0  0  0
    8.1765  -13.9521   27.0091 C   0  0  0  0  0  0  0  0  0  0  0  0
    7.3958  -13.2380   25.8924 C   0  0  2  0  0  0  0  0  0  0  0  0
    6.5945  -12.1726   26.5390 C   0  0  0  0  0  0  0  0  0  0  0  0
    6.6459  -14.3138   25.1829 C   0  0  2  0  0  0  0  0  0  0  0  0
    5.9023  -15.0456   26.2252 N   0  0  0  0  0  0  0  0  0  0  0  0
    7.4097  -15.2304   24.3553 C   0  0  0  0  0  0  0  0  0  0  0  0
    7.3824  -16.4706   24.4811 O   0  0  0  0  0  0  0  0  0  0  0  0
    8.0842  -15.3946   17.4980 N   0  0  0  0  0  0  0  0  0  0  0  0
    7.8288  -14.0244   17.2390 C   0  0  0  0  0  0  0  0  0  0  0  0
    7.4427  -13.5953   16.0592 N   0  0  0  0  0  0  0  0  0  0  0  0
    7.9726  -13.0180   18.2274 N   0  0  0  0  0  0  0  0  0  0  0  0
    8.7039  -13.1832   19.4286 C   0  0  0  0  0  0  0  0  0  0  0  0
    8.5658  -14.5214   20.1209 C   0  0  0  0  0  0  0  0  0  0  0  0
    9.4145  -14.5721   21.3192 C   0  0  0  0  0  0  0  0  0  0  0  0
    8.9906  -15.5698   22.3969 C   0  0  2  0  0  0  0  0  0  0  0  0
    8.2426  -14.7074   23.3385 N   0  0  0  0  0  0  0  0  0  0  0  0
   10.1078  -16.1605   23.1375 C   0  0  0  0  0  0  0  0  0  0  0  0
   10.7659  -17.0981   22.6012 O   0  0  0  0  0  0  0  0  0  0  0  0
    7.3296  -12.5633   15.9739 N   0  0  0  0  0  0  0  0  0  0  0  0
   10.5446  -15.7765   24.4316 C   0  0  0  0  0  0  0  0  0  0  0  0
   11.6390  -16.4754   25.1109 C   0  0  0  0  0  0  0  0  0  0  0  0
   12.9073  -16.2215   24.3691 O   0  0  0  0  0  0  0  0  0  0  0  0
   12.9188  -15.5687   23.3146 O   0  0  0  0  0  0  0  0  0  0  0  0
  1  2  1  0
  3  4  1  1
  3  2  1  0
  5  3  1  0
  5  6  1  1
  7  8  2  0
  7  5  1  0
 10  9  1  0
 11 10  2  0
 12 10  1  0
 13 12  1  0
 14 15  1  0
 14 13  1  0
 16 15  1  6
 16 17  1  0
 17  7  1  0
 18 16  1  0
 19 18  2  0
 20 18  1  0
 21 20  1  0
 22 21  1  0
 22 24  1  0
 23 22  2  0
M  END
$$$$
