IRG.pdb
     RDKit          3D

 24 23  0  0  1  0  0  0  0  0999 V2000
    7.6328  -12.6142   17.2045 C   0  0  0  0  0  0  0  0  0  0  0  0
    6.9796  -13.4564   18.2507 C   0  0  0  0  0  0  0  0  0  0  0  0
    7.8199  -13.5336   19.5371 C   0  0  2  0  0  0  0  0  0  0  0  0
    9.1410  -14.0864   19.1573 C   0  0  0  0  0  0  0  0  0  0  0  0
    7.0026  -14.3297   20.4970 C   0  0  2  0  0  0  0  0  0  0  0  0
    5.6823  -13.6747   20.5468 N   0  0  0  0  0  0  0  0  0  0  0  0
    7.5344  -14.5194   21.8347 C   0  0  0  0  0  0  0  0  0  0  0  0
    7.5807  -13.6227   22.6999 O   0  0  0  0  0  0  0  0  0  0  0  0
    7.5826  -20.6630   26.4024 N   0  0  0  0  0  0  0  0  0  0  0  0
    7.9773  -19.7845   27.4427 C   0  0  0  0  0  0  0  0  0  0  0  0
    8.8336  -20.1411   28.3727 N   0  0  0  0  0  0  0  0  0  0  0  0
    7.4785  -18.4623   27.5597 N   0  0  0  0  0  0  0  0  0  0  0  0
    7.3807  -17.5519   26.4796 C   0  0  0  0  0  0  0  0  0  0  0  0
    8.2921  -17.8085   25.2996 C   0  0  0  0  0  0  0  0  0  0  0  0
    7.7818  -17.1347   24.0978 C   0  0  0  0  0  0  0  0  0  0  0  0
    8.6804  -16.0476   23.5084 C   0  0  2  0  0  0  0  0  0  0  0  0
    8.0363  -15.7902   22.2012 N   0  0  0  0  0  0  0  0  0  0  0  0
   10.0524  -16.4856   23.2417 C   0  0  0  0  0  0  0  0  0  0  0  0
   10.2487  -17.6763   22.8630 O   0  0  0  0  0  0  0  0  0  0  0  0
    9.0381  -19.4171   29.0932 N   0  0  0  0  0  0  0  0  0  0  0  0
   11.2196  -15.6883   23.3641 C   0  0  0  0  0  0  0  0  0  0  0  0
   12.0556  -15.7311   24.5670 C   0  0  0  0  0  0  0  0  0  0  0  0
   12.9304  -16.9368   24.5035 O   0  0  0  0  0  0  0  0  0  0  0  0
   14.1014  -16.9070   24.9109 O   0  0  0  0  0  0  0  0  0  0  0  0
  1  2  1  0
  3  4  1  6
  3  2  1  0
  5  3  1  0
  5  6  1  1
  7  8  2  0
  7  5  1  0
 10  9  1  0
 11 10  2  0
 12 10  1  0
 13 12  1  0
 14 15  1  0
 14 13  1  0
 16 15  1  6
 16 17  1  0
 17  7  1  0
 18 16  1  0
 19 18  2  0
 20 18  1  0
 21 20  1  0
 22 21  1  0
 22 24  1  0
 23 22  2  0
M  END
$$$$
