IRG.pdb
     RDKit          3D

 24 23  0  0  1  0  0  0  0  0999 V2000
    6.3462  -11.4186   27.5962 C   0  0  0  0  0  0  0  0  0  0  0  0
    7.3197  -12.4375   27.1014 C   0  0  0  0  0  0  0  0  0  0  0  0
    7.0004  -12.8918   25.6667 C   0  0  2  0  0  0  0  0  0  0  0  0
    5.6755  -12.3268   25.3197 C   0  0  0  0  0  0  0  0  0  0  0  0
    7.1195  -14.3779   25.6860 C   0  0  2  0  0  0  0  0  0  0  0  0
    8.3484  -14.6769   26.4445 N   0  0  0  0  0  0  0  0  0  0  0  0
    7.1221  -15.0675   24.4082 C   0  0  0  0  0  0  0  0  0  0  0  0
    6.0950  -15.4941   23.8445 O   0  0  0  0  0  0  0  0  0  0  0  0
    8.9960  -15.4243   17.7863 N   0  0  0  0  0  0  0  0  0  0  0  0
    8.5566  -14.1694   17.2944 C   0  0  0  0  0  0  0  0  0  0  0  0
    8.4843  -13.9079   16.0092 N   0  0  0  0  0  0  0  0  0  0  0  0
    8.1668  -13.1059   18.1473 N   0  0  0  0  0  0  0  0  0  0  0  0
    8.2621  -13.1446   19.5595 C   0  0  0  0  0  0  0  0  0  0  0  0
    7.5848  -14.3096   20.2472 C   0  0  0  0  0  0  0  0  0  0  0  0
    7.8465  -14.2783   21.6927 C   0  0  0  0  0  0  0  0  0  0  0  0
    8.4404  -15.5527   22.2924 C   0  0  2  0  0  0  0  0  0  0  0  0
    8.3530  -15.2802   23.7443 N   0  0  0  0  0  0  0  0  0  0  0  0
    9.8538  -15.7626   21.9706 C   0  0  0  0  0  0  0  0  0  0  0  0
   10.2083  -15.7630   20.7565 O   0  0  0  0  0  0  0  0  0  0  0  0
    8.2132  -12.9319   15.7663 N   0  0  0  0  0  0  0  0  0  0  0  0
   10.8994  -15.9680   22.9074 C   0  0  0  0  0  0  0  0  0  0  0  0
   12.2769  -16.2216   22.4764 C   0  0  0  0  0  0  0  0  0  0  0  0
   13.1531  -16.2945   23.6806 O   0  0  0  0  0  0  0  0  0  0  0  0
   14.3877  -16.3530   23.5781 O   0  0  0  0  0  0  0  0  0  0  0  0
  1  2  1  0
  3  4  1  1
  3  2  1  0
  5  3  1  0
  5  6  1  6
  7  8  2  0
  7  5  1  0
 10  9  1  0
 11 10  2  0
 12 10  1  0
 13 12  1  0
 14 15  1  0
 14 13  1  0
 16 15  1  6
 16 17  1  0
 17  7  1  0
 18 16  1  0
 19 18  2  0
 20 18  1  0
 21 20  1  0
 22 21  1  0
 22 24  1  0
 23 22  2  0
M  END
$$$$
