IRG.pdb
     RDKit          3D

 24 23  0  0  1  0  0  0  0  0999 V2000
    6.2834  -11.9854   28.1693 C   0  0  0  0  0  0  0  0  0  0  0  0
    5.8588  -13.1700   27.3648 C   0  0  0  0  0  0  0  0  0  0  0  0
    7.0003  -13.7102   26.4863 C   0  0  2  0  0  0  0  0  0  0  0  0
    7.5819  -12.5495   25.7723 C   0  0  0  0  0  0  0  0  0  0  0  0
    6.3847  -14.7807   25.6509 C   0  0  2  0  0  0  0  0  0  0  0  0
    6.0157  -15.8619   26.5836 N   0  0  0  0  0  0  0  0  0  0  0  0
    7.1665  -15.3005   24.5431 C   0  0  0  0  0  0  0  0  0  0  0  0
    7.9100  -16.2983   24.6226 O   0  0  0  0  0  0  0  0  0  0  0  0
   10.2117  -13.9670   17.3665 N   0  0  0  0  0  0  0  0  0  0  0  0
    8.8963  -14.1319   16.8640 C   0  0  0  0  0  0  0  0  0  0  0  0
    8.4373  -13.4226   15.8583 N   0  0  0  0  0  0  0  0  0  0  0  0
    7.9800  -15.0675   17.4076 N   0  0  0  0  0  0  0  0  0  0  0  0
    7.2959  -14.8885   18.6344 C   0  0  0  0  0  0  0  0  0  0  0  0
    8.0686  -14.2054   19.7414 C   0  0  0  0  0  0  0  0  0  0  0  0
    7.3053  -14.2339   20.9965 C   0  0  0  0  0  0  0  0  0  0  0  0
    7.9008  -15.0797   22.1220 C   0  0  2  0  0  0  0  0  0  0  0  0
    7.0966  -14.6515   23.2882 N   0  0  0  0  0  0  0  0  0  0  0  0
    9.3020  -14.7757   22.4211 C   0  0  0  0  0  0  0  0  0  0  0  0
    9.5828  -13.6663   22.9599 O   0  0  0  0  0  0  0  0  0  0  0  0
    7.4458  -13.6066   15.5973 N   0  0  0  0  0  0  0  0  0  0  0  0
   10.4108  -15.6230   22.1652 C   0  0  0  0  0  0  0  0  0  0  0  0
   11.7894  -15.1429   22.2942 C   0  0  0  0  0  0  0  0  0  0  0  0
   12.7216  -16.2680   21.9967 O   0  0  0  0  0  0  0  0  0  0  0  0
   12.3098  -17.3427   21.5347 O   0  0  0  0  0  0  0  0  0  0  0  0
  1  2  1  0
  3  4  1  6
  3  2  1  0
  5  3  1  0
  5  6  1  1
  7  8  2  0
  7  5  1  0
 10  9  1  0
 11 10  2  0
 12 10  1  0
 13 12  1  0
 14 15  1  0
 14 13  1  0
 16 15  1  6
 16 17  1  0
 17  7  1  0
 18 16  1  0
 19 18  2  0
 20 18  1  0
 21 20  1  0
 22 21  1  0
 22 24  1  0
 23 22  2  0
M  END
$$$$
