IRG.pdb
     RDKit          3D

 24 23  0  0  1  0  0  0  0  0999 V2000
    6.5774  -12.0040   28.1085 C   0  0  0  0  0  0  0  0  0  0  0  0
    6.1326  -13.1939   27.3230 C   0  0  0  0  0  0  0  0  0  0  0  0
    7.2606  -13.7586   26.4425 C   0  0  2  0  0  0  0  0  0  0  0  0
    7.8934  -12.6061   25.7597 C   0  0  0  0  0  0  0  0  0  0  0  0
    6.6118  -14.7857   25.5780 C   0  0  2  0  0  0  0  0  0  0  0  0
    6.2600  -15.9050   26.4716 N   0  0  0  0  0  0  0  0  0  0  0  0
    7.3570  -15.2610   24.4259 C   0  0  0  0  0  0  0  0  0  0  0  0
    8.0781  -16.2781   24.4336 O   0  0  0  0  0  0  0  0  0  0  0  0
    7.9705  -12.9829   16.5217 N   0  0  0  0  0  0  0  0  0  0  0  0
    8.1698  -14.3830   16.4227 C   0  0  0  0  0  0  0  0  0  0  0  0
    8.0926  -15.0217   15.2775 N   0  0  0  0  0  0  0  0  0  0  0  0
    8.4629  -15.1967   17.5463 N   0  0  0  0  0  0  0  0  0  0  0  0
    7.7899  -15.1071   18.7890 C   0  0  0  0  0  0  0  0  0  0  0  0
    8.1559  -13.9316   19.6683 C   0  0  0  0  0  0  0  0  0  0  0  0
    7.4259  -13.9933   20.9419 C   0  0  0  0  0  0  0  0  0  0  0  0
    7.9715  -14.9755   21.9783 C   0  0  2  0  0  0  0  0  0  0  0  0
    7.2755  -14.5421   23.2103 N   0  0  0  0  0  0  0  0  0  0  0  0
    9.4105  -14.8503   22.2213 C   0  0  0  0  0  0  0  0  0  0  0  0
    9.8287  -13.8782   22.9141 O   0  0  0  0  0  0  0  0  0  0  0  0
    8.2548  -16.0494   15.3271 N   0  0  0  0  0  0  0  0  0  0  0  0
   10.4146  -15.7346   21.7494 C   0  0  0  0  0  0  0  0  0  0  0  0
   11.8395  -15.4189   21.8827 C   0  0  0  0  0  0  0  0  0  0  0  0
   12.4072  -16.2178   23.0064 O   0  0  0  0  0  0  0  0  0  0  0  0
   11.6772  -16.8673   23.7701 O   0  0  0  0  0  0  0  0  0  0  0  0
  1  2  1  0
  3  4  1  6
  3  2  1  0
  5  3  1  0
  5  6  1  1
  7  8  2  0
  7  5  1  0
 10  9  1  0
 11 10  2  0
 12 10  1  0
 13 12  1  0
 14 15  1  0
 14 13  1  0
 16 15  1  6
 16 17  1  0
 17  7  1  0
 18 16  1  0
 19 18  2  0
 20 18  1  0
 21 20  1  0
 22 21  1  0
 22 24  1  0
 23 22  2  0
M  END
$$$$
