IRG.pdb
     RDKit          3D

 24 23  0  0  1  0  0  0  0  0999 V2000
    7.3144  -10.8955   27.4620 C   0  0  0  0  0  0  0  0  0  0  0  0
    7.4509  -12.3827   27.4809 C   0  0  0  0  0  0  0  0  0  0  0  0
    6.8974  -13.0294   26.1994 C   0  0  2  0  0  0  0  0  0  0  0  0
    5.4400  -12.7641   26.1768 C   0  0  0  0  0  0  0  0  0  0  0  0
    7.3258  -14.4563   26.2589 C   0  0  2  0  0  0  0  0  0  0  0  0
    8.6219  -14.4621   26.9625 N   0  0  0  0  0  0  0  0  0  0  0  0
    7.4171  -15.1823   25.0048 C   0  0  0  0  0  0  0  0  0  0  0  0
    6.5463  -15.9740   24.5928 O   0  0  0  0  0  0  0  0  0  0  0  0
    8.3028  -14.1710   15.9929 N   0  0  0  0  0  0  0  0  0  0  0  0
    8.2669  -13.7552   17.3478 C   0  0  0  0  0  0  0  0  0  0  0  0
    9.0815  -12.8397   17.8207 N   0  0  0  0  0  0  0  0  0  0  0  0
    7.3562  -14.2949   18.2911 N   0  0  0  0  0  0  0  0  0  0  0  0
    7.3664  -13.9841   19.6726 C   0  0  0  0  0  0  0  0  0  0  0  0
    8.4477  -14.6418   20.5015 C   0  0  0  0  0  0  0  0  0  0  0  0
    8.1635  -14.4888   21.9349 C   0  0  0  0  0  0  0  0  0  0  0  0
    8.6782  -15.6067   22.8416 C   0  0  2  0  0  0  0  0  0  0  0  0
    8.5542  -14.9966   24.1841 N   0  0  0  0  0  0  0  0  0  0  0  0
   10.0907  -15.9375   22.6398 C   0  0  0  0  0  0  0  0  0  0  0  0
   10.9707  -15.2003   23.1710 O   0  0  0  0  0  0  0  0  0  0  0  0
    8.9945  -12.6481   18.8409 N   0  0  0  0  0  0  0  0  0  0  0  0
   10.5903  -17.0341   21.8909 C   0  0  0  0  0  0  0  0  0  0  0  0
   12.0289  -17.2769   21.7523 C   0  0  0  0  0  0  0  0  0  0  0  0
   12.2370  -18.4203   20.8182 O   0  0  0  0  0  0  0  0  0  0  0  0
   11.3262  -19.2240   20.5685 O   0  0  0  0  0  0  0  0  0  0  0  0
  1  2  1  0
  3  4  1  1
  3  2  1  0
  5  3  1  0
  5  6  1  6
  7  8  2  0
  7  5  1  0
 10  9  1  0
 11 10  2  0
 12 10  1  0
 13 12  1  0
 14 15  1  0
 14 13  1  0
 16 15  1  6
 16 17  1  0
 17  7  1  0
 18 16  1  0
 19 18  2  0
 20 18  1  0
 21 20  1  0
 22 21  1  0
 22 24  1  0
 23 22  2  0
M  END
$$$$
