YIL.pdb
     RDKit          3D

 29 29  0  0  1  0  0  0  0  0999 V2000
   36.1090  -40.4034   -7.1442 O   0  0  0  0  0  0  0  0  0  0  0  0
   35.2466  -39.6347   -6.3616 C   0  0  0  0  0  0  0  0  0  0  0  0
   35.6438  -39.3296   -5.0776 C   0  0  0  0  0  0  0  0  0  0  0  0
   34.8067  -38.5687   -4.2816 C   0  0  0  0  0  0  0  0  0  0  0  0
   33.5920  -38.1058   -4.7262 C   0  0  0  0  0  0  0  0  0  0  0  0
   32.7418  -37.3212   -3.8229 C   0  0  0  0  0  0  0  0  0  0  0  0
   32.5076  -35.9331   -4.3683 C   0  0  2  0  0  0  0  0  0  0  0  0
   33.7921  -35.2305   -4.4574 N   0  0  0  0  0  0  0  0  0  0  0  0
   31.5351  -35.1522   -3.5178 C   0  0  0  0  0  0  0  0  0  0  0  0
   32.0300  -34.3848   -2.6848 O   0  0  0  0  0  0  0  0  0  0  0  0
   33.2091  -38.4181   -6.0090 C   0  0  0  0  0  0  0  0  0  0  0  0
   34.0409  -39.1883   -6.8353 C   0  0  0  0  0  0  0  0  0  0  0  0
   26.1596  -32.4964   -4.4161 C   0  0  0  0  0  0  0  0  0  0  0  0
   26.9646  -33.2985   -3.4116 C   0  0  0  0  0  0  0  0  0  0  0  0
   28.1458  -34.0023   -4.0545 C   0  0  2  0  0  0  0  0  0  0  0  0
   27.5608  -34.9677   -5.0747 C   0  0  0  0  0  0  0  0  0  0  0  0
   29.0633  -34.6428   -3.0850 C   0  0  2  0  0  0  0  0  0  0  0  0
   30.1713  -35.3593   -3.7392 N   0  0  0  0  0  0  0  0  0  0  0  0
   28.4787  -35.5455   -2.0861 C   0  0  0  0  0  0  0  0  0  0  0  0
   28.1943  -36.7734   -2.4198 O   0  0  0  0  0  0  0  0  0  0  0  0
   29.5744  -38.0913    1.3190 C   0  0  0  0  0  0  0  0  0  0  0  0
   29.5284  -36.5898    1.6451 C   0  0  2  0  0  0  0  0  0  0  0  0
   30.0823  -36.4659    3.0416 C   0  0  0  0  0  0  0  0  0  0  0  0
   28.1072  -36.1805    1.5234 C   0  0  0  0  0  0  0  0  0  0  0  0
   27.5322  -36.2647    0.1288 C   0  0  2  0  0  0  0  0  0  0  0  0
   28.1709  -35.2488   -0.7352 N   0  0  0  0  0  0  0  0  0  0  0  0
   26.0849  -36.0488    0.0704 C   0  0  0  0  0  0  0  0  0  0  0  0
   25.3173  -36.8595    0.6316 O   0  0  0  0  0  0  0  0  0  0  0  0
   25.5530  -34.9693   -0.5907 O   0  0  0  0  0  0  0  0  0  0  0  0
  2  1  1  0
  3  2  2  0
  4  3  1  0
  5 11  1  0
  5  4  2  0
  6  5  1  0
  7  9  1  0
  7  6  1  0
  7  8  1  1
  9 10  2  0
 11 12  2  0
 12  2  1  0
 13 14  1  0
 15 14  1  0
 15 16  1  6
 15 17  1  0
 17 18  1  6
 18  9  1  0
 19 20  2  0
 19 17  1  0
 22 21  1  1
 22 24  1  0
 23 22  1  0
 25 24  1  1
 25 26  1  0
 25 27  1  0
 26 19  1  0
 27 29  1  0
 28 27  2  0
M  END
$$$$
