YIL.pdb
     RDKit          3D

 29 29  0  0  1  0  0  0  0  0999 V2000
   17.7444  -17.4715  -15.2356 O   0  0  0  0  0  0  0  0  0  0  0  0
   18.8334  -18.1952  -14.7482 C   0  0  0  0  0  0  0  0  0  0  0  0
   18.6759  -19.5532  -14.5727 C   0  0  0  0  0  0  0  0  0  0  0  0
   19.7406  -20.2931  -14.0910 C   0  0  0  0  0  0  0  0  0  0  0  0
   20.9509  -19.7217  -13.7809 C   0  0  0  0  0  0  0  0  0  0  0  0
   22.0334  -20.5608  -13.2531 C   0  0  0  0  0  0  0  0  0  0  0  0
   23.1833  -20.6390  -14.2284 C   0  0  2  0  0  0  0  0  0  0  0  0
   22.7306  -21.3143  -15.4493 N   0  0  0  0  0  0  0  0  0  0  0  0
   24.3732  -21.3555  -13.6373 C   0  0  0  0  0  0  0  0  0  0  0  0
   24.4276  -22.5755  -13.8277 O   0  0  0  0  0  0  0  0  0  0  0  0
   21.0932  -18.3663  -13.9610 C   0  0  0  0  0  0  0  0  0  0  0  0
   20.0278  -17.5947  -14.4483 C   0  0  0  0  0  0  0  0  0  0  0  0
   30.2764  -20.4778  -12.7544 C   0  0  0  0  0  0  0  0  0  0  0  0
   29.0212  -21.1349  -12.2129 C   0  0  0  0  0  0  0  0  0  0  0  0
   27.7602  -20.5588  -12.8310 C   0  0  2  0  0  0  0  0  0  0  0  0
   27.8891  -19.0463  -12.7267 C   0  0  0  0  0  0  0  0  0  0  0  0
   26.5081  -21.0924  -12.2483 C   0  0  2  0  0  0  0  0  0  0  0  0
   25.3041  -20.5895  -12.9312 N   0  0  0  0  0  0  0  0  0  0  0  0
   26.3023  -20.9260  -10.8046 C   0  0  0  0  0  0  0  0  0  0  0  0
   25.5898  -19.9244  -10.3697 O   0  0  0  0  0  0  0  0  0  0  0  0
   27.7614  -18.4797   -6.4924 C   0  0  0  0  0  0  0  0  0  0  0  0
   27.4471  -19.9841   -6.4660 C   0  0  2  0  0  0  0  0  0  0  0  0
   28.4223  -20.5800   -5.4830 C   0  0  0  0  0  0  0  0  0  0  0  0
   27.6222  -20.4708   -7.8569 C   0  0  0  0  0  0  0  0  0  0  0  0
   26.5445  -21.4080   -8.3494 C   0  0  2  0  0  0  0  0  0  0  0  0
   26.7943  -21.7538   -9.7652 N   0  0  0  0  0  0  0  0  0  0  0  0
   25.1915  -20.8543   -8.2610 C   0  0  0  0  0  0  0  0  0  0  0  0
   24.9603  -19.7150   -8.7192 O   0  0  0  0  0  0  0  0  0  0  0  0
   24.1686  -21.5649   -7.6831 O   0  0  0  0  0  0  0  0  0  0  0  0
  2  1  1  0
  3  2  2  0
  4  3  1  0
  5 11  1  0
  5  4  2  0
  6  5  1  0
  7  9  1  0
  7  6  1  0
  7  8  1  6
  9 10  2  0
 11 12  2  0
 12  2  1  0
 13 14  1  0
 15 14  1  0
 15 16  1  1
 15 17  1  0
 17 18  1  6
 18  9  1  0
 19 20  2  0
 19 17  1  0
 22 21  1  6
 22 24  1  0
 23 22  1  0
 25 24  1  6
 25 26  1  0
 25 27  1  0
 26 19  1  0
 27 29  1  0
 28 27  2  0
M  END
$$$$
