YIL.pdb
     RDKit          3D

 29 29  0  0  1  0  0  0  0  0999 V2000
   27.5508  -29.2662  -20.5399 O   0  0  0  0  0  0  0  0  0  0  0  0
   27.0273  -28.3742  -19.6032 C   0  0  0  0  0  0  0  0  0  0  0  0
   27.2466  -28.6413  -18.2690 C   0  0  0  0  0  0  0  0  0  0  0  0
   26.7380  -27.7722  -17.3207 C   0  0  0  0  0  0  0  0  0  0  0  0
   26.0213  -26.6509  -17.6621 C   0  0  0  0  0  0  0  0  0  0  0  0
   25.4908  -25.7814  -16.6053 C   0  0  0  0  0  0  0  0  0  0  0  0
   26.3437  -24.5466  -16.4403 C   0  0  2  0  0  0  0  0  0  0  0  0
   27.6471  -24.9348  -15.8905 N   0  0  0  0  0  0  0  0  0  0  0  0
   25.6801  -23.5199  -15.5547 C   0  0  0  0  0  0  0  0  0  0  0  0
   26.1065  -23.4377  -14.3974 O   0  0  0  0  0  0  0  0  0  0  0  0
   25.8104  -26.3975  -18.9967 C   0  0  0  0  0  0  0  0  0  0  0  0
   26.3163  -27.2643  -19.9769 C   0  0  0  0  0  0  0  0  0  0  0  0
   23.9979  -17.8397  -15.7036 C   0  0  0  0  0  0  0  0  0  0  0  0
   23.5279  -19.2040  -15.2365 C   0  0  0  0  0  0  0  0  0  0  0  0
   24.2849  -20.3332  -15.9116 C   0  0  2  0  0  0  0  0  0  0  0  0
   24.0968  -20.1352  -17.4084 C   0  0  0  0  0  0  0  0  0  0  0  0
   23.9015  -21.6818  -15.4355 C   0  0  2  0  0  0  0  0  0  0  0  0
   24.6501  -22.7563  -16.1094 N   0  0  0  0  0  0  0  0  0  0  0  0
   22.4786  -22.0400  -15.4739 C   0  0  0  0  0  0  0  0  0  0  0  0
   21.8891  -22.2024  -16.6254 O   0  0  0  0  0  0  0  0  0  0  0  0
   21.6049  -25.6597  -14.0961 C   0  0  0  0  0  0  0  0  0  0  0  0
   20.6945  -24.6608  -13.3638 C   0  0  2  0  0  0  0  0  0  0  0  0
   19.8752  -25.4909  -12.4088 C   0  0  0  0  0  0  0  0  0  0  0  0
   19.8921  -23.9827  -14.4119 C   0  0  0  0  0  0  0  0  0  0  0  0
   20.1750  -22.5086  -14.5836 C   0  0  2  0  0  0  0  0  0  0  0  0
   21.6152  -22.2499  -14.3702 N   0  0  0  0  0  0  0  0  0  0  0  0
   19.4295  -21.6504  -13.6602 C   0  0  0  0  0  0  0  0  0  0  0  0
   18.1830  -21.6027  -13.7328 O   0  0  0  0  0  0  0  0  0  0  0  0
   20.0754  -20.8950  -12.7128 O   0  0  0  0  0  0  0  0  0  0  0  0
  2  1  1  0
  3  2  2  0
  4  3  1  0
  5 11  1  0
  5  4  2  0
  6  5  1  0
  7  9  1  0
  7  6  1  0
  7  8  1  1
  9 10  2  0
 11 12  2  0
 12  2  1  0
 13 14  1  0
 15 14  1  0
 15 16  1  6
 15 17  1  0
 17 18  1  6
 18  9  1  0
 19 20  2  0
 19 17  1  0
 22 21  1  6
 22 24  1  0
 23 22  1  0
 25 24  1  1
 25 26  1  0
 25 27  1  0
 26 19  1  0
 27 29  1  0
 28 27  2  0
M  END
$$$$
