YIL.pdb
     RDKit          3D

 29 29  0  0  1  0  0  0  0  0999 V2000
   20.6518  -39.4007  -15.3865 O   0  0  0  0  0  0  0  0  0  0  0  0
   21.4764  -38.5103  -14.6978 C   0  0  0  0  0  0  0  0  0  0  0  0
   22.8011  -38.4407  -15.0719 C   0  0  0  0  0  0  0  0  0  0  0  0
   23.6393  -37.5656  -14.4048 C   0  0  0  0  0  0  0  0  0  0  0  0
   23.1975  -36.7626  -13.3814 C   0  0  0  0  0  0  0  0  0  0  0  0
   24.1443  -35.8714  -12.7004 C   0  0  0  0  0  0  0  0  0  0  0  0
   23.8947  -34.4295  -13.0720 C   0  0  2  0  0  0  0  0  0  0  0  0
   24.4059  -34.1884  -14.4256 N   0  0  0  0  0  0  0  0  0  0  0  0
   24.5314  -33.4778  -12.0883 C   0  0  0  0  0  0  0  0  0  0  0  0
   25.5563  -32.9014  -12.4694 O   0  0  0  0  0  0  0  0  0  0  0  0
   21.8738  -36.8429  -13.0192 C   0  0  0  0  0  0  0  0  0  0  0  0
   21.0043  -37.7227  -13.6809 C   0  0  0  0  0  0  0  0  0  0  0  0
   22.0979  -29.3785  -10.2589 C   0  0  0  0  0  0  0  0  0  0  0  0
   23.1375  -30.4294  -10.5987 C   0  0  0  0  0  0  0  0  0  0  0  0
   23.3933  -31.3778   -9.4415 C   0  0  2  0  0  0  0  0  0  0  0  0
   23.7935  -30.5073   -8.2596 C   0  0  0  0  0  0  0  0  0  0  0  0
   24.3663  -32.4507   -9.7486 C   0  0  2  0  0  0  0  0  0  0  0  0
   23.9174  -33.3289  -10.8424 N   0  0  0  0  0  0  0  0  0  0  0  0
   24.8077  -33.3087   -8.6425 C   0  0  0  0  0  0  0  0  0  0  0  0
   23.9993  -34.2184   -8.1747 O   0  0  0  0  0  0  0  0  0  0  0  0
   27.6116  -36.6343   -5.6643 C   0  0  0  0  0  0  0  0  0  0  0  0
   28.1666  -35.9429   -6.9200 C   0  0  2  0  0  0  0  0  0  0  0  0
   29.6500  -36.2105   -6.9024 C   0  0  0  0  0  0  0  0  0  0  0  0
   27.8131  -34.5070   -6.7954 C   0  0  0  0  0  0  0  0  0  0  0  0
   26.3347  -34.2022   -6.8568 C   0  0  2  0  0  0  0  0  0  0  0  0
   26.0619  -33.2845   -7.9837 N   0  0  0  0  0  0  0  0  0  0  0  0
   25.8068  -33.5794   -5.6409 C   0  0  0  0  0  0  0  0  0  0  0  0
   25.9199  -32.3454   -5.4811 O   0  0  0  0  0  0  0  0  0  0  0  0
   25.1877  -34.3273   -4.6700 O   0  0  0  0  0  0  0  0  0  0  0  0
  2  1  1  0
  3  2  2  0
  4  3  1  0
  5 11  1  0
  5  4  2  0
  6  5  1  0
  7  9  1  0
  7  6  1  0
  7  8  1  6
  9 10  2  0
 11 12  2  0
 12  2  1  0
 13 14  1  0
 15 14  1  0
 15 16  1  1
 15 17  1  0
 17 18  1  6
 18  9  1  0
 19 20  2  0
 19 17  1  0
 22 21  1  1
 22 24  1  0
 23 22  1  0
 25 24  1  1
 25 26  1  0
 25 27  1  0
 26 19  1  0
 27 29  1  0
 28 27  2  0
M  END
$$$$
