YIL.pdb
     RDKit          3D

 29 29  0  0  1  0  0  0  0  0999 V2000
   28.8212  -14.6120  -17.7254 O   0  0  0  0  0  0  0  0  0  0  0  0
   28.2043  -15.7050  -17.1156 C   0  0  0  0  0  0  0  0  0  0  0  0
   27.7825  -15.5598  -15.8115 C   0  0  0  0  0  0  0  0  0  0  0  0
   27.1678  -16.6286  -15.1845 C   0  0  0  0  0  0  0  0  0  0  0  0
   26.9627  -17.8311  -15.8164 C   0  0  0  0  0  0  0  0  0  0  0  0
   26.3235  -18.9325  -15.0865 C   0  0  0  0  0  0  0  0  0  0  0  0
   27.3316  -19.6896  -14.2560 C   0  0  2  0  0  0  0  0  0  0  0  0
   28.3242  -20.3002  -15.1470 N   0  0  0  0  0  0  0  0  0  0  0  0
   26.6741  -20.7417  -13.3960 C   0  0  0  0  0  0  0  0  0  0  0  0
   26.4828  -21.8415  -13.9268 O   0  0  0  0  0  0  0  0  0  0  0  0
   27.3887  -17.9613  -17.1169 C   0  0  0  0  0  0  0  0  0  0  0  0
   28.0146  -16.8914  -17.7740 C   0  0  0  0  0  0  0  0  0  0  0  0
   26.7881  -20.6743   -7.8085 C   0  0  0  0  0  0  0  0  0  0  0  0
   26.5949  -21.1708   -9.2286 C   0  0  0  0  0  0  0  0  0  0  0  0
   25.3261  -20.6258   -9.8588 C   0  0  2  0  0  0  0  0  0  0  0  0
   24.1727  -21.1678   -9.0276 C   0  0  0  0  0  0  0  0  0  0  0  0
   25.2041  -20.9117  -11.3064 C   0  0  2  0  0  0  0  0  0  0  0  0
   26.3391  -20.3896  -12.0862 N   0  0  0  0  0  0  0  0  0  0  0  0
   23.9704  -20.4937  -11.9828 C   0  0  0  0  0  0  0  0  0  0  0  0
   23.9711  -19.4080  -12.7047 O   0  0  0  0  0  0  0  0  0  0  0  0
   20.3522  -22.2448  -15.3531 C   0  0  0  0  0  0  0  0  0  0  0  0
   21.3625  -21.0972  -15.5115 C   0  0  2  0  0  0  0  0  0  0  0  0
   22.0066  -21.3132  -16.8572 C   0  0  0  0  0  0  0  0  0  0  0  0
   22.3033  -21.2100  -14.3694 C   0  0  0  0  0  0  0  0  0  0  0  0
   21.7131  -20.8857  -13.0171 C   0  0  2  0  0  0  0  0  0  0  0  0
   22.7141  -21.1486  -11.9609 N   0  0  0  0  0  0  0  0  0  0  0  0
   20.5134  -21.6605  -12.6927 C   0  0  0  0  0  0  0  0  0  0  0  0
   20.6314  -22.8120  -12.2221 O   0  0  0  0  0  0  0  0  0  0  0  0
   19.2572  -21.1447  -12.8958 O   0  0  0  0  0  0  0  0  0  0  0  0
  2  1  1  0
  3  2  2  0
  4  3  1  0
  5 11  1  0
  5  4  2  0
  6  5  1  0
  7  9  1  0
  7  6  1  0
  7  8  1  6
  9 10  2  0
 11 12  2  0
 12  2  1  0
 13 14  1  0
 15 14  1  0
 15 16  1  1
 15 17  1  0
 17 18  1  6
 18  9  1  0
 19 20  2  0
 19 17  1  0
 22 21  1  1
 22 24  1  0
 23 22  1  0
 25 24  1  6
 25 26  1  0
 25 27  1  0
 26 19  1  0
 27 29  1  0
 28 27  2  0
M  END
$$$$
