YIL.pdb
     RDKit          3D

 29 29  0  0  1  0  0  0  0  0999 V2000
   26.8358  -15.4121  -20.2031 O   0  0  0  0  0  0  0  0  0  0  0  0
   26.6070  -16.3318  -19.1790 C   0  0  0  0  0  0  0  0  0  0  0  0
   27.1858  -16.0852  -17.9526 C   0  0  0  0  0  0  0  0  0  0  0  0
   26.9740  -16.9818  -16.9208 C   0  0  0  0  0  0  0  0  0  0  0  0
   26.2062  -18.1105  -17.0753 C   0  0  0  0  0  0  0  0  0  0  0  0
   26.0391  -19.0324  -15.9455 C   0  0  0  0  0  0  0  0  0  0  0  0
   27.2588  -19.9054  -15.7732 C   0  0  2  0  0  0  0  0  0  0  0  0
   27.4195  -20.7444  -16.9657 N   0  0  0  0  0  0  0  0  0  0  0  0
   27.1666  -20.7607  -14.5328 C   0  0  0  0  0  0  0  0  0  0  0  0
   26.5742  -21.8388  -14.6540 O   0  0  0  0  0  0  0  0  0  0  0  0
   25.6354  -18.3434  -18.3041 C   0  0  0  0  0  0  0  0  0  0  0  0
   25.8357  -17.4486  -19.3658 C   0  0  0  0  0  0  0  0  0  0  0  0
   31.3987  -20.8780  -11.0537 C   0  0  0  0  0  0  0  0  0  0  0  0
   30.1604  -21.1891  -11.8725 C   0  0  0  0  0  0  0  0  0  0  0  0
   28.8952  -20.6591  -11.2225 C   0  0  2  0  0  0  0  0  0  0  0  0
   28.8384  -21.2807   -9.8349 C   0  0  0  0  0  0  0  0  0  0  0  0
   27.6706  -20.8789  -12.0251 C   0  0  2  0  0  0  0  0  0  0  0  0
   27.7511  -20.2688  -13.3631 N   0  0  0  0  0  0  0  0  0  0  0  0
   26.3868  -20.4839  -11.4332 C   0  0  0  0  0  0  0  0  0  0  0  0
   26.1371  -19.2209  -11.2275 O   0  0  0  0  0  0  0  0  0  0  0  0
   22.4565  -19.3069  -12.5759 C   0  0  0  0  0  0  0  0  0  0  0  0
   22.8172  -20.8006  -12.6154 C   0  0  2  0  0  0  0  0  0  0  0  0
   21.7184  -21.4573  -13.4116 C   0  0  0  0  0  0  0  0  0  0  0  0
   22.8868  -21.2498  -11.2027 C   0  0  0  0  0  0  0  0  0  0  0  0
   24.0973  -20.7711  -10.4359 C   0  0  2  0  0  0  0  0  0  0  0  0
   25.3239  -21.3344  -11.0399 N   0  0  0  0  0  0  0  0  0  0  0  0
   24.0886  -21.1460   -9.0202 C   0  0  0  0  0  0  0  0  0  0  0  0
   23.2152  -20.6728   -8.2623 O   0  0  0  0  0  0  0  0  0  0  0  0
   25.0242  -22.0105   -8.5077 O   0  0  0  0  0  0  0  0  0  0  0  0
  2  1  1  0
  3  2  2  0
  4  3  1  0
  5 11  1  0
  5  4  2  0
  6  5  1  0
  7  9  1  0
  7  6  1  0
  7  8  1  6
  9 10  2  0
 11 12  2  0
 12  2  1  0
 13 14  1  0
 15 14  1  0
 15 16  1  1
 15 17  1  0
 17 18  1  6
 18  9  1  0
 19 20  2  0
 19 17  1  0
 22 21  1  1
 22 24  1  0
 23 22  1  0
 25 24  1  6
 25 26  1  0
 25 27  1  0
 26 19  1  0
 27 29  1  0
 28 27  2  0
M  END
$$$$
