VAF.pdb
     RDKit          3D

 24 24  0  0  1  0  0  0  0  0999 V2000
    7.6885  -17.3398   18.4440 C   0  0  0  0  0  0  0  0  0  0  0  0
    8.2268  -18.6576   18.9579 C   0  0  1  0  0  0  0  0  0  0  0  0
    9.0559  -19.2751   17.8935 C   0  0  0  0  0  0  0  0  0  0  0  0
    8.9392  -18.4827   20.2713 C   0  0  2  0  0  0  0  0  0  0  0  0
    8.2311  -19.2849   21.2513 N   0  0  0  0  0  0  0  0  0  0  0  0
    9.0483  -17.0964   20.7133 C   0  0  0  0  0  0  0  0  0  0  0  0
   10.1239  -16.4745   20.5291 O   0  0  0  0  0  0  0  0  0  0  0  0
    7.1072  -14.1200   21.1115 C   0  0  0  0  0  0  0  0  0  0  0  0
    8.1735  -15.0179   21.7113 C   0  0  2  0  0  0  0  0  0  0  0  0
    7.9972  -16.3928   21.3498 N   0  0  0  0  0  0  0  0  0  0  0  0
    8.2088  -14.7847   23.1608 C   0  0  0  0  0  0  0  0  0  0  0  0
    7.1262  -14.5838   23.7660 O   0  0  0  0  0  0  0  0  0  0  0  0
    9.4274  -14.7822   23.8812 N   0  0  0  0  0  0  0  0  0  0  0  0
    9.5557  -15.2462   25.2476 C   0  0  1  0  0  0  0  0  0  0  0  0
    8.1819  -15.3020   25.8550 C   0  0  0  0  0  0  0  0  0  0  0  0
    7.6334  -13.9740   26.2074 C   0  0  0  0  0  0  0  0  0  0  0  0
    6.2913  -13.7329   26.0645 C   0  0  0  0  0  0  0  0  0  0  0  0
    5.7161  -12.5044   26.3820 C   0  0  0  0  0  0  0  0  0  0  0  0
    6.5481  -11.4997   26.8589 C   0  0  0  0  0  0  0  0  0  0  0  0
    7.8920  -11.7572   26.9964 C   0  0  0  0  0  0  0  0  0  0  0  0
    8.4452  -12.9751   26.6789 C   0  0  0  0  0  0  0  0  0  0  0  0
   10.2803  -16.5275   25.2687 C   0  0  0  0  0  0  0  0  0  0  0  0
   10.7202  -17.1298   26.4333 O   0  0  0  0  0  0  0  0  0  0  0  0
   10.5375  -17.1471   24.1904 O   0  0  0  0  0  0  0  0  0  0  0  0
  2  1  1  6
  2  4  1  0
  2  3  1  0
  4  6  1  0
  4  5  1  1
  6  7  2  0
  9  8  1  1
  9 11  1  0
 10  6  1  0
 10  9  1  0
 11 12  2  0
 13 14  1  0
 13 11  1  0
 14 22  1  0
 14 15  1  6
 16 21  2  0
 16 15  1  0
 17 16  1  0
 18 19  1  0
 18 17  2  0
 19 20  2  0
 20 21  1  0
 22 24  2  0
 22 23  1  0
M  END
$$$$
