VAF.pdb
     RDKit          3D

 24 24  0  0  1  0  0  0  0  0999 V2000
    5.0096  -20.0733   22.7736 C   0  0  0  0  0  0  0  0  0  0  0  0
    6.1274  -19.0530   22.7589 C   0  0  1  0  0  0  0  0  0  0  0  0
    7.4076  -19.7527   23.0289 C   0  0  0  0  0  0  0  0  0  0  0  0
    6.1192  -18.2509   21.4863 C   0  0  2  0  0  0  0  0  0  0  0  0
    6.2953  -19.1860   20.3909 N   0  0  0  0  0  0  0  0  0  0  0  0
    7.1255  -17.1953   21.4372 C   0  0  0  0  0  0  0  0  0  0  0  0
    8.3268  -17.4992   21.2328 O   0  0  0  0  0  0  0  0  0  0  0  0
    7.3571  -13.4522   21.2628 C   0  0  0  0  0  0  0  0  0  0  0  0
    7.8778  -14.8493   21.5452 C   0  0  2  0  0  0  0  0  0  0  0  0
    6.8278  -15.8217   21.6089 N   0  0  0  0  0  0  0  0  0  0  0  0
    8.7103  -14.7941   22.7539 C   0  0  0  0  0  0  0  0  0  0  0  0
    9.7735  -14.1253   22.7238 O   0  0  0  0  0  0  0  0  0  0  0  0
    8.3407  -15.4734   23.9395 N   0  0  0  0  0  0  0  0  0  0  0  0
    9.0916  -15.4007   25.1763 C   0  0  1  0  0  0  0  0  0  0  0  0
    8.1182  -15.2077   26.3054 C   0  0  0  0  0  0  0  0  0  0  0  0
    7.4928  -13.8673   26.3283 C   0  0  0  0  0  0  0  0  0  0  0  0
    8.2531  -12.7674   26.6315 C   0  0  0  0  0  0  0  0  0  0  0  0
    7.7220  -11.4799   26.6664 C   0  0  0  0  0  0  0  0  0  0  0  0
    6.3716  -11.3247   26.3810 C   0  0  0  0  0  0  0  0  0  0  0  0
    5.6226  -12.4378   26.0788 C   0  0  0  0  0  0  0  0  0  0  0  0
    6.1611  -13.7023   26.0483 C   0  0  0  0  0  0  0  0  0  0  0  0
    9.9441  -16.5936   25.3082 C   0  0  0  0  0  0  0  0  0  0  0  0
   10.9641  -16.6969   26.2363 O   0  0  0  0  0  0  0  0  0  0  0  0
    9.7729  -17.6018   24.5552 O   0  0  0  0  0  0  0  0  0  0  0  0
  2  1  1  6
  2  4  1  0
  2  3  1  0
  4  6  1  0
  4  5  1  6
  6  7  2  0
  9  8  1  1
  9 11  1  0
 10  6  1  0
 10  9  1  0
 11 12  2  0
 13 14  1  0
 13 11  1  0
 14 22  1  0
 14 15  1  1
 16 21  2  0
 16 15  1  0
 17 16  1  0
 18 19  1  0
 18 17  2  0
 19 20  2  0
 20 21  1  0
 22 24  2  0
 22 23  1  0
M  END
$$$$
