VAF.pdb
     RDKit          3D

 24 24  0  0  1  0  0  0  0  0999 V2000
    7.8940  -12.2045   18.6180 C   0  0  0  0  0  0  0  0  0  0  0  0
    7.5517  -13.1326   19.7634 C   0  0  1  0  0  0  0  0  0  0  0  0
    6.7091  -14.2361   19.2401 C   0  0  0  0  0  0  0  0  0  0  0  0
    8.7897  -13.5907   20.4850 C   0  0  2  0  0  0  0  0  0  0  0  0
    9.6847  -14.1462   19.4873 N   0  0  0  0  0  0  0  0  0  0  0  0
    8.5388  -14.5525   21.5533 C   0  0  0  0  0  0  0  0  0  0  0  0
    7.7471  -14.2502   22.4803 O   0  0  0  0  0  0  0  0  0  0  0  0
    9.2741  -18.1480   22.4071 C   0  0  0  0  0  0  0  0  0  0  0  0
    8.8174  -16.7273   22.6821 C   0  0  2  0  0  0  0  0  0  0  0  0
    9.1435  -15.8314   21.6128 N   0  0  0  0  0  0  0  0  0  0  0  0
    9.3540  -16.3161   23.9859 C   0  0  0  0  0  0  0  0  0  0  0  0
   10.4671  -15.7345   24.0237 O   0  0  0  0  0  0  0  0  0  0  0  0
    8.6477  -16.5604   25.1880 N   0  0  0  0  0  0  0  0  0  0  0  0
    9.1534  -16.2198   26.5022 C   0  0  1  0  0  0  0  0  0  0  0  0
    8.0230  -15.6360   27.3029 C   0  0  0  0  0  0  0  0  0  0  0  0
    7.5957  -14.2976   26.8395 C   0  0  0  0  0  0  0  0  0  0  0  0
    8.4264  -13.2208   27.0127 C   0  0  0  0  0  0  0  0  0  0  0  0
    8.0810  -11.9373   26.5953 C   0  0  0  0  0  0  0  0  0  0  0  0
    6.8464  -11.7618   25.9836 C   0  0  0  0  0  0  0  0  0  0  0  0
    6.0246  -12.8518   25.8173 C   0  0  0  0  0  0  0  0  0  0  0  0
    6.3795  -14.1127   26.2346 C   0  0  0  0  0  0  0  0  0  0  0  0
    9.7805  -17.4034   27.1128 C   0  0  0  0  0  0  0  0  0  0  0  0
   10.6023  -17.3373   28.2232 O   0  0  0  0  0  0  0  0  0  0  0  0
    9.5875  -18.5628   26.6318 O   0  0  0  0  0  0  0  0  0  0  0  0
  2  1  1  6
  2  4  1  0
  2  3  1  0
  4  6  1  0
  4  5  1  6
  6  7  2  0
  9  8  1  6
  9 11  1  0
 10  6  1  0
 10  9  1  0
 11 12  2  0
 13 14  1  0
 13 11  1  0
 14 22  1  0
 14 15  1  1
 16 21  2  0
 16 15  1  0
 17 16  1  0
 18 19  1  0
 18 17  2  0
 19 20  2  0
 20 21  1  0
 22 24  2  0
 22 23  1  0
M  END
$$$$
