VAF.pdb
     RDKit          3D

 24 24  0  0  1  0  0  0  0  0999 V2000
    7.1022  -12.8706   19.6016 C   0  0  0  0  0  0  0  0  0  0  0  0
    8.4063  -13.3849   19.0313 C   0  0  1  0  0  0  0  0  0  0  0  0
    9.5248  -12.8015   19.8125 C   0  0  0  0  0  0  0  0  0  0  0  0
    8.4190  -14.8876   18.9637 C   0  0  2  0  0  0  0  0  0  0  0  0
    7.4112  -15.2802   17.9966 N   0  0  0  0  0  0  0  0  0  0  0  0
    8.1952  -15.5466   20.2463 C   0  0  0  0  0  0  0  0  0  0  0  0
    7.1014  -15.3809   20.8408 O   0  0  0  0  0  0  0  0  0  0  0  0
    9.0463  -18.4622   22.1651 C   0  0  0  0  0  0  0  0  0  0  0  0
    8.8661  -16.9555   22.1558 C   0  0  2  0  0  0  0  0  0  0  0  0
    9.1523  -16.3784   20.8763 N   0  0  0  0  0  0  0  0  0  0  0  0
    9.6616  -16.3906   23.2536 C   0  0  0  0  0  0  0  0  0  0  0  0
   10.8326  -16.0042   23.0129 O   0  0  0  0  0  0  0  0  0  0  0  0
    9.1387  -16.2746   24.5638 N   0  0  0  0  0  0  0  0  0  0  0  0
    9.8820  -15.7305   25.6820 C   0  0  1  0  0  0  0  0  0  0  0  0
    9.8097  -14.2309   25.6081 C   0  0  0  0  0  0  0  0  0  0  0  0
    8.5085  -13.6765   26.0420 C   0  0  0  0  0  0  0  0  0  0  0  0
    7.4528  -13.6556   25.1676 C   0  0  0  0  0  0  0  0  0  0  0  0
    6.2033  -13.1491   25.5186 C   0  0  0  0  0  0  0  0  0  0  0  0
    6.0404  -12.6517   26.8052 C   0  0  0  0  0  0  0  0  0  0  0  0
    7.1090  -12.6798   27.6703 C   0  0  0  0  0  0  0  0  0  0  0  0
    8.3364  -13.1830   27.3092 C   0  0  0  0  0  0  0  0  0  0  0  0
    9.3716  -16.3008   26.9395 C   0  0  0  0  0  0  0  0  0  0  0  0
    8.2639  -17.1265   27.0022 O   0  0  0  0  0  0  0  0  0  0  0  0
    9.9424  -16.0506   28.0460 O   0  0  0  0  0  0  0  0  0  0  0  0
  2  1  1  1
  2  4  1  0
  2  3  1  0
  4  6  1  0
  4  5  1  6
  6  7  2  0
  9  8  1  6
  9 11  1  0
 10  6  1  0
 10  9  1  0
 11 12  2  0
 13 14  1  0
 13 11  1  0
 14 22  1  0
 14 15  1  1
 16 21  2  0
 16 15  1  0
 17 16  1  0
 18 19  1  0
 18 17  2  0
 19 20  2  0
 20 21  1  0
 22 24  2  0
 22 23  1  0
M  END
$$$$
