VAF.pdb
     RDKit          3D

 24 24  0  0  1  0  0  0  0  0999 V2000
    8.3767  -12.8619   17.6339 C   0  0  0  0  0  0  0  0  0  0  0  0
    8.6582  -13.5475   18.9535 C   0  0  1  0  0  0  0  0  0  0  0  0
    7.6699  -13.0709   19.9523 C   0  0  0  0  0  0  0  0  0  0  0  0
    8.7025  -15.0428   18.7945 C   0  0  2  0  0  0  0  0  0  0  0  0
    7.4909  -15.4345   18.0990 N   0  0  0  0  0  0  0  0  0  0  0  0
    8.8428  -15.7744   20.0492 C   0  0  0  0  0  0  0  0  0  0  0  0
    7.8399  -15.9234   20.7904 O   0  0  0  0  0  0  0  0  0  0  0  0
   11.3967  -17.7873   21.9559 C   0  0  0  0  0  0  0  0  0  0  0  0
   10.1349  -16.9627   21.7814 C   0  0  2  0  0  0  0  0  0  0  0  0
   10.0629  -16.3391   20.4936 N   0  0  0  0  0  0  0  0  0  0  0  0
   10.0429  -16.0199   22.9037 C   0  0  0  0  0  0  0  0  0  0  0  0
   10.4391  -14.8397   22.7341 O   0  0  0  0  0  0  0  0  0  0  0  0
    9.5214  -16.4124   24.1598 N   0  0  0  0  0  0  0  0  0  0  0  0
    9.1403  -15.4792   25.2004 C   0  0  1  0  0  0  0  0  0  0  0  0
    8.0415  -14.6037   24.6658 C   0  0  0  0  0  0  0  0  0  0  0  0
    7.5283  -13.6262   25.6505 C   0  0  0  0  0  0  0  0  0  0  0  0
    6.1948  -13.6183   25.9692 C   0  0  0  0  0  0  0  0  0  0  0  0
    5.6531  -12.7243   26.8902 C   0  0  0  0  0  0  0  0  0  0  0  0
    6.5104  -11.8156   27.4973 C   0  0  0  0  0  0  0  0  0  0  0  0
    7.8452  -11.8363   27.1669 C   0  0  0  0  0  0  0  0  0  0  0  0
    8.3651  -12.7249   26.2558 C   0  0  0  0  0  0  0  0  0  0  0  0
    8.7855  -16.2190   26.4225 C   0  0  0  0  0  0  0  0  0  0  0  0
    9.2436  -15.8693   27.6797 O   0  0  0  0  0  0  0  0  0  0  0  0
    8.0250  -17.2347   26.3702 O   0  0  0  0  0  0  0  0  0  0  0  0
  2  1  1  6
  2  4  1  0
  2  3  1  0
  4  6  1  0
  4  5  1  1
  6  7  2  0
  9  8  1  6
  9 11  1  0
 10  6  1  0
 10  9  1  0
 11 12  2  0
 13 14  1  0
 13 11  1  0
 14 22  1  0
 14 15  1  6
 16 21  2  0
 16 15  1  0
 17 16  1  0
 18 19  1  0
 18 17  2  0
 19 20  2  0
 20 21  1  0
 22 24  2  0
 22 23  1  0
M  END
$$$$
