VAF.pdb
     RDKit          3D

 24 24  0  0  1  0  0  0  0  0999 V2000
    8.5791  -12.3021   18.6850 C   0  0  0  0  0  0  0  0  0  0  0  0
    8.5578  -13.1541   19.9357 C   0  0  1  0  0  0  0  0  0  0  0  0
    7.6667  -12.5081   20.9308 C   0  0  0  0  0  0  0  0  0  0  0  0
    8.1984  -14.5803   19.6199 C   0  0  2  0  0  0  0  0  0  0  0  0
    6.9563  -14.5519   18.8704 N   0  0  0  0  0  0  0  0  0  0  0  0
    8.0803  -15.4417   20.7918 C   0  0  0  0  0  0  0  0  0  0  0  0
    6.9907  -15.4874   21.4149 O   0  0  0  0  0  0  0  0  0  0  0  0
    9.6688  -18.4215   22.2814 C   0  0  0  0  0  0  0  0  0  0  0  0
    8.9190  -17.1081   22.4047 C   0  0  2  0  0  0  0  0  0  0  0  0
    9.1377  -16.2461   21.2816 N   0  0  0  0  0  0  0  0  0  0  0  0
    9.2653  -16.5004   23.6961 C   0  0  0  0  0  0  0  0  0  0  0  0
   10.2204  -15.6854   23.7423 O   0  0  0  0  0  0  0  0  0  0  0  0
    8.5503  -16.8127   24.8772 N   0  0  0  0  0  0  0  0  0  0  0  0
    8.9169  -16.3276   26.1921 C   0  0  1  0  0  0  0  0  0  0  0  0
    7.6708  -15.8382   26.8758 C   0  0  0  0  0  0  0  0  0  0  0  0
    7.3468  -14.4252   26.5805 C   0  0  0  0  0  0  0  0  0  0  0  0
    8.2473  -13.4408   26.8965 C   0  0  0  0  0  0  0  0  0  0  0  0
    8.0003  -12.0938   26.6407 C   0  0  0  0  0  0  0  0  0  0  0  0
    6.7928  -11.7551   26.0437 C   0  0  0  0  0  0  0  0  0  0  0  0
    5.9002  -12.7542   25.7330 C   0  0  0  0  0  0  0  0  0  0  0  0
    6.1583  -14.0795   25.9916 C   0  0  0  0  0  0  0  0  0  0  0  0
    9.6362  -17.3821   26.9255 C   0  0  0  0  0  0  0  0  0  0  0  0
   10.4622  -17.1257   28.0047 O   0  0  0  0  0  0  0  0  0  0  0  0
    9.5246  -18.6012   26.5876 O   0  0  0  0  0  0  0  0  0  0  0  0
  2  1  1  6
  2  4  1  0
  2  3  1  0
  4  6  1  0
  4  5  1  1
  6  7  2  0
  9  8  1  6
  9 11  1  0
 10  6  1  0
 10  9  1  0
 11 12  2  0
 13 14  1  0
 13 11  1  0
 14 22  1  0
 14 15  1  1
 16 21  2  0
 16 15  1  0
 17 16  1  0
 18 19  1  0
 18 17  2  0
 19 20  2  0
 20 21  1  0
 22 24  2  0
 22 23  1  0
M  END
$$$$
