VAF.pdb
     RDKit          3D

 24 24  0  0  1  0  0  0  0  0999 V2000
    7.0567  -14.1098   18.7218 C   0  0  0  0  0  0  0  0  0  0  0  0
    8.1242  -13.1425   19.1860 C   0  0  1  0  0  0  0  0  0  0  0  0
    7.4669  -12.0292   19.9139 C   0  0  0  0  0  0  0  0  0  0  0  0
    9.1955  -13.8467   19.9730 C   0  0  2  0  0  0  0  0  0  0  0  0
    9.9060  -14.7110   19.0491 N   0  0  0  0  0  0  0  0  0  0  0  0
    8.6983  -14.6037   21.1171 C   0  0  0  0  0  0  0  0  0  0  0  0
    8.0949  -14.0006   22.0389 O   0  0  0  0  0  0  0  0  0  0  0  0
    8.2846  -18.1897   22.2115 C   0  0  0  0  0  0  0  0  0  0  0  0
    8.2676  -16.6810   22.3743 C   0  0  2  0  0  0  0  0  0  0  0  0
    8.8558  -16.0038   21.2573 N   0  0  0  0  0  0  0  0  0  0  0  0
    8.8888  -16.3507   23.6635 C   0  0  0  0  0  0  0  0  0  0  0  0
   10.0852  -15.9671   23.6758 O   0  0  0  0  0  0  0  0  0  0  0  0
    8.1719  -16.4554   24.8796 N   0  0  0  0  0  0  0  0  0  0  0  0
    8.7677  -16.2557   26.1850 C   0  0  1  0  0  0  0  0  0  0  0  0
    7.7300  -15.6464   27.0859 C   0  0  0  0  0  0  0  0  0  0  0  0
    7.4341  -14.2298   26.7788 C   0  0  0  0  0  0  0  0  0  0  0  0
    8.4491  -13.3082   26.7768 C   0  0  0  0  0  0  0  0  0  0  0  0
    8.2334  -11.9614   26.4928 C   0  0  0  0  0  0  0  0  0  0  0  0
    6.9366  -11.5566   26.2037 C   0  0  0  0  0  0  0  0  0  0  0  0
    5.9295  -12.4931   26.2099 C   0  0  0  0  0  0  0  0  0  0  0  0
    6.1581  -13.8191   26.4921 C   0  0  0  0  0  0  0  0  0  0  0  0
    9.3240  -17.5276   26.6746 C   0  0  0  0  0  0  0  0  0  0  0  0
   10.2357  -17.6065   27.7115 O   0  0  0  0  0  0  0  0  0  0  0  0
    8.9804  -18.6323   26.1507 O   0  0  0  0  0  0  0  0  0  0  0  0
  2  1  1  1
  2  4  1  0
  2  3  1  0
  4  6  1  0
  4  5  1  6
  6  7  2  0
  9  8  1  6
  9 11  1  0
 10  6  1  0
 10  9  1  0
 11 12  2  0
 13 14  1  0
 13 11  1  0
 14 22  1  0
 14 15  1  1
 16 21  2  0
 16 15  1  0
 17 16  1  0
 18 19  1  0
 18 17  2  0
 19 20  2  0
 20 21  1  0
 22 24  2  0
 22 23  1  0
M  END
$$$$
