YHV.pdb
     RDKit          3D

 30 31  0  0  1  0  0  0  0  0999 V2000
    8.6006  -13.2894   15.1834 O   0  0  0  0  0  0  0  0  0  0  0  0
    8.2815  -13.5698   16.5132 C   0  0  0  0  0  0  0  0  0  0  0  0
    9.0909  -14.4116   17.2307 C   0  0  0  0  0  0  0  0  0  0  0  0
    8.8104  -14.7217   18.5670 C   0  0  0  0  0  0  0  0  0  0  0  0
    7.7083  -14.1867   19.1992 C   0  0  0  0  0  0  0  0  0  0  0  0
    7.3923  -14.5066   20.6119 C   0  0  0  0  0  0  0  0  0  0  0  0
    7.2806  -15.9693   20.8894 C   0  0  2  0  0  0  0  0  0  0  0  0
    6.0961  -16.4591   20.2051 N   0  0  0  0  0  0  0  0  0  0  0  0
    7.3110  -16.3487   22.3014 C   0  0  0  0  0  0  0  0  0  0  0  0
    6.2998  -16.2222   23.0345 O   0  0  0  0  0  0  0  0  0  0  0  0
    6.8989  -13.3366   18.4601 C   0  0  0  0  0  0  0  0  0  0  0  0
    7.1774  -13.0324   17.1434 C   0  0  0  0  0  0  0  0  0  0  0  0
    8.4818  -16.8863   22.9463 N   0  0  0  0  0  0  0  0  0  0  0  0
    8.5100  -17.0946   24.3749 C   0  0  1  0  0  0  0  0  0  0  0  0
    9.3984  -18.2478   24.7686 C   0  0  0  0  0  0  0  0  0  0  0  0
    9.4291  -18.4785   26.2143 C   0  0  0  0  0  0  0  0  0  0  0  0
    8.6568  -17.8373   27.1511 C   0  0  0  0  0  0  0  0  0  0  0  0
    9.0028  -18.3499   28.3600 N   0  0  0  0  0  0  0  0  0  0  0  0
    9.9515  -19.2751   28.2036 C   0  0  0  0  0  0  0  0  0  0  0  0
   10.2060  -19.3458   26.8785 N   0  0  0  0  0  0  0  0  0  0  0  0
    8.8706  -15.8392   25.0344 C   0  0  0  0  0  0  0  0  0  0  0  0
    9.9435  -15.2430   24.7636 O   0  0  0  0  0  0  0  0  0  0  0  0
    7.5182  -11.8532   25.5046 C   0  0  0  0  0  0  0  0  0  0  0  0
    7.1241  -13.0599   26.3202 C   0  0  2  0  0  0  0  0  0  0  0  0
    6.4631  -12.7153   27.6151 C   0  0  0  0  0  0  0  0  0  0  0  0
    8.3287  -13.9529   26.5382 C   0  0  2  0  0  0  0  0  0  0  0  0
    8.0189  -15.2437   26.0097 N   0  0  0  0  0  0  0  0  0  0  0  0
    8.6945  -14.0570   27.9564 C   0  0  0  0  0  0  0  0  0  0  0  0
    8.4433  -15.0980   28.6017 O   0  0  0  0  0  0  0  0  0  0  0  0
    9.3190  -13.0049   28.5876 O   0  0  0  0  0  0  0  0  0  0  0  0
  2  1  1  0
  2  3  2  0
  4  3  1  0
  5  4  2  0
  6  5  1  0
  7  9  1  0
  7  6  1  0
  7  8  1  1
  9 10  2  0
 11 12  2  0
 11  5  1  0
 12  2  1  0
 13 14  1  0
 13  9  1  0
 14 15  1  6
 15 16  1  0
 16 17  2  0
 18 17  1  0
 19 18  1  0
 20 19  2  0
 20 16  1  0
 21 14  1  0
 22 21  2  0
 24 23  1  1
 24 25  1  0
 24 26  1  0
 26 27  1  1
 27 21  1  0
 28 26  1  0
 28 30  1  0
 29 28  2  0
M  END
$$$$
