YHV.pdb
     RDKit          3D

 30 31  0  0  1  0  0  0  0  0999 V2000
    9.1658  -11.1824   20.4627 O   0  0  0  0  0  0  0  0  0  0  0  0
    8.4838  -12.3987   20.3959 C   0  0  0  0  0  0  0  0  0  0  0  0
    8.7127  -13.2351   19.3344 C   0  0  0  0  0  0  0  0  0  0  0  0
    8.0517  -14.4646   19.2254 C   0  0  0  0  0  0  0  0  0  0  0  0
    7.1494  -14.8684   20.1863 C   0  0  0  0  0  0  0  0  0  0  0  0
    6.4366  -16.1644   20.0860 C   0  0  0  0  0  0  0  0  0  0  0  0
    7.2096  -17.3222   20.6255 C   0  0  2  0  0  0  0  0  0  0  0  0
    6.4508  -18.5289   20.3443 N   0  0  0  0  0  0  0  0  0  0  0  0
    7.6025  -17.2199   22.0304 C   0  0  0  0  0  0  0  0  0  0  0  0
    6.7817  -17.4326   22.9561 O   0  0  0  0  0  0  0  0  0  0  0  0
    6.9285  -14.0113   21.2543 C   0  0  0  0  0  0  0  0  0  0  0  0
    7.5811  -12.8002   21.3597 C   0  0  0  0  0  0  0  0  0  0  0  0
    8.9363  -16.8739   22.4508 N   0  0  0  0  0  0  0  0  0  0  0  0
    9.3070  -16.9161   23.8458 C   0  0  1  0  0  0  0  0  0  0  0  0
   10.6391  -17.5880   24.0649 C   0  0  0  0  0  0  0  0  0  0  0  0
   10.5909  -19.0361   23.8533 C   0  0  0  0  0  0  0  0  0  0  0  0
    9.5767  -19.8759   24.2422 C   0  0  0  0  0  0  0  0  0  0  0  0
    9.9340  -21.1267   23.8526 N   0  0  0  0  0  0  0  0  0  0  0  0
   11.1206  -21.0886   23.2435 C   0  0  0  0  0  0  0  0  0  0  0  0
   11.5155  -19.7964   23.2497 N   0  0  0  0  0  0  0  0  0  0  0  0
    9.2476  -15.5623   24.3978 C   0  0  0  0  0  0  0  0  0  0  0  0
    9.8514  -14.6058   23.8498 O   0  0  0  0  0  0  0  0  0  0  0  0
    6.3223  -13.4565   25.2959 C   0  0  0  0  0  0  0  0  0  0  0  0
    7.1698  -13.5541   26.5404 C   0  0  2  0  0  0  0  0  0  0  0  0
    7.1762  -12.3035   27.3579 C   0  0  0  0  0  0  0  0  0  0  0  0
    8.5775  -13.9800   26.1755 C   0  0  2  0  0  0  0  0  0  0  0  0
    8.5027  -15.2760   25.5786 N   0  0  0  0  0  0  0  0  0  0  0  0
    9.4703  -14.0064   27.3410 C   0  0  0  0  0  0  0  0  0  0  0  0
    9.8121  -15.0940   27.8540 O   0  0  0  0  0  0  0  0  0  0  0  0
    9.9388  -12.8288   27.8788 O   0  0  0  0  0  0  0  0  0  0  0  0
  2  1  1  0
  2  3  2  0
  4  3  1  0
  5  4  2  0
  6  5  1  0
  7  9  1  0
  7  6  1  0
  7  8  1  1
  9 10  2  0
 11 12  2  0
 11  5  1  0
 12  2  1  0
 13 14  1  0
 13  9  1  0
 14 15  1  6
 15 16  1  0
 16 17  2  0
 18 17  1  0
 19 18  1  0
 20 19  2  0
 20 16  1  0
 21 14  1  0
 22 21  2  0
 24 23  1  6
 24 25  1  0
 24 26  1  0
 26 27  1  1
 27 21  1  0
 28 26  1  0
 28 30  1  0
 29 28  2  0
M  END
$$$$
