YHV.pdb
     RDKit          3D

 30 31  0  0  1  0  0  0  0  0999 V2000
    9.5781  -12.1728   20.0628 O   0  0  0  0  0  0  0  0  0  0  0  0
    8.6016  -13.1650   19.9579 C   0  0  0  0  0  0  0  0  0  0  0  0
    7.5734  -13.1882   20.8640 C   0  0  0  0  0  0  0  0  0  0  0  0
    6.5718  -14.1643   20.7979 C   0  0  0  0  0  0  0  0  0  0  0  0
    6.5929  -15.1319   19.8162 C   0  0  0  0  0  0  0  0  0  0  0  0
    5.5439  -16.1761   19.7327 C   0  0  0  0  0  0  0  0  0  0  0  0
    5.8994  -17.4466   20.4317 C   0  0  2  0  0  0  0  0  0  0  0  0
    4.9817  -18.4750   19.9720 N   0  0  0  0  0  0  0  0  0  0  0  0
    5.9692  -17.3670   21.8903 C   0  0  0  0  0  0  0  0  0  0  0  0
    4.9309  -17.3719   22.5959 O   0  0  0  0  0  0  0  0  0  0  0  0
    7.6396  -15.0951   18.9067 C   0  0  0  0  0  0  0  0  0  0  0  0
    8.6255  -14.1323   18.9737 C   0  0  0  0  0  0  0  0  0  0  0  0
    7.2114  -17.2785   22.6145 N   0  0  0  0  0  0  0  0  0  0  0  0
    7.2341  -17.3498   24.0566 C   0  0  1  0  0  0  0  0  0  0  0  0
    7.7565  -18.6730   24.5570 C   0  0  0  0  0  0  0  0  0  0  0  0
    7.7975  -18.7559   26.0184 C   0  0  0  0  0  0  0  0  0  0  0  0
    8.9241  -18.6866   26.8001 C   0  0  0  0  0  0  0  0  0  0  0  0
    8.5135  -18.8057   28.0890 N   0  0  0  0  0  0  0  0  0  0  0  0
    7.1869  -18.9446   28.1295 C   0  0  0  0  0  0  0  0  0  0  0  0
    6.7569  -18.9125   26.8490 N   0  0  0  0  0  0  0  0  0  0  0  0
    7.9762  -16.2028   24.5807 C   0  0  0  0  0  0  0  0  0  0  0  0
    9.0621  -15.8357   24.0649 O   0  0  0  0  0  0  0  0  0  0  0  0
    6.3600  -12.8521   25.6641 C   0  0  0  0  0  0  0  0  0  0  0  0
    7.2792  -13.3376   26.7576 C   0  0  2  0  0  0  0  0  0  0  0  0
    7.9940  -12.2357   27.4698 C   0  0  0  0  0  0  0  0  0  0  0  0
    8.2536  -14.3554   26.2004 C   0  0  2  0  0  0  0  0  0  0  0  0
    7.4963  -15.4573   25.6965 N   0  0  0  0  0  0  0  0  0  0  0  0
    9.2144  -14.8166   27.2105 C   0  0  0  0  0  0  0  0  0  0  0  0
   10.2599  -14.1687   27.4343 O   0  0  0  0  0  0  0  0  0  0  0  0
    8.9693  -15.9704   27.9206 O   0  0  0  0  0  0  0  0  0  0  0  0
  2  1  1  0
  2  3  2  0
  4  3  1  0
  5  4  2  0
  6  5  1  0
  7  9  1  0
  7  6  1  0
  7  8  1  1
  9 10  2  0
 11 12  2  0
 11  5  1  0
 12  2  1  0
 13 14  1  0
 13  9  1  0
 14 15  1  6
 15 16  1  0
 16 17  2  0
 18 17  1  0
 19 18  1  0
 20 19  2  0
 20 16  1  0
 21 14  1  0
 22 21  2  0
 24 23  1  6
 24 25  1  0
 24 26  1  0
 26 27  1  1
 27 21  1  0
 28 26  1  0
 28 30  1  0
 29 28  2  0
M  END
$$$$
