YHV.pdb
     RDKit          3D

 30 31  0  0  1  0  0  0  0  0999 V2000
    4.6431  -10.0237   25.8945 O   0  0  0  0  0  0  0  0  0  0  0  0
    5.4404  -11.1659   25.8019 C   0  0  0  0  0  0  0  0  0  0  0  0
    5.3561  -12.1202   26.7823 C   0  0  0  0  0  0  0  0  0  0  0  0
    6.1362  -13.2817   26.7314 C   0  0  0  0  0  0  0  0  0  0  0  0
    7.0134  -13.4977   25.6901 C   0  0  0  0  0  0  0  0  0  0  0  0
    7.8508  -14.7191   25.6211 C   0  0  0  0  0  0  0  0  0  0  0  0
    7.7089  -15.4772   24.3428 C   0  0  2  0  0  0  0  0  0  0  0  0
    6.3472  -15.9798   24.2767 N   0  0  0  0  0  0  0  0  0  0  0  0
    8.7055  -16.5228   24.1144 C   0  0  0  0  0  0  0  0  0  0  0  0
    8.5134  -17.7037   24.4948 O   0  0  0  0  0  0  0  0  0  0  0  0
    7.0873  -12.5232   24.7058 C   0  0  0  0  0  0  0  0  0  0  0  0
    6.3176  -11.3793   24.7579 C   0  0  0  0  0  0  0  0  0  0  0  0
    9.9598  -16.2816   23.4480 N   0  0  0  0  0  0  0  0  0  0  0  0
   11.1386  -17.0415   23.7917 C   0  0  1  0  0  0  0  0  0  0  0  0
   12.2000  -16.9677   22.7230 C   0  0  0  0  0  0  0  0  0  0  0  0
   11.6988  -17.3228   21.3937 C   0  0  0  0  0  0  0  0  0  0  0  0
   10.7303  -18.2563   21.1184 C   0  0  0  0  0  0  0  0  0  0  0  0
   10.5716  -18.2688   19.7699 N   0  0  0  0  0  0  0  0  0  0  0  0
   11.3994  -17.3851   19.2093 C   0  0  0  0  0  0  0  0  0  0  0  0
   12.0884  -16.8086   20.2185 N   0  0  0  0  0  0  0  0  0  0  0  0
   11.6161  -16.6149   25.1073 C   0  0  0  0  0  0  0  0  0  0  0  0
   12.5249  -15.7547   25.2256 O   0  0  0  0  0  0  0  0  0  0  0  0
    9.4720  -16.5936   28.6074 C   0  0  0  0  0  0  0  0  0  0  0  0
   10.8074  -15.9453   28.3371 C   0  0  2  0  0  0  0  0  0  0  0  0
   10.7007  -14.6223   27.6511 C   0  0  0  0  0  0  0  0  0  0  0  0
   11.6968  -16.8965   27.5624 C   0  0  2  0  0  0  0  0  0  0  0  0
   11.0691  -17.1585   26.3058 N   0  0  0  0  0  0  0  0  0  0  0  0
   11.9320  -18.1522   28.2863 C   0  0  0  0  0  0  0  0  0  0  0  0
   11.4553  -19.2276   27.8628 O   0  0  0  0  0  0  0  0  0  0  0  0
   12.6820  -18.1537   29.4408 O   0  0  0  0  0  0  0  0  0  0  0  0
  2  1  1  0
  2  3  2  0
  4  3  1  0
  5  4  2  0
  6  5  1  0
  7  9  1  0
  7  6  1  0
  7  8  1  1
  9 10  2  0
 11 12  2  0
 11  5  1  0
 12  2  1  0
 13 14  1  0
 13  9  1  0
 14 15  1  6
 15 16  1  0
 16 17  2  0
 18 17  1  0
 19 18  1  0
 20 19  2  0
 20 16  1  0
 21 14  1  0
 22 21  2  0
 24 23  1  6
 24 25  1  0
 24 26  1  0
 26 27  1  6
 27 21  1  0
 28 26  1  0
 28 30  1  0
 29 28  2  0
M  END
$$$$
