YHV.pdb
     RDKit          3D

 30 31  0  0  1  0  0  0  0  0999 V2000
   10.4670  -16.4750   30.2866 O   0  0  0  0  0  0  0  0  0  0  0  0
   11.0045  -16.4394   28.9986 C   0  0  0  0  0  0  0  0  0  0  0  0
   11.4457  -17.6044   28.4268 C   0  0  0  0  0  0  0  0  0  0  0  0
   11.9920  -17.6170   27.1377 C   0  0  0  0  0  0  0  0  0  0  0  0
   12.1014  -16.4536   26.4062 C   0  0  0  0  0  0  0  0  0  0  0  0
   12.6810  -16.4462   25.0417 C   0  0  0  0  0  0  0  0  0  0  0  0
   11.7616  -16.9773   23.9922 C   0  0  2  0  0  0  0  0  0  0  0  0
   12.5762  -17.4077   22.8686 N   0  0  0  0  0  0  0  0  0  0  0  0
   10.6776  -16.0819   23.5899 C   0  0  0  0  0  0  0  0  0  0  0  0
   10.9033  -14.8973   23.2409 O   0  0  0  0  0  0  0  0  0  0  0  0
   11.6507  -15.2830   26.9983 C   0  0  0  0  0  0  0  0  0  0  0  0
   11.1126  -15.2730   28.2688 C   0  0  0  0  0  0  0  0  0  0  0  0
    9.2943  -16.4837   23.5642 N   0  0  0  0  0  0  0  0  0  0  0  0
    8.2437  -15.5090   23.3872 C   0  0  1  0  0  0  0  0  0  0  0  0
    7.1548  -16.0006   22.4669 C   0  0  0  0  0  0  0  0  0  0  0  0
    7.5932  -16.1200   21.0749 C   0  0  0  0  0  0  0  0  0  0  0  0
    8.2688  -15.1650   20.3560 C   0  0  0  0  0  0  0  0  0  0  0  0
    8.4771  -15.6823   19.1179 N   0  0  0  0  0  0  0  0  0  0  0  0
    7.9591  -16.9101   19.0483 C   0  0  0  0  0  0  0  0  0  0  0  0
    7.4176  -17.1691   20.2589 N   0  0  0  0  0  0  0  0  0  0  0  0
    7.7455  -15.0988   24.7004 C   0  0  0  0  0  0  0  0  0  0  0  0
    7.5887  -15.9309   25.6293 O   0  0  0  0  0  0  0  0  0  0  0  0
    5.8382  -11.3068   25.3815 C   0  0  0  0  0  0  0  0  0  0  0  0
    6.8663  -11.8641   26.3349 C   0  0  2  0  0  0  0  0  0  0  0  0
    8.2336  -11.2947   26.1381 C   0  0  0  0  0  0  0  0  0  0  0  0
    6.8832  -13.3769   26.2511 C   0  0  2  0  0  0  0  0  0  0  0  0
    7.4187  -13.7395   24.9770 N   0  0  0  0  0  0  0  0  0  0  0  0
    5.5465  -13.9587   26.4266 C   0  0  0  0  0  0  0  0  0  0  0  0
    4.9639  -14.5107   25.4680 O   0  0  0  0  0  0  0  0  0  0  0  0
    4.9233  -13.8999   27.6528 O   0  0  0  0  0  0  0  0  0  0  0  0
  2  1  1  0
  2  3  2  0
  4  3  1  0
  5  4  2  0
  6  5  1  0
  7  9  1  0
  7  6  1  0
  7  8  1  6
  9 10  2  0
 11 12  2  0
 11  5  1  0
 12  2  1  0
 13 14  1  0
 13  9  1  0
 14 15  1  6
 15 16  1  0
 16 17  2  0
 18 17  1  0
 19 18  1  0
 20 19  2  0
 20 16  1  0
 21 14  1  0
 22 21  2  0
 24 23  1  6
 24 25  1  0
 24 26  1  0
 26 27  1  6
 27 21  1  0
 28 26  1  0
 28 30  1  0
 29 28  2  0
M  END
$$$$
