YHV.pdb
     RDKit          3D

 30 31  0  0  1  0  0  0  0  0999 V2000
   11.1522  -22.4106   31.0398 O   0  0  0  0  0  0  0  0  0  0  0  0
   11.0134  -21.3431   30.1510 C   0  0  0  0  0  0  0  0  0  0  0  0
   11.8770  -20.2825   30.2413 C   0  0  0  0  0  0  0  0  0  0  0  0
   11.7759  -19.1900   29.3715 C   0  0  0  0  0  0  0  0  0  0  0  0
   10.8013  -19.1515   28.3972 C   0  0  0  0  0  0  0  0  0  0  0  0
   10.6757  -18.0016   27.4699 C   0  0  0  0  0  0  0  0  0  0  0  0
   11.1595  -18.2858   26.0864 C   0  0  2  0  0  0  0  0  0  0  0  0
   12.5873  -18.5444   26.1627 N   0  0  0  0  0  0  0  0  0  0  0  0
   10.8238  -17.2789   25.0804 C   0  0  0  0  0  0  0  0  0  0  0  0
   11.6045  -16.3316   24.8172 O   0  0  0  0  0  0  0  0  0  0  0  0
    9.9351  -20.2320   28.3182 C   0  0  0  0  0  0  0  0  0  0  0  0
   10.0367  -21.3076   29.1765 C   0  0  0  0  0  0  0  0  0  0  0  0
    9.5947  -17.2973   24.3290 N   0  0  0  0  0  0  0  0  0  0  0  0
    9.0954  -16.0986   23.6974 C   0  0  1  0  0  0  0  0  0  0  0  0
    8.4849  -16.3741   22.3463 C   0  0  0  0  0  0  0  0  0  0  0  0
    7.9793  -15.1666   21.6902 C   0  0  0  0  0  0  0  0  0  0  0  0
    6.6730  -14.7445   21.6709 C   0  0  0  0  0  0  0  0  0  0  0  0
    6.6461  -13.5891   20.9580 N   0  0  0  0  0  0  0  0  0  0  0  0
    7.8770  -13.2867   20.5411 C   0  0  0  0  0  0  0  0  0  0  0  0
    8.6896  -14.2648   20.9977 N   0  0  0  0  0  0  0  0  0  0  0  0
    8.1795  -15.4203   24.6151 C   0  0  0  0  0  0  0  0  0  0  0  0
    7.4187  -16.0684   25.3774 O   0  0  0  0  0  0  0  0  0  0  0  0
    9.1118  -11.6472   25.9132 C   0  0  0  0  0  0  0  0  0  0  0  0
    7.6432  -11.8788   25.6563 C   0  0  2  0  0  0  0  0  0  0  0  0
    6.7482  -11.1156   26.5777 C   0  0  0  0  0  0  0  0  0  0  0  0
    7.3385  -13.3626   25.6977 C   0  0  2  0  0  0  0  0  0  0  0  0
    8.1147  -13.9981   24.6802 N   0  0  0  0  0  0  0  0  0  0  0  0
    5.9109  -13.6430   25.4995 C   0  0  0  0  0  0  0  0  0  0  0  0
    5.5084  -14.1660   24.4377 O   0  0  0  0  0  0  0  0  0  0  0  0
    5.0024  -13.3305   26.4856 O   0  0  0  0  0  0  0  0  0  0  0  0
  2  1  1  0
  2  3  2  0
  4  3  1  0
  5  4  2  0
  6  5  1  0
  7  9  1  0
  7  6  1  0
  7  8  1  1
  9 10  2  0
 11 12  2  0
 11  5  1  0
 12  2  1  0
 13 14  1  0
 13  9  1  0
 14 15  1  6
 15 16  1  0
 16 17  2  0
 18 17  1  0
 19 18  1  0
 20 19  2  0
 20 16  1  0
 21 14  1  0
 22 21  2  0
 24 23  1  1
 24 25  1  0
 24 26  1  0
 26 27  1  6
 27 21  1  0
 28 26  1  0
 28 30  1  0
 29 28  2  0
M  END
$$$$
