YHV.pdb
     RDKit          3D

 30 31  0  0  1  0  0  0  0  0999 V2000
    7.5796  -12.8743   16.1029 O   0  0  0  0  0  0  0  0  0  0  0  0
    7.6258  -13.2907   17.4345 C   0  0  0  0  0  0  0  0  0  0  0  0
    6.9416  -14.4191   17.8053 C   0  0  0  0  0  0  0  0  0  0  0  0
    6.9590  -14.8745   19.1292 C   0  0  0  0  0  0  0  0  0  0  0  0
    7.6674  -14.1976   20.0990 C   0  0  0  0  0  0  0  0  0  0  0  0
    7.6942  -14.6618   21.5068 C   0  0  0  0  0  0  0  0  0  0  0  0
    9.0686  -14.9080   22.0354 C   0  0  2  0  0  0  0  0  0  0  0  0
    9.8421  -15.5363   20.9781 N   0  0  0  0  0  0  0  0  0  0  0  0
    9.1378  -15.6453   23.2964 C   0  0  0  0  0  0  0  0  0  0  0  0
    8.3392  -15.4104   24.2361 O   0  0  0  0  0  0  0  0  0  0  0  0
    8.3546  -13.0578   19.7085 C   0  0  0  0  0  0  0  0  0  0  0  0
    8.3361  -12.6109   18.4032 C   0  0  0  0  0  0  0  0  0  0  0  0
   10.1096  -16.6779   23.5513 N   0  0  0  0  0  0  0  0  0  0  0  0
   10.0498  -17.4689   24.7579 C   0  0  1  0  0  0  0  0  0  0  0  0
   10.6111  -18.8550   24.5630 C   0  0  0  0  0  0  0  0  0  0  0  0
    9.9057  -19.6178   23.5312 C   0  0  0  0  0  0  0  0  0  0  0  0
    8.5449  -19.7660   23.4247 C   0  0  0  0  0  0  0  0  0  0  0  0
    8.3205  -20.5438   22.3345 N   0  0  0  0  0  0  0  0  0  0  0  0
    9.4829  -20.8772   21.7704 C   0  0  0  0  0  0  0  0  0  0  0  0
   10.4519  -20.3016   22.5156 N   0  0  0  0  0  0  0  0  0  0  0  0
   10.6972  -16.7336   25.8447 C   0  0  0  0  0  0  0  0  0  0  0  0
   11.8441  -16.2380   25.7065 O   0  0  0  0  0  0  0  0  0  0  0  0
    8.5471  -15.1283   29.0779 C   0  0  0  0  0  0  0  0  0  0  0  0
    9.8828  -14.6676   28.5485 C   0  0  2  0  0  0  0  0  0  0  0  0
    9.7742  -13.6917   27.4223 C   0  0  0  0  0  0  0  0  0  0  0  0
   10.7260  -15.8649   28.1594 C   0  0  2  0  0  0  0  0  0  0  0  0
   10.0522  -16.5507   27.1023 N   0  0  0  0  0  0  0  0  0  0  0  0
   10.9577  -16.7730   29.2897 C   0  0  0  0  0  0  0  0  0  0  0  0
   10.4125  -17.8976   29.3223 O   0  0  0  0  0  0  0  0  0  0  0  0
   11.7802  -16.3905   30.3254 O   0  0  0  0  0  0  0  0  0  0  0  0
  2  1  1  0
  2  3  2  0
  4  3  1  0
  5  4  2  0
  6  5  1  0
  7  9  1  0
  7  6  1  0
  7  8  1  6
  9 10  2  0
 11 12  2  0
 11  5  1  0
 12  2  1  0
 13 14  1  0
 13  9  1  0
 14 15  1  6
 15 16  1  0
 16 17  2  0
 18 17  1  0
 19 18  1  0
 20 19  2  0
 20 16  1  0
 21 14  1  0
 22 21  2  0
 24 23  1  6
 24 25  1  0
 24 26  1  0
 26 27  1  6
 27 21  1  0
 28 26  1  0
 28 30  1  0
 29 28  2  0
M  END
$$$$
