YHV.pdb
     RDKit          3D

 30 31  0  0  1  0  0  0  0  0999 V2000
   15.8301  -22.8973   19.9613 O   0  0  0  0  0  0  0  0  0  0  0  0
   15.3772  -21.7617   20.6352 C   0  0  0  0  0  0  0  0  0  0  0  0
   14.0604  -21.6878   21.0088 C   0  0  0  0  0  0  0  0  0  0  0  0
   13.5615  -20.5687   21.6863 C   0  0  0  0  0  0  0  0  0  0  0  0
   14.3842  -19.5070   21.9968 C   0  0  0  0  0  0  0  0  0  0  0  0
   13.8733  -18.3116   22.7097 C   0  0  0  0  0  0  0  0  0  0  0  0
   12.9658  -17.4592   21.8858 C   0  0  2  0  0  0  0  0  0  0  0  0
   13.7840  -16.7550   20.9133 N   0  0  0  0  0  0  0  0  0  0  0  0
   12.0878  -16.5622   22.6361 C   0  0  0  0  0  0  0  0  0  0  0  0
   12.4575  -15.4081   22.9637 O   0  0  0  0  0  0  0  0  0  0  0  0
   15.7139  -19.5965   21.6123 C   0  0  0  0  0  0  0  0  0  0  0  0
   16.2034  -20.7003   20.9448 C   0  0  0  0  0  0  0  0  0  0  0  0
   10.7567  -16.9279   23.0486 N   0  0  0  0  0  0  0  0  0  0  0  0
    9.9355  -16.0077   23.7997 C   0  0  1  0  0  0  0  0  0  0  0  0
    8.4759  -16.1138   23.4358 C   0  0  0  0  0  0  0  0  0  0  0  0
    8.1173  -15.3057   22.2686 C   0  0  0  0  0  0  0  0  0  0  0  0
    8.9705  -14.5120   21.5426 C   0  0  0  0  0  0  0  0  0  0  0  0
    8.2316  -13.9454   20.5542 N   0  0  0  0  0  0  0  0  0  0  0  0
    6.9656  -14.3574   20.6440 C   0  0  0  0  0  0  0  0  0  0  0  0
    6.9069  -15.1944   21.7030 N   0  0  0  0  0  0  0  0  0  0  0  0
   10.1877  -16.1980   25.2284 C   0  0  0  0  0  0  0  0  0  0  0  0
   10.7246  -17.2479   25.6634 O   0  0  0  0  0  0  0  0  0  0  0  0
   10.0791  -12.9386   27.7007 C   0  0  0  0  0  0  0  0  0  0  0  0
    9.5707  -14.2114   28.3316 C   0  0  2  0  0  0  0  0  0  0  0  0
    9.8758  -14.3178   29.7904 C   0  0  0  0  0  0  0  0  0  0  0  0
   10.0963  -15.4117   27.5707 C   0  0  2  0  0  0  0  0  0  0  0  0
    9.8342  -15.1998   26.1822 N   0  0  0  0  0  0  0  0  0  0  0  0
    9.4817  -16.6675   28.0196 C   0  0  0  0  0  0  0  0  0  0  0  0
    8.4263  -17.0814   27.4924 O   0  0  0  0  0  0  0  0  0  0  0  0
   10.0658  -17.4003   29.0282 O   0  0  0  0  0  0  0  0  0  0  0  0
  2  1  1  0
  2  3  2  0
  4  3  1  0
  5  4  2  0
  6  5  1  0
  7  9  1  0
  7  6  1  0
  7  8  1  6
  9 10  2  0
 11 12  2  0
 11  5  1  0
 12  2  1  0
 13 14  1  0
 13  9  1  0
 14 15  1  1
 15 16  1  0
 16 17  2  0
 18 17  1  0
 19 18  1  0
 20 19  2  0
 20 16  1  0
 21 14  1  0
 22 21  2  0
 24 23  1  6
 24 25  1  0
 24 26  1  0
 26 27  1  6
 27 21  1  0
 28 26  1  0
 28 30  1  0
 29 28  2  0
M  END
$$$$
