YHV.pdb
     RDKit          3D

 30 31  0  0  1  0  0  0  0  0999 V2000
    9.9045  -12.1000   19.1346 O   0  0  0  0  0  0  0  0  0  0  0  0
    8.9168  -12.9907   19.5587 C   0  0  0  0  0  0  0  0  0  0  0  0
    8.1529  -12.6700   20.6506 C   0  0  0  0  0  0  0  0  0  0  0  0
    7.1510  -13.5324   21.1121 C   0  0  0  0  0  0  0  0  0  0  0  0
    6.9050  -14.7317   20.4782 C   0  0  0  0  0  0  0  0  0  0  0  0
    5.8517  -15.6598   20.9546 C   0  0  0  0  0  0  0  0  0  0  0  0
    6.3574  -17.0218   21.2986 C   0  0  2  0  0  0  0  0  0  0  0  0
    5.2428  -17.9473   21.1882 N   0  0  0  0  0  0  0  0  0  0  0  0
    7.0544  -17.1320   22.5794 C   0  0  0  0  0  0  0  0  0  0  0  0
    6.4262  -17.1557   23.6661 O   0  0  0  0  0  0  0  0  0  0  0  0
    7.6862  -15.0420   19.3748 C   0  0  0  0  0  0  0  0  0  0  0  0
    8.6729  -14.1907   18.9218 C   0  0  0  0  0  0  0  0  0  0  0  0
    8.4882  -17.2202   22.6895 N   0  0  0  0  0  0  0  0  0  0  0  0
    9.1240  -17.3679   23.9775 C   0  0  1  0  0  0  0  0  0  0  0  0
   10.4441  -18.0912   23.8857 C   0  0  0  0  0  0  0  0  0  0  0  0
   11.0803  -18.2880   25.1898 C   0  0  0  0  0  0  0  0  0  0  0  0
   12.2712  -17.7405   25.5984 C   0  0  0  0  0  0  0  0  0  0  0  0
   12.4883  -18.1782   26.8654 N   0  0  0  0  0  0  0  0  0  0  0  0
   11.4837  -18.9683   27.2488 C   0  0  0  0  0  0  0  0  0  0  0  0
   10.6227  -19.0287   26.2092 N   0  0  0  0  0  0  0  0  0  0  0  0
    9.2309  -16.0537   24.6118 C   0  0  0  0  0  0  0  0  0  0  0  0
    9.7692  -15.0840   24.0203 O   0  0  0  0  0  0  0  0  0  0  0  0
    7.0068  -13.5655   25.5190 C   0  0  0  0  0  0  0  0  0  0  0  0
    7.6705  -13.8932   26.8338 C   0  0  2  0  0  0  0  0  0  0  0  0
    7.8349  -12.7096   27.7309 C   0  0  0  0  0  0  0  0  0  0  0  0
    8.9962  -14.5839   26.5861 C   0  0  2  0  0  0  0  0  0  0  0  0
    8.7286  -15.8222   25.9253 N   0  0  0  0  0  0  0  0  0  0  0  0
    9.7411  -14.8201   27.8293 C   0  0  0  0  0  0  0  0  0  0  0  0
    9.8022  -15.9665   28.3244 O   0  0  0  0  0  0  0  0  0  0  0  0
   10.3798  -13.7765   28.4605 O   0  0  0  0  0  0  0  0  0  0  0  0
  2  1  1  0
  2  3  2  0
  4  3  1  0
  5  4  2  0
  6  5  1  0
  7  9  1  0
  7  6  1  0
  7  8  1  1
  9 10  2  0
 11 12  2  0
 11  5  1  0
 12  2  1  0
 13 14  1  0
 13  9  1  0
 14 15  1  6
 15 16  1  0
 16 17  2  0
 18 17  1  0
 19 18  1  0
 20 19  2  0
 20 16  1  0
 21 14  1  0
 22 21  2  0
 24 23  1  6
 24 25  1  0
 24 26  1  0
 26 27  1  1
 27 21  1  0
 28 26  1  0
 28 30  1  0
 29 28  2  0
M  END
$$$$
