VIW.pdb
     RDKit          3D

 30 31  0  0  1  0  0  0  0  0999 V2000
    8.1206  -20.9871   20.3847 C   0  0  0  0  0  0  0  0  0  0  0  0
    8.6955  -19.7011   20.9037 C   0  0  1  0  0  0  0  0  0  0  0  0
   10.0073  -19.9881   21.5869 C   0  0  0  0  0  0  0  0  0  0  0  0
    8.8458  -18.6641   19.8037 C   0  0  2  0  0  0  0  0  0  0  0  0
    9.6515  -19.1637   18.7270 N   0  0  0  0  0  0  0  0  0  0  0  0
    9.2983  -17.3660   20.3286 C   0  0  0  0  0  0  0  0  0  0  0  0
   10.4727  -17.0015   20.0763 O   0  0  0  0  0  0  0  0  0  0  0  0
    6.6477  -12.9213   19.5140 C   0  0  0  0  0  0  0  0  0  0  0  0
    7.7631  -13.8455   19.8205 C   0  0  0  0  0  0  0  0  0  0  0  0
    7.9750  -14.1217   21.3118 C   0  0  2  0  0  0  0  0  0  0  0  0
    8.1740  -12.8369   22.0367 C   0  0  0  0  0  0  0  0  0  0  0  0
    9.0341  -15.1672   21.5238 C   0  0  2  0  0  0  0  0  0  0  0  0
    8.5080  -16.4859   21.1034 N   0  0  0  0  0  0  0  0  0  0  0  0
    9.4775  -15.3213   22.9286 C   0  0  0  0  0  0  0  0  0  0  0  0
   10.1661  -14.4236   23.4826 O   0  0  0  0  0  0  0  0  0  0  0  0
    9.1971  -16.4237   23.7665 N   0  0  0  0  0  0  0  0  0  0  0  0
    9.6438  -16.5648   25.1279 C   0  0  1  0  0  0  0  0  0  0  0  0
    8.5853  -16.7336   26.1273 C   0  0  0  0  0  0  0  0  0  0  0  0
    7.5290  -15.7060   25.9665 C   0  0  0  0  0  0  0  0  0  0  0  0
    6.2251  -15.9364   25.5245 C   0  0  0  0  0  0  0  0  0  0  0  0
    5.5428  -14.7906   25.5454 N   0  0  0  0  0  0  0  0  0  0  0  0
    6.3459  -13.7888   25.9880 C   0  0  0  0  0  0  0  0  0  0  0  0
    6.1593  -12.4519   26.1837 C   0  0  0  0  0  0  0  0  0  0  0  0
    7.1448  -11.5994   26.6362 C   0  0  0  0  0  0  0  0  0  0  0  0
    8.3721  -12.1781   26.8913 C   0  0  0  0  0  0  0  0  0  0  0  0
    8.5937  -13.5270   26.7040 C   0  0  0  0  0  0  0  0  0  0  0  0
    7.5754  -14.3604   26.2469 C   0  0  0  0  0  0  0  0  0  0  0  0
   10.7788  -17.4782   25.2001 C   0  0  0  0  0  0  0  0  0  0  0  0
   11.2244  -18.0706   24.1730 O   0  0  0  0  0  0  0  0  0  0  0  0
   11.4735  -17.7765   26.3824 O   0  0  0  0  0  0  0  0  0  0  0  0
  2  1  1  6
  3  2  1  0
  4  2  1  0
  4  5  1  6
  6  4  1  0
  6  7  2  0
  9 10  1  0
  9  8  1  0
 10 12  1  0
 10 11  1  1
 12 13  1  1
 13  6  1  0
 14 12  1  0
 14 16  1  0
 15 14  2  0
 17 16  1  0
 17 28  1  0
 18 19  1  0
 17 18  1  1
 19 27  1  0
 20 21  1  0
 20 19  2  0
 21 22  1  0
 22 27  2  0
 22 23  1  0
 23 24  2  0
 24 25  1  0
 26 25  2  0
 27 26  1  0
 28 29  2  0
 28 30  1  0
M  END
$$$$
