VIW.pdb
     RDKit          3D

 30 31  0  0  1  0  0  0  0  0999 V2000
    8.3203  -13.0463   21.9204 C   0  0  0  0  0  0  0  0  0  0  0  0
    7.6230  -13.7703   20.8054 C   0  0  1  0  0  0  0  0  0  0  0  0
    7.1873  -12.7709   19.7655 C   0  0  0  0  0  0  0  0  0  0  0  0
    8.4936  -14.8634   20.2093 C   0  0  2  0  0  0  0  0  0  0  0  0
    7.8853  -15.4309   19.0407 N   0  0  0  0  0  0  0  0  0  0  0  0
    8.8892  -15.8621   21.2150 C   0  0  0  0  0  0  0  0  0  0  0  0
    8.0748  -16.7750   21.4961 O   0  0  0  0  0  0  0  0  0  0  0  0
   13.1004  -18.5986   20.4760 C   0  0  0  0  0  0  0  0  0  0  0  0
   11.7982  -18.0991   20.9729 C   0  0  0  0  0  0  0  0  0  0  0  0
   11.8273  -17.5427   22.3993 C   0  0  2  0  0  0  0  0  0  0  0  0
   12.4189  -18.5521   23.3196 C   0  0  0  0  0  0  0  0  0  0  0  0
   10.4832  -16.9991   22.7961 C   0  0  2  0  0  0  0  0  0  0  0  0
   10.1271  -15.8767   21.8983 N   0  0  0  0  0  0  0  0  0  0  0  0
   10.4146  -16.4689   24.1774 C   0  0  0  0  0  0  0  0  0  0  0  0
   10.9961  -15.3924   24.4775 O   0  0  0  0  0  0  0  0  0  0  0  0
    9.7289  -17.0672   25.2581 N   0  0  0  0  0  0  0  0  0  0  0  0
    9.7709  -16.6085   26.6223 C   0  0  1  0  0  0  0  0  0  0  0  0
    8.4750  -16.5224   27.3014 C   0  0  0  0  0  0  0  0  0  0  0  0
    7.5225  -15.6865   26.5323 C   0  0  0  0  0  0  0  0  0  0  0  0
    6.5029  -16.1601   25.7049 C   0  0  0  0  0  0  0  0  0  0  0  0
    5.8193  -15.1269   25.2107 N   0  0  0  0  0  0  0  0  0  0  0  0
    6.3459  -13.9655   25.6780 C   0  0  0  0  0  0  0  0  0  0  0  0
    6.0431  -12.6503   25.4810 C   0  0  0  0  0  0  0  0  0  0  0  0
    6.7398  -11.6093   26.0586 C   0  0  0  0  0  0  0  0  0  0  0  0
    7.7947  -11.9687   26.8736 C   0  0  0  0  0  0  0  0  0  0  0  0
    8.1270  -13.2896   27.0938 C   0  0  0  0  0  0  0  0  0  0  0  0
    7.4010  -14.3170   26.4957 C   0  0  0  0  0  0  0  0  0  0  0  0
   10.8592  -17.2572   27.3451 C   0  0  0  0  0  0  0  0  0  0  0  0
   11.4385  -18.2887   26.8927 O   0  0  0  0  0  0  0  0  0  0  0  0
   11.3614  -16.8093   28.5766 O   0  0  0  0  0  0  0  0  0  0  0  0
  2  1  1  1
  3  2  1  0
  4  2  1  0
  4  5  1  6
  6  4  1  0
  6  7  2  0
  9 10  1  0
  9  8  1  0
 10 12  1  0
 10 11  1  1
 12 13  1  6
 13  6  1  0
 14 12  1  0
 14 16  1  0
 15 14  2  0
 17 16  1  0
 17 28  1  0
 18 19  1  0
 17 18  1  1
 19 27  1  0
 20 21  1  0
 20 19  2  0
 21 22  1  0
 22 27  2  0
 22 23  1  0
 23 24  2  0
 24 25  1  0
 26 25  2  0
 27 26  1  0
 28 29  2  0
 28 30  1  0
M  END
$$$$
