VIW.pdb
     RDKit          3D

 30 31  0  0  1  0  0  0  0  0999 V2000
    9.3195  -19.9955   22.0379 C   0  0  0  0  0  0  0  0  0  0  0  0
    9.7013  -19.9426   20.5870 C   0  0  1  0  0  0  0  0  0  0  0  0
    9.3668  -21.2620   19.9410 C   0  0  0  0  0  0  0  0  0  0  0  0
    9.0394  -18.7781   19.8702 C   0  0  2  0  0  0  0  0  0  0  0  0
    9.2370  -18.8628   18.4518 N   0  0  0  0  0  0  0  0  0  0  0  0
    9.4319  -17.4821   20.4460 C   0  0  0  0  0  0  0  0  0  0  0  0
   10.5696  -17.0301   20.1682 O   0  0  0  0  0  0  0  0  0  0  0  0
    6.5660  -13.2335   19.7124 C   0  0  0  0  0  0  0  0  0  0  0  0
    7.7372  -14.0837   20.0249 C   0  0  0  0  0  0  0  0  0  0  0  0
    7.9416  -14.3702   21.5154 C   0  0  2  0  0  0  0  0  0  0  0  0
    8.0462  -13.0873   22.2631 C   0  0  0  0  0  0  0  0  0  0  0  0
    9.0616  -15.3496   21.7300 C   0  0  2  0  0  0  0  0  0  0  0  0
    8.6216  -16.6955   21.2970 N   0  0  0  0  0  0  0  0  0  0  0  0
    9.5023  -15.4852   23.1376 C   0  0  0  0  0  0  0  0  0  0  0  0
   10.2180  -14.5962   23.6708 O   0  0  0  0  0  0  0  0  0  0  0  0
    9.1904  -16.5597   24.0002 N   0  0  0  0  0  0  0  0  0  0  0  0
    9.6028  -16.6650   25.3756 C   0  0  1  0  0  0  0  0  0  0  0  0
    8.5204  -16.6553   26.3637 C   0  0  0  0  0  0  0  0  0  0  0  0
    7.5292  -15.5955   26.0608 C   0  0  0  0  0  0  0  0  0  0  0  0
    6.2430  -15.7991   25.5577 C   0  0  0  0  0  0  0  0  0  0  0  0
    5.6200  -14.6247   25.4498 N   0  0  0  0  0  0  0  0  0  0  0  0
    6.4462  -13.6296   25.8642 C   0  0  0  0  0  0  0  0  0  0  0  0
    6.3172  -12.2743   25.9465 C   0  0  0  0  0  0  0  0  0  0  0  0
    7.3170  -11.4356   26.3934 C   0  0  0  0  0  0  0  0  0  0  0  0
    8.4962  -12.0489   26.7668 C   0  0  0  0  0  0  0  0  0  0  0  0
    8.6591  -13.4172   26.6959 C   0  0  0  0  0  0  0  0  0  0  0  0
    7.6278  -14.2356   26.2411 C   0  0  0  0  0  0  0  0  0  0  0  0
   10.6292  -17.6909   25.5231 C   0  0  0  0  0  0  0  0  0  0  0  0
   11.0035  -18.4050   24.5462 O   0  0  0  0  0  0  0  0  0  0  0  0
   11.2892  -17.9746   26.7287 O   0  0  0  0  0  0  0  0  0  0  0  0
  2  1  1  1
  3  2  1  0
  4  2  1  0
  4  5  1  6
  6  4  1  0
  6  7  2  0
  9 10  1  0
  9  8  1  0
 10 12  1  0
 10 11  1  1
 12 13  1  1
 13  6  1  0
 14 12  1  0
 14 16  1  0
 15 14  2  0
 17 16  1  0
 17 28  1  0
 18 19  1  0
 17 18  1  1
 19 27  1  0
 20 21  1  0
 20 19  2  0
 21 22  1  0
 22 27  2  0
 22 23  1  0
 23 24  2  0
 24 25  1  0
 26 25  2  0
 27 26  1  0
 28 29  2  0
 28 30  1  0
M  END
$$$$
