VIW.pdb
     RDKit          3D

 30 31  0  0  1  0  0  0  0  0999 V2000
    7.7301  -19.5422   24.9949 C   0  0  0  0  0  0  0  0  0  0  0  0
    6.7608  -19.6690   23.8555 C   0  0  1  0  0  0  0  0  0  0  0  0
    5.9748  -20.9442   24.0167 C   0  0  0  0  0  0  0  0  0  0  0  0
    5.8533  -18.4554   23.7474 C   0  0  2  0  0  0  0  0  0  0  0  0
    4.8140  -18.6698   22.7821 N   0  0  0  0  0  0  0  0  0  0  0  0
    6.6154  -17.2153   23.5309 C   0  0  0  0  0  0  0  0  0  0  0  0
    6.9983  -16.9507   22.3651 O   0  0  0  0  0  0  0  0  0  0  0  0
    5.7818  -12.8626   26.5891 C   0  0  0  0  0  0  0  0  0  0  0  0
    6.1549  -13.5858   25.3522 C   0  0  0  0  0  0  0  0  0  0  0  0
    7.6065  -14.0716   25.3070 C   0  0  2  0  0  0  0  0  0  0  0  0
    8.5255  -12.9019   25.2527 C   0  0  0  0  0  0  0  0  0  0  0  0
    7.7975  -15.1082   24.2353 C   0  0  2  0  0  0  0  0  0  0  0  0
    6.9555  -16.2870   24.5419 N   0  0  0  0  0  0  0  0  0  0  0  0
    9.1852  -15.6081   24.0998 C   0  0  0  0  0  0  0  0  0  0  0  0
    9.9965  -15.0368   23.3238 O   0  0  0  0  0  0  0  0  0  0  0  0
    9.7340  -16.7157   24.7840 N   0  0  0  0  0  0  0  0  0  0  0  0
   11.1252  -17.0863   24.7796 C   0  0  1  0  0  0  0  0  0  0  0  0
   11.9753  -16.3664   25.7320 C   0  0  0  0  0  0  0  0  0  0  0  0
   11.4680  -16.5112   27.1173 C   0  0  0  0  0  0  0  0  0  0  0  0
   11.4180  -17.6987   27.8495 C   0  0  0  0  0  0  0  0  0  0  0  0
   10.9440  -17.4453   29.0701 N   0  0  0  0  0  0  0  0  0  0  0  0
   10.6699  -16.1203   29.1877 C   0  0  0  0  0  0  0  0  0  0  0  0
   10.1667  -15.3507   30.1950 C   0  0  0  0  0  0  0  0  0  0  0  0
    9.9505  -13.9927   30.0862 C   0  0  0  0  0  0  0  0  0  0  0  0
   10.2767  -13.4257   28.8704 C   0  0  0  0  0  0  0  0  0  0  0  0
   10.7878  -14.1760   27.8313 C   0  0  0  0  0  0  0  0  0  0  0  0
   10.9953  -15.5459   27.9754 C   0  0  0  0  0  0  0  0  0  0  0  0
   11.2663  -18.5371   24.7264 C   0  0  0  0  0  0  0  0  0  0  0  0
   12.4003  -19.0939   24.6354 O   0  0  0  0  0  0  0  0  0  0  0  0
   10.1879  -19.4338   24.7761 O   0  0  0  0  0  0  0  0  0  0  0  0
  2  1  1  1
  3  2  1  0
  4  2  1  0
  4  5  1  6
  6  4  1  0
  6  7  2  0
  9 10  1  0
  9  8  1  0
 10 12  1  0
 10 11  1  6
 12 13  1  1
 13  6  1  0
 14 12  1  0
 14 16  1  0
 15 14  2  0
 17 16  1  0
 17 28  1  0
 18 19  1  0
 17 18  1  1
 19 27  1  0
 20 21  1  0
 20 19  2  0
 21 22  1  0
 22 27  2  0
 22 23  1  0
 23 24  2  0
 24 25  1  0
 26 25  2  0
 27 26  1  0
 28 29  2  0
 28 30  1  0
M  END
$$$$
