VIW.pdb
     RDKit          3D

 30 31  0  0  1  0  0  0  0  0999 V2000
    8.4376  -20.6876   17.7325 C   0  0  0  0  0  0  0  0  0  0  0  0
    8.9186  -19.6133   18.6644 C   0  0  1  0  0  0  0  0  0  0  0  0
   10.0914  -20.1345   19.4538 C   0  0  0  0  0  0  0  0  0  0  0  0
    9.2609  -18.3326   17.9224 C   0  0  2  0  0  0  0  0  0  0  0  0
   10.2657  -18.5641   16.9251 N   0  0  0  0  0  0  0  0  0  0  0  0
    9.5842  -17.2318   18.8439 C   0  0  0  0  0  0  0  0  0  0  0  0
   10.7915  -17.0213   19.1154 O   0  0  0  0  0  0  0  0  0  0  0  0
    6.7341  -12.6715   19.3111 C   0  0  0  0  0  0  0  0  0  0  0  0
    7.8372  -13.6587   19.3410 C   0  0  0  0  0  0  0  0  0  0  0  0
    8.0214  -14.3732   20.6830 C   0  0  2  0  0  0  0  0  0  0  0  0
    8.2800  -13.3717   21.7534 C   0  0  0  0  0  0  0  0  0  0  0  0
    9.0233  -15.4882   20.5698 C   0  0  2  0  0  0  0  0  0  0  0  0
    8.6336  -16.3822   19.4555 N   0  0  0  0  0  0  0  0  0  0  0  0
    9.1345  -16.3433   21.7740 C   0  0  0  0  0  0  0  0  0  0  0  0
    8.4467  -17.3938   21.8766 O   0  0  0  0  0  0  0  0  0  0  0  0
    9.9752  -16.1014   22.8834 N   0  0  0  0  0  0  0  0  0  0  0  0
    9.5300  -15.6653   24.1813 C   0  0  1  0  0  0  0  0  0  0  0  0
    8.9206  -14.3332   24.2270 C   0  0  0  0  0  0  0  0  0  0  0  0
    8.4189  -14.0209   25.5865 C   0  0  0  0  0  0  0  0  0  0  0  0
    7.0774  -13.9293   25.9616 C   0  0  0  0  0  0  0  0  0  0  0  0
    7.0007  -13.6759   27.2688 N   0  0  0  0  0  0  0  0  0  0  0  0
    8.2512  -13.5919   27.7919 C   0  0  0  0  0  0  0  0  0  0  0  0
    8.7311  -13.3438   29.0443 C   0  0  0  0  0  0  0  0  0  0  0  0
   10.0745  -13.2876   29.3523 C   0  0  0  0  0  0  0  0  0  0  0  0
   10.9435  -13.5006   28.3009 C   0  0  0  0  0  0  0  0  0  0  0  0
   10.4907  -13.7543   27.0225 C   0  0  0  0  0  0  0  0  0  0  0  0
    9.1264  -13.8056   26.7461 C   0  0  0  0  0  0  0  0  0  0  0  0
    8.8261  -16.7430   24.8675 C   0  0  0  0  0  0  0  0  0  0  0  0
    7.6859  -17.1428   24.4875 O   0  0  0  0  0  0  0  0  0  0  0  0
    9.3334  -17.4280   25.9824 O   0  0  0  0  0  0  0  0  0  0  0  0
  2  1  1  6
  3  2  1  0
  4  2  1  0
  4  5  1  6
  6  4  1  0
  6  7  2  0
  9 10  1  0
  9  8  1  0
 10 12  1  0
 10 11  1  1
 12 13  1  6
 13  6  1  0
 14 12  1  0
 14 16  1  0
 15 14  2  0
 17 16  1  0
 17 28  1  0
 18 19  1  0
 17 18  1  6
 19 27  1  0
 20 21  1  0
 20 19  2  0
 21 22  1  0
 22 27  2  0
 22 23  1  0
 23 24  2  0
 24 25  1  0
 26 25  2  0
 27 26  1  0
 28 29  2  0
 28 30  1  0
M  END
$$$$
