VIW.pdb
     RDKit          3D

 30 31  0  0  1  0  0  0  0  0999 V2000
    8.9738  -12.8578   20.6817 C   0  0  0  0  0  0  0  0  0  0  0  0
    7.9669  -13.4722   19.7530 C   0  0  1  0  0  0  0  0  0  0  0  0
    7.6497  -12.4931   18.6527 C   0  0  0  0  0  0  0  0  0  0  0  0
    8.4445  -14.8055   19.2031 C   0  0  2  0  0  0  0  0  0  0  0  0
    7.5902  -15.2665   18.1469 N   0  0  0  0  0  0  0  0  0  0  0  0
    8.6551  -15.7974   20.2695 C   0  0  0  0  0  0  0  0  0  0  0  0
    7.6550  -16.4139   20.7116 O   0  0  0  0  0  0  0  0  0  0  0  0
   11.5530  -19.8937   19.6358 C   0  0  0  0  0  0  0  0  0  0  0  0
   10.5651  -18.9446   20.1974 C   0  0  0  0  0  0  0  0  0  0  0  0
   11.0408  -18.1843   21.4387 C   0  0  2  0  0  0  0  0  0  0  0  0
   11.4861  -19.1511   22.4792 C   0  0  0  0  0  0  0  0  0  0  0  0
   10.0211  -17.1703   21.8765 C   0  0  2  0  0  0  0  0  0  0  0  0
    9.9077  -16.1158   20.8432 N   0  0  0  0  0  0  0  0  0  0  0  0
   10.3427  -16.4797   23.1467 C   0  0  0  0  0  0  0  0  0  0  0  0
   10.9955  -15.4023   23.1399 O   0  0  0  0  0  0  0  0  0  0  0  0
    9.9766  -16.9166   24.4395 N   0  0  0  0  0  0  0  0  0  0  0  0
   10.2509  -16.2080   25.6625 C   0  0  1  0  0  0  0  0  0  0  0  0
    9.8719  -14.7923   25.6726 C   0  0  0  0  0  0  0  0  0  0  0  0
    8.4076  -14.6317   25.8376 C   0  0  0  0  0  0  0  0  0  0  0  0
    7.4461  -15.6172   25.6070 C   0  0  0  0  0  0  0  0  0  0  0  0
    6.2382  -15.1326   25.8987 N   0  0  0  0  0  0  0  0  0  0  0  0
    6.3516  -13.8464   26.3198 C   0  0  0  0  0  0  0  0  0  0  0  0
    5.4486  -12.9054   26.7193 C   0  0  0  0  0  0  0  0  0  0  0  0
    5.7941  -11.6249   27.0982 C   0  0  0  0  0  0  0  0  0  0  0  0
    7.1412  -11.3257   27.0539 C   0  0  0  0  0  0  0  0  0  0  0  0
    8.0801  -12.2546   26.6547 C   0  0  0  0  0  0  0  0  0  0  0  0
    7.6970  -13.5402   26.2797 C   0  0  0  0  0  0  0  0  0  0  0  0
    9.8581  -17.0102   26.8156 C   0  0  0  0  0  0  0  0  0  0  0  0
   10.0942  -16.6334   28.0016 O   0  0  0  0  0  0  0  0  0  0  0  0
    9.1920  -18.2422   26.7257 O   0  0  0  0  0  0  0  0  0  0  0  0
  2  1  1  1
  3  2  1  0
  4  2  1  0
  4  5  1  6
  6  4  1  0
  6  7  2  0
  9 10  1  0
  9  8  1  0
 10 12  1  0
 10 11  1  1
 12 13  1  6
 13  6  1  0
 14 12  1  0
 14 16  1  0
 15 14  2  0
 17 16  1  0
 17 28  1  0
 18 19  1  0
 17 18  1  6
 19 27  1  0
 20 21  1  0
 20 19  2  0
 21 22  1  0
 22 27  2  0
 22 23  1  0
 23 24  2  0
 24 25  1  0
 26 25  2  0
 27 26  1  0
 28 29  2  0
 28 30  1  0
M  END
$$$$
