VIW.pdb
     RDKit          3D

 30 31  0  0  1  0  0  0  0  0999 V2000
    5.9481  -19.0680   22.7021 C   0  0  0  0  0  0  0  0  0  0  0  0
    6.2582  -19.6839   21.3686 C   0  0  1  0  0  0  0  0  0  0  0  0
    5.2217  -20.7321   21.0570 C   0  0  0  0  0  0  0  0  0  0  0  0
    6.3524  -18.6380   20.2708 C   0  0  2  0  0  0  0  0  0  0  0  0
    6.5947  -19.2467   18.9945 N   0  0  0  0  0  0  0  0  0  0  0  0
    7.3070  -17.5701   20.6080 C   0  0  0  0  0  0  0  0  0  0  0  0
    8.5331  -17.8355   20.5641 O   0  0  0  0  0  0  0  0  0  0  0  0
    6.5907  -12.6277   18.9591 C   0  0  0  0  0  0  0  0  0  0  0  0
    7.2468  -13.8678   19.4322 C   0  0  0  0  0  0  0  0  0  0  0  0
    7.5541  -13.8979   20.9322 C   0  0  2  0  0  0  0  0  0  0  0  0
    8.4779  -12.7829   21.2776 C   0  0  0  0  0  0  0  0  0  0  0  0
    7.9869  -15.2696   21.3689 C   0  0  2  0  0  0  0  0  0  0  0  0
    6.9505  -16.2539   20.9819 N   0  0  0  0  0  0  0  0  0  0  0  0
    8.1831  -15.4198   22.8293 C   0  0  0  0  0  0  0  0  0  0  0  0
    7.4371  -14.8083   23.6396 O   0  0  0  0  0  0  0  0  0  0  0  0
    9.1673  -16.2195   23.4520 N   0  0  0  0  0  0  0  0  0  0  0  0
    9.8340  -15.9009   24.6878 C   0  0  1  0  0  0  0  0  0  0  0  0
    9.0841  -16.2077   25.9091 C   0  0  0  0  0  0  0  0  0  0  0  0
    7.8745  -15.3582   26.0216 C   0  0  0  0  0  0  0  0  0  0  0  0
    6.5586  -15.7791   25.8220 C   0  0  0  0  0  0  0  0  0  0  0  0
    5.7294  -14.7594   26.0491 N   0  0  0  0  0  0  0  0  0  0  0  0
    6.4443  -13.6581   26.3964 C   0  0  0  0  0  0  0  0  0  0  0  0
    6.1012  -12.3766   26.7130 C   0  0  0  0  0  0  0  0  0  0  0  0
    7.0171  -11.3936   27.0252 C   0  0  0  0  0  0  0  0  0  0  0  0
    8.3435  -11.7762   27.0023 C   0  0  0  0  0  0  0  0  0  0  0  0
    8.7239  -13.0643   26.6864 C   0  0  0  0  0  0  0  0  0  0  0  0
    7.7725  -14.0335   26.3773 C   0  0  0  0  0  0  0  0  0  0  0  0
   11.2286  -16.3255   24.6389 C   0  0  0  0  0  0  0  0  0  0  0  0
   11.6957  -16.9687   23.6528 O   0  0  0  0  0  0  0  0  0  0  0  0
   12.1656  -16.0638   25.6504 O   0  0  0  0  0  0  0  0  0  0  0  0
  2  1  1  1
  3  2  1  0
  4  2  1  0
  4  5  1  6
  6  4  1  0
  6  7  2  0
  9 10  1  0
  9  8  1  0
 10 12  1  0
 10 11  1  6
 12 13  1  1
 13  6  1  0
 14 12  1  0
 14 16  1  0
 15 14  2  0
 17 16  1  0
 17 28  1  0
 18 19  1  0
 17 18  1  1
 19 27  1  0
 20 21  1  0
 20 19  2  0
 21 22  1  0
 22 27  2  0
 22 23  1  0
 23 24  2  0
 24 25  1  0
 26 25  2  0
 27 26  1  0
 28 29  2  0
 28 30  1  0
M  END
$$$$
