VIW.pdb
     RDKit          3D

 30 31  0  0  1  0  0  0  0  0999 V2000
    9.0133  -19.0220   20.7044 C   0  0  0  0  0  0  0  0  0  0  0  0
    9.3237  -18.1064   19.5559 C   0  0  1  0  0  0  0  0  0  0  0  0
    8.9272  -18.7800   18.2678 C   0  0  0  0  0  0  0  0  0  0  0  0
    8.6540  -16.7521   19.7152 C   0  0  2  0  0  0  0  0  0  0  0  0
    8.8793  -15.9241   18.5656 N   0  0  0  0  0  0  0  0  0  0  0  0
    9.0119  -16.1071   20.9885 C   0  0  0  0  0  0  0  0  0  0  0  0
   10.1337  -15.5507   21.0763 O   0  0  0  0  0  0  0  0  0  0  0  0
    6.7989  -13.4588   26.1322 C   0  0  0  0  0  0  0  0  0  0  0  0
    7.9031  -14.0778   25.3641 C   0  0  0  0  0  0  0  0  0  0  0  0
    7.4663  -14.8141   24.0944 C   0  0  2  0  0  0  0  0  0  0  0  0
    6.3609  -15.7576   24.4166 C   0  0  0  0  0  0  0  0  0  0  0  0
    8.6479  -15.4057   23.3778 C   0  0  2  0  0  0  0  0  0  0  0  0
    8.1847  -16.0631   22.1344 N   0  0  0  0  0  0  0  0  0  0  0  0
    9.3846  -16.4351   24.1468 C   0  0  0  0  0  0  0  0  0  0  0  0
    8.8282  -17.5230   24.4529 O   0  0  0  0  0  0  0  0  0  0  0  0
   10.7188  -16.3297   24.5995 N   0  0  0  0  0  0  0  0  0  0  0  0
   11.4367  -17.3562   25.3094 C   0  0  1  0  0  0  0  0  0  0  0  0
   12.3449  -16.8837   26.3582 C   0  0  0  0  0  0  0  0  0  0  0  0
   11.5952  -16.4679   27.5675 C   0  0  0  0  0  0  0  0  0  0  0  0
   11.1609  -17.3125   28.5906 C   0  0  0  0  0  0  0  0  0  0  0  0
   10.5593  -16.5886   29.5356 N   0  0  0  0  0  0  0  0  0  0  0  0
   10.5718  -15.2770   29.1833 C   0  0  0  0  0  0  0  0  0  0  0  0
   10.0926  -14.1422   29.7690 C   0  0  0  0  0  0  0  0  0  0  0  0
   10.2057  -12.8860   29.2106 C   0  0  0  0  0  0  0  0  0  0  0  0
   10.8474  -12.8244   27.9897 C   0  0  0  0  0  0  0  0  0  0  0  0
   11.3437  -13.9533   27.3707 C   0  0  0  0  0  0  0  0  0  0  0  0
   11.2138  -15.2071   27.9633 C   0  0  0  0  0  0  0  0  0  0  0  0
   10.5457  -18.4601   25.6485 C   0  0  0  0  0  0  0  0  0  0  0  0
    9.2894  -18.3093   25.7068 O   0  0  0  0  0  0  0  0  0  0  0  0
   10.9818  -19.7642   25.9292 O   0  0  0  0  0  0  0  0  0  0  0  0
  2  1  1  1
  3  2  1  0
  4  2  1  0
  4  5  1  6
  6  4  1  0
  6  7  2  0
  9 10  1  0
  9  8  1  0
 10 12  1  0
 10 11  1  1
 12 13  1  6
 13  6  1  0
 14 12  1  0
 14 16  1  0
 15 14  2  0
 17 16  1  0
 17 28  1  0
 18 19  1  0
 17 18  1  1
 19 27  1  0
 20 21  1  0
 20 19  2  0
 21 22  1  0
 22 27  2  0
 22 23  1  0
 23 24  2  0
 24 25  1  0
 26 25  2  0
 27 26  1  0
 28 29  2  0
 28 30  1  0
M  END
$$$$
