VIW.pdb
     RDKit          3D

 30 31  0  0  1  0  0  0  0  0999 V2000
   10.7088  -19.6853   20.7681 C   0  0  0  0  0  0  0  0  0  0  0  0
   11.6585  -19.0572   19.7896 C   0  0  1  0  0  0  0  0  0  0  0  0
   12.0470  -20.0802   18.7540 C   0  0  0  0  0  0  0  0  0  0  0  0
   11.0732  -17.8062   19.1568 C   0  0  2  0  0  0  0  0  0  0  0  0
   11.9193  -17.3106   18.1097 N   0  0  0  0  0  0  0  0  0  0  0  0
   10.7221  -16.7922   20.1638 C   0  0  0  0  0  0  0  0  0  0  0  0
   11.6511  -16.1296   20.6867 O   0  0  0  0  0  0  0  0  0  0  0  0
    6.7685  -13.4073   19.4199 C   0  0  0  0  0  0  0  0  0  0  0  0
    8.0216  -14.0186   19.9182 C   0  0  0  0  0  0  0  0  0  0  0  0
    7.8979  -14.7184   21.2748 C   0  0  2  0  0  0  0  0  0  0  0  0
    7.4125  -13.7505   22.2962 C   0  0  0  0  0  0  0  0  0  0  0  0
    9.1595  -15.4598   21.6186 C   0  0  2  0  0  0  0  0  0  0  0  0
    9.4074  -16.5008   20.5951 N   0  0  0  0  0  0  0  0  0  0  0  0
    9.1303  -16.1557   22.9258 C   0  0  0  0  0  0  0  0  0  0  0  0
    8.4699  -17.2190   23.0681 O   0  0  0  0  0  0  0  0  0  0  0  0
    9.8001  -15.7391   24.0979 N   0  0  0  0  0  0  0  0  0  0  0  0
    9.8188  -16.4616   25.3431 C   0  0  1  0  0  0  0  0  0  0  0  0
    9.5297  -15.6674   26.5404 C   0  0  0  0  0  0  0  0  0  0  0  0
    8.2224  -14.9786   26.4225 C   0  0  0  0  0  0  0  0  0  0  0  0
    6.9909  -15.5957   26.1962 C   0  0  0  0  0  0  0  0  0  0  0  0
    6.0284  -14.6724   26.1919 N   0  0  0  0  0  0  0  0  0  0  0  0
    6.5708  -13.4462   26.4078 C   0  0  0  0  0  0  0  0  0  0  0  0
    6.0491  -12.1883   26.4851 C   0  0  0  0  0  0  0  0  0  0  0  0
    6.8076  -11.0567   26.7008 C   0  0  0  0  0  0  0  0  0  0  0  0
    8.1663  -11.2590   26.8397 C   0  0  0  0  0  0  0  0  0  0  0  0
    8.7257  -12.5182   26.7669 C   0  0  0  0  0  0  0  0  0  0  0  0
    7.9301  -13.6407   26.5494 C   0  0  0  0  0  0  0  0  0  0  0  0
    9.1205  -17.7347   25.2045 C   0  0  0  0  0  0  0  0  0  0  0  0
    8.0677  -17.8455   24.5090 O   0  0  0  0  0  0  0  0  0  0  0  0
    9.5399  -18.9307   25.8072 O   0  0  0  0  0  0  0  0  0  0  0  0
  2  1  1  1
  3  2  1  0
  4  2  1  0
  4  5  1  6
  6  4  1  0
  6  7  2  0
  9 10  1  0
  9  8  1  0
 10 12  1  0
 10 11  1  1
 12 13  1  6
 13  6  1  0
 14 12  1  0
 14 16  1  0
 15 14  2  0
 17 16  1  0
 17 28  1  0
 18 19  1  0
 17 18  1  1
 19 27  1  0
 20 21  1  0
 20 19  2  0
 21 22  1  0
 22 27  2  0
 22 23  1  0
 23 24  2  0
 24 25  1  0
 26 25  2  0
 27 26  1  0
 28 29  2  0
 28 30  1  0
M  END
$$$$
