EWV.pdb
     RDKit          3D

 31 32  0  0  1  0  0  0  0  0999 V2000
   27.9197  -21.7771  -15.5298 N   0  0  0  0  0  0  0  0  0  0  0  0
   27.7859  -20.7900  -14.4850 C   0  0  1  0  0  0  0  0  0  0  0  0
   27.6282  -19.4526  -15.1496 C   0  0  0  0  0  0  0  0  0  0  0  0
   26.6792  -19.4715  -16.3320 C   0  0  0  0  0  0  0  0  0  0  0  0
   27.4296  -19.7478  -17.5918 C   0  0  0  0  0  0  0  0  0  0  0  0
   26.9193  -20.5312  -18.4389 O   0  0  0  0  0  0  0  0  0  0  0  0
   26.6945  -21.1688  -13.5858 C   0  0  0  0  0  0  0  0  0  0  0  0
   25.8831  -22.1262  -13.8347 O   0  0  0  0  0  0  0  0  0  0  0  0
   28.6678  -19.1871  -17.8797 O   0  0  0  0  0  0  0  0  0  0  0  0
   26.4735  -20.4750  -12.3550 N   0  0  0  0  0  0  0  0  0  0  0  0
   25.3452  -20.7399  -11.4807 C   0  0  1  0  0  0  0  0  0  0  0  0
   25.6595  -20.2513  -10.0763 C   0  0  0  0  0  0  0  0  0  0  0  0
   26.9693  -20.6636   -9.5681 C   0  0  0  0  0  0  0  0  0  0  0  0
   27.8339  -21.5276  -10.2296 C   0  0  0  0  0  0  0  0  0  0  0  0
   28.9628  -21.6889   -9.5018 N   0  0  0  0  0  0  0  0  0  0  0  0
   28.8471  -20.9499   -8.3867 C   0  0  0  0  0  0  0  0  0  0  0  0
   29.7175  -20.7798   -7.3215 C   0  0  0  0  0  0  0  0  0  0  0  0
   29.3847  -19.9738   -6.2655 C   0  0  0  0  0  0  0  0  0  0  0  0
   28.1595  -19.3240   -6.2725 C   0  0  0  0  0  0  0  0  0  0  0  0
   27.3109  -19.5020   -7.3317 C   0  0  0  0  0  0  0  0  0  0  0  0
   27.6177  -20.3158   -8.4244 C   0  0  0  0  0  0  0  0  0  0  0  0
   24.0413  -20.3741  -11.9995 C   0  0  0  0  0  0  0  0  0  0  0  0
   23.5878  -19.2072  -12.1430 O   0  0  0  0  0  0  0  0  0  0  0  0
   20.4627  -22.2975  -14.8347 C   0  0  0  0  0  0  0  0  0  0  0  0
   21.7652  -22.3022  -14.1056 C   0  0  1  0  0  0  0  0  0  0  0  0
   22.8615  -22.2139  -15.1253 C   0  0  0  0  0  0  0  0  0  0  0  0
   21.8737  -21.2374  -13.0166 C   0  0  2  0  0  0  0  0  0  0  0  0
   23.1722  -21.4447  -12.3996 N   0  0  0  0  0  0  0  0  0  0  0  0
   20.7743  -21.4645  -12.0905 C   0  0  0  0  0  0  0  0  0  0  0  0
   19.7923  -20.6961  -12.0665 O   0  0  0  0  0  0  0  0  0  0  0  0
   20.7962  -22.5361  -11.2191 O   0  0  0  0  0  0  0  0  0  0  0  0
  2  1  1  6
  3  2  1  0
  3  4  1  0
  4  5  1  0
  5  9  1  0
  6  5  2  0
  7  8  2  0
  7  2  1  0
 10  7  1  0
 11 10  1  0
 11 12  1  1
 12 13  1  0
 13 21  1  0
 13 14  2  0
 14 15  1  0
 16 15  1  0
 16 17  2  0
 18 17  1  0
 19 18  2  0
 20 21  2  0
 20 19  1  0
 21 16  1  0
 22 28  1  0
 22 11  1  0
 23 22  2  0
 25 27  1  0
 25 24  1  6
 26 25  1  0
 27 29  1  0
 27 28  1  1
 29 31  1  0
 30 29  2  0
M  END
$$$$
