EWV.pdb
     RDKit          3D

 31 32  0  0  1  0  0  0  0  0999 V2000
   28.3875  -22.4965  -14.8084 N   0  0  0  0  0  0  0  0  0  0  0  0
   27.5507  -21.3242  -14.7117 C   0  0  1  0  0  0  0  0  0  0  0  0
   26.7535  -21.2366  -15.9812 C   0  0  0  0  0  0  0  0  0  0  0  0
   27.4702  -20.5024  -17.0976 C   0  0  0  0  0  0  0  0  0  0  0  0
   27.5124  -19.0389  -16.8091 C   0  0  0  0  0  0  0  0  0  0  0  0
   26.4221  -18.4147  -16.6939 O   0  0  0  0  0  0  0  0  0  0  0  0
   26.7567  -21.3853  -13.4831 C   0  0  0  0  0  0  0  0  0  0  0  0
   25.5738  -21.8705  -13.4379 O   0  0  0  0  0  0  0  0  0  0  0  0
   28.6953  -18.3248  -16.6634 O   0  0  0  0  0  0  0  0  0  0  0  0
   27.2727  -20.8968  -12.2420 N   0  0  0  0  0  0  0  0  0  0  0  0
   26.4649  -20.7476  -11.0451 C   0  0  1  0  0  0  0  0  0  0  0  0
   27.3247  -20.2174   -9.9095 C   0  0  0  0  0  0  0  0  0  0  0  0
   26.7334  -20.3669   -8.5784 C   0  0  0  0  0  0  0  0  0  0  0  0
   25.4388  -20.8114   -8.3376 C   0  0  0  0  0  0  0  0  0  0  0  0
   25.2108  -20.8514   -7.0047 N   0  0  0  0  0  0  0  0  0  0  0  0
   26.3270  -20.4431   -6.3800 C   0  0  0  0  0  0  0  0  0  0  0  0
   26.6044  -20.2966   -5.0299 C   0  0  0  0  0  0  0  0  0  0  0  0
   27.8277  -19.8465   -4.6099 C   0  0  0  0  0  0  0  0  0  0  0  0
   28.7938  -19.5368   -5.5555 C   0  0  0  0  0  0  0  0  0  0  0  0
   28.5047  -19.6869   -6.8851 C   0  0  0  0  0  0  0  0  0  0  0  0
   27.2689  -20.1432   -7.3484 C   0  0  0  0  0  0  0  0  0  0  0  0
   25.1818  -20.0955  -11.2231 C   0  0  0  0  0  0  0  0  0  0  0  0
   24.9833  -18.8715  -11.4471 O   0  0  0  0  0  0  0  0  0  0  0  0
   22.4013  -22.2989  -13.0911 C   0  0  0  0  0  0  0  0  0  0  0  0
   22.3507  -20.8291  -12.8355 C   0  0  1  0  0  0  0  0  0  0  0  0
   21.0167  -20.3282  -13.3037 C   0  0  0  0  0  0  0  0  0  0  0  0
   22.6652  -20.4360  -11.3939 C   0  0  2  0  0  0  0  0  0  0  0  0
   24.0107  -20.9226  -11.1440 N   0  0  0  0  0  0  0  0  0  0  0  0
   21.6724  -21.0856  -10.5511 C   0  0  0  0  0  0  0  0  0  0  0  0
   21.8627  -22.2384  -10.1151 O   0  0  0  0  0  0  0  0  0  0  0  0
   20.4988  -20.4382  -10.2169 O   0  0  0  0  0  0  0  0  0  0  0  0
  2  1  1  6
  3  2  1  0
  3  4  1  0
  4  5  1  0
  5  9  1  0
  6  5  2  0
  7  8  2  0
  7  2  1  0
 10  7  1  0
 11 10  1  0
 11 12  1  1
 12 13  1  0
 13 21  1  0
 13 14  2  0
 14 15  1  0
 16 15  1  0
 16 17  2  0
 18 17  1  0
 19 18  2  0
 20 21  2  0
 20 19  1  0
 21 16  1  0
 22 28  1  0
 22 11  1  0
 23 22  2  0
 25 27  1  0
 25 24  1  1
 26 25  1  0
 27 29  1  0
 27 28  1  1
 29 31  1  0
 30 29  2  0
M  END
$$$$
