EWV.pdb
     RDKit          3D

 31 32  0  0  1  0  0  0  0  0999 V2000
   28.6253  -22.0273  -14.9875 N   0  0  0  0  0  0  0  0  0  0  0  0
   27.6959  -20.9642  -14.6878 C   0  0  1  0  0  0  0  0  0  0  0  0
   27.0287  -20.5757  -15.9758 C   0  0  0  0  0  0  0  0  0  0  0  0
   27.9380  -19.8208  -16.9258 C   0  0  0  0  0  0  0  0  0  0  0  0
   27.9193  -18.3627  -16.6088 C   0  0  0  0  0  0  0  0  0  0  0  0
   28.9146  -17.8604  -16.0185 O   0  0  0  0  0  0  0  0  0  0  0  0
   26.7872  -21.3900  -13.6217 C   0  0  0  0  0  0  0  0  0  0  0  0
   26.1882  -22.5205  -13.6229 O   0  0  0  0  0  0  0  0  0  0  0  0
   26.8564  -17.5270  -16.9289 O   0  0  0  0  0  0  0  0  0  0  0  0
   26.5160  -20.5475  -12.4985 N   0  0  0  0  0  0  0  0  0  0  0  0
   25.3689  -20.7245  -11.6264 C   0  0  1  0  0  0  0  0  0  0  0  0
   25.6775  -20.1541  -10.2518 C   0  0  0  0  0  0  0  0  0  0  0  0
   26.9341  -20.6252   -9.6663 C   0  0  0  0  0  0  0  0  0  0  0  0
   27.8016  -21.5209  -10.2802 C   0  0  0  0  0  0  0  0  0  0  0  0
   28.8745  -21.7350   -9.4845 N   0  0  0  0  0  0  0  0  0  0  0  0
   28.7199  -20.9991   -8.3720 C   0  0  0  0  0  0  0  0  0  0  0  0
   29.5277  -20.8732   -7.2528 C   0  0  0  0  0  0  0  0  0  0  0  0
   29.1633  -20.0607   -6.2124 C   0  0  0  0  0  0  0  0  0  0  0  0
   27.9694  -19.3592   -6.2903 C   0  0  0  0  0  0  0  0  0  0  0  0
   27.1826  -19.4939   -7.4023 C   0  0  0  0  0  0  0  0  0  0  0  0
   27.5231  -20.3129   -8.4809 C   0  0  0  0  0  0  0  0  0  0  0  0
   24.0829  -20.3583  -12.1878 C   0  0  0  0  0  0  0  0  0  0  0  0
   23.6775  -19.1934  -12.4455 O   0  0  0  0  0  0  0  0  0  0  0  0
   20.2749  -22.4268  -14.6361 C   0  0  0  0  0  0  0  0  0  0  0  0
   21.6071  -22.4302  -13.9627 C   0  0  1  0  0  0  0  0  0  0  0  0
   22.6555  -22.5998  -15.0218 C   0  0  0  0  0  0  0  0  0  0  0  0
   21.8543  -21.2207  -13.0641 C   0  0  2  0  0  0  0  0  0  0  0  0
   23.1728  -21.4268  -12.4906 N   0  0  0  0  0  0  0  0  0  0  0  0
   20.8032  -21.2182  -12.0577 C   0  0  0  0  0  0  0  0  0  0  0  0
   20.8131  -22.0450  -11.1239 O   0  0  0  0  0  0  0  0  0  0  0  0
   19.7729  -20.2999  -12.1162 O   0  0  0  0  0  0  0  0  0  0  0  0
  2  1  1  6
  3  2  1  0
  3  4  1  0
  4  5  1  0
  5  9  1  0
  6  5  2  0
  7  8  2  0
  7  2  1  0
 10  7  1  0
 11 10  1  0
 11 12  1  1
 12 13  1  0
 13 21  1  0
 13 14  2  0
 14 15  1  0
 16 15  1  0
 16 17  2  0
 18 17  1  0
 19 18  2  0
 20 21  2  0
 20 19  1  0
 21 16  1  0
 22 28  1  0
 22 11  1  0
 23 22  2  0
 25 27  1  0
 25 24  1  6
 26 25  1  0
 27 29  1  0
 27 28  1  1
 29 31  1  0
 30 29  2  0
M  END
$$$$
