EWV.pdb
     RDKit          3D

 31 32  0  0  1  0  0  0  0  0999 V2000
   28.1465  -21.0746  -14.5145 N   0  0  0  0  0  0  0  0  0  0  0  0
   26.9732  -20.2420  -14.3967 C   0  0  1  0  0  0  0  0  0  0  0  0
   26.4257  -20.0406  -15.7805 C   0  0  0  0  0  0  0  0  0  0  0  0
   27.1332  -18.9490  -16.5593 C   0  0  0  0  0  0  0  0  0  0  0  0
   28.5420  -19.3491  -16.8453 C   0  0  0  0  0  0  0  0  0  0  0  0
   28.7478  -20.3156  -17.6296 O   0  0  0  0  0  0  0  0  0  0  0  0
   26.0391  -20.8391  -13.4404 C   0  0  0  0  0  0  0  0  0  0  0  0
   25.5245  -21.9999  -13.5966 O   0  0  0  0  0  0  0  0  0  0  0  0
   29.6434  -18.7116  -16.2874 O   0  0  0  0  0  0  0  0  0  0  0  0
   25.6451  -20.1422  -12.2554 N   0  0  0  0  0  0  0  0  0  0  0  0
   24.6584  -20.6519  -11.3204 C   0  0  1  0  0  0  0  0  0  0  0  0
   25.0447  -20.2600   -9.9037 C   0  0  0  0  0  0  0  0  0  0  0  0
   26.4036  -20.6433   -9.5160 C   0  0  0  0  0  0  0  0  0  0  0  0
   27.2524  -21.4248  -10.2909 C   0  0  0  0  0  0  0  0  0  0  0  0
   28.4367  -21.5796   -9.6557 N   0  0  0  0  0  0  0  0  0  0  0  0
   28.3723  -20.9169   -8.4896 C   0  0  0  0  0  0  0  0  0  0  0  0
   29.3100  -20.7737   -7.4790 C   0  0  0  0  0  0  0  0  0  0  0  0
   29.0222  -20.0504   -6.3524 C   0  0  0  0  0  0  0  0  0  0  0  0
   27.7743  -19.4574   -6.2316 C   0  0  0  0  0  0  0  0  0  0  0  0
   26.8590  -19.6078   -7.2384 C   0  0  0  0  0  0  0  0  0  0  0  0
   27.1186  -20.3379   -8.4002 C   0  0  0  0  0  0  0  0  0  0  0  0
   23.2708  -20.4322  -11.6802 C   0  0  0  0  0  0  0  0  0  0  0  0
   22.6481  -19.3373  -11.6471 O   0  0  0  0  0  0  0  0  0  0  0  0
   19.7063  -22.7164  -14.3081 C   0  0  0  0  0  0  0  0  0  0  0  0
   21.0701  -22.5614  -13.7213 C   0  0  1  0  0  0  0  0  0  0  0  0
   22.0317  -22.3360  -14.8502 C   0  0  0  0  0  0  0  0  0  0  0  0
   21.1631  -21.4936  -12.6339 C   0  0  2  0  0  0  0  0  0  0  0  0
   22.5223  -21.5729  -12.1278 N   0  0  0  0  0  0  0  0  0  0  0  0
   20.1718  -21.8303  -11.6231 C   0  0  0  0  0  0  0  0  0  0  0  0
   19.0311  -21.3271  -11.6566 O   0  0  0  0  0  0  0  0  0  0  0  0
   20.4742  -22.7145  -10.6057 O   0  0  0  0  0  0  0  0  0  0  0  0
  2  1  1  6
  3  2  1  0
  3  4  1  0
  4  5  1  0
  5  9  1  0
  6  5  2  0
  7  8  2  0
  7  2  1  0
 10  7  1  0
 11 10  1  0
 11 12  1  1
 12 13  1  0
 13 21  1  0
 13 14  2  0
 14 15  1  0
 16 15  1  0
 16 17  2  0
 18 17  1  0
 19 18  2  0
 20 21  2  0
 20 19  1  0
 21 16  1  0
 22 28  1  0
 22 11  1  0
 23 22  2  0
 25 27  1  0
 25 24  1  6
 26 25  1  0
 27 29  1  0
 27 28  1  1
 29 31  1  0
 30 29  2  0
M  END
$$$$
