EWV.pdb
     RDKit          3D

 31 32  0  0  1  0  0  0  0  0999 V2000
   31.9901  -28.8132  -19.9038 N   0  0  0  0  0  0  0  0  0  0  0  0
   32.0081  -28.8723  -18.4616 C   0  0  1  0  0  0  0  0  0  0  0  0
   32.7756  -27.6774  -17.9735 C   0  0  0  0  0  0  0  0  0  0  0  0
   34.2713  -27.7845  -18.1982 C   0  0  0  0  0  0  0  0  0  0  0  0
   34.5985  -27.5192  -19.6297 C   0  0  0  0  0  0  0  0  0  0  0  0
   35.1644  -28.4273  -20.2980 O   0  0  0  0  0  0  0  0  0  0  0  0
   30.6385  -28.9795  -17.9555 C   0  0  0  0  0  0  0  0  0  0  0  0
   30.3540  -29.0148  -16.7087 O   0  0  0  0  0  0  0  0  0  0  0  0
   34.3138  -26.3173  -20.2663 O   0  0  0  0  0  0  0  0  0  0  0  0
   29.5224  -29.0507  -18.8468 N   0  0  0  0  0  0  0  0  0  0  0  0
   28.1456  -29.1436  -18.3961 C   0  0  1  0  0  0  0  0  0  0  0  0
   27.3256  -28.0266  -19.0206 C   0  0  0  0  0  0  0  0  0  0  0  0
   27.6061  -26.6935  -18.4841 C   0  0  0  0  0  0  0  0  0  0  0  0
   28.6552  -25.8823  -18.9001 C   0  0  0  0  0  0  0  0  0  0  0  0
   28.6248  -24.7130  -18.2203 N   0  0  0  0  0  0  0  0  0  0  0  0
   27.5816  -24.7505  -17.3758 C   0  0  0  0  0  0  0  0  0  0  0  0
   27.1259  -23.8143  -16.4609 C   0  0  0  0  0  0  0  0  0  0  0  0
   26.0299  -24.0712  -15.6811 C   0  0  0  0  0  0  0  0  0  0  0  0
   25.3749  -25.2861  -15.8170 C   0  0  0  0  0  0  0  0  0  0  0  0
   25.8370  -26.2004  -16.7250 C   0  0  0  0  0  0  0  0  0  0  0  0
   26.9507  -25.9717  -17.5359 C   0  0  0  0  0  0  0  0  0  0  0  0
   27.5508  -30.4654  -18.4426 C   0  0  0  0  0  0  0  0  0  0  0  0
   27.4606  -31.2160  -19.4507 O   0  0  0  0  0  0  0  0  0  0  0  0
   28.3008  -33.0806  -15.6959 C   0  0  0  0  0  0  0  0  0  0  0  0
   26.8267  -32.8617  -15.7799 C   0  0  1  0  0  0  0  0  0  0  0  0
   26.4183  -32.0340  -14.5976 C   0  0  0  0  0  0  0  0  0  0  0  0
   26.3582  -32.2768  -17.1103 C   0  0  2  0  0  0  0  0  0  0  0  0
   27.0116  -30.9839  -17.2170 N   0  0  0  0  0  0  0  0  0  0  0  0
   24.9092  -32.1643  -17.0372 C   0  0  0  0  0  0  0  0  0  0  0  0
   24.3714  -31.1197  -16.6187 O   0  0  0  0  0  0  0  0  0  0  0  0
   24.0998  -33.2125  -17.4300 O   0  0  0  0  0  0  0  0  0  0  0  0
  2  1  1  6
  3  2  1  0
  3  4  1  0
  4  5  1  0
  5  9  1  0
  6  5  2  0
  7  8  2  0
  7  2  1  0
 10  7  1  0
 11 10  1  0
 11 12  1  6
 12 13  1  0
 13 21  1  0
 13 14  2  0
 14 15  1  0
 16 15  1  0
 16 17  2  0
 18 17  1  0
 19 18  2  0
 20 21  2  0
 20 19  1  0
 21 16  1  0
 22 28  1  0
 22 11  1  0
 23 22  2  0
 25 27  1  0
 25 24  1  6
 26 25  1  0
 27 29  1  0
 27 28  1  1
 29 31  1  0
 30 29  2  0
M  END
$$$$
