EWV.pdb
     RDKit          3D

 31 32  0  0  1  0  0  0  0  0999 V2000
   28.4450  -22.7706  -15.6232 N   0  0  0  0  0  0  0  0  0  0  0  0
   27.7258  -21.5306  -15.4525 C   0  0  1  0  0  0  0  0  0  0  0  0
   26.9582  -21.2797  -16.7186 C   0  0  0  0  0  0  0  0  0  0  0  0
   27.8413  -21.1143  -17.9400 C   0  0  0  0  0  0  0  0  0  0  0  0
   28.7819  -19.9722  -17.7461 C   0  0  0  0  0  0  0  0  0  0  0  0
   28.3205  -18.8740  -17.3307 O   0  0  0  0  0  0  0  0  0  0  0  0
   26.9131  -21.5956  -14.2364 C   0  0  0  0  0  0  0  0  0  0  0  0
   25.6626  -21.8659  -14.2442 O   0  0  0  0  0  0  0  0  0  0  0  0
   30.1447  -20.0555  -18.0035 O   0  0  0  0  0  0  0  0  0  0  0  0
   27.4862  -21.3563  -12.9482 N   0  0  0  0  0  0  0  0  0  0  0  0
   26.7008  -21.2550  -11.7315 C   0  0  1  0  0  0  0  0  0  0  0  0
   27.6252  -21.0755  -10.5385 C   0  0  0  0  0  0  0  0  0  0  0  0
   26.9474  -20.7061   -9.2944 C   0  0  0  0  0  0  0  0  0  0  0  0
   25.5708  -20.7444   -9.1066 C   0  0  0  0  0  0  0  0  0  0  0  0
   25.2717  -20.3592   -7.8448 N   0  0  0  0  0  0  0  0  0  0  0  0
   26.4221  -20.0731   -7.2141 C   0  0  0  0  0  0  0  0  0  0  0  0
   26.6579  -19.6302   -5.9221 C   0  0  0  0  0  0  0  0  0  0  0  0
   27.9330  -19.3872   -5.4856 C   0  0  0  0  0  0  0  0  0  0  0  0
   28.9941  -19.5906   -6.3552 C   0  0  0  0  0  0  0  0  0  0  0  0
   28.7450  -20.0284   -7.6280 C   0  0  0  0  0  0  0  0  0  0  0  0
   27.4584  -20.2861   -8.1061 C   0  0  0  0  0  0  0  0  0  0  0  0
   25.5594  -20.3621  -11.7858 C   0  0  0  0  0  0  0  0  0  0  0  0
   25.5839  -19.1036  -11.7281 O   0  0  0  0  0  0  0  0  0  0  0  0
   23.6326  -19.5092  -14.3556 C   0  0  0  0  0  0  0  0  0  0  0  0
   22.6402  -20.1894  -13.4720 C   0  0  1  0  0  0  0  0  0  0  0  0
   22.3945  -21.5602  -14.0289 C   0  0  0  0  0  0  0  0  0  0  0  0
   23.0277  -20.2041  -11.9951 C   0  0  2  0  0  0  0  0  0  0  0  0
   24.2635  -20.9642  -11.9261 N   0  0  0  0  0  0  0  0  0  0  0  0
   21.9374  -20.8470  -11.2771 C   0  0  0  0  0  0  0  0  0  0  0  0
   21.9802  -22.0646  -11.0107 O   0  0  0  0  0  0  0  0  0  0  0  0
   20.8325  -20.1214  -10.8759 O   0  0  0  0  0  0  0  0  0  0  0  0
  2  1  1  6
  3  2  1  0
  3  4  1  0
  4  5  1  0
  5  9  1  0
  6  5  2  0
  7  8  2  0
  7  2  1  0
 10  7  1  0
 11 10  1  0
 11 12  1  1
 12 13  1  0
 13 21  1  0
 13 14  2  0
 14 15  1  0
 16 15  1  0
 16 17  2  0
 18 17  1  0
 19 18  2  0
 20 21  2  0
 20 19  1  0
 21 16  1  0
 22 28  1  0
 22 11  1  0
 23 22  2  0
 25 27  1  0
 25 24  1  6
 26 25  1  0
 27 29  1  0
 27 28  1  6
 29 31  1  0
 30 29  2  0
M  END
$$$$
