DND.pdb
     RDKit          3D

 25 24  0  0  1  0  0  0  0  0999 V2000
   10.6252  -17.0280   16.8240 N   0  0  0  0  0  0  0  0  0  0  0  0
   11.4371  -15.8583   16.5857 C   0  0  1  0  0  0  0  0  0  0  0  0
   11.0673  -15.2158   15.2857 C   0  0  0  0  0  0  0  0  0  0  0  0
   11.3693  -16.1414   14.1857 C   0  0  0  0  0  0  0  0  0  0  0  0
   10.9407  -17.3234   14.1982 O   0  0  0  0  0  0  0  0  0  0  0  0
   11.3720  -14.8977   17.7255 C   0  0  0  0  0  0  0  0  0  0  0  0
   12.3141  -14.1270   17.9971 O   0  0  0  0  0  0  0  0  0  0  0  0
   12.1343  -15.7804   13.0786 O   0  0  0  0  0  0  0  0  0  0  0  0
    7.7988  -12.0249   18.2177 N   0  0  0  0  0  0  0  0  0  0  0  0
    7.8180  -13.3656   18.6961 C   0  0  0  0  0  0  0  0  0  0  0  0
    7.1496  -14.1948   18.0534 O   0  0  0  0  0  0  0  0  0  0  0  0
    8.5826  -13.7607   19.8843 C   0  0  0  0  0  0  0  0  0  0  0  0
   10.0294  -14.0024   19.6786 C   0  0  2  0  0  0  0  0  0  0  0  0
   10.2038  -14.8610   18.5230 N   0  0  0  0  0  0  0  0  0  0  0  0
   10.7192  -14.5030   20.8685 C   0  0  0  0  0  0  0  0  0  0  0  0
   10.6215  -13.9791   21.9973 O   0  0  0  0  0  0  0  0  0  0  0  0
   11.5802  -15.6606   20.8279 N   0  0  0  0  0  0  0  0  0  0  0  0
   12.2925  -16.1448   21.9720 C   0  0  1  0  0  0  0  0  0  0  0  0
   12.0109  -17.5922   22.2852 C   0  0  0  0  0  0  0  0  0  0  0  0
   12.7496  -18.1118   23.4264 C   0  0  0  0  0  0  0  0  0  0  0  0
   13.2725  -17.3404   24.2568 O   0  0  0  0  0  0  0  0  0  0  0  0
   13.7397  -15.8771   21.8084 C   0  0  0  0  0  0  0  0  0  0  0  0
   14.2500  -15.9848   20.6684 O   0  0  0  0  0  0  0  0  0  0  0  0
   12.8863  -19.4723   23.6126 O   0  0  0  0  0  0  0  0  0  0  0  0
   14.5828  -15.5096   22.8464 O   0  0  0  0  0  0  0  0  0  0  0  0
  2  3  1  0
  2  1  1  1
  3  4  1  0
  4  8  1  0
  4  5  2  0
  6  7  2  0
  6  2  1  0
  9 10  1  0
 10 11  2  0
 10 12  1  0
 13 12  1  1
 13 15  1  0
 13 14  1  0
 14  6  1  0
 15 17  1  0
 16 15  2  0
 17 18  1  0
 18 22  1  0
 18 19  1  6
 20 19  1  0
 21 20  2  0
 22 23  2  0
 22 25  1  0
 24 20  1  0
M  END
$$$$
