DND.pdb
     RDKit          3D

 25 24  0  0  1  0  0  0  0  0999 V2000
   11.5100  -20.6986   22.8686 N   0  0  0  0  0  0  0  0  0  0  0  0
   12.3649  -19.8072   23.6161 C   0  0  1  0  0  0  0  0  0  0  0  0
   12.8346  -18.6793   22.7520 C   0  0  0  0  0  0  0  0  0  0  0  0
   13.3117  -19.2176   21.4712 C   0  0  0  0  0  0  0  0  0  0  0  0
   13.1696  -20.4342   21.1871 O   0  0  0  0  0  0  0  0  0  0  0  0
   11.7040  -19.3224   24.8627 C   0  0  0  0  0  0  0  0  0  0  0  0
   12.2604  -18.5200   25.6386 O   0  0  0  0  0  0  0  0  0  0  0  0
   13.9400  -18.4339   20.5056 O   0  0  0  0  0  0  0  0  0  0  0  0
    7.7847  -18.8070   28.4614 N   0  0  0  0  0  0  0  0  0  0  0  0
    7.3133  -19.0364   27.1378 C   0  0  0  0  0  0  0  0  0  0  0  0
    6.0865  -18.9337   26.9590 O   0  0  0  0  0  0  0  0  0  0  0  0
    8.2177  -19.3770   26.0339 C   0  0  0  0  0  0  0  0  0  0  0  0
    9.6622  -19.4090   26.3601 C   0  0  2  0  0  0  0  0  0  0  0  0
   10.4047  -19.7882   25.1736 N   0  0  0  0  0  0  0  0  0  0  0  0
    9.9865  -20.2368   27.5228 C   0  0  0  0  0  0  0  0  0  0  0  0
   10.0139  -21.4845   27.4985 O   0  0  0  0  0  0  0  0  0  0  0  0
   10.3050  -19.6646   28.8090 N   0  0  0  0  0  0  0  0  0  0  0  0
   10.7632  -20.4447   29.9190 C   0  0  1  0  0  0  0  0  0  0  0  0
   10.3087  -21.8812   29.8707 C   0  0  0  0  0  0  0  0  0  0  0  0
   10.6965  -22.6704   31.0303 C   0  0  0  0  0  0  0  0  0  0  0  0
   10.8018  -22.1448   32.1575 O   0  0  0  0  0  0  0  0  0  0  0  0
   12.2344  -20.3251   30.0390 C   0  0  0  0  0  0  0  0  0  0  0  0
   12.8472  -19.5727   29.2452 O   0  0  0  0  0  0  0  0  0  0  0  0
   10.9561  -24.0200   30.9049 O   0  0  0  0  0  0  0  0  0  0  0  0
   12.9929  -20.9989   30.9845 O   0  0  0  0  0  0  0  0  0  0  0  0
  2  3  1  0
  2  1  1  6
  3  4  1  0
  4  8  1  0
  4  5  2  0
  6  7  2  0
  6  2  1  0
  9 10  1  0
 10 11  2  0
 10 12  1  0
 13 12  1  6
 13 15  1  0
 13 14  1  0
 14  6  1  0
 15 17  1  0
 16 15  2  0
 17 18  1  0
 18 22  1  0
 18 19  1  6
 20 19  1  0
 21 20  2  0
 22 23  2  0
 22 25  1  0
 24 20  1  0
M  END
$$$$
