DND.pdb
     RDKit          3D

 25 24  0  0  1  0  0  0  0  0999 V2000
   11.8778  -15.3335   16.2544 N   0  0  0  0  0  0  0  0  0  0  0  0
   12.9833  -15.2731   17.1809 C   0  0  1  0  0  0  0  0  0  0  0  0
   14.1456  -14.5563   16.5687 C   0  0  0  0  0  0  0  0  0  0  0  0
   14.5710  -15.2707   15.3578 C   0  0  0  0  0  0  0  0  0  0  0  0
   14.5550  -14.7067   14.2341 O   0  0  0  0  0  0  0  0  0  0  0  0
   12.5790  -14.6752   18.4867 C   0  0  0  0  0  0  0  0  0  0  0  0
   13.2871  -13.8366   19.0790 O   0  0  0  0  0  0  0  0  0  0  0  0
   15.0114  -16.5925   15.3718 O   0  0  0  0  0  0  0  0  0  0  0  0
    9.8406  -12.8624   18.5549 N   0  0  0  0  0  0  0  0  0  0  0  0
    8.9789  -13.5817   19.4306 C   0  0  0  0  0  0  0  0  0  0  0  0
    7.7577  -13.3915   19.2888 O   0  0  0  0  0  0  0  0  0  0  0  0
    9.4926  -14.5023   20.4509 C   0  0  0  0  0  0  0  0  0  0  0  0
   10.9522  -14.7537   20.4273 C   0  0  2  0  0  0  0  0  0  0  0  0
   11.3532  -15.0729   19.0706 N   0  0  0  0  0  0  0  0  0  0  0  0
   11.3948  -15.7526   21.4012 C   0  0  0  0  0  0  0  0  0  0  0  0
   11.2051  -16.9794   21.2698 O   0  0  0  0  0  0  0  0  0  0  0  0
   12.0966  -15.3902   22.6091 N   0  0  0  0  0  0  0  0  0  0  0  0
   12.6679  -16.3550   23.4999 C   0  0  1  0  0  0  0  0  0  0  0  0
   14.0117  -15.9449   24.0462 C   0  0  0  0  0  0  0  0  0  0  0  0
   15.0158  -15.6791   23.0269 C   0  0  0  0  0  0  0  0  0  0  0  0
   15.0516  -16.3466   21.9728 O   0  0  0  0  0  0  0  0  0  0  0  0
   11.6999  -16.6769   24.5734 C   0  0  0  0  0  0  0  0  0  0  0  0
   11.9880  -17.5758   25.3985 O   0  0  0  0  0  0  0  0  0  0  0  0
   15.9508  -14.6803   23.2074 O   0  0  0  0  0  0  0  0  0  0  0  0
   10.4771  -16.0421   24.7313 O   0  0  0  0  0  0  0  0  0  0  0  0
  2  3  1  0
  2  1  1  6
  3  4  1  0
  4  8  1  0
  4  5  2  0
  6  7  2  0
  6  2  1  0
  9 10  1  0
 10 11  2  0
 10 12  1  0
 13 12  1  6
 13 15  1  0
 13 14  1  0
 14  6  1  0
 15 17  1  0
 16 15  2  0
 17 18  1  0
 18 22  1  0
 18 19  1  1
 20 19  1  0
 21 20  2  0
 22 23  2  0
 22 25  1  0
 24 20  1  0
M  END
$$$$
