DND.pdb
     RDKit          3D

 25 24  0  0  1  0  0  0  0  0999 V2000
   -2.2746  -25.3121   22.5930 N   0  0  0  0  0  0  0  0  0  0  0  0
   -1.7830  -24.5571   23.7211 C   0  0  1  0  0  0  0  0  0  0  0  0
   -0.7223  -23.5940   23.2890 C   0  0  0  0  0  0  0  0  0  0  0  0
    0.4314  -24.3440   22.7748 C   0  0  0  0  0  0  0  0  0  0  0  0
    0.4687  -25.5991   22.8399 O   0  0  0  0  0  0  0  0  0  0  0  0
   -2.8895  -23.8805   24.4587 C   0  0  0  0  0  0  0  0  0  0  0  0
   -2.6720  -23.0423   25.3563 O   0  0  0  0  0  0  0  0  0  0  0  0
    1.5379  -23.7290   22.1928 O   0  0  0  0  0  0  0  0  0  0  0  0
   -6.8534  -22.5645   21.4616 N   0  0  0  0  0  0  0  0  0  0  0  0
   -6.3043  -22.4497   22.7700 C   0  0  0  0  0  0  0  0  0  0  0  0
   -5.6619  -21.4128   23.0143 O   0  0  0  0  0  0  0  0  0  0  0  0
   -6.4803  -23.4935   23.7860 C   0  0  0  0  0  0  0  0  0  0  0  0
   -5.3898  -23.6274   24.7794 C   0  0  2  0  0  0  0  0  0  0  0  0
   -4.2275  -24.2006   24.1286 N   0  0  0  0  0  0  0  0  0  0  0  0
   -5.7797  -24.3528   25.9894 C   0  0  0  0  0  0  0  0  0  0  0  0
   -6.1305  -25.5508   25.9959 O   0  0  0  0  0  0  0  0  0  0  0  0
   -5.7887  -23.7284   27.2906 N   0  0  0  0  0  0  0  0  0  0  0  0
   -6.0884  -24.4403   28.4965 C   0  0  1  0  0  0  0  0  0  0  0  0
   -4.8892  -24.6423   29.3873 C   0  0  0  0  0  0  0  0  0  0  0  0
   -4.3178  -25.9793   29.3268 C   0  0  0  0  0  0  0  0  0  0  0  0
   -3.2232  -26.2340   29.8701 O   0  0  0  0  0  0  0  0  0  0  0  0
   -7.2070  -23.7752   29.2032 C   0  0  0  0  0  0  0  0  0  0  0  0
   -7.3869  -22.5466   29.0305 O   0  0  0  0  0  0  0  0  0  0  0  0
   -4.9779  -26.9946   28.6651 O   0  0  0  0  0  0  0  0  0  0  0  0
   -8.0834  -24.4288   30.0565 O   0  0  0  0  0  0  0  0  0  0  0  0
  2  3  1  0
  2  1  1  6
  3  4  1  0
  4  8  1  0
  4  5  2  0
  6  7  2  0
  6  2  1  0
  9 10  1  0
 10 11  2  0
 10 12  1  0
 13 12  1  6
 13 15  1  0
 13 14  1  0
 14  6  1  0
 15 17  1  0
 16 15  2  0
 17 18  1  0
 18 22  1  0
 18 19  1  1
 20 19  1  0
 21 20  2  0
 22 23  2  0
 22 25  1  0
 24 20  1  0
M  END
$$$$
