DND.pdb
     RDKit          3D

 25 24  0  0  1  0  0  0  0  0999 V2000
   11.6534  -16.0219   17.6056 N   0  0  0  0  0  0  0  0  0  0  0  0
   12.6218  -15.3087   18.4042 C   0  0  1  0  0  0  0  0  0  0  0  0
   13.4094  -14.3607   17.5554 C   0  0  0  0  0  0  0  0  0  0  0  0
   13.9478  -15.0833   16.3953 C   0  0  0  0  0  0  0  0  0  0  0  0
   14.0815  -16.3334   16.4163 O   0  0  0  0  0  0  0  0  0  0  0  0
   11.9845  -14.6248   19.5670 C   0  0  0  0  0  0  0  0  0  0  0  0
   12.6405  -13.9291   20.3676 O   0  0  0  0  0  0  0  0  0  0  0  0
   14.3381  -14.4467   15.2190 O   0  0  0  0  0  0  0  0  0  0  0  0
    8.4768  -11.9715   18.6161 N   0  0  0  0  0  0  0  0  0  0  0  0
    8.3884  -13.3492   18.9639 C   0  0  0  0  0  0  0  0  0  0  0  0
    8.2224  -14.1497   18.0263 O   0  0  0  0  0  0  0  0  0  0  0  0
    8.4864  -13.8128   20.3524 C   0  0  0  0  0  0  0  0  0  0  0  0
    9.8480  -14.1359   20.8379 C   0  0  2  0  0  0  0  0  0  0  0  0
   10.5914  -14.7710   19.7669 N   0  0  0  0  0  0  0  0  0  0  0  0
    9.8635  -14.9116   22.0789 C   0  0  0  0  0  0  0  0  0  0  0  0
    9.3142  -14.5382   23.1358 O   0  0  0  0  0  0  0  0  0  0  0  0
   10.5264  -16.1898   22.1783 N   0  0  0  0  0  0  0  0  0  0  0  0
   10.6099  -16.9336   23.3991 C   0  0  1  0  0  0  0  0  0  0  0  0
   10.5301  -18.4256   23.1989 C   0  0  0  0  0  0  0  0  0  0  0  0
   10.6116  -19.1992   24.4289 C   0  0  0  0  0  0  0  0  0  0  0  0
   10.6091  -18.6352   25.5424 O   0  0  0  0  0  0  0  0  0  0  0  0
   11.8239  -16.5315   24.1458 C   0  0  0  0  0  0  0  0  0  0  0  0
   12.8830  -16.3189   23.5097 O   0  0  0  0  0  0  0  0  0  0  0  0
   10.6933  -20.5761   24.3870 O   0  0  0  0  0  0  0  0  0  0  0  0
   11.8703  -16.3715   25.5226 O   0  0  0  0  0  0  0  0  0  0  0  0
  2  3  1  0
  2  1  1  6
  3  4  1  0
  4  8  1  0
  4  5  2  0
  6  7  2  0
  6  2  1  0
  9 10  1  0
 10 11  2  0
 10 12  1  0
 13 12  1  6
 13 15  1  0
 13 14  1  0
 14  6  1  0
 15 17  1  0
 16 15  2  0
 17 18  1  0
 18 22  1  0
 18 19  1  6
 20 19  1  0
 21 20  2  0
 22 23  2  0
 22 25  1  0
 24 20  1  0
M  END
$$$$
