DND.pdb
     RDKit          3D

 25 24  0  0  1  0  0  0  0  0999 V2000
    7.5921  -17.7760   18.2488 N   0  0  0  0  0  0  0  0  0  0  0  0
    8.6955  -16.9037   17.9238 C   0  0  1  0  0  0  0  0  0  0  0  0
    8.3785  -16.0808   16.7147 C   0  0  0  0  0  0  0  0  0  0  0  0
    8.1690  -16.9710   15.5652 C   0  0  0  0  0  0  0  0  0  0  0  0
    8.1551  -18.2202   15.7079 O   0  0  0  0  0  0  0  0  0  0  0  0
    9.0963  -16.0608   19.0878 C   0  0  0  0  0  0  0  0  0  0  0  0
   10.0754  -15.2897   19.0416 O   0  0  0  0  0  0  0  0  0  0  0  0
    7.9759  -16.5019   14.2675 O   0  0  0  0  0  0  0  0  0  0  0  0
    7.7726  -12.7783   23.3558 N   0  0  0  0  0  0  0  0  0  0  0  0
    7.4740  -14.1702   23.3395 C   0  0  0  0  0  0  0  0  0  0  0  0
    7.3121  -14.7170   24.4450 O   0  0  0  0  0  0  0  0  0  0  0  0
    7.3606  -14.9307   22.0900 C   0  0  0  0  0  0  0  0  0  0  0  0
    8.6338  -15.3867   21.4858 C   0  0  2  0  0  0  0  0  0  0  0  0
    8.3407  -16.1394   20.2814 N   0  0  0  0  0  0  0  0  0  0  0  0
    9.5006  -16.1139   22.4143 C   0  0  0  0  0  0  0  0  0  0  0  0
    9.5332  -17.3588   22.5003 O   0  0  0  0  0  0  0  0  0  0  0  0
   10.3997  -15.4364   23.3174 N   0  0  0  0  0  0  0  0  0  0  0  0
   11.2785  -16.1295   24.2107 C   0  0  1  0  0  0  0  0  0  0  0  0
   10.5650  -17.0868   25.1311 C   0  0  0  0  0  0  0  0  0  0  0  0
   11.4343  -17.7589   26.0852 C   0  0  0  0  0  0  0  0  0  0  0  0
   12.6340  -17.4337   26.1993 O   0  0  0  0  0  0  0  0  0  0  0  0
   12.3550  -16.7906   23.4381 C   0  0  0  0  0  0  0  0  0  0  0  0
   13.5422  -16.4359   23.6288 O   0  0  0  0  0  0  0  0  0  0  0  0
   10.9466  -18.7722   26.8850 O   0  0  0  0  0  0  0  0  0  0  0  0
   12.1365  -17.7912   22.5031 O   0  0  0  0  0  0  0  0  0  0  0  0
  2  3  1  0
  2  1  1  1
  3  4  1  0
  4  8  1  0
  4  5  2  0
  6  7  2  0
  6  2  1  0
  9 10  1  0
 10 11  2  0
 10 12  1  0
 13 12  1  1
 13 15  1  0
 13 14  1  0
 14  6  1  0
 15 17  1  0
 16 15  2  0
 17 18  1  0
 18 22  1  0
 18 19  1  6
 20 19  1  0
 21 20  2  0
 22 23  2  0
 22 25  1  0
 24 20  1  0
M  END
$$$$
