DND.pdb
     RDKit          3D

 25 24  0  0  1  0  0  0  0  0999 V2000
   -1.8282  -26.5689   25.4097 N   0  0  0  0  0  0  0  0  0  0  0  0
   -2.6404  -25.4053   25.6753 C   0  0  1  0  0  0  0  0  0  0  0  0
   -3.3660  -24.9755   24.4390 C   0  0  0  0  0  0  0  0  0  0  0  0
   -2.3955  -24.4652   23.4615 C   0  0  0  0  0  0  0  0  0  0  0  0
   -1.1730  -24.3843   23.7445 O   0  0  0  0  0  0  0  0  0  0  0  0
   -3.5681  -25.6279   26.8224 C   0  0  0  0  0  0  0  0  0  0  0  0
   -4.5046  -26.4496   26.7674 O   0  0  0  0  0  0  0  0  0  0  0  0
   -2.7558  -24.0454   22.1827 O   0  0  0  0  0  0  0  0  0  0  0  0
   -1.1183  -25.9988   30.9308 N   0  0  0  0  0  0  0  0  0  0  0  0
   -2.4942  -26.1306   30.5899 C   0  0  0  0  0  0  0  0  0  0  0  0
   -2.9273  -27.2899   30.4644 O   0  0  0  0  0  0  0  0  0  0  0  0
   -3.3660  -24.9668   30.3943 C   0  0  0  0  0  0  0  0  0  0  0  0
   -4.2213  -24.9882   29.1852 C   0  0  2  0  0  0  0  0  0  0  0  0
   -3.3783  -24.8825   28.0100 N   0  0  0  0  0  0  0  0  0  0  0  0
   -5.2964  -23.9953   29.2052 C   0  0  0  0  0  0  0  0  0  0  0  0
   -5.1010  -22.7625   29.1833 O   0  0  0  0  0  0  0  0  0  0  0  0
   -6.6891  -24.3710   29.2525 N   0  0  0  0  0  0  0  0  0  0  0  0
   -7.7566  -23.4167   29.2366 C   0  0  1  0  0  0  0  0  0  0  0  0
   -8.9671  -23.8837   28.4691 C   0  0  0  0  0  0  0  0  0  0  0  0
  -10.0951  -22.9653   28.5146 C   0  0  0  0  0  0  0  0  0  0  0  0
   -9.9813  -21.8353   29.0325 O   0  0  0  0  0  0  0  0  0  0  0  0
   -8.0903  -23.0187   30.6234 C   0  0  0  0  0  0  0  0  0  0  0  0
   -8.3103  -21.8093   30.8697 O   0  0  0  0  0  0  0  0  0  0  0  0
  -11.3163  -23.3278   27.9840 O   0  0  0  0  0  0  0  0  0  0  0  0
   -8.1776  -23.9063   31.6854 O   0  0  0  0  0  0  0  0  0  0  0  0
  2  3  1  0
  2  1  1  6
  3  4  1  0
  4  8  1  0
  4  5  2  0
  6  7  2  0
  6  2  1  0
  9 10  1  0
 10 11  2  0
 10 12  1  0
 13 12  1  1
 13 15  1  0
 13 14  1  0
 14  6  1  0
 15 17  1  0
 16 15  2  0
 17 18  1  0
 18 22  1  0
 18 19  1  1
 20 19  1  0
 21 20  2  0
 22 23  2  0
 22 25  1  0
 24 20  1  0
M  END
$$$$
