DND.pdb
     RDKit          3D

 25 24  0  0  1  0  0  0  0  0999 V2000
    9.5006  -18.8897   16.5399 N   0  0  0  0  0  0  0  0  0  0  0  0
    9.8204  -17.4920   16.7081 C   0  0  1  0  0  0  0  0  0  0  0  0
    8.9103  -16.6397   15.8806 C   0  0  0  0  0  0  0  0  0  0  0  0
    9.2496  -16.8066   14.4611 C   0  0  0  0  0  0  0  0  0  0  0  0
    9.8789  -17.8188   14.0606 O   0  0  0  0  0  0  0  0  0  0  0  0
    9.8124  -17.0914   18.1453 C   0  0  0  0  0  0  0  0  0  0  0  0
   10.3017  -16.0125   18.5352 O   0  0  0  0  0  0  0  0  0  0  0  0
    8.9047  -15.8752   13.4839 O   0  0  0  0  0  0  0  0  0  0  0  0
    6.0208  -19.1413   19.8923 N   0  0  0  0  0  0  0  0  0  0  0  0
    6.7641  -18.2799   20.7481 C   0  0  0  0  0  0  0  0  0  0  0  0
    6.1780  -17.2617   21.1570 O   0  0  0  0  0  0  0  0  0  0  0  0
    8.1498  -18.5677   21.1346 C   0  0  0  0  0  0  0  0  0  0  0  0
    9.1898  -17.7089   20.5222 C   0  0  2  0  0  0  0  0  0  0  0  0
    9.2309  -17.9640   19.0952 N   0  0  0  0  0  0  0  0  0  0  0  0
   10.5023  -17.8263   21.1591 C   0  0  0  0  0  0  0  0  0  0  0  0
   11.3200  -18.7326   20.8982 O   0  0  0  0  0  0  0  0  0  0  0  0
   10.9603  -16.8873   22.1549 N   0  0  0  0  0  0  0  0  0  0  0  0
   12.2655  -16.9449   22.7411 C   0  0  1  0  0  0  0  0  0  0  0  0
   13.2746  -16.0674   22.0453 C   0  0  0  0  0  0  0  0  0  0  0  0
   14.6087  -16.1147   22.6249 C   0  0  0  0  0  0  0  0  0  0  0  0
   14.9872  -17.1057   23.2827 O   0  0  0  0  0  0  0  0  0  0  0  0
   12.1743  -16.6552   24.1905 C   0  0  0  0  0  0  0  0  0  0  0  0
   11.1481  -16.0850   24.6304 O   0  0  0  0  0  0  0  0  0  0  0  0
   15.4836  -15.0607   22.4575 O   0  0  0  0  0  0  0  0  0  0  0  0
   13.1621  -16.9766   25.1094 O   0  0  0  0  0  0  0  0  0  0  0  0
  2  3  1  0
  2  1  1  1
  3  4  1  0
  4  8  1  0
  4  5  2  0
  6  7  2  0
  6  2  1  0
  9 10  1  0
 10 11  2  0
 10 12  1  0
 13 12  1  1
 13 15  1  0
 13 14  1  0
 14  6  1  0
 15 17  1  0
 16 15  2  0
 17 18  1  0
 18 22  1  0
 18 19  1  6
 20 19  1  0
 21 20  2  0
 22 23  2  0
 22 25  1  0
 24 20  1  0
M  END
$$$$
