DND.pdb
     RDKit          3D

 25 24  0  0  1  0  0  0  0  0999 V2000
    7.9545  -17.7201   17.7205 N   0  0  0  0  0  0  0  0  0  0  0  0
    8.8106  -16.5982   17.4161 C   0  0  1  0  0  0  0  0  0  0  0  0
    8.1328  -15.6600   16.4674 C   0  0  0  0  0  0  0  0  0  0  0  0
    7.9773  -16.3191   15.1639 C   0  0  0  0  0  0  0  0  0  0  0  0
    7.6305  -15.6672   14.1461 O   0  0  0  0  0  0  0  0  0  0  0  0
    9.2774  -15.9065   18.6529 C   0  0  0  0  0  0  0  0  0  0  0  0
    9.9885  -14.8828   18.6113 O   0  0  0  0  0  0  0  0  0  0  0  0
    8.1985  -17.6812   14.9711 O   0  0  0  0  0  0  0  0  0  0  0  0
    7.4874  -13.6230   20.7188 N   0  0  0  0  0  0  0  0  0  0  0  0
    7.1746  -14.5797   21.7257 C   0  0  0  0  0  0  0  0  0  0  0  0
    6.1100  -14.4065   22.3455 O   0  0  0  0  0  0  0  0  0  0  0  0
    8.0542  -15.7149   22.0257 C   0  0  0  0  0  0  0  0  0  0  0  0
    9.2678  -15.8398   21.1855 C   0  0  2  0  0  0  0  0  0  0  0  0
    8.9006  -16.4294   19.9125 N   0  0  0  0  0  0  0  0  0  0  0  0
   10.3700  -16.5443   21.8419 C   0  0  0  0  0  0  0  0  0  0  0  0
   10.4091  -17.7831   21.9906 O   0  0  0  0  0  0  0  0  0  0  0  0
   11.5163  -15.8495   22.3769 N   0  0  0  0  0  0  0  0  0  0  0  0
   12.5762  -16.5129   23.0748 C   0  0  1  0  0  0  0  0  0  0  0  0
   13.8879  -15.7722   23.0173 C   0  0  0  0  0  0  0  0  0  0  0  0
   14.4375  -15.6326   21.6771 C   0  0  0  0  0  0  0  0  0  0  0  0
   15.1973  -14.6843   21.3913 O   0  0  0  0  0  0  0  0  0  0  0  0
   12.1544  -16.8006   24.4649 C   0  0  0  0  0  0  0  0  0  0  0  0
   11.0835  -16.3044   24.8874 O   0  0  0  0  0  0  0  0  0  0  0  0
   14.1280  -16.5495   20.6933 O   0  0  0  0  0  0  0  0  0  0  0  0
   12.8743  -17.5941   25.3455 O   0  0  0  0  0  0  0  0  0  0  0  0
  2  3  1  0
  2  1  1  1
  3  4  1  0
  4  8  1  0
  4  5  2  0
  6  7  2  0
  6  2  1  0
  9 10  1  0
 10 11  2  0
 10 12  1  0
 13 12  1  1
 13 15  1  0
 13 14  1  0
 14  6  1  0
 15 17  1  0
 16 15  2  0
 17 18  1  0
 18 22  1  0
 18 19  1  1
 20 19  1  0
 21 20  2  0
 22 23  2  0
 22 25  1  0
 24 20  1  0
M  END
$$$$
