EHH.pdb
     RDKit          3D

 30 31  0  0  1  0  0  0  0  0999 V2000
   27.0919  -33.7355    0.1758 N   0  0  0  0  0  0  0  0  0  0  0  0
   27.2048  -34.2722    1.5387 C   0  0  1  0  0  0  0  0  0  0  0  0
   28.6180  -34.8459    1.6499 C   0  0  0  0  0  0  0  0  0  0  0  0
   28.4981  -36.3124    1.2219 C   0  0  0  0  0  0  0  0  0  0  0  0
   29.8072  -36.9940    1.2255 C   0  0  0  0  0  0  0  0  0  0  0  0
   30.8377  -36.3350    1.5265 O   0  0  0  0  0  0  0  0  0  0  0  0
   27.0868  -33.1885    2.5258 C   0  0  0  0  0  0  0  0  0  0  0  0
   27.7756  -32.1517    2.4172 O   0  0  0  0  0  0  0  0  0  0  0  0
   29.8938  -38.3268    0.9045 O   0  0  0  0  0  0  0  0  0  0  0  0
   26.2042  -33.2329    3.6511 N   0  0  0  0  0  0  0  0  0  0  0  0
   26.1993  -32.2537    4.6756 C   0  0  1  0  0  0  0  0  0  0  0  0
   24.9209  -31.8663    5.2892 C   0  0  0  0  0  0  0  0  0  0  0  0
   23.8466  -31.4313    4.3711 C   0  0  0  0  0  0  0  0  0  0  0  0
   23.0792  -32.1341    3.4866 C   0  0  0  0  0  0  0  0  0  0  0  0
   22.1881  -31.3327    2.8708 N   0  0  0  0  0  0  0  0  0  0  0  0
   22.3839  -30.1090    3.3630 C   0  0  0  0  0  0  0  0  0  0  0  0
   23.3754  -30.1440    4.2661 N   0  0  0  0  0  0  0  0  0  0  0  0
   27.1822  -32.5776    5.7692 C   0  0  0  0  0  0  0  0  0  0  0  0
   28.0301  -33.4684    5.5805 O   0  0  0  0  0  0  0  0  0  0  0  0
   27.1477  -31.8850    6.9908 N   0  0  0  0  0  0  0  0  0  0  0  0
   28.2859  -31.8323    7.9093 C   0  0  1  0  0  0  0  0  0  0  0  0
   29.5164  -31.3621    7.2172 C   0  0  0  0  0  0  0  0  0  0  0  0
   30.6529  -32.2654    7.5139 C   0  0  0  0  0  0  0  0  0  0  0  0
   30.5940  -33.5145    8.1336 C   0  0  0  0  0  0  0  0  0  0  0  0
   31.8305  -34.0182    8.2211 N   0  0  0  0  0  0  0  0  0  0  0  0
   32.6643  -33.1285    7.6779 C   0  0  0  0  0  0  0  0  0  0  0  0
   31.9605  -32.0679    7.2490 N   0  0  0  0  0  0  0  0  0  0  0  0
   27.9256  -30.9233    9.0031 C   0  0  0  0  0  0  0  0  0  0  0  0
   27.2914  -29.8577    8.7965 O   0  0  0  0  0  0  0  0  0  0  0  0
   28.2670  -31.2033   10.3078 O   0  0  0  0  0  0  0  0  0  0  0  0
  2  1  1  6
  3  2  1  0
  4  5  1  0
  4  3  1  0
  5  6  2  0
  7  2  1  0
  8  7  2  0
  9  5  1  0
 10  7  1  0
 11 10  1  0
 12 13  1  0
 11 12  1  1
 13 14  2  0
 15 14  1  0
 16 15  1  0
 17 16  2  0
 17 13  1  0
 18 11  1  0
 18 19  2  0
 20 18  1  0
 21 20  1  0
 21 22  1  6
 23 22  1  0
 24 23  2  0
 25 26  1  0
 25 24  1  0
 26 27  2  0
 27 23  1  0
 28 21  1  0
 29 28  2  0
 30 28  1  0
M  END
$$$$
