EHH.pdb
     RDKit          3D

 30 31  0  0  1  0  0  0  0  0999 V2000
   25.3151  -37.4740   -2.8765 N   0  0  0  0  0  0  0  0  0  0  0  0
   26.4845  -36.9114   -2.1879 C   0  0  1  0  0  0  0  0  0  0  0  0
   26.9325  -35.7143   -3.0277 C   0  0  0  0  0  0  0  0  0  0  0  0
   28.4618  -35.7983   -3.0750 C   0  0  0  0  0  0  0  0  0  0  0  0
   29.0466  -34.7084   -3.8804 C   0  0  0  0  0  0  0  0  0  0  0  0
   28.2768  -33.8987   -4.4623 O   0  0  0  0  0  0  0  0  0  0  0  0
   26.1014  -36.4047   -0.8616 C   0  0  0  0  0  0  0  0  0  0  0  0
   25.0767  -35.7038   -0.7204 O   0  0  0  0  0  0  0  0  0  0  0  0
   30.4102  -34.5845   -3.9897 O   0  0  0  0  0  0  0  0  0  0  0  0
   26.8457  -36.6645    0.3324 N   0  0  0  0  0  0  0  0  0  0  0  0
   26.5027  -36.1238    1.5967 C   0  0  1  0  0  0  0  0  0  0  0  0
   26.8683  -36.8622    2.8140 C   0  0  0  0  0  0  0  0  0  0  0  0
   26.0681  -38.0652    3.1284 C   0  0  0  0  0  0  0  0  0  0  0  0
   25.1377  -38.7443    2.3948 C   0  0  0  0  0  0  0  0  0  0  0  0
   24.6758  -39.8171    3.0667 N   0  0  0  0  0  0  0  0  0  0  0  0
   25.3136  -39.8271    4.2378 C   0  0  0  0  0  0  0  0  0  0  0  0
   26.1552  -38.7840    4.2972 N   0  0  0  0  0  0  0  0  0  0  0  0
   26.9590  -34.6963    1.7416 C   0  0  0  0  0  0  0  0  0  0  0  0
   28.0883  -34.3742    1.3305 O   0  0  0  0  0  0  0  0  0  0  0  0
   26.1235  -33.7343    2.3329 N   0  0  0  0  0  0  0  0  0  0  0  0
   26.5278  -32.3419    2.5318 C   0  0  1  0  0  0  0  0  0  0  0  0
   25.3999  -31.4090    2.2637 C   0  0  0  0  0  0  0  0  0  0  0  0
   25.1390  -31.3191    0.8078 C   0  0  0  0  0  0  0  0  0  0  0  0
   26.0067  -31.6770   -0.2251 C   0  0  0  0  0  0  0  0  0  0  0  0
   25.4069  -31.4489   -1.3992 N   0  0  0  0  0  0  0  0  0  0  0  0
   24.1923  -30.9599   -1.1395 C   0  0  0  0  0  0  0  0  0  0  0  0
   24.0237  -30.8787    0.1906 N   0  0  0  0  0  0  0  0  0  0  0  0
   26.9903  -32.2127    3.9181 C   0  0  0  0  0  0  0  0  0  0  0  0
   26.8067  -33.1236    4.7647 O   0  0  0  0  0  0  0  0  0  0  0  0
   27.6503  -31.0834    4.3497 O   0  0  0  0  0  0  0  0  0  0  0  0
  2  1  1  6
  3  2  1  0
  4  5  1  0
  4  3  1  0
  5  6  2  0
  7  2  1  0
  8  7  2  0
  9  5  1  0
 10  7  1  0
 11 10  1  0
 12 13  1  0
 11 12  1  1
 13 14  2  0
 15 14  1  0
 16 15  1  0
 17 16  2  0
 17 13  1  0
 18 11  1  0
 18 19  2  0
 20 18  1  0
 21 20  1  0
 21 22  1  1
 23 22  1  0
 24 23  2  0
 25 26  1  0
 25 24  1  0
 26 27  2  0
 27 23  1  0
 28 21  1  0
 29 28  2  0
 30 28  1  0
M  END
$$$$
