EHH.pdb
     RDKit          3D

 30 31  0  0  1  0  0  0  0  0999 V2000
   19.7694  -14.7432  -16.7971 N   0  0  0  0  0  0  0  0  0  0  0  0
   18.6557  -14.6771  -17.7529 C   0  0  1  0  0  0  0  0  0  0  0  0
   17.7636  -15.8802  -17.4442 C   0  0  0  0  0  0  0  0  0  0  0  0
   17.6387  -15.9148  -15.9173 C   0  0  0  0  0  0  0  0  0  0  0  0
   16.8819  -17.0947  -15.4551 C   0  0  0  0  0  0  0  0  0  0  0  0
   16.9289  -17.4110  -14.2366 O   0  0  0  0  0  0  0  0  0  0  0  0
   17.8581  -13.4629  -17.5246 C   0  0  0  0  0  0  0  0  0  0  0  0
   16.8930  -13.1869  -18.2686 O   0  0  0  0  0  0  0  0  0  0  0  0
   16.1398  -17.8323  -16.3450 O   0  0  0  0  0  0  0  0  0  0  0  0
   18.1145  -12.5320  -16.4687 N   0  0  0  0  0  0  0  0  0  0  0  0
   17.2647  -11.4372  -16.1727 C   0  0  1  0  0  0  0  0  0  0  0  0
   16.5533  -11.4105  -14.8867 C   0  0  0  0  0  0  0  0  0  0  0  0
   15.4450  -12.3748  -14.7190 C   0  0  0  0  0  0  0  0  0  0  0  0
   14.9877  -13.3711  -15.5335 C   0  0  0  0  0  0  0  0  0  0  0  0
   13.9623  -14.0341  -14.9638 N   0  0  0  0  0  0  0  0  0  0  0  0
   13.7606  -13.4608  -13.7769 C   0  0  0  0  0  0  0  0  0  0  0  0
   14.6397  -12.4616  -13.6080 N   0  0  0  0  0  0  0  0  0  0  0  0
   17.9593  -10.1158  -16.3687 C   0  0  0  0  0  0  0  0  0  0  0  0
   19.1322   -9.9812  -15.9756 O   0  0  0  0  0  0  0  0  0  0  0  0
   17.2963   -9.0434  -16.9879 N   0  0  0  0  0  0  0  0  0  0  0  0
   17.9342   -7.7505  -17.2397 C   0  0  1  0  0  0  0  0  0  0  0  0
   17.0925   -6.8960  -18.1204 C   0  0  0  0  0  0  0  0  0  0  0  0
   17.7755   -5.6108  -18.3987 C   0  0  0  0  0  0  0  0  0  0  0  0
   18.1520   -4.6406  -17.4687 C   0  0  0  0  0  0  0  0  0  0  0  0
   18.7431   -3.6259  -18.1099 N   0  0  0  0  0  0  0  0  0  0  0  0
   18.7509   -3.9250  -19.4108 C   0  0  0  0  0  0  0  0  0  0  0  0
   18.1683   -5.1217  -19.5925 N   0  0  0  0  0  0  0  0  0  0  0  0
   18.1470   -7.1053  -15.9395 C   0  0  0  0  0  0  0  0  0  0  0  0
   19.1576   -6.3933  -15.7114 O   0  0  0  0  0  0  0  0  0  0  0  0
   17.2422   -7.2522  -14.9114 O   0  0  0  0  0  0  0  0  0  0  0  0
  2  1  1  1
  3  2  1  0
  4  5  1  0
  4  3  1  0
  5  6  2  0
  7  2  1  0
  8  7  2  0
  9  5  1  0
 10  7  1  0
 11 10  1  0
 12 13  1  0
 11 12  1  1
 13 14  2  0
 15 14  1  0
 16 15  1  0
 17 16  2  0
 17 13  1  0
 18 11  1  0
 18 19  2  0
 20 18  1  0
 21 20  1  0
 21 22  1  6
 23 22  1  0
 24 23  2  0
 25 26  1  0
 25 24  1  0
 26 27  2  0
 27 23  1  0
 28 21  1  0
 29 28  2  0
 30 28  1  0
M  END
$$$$
