EHH.pdb
     RDKit          3D

 30 31  0  0  1  0  0  0  0  0999 V2000
   20.3612  -14.8741  -18.0112 N   0  0  0  0  0  0  0  0  0  0  0  0
   21.1683  -13.9057  -17.2569 C   0  0  1  0  0  0  0  0  0  0  0  0
   22.4334  -13.6759  -18.0848 C   0  0  0  0  0  0  0  0  0  0  0  0
   22.0236  -13.9383  -19.5379 C   0  0  0  0  0  0  0  0  0  0  0  0
   23.1293  -13.6675  -20.4773 C   0  0  0  0  0  0  0  0  0  0  0  0
   23.0726  -12.6426  -21.2077 O   0  0  0  0  0  0  0  0  0  0  0  0
   20.4626  -12.6194  -17.1583 C   0  0  0  0  0  0  0  0  0  0  0  0
   20.0271  -12.0529  -18.1833 O   0  0  0  0  0  0  0  0  0  0  0  0
   24.2009  -14.5237  -20.5493 O   0  0  0  0  0  0  0  0  0  0  0  0
   20.2262  -11.9366  -15.9233 N   0  0  0  0  0  0  0  0  0  0  0  0
   19.4922  -10.7279  -15.8302 C   0  0  1  0  0  0  0  0  0  0  0  0
   18.3134  -10.6722  -14.9537 C   0  0  0  0  0  0  0  0  0  0  0  0
   17.1875  -11.5679  -15.2946 C   0  0  0  0  0  0  0  0  0  0  0  0
   16.5312  -11.7802  -16.4733 C   0  0  0  0  0  0  0  0  0  0  0  0
   15.5760  -12.7206  -16.3366 N   0  0  0  0  0  0  0  0  0  0  0  0
   15.6195  -13.1146  -15.0634 C   0  0  0  0  0  0  0  0  0  0  0  0
   16.5801  -12.4358  -14.4182 N   0  0  0  0  0  0  0  0  0  0  0  0
   20.3801   -9.5517  -15.5219 C   0  0  0  0  0  0  0  0  0  0  0  0
   21.2444   -9.6587  -14.6333 O   0  0  0  0  0  0  0  0  0  0  0  0
   20.2396   -8.3447  -16.2265 N   0  0  0  0  0  0  0  0  0  0  0  0
   21.0466   -7.1573  -15.9421 C   0  0  1  0  0  0  0  0  0  0  0  0
   20.7908   -6.0803  -16.9365 C   0  0  0  0  0  0  0  0  0  0  0  0
   21.7185   -4.9455  -16.7188 C   0  0  0  0  0  0  0  0  0  0  0  0
   23.1045   -5.0100  -16.5686 C   0  0  0  0  0  0  0  0  0  0  0  0
   23.5835   -3.7732  -16.3919 N   0  0  0  0  0  0  0  0  0  0  0  0
   22.5461   -2.9339  -16.4257 C   0  0  0  0  0  0  0  0  0  0  0  0
   21.4171   -3.6345  -16.6226 N   0  0  0  0  0  0  0  0  0  0  0  0
   20.7034   -6.7070  -14.5887 C   0  0  0  0  0  0  0  0  0  0  0  0
   19.5428   -6.8349  -14.1229 O   0  0  0  0  0  0  0  0  0  0  0  0
   21.6445   -6.1252  -13.7682 O   0  0  0  0  0  0  0  0  0  0  0  0
  2  1  1  6
  3  2  1  0
  4  5  1  0
  4  3  1  0
  5  6  2  0
  7  2  1  0
  8  7  2  0
  9  5  1  0
 10  7  1  0
 11 10  1  0
 12 13  1  0
 11 12  1  1
 13 14  2  0
 15 14  1  0
 16 15  1  0
 17 16  2  0
 17 13  1  0
 18 11  1  0
 18 19  2  0
 20 18  1  0
 21 20  1  0
 21 22  1  6
 23 22  1  0
 24 23  2  0
 25 26  1  0
 25 24  1  0
 26 27  2  0
 27 23  1  0
 28 21  1  0
 29 28  2  0
 30 28  1  0
M  END
$$$$
