EHH.pdb
     RDKit          3D

 30 31  0  0  1  0  0  0  0  0999 V2000
   21.7504  -15.3544  -16.0807 N   0  0  0  0  0  0  0  0  0  0  0  0
   21.1478  -14.2424  -16.8282 C   0  0  1  0  0  0  0  0  0  0  0  0
   19.6343  -14.4321  -16.7183 C   0  0  0  0  0  0  0  0  0  0  0  0
   19.2876  -15.5374  -17.7214 C   0  0  0  0  0  0  0  0  0  0  0  0
   17.8320  -15.7677  -17.8028 C   0  0  0  0  0  0  0  0  0  0  0  0
   17.2214  -16.1820  -16.7818 O   0  0  0  0  0  0  0  0  0  0  0  0
   21.4817  -12.9592  -16.1923 C   0  0  0  0  0  0  0  0  0  0  0  0
   21.3350  -12.8023  -14.9614 O   0  0  0  0  0  0  0  0  0  0  0  0
   17.1592  -15.5319  -18.9769 O   0  0  0  0  0  0  0  0  0  0  0  0
   21.9839  -11.8262  -16.9074 N   0  0  0  0  0  0  0  0  0  0  0  0
   22.3870  -10.6233  -16.2760 C   0  0  1  0  0  0  0  0  0  0  0  0
   23.7807  -10.1760  -16.4113 C   0  0  0  0  0  0  0  0  0  0  0  0
   24.8280  -11.1121  -15.9497 C   0  0  0  0  0  0  0  0  0  0  0  0
   24.7415  -12.3576  -15.3960 C   0  0  0  0  0  0  0  0  0  0  0  0
   25.9643  -12.8690  -15.1537 N   0  0  0  0  0  0  0  0  0  0  0  0
   26.8406  -11.9473  -15.5545 C   0  0  0  0  0  0  0  0  0  0  0  0
   26.1809  -10.8832  -16.0364 N   0  0  0  0  0  0  0  0  0  0  0  0
   21.4753   -9.4748  -16.6174 C   0  0  0  0  0  0  0  0  0  0  0  0
   21.1238   -9.3079  -17.7992 O   0  0  0  0  0  0  0  0  0  0  0  0
   21.0226   -8.5984  -15.6173 N   0  0  0  0  0  0  0  0  0  0  0  0
   20.1432   -7.4614  -15.8923 C   0  0  1  0  0  0  0  0  0  0  0  0
   18.9952   -7.4259  -14.9462 C   0  0  0  0  0  0  0  0  0  0  0  0
   18.1741   -6.2140  -15.1756 C   0  0  0  0  0  0  0  0  0  0  0  0
   17.8500   -5.6388  -16.4052 C   0  0  0  0  0  0  0  0  0  0  0  0
   17.0919   -4.5564  -16.1957 N   0  0  0  0  0  0  0  0  0  0  0  0
   16.9287   -4.4315  -14.8768 C   0  0  0  0  0  0  0  0  0  0  0  0
   17.5793   -5.4285  -14.2547 N   0  0  0  0  0  0  0  0  0  0  0  0
   20.9513   -6.2426  -15.7744 C   0  0  0  0  0  0  0  0  0  0  0  0
   21.9916   -6.2038  -15.0698 O   0  0  0  0  0  0  0  0  0  0  0  0
   20.6025   -5.0862  -16.4365 O   0  0  0  0  0  0  0  0  0  0  0  0
  2  1  1  1
  3  2  1  0
  4  5  1  0
  4  3  1  0
  5  6  2  0
  7  2  1  0
  8  7  2  0
  9  5  1  0
 10  7  1  0
 11 10  1  0
 12 13  1  0
 11 12  1  6
 13 14  2  0
 15 14  1  0
 16 15  1  0
 17 16  2  0
 17 13  1  0
 18 11  1  0
 18 19  2  0
 20 18  1  0
 21 20  1  0
 21 22  1  1
 23 22  1  0
 24 23  2  0
 25 26  1  0
 25 24  1  0
 26 27  2  0
 27 23  1  0
 28 21  1  0
 29 28  2  0
 30 28  1  0
M  END
$$$$
