EHH.pdb
     RDKit          3D

 30 31  0  0  1  0  0  0  0  0999 V2000
   14.1388  -16.2304    4.5716 N   0  0  0  0  0  0  0  0  0  0  0  0
   15.5668  -15.9716    4.3431 C   0  0  1  0  0  0  0  0  0  0  0  0
   15.7831  -14.4917    4.6618 C   0  0  0  0  0  0  0  0  0  0  0  0
   15.1212  -13.7254    3.5116 C   0  0  0  0  0  0  0  0  0  0  0  0
   15.2060  -12.2646    3.7048 C   0  0  0  0  0  0  0  0  0  0  0  0
   15.7464  -11.8176    4.7513 O   0  0  0  0  0  0  0  0  0  0  0  0
   16.3842  -16.7523    5.2837 C   0  0  0  0  0  0  0  0  0  0  0  0
   15.9209  -17.1023    6.3901 O   0  0  0  0  0  0  0  0  0  0  0  0
   14.7015  -11.4109    2.7544 O   0  0  0  0  0  0  0  0  0  0  0  0
   17.7296  -17.1597    5.0168 N   0  0  0  0  0  0  0  0  0  0  0  0
   18.5222  -17.8828    5.9427 C   0  0  1  0  0  0  0  0  0  0  0  0
   18.9870  -19.2313    5.5872 C   0  0  0  0  0  0  0  0  0  0  0  0
   17.9449  -20.2434    5.3117 C   0  0  0  0  0  0  0  0  0  0  0  0
   16.5819  -20.1572    5.3194 C   0  0  0  0  0  0  0  0  0  0  0  0
   16.0175  -21.3305    4.9726 N   0  0  0  0  0  0  0  0  0  0  0  0
   17.0234  -22.1744    4.7403 C   0  0  0  0  0  0  0  0  0  0  0  0
   18.1908  -21.5434    4.9377 N   0  0  0  0  0  0  0  0  0  0  0  0
   19.6988  -17.0777    6.4267 C   0  0  0  0  0  0  0  0  0  0  0  0
   20.4291  -16.5082    5.5957 O   0  0  0  0  0  0  0  0  0  0  0  0
   19.9741  -16.9666    7.7996 N   0  0  0  0  0  0  0  0  0  0  0  0
   21.0547  -16.1348    8.3310 C   0  0  1  0  0  0  0  0  0  0  0  0
   20.5196  -15.0144    9.1511 C   0  0  0  0  0  0  0  0  0  0  0  0
   20.1523  -13.8697    8.2847 C   0  0  0  0  0  0  0  0  0  0  0  0
   20.8630  -13.3860    7.1853 C   0  0  0  0  0  0  0  0  0  0  0  0
   20.2074  -12.3418    6.6656 N   0  0  0  0  0  0  0  0  0  0  0  0
   19.1093  -12.1527    7.4006 C   0  0  0  0  0  0  0  0  0  0  0  0
   19.0696  -13.0714    8.3799 N   0  0  0  0  0  0  0  0  0  0  0  0
   21.9201  -17.0021    9.1381 C   0  0  0  0  0  0  0  0  0  0  0  0
   21.6212  -18.2000    9.3744 O   0  0  0  0  0  0  0  0  0  0  0  0
   23.1025  -16.5372    9.6701 O   0  0  0  0  0  0  0  0  0  0  0  0
  2  1  1  1
  3  2  1  0
  4  5  1  0
  4  3  1  0
  5  6  2  0
  7  2  1  0
  8  7  2  0
  9  5  1  0
 10  7  1  0
 11 10  1  0
 12 13  1  0
 11 12  1  6
 13 14  2  0
 15 14  1  0
 16 15  1  0
 17 16  2  0
 17 13  1  0
 18 11  1  0
 18 19  2  0
 20 18  1  0
 21 20  1  0
 21 22  1  1
 23 22  1  0
 24 23  2  0
 25 26  1  0
 25 24  1  0
 26 27  2  0
 27 23  1  0
 28 21  1  0
 29 28  2  0
 30 28  1  0
M  END
$$$$
