EHH.pdb
     RDKit          3D

 30 31  0  0  1  0  0  0  0  0999 V2000
   22.3681  -32.3250  -16.1579 N   0  0  0  0  0  0  0  0  0  0  0  0
   21.7565  -31.9783  -14.8679 C   0  0  1  0  0  0  0  0  0  0  0  0
   20.3568  -32.5941  -14.8861 C   0  0  0  0  0  0  0  0  0  0  0  0
   19.4576  -31.5445  -15.5478 C   0  0  0  0  0  0  0  0  0  0  0  0
   18.0581  -32.0034  -15.6448 C   0  0  0  0  0  0  0  0  0  0  0  0
   17.1534  -31.3251  -15.0895 O   0  0  0  0  0  0  0  0  0  0  0  0
   22.5020  -32.6029  -13.7649 C   0  0  0  0  0  0  0  0  0  0  0  0
   22.6705  -33.8405  -13.7319 O   0  0  0  0  0  0  0  0  0  0  0  0
   17.7535  -33.1534  -16.3314 O   0  0  0  0  0  0  0  0  0  0  0  0
   23.0744  -31.8688  -12.6783 N   0  0  0  0  0  0  0  0  0  0  0  0
   23.8385  -32.4719  -11.6484 C   0  0  1  0  0  0  0  0  0  0  0  0
   25.2955  -32.2786  -11.6313 C   0  0  0  0  0  0  0  0  0  0  0  0
   26.0485  -32.7900  -12.7965 C   0  0  0  0  0  0  0  0  0  0  0  0
   25.6256  -33.3834  -13.9516 C   0  0  0  0  0  0  0  0  0  0  0  0
   26.6637  -33.6645  -14.7633 N   0  0  0  0  0  0  0  0  0  0  0  0
   27.7589  -33.2488  -14.1263 C   0  0  0  0  0  0  0  0  0  0  0  0
   27.4138  -32.7199  -12.9427 N   0  0  0  0  0  0  0  0  0  0  0  0
   23.2924  -32.1540  -10.2818 C   0  0  0  0  0  0  0  0  0  0  0  0
   22.8801  -31.0043  -10.0440 O   0  0  0  0  0  0  0  0  0  0  0  0
   23.2458  -33.1399   -9.2823 N   0  0  0  0  0  0  0  0  0  0  0  0
   22.6122  -32.9258   -7.9806 C   0  0  1  0  0  0  0  0  0  0  0  0
   21.8275  -34.1180   -7.5597 C   0  0  0  0  0  0  0  0  0  0  0  0
   21.1833  -33.8755   -6.2475 C   0  0  0  0  0  0  0  0  0  0  0  0
   20.0817  -33.0580   -5.9905 C   0  0  0  0  0  0  0  0  0  0  0  0
   19.8003  -33.1014   -4.6831 N   0  0  0  0  0  0  0  0  0  0  0  0
   20.6872  -33.9178   -4.1099 C   0  0  0  0  0  0  0  0  0  0  0  0
   21.5252  -34.3887   -5.0482 N   0  0  0  0  0  0  0  0  0  0  0  0
   23.6788  -32.6387   -7.0151 C   0  0  0  0  0  0  0  0  0  0  0  0
   23.4292  -32.3802   -5.8104 O   0  0  0  0  0  0  0  0  0  0  0  0
   25.0040  -32.6433   -7.3907 O   0  0  0  0  0  0  0  0  0  0  0  0
  2  1  1  6
  3  2  1  0
  4  5  1  0
  4  3  1  0
  5  6  2  0
  7  2  1  0
  8  7  2  0
  9  5  1  0
 10  7  1  0
 11 10  1  0
 12 13  1  0
 11 12  1  1
 13 14  2  0
 15 14  1  0
 16 15  1  0
 17 16  2  0
 17 13  1  0
 18 11  1  0
 18 19  2  0
 20 18  1  0
 21 20  1  0
 21 22  1  1
 23 22  1  0
 24 23  2  0
 25 26  1  0
 25 24  1  0
 26 27  2  0
 27 23  1  0
 28 21  1  0
 29 28  2  0
 30 28  1  0
M  END
$$$$
