TQV.pdb
     RDKit          3D

 24 23  0  0  1  0  0  0  0  0999 V2000
    8.8295  -12.2821   19.9904 C   0  0  0  0  0  0  0  0  0  0  0  0
    8.1542  -13.1126   18.9206 C   0  0  1  0  0  0  0  0  0  0  0  0
    8.5164  -12.7135   17.6449 O   0  0  0  0  0  0  0  0  0  0  0  0
    8.4019  -14.5924   19.1585 C   0  0  2  0  0  0  0  0  0  0  0  0
    7.8278  -15.3019   18.0415 N   0  0  0  0  0  0  0  0  0  0  0  0
    7.7668  -15.0502   20.4207 C   0  0  0  0  0  0  0  0  0  0  0  0
    6.7200  -15.7553   20.4323 O   0  0  0  0  0  0  0  0  0  0  0  0
   10.0115  -19.2735   22.2137 N   0  0  0  0  0  0  0  0  0  0  0  0
    9.5487  -19.0671   23.5330 C   0  0  0  0  0  0  0  0  0  0  0  0
    9.6847  -19.9450   24.4035 O   0  0  0  0  0  0  0  0  0  0  0  0
    8.8934  -17.7425   23.8112 C   0  0  0  0  0  0  0  0  0  0  0  0
    8.8784  -16.8865   22.5793 C   0  0  0  0  0  0  0  0  0  0  0  0
    8.2570  -15.5657   22.8500 C   0  0  2  0  0  0  0  0  0  0  0  0
    8.3271  -14.7025   21.6578 N   0  0  0  0  0  0  0  0  0  0  0  0
    8.8238  -14.8474   24.0141 C   0  0  0  0  0  0  0  0  0  0  0  0
   10.0353  -14.5984   24.2038 O   0  0  0  0  0  0  0  0  0  0  0  0
    6.0640  -13.5069   27.0010 C   0  0  0  0  0  0  0  0  0  0  0  0
    7.3418  -12.7303   26.6967 C   0  0  2  0  0  0  0  0  0  0  0  0
    7.0321  -11.7039   25.6246 C   0  0  0  0  0  0  0  0  0  0  0  0
    8.4282  -13.6660   26.2061 C   0  0  2  0  0  0  0  0  0  0  0  0
    7.9431  -14.3775   25.0400 N   0  0  0  0  0  0  0  0  0  0  0  0
    8.7155  -14.6322   27.2934 C   0  0  0  0  0  0  0  0  0  0  0  0
    8.3649  -15.8445   27.1658 O   0  0  0  0  0  0  0  0  0  0  0  0
    9.3536  -14.2942   28.4627 O   0  0  0  0  0  0  0  0  0  0  0  0
  2  1  1  1
  3  2  1  0
  4  6  1  0
  4  2  1  0
  4  5  1  6
  6  7  2  0
  8  9  1  0
  9 11  1  0
 10  9  2  0
 11 12  1  0
 13 12  1  6
 14 13  1  0
 14  6  1  0
 15 21  1  0
 15 13  1  0
 16 15  2  0
 18 17  1  6
 19 18  1  0
 20 18  1  0
 20 21  1  6
 22 20  1  0
 22 24  1  0
 23 22  2  0
M  END
$$$$
