TQV.pdb
     RDKit          3D

 24 23  0  0  1  0  0  0  0  0999 V2000
    8.2844  -12.3715   20.2402 C   0  0  0  0  0  0  0  0  0  0  0  0
    7.9674  -13.3296   19.1125 C   0  0  1  0  0  0  0  0  0  0  0  0
    8.2337  -12.7785   17.8701 O   0  0  0  0  0  0  0  0  0  0  0  0
    8.6773  -14.6559   19.3238 C   0  0  2  0  0  0  0  0  0  0  0  0
    8.3675  -15.4870   18.1863 N   0  0  0  0  0  0  0  0  0  0  0  0
    8.2175  -15.3221   20.5692 C   0  0  0  0  0  0  0  0  0  0  0  0
    7.5267  -16.3783   20.5539 O   0  0  0  0  0  0  0  0  0  0  0  0
    9.6636  -19.8024   23.1798 N   0  0  0  0  0  0  0  0  0  0  0  0
   10.0407  -18.8333   24.1369 C   0  0  0  0  0  0  0  0  0  0  0  0
   11.0431  -18.9986   24.8543 O   0  0  0  0  0  0  0  0  0  0  0  0
    9.1680  -17.6121   24.2302 C   0  0  0  0  0  0  0  0  0  0  0  0
    9.1830  -16.8470   22.9398 C   0  0  0  0  0  0  0  0  0  0  0  0
    8.4775  -15.5479   23.0769 C   0  0  2  0  0  0  0  0  0  0  0  0
    8.5471  -14.7819   21.8201 N   0  0  0  0  0  0  0  0  0  0  0  0
    8.9552  -14.7050   24.1965 C   0  0  0  0  0  0  0  0  0  0  0  0
   10.1316  -14.3166   24.3724 O   0  0  0  0  0  0  0  0  0  0  0  0
    6.0290  -13.4647   27.0515 C   0  0  0  0  0  0  0  0  0  0  0  0
    7.1895  -12.5525   26.6646 C   0  0  2  0  0  0  0  0  0  0  0  0
    6.7496  -11.6904   25.4976 C   0  0  0  0  0  0  0  0  0  0  0  0
    8.3990  -13.3726   26.2635 C   0  0  2  0  0  0  0  0  0  0  0  0
    8.0214  -14.2719   25.1911 N   0  0  0  0  0  0  0  0  0  0  0  0
    8.8218  -14.1601   27.4464 C   0  0  0  0  0  0  0  0  0  0  0  0
    8.6361  -15.4147   27.4653 O   0  0  0  0  0  0  0  0  0  0  0  0
    9.4180  -13.6079   28.5547 O   0  0  0  0  0  0  0  0  0  0  0  0
  2  1  1  1
  3  2  1  0
  4  6  1  0
  4  2  1  0
  4  5  1  6
  6  7  2  0
  8  9  1  0
  9 11  1  0
 10  9  2  0
 11 12  1  0
 13 12  1  6
 14 13  1  0
 14  6  1  0
 15 21  1  0
 15 13  1  0
 16 15  2  0
 18 17  1  6
 19 18  1  0
 20 18  1  0
 20 21  1  6
 22 20  1  0
 22 24  1  0
 23 22  2  0
M  END
$$$$
