TQV.pdb
     RDKit          3D

 24 23  0  0  1  0  0  0  0  0999 V2000
    8.2203  -12.5122   20.0302 C   0  0  0  0  0  0  0  0  0  0  0  0
    7.8522  -13.4773   18.9242 C   0  0  1  0  0  0  0  0  0  0  0  0
    8.0983  -12.9487   17.6680 O   0  0  0  0  0  0  0  0  0  0  0  0
    8.5371  -14.8167   19.1351 C   0  0  2  0  0  0  0  0  0  0  0  0
    8.1458  -15.6687   18.0388 N   0  0  0  0  0  0  0  0  0  0  0  0
    8.1264  -15.4368   20.4207 C   0  0  0  0  0  0  0  0  0  0  0  0
    6.9951  -15.9732   20.5802 O   0  0  0  0  0  0  0  0  0  0  0  0
   10.4408  -19.6126   23.6275 N   0  0  0  0  0  0  0  0  0  0  0  0
   11.3460  -18.5680   23.3325 C   0  0  0  0  0  0  0  0  0  0  0  0
   12.5747  -18.7569   23.3685 O   0  0  0  0  0  0  0  0  0  0  0  0
   10.7390  -17.2383   22.9790 C   0  0  0  0  0  0  0  0  0  0  0  0
    9.2427  -17.2939   23.0734 C   0  0  0  0  0  0  0  0  0  0  0  0
    8.6396  -15.9569   22.8443 C   0  0  2  0  0  0  0  0  0  0  0  0
    9.0050  -15.4415   21.5131 N   0  0  0  0  0  0  0  0  0  0  0  0
    8.9749  -14.9473   23.8742 C   0  0  0  0  0  0  0  0  0  0  0  0
    9.9942  -14.2216   23.8857 O   0  0  0  0  0  0  0  0  0  0  0  0
    6.5824  -12.2537   25.0122 C   0  0  0  0  0  0  0  0  0  0  0  0
    7.0368  -12.9988   26.2640 C   0  0  2  0  0  0  0  0  0  0  0  0
    7.2605  -11.9841   27.3680 C   0  0  0  0  0  0  0  0  0  0  0  0
    8.3248  -13.7511   25.9963 C   0  0  2  0  0  0  0  0  0  0  0  0
    8.0810  -14.7501   24.9744 N   0  0  0  0  0  0  0  0  0  0  0  0
    8.7270  -14.4189   27.2575 C   0  0  0  0  0  0  0  0  0  0  0  0
    9.0420  -13.7182   28.2668 O   0  0  0  0  0  0  0  0  0  0  0  0
    8.7832  -15.7833   27.4118 O   0  0  0  0  0  0  0  0  0  0  0  0
  2  1  1  1
  3  2  1  0
  4  6  1  0
  4  2  1  0
  4  5  1  6
  6  7  2  0
  8  9  1  0
  9 11  1  0
 10  9  2  0
 11 12  1  0
 13 12  1  1
 14 13  1  0
 14  6  1  0
 15 21  1  0
 15 13  1  0
 16 15  2  0
 18 17  1  6
 19 18  1  0
 20 18  1  0
 20 21  1  6
 22 20  1  0
 22 24  1  0
 23 22  2  0
M  END
$$$$
