TQV.pdb
     RDKit          3D

 24 23  0  0  1  0  0  0  0  0999 V2000
    8.5547  -12.3074   20.2364 C   0  0  0  0  0  0  0  0  0  0  0  0
    7.8730  -13.2756   19.2941 C   0  0  1  0  0  0  0  0  0  0  0  0
    7.9859  -12.8821   17.9711 O   0  0  0  0  0  0  0  0  0  0  0  0
    8.3783  -14.6896   19.5247 C   0  0  2  0  0  0  0  0  0  0  0  0
    7.7496  -15.5297   18.5349 N   0  0  0  0  0  0  0  0  0  0  0  0
    8.0288  -15.1729   20.8850 C   0  0  0  0  0  0  0  0  0  0  0  0
    6.8572  -15.5245   21.1958 O   0  0  0  0  0  0  0  0  0  0  0  0
   10.8499  -19.4237   23.6900 N   0  0  0  0  0  0  0  0  0  0  0  0
    9.9968  -19.0942   24.7676 C   0  0  0  0  0  0  0  0  0  0  0  0
    9.9084  -19.8344   25.7631 O   0  0  0  0  0  0  0  0  0  0  0  0
    9.2176  -17.8148   24.6353 C   0  0  0  0  0  0  0  0  0  0  0  0
    9.4827  -17.1643   23.3097 C   0  0  0  0  0  0  0  0  0  0  0  0
    8.7830  -15.8595   23.2017 C   0  0  2  0  0  0  0  0  0  0  0  0
    9.0140  -15.2521   21.8792 N   0  0  0  0  0  0  0  0  0  0  0  0
    9.1329  -14.8856   24.2606 C   0  0  0  0  0  0  0  0  0  0  0  0
   10.2710  -14.4114   24.4743 O   0  0  0  0  0  0  0  0  0  0  0  0
    5.9267  -13.4314   26.6689 C   0  0  0  0  0  0  0  0  0  0  0  0
    7.1784  -12.5944   26.4216 C   0  0  2  0  0  0  0  0  0  0  0  0
    6.9543  -11.7578   25.1771 C   0  0  0  0  0  0  0  0  0  0  0  0
    8.3851  -13.4891   26.2222 C   0  0  2  0  0  0  0  0  0  0  0  0
    8.1082  -14.4167   25.1431 N   0  0  0  0  0  0  0  0  0  0  0  0
    8.6006  -14.2420   27.4812 C   0  0  0  0  0  0  0  0  0  0  0  0
    8.3605  -15.4870   27.5179 O   0  0  0  0  0  0  0  0  0  0  0  0
    9.0555  -13.6668   28.6434 O   0  0  0  0  0  0  0  0  0  0  0  0
  2  1  1  1
  3  2  1  0
  4  6  1  0
  4  2  1  0
  4  5  1  6
  6  7  2  0
  8  9  1  0
  9 11  1  0
 10  9  2  0
 11 12  1  0
 13 12  1  1
 14 13  1  0
 14  6  1  0
 15 21  1  0
 15 13  1  0
 16 15  2  0
 18 17  1  6
 19 18  1  0
 20 18  1  0
 20 21  1  6
 22 20  1  0
 22 24  1  0
 23 22  2  0
M  END
$$$$
