TQV.pdb
     RDKit          3D

 24 23  0  0  1  0  0  0  0  0999 V2000
    8.6665  -12.6917   20.0598 C   0  0  0  0  0  0  0  0  0  0  0  0
    8.0933  -13.5985   18.9924 C   0  0  1  0  0  0  0  0  0  0  0  0
    8.5631  -13.2786   17.7295 O   0  0  0  0  0  0  0  0  0  0  0  0
    8.3295  -15.0564   19.3478 C   0  0  2  0  0  0  0  0  0  0  0  0
    7.7584  -15.8481   18.2860 N   0  0  0  0  0  0  0  0  0  0  0  0
    7.6828  -15.4095   20.6375 C   0  0  0  0  0  0  0  0  0  0  0  0
    6.4292  -15.4770   20.7675 O   0  0  0  0  0  0  0  0  0  0  0  0
    4.8155  -18.9281   23.0500 N   0  0  0  0  0  0  0  0  0  0  0  0
    6.1935  -19.1127   23.3038 C   0  0  0  0  0  0  0  0  0  0  0  0
    6.5828  -19.9203   24.1658 O   0  0  0  0  0  0  0  0  0  0  0  0
    7.1409  -18.2852   22.4797 C   0  0  0  0  0  0  0  0  0  0  0  0
    8.0429  -17.4723   23.3608 C   0  0  0  0  0  0  0  0  0  0  0  0
    7.8991  -16.0208   23.0843 C   0  0  2  0  0  0  0  0  0  0  0  0
    8.4666  -15.6825   21.7673 N   0  0  0  0  0  0  0  0  0  0  0  0
    8.4867  -15.1377   24.1173 C   0  0  0  0  0  0  0  0  0  0  0  0
    9.6784  -14.7594   24.1674 O   0  0  0  0  0  0  0  0  0  0  0  0
    6.3077  -12.1369   25.4855 C   0  0  0  0  0  0  0  0  0  0  0  0
    6.9684  -12.8687   26.6502 C   0  0  2  0  0  0  0  0  0  0  0  0
    7.4635  -11.8354   27.6431 C   0  0  0  0  0  0  0  0  0  0  0  0
    8.1348  -13.7030   26.1605 C   0  0  2  0  0  0  0  0  0  0  0  0
    7.6532  -14.6490   25.1732 N   0  0  0  0  0  0  0  0  0  0  0  0
    8.6839  -14.4375   27.3256 C   0  0  0  0  0  0  0  0  0  0  0  0
    8.3614  -15.6499   27.5130 O   0  0  0  0  0  0  0  0  0  0  0  0
    9.5423  -13.8787   28.2417 O   0  0  0  0  0  0  0  0  0  0  0  0
  2  1  1  1
  3  2  1  0
  4  6  1  0
  4  2  1  0
  4  5  1  6
  6  7  2  0
  8  9  1  0
  9 11  1  0
 10  9  2  0
 11 12  1  0
 13 12  1  1
 14 13  1  0
 14  6  1  0
 15 21  1  0
 15 13  1  0
 16 15  2  0
 18 17  1  6
 19 18  1  0
 20 18  1  0
 20 21  1  6
 22 20  1  0
 22 24  1  0
 23 22  2  0
M  END
$$$$
