TQV.pdb
     RDKit          3D

 24 23  0  0  1  0  0  0  0  0999 V2000
   12.3703  -20.0428   18.3997 C   0  0  0  0  0  0  0  0  0  0  0  0
   13.6460  -19.4791   17.8123 C   0  0  1  0  0  0  0  0  0  0  0  0
   14.2395  -20.3547   16.9184 O   0  0  0  0  0  0  0  0  0  0  0  0
   13.3938  -18.1102   17.2040 C   0  0  2  0  0  0  0  0  0  0  0  0
   14.6770  -17.5769   16.8169 N   0  0  0  0  0  0  0  0  0  0  0  0
   12.7469  -17.1963   18.1799 C   0  0  0  0  0  0  0  0  0  0  0  0
   13.3911  -16.6364   19.1096 O   0  0  0  0  0  0  0  0  0  0  0  0
    7.1718  -12.6256   19.4545 N   0  0  0  0  0  0  0  0  0  0  0  0
    7.7327  -13.7020   18.7305 C   0  0  0  0  0  0  0  0  0  0  0  0
    7.2979  -14.0135   17.6077 O   0  0  0  0  0  0  0  0  0  0  0  0
    8.8679  -14.4327   19.3930 C   0  0  0  0  0  0  0  0  0  0  0  0
    9.5698  -15.3265   18.4136 C   0  0  0  0  0  0  0  0  0  0  0  0
   10.6425  -16.1112   19.0751 C   0  0  2  0  0  0  0  0  0  0  0  0
   11.3739  -16.9274   18.0902 N   0  0  0  0  0  0  0  0  0  0  0  0
   10.1768  -16.9746   20.1841 C   0  0  0  0  0  0  0  0  0  0  0  0
    9.5625  -18.0579   20.0622 O   0  0  0  0  0  0  0  0  0  0  0  0
   10.6761  -15.4882   24.1565 C   0  0  0  0  0  0  0  0  0  0  0  0
   10.8730  -16.9743   23.8715 C   0  0  2  0  0  0  0  0  0  0  0  0
   12.3446  -17.2166   23.5991 C   0  0  0  0  0  0  0  0  0  0  0  0
   10.0566  -17.3971   22.6668 C   0  0  2  0  0  0  0  0  0  0  0  0
   10.4302  -16.5729   21.5343 N   0  0  0  0  0  0  0  0  0  0  0  0
    8.6269  -17.1763   22.9915 C   0  0  0  0  0  0  0  0  0  0  0  0
    8.0037  -16.2083   22.4590 O   0  0  0  0  0  0  0  0  0  0  0  0
    7.9109  -17.9711   23.8542 O   0  0  0  0  0  0  0  0  0  0  0  0
  2  1  1  6
  3  2  1  0
  4  6  1  0
  4  2  1  0
  4  5  1  1
  6  7  2  0
  8  9  1  0
  9 11  1  0
 10  9  2  0
 11 12  1  0
 13 12  1  6
 14 13  1  0
 14  6  1  0
 15 21  1  0
 15 13  1  0
 16 15  2  0
 18 17  1  6
 19 18  1  0
 20 18  1  0
 20 21  1  6
 22 20  1  0
 22 24  1  0
 23 22  2  0
M  END
$$$$
