TQV.pdb
     RDKit          3D

 24 23  0  0  1  0  0  0  0  0999 V2000
    8.5058  -12.7960   20.3544 C   0  0  0  0  0  0  0  0  0  0  0  0
    7.7896  -13.7308   19.4039 C   0  0  1  0  0  0  0  0  0  0  0  0
    8.1436  -13.5039   18.0844 O   0  0  0  0  0  0  0  0  0  0  0  0
    7.9970  -15.1769   19.8205 C   0  0  2  0  0  0  0  0  0  0  0  0
    7.3646  -16.0000   18.8189 N   0  0  0  0  0  0  0  0  0  0  0  0
    7.3884  -15.4491   21.1478 C   0  0  0  0  0  0  0  0  0  0  0  0
    6.1399  -15.5301   21.3139 O   0  0  0  0  0  0  0  0  0  0  0  0
    7.9716  -19.9049   24.6603 N   0  0  0  0  0  0  0  0  0  0  0  0
    7.3230  -19.1004   25.6244 C   0  0  0  0  0  0  0  0  0  0  0  0
    6.8812  -19.5940   26.6770 O   0  0  0  0  0  0  0  0  0  0  0  0
    7.2037  -17.6365   25.3015 C   0  0  0  0  0  0  0  0  0  0  0  0
    7.7433  -17.3475   23.9318 C   0  0  0  0  0  0  0  0  0  0  0  0
    7.6759  -15.8971   23.6225 C   0  0  2  0  0  0  0  0  0  0  0  0
    8.2044  -15.6267   22.2739 N   0  0  0  0  0  0  0  0  0  0  0  0
    8.3611  -15.0271   24.6053 C   0  0  0  0  0  0  0  0  0  0  0  0
    9.5857  -15.0328   24.8618 O   0  0  0  0  0  0  0  0  0  0  0  0
    5.8851  -12.5926   27.0914 C   0  0  0  0  0  0  0  0  0  0  0  0
    7.2482  -12.0714   26.6455 C   0  0  2  0  0  0  0  0  0  0  0  0
    7.0554  -11.2474   25.3876 C   0  0  0  0  0  0  0  0  0  0  0  0
    8.1899  -13.2237   26.3590 C   0  0  2  0  0  0  0  0  0  0  0  0
    7.5922  -14.0790   25.3526 N   0  0  0  0  0  0  0  0  0  0  0  0
    8.3649  -13.9863   27.6184 C   0  0  0  0  0  0  0  0  0  0  0  0
    7.8646  -15.1470   27.7250 O   0  0  0  0  0  0  0  0  0  0  0  0
    9.0514  -13.5078   28.7085 O   0  0  0  0  0  0  0  0  0  0  0  0
  2  1  1  1
  3  2  1  0
  4  6  1  0
  4  2  1  0
  4  5  1  6
  6  7  2  0
  8  9  1  0
  9 11  1  0
 10  9  2  0
 11 12  1  0
 13 12  1  1
 14 13  1  0
 14  6  1  0
 15 21  1  0
 15 13  1  0
 16 15  2  0
 18 17  1  6
 19 18  1  0
 20 18  1  0
 20 21  1  6
 22 20  1  0
 22 24  1  0
 23 22  2  0
M  END
$$$$
