KCI.pdb
     RDKit          3D

 24 23  0  0  1  0  0  0  0  0999 V2000
    7.7152  -16.7041   19.2656 N   0  0  0  0  0  0  0  0  0  0  0  0
    8.0953  -15.6953   20.2068 C   0  0  1  0  0  0  0  0  0  0  0  0
    7.2688  -14.4409   20.1436 C   0  0  0  0  0  0  0  0  0  0  0  0
    7.9080  -13.3419   19.3256 C   0  0  0  0  0  0  0  0  0  0  0  0
    7.7280  -13.6764   17.8732 C   0  0  0  0  0  0  0  0  0  0  0  0
    8.4610  -12.7086   16.9672 C   0  0  0  0  0  0  0  0  0  0  0  0
    8.2905  -13.2013   15.6063 N   0  0  0  0  0  0  0  0  0  0  0  0
    7.9621  -16.2014   21.6224 C   0  0  0  0  0  0  0  0  0  0  0  0
    6.8575  -16.6137   22.0401 O   0  0  0  0  0  0  0  0  0  0  0  0
    9.0660  -16.2200   22.4944 N   0  0  0  0  0  0  0  0  0  0  0  0
    8.8954  -16.8294   23.8288 C   0  0  1  0  0  0  0  0  0  0  0  0
    9.6883  -18.1201   23.8387 C   0  0  0  0  0  0  0  0  0  0  0  0
   11.3868  -17.8002   23.4034 S   0  0  0  0  0  0  0  0  0  0  0  0
    9.3987  -15.8665   24.8458 C   0  0  0  0  0  0  0  0  0  0  0  0
   10.3796  -15.1148   24.5036 O   0  0  0  0  0  0  0  0  0  0  0  0
    6.7189  -12.1459   26.8395 C   0  0  0  0  0  0  0  0  0  0  0  0
    7.8789  -13.0318   26.4278 C   0  0  0  0  0  0  0  0  0  0  0  0
    8.4265  -13.8168   27.5814 C   0  0  2  0  0  0  0  0  0  0  0  0
    9.1361  -12.8588   28.5408 C   0  0  0  0  0  0  0  0  0  0  0  0
    9.4619  -14.7855   27.0526 C   0  0  2  0  0  0  0  0  0  0  0  0
    8.8568  -15.7395   26.1470 N   0  0  0  0  0  0  0  0  0  0  0  0
   10.0273  -15.5528   28.1993 C   0  0  0  0  0  0  0  0  0  0  0  0
   11.1248  -15.1135   28.9031 O   0  0  0  0  0  0  0  0  0  0  0  0
    9.4953  -16.6489   28.5553 O   0  0  0  0  0  0  0  0  0  0  0  0
  2  1  1  6
  3  2  1  0
  4  3  1  0
  5  4  1  0
  5  6  1  0
  6  7  1  0
  8  9  2  0
  8  2  1  0
 10  8  1  0
 11 10  1  0
 12 13  1  0
 11 12  1  6
 14 21  1  0
 14 11  1  0
 15 14  2  0
 17 16  1  0
 18 17  1  0
 18 20  1  0
 18 19  1  1
 20 21  1  6
 20 22  1  0
 22 23  1  0
 24 22  2  0
M  END
$$$$
