KCI.pdb
     RDKit          3D

 24 23  0  0  1  0  0  0  0  0999 V2000
    7.7920  -19.5816   22.4725 N   0  0  0  0  0  0  0  0  0  0  0  0
    9.1944  -19.3661   22.2856 C   0  0  1  0  0  0  0  0  0  0  0  0
    9.7739  -20.0473   21.0769 C   0  0  0  0  0  0  0  0  0  0  0  0
    9.1119  -21.3684   20.7578 C   0  0  0  0  0  0  0  0  0  0  0  0
    9.1817  -21.5786   19.2729 C   0  0  0  0  0  0  0  0  0  0  0  0
    8.6190  -22.9222   18.8573 C   0  0  0  0  0  0  0  0  0  0  0  0
    8.8571  -23.0487   17.4251 N   0  0  0  0  0  0  0  0  0  0  0  0
    9.4953  -17.8976   22.1104 C   0  0  0  0  0  0  0  0  0  0  0  0
   10.6375  -17.5286   21.7585 O   0  0  0  0  0  0  0  0  0  0  0  0
    8.5080  -16.9214   22.3372 N   0  0  0  0  0  0  0  0  0  0  0  0
    8.8617  -15.5034   22.1243 C   0  0  1  0  0  0  0  0  0  0  0  0
    7.6716  -14.8369   21.4655 C   0  0  0  0  0  0  0  0  0  0  0  0
    6.2122  -15.0610   22.4638 S   0  0  0  0  0  0  0  0  0  0  0  0
    9.1679  -14.8982   23.4489 C   0  0  0  0  0  0  0  0  0  0  0  0
    9.9797  -13.9058   23.4642 O   0  0  0  0  0  0  0  0  0  0  0  0
    5.8790  -12.4135   25.9289 C   0  0  0  0  0  0  0  0  0  0  0  0
    7.2015  -13.0076   25.4840 C   0  0  0  0  0  0  0  0  0  0  0  0
    7.7496  -13.9783   26.4861 C   0  0  2  0  0  0  0  0  0  0  0  0
    8.2109  -13.2057   27.7240 C   0  0  0  0  0  0  0  0  0  0  0  0
    8.9657  -14.6500   25.8862 C   0  0  2  0  0  0  0  0  0  0  0  0
    8.6157  -15.3534   24.6699 N   0  0  0  0  0  0  0  0  0  0  0  0
    9.4800  -15.6597   26.8553 C   0  0  0  0  0  0  0  0  0  0  0  0
    9.1190  -16.9857   26.7906 O   0  0  0  0  0  0  0  0  0  0  0  0
   10.2777  -15.3075   27.7778 O   0  0  0  0  0  0  0  0  0  0  0  0
  2  1  1  6
  3  2  1  0
  4  3  1  0
  5  4  1  0
  5  6  1  0
  6  7  1  0
  8  9  2  0
  8  2  1  0
 10  8  1  0
 11 10  1  0
 12 13  1  0
 11 12  1  1
 14 21  1  0
 14 11  1  0
 15 14  2  0
 17 16  1  0
 18 17  1  0
 18 20  1  0
 18 19  1  1
 20 21  1  6
 20 22  1  0
 22 23  1  0
 24 22  2  0
M  END
$$$$
