KCI.pdb
     RDKit          3D

 24 23  0  0  1  0  0  0  0  0999 V2000
    6.0093  -16.1936   20.5074 N   0  0  0  0  0  0  0  0  0  0  0  0
    6.9773  -15.4574   21.2619 C   0  0  1  0  0  0  0  0  0  0  0  0
    6.7168  -13.9783   21.3348 C   0  0  0  0  0  0  0  0  0  0  0  0
    7.7334  -13.1523   20.5800 C   0  0  0  0  0  0  0  0  0  0  0  0
    7.9450  -13.7869   19.2360 C   0  0  0  0  0  0  0  0  0  0  0  0
    8.9524  -13.0288   18.3965 C   0  0  0  0  0  0  0  0  0  0  0  0
    9.0395  -13.7258   17.1195 N   0  0  0  0  0  0  0  0  0  0  0  0
    7.0221  -15.9353   22.6928 C   0  0  0  0  0  0  0  0  0  0  0  0
    6.2341  -15.4580   23.5388 O   0  0  0  0  0  0  0  0  0  0  0  0
    7.9421  -16.9177   23.1023 N   0  0  0  0  0  0  0  0  0  0  0  0
    7.8918  -17.3857   24.5021 C   0  0  1  0  0  0  0  0  0  0  0  0
    7.8339  -18.8991   24.4688 C   0  0  0  0  0  0  0  0  0  0  0  0
    8.0262  -19.5569   26.1140 S   0  0  0  0  0  0  0  0  0  0  0  0
    9.1128  -16.8969   25.1984 C   0  0  0  0  0  0  0  0  0  0  0  0
   10.1941  -16.8407   24.5115 O   0  0  0  0  0  0  0  0  0  0  0  0
    9.0806  -13.6731   29.7943 C   0  0  0  0  0  0  0  0  0  0  0  0
    9.2446  -14.9244   28.9535 C   0  0  0  0  0  0  0  0  0  0  0  0
   10.2244  -14.7291   27.8360 C   0  0  2  0  0  0  0  0  0  0  0  0
    9.6427  -13.7274   26.8359 C   0  0  0  0  0  0  0  0  0  0  0  0
   10.3971  -16.0482   27.1149 C   0  0  2  0  0  0  0  0  0  0  0  0
    9.1389  -16.4958   26.5554 N   0  0  0  0  0  0  0  0  0  0  0  0
   10.8402  -17.0762   28.0999 C   0  0  0  0  0  0  0  0  0  0  0  0
   10.0471  -18.1451   28.4481 O   0  0  0  0  0  0  0  0  0  0  0  0
   11.9817  -16.9827   28.6471 O   0  0  0  0  0  0  0  0  0  0  0  0
  2  1  1  6
  3  2  1  0
  4  3  1  0
  5  4  1  0
  5  6  1  0
  6  7  1  0
  8  9  2  0
  8  2  1  0
 10  8  1  0
 11 10  1  0
 12 13  1  0
 11 12  1  6
 14 21  1  0
 14 11  1  0
 15 14  2  0
 17 16  1  0
 18 17  1  0
 18 20  1  0
 18 19  1  6
 20 21  1  1
 20 22  1  0
 22 23  1  0
 24 22  2  0
M  END
$$$$
