KCI.pdb
     RDKit          3D

 24 23  0  0  1  0  0  0  0  0999 V2000
    6.0600  -17.0174   19.1137 N   0  0  0  0  0  0  0  0  0  0  0  0
    6.7282  -16.1378   20.0237 C   0  0  1  0  0  0  0  0  0  0  0  0
    6.3182  -14.6956   19.9107 C   0  0  0  0  0  0  0  0  0  0  0  0
    7.4546  -13.7775   19.5220 C   0  0  0  0  0  0  0  0  0  0  0  0
    7.8083  -14.0537   18.0893 C   0  0  0  0  0  0  0  0  0  0  0  0
    8.9652  -13.2014   17.6102 C   0  0  0  0  0  0  0  0  0  0  0  0
    9.2629  -13.6298   16.2493 N   0  0  0  0  0  0  0  0  0  0  0  0
    6.4509  -16.5305   21.4543 C   0  0  0  0  0  0  0  0  0  0  0  0
    5.2721  -16.6345   21.8593 O   0  0  0  0  0  0  0  0  0  0  0  0
    7.5015  -16.7852   22.3546 N   0  0  0  0  0  0  0  0  0  0  0  0
    7.1659  -17.0403   23.7700 C   0  0  1  0  0  0  0  0  0  0  0  0
    7.5088  -18.4870   24.0601 C   0  0  0  0  0  0  0  0  0  0  0  0
    7.3848  -18.8084   25.8088 S   0  0  0  0  0  0  0  0  0  0  0  0
    7.9630  -16.1065   24.6110 C   0  0  0  0  0  0  0  0  0  0  0  0
    9.2260  -16.0586   24.3945 O   0  0  0  0  0  0  0  0  0  0  0  0
    5.8526  -11.5451   26.5504 C   0  0  0  0  0  0  0  0  0  0  0  0
    6.8646  -12.5206   25.9812 C   0  0  0  0  0  0  0  0  0  0  0  0
    7.5451  -13.3173   27.0531 C   0  0  2  0  0  0  0  0  0  0  0  0
    8.5693  -12.4258   27.7591 C   0  0  0  0  0  0  0  0  0  0  0  0
    8.3009  -14.4531   26.3984 C   0  0  2  0  0  0  0  0  0  0  0  0
    7.4065  -15.2818   25.6175 N   0  0  0  0  0  0  0  0  0  0  0  0
    8.8901  -15.3120   27.4654 C   0  0  0  0  0  0  0  0  0  0  0  0
   10.1572  -15.1005   27.9579 O   0  0  0  0  0  0  0  0  0  0  0  0
    8.2196  -16.2748   27.9497 O   0  0  0  0  0  0  0  0  0  0  0  0
  2  1  1  6
  3  2  1  0
  4  3  1  0
  5  4  1  0
  5  6  1  0
  6  7  1  0
  8  9  2  0
  8  2  1  0
 10  8  1  0
 11 10  1  0
 12 13  1  0
 11 12  1  1
 14 21  1  0
 14 11  1  0
 15 14  2  0
 17 16  1  0
 18 17  1  0
 18 20  1  0
 18 19  1  6
 20 21  1  1
 20 22  1  0
 22 23  1  0
 24 22  2  0
M  END
$$$$
