KCI.pdb
     RDKit          3D

 24 23  0  0  1  0  0  0  0  0999 V2000
   10.0021  -19.5364   20.6330 N   0  0  0  0  0  0  0  0  0  0  0  0
    8.8267  -19.0994   21.3227 C   0  0  1  0  0  0  0  0  0  0  0  0
    8.4331  -19.9606   22.4908 C   0  0  0  0  0  0  0  0  0  0  0  0
    9.1710  -21.2791   22.5395 C   0  0  0  0  0  0  0  0  0  0  0  0
   10.3075  -21.1422   23.5109 C   0  0  0  0  0  0  0  0  0  0  0  0
   11.1085  -22.4213   23.6397 C   0  0  0  0  0  0  0  0  0  0  0  0
   12.2962  -22.0927   24.4178 N   0  0  0  0  0  0  0  0  0  0  0  0
    9.0160  -17.7113   21.8839 C   0  0  0  0  0  0  0  0  0  0  0  0
   10.1098  -17.3850   22.3954 O   0  0  0  0  0  0  0  0  0  0  0  0
    7.9768  -16.7637   21.8449 N   0  0  0  0  0  0  0  0  0  0  0  0
    8.2532  -15.3991   22.3374 C   0  0  1  0  0  0  0  0  0  0  0  0
    7.4185  -14.4442   21.5091 C   0  0  0  0  0  0  0  0  0  0  0  0
    7.7394  -12.7619   22.0028 S   0  0  0  0  0  0  0  0  0  0  0  0
    7.8858  -15.3432   23.7785 C   0  0  0  0  0  0  0  0  0  0  0  0
    6.8607  -16.0198   24.1467 O   0  0  0  0  0  0  0  0  0  0  0  0
    9.6248  -13.5913   29.4450 C   0  0  0  0  0  0  0  0  0  0  0  0
    8.5784  -14.0126   28.4314 C   0  0  0  0  0  0  0  0  0  0  0  0
    9.0647  -13.8602   27.0217 C   0  0  2  0  0  0  0  0  0  0  0  0
    9.0576  -12.3750   26.6525 C   0  0  0  0  0  0  0  0  0  0  0  0
    8.0925  -14.5654   26.1012 C   0  0  2  0  0  0  0  0  0  0  0  0
    8.6000  -14.5963   24.7454 N   0  0  0  0  0  0  0  0  0  0  0  0
    6.8124  -13.8011   26.0829 C   0  0  0  0  0  0  0  0  0  0  0  0
    6.4285  -13.0432   25.0007 O   0  0  0  0  0  0  0  0  0  0  0  0
    6.0361  -13.8361   27.0866 O   0  0  0  0  0  0  0  0  0  0  0  0
  2  1  1  1
  3  2  1  0
  4  3  1  0
  5  4  1  0
  5  6  1  0
  6  7  1  0
  8  9  2  0
  8  2  1  0
 10  8  1  0
 11 10  1  0
 12 13  1  0
 11 12  1  6
 14 21  1  0
 14 11  1  0
 15 14  2  0
 17 16  1  0
 18 17  1  0
 18 20  1  0
 18 19  1  6
 20 21  1  6
 20 22  1  0
 22 23  1  0
 24 22  2  0
M  END
$$$$
