KRA.pdb
     RDKit          3D

 26 25  0  0  1  0  0  0  0  0999 V2000
   17.9792  -22.3778  -11.2747 N   0  0  0  0  0  0  0  0  0  0  0  0
   18.7886  -22.7373  -12.3953 C   0  0  1  0  0  0  0  0  0  0  0  0
   18.0021  -23.1541  -13.6009 C   0  0  0  0  0  0  0  0  0  0  0  0
   16.6388  -22.5724  -13.7150 C   0  0  0  0  0  0  0  0  0  0  0  0
   15.8316  -23.0079  -14.8867 C   0  0  0  0  0  0  0  0  0  0  0  0
   14.4423  -22.4162  -14.9052 C   0  0  0  0  0  0  0  0  0  0  0  0
   13.5261  -23.1741  -14.0702 N   0  0  0  0  0  0  0  0  0  0  0  0
   19.7555  -21.6668  -12.7018 C   0  0  0  0  0  0  0  0  0  0  0  0
   19.3986  -20.4812  -12.4119 O   0  0  0  0  0  0  0  0  0  0  0  0
   28.4697  -21.3771  -12.2859 N   0  0  0  0  0  0  0  0  0  0  0  0
   27.3211  -21.3659  -11.4640 C   0  0  0  0  0  0  0  0  0  0  0  0
   27.4476  -21.5883  -10.1877 N   0  0  0  0  0  0  0  0  0  0  0  0
   26.0087  -21.1222  -11.9514 N   0  0  0  0  0  0  0  0  0  0  0  0
   25.7944  -20.8613  -13.3605 C   0  0  0  0  0  0  0  0  0  0  0  0
   24.4160  -20.2297  -13.5617 C   0  0  0  0  0  0  0  0  0  0  0  0
   23.3182  -21.1877  -13.2477 C   0  0  0  0  0  0  0  0  0  0  0  0
   21.9390  -20.7130  -13.5082 C   0  0  2  0  0  0  0  0  0  0  0  0
   21.0343  -21.8329  -13.2834 N   0  0  0  0  0  0  0  0  0  0  0  0
   21.6828  -20.1377  -14.8184 C   0  0  0  0  0  0  0  0  0  0  0  0
   21.6972  -20.7758  -15.9029 O   0  0  0  0  0  0  0  0  0  0  0  0
   26.6556  -21.5738   -9.5315 C   0  0  0  0  0  0  0  0  0  0  0  0
   20.6652  -16.7413  -15.9341 C   0  0  1  0  0  0  0  0  0  0  0  0
   21.2028  -18.1352  -16.2006 N   0  0  0  0  0  0  0  0  0  0  0  0
   21.3915  -18.7523  -14.9096 C   0  0  0  0  0  0  0  0  0  0  0  0
   22.4181  -18.1269  -17.0087 O   0  0  0  0  0  0  0  0  0  0  0  0
   22.3551  -17.9580  -18.2445 O   0  0  0  0  0  0  0  0  0  0  0  0
  2  1  1  1
  3  2  1  0
  4  5  1  0
  4  3  1  0
  5  6  1  0
  6  7  1  0
  8  2  1  0
  8  9  2  0
 10 11  1  0
 11 12  2  0
 13 11  1  0
 13 14  1  0
 14 15  1  0
 15 16  1  0
 17 18  1  0
 17 16  1  6
 18  8  1  0
 19 17  1  0
 20 19  2  0
 22 21  1  6
 22 23  1  0
 23 19  1  0
 24 22  1  0
 24 26  1  0
 25 24  2  0
M  END
$$$$
