KRA.pdb
     RDKit          3D

 26 25  0  0  1  0  0  0  0  0999 V2000
   23.7729  -22.3436  -19.4575 N   0  0  0  0  0  0  0  0  0  0  0  0
   23.3113  -21.1305  -18.8618 C   0  0  1  0  0  0  0  0  0  0  0  0
   22.3614  -20.3561  -19.7243 C   0  0  0  0  0  0  0  0  0  0  0  0
   22.9876  -19.4807  -20.7496 C   0  0  0  0  0  0  0  0  0  0  0  0
   23.7589  -18.3149  -20.2397 C   0  0  0  0  0  0  0  0  0  0  0  0
   24.3796  -17.4854  -21.3385 C   0  0  0  0  0  0  0  0  0  0  0  0
   25.1826  -16.3999  -20.8018 N   0  0  0  0  0  0  0  0  0  0  0  0
   22.7619  -21.3885  -17.5177 C   0  0  0  0  0  0  0  0  0  0  0  0
   22.1370  -22.4851  -17.3623 O   0  0  0  0  0  0  0  0  0  0  0  0
   26.2310  -21.0333  -12.6241 N   0  0  0  0  0  0  0  0  0  0  0  0
   25.6340  -21.5016  -11.4328 C   0  0  0  0  0  0  0  0  0  0  0  0
   26.2268  -22.4353  -10.7462 N   0  0  0  0  0  0  0  0  0  0  0  0
   24.4019  -21.0083  -10.9250 N   0  0  0  0  0  0  0  0  0  0  0  0
   23.6898  -19.9650  -11.6349 C   0  0  0  0  0  0  0  0  0  0  0  0
   22.7260  -20.5951  -12.6417 C   0  0  0  0  0  0  0  0  0  0  0  0
   23.1028  -20.2683  -14.0462 C   0  0  0  0  0  0  0  0  0  0  0  0
   22.2619  -20.8698  -15.1076 C   0  0  2  0  0  0  0  0  0  0  0  0
   22.8640  -20.5375  -16.3923 N   0  0  0  0  0  0  0  0  0  0  0  0
   20.8573  -20.4955  -15.1187 C   0  0  0  0  0  0  0  0  0  0  0  0
   20.3777  -19.5081  -15.7338 O   0  0  0  0  0  0  0  0  0  0  0  0
   25.8570  -22.8049   -9.8604 C   0  0  0  0  0  0  0  0  0  0  0  0
   18.4701  -19.4284  -14.2515 C   0  0  2  0  0  0  0  0  0  0  0  0
   18.5342  -20.9398  -14.3727 N   0  0  0  0  0  0  0  0  0  0  0  0
   19.9348  -21.2877  -14.3880 C   0  0  0  0  0  0  0  0  0  0  0  0
   17.8114  -21.4442  -15.5359 O   0  0  0  0  0  0  0  0  0  0  0  0
   17.6797  -20.7352  -16.5554 O   0  0  0  0  0  0  0  0  0  0  0  0
  2  1  1  6
  3  2  1  0
  4  5  1  0
  4  3  1  0
  5  6  1  0
  6  7  1  0
  8  2  1  0
  8  9  2  0
 10 11  1  0
 11 12  2  0
 13 11  1  0
 13 14  1  0
 14 15  1  0
 15 16  1  0
 17 18  1  0
 17 16  1  1
 18  8  1  0
 19 17  1  0
 20 19  2  0
 22 21  1  1
 22 23  1  0
 23 19  1  0
 24 22  1  0
 24 26  1  0
 25 24  2  0
M  END
$$$$
