KRA.pdb
     RDKit          3D

 26 25  0  0  1  0  0  0  0  0999 V2000
   24.0682  -18.0275  -16.0391 N   0  0  0  0  0  0  0  0  0  0  0  0
   22.9429  -17.3462  -16.5953 C   0  0  1  0  0  0  0  0  0  0  0  0
   21.6765  -17.5332  -15.8161 C   0  0  0  0  0  0  0  0  0  0  0  0
   21.2196  -18.9384  -15.6545 C   0  0  0  0  0  0  0  0  0  0  0  0
   19.9292  -19.1346  -14.9399 C   0  0  0  0  0  0  0  0  0  0  0  0
   19.5378  -20.5871  -14.8063 C   0  0  0  0  0  0  0  0  0  0  0  0
   18.3105  -20.7433  -14.0444 N   0  0  0  0  0  0  0  0  0  0  0  0
   23.2564  -15.9226  -16.8186 C   0  0  0  0  0  0  0  0  0  0  0  0
   23.8536  -15.3191  -15.8718 O   0  0  0  0  0  0  0  0  0  0  0  0
   23.4659   -9.7220  -21.2148 N   0  0  0  0  0  0  0  0  0  0  0  0
   24.8461   -9.7845  -21.5081 C   0  0  0  0  0  0  0  0  0  0  0  0
   25.5108   -8.6799  -21.6884 N   0  0  0  0  0  0  0  0  0  0  0  0
   25.5708  -11.0017  -21.6212 N   0  0  0  0  0  0  0  0  0  0  0  0
   24.9139  -12.2652  -21.3541 C   0  0  0  0  0  0  0  0  0  0  0  0
   24.4646  -12.3112  -19.8927 C   0  0  0  0  0  0  0  0  0  0  0  0
   23.9683  -13.6634  -19.5096 C   0  0  0  0  0  0  0  0  0  0  0  0
   23.3997  -13.7915  -18.1474 C   0  0  2  0  0  0  0  0  0  0  0  0
   22.9584  -15.1700  -17.9787 N   0  0  0  0  0  0  0  0  0  0  0  0
   22.3128  -12.8887  -17.8057 C   0  0  0  0  0  0  0  0  0  0  0  0
   21.1290  -12.9944  -18.2190 O   0  0  0  0  0  0  0  0  0  0  0  0
   26.5117   -8.6562  -21.9247 C   0  0  0  0  0  0  0  0  0  0  0  0
   20.9794  -11.2490  -15.2802 C   0  0  1  0  0  0  0  0  0  0  0  0
   21.5392  -10.8456  -16.6319 N   0  0  0  0  0  0  0  0  0  0  0  0
   22.5802  -11.7961  -16.9413 C   0  0  0  0  0  0  0  0  0  0  0  0
   22.0063   -9.4632  -16.6600 O   0  0  0  0  0  0  0  0  0  0  0  0
   23.2279   -9.2090  -16.7121 O   0  0  0  0  0  0  0  0  0  0  0  0
  2  1  1  1
  3  2  1  0
  4  5  1  0
  4  3  1  0
  5  6  1  0
  6  7  1  0
  8  2  1  0
  8  9  2  0
 10 11  1  0
 11 12  2  0
 13 11  1  0
 13 14  1  0
 14 15  1  0
 15 16  1  0
 17 18  1  0
 17 16  1  6
 18  8  1  0
 19 17  1  0
 20 19  2  0
 22 21  1  6
 22 23  1  0
 23 19  1  0
 24 22  1  0
 24 26  1  0
 25 24  2  0
M  END
$$$$
