KRA.pdb
     RDKit          3D

 26 25  0  0  1  0  0  0  0  0999 V2000
   20.4163  -23.0478  -13.9301 N   0  0  0  0  0  0  0  0  0  0  0  0
   19.0283  -23.3456  -14.0874 C   0  0  1  0  0  0  0  0  0  0  0  0
   18.6757  -23.8909  -15.4380 C   0  0  0  0  0  0  0  0  0  0  0  0
   18.5961  -22.8926  -16.5364 C   0  0  0  0  0  0  0  0  0  0  0  0
   19.8818  -22.2763  -16.9623 C   0  0  0  0  0  0  0  0  0  0  0  0
   19.7036  -21.1596  -17.9633 C   0  0  0  0  0  0  0  0  0  0  0  0
   20.9808  -20.6143  -18.3905 N   0  0  0  0  0  0  0  0  0  0  0  0
   18.5568  -24.2150  -12.9934 C   0  0  0  0  0  0  0  0  0  0  0  0
   17.3580  -24.6308  -13.0771 O   0  0  0  0  0  0  0  0  0  0  0  0
   20.9506  -30.9559  -12.2168 N   0  0  0  0  0  0  0  0  0  0  0  0
   20.7772  -30.6127  -10.8577 C   0  0  0  0  0  0  0  0  0  0  0  0
   20.3957  -31.5263  -10.0125 N   0  0  0  0  0  0  0  0  0  0  0  0
   20.9971  -29.3065  -10.3431 N   0  0  0  0  0  0  0  0  0  0  0  0
   21.5338  -28.2693  -11.2008 C   0  0  0  0  0  0  0  0  0  0  0  0
   20.4026  -27.3496  -11.6635 C   0  0  0  0  0  0  0  0  0  0  0  0
   19.8765  -26.5156  -10.5459 C   0  0  0  0  0  0  0  0  0  0  0  0
   18.7859  -25.5729  -10.8883 C   0  0  2  0  0  0  0  0  0  0  0  0
   19.3072  -24.6280  -11.8675 N   0  0  0  0  0  0  0  0  0  0  0  0
   18.1818  -24.8443   -9.7849 C   0  0  0  0  0  0  0  0  0  0  0  0
   18.6454  -23.7918   -9.2743 O   0  0  0  0  0  0  0  0  0  0  0  0
   20.1964  -31.3307   -9.0225 C   0  0  0  0  0  0  0  0  0  0  0  0
   14.8690  -25.1201   -8.1570 C   0  0  1  0  0  0  0  0  0  0  0  0
   16.2828  -24.5715   -8.2132 N   0  0  0  0  0  0  0  0  0  0  0  0
   16.9763  -25.3364   -9.2217 C   0  0  0  0  0  0  0  0  0  0  0  0
   16.9526  -24.6026   -6.9169 O   0  0  0  0  0  0  0  0  0  0  0  0
   16.5147  -23.9272   -5.9621 O   0  0  0  0  0  0  0  0  0  0  0  0
  2  1  1  6
  3  2  1  0
  4  5  1  0
  4  3  1  0
  5  6  1  0
  6  7  1  0
  8  2  1  0
  8  9  2  0
 10 11  1  0
 11 12  2  0
 13 11  1  0
 13 14  1  0
 14 15  1  0
 15 16  1  0
 17 18  1  0
 17 16  1  1
 18  8  1  0
 19 17  1  0
 20 19  2  0
 22 21  1  6
 22 23  1  0
 23 19  1  0
 24 22  1  0
 24 26  1  0
 25 24  2  0
M  END
$$$$
