KRA.pdb
     RDKit          3D

 26 25  0  0  1  0  0  0  0  0999 V2000
   19.3406  -23.6630   -9.5783 N   0  0  0  0  0  0  0  0  0  0  0  0
   18.5938  -24.8185   -9.1950 C   0  0  1  0  0  0  0  0  0  0  0  0
   19.2782  -26.1137   -9.5114 C   0  0  0  0  0  0  0  0  0  0  0  0
   19.1398  -26.5915  -10.9122 C   0  0  0  0  0  0  0  0  0  0  0  0
   17.8010  -27.1099  -11.3033 C   0  0  0  0  0  0  0  0  0  0  0  0
   17.7533  -27.6244  -12.7223 C   0  0  0  0  0  0  0  0  0  0  0  0
   16.4291  -28.1094  -13.0721 N   0  0  0  0  0  0  0  0  0  0  0  0
   18.1918  -24.7306   -7.7789 C   0  0  0  0  0  0  0  0  0  0  0  0
   19.0505  -24.2466   -6.9755 O   0  0  0  0  0  0  0  0  0  0  0  0
   12.9347  -21.8036   -2.4748 N   0  0  0  0  0  0  0  0  0  0  0  0
   12.7923  -21.6329   -3.8696 C   0  0  0  0  0  0  0  0  0  0  0  0
   12.4511  -20.4674   -4.3383 N   0  0  0  0  0  0  0  0  0  0  0  0
   13.0020  -22.6739   -4.8139 N   0  0  0  0  0  0  0  0  0  0  0  0
   13.1767  -24.0395   -4.3620 C   0  0  0  0  0  0  0  0  0  0  0  0
   14.6659  -24.3881   -4.3455 C   0  0  0  0  0  0  0  0  0  0  0  0
   15.2039  -24.5790   -5.7223 C   0  0  0  0  0  0  0  0  0  0  0  0
   16.6304  -24.9672   -5.8208 C   0  0  2  0  0  0  0  0  0  0  0  0
   16.9493  -25.1303   -7.2333 N   0  0  0  0  0  0  0  0  0  0  0  0
   17.0353  -26.1577   -5.0914 C   0  0  0  0  0  0  0  0  0  0  0  0
   16.8481  -27.3404   -5.4780 O   0  0  0  0  0  0  0  0  0  0  0  0
   12.3374  -20.2746   -5.3422 C   0  0  0  0  0  0  0  0  0  0  0  0
   18.9772  -26.6404   -1.9558 C   0  0  1  0  0  0  0  0  0  0  0  0
   18.1521  -27.1620   -3.1178 N   0  0  0  0  0  0  0  0  0  0  0  0
   17.6942  -26.0022   -3.8447 C   0  0  0  0  0  0  0  0  0  0  0  0
   17.0604  -28.0310   -2.6901 O   0  0  0  0  0  0  0  0  0  0  0  0
   15.9242  -27.5599   -2.4736 O   0  0  0  0  0  0  0  0  0  0  0  0
  2  1  1  1
  3  2  1  0
  4  5  1  0
  4  3  1  0
  5  6  1  0
  6  7  1  0
  8  2  1  0
  8  9  2  0
 10 11  1  0
 11 12  2  0
 13 11  1  0
 13 14  1  0
 14 15  1  0
 15 16  1  0
 17 18  1  0
 17 16  1  6
 18  8  1  0
 19 17  1  0
 20 19  2  0
 22 21  1  6
 22 23  1  0
 23 19  1  0
 24 22  1  0
 24 26  1  0
 25 24  2  0
M  END
$$$$
