KRA.pdb
     RDKit          3D

 26 25  0  0  1  0  0  0  0  0999 V2000
   19.7667  -24.4269  -13.7253 N   0  0  0  0  0  0  0  0  0  0  0  0
   19.3168  -23.0714  -13.7173 C   0  0  1  0  0  0  0  0  0  0  0  0
   18.6804  -22.6528  -12.4267 C   0  0  0  0  0  0  0  0  0  0  0  0
   17.2168  -22.8903  -12.3220 C   0  0  0  0  0  0  0  0  0  0  0  0
   16.7975  -24.2631  -11.9297 C   0  0  0  0  0  0  0  0  0  0  0  0
   15.2981  -24.4393  -11.8913 C   0  0  0  0  0  0  0  0  0  0  0  0
   14.7910  -24.9867  -13.1381 N   0  0  0  0  0  0  0  0  0  0  0  0
   20.4033  -22.1615  -14.1253 C   0  0  0  0  0  0  0  0  0  0  0  0
   20.1366  -20.9182  -14.1097 O   0  0  0  0  0  0  0  0  0  0  0  0
   26.8450  -22.0056  -17.7973 N   0  0  0  0  0  0  0  0  0  0  0  0
   27.7562  -21.4047  -16.9009 C   0  0  0  0  0  0  0  0  0  0  0  0
   28.7575  -20.7194  -17.3726 N   0  0  0  0  0  0  0  0  0  0  0  0
   27.6477  -21.5024  -15.4874 N   0  0  0  0  0  0  0  0  0  0  0  0
   26.5361  -22.2162  -14.8923 C   0  0  0  0  0  0  0  0  0  0  0  0
   25.2335  -21.4664  -15.1766 C   0  0  0  0  0  0  0  0  0  0  0  0
   24.0507  -22.1836  -14.6215 C   0  0  0  0  0  0  0  0  0  0  0  0
   22.7300  -21.5586  -14.8673 C   0  0  2  0  0  0  0  0  0  0  0  0
   21.7057  -22.5382  -14.5291 N   0  0  0  0  0  0  0  0  0  0  0  0
   22.4887  -21.0466  -16.2063 C   0  0  0  0  0  0  0  0  0  0  0  0
   22.3677  -21.7547  -17.2394 O   0  0  0  0  0  0  0  0  0  0  0  0
   29.4832  -20.2987  -16.7772 C   0  0  0  0  0  0  0  0  0  0  0  0
   20.9691  -18.2573  -17.7000 C   0  0  1  0  0  0  0  0  0  0  0  0
   22.2329  -19.0973  -17.7180 N   0  0  0  0  0  0  0  0  0  0  0  0
   22.3768  -19.6444  -16.3902 C   0  0  0  0  0  0  0  0  0  0  0  0
   23.4054  -18.3441  -18.1516 O   0  0  0  0  0  0  0  0  0  0  0  0
   24.2562  -17.9639  -17.3202 O   0  0  0  0  0  0  0  0  0  0  0  0
  2  1  1  1
  3  2  1  0
  4  5  1  0
  4  3  1  0
  5  6  1  0
  6  7  1  0
  8  2  1  0
  8  9  2  0
 10 11  1  0
 11 12  2  0
 13 11  1  0
 13 14  1  0
 14 15  1  0
 15 16  1  0
 17 18  1  0
 17 16  1  6
 18  8  1  0
 19 17  1  0
 20 19  2  0
 22 21  1  6
 22 23  1  0
 23 19  1  0
 24 22  1  0
 24 26  1  0
 25 24  2  0
M  END
$$$$
