KRA.pdb
     RDKit          3D

 26 25  0  0  1  0  0  0  0  0999 V2000
   15.2985  -21.7320    0.5630 N   0  0  0  0  0  0  0  0  0  0  0  0
   14.7441  -21.4157    1.8407 C   0  0  1  0  0  0  0  0  0  0  0  0
   14.0178  -22.5575    2.4846 C   0  0  0  0  0  0  0  0  0  0  0  0
   12.9704  -23.2071    1.6535 C   0  0  0  0  0  0  0  0  0  0  0  0
   12.1663  -24.2691    2.3167 C   0  0  0  0  0  0  0  0  0  0  0  0
   11.1869  -24.9429    1.3854 C   0  0  0  0  0  0  0  0  0  0  0  0
   10.4214  -25.9729    2.0669 N   0  0  0  0  0  0  0  0  0  0  0  0
   15.7739  -20.8390    2.7249 C   0  0  0  0  0  0  0  0  0  0  0  0
   16.9597  -21.2714    2.5704 O   0  0  0  0  0  0  0  0  0  0  0  0
   17.3141  -12.5519    3.8124 N   0  0  0  0  0  0  0  0  0  0  0  0
   17.8052  -13.1210    5.0081 C   0  0  0  0  0  0  0  0  0  0  0  0
   18.4529  -12.3715    5.8526 N   0  0  0  0  0  0  0  0  0  0  0  0
   17.6341  -14.4883    5.3555 N   0  0  0  0  0  0  0  0  0  0  0  0
   17.2939  -15.4594    4.3353 C   0  0  0  0  0  0  0  0  0  0  0  0
   17.0971  -16.8328    4.9793 C   0  0  0  0  0  0  0  0  0  0  0  0
   16.8882  -17.8973    3.9572 C   0  0  0  0  0  0  0  0  0  0  0  0
   16.6697  -19.2687    4.4740 C   0  0  2  0  0  0  0  0  0  0  0  0
   15.5688  -19.8563    3.7216 N   0  0  0  0  0  0  0  0  0  0  0  0
   16.4067  -19.3959    5.8980 C   0  0  0  0  0  0  0  0  0  0  0  0
   15.3192  -19.1056    6.4605 O   0  0  0  0  0  0  0  0  0  0  0  0
   18.7229  -12.6861    6.7940 C   0  0  0  0  0  0  0  0  0  0  0  0
   17.7508  -21.2204    8.6734 C   0  0  1  0  0  0  0  0  0  0  0  0
   17.2690  -19.8707    8.1744 N   0  0  0  0  0  0  0  0  0  0  0  0
   17.4387  -19.8824    6.7412 C   0  0  0  0  0  0  0  0  0  0  0  0
   17.9533  -18.7536    8.8177 O   0  0  0  0  0  0  0  0  0  0  0  0
   17.8321  -18.5598   10.0455 O   0  0  0  0  0  0  0  0  0  0  0  0
  2  1  1  6
  3  2  1  0
  4  5  1  0
  4  3  1  0
  5  6  1  0
  6  7  1  0
  8  2  1  0
  8  9  2  0
 10 11  1  0
 11 12  2  0
 13 11  1  0
 13 14  1  0
 14 15  1  0
 15 16  1  0
 17 18  1  0
 17 16  1  6
 18  8  1  0
 19 17  1  0
 20 19  2  0
 22 21  1  6
 22 23  1  0
 23 19  1  0
 24 22  1  0
 24 26  1  0
 25 24  2  0
M  END
$$$$
