KRA.pdb
     RDKit          3D

 26 25  0  0  1  0  0  0  0  0999 V2000
   27.4214  -27.7479  -16.3486 N   0  0  0  0  0  0  0  0  0  0  0  0
   26.5384  -26.6268  -16.4069 C   0  0  1  0  0  0  0  0  0  0  0  0
   26.7091  -25.7853  -17.6351 C   0  0  0  0  0  0  0  0  0  0  0  0
   28.0503  -25.1698  -17.8145 C   0  0  0  0  0  0  0  0  0  0  0  0
   28.4334  -24.1236  -16.8280 C   0  0  0  0  0  0  0  0  0  0  0  0
   29.7945  -23.5255  -17.0934 C   0  0  0  0  0  0  0  0  0  0  0  0
   30.2111  -22.6434  -16.0166 N   0  0  0  0  0  0  0  0  0  0  0  0
   25.1409  -27.0564  -16.2138 C   0  0  0  0  0  0  0  0  0  0  0  0
   24.7901  -28.1254  -16.8064 O   0  0  0  0  0  0  0  0  0  0  0  0
   19.2831  -25.7150   -9.6120 N   0  0  0  0  0  0  0  0  0  0  0  0
   18.7289  -26.6628  -10.5005 C   0  0  0  0  0  0  0  0  0  0  0  0
   17.6494  -27.3042  -10.1573 N   0  0  0  0  0  0  0  0  0  0  0  0
   19.2860  -26.9673  -11.7719 N   0  0  0  0  0  0  0  0  0  0  0  0
   20.5690  -26.4129  -12.1539 C   0  0  0  0  0  0  0  0  0  0  0  0
   20.9888  -26.9787  -13.5116 C   0  0  0  0  0  0  0  0  0  0  0  0
   22.3340  -26.4862  -13.9232 C   0  0  0  0  0  0  0  0  0  0  0  0
   22.8216  -26.9398  -15.2467 C   0  0  2  0  0  0  0  0  0  0  0  0
   24.1603  -26.3965  -15.4365 N   0  0  0  0  0  0  0  0  0  0  0  0
   21.9958  -26.6078  -16.3960 C   0  0  0  0  0  0  0  0  0  0  0  0
   22.0372  -25.5187  -17.0248 O   0  0  0  0  0  0  0  0  0  0  0  0
   17.1834  -27.9901  -10.7660 C   0  0  0  0  0  0  0  0  0  0  0  0
   20.9352  -27.6067  -19.2325 C   0  0  1  0  0  0  0  0  0  0  0  0
   20.1837  -27.2469  -17.9641 N   0  0  0  0  0  0  0  0  0  0  0  0
   21.0628  -27.5680  -16.8654 C   0  0  0  0  0  0  0  0  0  0  0  0
   18.8882  -27.9119  -17.8672 O   0  0  0  0  0  0  0  0  0  0  0  0
   18.6638  -28.7300  -16.9507 O   0  0  0  0  0  0  0  0  0  0  0  0
  2  1  1  6
  3  2  1  0
  4  5  1  0
  4  3  1  0
  5  6  1  0
  6  7  1  0
  8  2  1  0
  8  9  2  0
 10 11  1  0
 11 12  2  0
 13 11  1  0
 13 14  1  0
 14 15  1  0
 15 16  1  0
 17 18  1  0
 17 16  1  1
 18  8  1  0
 19 17  1  0
 20 19  2  0
 22 21  1  6
 22 23  1  0
 23 19  1  0
 24 22  1  0
 24 26  1  0
 25 24  2  0
M  END
$$$$
