QNN.pdb
     RDKit          3D

 26 25  0  0  1  0  0  0  0  0999 V2000
    7.6530  -12.2898   27.2780 N   0  0  0  0  0  0  0  0  0  0  0  0
    6.4121  -12.0105   26.6738 C   0  0  0  0  0  0  0  0  0  0  0  0
    5.6279  -11.2119   27.2201 O   0  0  0  0  0  0  0  0  0  0  0  0
    6.0307  -12.6515   25.4031 C   0  0  0  0  0  0  0  0  0  0  0  0
    7.0527  -13.6003   24.8543 C   0  0  0  0  0  0  0  0  0  0  0  0
    6.4741  -14.8282   24.2379 C   0  0  2  0  0  0  0  0  0  0  0  0
    5.8782  -15.7069   25.2361 N   0  0  0  0  0  0  0  0  0  0  0  0
    7.5977  -15.6032   23.6060 C   0  0  0  0  0  0  0  0  0  0  0  0
    8.0564  -16.5612   24.2877 O   0  0  0  0  0  0  0  0  0  0  0  0
    7.5500  -17.2370   19.0048 N   0  0  0  0  0  0  0  0  0  0  0  0
    7.9907  -15.9572   19.4539 C   0  0  0  0  0  0  0  0  0  0  0  0
    7.2694  -14.9678   19.1767 O   0  0  0  0  0  0  0  0  0  0  0  0
    9.2619  -15.8121   20.2227 C   0  0  0  0  0  0  0  0  0  0  0  0
    9.0917  -16.1123   21.6943 C   0  0  2  0  0  0  0  0  0  0  0  0
    8.1096  -15.2831   22.3331 N   0  0  0  0  0  0  0  0  0  0  0  0
   10.4066  -16.0450   22.3953 C   0  0  0  0  0  0  0  0  0  0  0  0
   11.0757  -14.9855   22.4532 O   0  0  0  0  0  0  0  0  0  0  0  0
   10.5153  -19.3066   26.1317 N   0  0  0  0  0  0  0  0  0  0  0  0
   11.3529  -18.1970   25.8463 C   0  0  0  0  0  0  0  0  0  0  0  0
   11.2028  -17.1501   26.5189 O   0  0  0  0  0  0  0  0  0  0  0  0
   12.3796  -18.2460   24.7886 C   0  0  0  0  0  0  0  0  0  0  0  0
   12.2063  -17.1880   23.7377 C   0  0  2  0  0  0  0  0  0  0  0  0
   10.9629  -17.2065   23.0377 N   0  0  0  0  0  0  0  0  0  0  0  0
   13.3789  -17.1685   22.7936 C   0  0  0  0  0  0  0  0  0  0  0  0
   14.6396  -16.7617   23.1986 O   0  0  0  0  0  0  0  0  0  0  0  0
   13.2637  -17.5200   21.5975 O   0  0  0  0  0  0  0  0  0  0  0  0
  2  3  2  0
  2  1  1  0
  4  2  1  0
  5  4  1  0
  6  5  1  0
  6  7  1  1
  8  9  2  0
  8  6  1  0
 11 10  1  0
 11 13  1  0
 12 11  2  0
 14 13  1  6
 14 15  1  0
 15  8  1  0
 16 23  1  0
 16 14  1  0
 17 16  2  0
 18 19  1  0
 19 21  1  0
 20 19  2  0
 22 21  1  6
 22 23  1  0
 22 24  1  0
 24 25  1  0
 26 24  2  0
M  END
$$$$
