QNN.pdb
     RDKit          3D

 26 25  0  0  1  0  0  0  0  0999 V2000
    8.2133  -12.8837   17.0380 N   0  0  0  0  0  0  0  0  0  0  0  0
    8.7904  -13.9126   16.2692 C   0  0  0  0  0  0  0  0  0  0  0  0
    8.4824  -14.0298   15.0681 O   0  0  0  0  0  0  0  0  0  0  0  0
    9.7546  -14.8518   16.8687 C   0  0  0  0  0  0  0  0  0  0  0  0
   10.0290  -14.6169   18.3231 C   0  0  0  0  0  0  0  0  0  0  0  0
   10.2150  -15.8651   19.1166 C   0  0  2  0  0  0  0  0  0  0  0  0
    9.1941  -16.8591   18.8114 N   0  0  0  0  0  0  0  0  0  0  0  0
   10.0496  -15.5187   20.5711 C   0  0  0  0  0  0  0  0  0  0  0  0
   10.8816  -14.6924   21.0376 O   0  0  0  0  0  0  0  0  0  0  0  0
    7.1117  -14.7939   20.9553 N   0  0  0  0  0  0  0  0  0  0  0  0
    6.6475  -15.0845   22.2719 C   0  0  0  0  0  0  0  0  0  0  0  0
    5.4415  -14.8449   22.5253 O   0  0  0  0  0  0  0  0  0  0  0  0
    7.5690  -15.6512   23.3006 C   0  0  0  0  0  0  0  0  0  0  0  0
    8.9754  -15.8442   22.7815 C   0  0  2  0  0  0  0  0  0  0  0  0
    9.0311  -16.0797   21.3667 N   0  0  0  0  0  0  0  0  0  0  0  0
    9.6692  -16.9216   23.5448 C   0  0  0  0  0  0  0  0  0  0  0  0
    9.0563  -17.9214   23.9900 O   0  0  0  0  0  0  0  0  0  0  0  0
   14.6449  -17.1585   22.2952 N   0  0  0  0  0  0  0  0  0  0  0  0
   13.6321  -17.9809   22.8539 C   0  0  0  0  0  0  0  0  0  0  0  0
   13.0313  -18.7804   22.0984 O   0  0  0  0  0  0  0  0  0  0  0  0
   13.2731  -17.9146   24.2829 C   0  0  0  0  0  0  0  0  0  0  0  0
   11.7927  -17.8579   24.5255 C   0  0  2  0  0  0  0  0  0  0  0  0
   11.0835  -16.8526   23.8025 N   0  0  0  0  0  0  0  0  0  0  0  0
   11.4893  -17.8053   25.9992 C   0  0  0  0  0  0  0  0  0  0  0  0
   10.6096  -16.8783   26.5340 O   0  0  0  0  0  0  0  0  0  0  0  0
   12.0216  -18.5998   26.8071 O   0  0  0  0  0  0  0  0  0  0  0  0
  2  3  2  0
  2  1  1  0
  4  2  1  0
  5  4  1  0
  6  5  1  0
  6  7  1  6
  8  9  2  0
  8  6  1  0
 11 10  1  0
 11 13  1  0
 12 11  2  0
 14 13  1  1
 14 15  1  0
 15  8  1  0
 16 23  1  0
 16 14  1  0
 17 16  2  0
 18 19  1  0
 19 21  1  0
 20 19  2  0
 22 21  1  1
 22 23  1  0
 22 24  1  0
 24 25  1  0
 26 24  2  0
M  END
$$$$
