QNN.pdb
     RDKit          3D

 26 25  0  0  1  0  0  0  0  0999 V2000
    7.3117  -15.4198   16.2864 N   0  0  0  0  0  0  0  0  0  0  0  0
    8.1921  -14.3209   16.2984 C   0  0  0  0  0  0  0  0  0  0  0  0
    9.0594  -14.2178   15.4104 O   0  0  0  0  0  0  0  0  0  0  0  0
    8.0993  -13.2916   17.3486 C   0  0  0  0  0  0  0  0  0  0  0  0
    7.5304  -13.7779   18.6470 C   0  0  0  0  0  0  0  0  0  0  0  0
    8.5083  -13.7932   19.7720 C   0  0  2  0  0  0  0  0  0  0  0  0
    9.3513  -14.9815   19.7418 N   0  0  0  0  0  0  0  0  0  0  0  0
    7.7329  -13.8550   21.0595 C   0  0  0  0  0  0  0  0  0  0  0  0
    6.6374  -13.2285   21.0721 O   0  0  0  0  0  0  0  0  0  0  0  0
    6.1899  -18.9489   22.4694 N   0  0  0  0  0  0  0  0  0  0  0  0
    5.9528  -17.5636   22.7108 C   0  0  0  0  0  0  0  0  0  0  0  0
    5.0877  -17.2667   23.5707 O   0  0  0  0  0  0  0  0  0  0  0  0
    6.7098  -16.5161   21.9637 C   0  0  0  0  0  0  0  0  0  0  0  0
    7.3530  -15.4977   22.8769 C   0  0  2  0  0  0  0  0  0  0  0  0
    8.1967  -14.5663   22.1836 N   0  0  0  0  0  0  0  0  0  0  0  0
    8.0822  -16.1789   23.9855 C   0  0  0  0  0  0  0  0  0  0  0  0
    7.4794  -16.7603   24.9193 O   0  0  0  0  0  0  0  0  0  0  0  0
    7.8944  -16.4023   26.7636 N   0  0  0  0  0  0  0  0  0  0  0  0
    8.6814  -15.2329   26.9283 C   0  0  0  0  0  0  0  0  0  0  0  0
    8.2908  -14.3629   27.7416 O   0  0  0  0  0  0  0  0  0  0  0  0
    9.9295  -15.0193   26.1719 C   0  0  0  0  0  0  0  0  0  0  0  0
   10.2658  -16.1488   25.2419 C   0  0  2  0  0  0  0  0  0  0  0  0
    9.5208  -16.1937   24.0256 N   0  0  0  0  0  0  0  0  0  0  0  0
   10.2364  -17.4693   25.9643 C   0  0  0  0  0  0  0  0  0  0  0  0
    9.5263  -18.5551   25.4786 O   0  0  0  0  0  0  0  0  0  0  0  0
   10.8545  -17.6427   27.0392 O   0  0  0  0  0  0  0  0  0  0  0  0
  2  3  2  0
  2  1  1  0
  4  2  1  0
  5  4  1  0
  6  5  1  0
  6  7  1  6
  8  9  2  0
  8  6  1  0
 11 10  1  0
 11 13  1  0
 12 11  2  0
 14 13  1  6
 14 15  1  0
 15  8  1  0
 16 23  1  0
 16 14  1  0
 17 16  2  0
 18 19  1  0
 19 21  1  0
 20 19  2  0
 22 21  1  1
 22 23  1  0
 22 24  1  0
 24 25  1  0
 26 24  2  0
M  END
$$$$
