QNN.pdb
     RDKit          3D

 26 25  0  0  1  0  0  0  0  0999 V2000
    8.9166  -18.0899   12.4245 N   0  0  0  0  0  0  0  0  0  0  0  0
    9.6741  -19.2614   12.2335 C   0  0  0  0  0  0  0  0  0  0  0  0
    9.7685  -19.7539   11.0934 O   0  0  0  0  0  0  0  0  0  0  0  0
   10.3567  -19.9112   13.3661 C   0  0  0  0  0  0  0  0  0  0  0  0
   10.1013  -19.2699   14.6964 C   0  0  0  0  0  0  0  0  0  0  0  0
   11.0952  -19.6315   15.7470 C   0  0  2  0  0  0  0  0  0  0  0  0
   11.2590  -21.0747   15.8650 N   0  0  0  0  0  0  0  0  0  0  0  0
   10.5644  -19.1543   17.0711 C   0  0  0  0  0  0  0  0  0  0  0  0
   10.4137  -17.9066   17.1857 O   0  0  0  0  0  0  0  0  0  0  0  0
    7.8391  -22.6147   19.0846 N   0  0  0  0  0  0  0  0  0  0  0  0
    8.6257  -21.7427   19.8936 C   0  0  0  0  0  0  0  0  0  0  0  0
    9.4493  -22.2708   20.6802 O   0  0  0  0  0  0  0  0  0  0  0  0
    8.4671  -20.2614   19.8001 C   0  0  0  0  0  0  0  0  0  0  0  0
    9.7381  -19.5640   19.3722 C   0  0  2  0  0  0  0  0  0  0  0  0
   10.2538  -20.0413   18.1207 N   0  0  0  0  0  0  0  0  0  0  0  0
   10.7632  -19.6397   20.4530 C   0  0  0  0  0  0  0  0  0  0  0  0
   10.5328  -19.2346   21.6175 O   0  0  0  0  0  0  0  0  0  0  0  0
   12.7300  -19.8227   23.9773 N   0  0  0  0  0  0  0  0  0  0  0  0
   13.1549  -21.0877   23.4943 C   0  0  0  0  0  0  0  0  0  0  0  0
   13.5328  -21.9456   24.3263 O   0  0  0  0  0  0  0  0  0  0  0  0
   13.1650  -21.4103   22.0551 C   0  0  0  0  0  0  0  0  0  0  0  0
   13.1128  -20.1985   21.1703 C   0  0  2  0  0  0  0  0  0  0  0  0
   12.0699  -20.1858   20.1964 N   0  0  0  0  0  0  0  0  0  0  0  0
   14.4579  -19.9237   20.5524 C   0  0  0  0  0  0  0  0  0  0  0  0
   15.4214  -19.1676   21.1998 O   0  0  0  0  0  0  0  0  0  0  0  0
   14.7637  -20.3680   19.4226 O   0  0  0  0  0  0  0  0  0  0  0  0
  2  3  2  0
  2  1  1  0
  4  2  1  0
  5  4  1  0
  6  5  1  0
  6  7  1  1
  8  9  2  0
  8  6  1  0
 11 10  1  0
 11 13  1  0
 12 11  2  0
 14 13  1  1
 14 15  1  0
 15  8  1  0
 16 23  1  0
 16 14  1  0
 17 16  2  0
 18 19  1  0
 19 21  1  0
 20 19  2  0
 22 21  1  6
 22 23  1  0
 22 24  1  0
 24 25  1  0
 26 24  2  0
M  END
$$$$
