QNN.pdb
     RDKit          3D

 26 25  0  0  1  0  0  0  0  0999 V2000
    7.1001  -12.1170   18.1813 N   0  0  0  0  0  0  0  0  0  0  0  0
    7.0980  -13.3873   17.5737 C   0  0  0  0  0  0  0  0  0  0  0  0
    6.7199  -13.5036   16.3927 O   0  0  0  0  0  0  0  0  0  0  0  0
    7.5382  -14.5801   18.3182 C   0  0  0  0  0  0  0  0  0  0  0  0
    8.0143  -14.3023   19.7118 C   0  0  0  0  0  0  0  0  0  0  0  0
    8.4225  -15.5196   20.4694 C   0  0  2  0  0  0  0  0  0  0  0  0
    8.7686  -15.2083   21.8503 N   0  0  0  0  0  0  0  0  0  0  0  0
    9.6703  -16.0659   19.8313 C   0  0  0  0  0  0  0  0  0  0  0  0
    9.4997  -16.7388   18.7774 O   0  0  0  0  0  0  0  0  0  0  0  0
   12.6443  -13.7930   20.1234 N   0  0  0  0  0  0  0  0  0  0  0  0
   13.0244  -14.4309   18.9059 C   0  0  0  0  0  0  0  0  0  0  0  0
   13.6061  -13.7287   18.0430 O   0  0  0  0  0  0  0  0  0  0  0  0
   12.7365  -15.8777   18.6777 C   0  0  0  0  0  0  0  0  0  0  0  0
   12.1026  -16.5432   19.8777 C   0  0  2  0  0  0  0  0  0  0  0  0
   10.9517  -15.8432   20.3731 N   0  0  0  0  0  0  0  0  0  0  0  0
   13.1168  -16.7596   20.9498 C   0  0  0  0  0  0  0  0  0  0  0  0
   14.2040  -17.3447   20.7282 O   0  0  0  0  0  0  0  0  0  0  0  0
   16.6983  -17.1355   23.3506 N   0  0  0  0  0  0  0  0  0  0  0  0
   15.7048  -16.1241   23.4153 C   0  0  0  0  0  0  0  0  0  0  0  0
   15.8985  -15.0591   22.7834 O   0  0  0  0  0  0  0  0  0  0  0  0
   14.4683  -16.2939   24.2010 C   0  0  0  0  0  0  0  0  0  0  0  0
   13.3704  -16.9859   23.4462 C   0  0  2  0  0  0  0  0  0  0  0  0
   12.8825  -16.3005   22.2936 N   0  0  0  0  0  0  0  0  0  0  0  0
   12.2531  -17.3912   24.3702 C   0  0  0  0  0  0  0  0  0  0  0  0
   12.4758  -18.1759   25.4899 O   0  0  0  0  0  0  0  0  0  0  0  0
   11.0705  -17.0352   24.1648 O   0  0  0  0  0  0  0  0  0  0  0  0
  2  3  2  0
  2  1  1  0
  4  2  1  0
  5  4  1  0
  6  5  1  0
  6  7  1  1
  8  9  2  0
  8  6  1  0
 11 10  1  0
 11 13  1  0
 12 11  2  0
 14 13  1  6
 14 15  1  0
 15  8  1  0
 16 23  1  0
 16 14  1  0
 17 16  2  0
 18 19  1  0
 19 21  1  0
 20 19  2  0
 22 21  1  1
 22 23  1  0
 22 24  1  0
 24 25  1  0
 26 24  2  0
M  END
$$$$
