QNN.pdb
     RDKit          3D

 26 25  0  0  1  0  0  0  0  0999 V2000
   10.0030  -17.3226   13.8192 N   0  0  0  0  0  0  0  0  0  0  0  0
    8.8203  -16.7215   14.2910 C   0  0  0  0  0  0  0  0  0  0  0  0
    7.8474  -16.5928   13.5240 O   0  0  0  0  0  0  0  0  0  0  0  0
    8.7198  -16.2434   15.6811 C   0  0  0  0  0  0  0  0  0  0  0  0
    9.9799  -16.3855   16.4798 C   0  0  0  0  0  0  0  0  0  0  0  0
    9.8197  -17.1756   17.7337 C   0  0  2  0  0  0  0  0  0  0  0  0
    8.5437  -17.8783   17.7727 N   0  0  0  0  0  0  0  0  0  0  0  0
    9.8104  -16.2133   18.8899 C   0  0  0  0  0  0  0  0  0  0  0  0
   10.8682  -15.5460   19.0584 O   0  0  0  0  0  0  0  0  0  0  0  0
    6.7476  -12.9106   19.2813 N   0  0  0  0  0  0  0  0  0  0  0  0
    7.6748  -13.1461   20.3389 C   0  0  0  0  0  0  0  0  0  0  0  0
    8.5528  -12.2724   20.5427 O   0  0  0  0  0  0  0  0  0  0  0  0
    7.5945  -14.3871   21.1647 C   0  0  0  0  0  0  0  0  0  0  0  0
    8.7747  -15.3072   20.9519 C   0  0  2  0  0  0  0  0  0  0  0  0
    8.6929  -16.0633   19.7347 N   0  0  0  0  0  0  0  0  0  0  0  0
    8.9648  -16.1933   22.1367 C   0  0  0  0  0  0  0  0  0  0  0  0
    8.0383  -16.9086   22.5875 O   0  0  0  0  0  0  0  0  0  0  0  0
   13.5139  -16.7926   23.8063 N   0  0  0  0  0  0  0  0  0  0  0  0
   12.7954  -17.7739   23.0749 C   0  0  0  0  0  0  0  0  0  0  0  0
   13.2995  -18.2128   22.0146 O   0  0  0  0  0  0  0  0  0  0  0  0
   11.4854  -18.2796   23.5260 C   0  0  0  0  0  0  0  0  0  0  0  0
   10.5073  -17.1910   23.8609 C   0  0  2  0  0  0  0  0  0  0  0  0
   10.2326  -16.2603   22.8146 N   0  0  0  0  0  0  0  0  0  0  0  0
   10.8906  -16.4965   25.1404 C   0  0  0  0  0  0  0  0  0  0  0  0
   11.0340  -17.1850   26.3339 O   0  0  0  0  0  0  0  0  0  0  0  0
   11.0963  -15.2622   25.1803 O   0  0  0  0  0  0  0  0  0  0  0  0
  2  3  2  0
  2  1  1  0
  4  2  1  0
  5  4  1  0
  6  5  1  0
  6  7  1  6
  8  9  2  0
  8  6  1  0
 11 10  1  0
 11 13  1  0
 12 11  2  0
 14 13  1  1
 14 15  1  0
 15  8  1  0
 16 23  1  0
 16 14  1  0
 17 16  2  0
 18 19  1  0
 19 21  1  0
 20 19  2  0
 22 21  1  6
 22 23  1  0
 22 24  1  0
 24 25  1  0
 26 24  2  0
M  END
$$$$
