FGI.pdb
     RDKit          3D

 24 24  0  0  1  0  0  0  0  0999 V2000
   31.6243  -36.1958   -2.2169 N   0  0  0  0  0  0  0  0  0  0  0  0
   32.8866  -35.6918   -2.6692 C   0  0  1  0  0  0  0  0  0  0  0  0
   32.7365  -34.2233   -2.9826 C   0  0  0  0  0  0  0  0  0  0  0  0
   31.7027  -34.0931   -4.0419 C   0  0  0  0  0  0  0  0  0  0  0  0
   30.4182  -33.7137   -3.7605 C   0  0  0  0  0  0  0  0  0  0  0  0
   29.4876  -33.6068   -4.7894 C   0  0  0  0  0  0  0  0  0  0  0  0
   29.8107  -33.8712   -6.0990 C   0  0  0  0  0  0  0  0  0  0  0  0
   31.1033  -34.2527   -6.3800 C   0  0  0  0  0  0  0  0  0  0  0  0
   32.0405  -34.3614   -5.3521 C   0  0  0  0  0  0  0  0  0  0  0  0
   33.9474  -35.9089   -1.6348 C   0  0  0  0  0  0  0  0  0  0  0  0
   35.1461  -35.6761   -1.9483 O   0  0  0  0  0  0  0  0  0  0  0  0
   33.6375  -36.3639   -0.3295 N   0  0  0  0  0  0  0  0  0  0  0  0
   34.6577  -36.4765    0.6762 C   0  0  0  0  0  0  0  0  0  0  0  0
   34.3983  -35.5908    1.8396 C   0  0  0  0  0  0  0  0  0  0  0  0
   33.6686  -34.5742    1.7212 O   0  0  0  0  0  0  0  0  0  0  0  0
   31.8747  -34.7635    6.3236 C   0  0  0  0  0  0  0  0  0  0  0  0
   33.3379  -35.1935    6.4405 C   0  0  0  0  0  0  0  0  0  0  0  0
   33.7641  -35.9008    5.1931 C   0  0  2  0  0  0  0  0  0  0  0  0
   34.4687  -37.2019    5.5534 C   0  0  0  0  0  0  0  0  0  0  0  0
   34.6331  -35.0582    4.2942 C   0  0  2  0  0  0  0  0  0  0  0  0
   34.9638  -35.8649    3.1124 N   0  0  0  0  0  0  0  0  0  0  0  0
   35.8705  -34.5708    4.9274 C   0  0  0  0  0  0  0  0  0  0  0  0
   35.9935  -33.3566    5.5525 O   0  0  0  0  0  0  0  0  0  0  0  0
   36.9170  -35.3049    4.9090 O   0  0  0  0  0  0  0  0  0  0  0  0
  2 10  1  0
  2  1  1  1
  3  2  1  0
  4  3  1  0
  5  4  2  0
  6  5  1  0
  7  6  2  0
  7  8  1  0
  8  9  2  0
  9  4  1  0
 10 12  1  0
 11 10  2  0
 12 13  1  0
 14 21  1  0
 14 13  1  0
 15 14  2  0
 17 16  1  0
 18 19  1  1
 18 17  1  0
 20 21  1  6
 20 18  1  0
 22 23  1  0
 22 20  1  0
 24 22  2  0
M  END
$$$$
