FGI.pdb
     RDKit          3D

 24 24  0  0  1  0  0  0  0  0999 V2000
   22.7982  -21.4228  -11.5182 N   0  0  0  0  0  0  0  0  0  0  0  0
   23.8917  -20.9792  -12.3304 C   0  0  1  0  0  0  0  0  0  0  0  0
   23.5965  -19.5815  -12.8168 C   0  0  0  0  0  0  0  0  0  0  0  0
   22.3715  -19.6467  -13.6551 C   0  0  0  0  0  0  0  0  0  0  0  0
   21.1714  -19.1464  -13.2277 C   0  0  0  0  0  0  0  0  0  0  0  0
   20.0534  -19.2325  -14.0517 C   0  0  0  0  0  0  0  0  0  0  0  0
   20.1056  -19.8091  -15.2983 C   0  0  0  0  0  0  0  0  0  0  0  0
   21.3136  -20.3117  -15.7264 C   0  0  0  0  0  0  0  0  0  0  0  0
   22.4378  -20.2280  -14.9043 C   0  0  0  0  0  0  0  0  0  0  0  0
   25.1750  -21.0138  -11.5595 C   0  0  0  0  0  0  0  0  0  0  0  0
   26.1995  -20.4937  -12.0784 O   0  0  0  0  0  0  0  0  0  0  0  0
   25.2617  -21.6101  -10.2774 N   0  0  0  0  0  0  0  0  0  0  0  0
   26.4919  -21.5923   -9.5350 C   0  0  0  0  0  0  0  0  0  0  0  0
   26.4659  -20.5999   -8.4305 C   0  0  0  0  0  0  0  0  0  0  0  0
   25.4976  -19.8088   -8.3022 O   0  0  0  0  0  0  0  0  0  0  0  0
   28.8287  -21.9597   -3.7009 C   0  0  0  0  0  0  0  0  0  0  0  0
   27.8801  -21.4340   -4.7795 C   0  0  0  0  0  0  0  0  0  0  0  0
   28.3561  -20.1054   -5.2755 C   0  0  2  0  0  0  0  0  0  0  0  0
   28.4350  -19.1205   -4.1165 C   0  0  0  0  0  0  0  0  0  0  0  0
   27.5110  -19.5450   -6.3912 C   0  0  2  0  0  0  0  0  0  0  0  0
   27.5281  -20.5164   -7.4926 N   0  0  0  0  0  0  0  0  0  0  0  0
   27.9483  -18.2269   -6.8821 C   0  0  0  0  0  0  0  0  0  0  0  0
   28.8430  -18.0397   -7.9041 O   0  0  0  0  0  0  0  0  0  0  0  0
   27.4815  -17.1678   -6.3392 O   0  0  0  0  0  0  0  0  0  0  0  0
  2 10  1  0
  2  1  1  1
  3  2  1  0
  4  3  1  0
  5  4  2  0
  6  5  1  0
  7  6  2  0
  7  8  1  0
  8  9  2  0
  9  4  1  0
 10 12  1  0
 11 10  2  0
 12 13  1  0
 14 21  1  0
 14 13  1  0
 15 14  2  0
 17 16  1  0
 18 19  1  1
 18 17  1  0
 20 21  1  6
 20 18  1  0
 22 23  1  0
 22 20  1  0
 24 22  2  0
M  END
$$$$
