FGI.pdb
     RDKit          3D

 24 24  0  0  1  0  0  0  0  0999 V2000
   22.6351  -18.8111  -17.0981 N   0  0  0  0  0  0  0  0  0  0  0  0
   23.5239  -17.6998  -16.9336 C   0  0  1  0  0  0  0  0  0  0  0  0
   22.7345  -16.4227  -17.0865 C   0  0  0  0  0  0  0  0  0  0  0  0
   22.7022  -16.0848  -18.5331 C   0  0  0  0  0  0  0  0  0  0  0  0
   21.5504  -16.1525  -19.2692 C   0  0  0  0  0  0  0  0  0  0  0  0
   21.5738  -15.8253  -20.6215 C   0  0  0  0  0  0  0  0  0  0  0  0
   22.7255  -15.4303  -21.2591 C   0  0  0  0  0  0  0  0  0  0  0  0
   23.8831  -15.3629  -20.5170 C   0  0  0  0  0  0  0  0  0  0  0  0
   23.8653  -15.6898  -19.1608 C   0  0  0  0  0  0  0  0  0  0  0  0
   24.1980  -17.7512  -15.5974 C   0  0  0  0  0  0  0  0  0  0  0  0
   23.4833  -17.9162  -14.5721 O   0  0  0  0  0  0  0  0  0  0  0  0
   25.6021  -17.6203  -15.4623 N   0  0  0  0  0  0  0  0  0  0  0  0
   26.2335  -17.7166  -14.1751 C   0  0  0  0  0  0  0  0  0  0  0  0
   26.1022  -19.0736  -13.5863 C   0  0  0  0  0  0  0  0  0  0  0  0
   25.6425  -20.0256  -14.2663 O   0  0  0  0  0  0  0  0  0  0  0  0
   30.1025  -21.0672  -10.8597 C   0  0  0  0  0  0  0  0  0  0  0  0
   28.8546  -20.9495  -11.7362 C   0  0  0  0  0  0  0  0  0  0  0  0
   27.6273  -20.9503  -10.8810 C   0  0  2  0  0  0  0  0  0  0  0  0
   27.5192  -22.2738  -10.1355 C   0  0  0  0  0  0  0  0  0  0  0  0
   26.3612  -20.6699  -11.6502 C   0  0  2  0  0  0  0  0  0  0  0  0
   26.4899  -19.3336  -12.2458 N   0  0  0  0  0  0  0  0  0  0  0  0
   25.1311  -20.7397  -10.8430 C   0  0  0  0  0  0  0  0  0  0  0  0
   24.2664  -21.8038  -10.8410 O   0  0  0  0  0  0  0  0  0  0  0  0
   24.8209  -19.7586  -10.0844 O   0  0  0  0  0  0  0  0  0  0  0  0
  2 10  1  0
  2  1  1  1
  3  2  1  0
  4  3  1  0
  5  4  2  0
  6  5  1  0
  7  6  2  0
  7  8  1  0
  8  9  2  0
  9  4  1  0
 10 12  1  0
 11 10  2  0
 12 13  1  0
 14 21  1  0
 14 13  1  0
 15 14  2  0
 17 16  1  0
 18 19  1  6
 18 17  1  0
 20 21  1  1
 20 18  1  0
 22 23  1  0
 22 20  1  0
 24 22  2  0
M  END
$$$$
