FGI.pdb
     RDKit          3D

 24 24  0  0  1  0  0  0  0  0999 V2000
   30.5551  -22.3226  -14.0042 N   0  0  0  0  0  0  0  0  0  0  0  0
   29.5099  -21.7748  -13.1920 C   0  0  1  0  0  0  0  0  0  0  0  0
   30.0932  -20.6890  -12.3213 C   0  0  0  0  0  0  0  0  0  0  0  0
   30.7962  -21.3487  -11.1906 C   0  0  0  0  0  0  0  0  0  0  0  0
   30.1586  -21.6571  -10.0196 C   0  0  0  0  0  0  0  0  0  0  0  0
   30.8627  -22.2750   -8.9907 C   0  0  0  0  0  0  0  0  0  0  0  0
   32.1949  -22.5938   -9.1041 C   0  0  0  0  0  0  0  0  0  0  0  0
   32.8346  -22.2828  -10.2828 C   0  0  0  0  0  0  0  0  0  0  0  0
   32.1333  -21.6631  -11.3176 C   0  0  0  0  0  0  0  0  0  0  0  0
   28.4020  -21.2359  -14.0432 C   0  0  0  0  0  0  0  0  0  0  0  0
   28.7050  -20.6055  -15.0920 O   0  0  0  0  0  0  0  0  0  0  0  0
   27.0394  -21.4166  -13.7002 N   0  0  0  0  0  0  0  0  0  0  0  0
   25.9920  -20.8729  -14.5200 C   0  0  0  0  0  0  0  0  0  0  0  0
   24.6444  -21.1298  -13.9513 C   0  0  0  0  0  0  0  0  0  0  0  0
   23.9937  -22.1533  -14.2815 O   0  0  0  0  0  0  0  0  0  0  0  0
   24.8472  -20.1051   -8.8857 C   0  0  0  0  0  0  0  0  0  0  0  0
   24.5623  -20.6799  -10.2743 C   0  0  0  0  0  0  0  0  0  0  0  0
   23.2351  -20.1955  -10.7657 C   0  0  2  0  0  0  0  0  0  0  0  0
   22.1366  -20.6452   -9.8115 C   0  0  0  0  0  0  0  0  0  0  0  0
   22.9238  -20.6298  -12.1755 C   0  0  2  0  0  0  0  0  0  0  0  0
   24.0551  -20.2318  -13.0232 N   0  0  0  0  0  0  0  0  0  0  0  0
   21.6729  -20.0748  -12.7205 C   0  0  0  0  0  0  0  0  0  0  0  0
   20.4793  -20.7486  -12.7583 O   0  0  0  0  0  0  0  0  0  0  0  0
   21.6673  -18.8891  -13.1983 O   0  0  0  0  0  0  0  0  0  0  0  0
  2 10  1  0
  2  1  1  6
  3  2  1  0
  4  3  1  0
  5  4  2  0
  6  5  1  0
  7  6  2  0
  7  8  1  0
  8  9  2  0
  9  4  1  0
 10 12  1  0
 11 10  2  0
 12 13  1  0
 14 21  1  0
 14 13  1  0
 15 14  2  0
 17 16  1  0
 18 19  1  1
 18 17  1  0
 20 21  1  6
 20 18  1  0
 22 23  1  0
 22 20  1  0
 24 22  2  0
M  END
$$$$
