FGI.pdb
     RDKit          3D

 24 24  0  0  1  0  0  0  0  0999 V2000
   25.5733  -20.5163   -8.2814 N   0  0  0  0  0  0  0  0  0  0  0  0
   26.8662  -20.4174   -8.8903 C   0  0  1  0  0  0  0  0  0  0  0  0
   27.8552  -21.1907   -8.0529 C   0  0  0  0  0  0  0  0  0  0  0  0
   28.0294  -20.4579   -6.7721 C   0  0  0  0  0  0  0  0  0  0  0  0
   28.6153  -21.0358   -5.6785 C   0  0  0  0  0  0  0  0  0  0  0  0
   28.7546  -20.3060   -4.5020 C   0  0  0  0  0  0  0  0  0  0  0  0
   28.3208  -19.0066   -4.3911 C   0  0  0  0  0  0  0  0  0  0  0  0
   27.7317  -18.4269   -5.4922 C   0  0  0  0  0  0  0  0  0  0  0  0
   27.5895  -19.1542   -6.6743 C   0  0  0  0  0  0  0  0  0  0  0  0
   26.8346  -20.9398  -10.2933 C   0  0  0  0  0  0  0  0  0  0  0  0
   26.0619  -21.9004  -10.5574 O   0  0  0  0  0  0  0  0  0  0  0  0
   27.6430  -20.3859  -11.3164 N   0  0  0  0  0  0  0  0  0  0  0  0
   27.8282  -21.0715  -12.5655 C   0  0  0  0  0  0  0  0  0  0  0  0
   26.6281  -20.9847  -13.4360 C   0  0  0  0  0  0  0  0  0  0  0  0
   26.6303  -21.4974  -14.5837 O   0  0  0  0  0  0  0  0  0  0  0  0
   21.7871  -21.3245  -10.9994 C   0  0  0  0  0  0  0  0  0  0  0  0
   22.9065  -21.5110  -12.0249 C   0  0  0  0  0  0  0  0  0  0  0  0
   23.0530  -20.2736  -12.8526 C   0  0  2  0  0  0  0  0  0  0  0  0
   21.7585  -20.0021  -13.6075 C   0  0  0  0  0  0  0  0  0  0  0  0
   24.2214  -20.3246  -13.8041 C   0  0  2  0  0  0  0  0  0  0  0  0
   25.4500  -20.3240  -12.9996 N   0  0  0  0  0  0  0  0  0  0  0  0
   24.2619  -19.2194  -14.7771 C   0  0  0  0  0  0  0  0  0  0  0  0
   23.8756  -19.3283  -16.0882 O   0  0  0  0  0  0  0  0  0  0  0  0
   24.6809  -18.0703  -14.4054 O   0  0  0  0  0  0  0  0  0  0  0  0
  2 10  1  0
  2  1  1  1
  3  2  1  0
  4  3  1  0
  5  4  2  0
  6  5  1  0
  7  6  2  0
  7  8  1  0
  8  9  2  0
  9  4  1  0
 10 12  1  0
 11 10  2  0
 12 13  1  0
 14 21  1  0
 14 13  1  0
 15 14  2  0
 17 16  1  0
 18 19  1  6
 18 17  1  0
 20 21  1  1
 20 18  1  0
 22 23  1  0
 22 20  1  0
 24 22  2  0
M  END
$$$$
