FGI.pdb
     RDKit          3D

 24 24  0  0  1  0  0  0  0  0999 V2000
   23.7065  -19.4077  -13.5461 N   0  0  0  0  0  0  0  0  0  0  0  0
   24.9382  -19.2194  -14.2529 C   0  0  1  0  0  0  0  0  0  0  0  0
   25.4700  -17.8424  -13.9391 C   0  0  0  0  0  0  0  0  0  0  0  0
   26.6337  -17.5964  -14.8297 C   0  0  0  0  0  0  0  0  0  0  0  0
   26.5052  -16.9560  -16.0324 C   0  0  0  0  0  0  0  0  0  0  0  0
   27.6270  -16.7503  -16.8296 C   0  0  0  0  0  0  0  0  0  0  0  0
   28.8800  -17.1709  -16.4524 C   0  0  0  0  0  0  0  0  0  0  0  0
   29.0072  -17.8149  -15.2423 C   0  0  0  0  0  0  0  0  0  0  0  0
   27.8857  -18.0237  -14.4390 C   0  0  0  0  0  0  0  0  0  0  0  0
   25.9340  -20.2724  -13.8758 C   0  0  0  0  0  0  0  0  0  0  0  0
   26.4226  -20.9895  -14.7903 O   0  0  0  0  0  0  0  0  0  0  0  0
   26.3333  -20.4775  -12.5321 N   0  0  0  0  0  0  0  0  0  0  0  0
   27.4365  -21.3408  -12.2119 C   0  0  0  0  0  0  0  0  0  0  0  0
   27.7078  -21.3862  -10.7526 C   0  0  0  0  0  0  0  0  0  0  0  0
   28.5333  -22.2074  -10.2792 O   0  0  0  0  0  0  0  0  0  0  0  0
   27.9015  -19.6694   -5.1285 C   0  0  0  0  0  0  0  0  0  0  0  0
   27.0837  -20.5318   -6.0913 C   0  0  0  0  0  0  0  0  0  0  0  0
   27.3704  -20.1328   -7.5042 C   0  0  2  0  0  0  0  0  0  0  0  0
   27.0857  -18.6482   -7.6887 C   0  0  0  0  0  0  0  0  0  0  0  0
   26.6139  -20.9485   -8.5219 C   0  0  2  0  0  0  0  0  0  0  0  0
   27.0463  -20.5081   -9.8546 N   0  0  0  0  0  0  0  0  0  0  0  0
   25.1483  -20.8473   -8.4145 C   0  0  0  0  0  0  0  0  0  0  0  0
   24.3434  -20.2497   -9.3498 O   0  0  0  0  0  0  0  0  0  0  0  0
   24.5579  -21.3388   -7.3927 O   0  0  0  0  0  0  0  0  0  0  0  0
  2 10  1  0
  2  1  1  1
  3  2  1  0
  4  3  1  0
  5  4  2  0
  6  5  1  0
  7  6  2  0
  7  8  1  0
  8  9  2  0
  9  4  1  0
 10 12  1  0
 11 10  2  0
 12 13  1  0
 14 21  1  0
 14 13  1  0
 15 14  2  0
 17 16  1  0
 18 19  1  1
 18 17  1  0
 20 21  1  6
 20 18  1  0
 22 23  1  0
 22 20  1  0
 24 22  2  0
M  END
$$$$
