FGI.pdb
     RDKit          3D

 24 24  0  0  1  0  0  0  0  0999 V2000
   25.6256  -22.6356  -14.5466 N   0  0  0  0  0  0  0  0  0  0  0  0
   26.2106  -21.3284  -14.5116 C   0  0  1  0  0  0  0  0  0  0  0  0
   25.6613  -20.5220  -15.6629 C   0  0  0  0  0  0  0  0  0  0  0  0
   26.3766  -19.2197  -15.6810 C   0  0  0  0  0  0  0  0  0  0  0  0
   25.8606  -18.0994  -15.0878 C   0  0  0  0  0  0  0  0  0  0  0  0
   26.5706  -16.9036  -15.1332 C   0  0  0  0  0  0  0  0  0  0  0  0
   27.7895  -16.7995  -15.7597 C   0  0  0  0  0  0  0  0  0  0  0  0
   28.3069  -17.9275  -16.3558 C   0  0  0  0  0  0  0  0  0  0  0  0
   27.5991  -19.1290  -16.3133 C   0  0  0  0  0  0  0  0  0  0  0  0
   25.9254  -20.6530  -13.2058 C   0  0  0  0  0  0  0  0  0  0  0  0
   24.7370  -20.6403  -12.7852 O   0  0  0  0  0  0  0  0  0  0  0  0
   26.9479  -20.0366  -12.4433 N   0  0  0  0  0  0  0  0  0  0  0  0
   26.6344  -19.2653  -11.2722 C   0  0  0  0  0  0  0  0  0  0  0  0
   26.5874  -20.1018  -10.0460 C   0  0  0  0  0  0  0  0  0  0  0  0
   26.5267  -21.3547  -10.1267 O   0  0  0  0  0  0  0  0  0  0  0  0
   29.3393  -20.0033   -6.3948 C   0  0  0  0  0  0  0  0  0  0  0  0
   28.2819  -18.9122   -6.5708 C   0  0  0  0  0  0  0  0  0  0  0  0
   26.9155  -19.4877   -6.3718 C   0  0  2  0  0  0  0  0  0  0  0  0
   26.8811  -20.3011   -5.0848 C   0  0  0  0  0  0  0  0  0  0  0  0
   26.4401  -20.3181   -7.5370 C   0  0  2  0  0  0  0  0  0  0  0  0
   26.6094  -19.5139   -8.7542 N   0  0  0  0  0  0  0  0  0  0  0  0
   25.0430  -20.7724   -7.4299 C   0  0  0  0  0  0  0  0  0  0  0  0
   24.0196  -20.3206   -8.2228 O   0  0  0  0  0  0  0  0  0  0  0  0
   24.7317  -21.6444   -6.5485 O   0  0  0  0  0  0  0  0  0  0  0  0
  2 10  1  0
  2  1  1  1
  3  2  1  0
  4  3  1  0
  5  4  2  0
  6  5  1  0
  7  6  2  0
  7  8  1  0
  8  9  2  0
  9  4  1  0
 10 12  1  0
 11 10  2  0
 12 13  1  0
 14 21  1  0
 14 13  1  0
 15 14  2  0
 17 16  1  0
 18 19  1  1
 18 17  1  0
 20 21  1  6
 20 18  1  0
 22 23  1  0
 22 20  1  0
 24 22  2  0
M  END
$$$$
