FGI.pdb
     RDKit          3D

 24 24  0  0  1  0  0  0  0  0999 V2000
   19.1278  -25.9185  -12.2764 N   0  0  0  0  0  0  0  0  0  0  0  0
   18.6595  -25.1339  -11.1731 C   0  0  1  0  0  0  0  0  0  0  0  0
   17.5951  -24.1869  -11.6707 C   0  0  0  0  0  0  0  0  0  0  0  0
   18.1857  -23.3872  -12.7751 C   0  0  0  0  0  0  0  0  0  0  0  0
   19.1189  -22.4124  -12.5473 C   0  0  0  0  0  0  0  0  0  0  0  0
   19.6412  -21.6916  -13.6169 C   0  0  0  0  0  0  0  0  0  0  0  0
   19.2517  -21.9223  -14.9146 C   0  0  0  0  0  0  0  0  0  0  0  0
   18.3129  -22.9033  -15.1417 C   0  0  0  0  0  0  0  0  0  0  0  0
   17.7860  -23.6290  -14.0730 C   0  0  0  0  0  0  0  0  0  0  0  0
   18.1231  -26.0124  -10.0856 C   0  0  0  0  0  0  0  0  0  0  0  0
   17.4511  -27.0278  -10.4126 O   0  0  0  0  0  0  0  0  0  0  0  0
   18.3510  -25.7314   -8.7159 N   0  0  0  0  0  0  0  0  0  0  0  0
   17.7336  -26.5207   -7.6861 C   0  0  0  0  0  0  0  0  0  0  0  0
   18.0473  -26.0127   -6.3263 C   0  0  0  0  0  0  0  0  0  0  0  0
   18.9730  -25.1808   -6.1506 O   0  0  0  0  0  0  0  0  0  0  0  0
   14.2863  -24.1709   -3.1808 C   0  0  0  0  0  0  0  0  0  0  0  0
   15.5938  -24.4939   -3.9059 C   0  0  0  0  0  0  0  0  0  0  0  0
   16.3241  -25.5809   -3.1831 C   0  0  2  0  0  0  0  0  0  0  0  0
   16.5557  -25.1716   -1.7346 C   0  0  0  0  0  0  0  0  0  0  0  0
   17.6252  -25.9673   -3.8397 C   0  0  2  0  0  0  0  0  0  0  0  0
   17.3147  -26.4495   -5.1916 N   0  0  0  0  0  0  0  0  0  0  0  0
   18.3945  -26.9897   -3.1100 C   0  0  0  0  0  0  0  0  0  0  0  0
   18.2959  -28.3388   -3.3345 O   0  0  0  0  0  0  0  0  0  0  0  0
   19.2162  -26.6274   -2.2002 O   0  0  0  0  0  0  0  0  0  0  0  0
  2 10  1  0
  2  1  1  6
  3  2  1  0
  4  3  1  0
  5  4  2  0
  6  5  1  0
  7  6  2  0
  7  8  1  0
  8  9  2  0
  9  4  1  0
 10 12  1  0
 11 10  2  0
 12 13  1  0
 14 21  1  0
 14 13  1  0
 15 14  2  0
 17 16  1  0
 18 19  1  1
 18 17  1  0
 20 21  1  6
 20 18  1  0
 22 23  1  0
 22 20  1  0
 24 22  2  0
M  END
$$$$
