EHG.pdb
     RDKit          3D

 24 24  0  0  1  0  0  0  0  0999 V2000
   13.5441  -14.8398   17.6168 N   0  0  0  0  0  0  0  0  0  0  0  0
   12.6228  -15.7067   18.2598 C   0  0  1  0  0  0  0  0  0  0  0  0
   13.2746  -16.9619   18.7186 C   0  0  0  0  0  0  0  0  0  0  0  0
   14.6264  -16.7876   19.3573 C   0  0  0  0  0  0  0  0  0  0  0  0
   15.2589  -18.0748   19.7234 C   0  0  0  0  0  0  0  0  0  0  0  0
   16.2322  -18.5686   19.0616 O   0  0  0  0  0  0  0  0  0  0  0  0
   11.9013  -15.0654   19.3910 C   0  0  0  0  0  0  0  0  0  0  0  0
   12.4276  -14.0025   19.8540 O   0  0  0  0  0  0  0  0  0  0  0  0
   14.8458  -18.8389   20.8067 O   0  0  0  0  0  0  0  0  0  0  0  0
   10.7135  -15.5609   19.9480 N   0  0  0  0  0  0  0  0  0  0  0  0
   10.0121  -14.7688   20.9896 C   0  0  1  0  0  0  0  0  0  0  0  0
    8.5470  -14.7034   20.6191 C   0  0  0  0  0  0  0  0  0  0  0  0
    8.2497  -14.1218   19.3126 C   0  0  0  0  0  0  0  0  0  0  0  0
    8.0477  -12.8007   18.9356 C   0  0  0  0  0  0  0  0  0  0  0  0
    7.7750  -12.7940   17.6391 N   0  0  0  0  0  0  0  0  0  0  0  0
    7.7932  -14.0454   17.1706 C   0  0  0  0  0  0  0  0  0  0  0  0
    8.0810  -14.8448   18.1878 N   0  0  0  0  0  0  0  0  0  0  0  0
   10.2657  -15.3983   22.2895 C   0  0  0  0  0  0  0  0  0  0  0  0
    9.6386  -14.9839   23.3062 O   0  0  0  0  0  0  0  0  0  0  0  0
   11.1716  -16.4634   22.5268 N   0  0  0  0  0  0  0  0  0  0  0  0
   11.2303  -17.1370   23.8066 C   0  0  0  0  0  0  0  0  0  0  0  0
   12.2952  -18.1638   23.8475 C   0  0  0  0  0  0  0  0  0  0  0  0
   12.5299  -18.9689   24.9437 O   0  0  0  0  0  0  0  0  0  0  0  0
   13.0264  -18.3195   22.8439 O   0  0  0  0  0  0  0  0  0  0  0  0
  2  1  1  1
  3  2  1  0
  4  5  1  0
  4  3  1  0
  5  9  1  0
  6  5  2  0
  7  2  1  0
  7 10  1  0
  8  7  2  0
 11 10  1  0
 11 18  1  0
 12 13  1  0
 11 12  1  6
 13 14  2  0
 14 15  1  0
 16 15  1  0
 17 13  1  0
 17 16  2  0
 18 20  1  0
 18 19  2  0
 20 21  1  0
 22 21  1  0
 22 23  1  0
 24 22  2  0
M  END
$$$$
