EHG.pdb
     RDKit          3D

 24 24  0  0  1  0  0  0  0  0999 V2000
   10.9386  -18.3099   18.8844 N   0  0  0  0  0  0  0  0  0  0  0  0
   11.7274  -17.1388   18.7431 C   0  0  1  0  0  0  0  0  0  0  0  0
   12.0069  -16.8309   17.3155 C   0  0  0  0  0  0  0  0  0  0  0  0
   10.9025  -17.1812   16.3545 C   0  0  0  0  0  0  0  0  0  0  0  0
   11.2429  -16.8662   14.9489 C   0  0  0  0  0  0  0  0  0  0  0  0
   12.2217  -17.4190   14.3443 O   0  0  0  0  0  0  0  0  0  0  0  0
   11.1409  -15.9487   19.4146 C   0  0  0  0  0  0  0  0  0  0  0  0
   11.8648  -14.9013   19.4201 O   0  0  0  0  0  0  0  0  0  0  0  0
   10.5296  -15.9522   14.1850 O   0  0  0  0  0  0  0  0  0  0  0  0
    9.8752  -15.9305   20.0181 N   0  0  0  0  0  0  0  0  0  0  0  0
    9.4199  -14.7027   20.7178 C   0  0  1  0  0  0  0  0  0  0  0  0
    8.0051  -14.4080   20.2714 C   0  0  0  0  0  0  0  0  0  0  0  0
    7.8557  -13.9789   18.8832 C   0  0  0  0  0  0  0  0  0  0  0  0
    7.9530  -12.7173   18.3112 C   0  0  0  0  0  0  0  0  0  0  0  0
    7.7010  -12.8465   17.0169 N   0  0  0  0  0  0  0  0  0  0  0  0
    7.4478  -14.1281   16.7352 C   0  0  0  0  0  0  0  0  0  0  0  0
    7.5428  -14.8088   17.8685 N   0  0  0  0  0  0  0  0  0  0  0  0
    9.5502  -14.9253   22.1615 C   0  0  0  0  0  0  0  0  0  0  0  0
    9.0008  -14.1141   22.9606 O   0  0  0  0  0  0  0  0  0  0  0  0
   10.2510  -15.9974   22.7702 N   0  0  0  0  0  0  0  0  0  0  0  0
   10.3450  -16.1210   24.2093 C   0  0  0  0  0  0  0  0  0  0  0  0
   11.1403  -17.3006   24.6166 C   0  0  0  0  0  0  0  0  0  0  0  0
   11.3964  -17.6239   25.9336 O   0  0  0  0  0  0  0  0  0  0  0  0
   11.6096  -18.0505   23.7314 O   0  0  0  0  0  0  0  0  0  0  0  0
  2  1  1  6
  3  2  1  0
  4  5  1  0
  4  3  1  0
  5  9  1  0
  6  5  2  0
  7  2  1  0
  7 10  1  0
  8  7  2  0
 11 10  1  0
 11 18  1  0
 12 13  1  0
 11 12  1  1
 13 14  2  0
 14 15  1  0
 16 15  1  0
 17 13  1  0
 17 16  2  0
 18 20  1  0
 18 19  2  0
 20 21  1  0
 22 21  1  0
 22 23  1  0
 24 22  2  0
M  END
$$$$
