EHG.pdb
     RDKit          3D

 24 24  0  0  1  0  0  0  0  0999 V2000
   13.3154  -14.3789   17.5024 N   0  0  0  0  0  0  0  0  0  0  0  0
   12.7975  -15.2830   18.4659 C   0  0  1  0  0  0  0  0  0  0  0  0
   13.8817  -15.9886   19.1989 C   0  0  0  0  0  0  0  0  0  0  0  0
   14.3629  -17.2648   18.5621 C   0  0  0  0  0  0  0  0  0  0  0  0
   15.4426  -17.9202   19.3338 C   0  0  0  0  0  0  0  0  0  0  0  0
   15.8785  -17.4446   20.4352 O   0  0  0  0  0  0  0  0  0  0  0  0
   11.8633  -14.6445   19.4306 C   0  0  0  0  0  0  0  0  0  0  0  0
   12.1294  -13.4403   19.7473 O   0  0  0  0  0  0  0  0  0  0  0  0
   16.0601  -19.0939   18.9229 O   0  0  0  0  0  0  0  0  0  0  0  0
   10.7460  -15.2856   19.9850 N   0  0  0  0  0  0  0  0  0  0  0  0
    9.7650  -14.4919   20.7673 C   0  0  1  0  0  0  0  0  0  0  0  0
    8.3956  -14.7182   20.1661 C   0  0  0  0  0  0  0  0  0  0  0  0
    8.2454  -14.3253   18.7673 C   0  0  0  0  0  0  0  0  0  0  0  0
    7.9564  -13.0909   18.2007 C   0  0  0  0  0  0  0  0  0  0  0  0
    7.8944  -13.2602   16.8881 N   0  0  0  0  0  0  0  0  0  0  0  0
    8.1297  -14.5414   16.5896 C   0  0  0  0  0  0  0  0  0  0  0  0
    8.3415  -15.1813   17.7308 N   0  0  0  0  0  0  0  0  0  0  0  0
    9.8679  -14.8966   22.1730 C   0  0  0  0  0  0  0  0  0  0  0  0
    9.0044  -14.4802   22.9975 O   0  0  0  0  0  0  0  0  0  0  0  0
   10.8705  -15.7394   22.7169 N   0  0  0  0  0  0  0  0  0  0  0  0
   10.8802  -16.0976   24.1192 C   0  0  0  0  0  0  0  0  0  0  0  0
   11.9504  -17.0684   24.4389 C   0  0  0  0  0  0  0  0  0  0  0  0
   12.1642  -17.5704   25.7067 O   0  0  0  0  0  0  0  0  0  0  0  0
   12.7061  -17.4616   23.5222 O   0  0  0  0  0  0  0  0  0  0  0  0
  2  1  1  6
  3  2  1  0
  4  5  1  0
  4  3  1  0
  5  9  1  0
  6  5  2  0
  7  2  1  0
  7 10  1  0
  8  7  2  0
 11 10  1  0
 11 18  1  0
 12 13  1  0
 11 12  1  6
 13 14  2  0
 14 15  1  0
 16 15  1  0
 17 13  1  0
 17 16  2  0
 18 20  1  0
 18 19  2  0
 20 21  1  0
 22 21  1  0
 22 23  1  0
 24 22  2  0
M  END
$$$$
