EHG.pdb
     RDKit          3D

 24 24  0  0  1  0  0  0  0  0999 V2000
   12.2523  -16.5051   16.6372 N   0  0  0  0  0  0  0  0  0  0  0  0
   11.4833  -16.9817   17.7305 C   0  0  1  0  0  0  0  0  0  0  0  0
   12.1756  -18.0805   18.4545 C   0  0  0  0  0  0  0  0  0  0  0  0
   13.5848  -17.7767   18.8878 C   0  0  0  0  0  0  0  0  0  0  0  0
   14.2133  -18.8963   19.6240 C   0  0  0  0  0  0  0  0  0  0  0  0
   13.5485  -19.9132   20.0155 O   0  0  0  0  0  0  0  0  0  0  0  0
   11.0907  -15.9117   18.6856 C   0  0  0  0  0  0  0  0  0  0  0  0
   11.8221  -14.8695   18.6831 O   0  0  0  0  0  0  0  0  0  0  0  0
   15.5642  -18.9273   19.9434 O   0  0  0  0  0  0  0  0  0  0  0  0
    9.9933  -15.9972   19.5546 N   0  0  0  0  0  0  0  0  0  0  0  0
    9.6188  -14.8162   20.3726 C   0  0  1  0  0  0  0  0  0  0  0  0
    8.1597  -14.5125   20.1141 C   0  0  0  0  0  0  0  0  0  0  0  0
    7.8283  -14.1142   18.7484 C   0  0  0  0  0  0  0  0  0  0  0  0
    7.8065  -12.8602   18.1522 C   0  0  0  0  0  0  0  0  0  0  0  0
    7.4066  -13.0219   16.8995 N   0  0  0  0  0  0  0  0  0  0  0  0
    7.1723  -14.3170   16.6673 C   0  0  0  0  0  0  0  0  0  0  0  0
    7.4292  -14.9732   17.7898 N   0  0  0  0  0  0  0  0  0  0  0  0
    9.9203  -15.1186   21.7755 C   0  0  0  0  0  0  0  0  0  0  0  0
    9.0865  -14.7914   22.6679 O   0  0  0  0  0  0  0  0  0  0  0  0
   11.0909  -15.7664   22.2459 N   0  0  0  0  0  0  0  0  0  0  0  0
   11.2871  -16.0495   23.6518 C   0  0  0  0  0  0  0  0  0  0  0  0
   12.5114  -16.8445   23.8945 C   0  0  0  0  0  0  0  0  0  0  0  0
   12.9243  -17.2353   25.1522 O   0  0  0  0  0  0  0  0  0  0  0  0
   13.2164  -17.1858   22.9184 O   0  0  0  0  0  0  0  0  0  0  0  0
  2  1  1  6
  3  2  1  0
  4  5  1  0
  4  3  1  0
  5  9  1  0
  6  5  2  0
  7  2  1  0
  7 10  1  0
  8  7  2  0
 11 10  1  0
 11 18  1  0
 12 13  1  0
 11 12  1  1
 13 14  2  0
 14 15  1  0
 16 15  1  0
 17 13  1  0
 17 16  2  0
 18 20  1  0
 18 19  2  0
 20 21  1  0
 22 21  1  0
 22 23  1  0
 24 22  2  0
M  END
$$$$
