EHG.pdb
     RDKit          3D

 24 24  0  0  1  0  0  0  0  0999 V2000
    9.7504  -17.6493   20.3300 N   0  0  0  0  0  0  0  0  0  0  0  0
    8.7213  -17.8412   21.2881 C   0  0  1  0  0  0  0  0  0  0  0  0
    8.6673  -19.2486   21.7650 C   0  0  0  0  0  0  0  0  0  0  0  0
    8.7839  -20.2961   20.6903 C   0  0  0  0  0  0  0  0  0  0  0  0
    8.6088  -21.6717   21.2076 C   0  0  0  0  0  0  0  0  0  0  0  0
    7.5046  -22.3035   21.1039 O   0  0  0  0  0  0  0  0  0  0  0  0
    8.8154  -16.9148   22.4475 C   0  0  0  0  0  0  0  0  0  0  0  0
    9.9932  -16.5810   22.7974 O   0  0  0  0  0  0  0  0  0  0  0  0
    9.6240  -22.3761   21.8409 O   0  0  0  0  0  0  0  0  0  0  0  0
    7.7071  -16.4126   23.1447 N   0  0  0  0  0  0  0  0  0  0  0  0
    7.9244  -15.5356   24.3228 C   0  0  1  0  0  0  0  0  0  0  0  0
    6.8075  -14.5163   24.3588 C   0  0  0  0  0  0  0  0  0  0  0  0
    6.8304  -13.5917   25.4894 C   0  0  0  0  0  0  0  0  0  0  0  0
    7.7437  -13.4535   26.5262 C   0  0  0  0  0  0  0  0  0  0  0  0
    7.3007  -12.4907   27.3212 N   0  0  0  0  0  0  0  0  0  0  0  0
    6.1501  -12.0079   26.8427 C   0  0  0  0  0  0  0  0  0  0  0  0
    5.8703  -12.6780   25.7339 N   0  0  0  0  0  0  0  0  0  0  0  0
    7.9896  -16.3839   25.5172 C   0  0  0  0  0  0  0  0  0  0  0  0
    6.9742  -17.0617   25.8461 O   0  0  0  0  0  0  0  0  0  0  0  0
    9.1167  -16.5272   26.3660 N   0  0  0  0  0  0  0  0  0  0  0  0
    9.1254  -17.4743   27.4604 C   0  0  0  0  0  0  0  0  0  0  0  0
   10.4306  -17.5091   28.1569 C   0  0  0  0  0  0  0  0  0  0  0  0
   10.6663  -18.2645   29.2876 O   0  0  0  0  0  0  0  0  0  0  0  0
   11.3761  -16.8233   27.7077 O   0  0  0  0  0  0  0  0  0  0  0  0
  2  1  1  6
  3  2  1  0
  4  5  1  0
  4  3  1  0
  5  9  1  0
  6  5  2  0
  7  2  1  0
  7 10  1  0
  8  7  2  0
 11 10  1  0
 11 18  1  0
 12 13  1  0
 11 12  1  1
 13 14  2  0
 14 15  1  0
 16 15  1  0
 17 13  1  0
 17 16  2  0
 18 20  1  0
 18 19  2  0
 20 21  1  0
 22 21  1  0
 22 23  1  0
 24 22  2  0
M  END
$$$$
