EHG.pdb
     RDKit          3D

 24 24  0  0  1  0  0  0  0  0999 V2000
   12.4401  -17.7035   17.9751 N   0  0  0  0  0  0  0  0  0  0  0  0
   12.8651  -16.3501   17.9346 C   0  0  1  0  0  0  0  0  0  0  0  0
   12.5786  -15.7212   16.6181 C   0  0  0  0  0  0  0  0  0  0  0  0
   11.3462  -16.2284   15.9183 C   0  0  0  0  0  0  0  0  0  0  0  0
   11.2057  -15.6957   14.5445 C   0  0  0  0  0  0  0  0  0  0  0  0
   11.8430  -16.1879   13.5541 O   0  0  0  0  0  0  0  0  0  0  0  0
   12.2951  -15.5206   19.0293 C   0  0  0  0  0  0  0  0  0  0  0  0
   12.7690  -14.3439   19.1387 O   0  0  0  0  0  0  0  0  0  0  0  0
   10.3762  -14.6279   14.2289 O   0  0  0  0  0  0  0  0  0  0  0  0
   11.2978  -15.9606   19.9116 N   0  0  0  0  0  0  0  0  0  0  0  0
   10.8566  -15.0697   21.0143 C   0  0  1  0  0  0  0  0  0  0  0  0
    9.3549  -14.9159   20.9183 C   0  0  0  0  0  0  0  0  0  0  0  0
    8.8687  -14.1519   19.7722 C   0  0  0  0  0  0  0  0  0  0  0  0
    9.5598  -13.4344   18.8047 C   0  0  0  0  0  0  0  0  0  0  0  0
    8.6625  -12.8900   17.9962 N   0  0  0  0  0  0  0  0  0  0  0  0
    7.4334  -13.2248   18.4000 C   0  0  0  0  0  0  0  0  0  0  0  0
    7.5643  -13.9886   19.4753 N   0  0  0  0  0  0  0  0  0  0  0  0
   11.3116  -15.6517   22.2811 C   0  0  0  0  0  0  0  0  0  0  0  0
   10.9345  -15.1286   23.3686 O   0  0  0  0  0  0  0  0  0  0  0  0
   12.1573  -16.7826   22.4118 N   0  0  0  0  0  0  0  0  0  0  0  0
   12.4804  -17.3411   23.7075 C   0  0  0  0  0  0  0  0  0  0  0  0
   13.5401  -16.5721   24.3972 C   0  0  0  0  0  0  0  0  0  0  0  0
   13.7291  -16.6003   25.7641 O   0  0  0  0  0  0  0  0  0  0  0  0
   14.3098  -15.8565   23.7179 O   0  0  0  0  0  0  0  0  0  0  0  0
  2  1  1  6
  3  2  1  0
  4  5  1  0
  4  3  1  0
  5  9  1  0
  6  5  2  0
  7  2  1  0
  7 10  1  0
  8  7  2  0
 11 10  1  0
 11 18  1  0
 12 13  1  0
 11 12  1  1
 13 14  2  0
 14 15  1  0
 16 15  1  0
 17 13  1  0
 17 16  2  0
 18 20  1  0
 18 19  2  0
 20 21  1  0
 22 21  1  0
 22 23  1  0
 24 22  2  0
M  END
$$$$
