EHG.pdb
     RDKit          3D

 24 24  0  0  1  0  0  0  0  0999 V2000
   11.7481  -16.3098   16.3366 N   0  0  0  0  0  0  0  0  0  0  0  0
   11.2572  -17.0327   17.4547 C   0  0  1  0  0  0  0  0  0  0  0  0
   11.9972  -18.3066   17.6561 C   0  0  0  0  0  0  0  0  0  0  0  0
   13.4582  -18.1558   17.9855 C   0  0  0  0  0  0  0  0  0  0  0  0
   14.1568  -19.4551   18.1064 C   0  0  0  0  0  0  0  0  0  0  0  0
   14.0490  -20.1932   19.1421 O   0  0  0  0  0  0  0  0  0  0  0  0
   11.2555  -16.2411   18.7136 C   0  0  0  0  0  0  0  0  0  0  0  0
   12.1251  -15.3140   18.7877 O   0  0  0  0  0  0  0  0  0  0  0  0
   14.9770  -19.9679   17.1103 O   0  0  0  0  0  0  0  0  0  0  0  0
   10.3728  -16.4626   19.7805 N   0  0  0  0  0  0  0  0  0  0  0  0
   10.3532  -15.5097   20.9189 C   0  0  1  0  0  0  0  0  0  0  0  0
    8.9132  -15.1327   21.1879 C   0  0  0  0  0  0  0  0  0  0  0  0
    8.2306  -14.4278   20.1059 C   0  0  0  0  0  0  0  0  0  0  0  0
    8.0654  -13.0686   19.8749 C   0  0  0  0  0  0  0  0  0  0  0  0
    7.3399  -12.9372   18.7741 N   0  0  0  0  0  0  0  0  0  0  0  0
    7.0342  -14.1454   18.2917 C   0  0  0  0  0  0  0  0  0  0  0  0
    7.5759  -15.0437   19.1018 N   0  0  0  0  0  0  0  0  0  0  0  0
   11.0205  -16.1468   22.0588 C   0  0  0  0  0  0  0  0  0  0  0  0
   11.0678  -17.4089   22.1166 O   0  0  0  0  0  0  0  0  0  0  0  0
   11.6418  -15.4655   23.1363 N   0  0  0  0  0  0  0  0  0  0  0  0
   12.8112  -16.0027   23.7987 C   0  0  0  0  0  0  0  0  0  0  0  0
   12.4535  -16.8955   24.9235 C   0  0  0  0  0  0  0  0  0  0  0  0
   13.3820  -17.4193   25.8001 O   0  0  0  0  0  0  0  0  0  0  0  0
   11.2520  -17.1981   25.0991 O   0  0  0  0  0  0  0  0  0  0  0  0
  2  1  1  6
  3  2  1  0
  4  5  1  0
  4  3  1  0
  5  9  1  0
  6  5  2  0
  7  2  1  0
  7 10  1  0
  8  7  2  0
 11 10  1  0
 11 18  1  0
 12 13  1  0
 11 12  1  1
 13 14  2  0
 14 15  1  0
 16 15  1  0
 17 13  1  0
 17 16  2  0
 18 20  1  0
 18 19  2  0
 20 21  1  0
 22 21  1  0
 22 23  1  0
 24 22  2  0
M  END
$$$$
