SSW.pdb
     RDKit          3D

 27 28  0  0  1  0  0  0  0  0999 V2000
    8.1645  -12.7287   19.5830 O   0  0  0  0  0  0  0  0  0  0  0  0
    8.3483  -13.5442   20.7219 C   0  0  0  0  0  0  0  0  0  0  0  0
    7.9774  -14.9831   20.3577 C   0  0  2  0  0  0  0  0  0  0  0  0
    6.5569  -15.1226   20.2052 N   0  0  0  0  0  0  0  0  0  0  0  0
    8.4293  -15.8322   21.4832 C   0  0  0  0  0  0  0  0  0  0  0  0
    7.5950  -16.1385   22.3972 O   0  0  0  0  0  0  0  0  0  0  0  0
   12.3731  -17.1857   22.0222 O   0  0  0  0  0  0  0  0  0  0  0  0
   11.3349  -18.0236   22.4204 C   0  0  0  0  0  0  0  0  0  0  0  0
   10.0801  -17.2414   22.7078 C   0  0  2  0  0  0  0  0  0  0  0  0
    9.7304  -16.3427   21.6358 N   0  0  0  0  0  0  0  0  0  0  0  0
   10.1566  -16.4735   23.9634 C   0  0  0  0  0  0  0  0  0  0  0  0
   10.6028  -15.3042   23.9111 O   0  0  0  0  0  0  0  0  0  0  0  0
    9.7550  -16.9824   25.2189 N   0  0  0  0  0  0  0  0  0  0  0  0
   10.1100  -16.2637   26.4473 C   0  0  1  0  0  0  0  0  0  0  0  0
    8.8468  -16.2111   27.2907 C   0  0  0  0  0  0  0  0  0  0  0  0
    7.8256  -15.4543   26.5769 C   0  0  0  0  0  0  0  0  0  0  0  0
    6.7593  -16.0032   25.8482 C   0  0  0  0  0  0  0  0  0  0  0  0
    6.0212  -15.0105   25.3875 N   0  0  0  0  0  0  0  0  0  0  0  0
    6.5173  -13.8222   25.7553 C   0  0  0  0  0  0  0  0  0  0  0  0
    6.1021  -12.5161   25.5071 C   0  0  0  0  0  0  0  0  0  0  0  0
    6.8024  -11.4369   25.9921 C   0  0  0  0  0  0  0  0  0  0  0  0
    7.9354  -11.6958   26.7360 C   0  0  0  0  0  0  0  0  0  0  0  0
    8.3383  -13.0038   26.9766 C   0  0  0  0  0  0  0  0  0  0  0  0
    7.6554  -14.1027   26.5046 C   0  0  0  0  0  0  0  0  0  0  0  0
   11.2795  -16.8375   27.0762 C   0  0  0  0  0  0  0  0  0  0  0  0
   11.9579  -17.9405   26.5926 O   0  0  0  0  0  0  0  0  0  0  0  0
   11.7204  -16.3103   28.1417 O   0  0  0  0  0  0  0  0  0  0  0  0
  1  2  1  0
  2  3  1  0
  3  4  1  1
  5  6  2  0
  5  3  1  0
  7  8  1  0
  9  8  1  6
  9 10  1  0
 10  5  1  0
 11 13  1  0
 11  9  1  0
 12 11  2  0
 14 25  1  0
 14 13  1  0
 15 16  1  0
 14 15  1  1
 16 17  2  0
 16 24  1  0
 17 18  1  0
 18 19  1  0
 19 20  2  0
 20 21  1  0
 22 21  2  0
 23 22  1  0
 24 23  2  0
 24 19  1  0
 25 26  1  0
 27 25  2  0
M  END
$$$$
