SSW.pdb
     RDKit          3D

 27 28  0  0  1  0  0  0  0  0999 V2000
    8.4834  -12.6391   20.9821 O   0  0  0  0  0  0  0  0  0  0  0  0
    8.9536  -13.6668   20.1343 C   0  0  0  0  0  0  0  0  0  0  0  0
    7.8674  -14.7378   20.0157 C   0  0  2  0  0  0  0  0  0  0  0  0
    6.5595  -14.1492   20.0756 N   0  0  0  0  0  0  0  0  0  0  0  0
    8.0433  -15.6458   21.1719 C   0  0  0  0  0  0  0  0  0  0  0  0
    7.1806  -15.6222   22.1103 O   0  0  0  0  0  0  0  0  0  0  0  0
   11.3372  -18.2188   21.7479 O   0  0  0  0  0  0  0  0  0  0  0  0
   10.0799  -18.6410   22.1713 C   0  0  0  0  0  0  0  0  0  0  0  0
    9.1713  -17.4701   22.4407 C   0  0  2  0  0  0  0  0  0  0  0  0
    9.1049  -16.5540   21.3291 N   0  0  0  0  0  0  0  0  0  0  0  0
    9.5463  -16.7186   23.6518 C   0  0  0  0  0  0  0  0  0  0  0  0
   10.1856  -15.6512   23.5068 O   0  0  0  0  0  0  0  0  0  0  0  0
    9.2246  -17.1348   24.9632 N   0  0  0  0  0  0  0  0  0  0  0  0
    9.7956  -16.4295   26.1155 C   0  0  1  0  0  0  0  0  0  0  0  0
    8.6562  -16.2313   27.1016 C   0  0  0  0  0  0  0  0  0  0  0  0
    7.6284  -15.4014   26.4851 C   0  0  0  0  0  0  0  0  0  0  0  0
    6.5007  -15.8721   25.7953 C   0  0  0  0  0  0  0  0  0  0  0  0
    5.7794  -14.8301   25.4258 N   0  0  0  0  0  0  0  0  0  0  0  0
    6.3444  -13.6814   25.8192 C   0  0  0  0  0  0  0  0  0  0  0  0
    5.9702  -12.3496   25.6574 C   0  0  0  0  0  0  0  0  0  0  0  0
    6.7410  -11.3236   26.1507 C   0  0  0  0  0  0  0  0  0  0  0  0
    7.9026  -11.6623   26.8139 C   0  0  0  0  0  0  0  0  0  0  0  0
    8.2640  -12.9952   26.9688 C   0  0  0  0  0  0  0  0  0  0  0  0
    7.5105  -14.0423   26.4865 C   0  0  0  0  0  0  0  0  0  0  0  0
   10.9715  -17.1049   26.6191 C   0  0  0  0  0  0  0  0  0  0  0  0
   11.4786  -18.2774   26.0909 O   0  0  0  0  0  0  0  0  0  0  0  0
   11.5849  -16.6058   27.6102 O   0  0  0  0  0  0  0  0  0  0  0  0
  1  2  1  0
  2  3  1  0
  3  4  1  1
  5  6  2  0
  5  3  1  0
  7  8  1  0
  9  8  1  6
  9 10  1  0
 10  5  1  0
 11 13  1  0
 11  9  1  0
 12 11  2  0
 14 25  1  0
 14 13  1  0
 15 16  1  0
 14 15  1  1
 16 17  2  0
 16 24  1  0
 17 18  1  0
 18 19  1  0
 19 20  2  0
 20 21  1  0
 22 21  2  0
 23 22  1  0
 24 23  2  0
 24 19  1  0
 25 26  1  0
 27 25  2  0
M  END
$$$$
