SSW.pdb
     RDKit          3D

 27 28  0  0  1  0  0  0  0  0999 V2000
   10.6001  -13.2581   19.2866 O   0  0  0  0  0  0  0  0  0  0  0  0
    9.9533  -14.1428   18.3950 C   0  0  0  0  0  0  0  0  0  0  0  0
    8.4420  -13.9335   18.5093 C   0  0  2  0  0  0  0  0  0  0  0  0
    8.1104  -12.5395   18.4237 N   0  0  0  0  0  0  0  0  0  0  0  0
    8.0456  -14.4447   19.8410 C   0  0  0  0  0  0  0  0  0  0  0  0
    7.7345  -13.6104   20.7534 O   0  0  0  0  0  0  0  0  0  0  0  0
    7.9407  -18.5462   21.0014 O   0  0  0  0  0  0  0  0  0  0  0  0
    7.0520  -17.6255   21.5499 C   0  0  0  0  0  0  0  0  0  0  0  0
    7.6233  -16.2320   21.5256 C   0  0  2  0  0  0  0  0  0  0  0  0
    7.9809  -15.8036   20.1960 N   0  0  0  0  0  0  0  0  0  0  0  0
    8.7962  -16.0765   22.4046 C   0  0  0  0  0  0  0  0  0  0  0  0
    9.9309  -16.0653   21.8741 O   0  0  0  0  0  0  0  0  0  0  0  0
    8.7107  -15.9391   23.8082 N   0  0  0  0  0  0  0  0  0  0  0  0
    9.9302  -15.9739   24.6224 C   0  0  1  0  0  0  0  0  0  0  0  0
    9.7323  -14.9528   25.7306 C   0  0  0  0  0  0  0  0  0  0  0  0
    8.3100  -14.6634   25.8666 C   0  0  0  0  0  0  0  0  0  0  0  0
    7.2862  -15.6178   25.9669 C   0  0  0  0  0  0  0  0  0  0  0  0
    6.1419  -14.9791   26.1259 N   0  0  0  0  0  0  0  0  0  0  0  0
    6.3217  -13.6521   26.1392 C   0  0  0  0  0  0  0  0  0  0  0  0
    5.4329  -12.5874   26.2674 C   0  0  0  0  0  0  0  0  0  0  0  0
    5.8673  -11.2833   26.2358 C   0  0  0  0  0  0  0  0  0  0  0  0
    7.2201  -11.0670   26.0715 C   0  0  0  0  0  0  0  0  0  0  0  0
    8.0961  -12.1384   25.9453 C   0  0  0  0  0  0  0  0  0  0  0  0
    7.6888  -13.4537   25.9750 C   0  0  0  0  0  0  0  0  0  0  0  0
   10.2490  -17.3218   25.0398 C   0  0  0  0  0  0  0  0  0  0  0  0
    9.4034  -18.4036   24.8806 O   0  0  0  0  0  0  0  0  0  0  0  0
   11.3688  -17.5411   25.5925 O   0  0  0  0  0  0  0  0  0  0  0  0
  1  2  1  0
  2  3  1  0
  3  4  1  1
  5  6  2  0
  5  3  1  0
  7  8  1  0
  9  8  1  6
  9 10  1  0
 10  5  1  0
 11 13  1  0
 11  9  1  0
 12 11  2  0
 14 25  1  0
 14 13  1  0
 15 16  1  0
 14 15  1  1
 16 17  2  0
 16 24  1  0
 17 18  1  0
 18 19  1  0
 19 20  2  0
 20 21  1  0
 22 21  2  0
 23 22  1  0
 24 23  2  0
 24 19  1  0
 25 26  1  0
 27 25  2  0
M  END
$$$$
