SSW.pdb
     RDKit          3D

 27 28  0  0  1  0  0  0  0  0999 V2000
   14.2242  -18.9368   18.8445 O   0  0  0  0  0  0  0  0  0  0  0  0
   13.2743  -18.4825   19.7865 C   0  0  0  0  0  0  0  0  0  0  0  0
   12.0810  -17.8931   19.0318 C   0  0  2  0  0  0  0  0  0  0  0  0
   12.5034  -16.8496   18.1411 N   0  0  0  0  0  0  0  0  0  0  0  0
   11.1771  -17.3201   20.0549 C   0  0  0  0  0  0  0  0  0  0  0  0
   11.2422  -16.0716   20.3044 O   0  0  0  0  0  0  0  0  0  0  0  0
    8.0953  -19.4321   22.1347 O   0  0  0  0  0  0  0  0  0  0  0  0
    7.9663  -18.1045   21.7359 C   0  0  0  0  0  0  0  0  0  0  0  0
    9.3037  -17.4126   21.6957 C   0  0  2  0  0  0  0  0  0  0  0  0
   10.2300  -18.0509   20.7936 N   0  0  0  0  0  0  0  0  0  0  0  0
    9.9345  -17.3040   23.0233 C   0  0  0  0  0  0  0  0  0  0  0  0
   10.9149  -18.0434   23.2705 O   0  0  0  0  0  0  0  0  0  0  0  0
    9.4954  -16.4139   24.0290 N   0  0  0  0  0  0  0  0  0  0  0  0
   10.1564  -16.4058   25.3384 C   0  0  1  0  0  0  0  0  0  0  0  0
    9.9767  -15.0043   25.8981 C   0  0  0  0  0  0  0  0  0  0  0  0
    8.5542  -14.6903   25.9554 C   0  0  0  0  0  0  0  0  0  0  0  0
    7.5081  -15.6256   25.9426 C   0  0  0  0  0  0  0  0  0  0  0  0
    6.3682  -14.9700   26.0578 N   0  0  0  0  0  0  0  0  0  0  0  0
    6.5718  -13.6494   26.1473 C   0  0  0  0  0  0  0  0  0  0  0  0
    5.6968  -12.5726   26.2693 C   0  0  0  0  0  0  0  0  0  0  0  0
    6.1569  -11.2784   26.3294 C   0  0  0  0  0  0  0  0  0  0  0  0
    7.5215  -11.0845   26.2640 C   0  0  0  0  0  0  0  0  0  0  0  0
    8.3834  -12.1678   26.1429 C   0  0  0  0  0  0  0  0  0  0  0  0
    7.9502  -13.4737   26.0821 C   0  0  0  0  0  0  0  0  0  0  0  0
    9.6936  -17.4946   26.1708 C   0  0  0  0  0  0  0  0  0  0  0  0
   10.3801  -17.9772   27.2693 O   0  0  0  0  0  0  0  0  0  0  0  0
    8.5928  -18.0557   25.8861 O   0  0  0  0  0  0  0  0  0  0  0  0
  1  2  1  0
  2  3  1  0
  3  4  1  6
  5  6  2  0
  5  3  1  0
  7  8  1  0
  9  8  1  1
  9 10  1  0
 10  5  1  0
 11 13  1  0
 11  9  1  0
 12 11  2  0
 14 25  1  0
 14 13  1  0
 15 16  1  0
 14 15  1  1
 16 17  2  0
 16 24  1  0
 17 18  1  0
 18 19  1  0
 19 20  2  0
 20 21  1  0
 22 21  2  0
 23 22  1  0
 24 23  2  0
 24 19  1  0
 25 26  1  0
 27 25  2  0
M  END
$$$$
