SSW.pdb
     RDKit          3D

 27 28  0  0  1  0  0  0  0  0999 V2000
   10.4140  -13.9651   18.2959 O   0  0  0  0  0  0  0  0  0  0  0  0
    9.6468  -14.5692   17.2749 C   0  0  0  0  0  0  0  0  0  0  0  0
    8.1737  -14.2231   17.5007 C   0  0  2  0  0  0  0  0  0  0  0  0
    7.9689  -12.8030   17.4558 N   0  0  0  0  0  0  0  0  0  0  0  0
    7.8268  -14.7199   18.8516 C   0  0  0  0  0  0  0  0  0  0  0  0
    7.7142  -13.8820   19.8058 O   0  0  0  0  0  0  0  0  0  0  0  0
    7.6630  -18.7939   20.0488 O   0  0  0  0  0  0  0  0  0  0  0  0
    6.7342  -17.8955   20.5671 C   0  0  0  0  0  0  0  0  0  0  0  0
    7.2532  -16.4823   20.5176 C   0  0  2  0  0  0  0  0  0  0  0  0
    7.6053  -16.0684   19.1820 N   0  0  0  0  0  0  0  0  0  0  0  0
    8.4122  -16.2646   21.4016 C   0  0  0  0  0  0  0  0  0  0  0  0
    9.5450  -16.1752   20.8744 O   0  0  0  0  0  0  0  0  0  0  0  0
    8.3156  -16.1509   22.8067 N   0  0  0  0  0  0  0  0  0  0  0  0
    9.5295  -15.9804   23.6122 C   0  0  1  0  0  0  0  0  0  0  0  0
    9.4708  -14.5715   24.1789 C   0  0  0  0  0  0  0  0  0  0  0  0
    8.2124  -14.3949   24.8934 C   0  0  0  0  0  0  0  0  0  0  0  0
    7.2916  -15.4105   25.1934 C   0  0  0  0  0  0  0  0  0  0  0  0
    6.3037  -14.8783   25.8887 N   0  0  0  0  0  0  0  0  0  0  0  0
    6.4930  -13.5665   26.0799 C   0  0  0  0  0  0  0  0  0  0  0  0
    5.7351  -12.5955   26.7301 C   0  0  0  0  0  0  0  0  0  0  0  0
    6.1422  -11.2832   26.7801 C   0  0  0  0  0  0  0  0  0  0  0  0
    7.3325  -10.9621   26.1605 C   0  0  0  0  0  0  0  0  0  0  0  0
    8.0792  -11.9407   25.5157 C   0  0  0  0  0  0  0  0  0  0  0  0
    7.6962  -13.2621   25.4516 C   0  0  0  0  0  0  0  0  0  0  0  0
    9.6829  -17.0529   24.5707 C   0  0  0  0  0  0  0  0  0  0  0  0
   10.8408  -17.2942   25.2862 O   0  0  0  0  0  0  0  0  0  0  0  0
    8.7046  -17.8329   24.7760 O   0  0  0  0  0  0  0  0  0  0  0  0
  1  2  1  0
  2  3  1  0
  3  4  1  1
  5  6  2  0
  5  3  1  0
  7  8  1  0
  9  8  1  6
  9 10  1  0
 10  5  1  0
 11 13  1  0
 11  9  1  0
 12 11  2  0
 14 25  1  0
 14 13  1  0
 15 16  1  0
 14 15  1  1
 16 17  2  0
 16 24  1  0
 17 18  1  0
 18 19  1  0
 19 20  2  0
 20 21  1  0
 22 21  2  0
 23 22  1  0
 24 23  2  0
 24 19  1  0
 25 26  1  0
 27 25  2  0
M  END
$$$$
