SSW.pdb
     RDKit          3D

 27 28  0  0  1  0  0  0  0  0999 V2000
    8.5528  -12.8455   19.7115 O   0  0  0  0  0  0  0  0  0  0  0  0
    8.5102  -13.6910   20.8426 C   0  0  0  0  0  0  0  0  0  0  0  0
    8.2104  -15.1169   20.3759 C   0  0  2  0  0  0  0  0  0  0  0  0
    6.8312  -15.2537   20.0020 N   0  0  0  0  0  0  0  0  0  0  0  0
    8.4903  -16.0045   21.5274 C   0  0  0  0  0  0  0  0  0  0  0  0
    7.5525  -16.2553   22.3538 O   0  0  0  0  0  0  0  0  0  0  0  0
   12.2161  -17.8414   22.3169 O   0  0  0  0  0  0  0  0  0  0  0  0
   11.0384  -18.4745   22.7051 C   0  0  0  0  0  0  0  0  0  0  0  0
    9.9300  -17.4793   22.9283 C   0  0  2  0  0  0  0  0  0  0  0  0
    9.7307  -16.6096   21.7956 N   0  0  0  0  0  0  0  0  0  0  0  0
   10.1344  -16.6516   24.1305 C   0  0  0  0  0  0  0  0  0  0  0  0
   10.7940  -15.5935   24.0104 O   0  0  0  0  0  0  0  0  0  0  0  0
    9.6281  -16.9850   25.4068 N   0  0  0  0  0  0  0  0  0  0  0  0
   10.0858  -16.2497   26.5905 C   0  0  1  0  0  0  0  0  0  0  0  0
    8.8690  -16.0830   27.4858 C   0  0  0  0  0  0  0  0  0  0  0  0
    7.8447  -15.3350   26.7671 C   0  0  0  0  0  0  0  0  0  0  0  0
    6.7855  -15.8930   26.0351 C   0  0  0  0  0  0  0  0  0  0  0  0
    6.0414  -14.9065   25.5704 N   0  0  0  0  0  0  0  0  0  0  0  0
    6.5269  -13.7140   25.9387 C   0  0  0  0  0  0  0  0  0  0  0  0
    6.1025  -12.4115   25.6873 C   0  0  0  0  0  0  0  0  0  0  0  0
    6.7926  -11.3263   26.1738 C   0  0  0  0  0  0  0  0  0  0  0  0
    7.9247  -11.5755   26.9222 C   0  0  0  0  0  0  0  0  0  0  0  0
    8.3368  -12.8801   27.1659 C   0  0  0  0  0  0  0  0  0  0  0  0
    7.6642  -13.9848   26.6926 C   0  0  0  0  0  0  0  0  0  0  0  0
   11.2428  -16.8787   27.1889 C   0  0  0  0  0  0  0  0  0  0  0  0
   11.9831  -16.3239   28.2161 O   0  0  0  0  0  0  0  0  0  0  0  0
   11.6178  -18.0085   26.7524 O   0  0  0  0  0  0  0  0  0  0  0  0
  1  2  1  0
  2  3  1  0
  3  4  1  1
  5  6  2  0
  5  3  1  0
  7  8  1  0
  9  8  1  6
  9 10  1  0
 10  5  1  0
 11 13  1  0
 11  9  1  0
 12 11  2  0
 14 25  1  0
 14 13  1  0
 15 16  1  0
 14 15  1  1
 16 17  2  0
 16 24  1  0
 17 18  1  0
 18 19  1  0
 19 20  2  0
 20 21  1  0
 22 21  2  0
 23 22  1  0
 24 23  2  0
 24 19  1  0
 25 26  1  0
 27 25  2  0
M  END
$$$$
