SSW.pdb
     RDKit          3D

 27 28  0  0  1  0  0  0  0  0999 V2000
    8.7744  -20.0841   22.4003 O   0  0  0  0  0  0  0  0  0  0  0  0
    7.5937  -19.8581   21.6581 C   0  0  0  0  0  0  0  0  0  0  0  0
    7.9628  -19.1377   20.3599 C   0  0  2  0  0  0  0  0  0  0  0  0
    8.8739  -19.9253   19.5787 N   0  0  0  0  0  0  0  0  0  0  0  0
    8.6285  -17.8752   20.7534 C   0  0  0  0  0  0  0  0  0  0  0  0
    9.8993  -17.8013   20.6834 O   0  0  0  0  0  0  0  0  0  0  0  0
    6.5433  -14.5423   22.0552 O   0  0  0  0  0  0  0  0  0  0  0  0
    7.7273  -14.2866   21.3687 C   0  0  0  0  0  0  0  0  0  0  0  0
    8.6544  -15.4729   21.4157 C   0  0  2  0  0  0  0  0  0  0  0  0
    7.9651  -16.7224   21.2091 N   0  0  0  0  0  0  0  0  0  0  0  0
    9.4180  -15.5558   22.6736 C   0  0  0  0  0  0  0  0  0  0  0  0
   10.3180  -14.7074   22.8719 O   0  0  0  0  0  0  0  0  0  0  0  0
    9.1905  -16.5365   23.6650 N   0  0  0  0  0  0  0  0  0  0  0  0
   10.0528  -16.5924   24.8503 C   0  0  1  0  0  0  0  0  0  0  0  0
    9.8136  -15.2996   25.6128 C   0  0  0  0  0  0  0  0  0  0  0  0
    8.3788  -15.0962   25.7723 C   0  0  0  0  0  0  0  0  0  0  0  0
    7.3975  -16.0971   25.7055 C   0  0  0  0  0  0  0  0  0  0  0  0
    6.2249  -15.5409   25.9468 N   0  0  0  0  0  0  0  0  0  0  0  0
    6.3457  -14.2264   26.1724 C   0  0  0  0  0  0  0  0  0  0  0  0
    5.4097  -13.2343   26.4545 C   0  0  0  0  0  0  0  0  0  0  0  0
    5.7862  -11.9244   26.6359 C   0  0  0  0  0  0  0  0  0  0  0  0
    7.1293  -11.6275   26.5276 C   0  0  0  0  0  0  0  0  0  0  0  0
    8.0528  -12.6271   26.2462 C   0  0  0  0  0  0  0  0  0  0  0  0
    7.7039  -13.9466   26.0616 C   0  0  0  0  0  0  0  0  0  0  0  0
    9.8566  -17.8203   25.5894 C   0  0  0  0  0  0  0  0  0  0  0  0
   10.6819  -18.2510   26.6112 O   0  0  0  0  0  0  0  0  0  0  0  0
    8.8728  -18.5623   25.2906 O   0  0  0  0  0  0  0  0  0  0  0  0
  1  2  1  0
  2  3  1  0
  3  4  1  6
  5  6  2  0
  5  3  1  0
  7  8  1  0
  9  8  1  1
  9 10  1  0
 10  5  1  0
 11 13  1  0
 11  9  1  0
 12 11  2  0
 14 25  1  0
 14 13  1  0
 15 16  1  0
 14 15  1  1
 16 17  2  0
 16 24  1  0
 17 18  1  0
 18 19  1  0
 19 20  2  0
 20 21  1  0
 22 21  2  0
 23 22  1  0
 24 23  2  0
 24 19  1  0
 25 26  1  0
 27 25  2  0
M  END
$$$$
