SSW.pdb
     RDKit          3D

 27 28  0  0  1  0  0  0  0  0999 V2000
    9.7642  -12.1675   18.3160 O   0  0  0  0  0  0  0  0  0  0  0  0
    9.8591  -13.5438   18.6209 C   0  0  0  0  0  0  0  0  0  0  0  0
    8.5095  -14.2031   18.3299 C   0  0  2  0  0  0  0  0  0  0  0  0
    7.4767  -13.2157   18.1917 N   0  0  0  0  0  0  0  0  0  0  0  0
    8.2025  -15.0655   19.4934 C   0  0  0  0  0  0  0  0  0  0  0  0
    7.5111  -14.5851   20.4507 O   0  0  0  0  0  0  0  0  0  0  0  0
    9.8933  -18.8851   20.2302 O   0  0  0  0  0  0  0  0  0  0  0  0
    8.5866  -18.6384   20.6426 C   0  0  0  0  0  0  0  0  0  0  0  0
    8.3410  -17.1642   20.8302 C   0  0  2  0  0  0  0  0  0  0  0  0
    8.6174  -16.4010   19.6384 N   0  0  0  0  0  0  0  0  0  0  0  0
    9.1112  -16.5911   21.9485 C   0  0  0  0  0  0  0  0  0  0  0  0
   10.0208  -15.7735   21.6778 O   0  0  0  0  0  0  0  0  0  0  0  0
    8.8799  -16.9122   23.3050 N   0  0  0  0  0  0  0  0  0  0  0  0
    9.7420  -16.3463   24.3480 C   0  0  1  0  0  0  0  0  0  0  0  0
    9.4484  -14.8554   24.3814 C   0  0  0  0  0  0  0  0  0  0  0  0
    8.1694  -14.6340   25.0450 C   0  0  0  0  0  0  0  0  0  0  0  0
    7.1653  -15.5968   25.2299 C   0  0  0  0  0  0  0  0  0  0  0  0
    6.1816  -15.0401   25.9118 N   0  0  0  0  0  0  0  0  0  0  0  0
    6.4517  -13.7608   26.2016 C   0  0  0  0  0  0  0  0  0  0  0  0
    5.7303  -12.7813   26.8798 C   0  0  0  0  0  0  0  0  0  0  0  0
    6.2248  -11.5084   27.0394 C   0  0  0  0  0  0  0  0  0  0  0  0
    7.4658  -11.2357   26.5012 C   0  0  0  0  0  0  0  0  0  0  0  0
    8.1753  -12.2224   25.8273 C   0  0  0  0  0  0  0  0  0  0  0  0
    7.7049  -13.5052   25.6542 C   0  0  0  0  0  0  0  0  0  0  0  0
    9.5956  -17.0583   25.5987 C   0  0  0  0  0  0  0  0  0  0  0  0
    8.6793  -18.0711   25.8121 O   0  0  0  0  0  0  0  0  0  0  0  0
   10.3443  -16.7429   26.5721 O   0  0  0  0  0  0  0  0  0  0  0  0
  1  2  1  0
  2  3  1  0
  3  4  1  1
  5  6  2  0
  5  3  1  0
  7  8  1  0
  9  8  1  6
  9 10  1  0
 10  5  1  0
 11 13  1  0
 11  9  1  0
 12 11  2  0
 14 25  1  0
 14 13  1  0
 15 16  1  0
 14 15  1  1
 16 17  2  0
 16 24  1  0
 17 18  1  0
 18 19  1  0
 19 20  2  0
 20 21  1  0
 22 21  2  0
 23 22  1  0
 24 23  2  0
 24 19  1  0
 25 26  1  0
 27 25  2  0
M  END
$$$$
