SSW.pdb
     RDKit          3D

 27 28  0  0  1  0  0  0  0  0999 V2000
    9.5343  -12.5551   20.5335 O   0  0  0  0  0  0  0  0  0  0  0  0
    8.2635  -12.5867   19.9169 C   0  0  0  0  0  0  0  0  0  0  0  0
    8.0697  -13.9581   19.2668 C   0  0  2  0  0  0  0  0  0  0  0  0
    6.8150  -14.0227   18.5725 N   0  0  0  0  0  0  0  0  0  0  0  0
    8.0660  -14.9489   20.3669 C   0  0  0  0  0  0  0  0  0  0  0  0
    6.9878  -15.1402   21.0198 O   0  0  0  0  0  0  0  0  0  0  0  0
   11.0854  -17.8072   20.9951 O   0  0  0  0  0  0  0  0  0  0  0  0
    9.7514  -18.0334   21.3234 C   0  0  0  0  0  0  0  0  0  0  0  0
    9.0700  -16.7605   21.7528 C   0  0  2  0  0  0  0  0  0  0  0  0
    9.1753  -15.7159   20.7644 N   0  0  0  0  0  0  0  0  0  0  0  0
    9.5711  -16.2465   23.0400 C   0  0  0  0  0  0  0  0  0  0  0  0
   10.4228  -15.3283   23.0148 O   0  0  0  0  0  0  0  0  0  0  0  0
    9.1442  -16.7310   24.2968 N   0  0  0  0  0  0  0  0  0  0  0  0
    9.8132  -16.2782   25.5211 C   0  0  1  0  0  0  0  0  0  0  0  0
    8.7572  -16.2925   26.6141 C   0  0  0  0  0  0  0  0  0  0  0  0
    7.6562  -15.4186   26.2276 C   0  0  0  0  0  0  0  0  0  0  0  0
    6.4463  -15.8326   25.6497 C   0  0  0  0  0  0  0  0  0  0  0  0
    5.6821  -14.7685   25.4874 N   0  0  0  0  0  0  0  0  0  0  0  0
    6.2948  -13.6578   25.9168 C   0  0  0  0  0  0  0  0  0  0  0  0
    5.9025  -12.3217   25.9425 C   0  0  0  0  0  0  0  0  0  0  0  0
    6.7325  -11.3402   26.4305 C   0  0  0  0  0  0  0  0  0  0  0  0
    7.9723  -11.7283   26.8952 C   0  0  0  0  0  0  0  0  0  0  0  0
    8.3511  -13.0650   26.8643 C   0  0  0  0  0  0  0  0  0  0  0  0
    7.5397  -14.0683   26.3828 C   0  0  0  0  0  0  0  0  0  0  0  0
   11.0156  -17.0399   25.7791 C   0  0  0  0  0  0  0  0  0  0  0  0
   11.9539  -16.7071   26.7380 O   0  0  0  0  0  0  0  0  0  0  0  0
   11.2406  -18.0786   25.0877 O   0  0  0  0  0  0  0  0  0  0  0  0
  1  2  1  0
  2  3  1  0
  3  4  1  1
  5  6  2  0
  5  3  1  0
  7  8  1  0
  9  8  1  6
  9 10  1  0
 10  5  1  0
 11 13  1  0
 11  9  1  0
 12 11  2  0
 14 25  1  0
 14 13  1  0
 15 16  1  0
 14 15  1  1
 16 17  2  0
 16 24  1  0
 17 18  1  0
 18 19  1  0
 19 20  2  0
 20 21  1  0
 22 21  2  0
 23 22  1  0
 24 23  2  0
 24 19  1  0
 25 26  1  0
 27 25  2  0
M  END
$$$$
