VKH.pdb
     RDKit          3D

 27 27  0  0  1  0  0  0  0  0999 V2000
    8.1210  -12.0963   18.1856 C   0  0  0  0  0  0  0  0  0  0  0  0
    8.8741  -13.0371   19.1074 C   0  0  1  0  0  0  0  0  0  0  0  0
    8.2839  -12.8714   20.4859 C   0  0  0  0  0  0  0  0  0  0  0  0
    8.6936  -14.4338   18.5707 C   0  0  2  0  0  0  0  0  0  0  0  0
    7.2674  -14.7597   18.4532 N   0  0  0  0  0  0  0  0  0  0  0  0
    9.3875  -15.4591   19.3625 C   0  0  0  0  0  0  0  0  0  0  0  0
    8.7633  -16.1919   20.1843 O   0  0  0  0  0  0  0  0  0  0  0  0
   10.7838  -15.6307   19.2026 N   0  0  0  0  0  0  0  0  0  0  0  0
   11.5495  -16.6834   19.9060 C   0  0  1  0  0  0  0  0  0  0  0  0
   12.7021  -17.0714   18.9959 C   0  0  0  0  0  0  0  0  0  0  0  0
   13.4863  -18.2130   19.5068 C   0  0  0  0  0  0  0  0  0  0  0  0
   14.6244  -18.5090   18.5214 C   0  0  0  0  0  0  0  0  0  0  0  0
   15.3436  -19.7830   18.8353 C   0  0  0  0  0  0  0  0  0  0  0  0
   16.4623  -19.8918   17.9018 N   0  0  0  0  0  0  0  0  0  0  0  0
   11.9423  -16.2325   21.2404 C   0  0  0  0  0  0  0  0  0  0  0  0
   11.6748  -15.0411   21.5790 O   0  0  0  0  0  0  0  0  0  0  0  0
   12.6053  -17.0006   22.2305 N   0  0  0  0  0  0  0  0  0  0  0  0
   12.1238  -17.0707   23.6059 C   0  0  1  0  0  0  0  0  0  0  0  0
   10.7346  -17.7200   23.5479 C   0  0  0  0  0  0  0  0  0  0  0  0
    9.6737  -16.6989   23.6563 C   0  0  0  0  0  0  0  0  0  0  0  0
    9.8818  -15.3549   23.8874 C   0  0  0  0  0  0  0  0  0  0  0  0
    8.6707  -14.7971   23.9119 N   0  0  0  0  0  0  0  0  0  0  0  0
    7.7470  -15.7538   23.7048 C   0  0  0  0  0  0  0  0  0  0  0  0
    8.3612  -16.9535   23.5426 N   0  0  0  0  0  0  0  0  0  0  0  0
   13.0017  -17.9210   24.4455 C   0  0  0  0  0  0  0  0  0  0  0  0
   13.5668  -18.9252   23.9456 O   0  0  0  0  0  0  0  0  0  0  0  0
   13.2569  -17.6851   25.7894 O   0  0  0  0  0  0  0  0  0  0  0  0
  2  1  1  6
  2  4  1  0
  3  2  1  0
  4  5  1  1
  6  7  2  0
  6  4  1  0
  8  6  1  0
  9 15  1  0
  9  8  1  0
  9 10  1  6
 11 12  1  0
 11 10  1  0
 13 14  1  0
 13 12  1  0
 15 17  1  0
 16 15  2  0
 17 18  1  0
 18 25  1  0
 18 19  1  6
 20 19  1  0
 20 21  2  0
 22 21  1  0
 23 22  1  0
 24 23  2  0
 24 20  1  0
 25 26  2  0
 25 27  1  0
M  END
$$$$
