VKH.pdb
     RDKit          3D

 27 27  0  0  1  0  0  0  0  0999 V2000
    8.5675  -12.8243   21.2452 C   0  0  0  0  0  0  0  0  0  0  0  0
    7.6808  -13.2993   20.1095 C   0  0  1  0  0  0  0  0  0  0  0  0
    7.9399  -12.3878   18.9357 C   0  0  0  0  0  0  0  0  0  0  0  0
    8.0519  -14.7304   19.8168 C   0  0  2  0  0  0  0  0  0  0  0  0
    7.3033  -15.2294   18.6572 N   0  0  0  0  0  0  0  0  0  0  0  0
    7.8706  -15.6286   20.9658 C   0  0  0  0  0  0  0  0  0  0  0  0
    6.7172  -15.9595   21.3685 O   0  0  0  0  0  0  0  0  0  0  0  0
    9.0104  -16.1345   21.6362 N   0  0  0  0  0  0  0  0  0  0  0  0
    8.9201  -17.0453   22.7989 C   0  0  1  0  0  0  0  0  0  0  0  0
    9.7810  -18.2549   22.4778 C   0  0  0  0  0  0  0  0  0  0  0  0
    9.7201  -19.3028   23.5158 C   0  0  0  0  0  0  0  0  0  0  0  0
   10.6169  -20.4719   23.0886 C   0  0  0  0  0  0  0  0  0  0  0  0
   10.6160  -21.5929   24.0797 C   0  0  0  0  0  0  0  0  0  0  0  0
   11.3049  -22.7221   23.4593 N   0  0  0  0  0  0  0  0  0  0  0  0
    9.2754  -16.3455   24.0326 C   0  0  0  0  0  0  0  0  0  0  0  0
   10.3620  -15.6946   24.0669 O   0  0  0  0  0  0  0  0  0  0  0  0
    8.5181  -16.3078   25.2305 N   0  0  0  0  0  0  0  0  0  0  0  0
    9.0036  -15.6370   26.4316 C   0  0  1  0  0  0  0  0  0  0  0  0
    7.7631  -15.1208   27.1731 C   0  0  0  0  0  0  0  0  0  0  0  0
    7.2639  -13.8757   26.5565 C   0  0  0  0  0  0  0  0  0  0  0  0
    7.9179  -13.1515   25.5814 C   0  0  0  0  0  0  0  0  0  0  0  0
    7.1292  -12.1112   25.3089 N   0  0  0  0  0  0  0  0  0  0  0  0
    6.0301  -12.1845   26.0821 C   0  0  0  0  0  0  0  0  0  0  0  0
    6.1000  -13.2871   26.8710 N   0  0  0  0  0  0  0  0  0  0  0  0
    9.7237  -16.5765   27.3244 C   0  0  0  0  0  0  0  0  0  0  0  0
   10.2033  -16.1668   28.4107 O   0  0  0  0  0  0  0  0  0  0  0  0
    9.9161  -17.9222   27.0432 O   0  0  0  0  0  0  0  0  0  0  0  0
  2  1  1  1
  2  4  1  0
  3  2  1  0
  4  5  1  6
  6  7  2  0
  6  4  1  0
  8  6  1  0
  9 15  1  0
  9  8  1  0
  9 10  1  6
 11 12  1  0
 11 10  1  0
 13 14  1  0
 13 12  1  0
 15 17  1  0
 16 15  2  0
 17 18  1  0
 18 25  1  0
 18 19  1  1
 20 19  1  0
 20 21  2  0
 22 21  1  0
 23 22  1  0
 24 23  2  0
 24 20  1  0
 25 26  2  0
 25 27  1  0
M  END
$$$$
