VKH.pdb
     RDKit          3D

 27 27  0  0  1  0  0  0  0  0999 V2000
    7.6329  -16.8158   26.7797 C   0  0  0  0  0  0  0  0  0  0  0  0
    7.3313  -18.2542   26.4032 C   0  0  1  0  0  0  0  0  0  0  0  0
    6.2917  -18.7565   27.3742 C   0  0  0  0  0  0  0  0  0  0  0  0
    6.8335  -18.2525   24.9807 C   0  0  2  0  0  0  0  0  0  0  0  0
    6.2896  -19.5682   24.6241 N   0  0  0  0  0  0  0  0  0  0  0  0
    7.8521  -17.8402   24.0048 C   0  0  0  0  0  0  0  0  0  0  0  0
    8.7071  -18.6596   23.5581 O   0  0  0  0  0  0  0  0  0  0  0  0
    7.8774  -16.4980   23.5549 N   0  0  0  0  0  0  0  0  0  0  0  0
    8.9126  -15.9789   22.6340 C   0  0  1  0  0  0  0  0  0  0  0  0
    8.3673  -14.6915   22.0400 C   0  0  0  0  0  0  0  0  0  0  0  0
    7.4453  -14.9186   20.9097 C   0  0  0  0  0  0  0  0  0  0  0  0
    7.8152  -13.9583   19.7719 C   0  0  0  0  0  0  0  0  0  0  0  0
    6.9291  -14.1110   18.5759 C   0  0  0  0  0  0  0  0  0  0  0  0
    7.4951  -13.2903   17.5080 N   0  0  0  0  0  0  0  0  0  0  0  0
   10.1963  -15.8456   23.3214 C   0  0  0  0  0  0  0  0  0  0  0  0
   10.1954  -15.6978   24.5800 O   0  0  0  0  0  0  0  0  0  0  0  0
   11.4813  -15.8672   22.7231 N   0  0  0  0  0  0  0  0  0  0  0  0
   12.6434  -16.4245   23.4067 C   0  0  1  0  0  0  0  0  0  0  0  0
   12.3901  -17.9325   23.5363 C   0  0  0  0  0  0  0  0  0  0  0  0
   12.0012  -18.2820   24.9170 C   0  0  0  0  0  0  0  0  0  0  0  0
   11.8014  -17.3798   25.9413 C   0  0  0  0  0  0  0  0  0  0  0  0
   11.4662  -18.1070   27.0078 N   0  0  0  0  0  0  0  0  0  0  0  0
   11.4576  -19.4076   26.6621 C   0  0  0  0  0  0  0  0  0  0  0  0
   11.7915  -19.5337   25.3523 N   0  0  0  0  0  0  0  0  0  0  0  0
   13.8835  -16.2257   22.6187 C   0  0  0  0  0  0  0  0  0  0  0  0
   14.9850  -16.6259   23.0707 O   0  0  0  0  0  0  0  0  0  0  0  0
   13.9235  -15.6094   21.3754 O   0  0  0  0  0  0  0  0  0  0  0  0
  2  1  1  1
  2  4  1  0
  3  2  1  0
  4  5  1  6
  6  7  2  0
  6  4  1  0
  8  6  1  0
  9 15  1  0
  9  8  1  0
  9 10  1  1
 11 12  1  0
 11 10  1  0
 13 14  1  0
 13 12  1  0
 15 17  1  0
 16 15  2  0
 17 18  1  0
 18 25  1  0
 18 19  1  6
 20 19  1  0
 20 21  2  0
 22 21  1  0
 23 22  1  0
 24 23  2  0
 24 20  1  0
 25 26  2  0
 25 27  1  0
M  END
$$$$
