VKH.pdb
     RDKit          3D

 27 27  0  0  1  0  0  0  0  0999 V2000
    1.1357  -23.2690   26.2646 C   0  0  0  0  0  0  0  0  0  0  0  0
    0.7890  -24.5994   25.6231 C   0  0  1  0  0  0  0  0  0  0  0  0
   -0.7160  -24.6778   25.5542 C   0  0  0  0  0  0  0  0  0  0  0  0
    1.4271  -24.6210   24.2579 C   0  0  2  0  0  0  0  0  0  0  0  0
    1.0803  -25.8572   23.5471 N   0  0  0  0  0  0  0  0  0  0  0  0
    2.8857  -24.4437   24.2909 C   0  0  0  0  0  0  0  0  0  0  0  0
    3.6515  -25.3580   24.7145 O   0  0  0  0  0  0  0  0  0  0  0  0
    3.4458  -23.2243   23.8394 N   0  0  0  0  0  0  0  0  0  0  0  0
    4.8994  -22.9492   23.8667 C   0  0  1  0  0  0  0  0  0  0  0  0
    5.2108  -22.1074   22.6412 C   0  0  0  0  0  0  0  0  0  0  0  0
    6.6580  -21.9202   22.4180 C   0  0  0  0  0  0  0  0  0  0  0  0
    6.8632  -21.2523   21.0521 C   0  0  0  0  0  0  0  0  0  0  0  0
    8.3083  -21.0739   20.7076 C   0  0  0  0  0  0  0  0  0  0  0  0
    8.3677  -20.5120   19.3603 N   0  0  0  0  0  0  0  0  0  0  0  0
    5.2880  -22.3489   25.1421 C   0  0  0  0  0  0  0  0  0  0  0  0
    4.6575  -21.3267   25.5461 O   0  0  0  0  0  0  0  0  0  0  0  0
    6.3188  -22.7957   26.0068 N   0  0  0  0  0  0  0  0  0  0  0  0
    6.6707  -22.0770   27.2266 C   0  0  1  0  0  0  0  0  0  0  0  0
    6.7202  -23.1226   28.3487 C   0  0  0  0  0  0  0  0  0  0  0  0
    5.3578  -23.5231   28.7526 C   0  0  0  0  0  0  0  0  0  0  0  0
    4.2003  -22.8427   28.4361 C   0  0  0  0  0  0  0  0  0  0  0  0
    3.2058  -23.5368   28.9906 N   0  0  0  0  0  0  0  0  0  0  0  0
    3.7223  -24.6048   29.6260 C   0  0  0  0  0  0  0  0  0  0  0  0
    5.0726  -24.6101   29.4857 N   0  0  0  0  0  0  0  0  0  0  0  0
    8.0079  -21.4456   27.1177 C   0  0  0  0  0  0  0  0  0  0  0  0
    8.7109  -21.6375   26.0947 O   0  0  0  0  0  0  0  0  0  0  0  0
    8.5633  -20.6293   28.0936 O   0  0  0  0  0  0  0  0  0  0  0  0
  2  1  1  6
  2  4  1  0
  3  2  1  0
  4  5  1  1
  6  7  2  0
  6  4  1  0
  8  6  1  0
  9 15  1  0
  9  8  1  0
  9 10  1  6
 11 12  1  0
 11 10  1  0
 13 14  1  0
 13 12  1  0
 15 17  1  0
 16 15  2  0
 17 18  1  0
 18 25  1  0
 18 19  1  1
 20 19  1  0
 20 21  2  0
 22 21  1  0
 23 22  1  0
 24 23  2  0
 24 20  1  0
 25 26  2  0
 25 27  1  0
M  END
$$$$
