VKH.pdb
     RDKit          3D

 27 27  0  0  1  0  0  0  0  0999 V2000
    5.0001  -21.5799   21.2984 C   0  0  0  0  0  0  0  0  0  0  0  0
    6.1831  -20.7665   20.8080 C   0  0  1  0  0  0  0  0  0  0  0  0
    5.8562  -20.3114   19.4074 C   0  0  0  0  0  0  0  0  0  0  0  0
    6.3607  -19.6112   21.7594 C   0  0  2  0  0  0  0  0  0  0  0  0
    5.1321  -18.8119   21.8333 N   0  0  0  0  0  0  0  0  0  0  0  0
    7.5081  -18.7537   21.4308 C   0  0  0  0  0  0  0  0  0  0  0  0
    8.6523  -19.2431   21.2000 O   0  0  0  0  0  0  0  0  0  0  0  0
    7.3296  -17.3504   21.3712 N   0  0  0  0  0  0  0  0  0  0  0  0
    8.4433  -16.4089   21.1210 C   0  0  1  0  0  0  0  0  0  0  0  0
    7.8443  -15.1900   20.4405 C   0  0  0  0  0  0  0  0  0  0  0  0
    7.7006  -15.3524   18.9803 C   0  0  0  0  0  0  0  0  0  0  0  0
    7.8330  -13.9757   18.3164 C   0  0  0  0  0  0  0  0  0  0  0  0
    7.6469  -14.0295   16.8327 C   0  0  0  0  0  0  0  0  0  0  0  0
    7.5644  -12.6513   16.3548 N   0  0  0  0  0  0  0  0  0  0  0  0
    9.1715  -16.1292   22.3577 C   0  0  0  0  0  0  0  0  0  0  0  0
    8.5138  -15.7603   23.3761 O   0  0  0  0  0  0  0  0  0  0  0  0
   10.5718  -16.2301   22.5549 N   0  0  0  0  0  0  0  0  0  0  0  0
   11.1887  -15.9932   23.8555 C   0  0  1  0  0  0  0  0  0  0  0  0
   10.7190  -17.1299   24.7734 C   0  0  0  0  0  0  0  0  0  0  0  0
    9.3151  -16.9271   25.1828 C   0  0  0  0  0  0  0  0  0  0  0  0
    8.6921  -15.7033   25.3143 C   0  0  0  0  0  0  0  0  0  0  0  0
    7.4430  -15.9691   25.6985 N   0  0  0  0  0  0  0  0  0  0  0  0
    7.2944  -17.3027   25.8018 C   0  0  0  0  0  0  0  0  0  0  0  0
    8.4612  -17.9180   25.4812 N   0  0  0  0  0  0  0  0  0  0  0  0
   12.6682  -16.0423   23.7714 C   0  0  0  0  0  0  0  0  0  0  0  0
   13.3592  -15.9546   24.8167 O   0  0  0  0  0  0  0  0  0  0  0  0
   13.3745  -16.1828   22.5847 O   0  0  0  0  0  0  0  0  0  0  0  0
  2  1  1  1
  2  4  1  0
  3  2  1  0
  4  5  1  6
  6  7  2  0
  6  4  1  0
  8  6  1  0
  9 15  1  0
  9  8  1  0
  9 10  1  1
 11 12  1  0
 11 10  1  0
 13 14  1  0
 13 12  1  0
 15 17  1  0
 16 15  2  0
 17 18  1  0
 18 25  1  0
 18 19  1  1
 20 19  1  0
 20 21  2  0
 22 21  1  0
 23 22  1  0
 24 23  2  0
 24 20  1  0
 25 26  2  0
 25 27  1  0
M  END
$$$$
