VKH.pdb
     RDKit          3D

 27 27  0  0  1  0  0  0  0  0999 V2000
    8.4535  -12.2923   18.7315 C   0  0  0  0  0  0  0  0  0  0  0  0
    8.6519  -13.2337   19.9046 C   0  0  1  0  0  0  0  0  0  0  0  0
    7.6619  -12.8287   20.9685 C   0  0  0  0  0  0  0  0  0  0  0  0
    8.4133  -14.6348   19.4031 C   0  0  2  0  0  0  0  0  0  0  0  0
    7.1247  -14.7193   18.7058 N   0  0  0  0  0  0  0  0  0  0  0  0
    8.4902  -15.6550   20.4581 C   0  0  0  0  0  0  0  0  0  0  0  0
    7.4896  -15.9314   21.1822 O   0  0  0  0  0  0  0  0  0  0  0  0
    9.7095  -16.3430   20.6689 N   0  0  0  0  0  0  0  0  0  0  0  0
    9.8831  -17.3648   21.7250 C   0  0  1  0  0  0  0  0  0  0  0  0
   10.8390  -18.4088   21.1739 C   0  0  0  0  0  0  0  0  0  0  0  0
   10.1890  -19.3631   20.2541 C   0  0  0  0  0  0  0  0  0  0  0  0
   11.2470  -20.3456   19.7353 C   0  0  0  0  0  0  0  0  0  0  0  0
   10.7093  -21.2777   18.6957 C   0  0  0  0  0  0  0  0  0  0  0  0
   11.8272  -22.0891   18.2196 N   0  0  0  0  0  0  0  0  0  0  0  0
   10.3044  -16.7444   22.9803 C   0  0  0  0  0  0  0  0  0  0  0  0
   11.0465  -15.7186   22.9283 O   0  0  0  0  0  0  0  0  0  0  0  0
    9.9641  -17.1702   24.2890 N   0  0  0  0  0  0  0  0  0  0  0  0
   10.4575  -16.4842   25.4782 C   0  0  1  0  0  0  0  0  0  0  0  0
    9.2791  -15.6721   26.0323 C   0  0  0  0  0  0  0  0  0  0  0  0
    9.6344  -15.0447   27.3206 C   0  0  0  0  0  0  0  0  0  0  0  0
   10.8553  -15.1586   27.9527 C   0  0  0  0  0  0  0  0  0  0  0  0
   10.7529  -14.4460   29.0753 N   0  0  0  0  0  0  0  0  0  0  0  0
    9.5198  -13.9107   29.1396 C   0  0  0  0  0  0  0  0  0  0  0  0
    8.8056  -14.2775   28.0450 N   0  0  0  0  0  0  0  0  0  0  0  0
   10.8913  -17.4468   26.5192 C   0  0  0  0  0  0  0  0  0  0  0  0
   10.4616  -18.6269   26.5006 O   0  0  0  0  0  0  0  0  0  0  0  0
   11.7670  -17.1340   27.5499 O   0  0  0  0  0  0  0  0  0  0  0  0
  2  1  1  6
  2  4  1  0
  3  2  1  0
  4  5  1  1
  6  7  2  0
  6  4  1  0
  8  6  1  0
  9 15  1  0
  9  8  1  0
  9 10  1  6
 11 12  1  0
 11 10  1  0
 13 14  1  0
 13 12  1  0
 15 17  1  0
 16 15  2  0
 17 18  1  0
 18 25  1  0
 18 19  1  1
 20 19  1  0
 20 21  2  0
 22 21  1  0
 23 22  1  0
 24 23  2  0
 24 20  1  0
 25 26  2  0
 25 27  1  0
M  END
$$$$
