VKH.pdb
     RDKit          3D

 27 27  0  0  1  0  0  0  0  0999 V2000
    8.9234  -12.5080   18.3949 C   0  0  0  0  0  0  0  0  0  0  0  0
    8.7021  -13.1919   19.7310 C   0  0  1  0  0  0  0  0  0  0  0  0
    7.5104  -12.5280   20.3752 C   0  0  0  0  0  0  0  0  0  0  0  0
    8.4637  -14.6541   19.4545 C   0  0  2  0  0  0  0  0  0  0  0  0
    7.3606  -14.8245   18.5017 N   0  0  0  0  0  0  0  0  0  0  0  0
    8.2170  -15.4463   20.6675 C   0  0  0  0  0  0  0  0  0  0  0  0
    7.0498  -15.8180   20.9861 O   0  0  0  0  0  0  0  0  0  0  0  0
    9.3081  -15.8012   21.4970 N   0  0  0  0  0  0  0  0  0  0  0  0
    9.1532  -16.6128   22.7245 C   0  0  1  0  0  0  0  0  0  0  0  0
    9.5197  -18.0404   22.3570 C   0  0  0  0  0  0  0  0  0  0  0  0
    9.4064  -18.9790   23.4908 C   0  0  0  0  0  0  0  0  0  0  0  0
    9.8598  -20.3691   23.0264 C   0  0  0  0  0  0  0  0  0  0  0  0
    9.7395  -21.4045   24.0999 C   0  0  0  0  0  0  0  0  0  0  0  0
   10.1880  -22.6737   23.5317 N   0  0  0  0  0  0  0  0  0  0  0  0
    9.9290  -16.0405   23.8240 C   0  0  0  0  0  0  0  0  0  0  0  0
   11.1508  -16.3591   23.9316 O   0  0  0  0  0  0  0  0  0  0  0  0
    9.4571  -15.1394   24.8114 N   0  0  0  0  0  0  0  0  0  0  0  0
    9.4543  -15.4790   26.2303 C   0  0  1  0  0  0  0  0  0  0  0  0
    7.9818  -15.5814   26.6501 C   0  0  0  0  0  0  0  0  0  0  0  0
    7.3353  -14.2543   26.6226 C   0  0  0  0  0  0  0  0  0  0  0  0
    7.9713  -13.0637   26.3377 C   0  0  0  0  0  0  0  0  0  0  0  0
    7.0328  -12.1199   26.4206 N   0  0  0  0  0  0  0  0  0  0  0  0
    5.8614  -12.6984   26.7435 C   0  0  0  0  0  0  0  0  0  0  0  0
    6.0351  -14.0385   26.8738 N   0  0  0  0  0  0  0  0  0  0  0  0
   10.1018  -16.7901   26.4757 C   0  0  0  0  0  0  0  0  0  0  0  0
    9.7705  -17.7910   25.7929 O   0  0  0  0  0  0  0  0  0  0  0  0
   11.0808  -17.0054   27.4360 O   0  0  0  0  0  0  0  0  0  0  0  0
  2  1  1  6
  2  4  1  0
  3  2  1  0
  4  5  1  6
  6  7  2  0
  6  4  1  0
  8  6  1  0
  9 15  1  0
  9  8  1  0
  9 10  1  6
 11 12  1  0
 11 10  1  0
 13 14  1  0
 13 12  1  0
 15 17  1  0
 16 15  2  0
 17 18  1  0
 18 25  1  0
 18 19  1  6
 20 19  1  0
 20 21  2  0
 22 21  1  0
 23 22  1  0
 24 23  2  0
 24 20  1  0
 25 26  2  0
 25 27  1  0
M  END
$$$$
