VKH.pdb
     RDKit          3D

 27 27  0  0  1  0  0  0  0  0999 V2000
    8.8823  -13.0560   20.7884 C   0  0  0  0  0  0  0  0  0  0  0  0
    8.0273  -13.3096   19.5610 C   0  0  1  0  0  0  0  0  0  0  0  0
    8.4662  -12.3248   18.5057 C   0  0  0  0  0  0  0  0  0  0  0  0
    8.2549  -14.7391   19.1411 C   0  0  2  0  0  0  0  0  0  0  0  0
    7.5201  -15.0358   17.9058 N   0  0  0  0  0  0  0  0  0  0  0  0
    7.9144  -15.7166   20.1843 C   0  0  0  0  0  0  0  0  0  0  0  0
    6.7107  -15.9941   20.4603 O   0  0  0  0  0  0  0  0  0  0  0  0
    8.9550  -16.3615   20.8956 N   0  0  0  0  0  0  0  0  0  0  0  0
    8.7071  -17.4315   21.8870 C   0  0  1  0  0  0  0  0  0  0  0  0
    9.5033  -18.6434   21.4346 C   0  0  0  0  0  0  0  0  0  0  0  0
    9.4060  -19.7833   22.3675 C   0  0  0  0  0  0  0  0  0  0  0  0
    8.4503  -20.8259   21.7732 C   0  0  0  0  0  0  0  0  0  0  0  0
    8.2977  -22.0328   22.6444 C   0  0  0  0  0  0  0  0  0  0  0  0
    7.4885  -23.0010   21.9079 N   0  0  0  0  0  0  0  0  0  0  0  0
    9.0103  -16.9641   23.2389 C   0  0  0  0  0  0  0  0  0  0  0  0
   10.0991  -16.3461   23.4347 O   0  0  0  0  0  0  0  0  0  0  0  0
    8.1989  -17.1249   24.3903 N   0  0  0  0  0  0  0  0  0  0  0  0
    8.6400  -16.6963   25.7132 C   0  0  1  0  0  0  0  0  0  0  0  0
    7.3944  -16.1671   26.4368 C   0  0  0  0  0  0  0  0  0  0  0  0
    7.1269  -14.7643   26.0621 C   0  0  0  0  0  0  0  0  0  0  0  0
    7.9288  -13.9895   25.2499 C   0  0  0  0  0  0  0  0  0  0  0  0
    7.3284  -12.8013   25.1709 N   0  0  0  0  0  0  0  0  0  0  0  0
    6.1999  -12.8348   25.9034 C   0  0  0  0  0  0  0  0  0  0  0  0
    6.0594  -14.0607   26.4693 N   0  0  0  0  0  0  0  0  0  0  0  0
    9.1881  -17.8299   26.4961 C   0  0  0  0  0  0  0  0  0  0  0  0
    9.0702  -19.0043   26.0664 O   0  0  0  0  0  0  0  0  0  0  0  0
    9.8451  -17.6893   27.7109 O   0  0  0  0  0  0  0  0  0  0  0  0
  2  1  1  1
  2  4  1  0
  3  2  1  0
  4  5  1  6
  6  7  2  0
  6  4  1  0
  8  6  1  0
  9 15  1  0
  9  8  1  0
  9 10  1  6
 11 12  1  0
 11 10  1  0
 13 14  1  0
 13 12  1  0
 15 17  1  0
 16 15  2  0
 17 18  1  0
 18 25  1  0
 18 19  1  1
 20 19  1  0
 20 21  2  0
 22 21  1  0
 23 22  1  0
 24 23  2  0
 24 20  1  0
 25 26  2  0
 25 27  1  0
M  END
$$$$
