VKH.pdb
     RDKit          3D

 27 27  0  0  1  0  0  0  0  0999 V2000
    9.3260  -12.6327   18.0901 C   0  0  0  0  0  0  0  0  0  0  0  0
    8.4045  -12.9280   19.2586 C   0  0  1  0  0  0  0  0  0  0  0  0
    7.0088  -13.0532   18.6999 C   0  0  0  0  0  0  0  0  0  0  0  0
    8.8830  -14.2064   19.8975 C   0  0  2  0  0  0  0  0  0  0  0  0
    8.9972  -15.2717   18.8946 N   0  0  0  0  0  0  0  0  0  0  0  0
    8.0433  -14.6498   21.0192 C   0  0  0  0  0  0  0  0  0  0  0  0
    7.8657  -13.9206   22.0383 O   0  0  0  0  0  0  0  0  0  0  0  0
    7.4201  -15.9196   20.9584 N   0  0  0  0  0  0  0  0  0  0  0  0
    6.6243  -16.4782   22.0738 C   0  0  1  0  0  0  0  0  0  0  0  0
    6.0080  -17.7718   21.5698 C   0  0  0  0  0  0  0  0  0  0  0  0
    5.2656  -18.5062   22.6132 C   0  0  0  0  0  0  0  0  0  0  0  0
    3.9938  -19.0960   21.9898 C   0  0  0  0  0  0  0  0  0  0  0  0
    3.0952  -19.7321   23.0031 C   0  0  0  0  0  0  0  0  0  0  0  0
    1.9504  -20.2845   22.2829 N   0  0  0  0  0  0  0  0  0  0  0  0
    7.4444  -16.6135   23.2768 C   0  0  0  0  0  0  0  0  0  0  0  0
    8.5101  -17.2958   23.2083 O   0  0  0  0  0  0  0  0  0  0  0  0
    7.1774  -16.0483   24.5493 N   0  0  0  0  0  0  0  0  0  0  0  0
    8.1631  -16.0641   25.6247 C   0  0  1  0  0  0  0  0  0  0  0  0
    7.9064  -14.8082   26.4685 C   0  0  0  0  0  0  0  0  0  0  0  0
    8.8890  -14.7038   27.5655 C   0  0  0  0  0  0  0  0  0  0  0  0
   10.2198  -15.0567   27.4797 C   0  0  0  0  0  0  0  0  0  0  0  0
   10.7418  -14.8067   28.6811 N   0  0  0  0  0  0  0  0  0  0  0  0
    9.7764  -14.3185   29.4817 C   0  0  0  0  0  0  0  0  0  0  0  0
    8.6071  -14.2480   28.7956 N   0  0  0  0  0  0  0  0  0  0  0  0
    7.9975  -17.2530   26.4951 C   0  0  0  0  0  0  0  0  0  0  0  0
    8.9458  -17.6321   27.2265 O   0  0  0  0  0  0  0  0  0  0  0  0
    6.8341  -18.0069   26.5674 O   0  0  0  0  0  0  0  0  0  0  0  0
  2  1  1  6
  2  4  1  0
  3  2  1  0
  4  5  1  6
  6  7  2  0
  6  4  1  0
  8  6  1  0
  9 15  1  0
  9  8  1  0
  9 10  1  6
 11 12  1  0
 11 10  1  0
 13 14  1  0
 13 12  1  0
 15 17  1  0
 16 15  2  0
 17 18  1  0
 18 25  1  0
 18 19  1  1
 20 19  1  0
 20 21  2  0
 22 21  1  0
 23 22  1  0
 24 23  2  0
 24 20  1  0
 25 26  2  0
 25 27  1  0
M  END
$$$$
