VKH.pdb
     RDKit          3D

 27 27  0  0  1  0  0  0  0  0999 V2000
   14.4437  -18.9902   13.3898 C   0  0  0  0  0  0  0  0  0  0  0  0
   13.4324  -20.0989   13.1663 C   0  0  1  0  0  0  0  0  0  0  0  0
   13.9527  -21.3219   13.8799 C   0  0  0  0  0  0  0  0  0  0  0  0
   12.1150  -19.6261   13.7251 C   0  0  2  0  0  0  0  0  0  0  0  0
   11.6171  -18.4740   12.9645 N   0  0  0  0  0  0  0  0  0  0  0  0
   12.1684  -19.3064   15.1585 C   0  0  0  0  0  0  0  0  0  0  0  0
   12.6582  -18.2153   15.5729 O   0  0  0  0  0  0  0  0  0  0  0  0
   11.6612  -20.2386   16.0957 N   0  0  0  0  0  0  0  0  0  0  0  0
   11.7033  -20.0122   17.5573 C   0  0  1  0  0  0  0  0  0  0  0  0
   10.5353  -20.7778   18.1548 C   0  0  0  0  0  0  0  0  0  0  0  0
   10.5093  -20.7385   19.6302 C   0  0  0  0  0  0  0  0  0  0  0  0
    9.3346  -21.5922   20.1250 C   0  0  0  0  0  0  0  0  0  0  0  0
    9.3032  -21.7236   21.6152 C   0  0  0  0  0  0  0  0  0  0  0  0
    8.1565  -22.5634   21.9533 N   0  0  0  0  0  0  0  0  0  0  0  0
   13.0147  -20.3676   18.0979 C   0  0  0  0  0  0  0  0  0  0  0  0
   13.5334  -21.4700   17.7497 O   0  0  0  0  0  0  0  0  0  0  0  0
   13.7978  -19.5944   18.9915 N   0  0  0  0  0  0  0  0  0  0  0  0
   15.0733  -20.0723   19.5141 C   0  0  1  0  0  0  0  0  0  0  0  0
   16.0739  -18.9220   19.3383 C   0  0  0  0  0  0  0  0  0  0  0  0
   17.4312  -19.3418   19.7398 C   0  0  0  0  0  0  0  0  0  0  0  0
   17.8095  -20.6340   20.0403 C   0  0  0  0  0  0  0  0  0  0  0  0
   19.1053  -20.5722   20.3494 N   0  0  0  0  0  0  0  0  0  0  0  0
   19.5167  -19.2950   20.2457 C   0  0  0  0  0  0  0  0  0  0  0  0
   18.4769  -18.5103   19.8638 N   0  0  0  0  0  0  0  0  0  0  0  0
   14.9816  -20.3943   20.9585 C   0  0  0  0  0  0  0  0  0  0  0  0
   14.1652  -19.7786   21.6880 O   0  0  0  0  0  0  0  0  0  0  0  0
   15.7555  -21.3581   21.5902 O   0  0  0  0  0  0  0  0  0  0  0  0
  2  1  1  1
  2  4  1  0
  3  2  1  0
  4  5  1  6
  6  7  2  0
  6  4  1  0
  8  6  1  0
  9 15  1  0
  9  8  1  0
  9 10  1  1
 11 12  1  0
 11 10  1  0
 13 14  1  0
 13 12  1  0
 15 17  1  0
 16 15  2  0
 17 18  1  0
 18 25  1  0
 18 19  1  1
 20 19  1  0
 20 21  2  0
 22 21  1  0
 23 22  1  0
 24 23  2  0
 24 20  1  0
 25 26  2  0
 25 27  1  0
M  END
$$$$
