VKH.pdb
     RDKit          3D

 27 27  0  0  1  0  0  0  0  0999 V2000
    7.4942  -12.7721   20.1482 C   0  0  0  0  0  0  0  0  0  0  0  0
    8.3627  -13.4240   19.0887 C   0  0  1  0  0  0  0  0  0  0  0  0
    8.7376  -12.3472   18.1008 C   0  0  0  0  0  0  0  0  0  0  0  0
    9.5652  -14.0051   19.7870 C   0  0  2  0  0  0  0  0  0  0  0  0
   10.4554  -14.6590   18.8207 N   0  0  0  0  0  0  0  0  0  0  0  0
    9.2195  -14.9343   20.8719 C   0  0  0  0  0  0  0  0  0  0  0  0
    8.4137  -14.6047   21.7905 O   0  0  0  0  0  0  0  0  0  0  0  0
    9.8003  -16.2254   20.8896 N   0  0  0  0  0  0  0  0  0  0  0  0
    9.5127  -17.2212   21.9456 C   0  0  1  0  0  0  0  0  0  0  0  0
    9.9862  -18.5663   21.4224 C   0  0  0  0  0  0  0  0  0  0  0  0
    8.8853  -19.5264   21.2089 C   0  0  0  0  0  0  0  0  0  0  0  0
    8.4920  -19.5030   19.7262 C   0  0  0  0  0  0  0  0  0  0  0  0
    7.3007  -20.3588   19.4309 C   0  0  0  0  0  0  0  0  0  0  0  0
    7.7548  -21.7475   19.4214 N   0  0  0  0  0  0  0  0  0  0  0  0
   10.1051  -16.8112   23.2180 C   0  0  0  0  0  0  0  0  0  0  0  0
   11.2674  -16.3065   23.2088 O   0  0  0  0  0  0  0  0  0  0  0  0
    9.5081  -16.9134   24.4998 N   0  0  0  0  0  0  0  0  0  0  0  0
   10.1918  -16.4678   25.7091 C   0  0  1  0  0  0  0  0  0  0  0  0
    9.2988  -15.3922   26.3423 C   0  0  0  0  0  0  0  0  0  0  0  0
    9.8261  -14.9815   27.6588 C   0  0  0  0  0  0  0  0  0  0  0  0
   10.9635  -15.4861   28.2545 C   0  0  0  0  0  0  0  0  0  0  0  0
   11.0769  -14.8504   29.4213 N   0  0  0  0  0  0  0  0  0  0  0  0
   10.0529  -13.9862   29.5471 C   0  0  0  0  0  0  0  0  0  0  0  0
    9.2587  -14.0569   28.4483 N   0  0  0  0  0  0  0  0  0  0  0  0
   10.3501  -17.5751   26.6823 C   0  0  0  0  0  0  0  0  0  0  0  0
   11.2643  -17.5285   27.5425 O   0  0  0  0  0  0  0  0  0  0  0  0
    9.5375  -18.7000   26.7181 O   0  0  0  0  0  0  0  0  0  0  0  0
  2  1  1  1
  2  4  1  0
  3  2  1  0
  4  5  1  6
  6  7  2  0
  6  4  1  0
  8  6  1  0
  9 15  1  0
  9  8  1  0
  9 10  1  6
 11 12  1  0
 11 10  1  0
 13 14  1  0
 13 12  1  0
 15 17  1  0
 16 15  2  0
 17 18  1  0
 18 25  1  0
 18 19  1  1
 20 19  1  0
 20 21  2  0
 22 21  1  0
 23 22  1  0
 24 23  2  0
 24 20  1  0
 25 26  2  0
 25 27  1  0
M  END
$$$$
