FPS.pdb
     RDKit          3D

 25 26  0  0  1  0  0  0  0  0999 V2000
    6.2087  -16.9179   25.6702 N   0  0  0  0  0  0  0  0  0  0  0  0
    6.9885  -15.9284   24.9882 C   0  0  1  0  0  0  0  0  0  0  0  0
    7.8294  -15.1470   26.0012 C   0  0  0  0  0  0  0  0  0  0  0  0
    7.1445  -13.8512   26.2211 C   0  0  0  0  0  0  0  0  0  0  0  0
    5.7888  -13.7064   26.3794 C   0  0  0  0  0  0  0  0  0  0  0  0
    5.1839  -12.4848   26.5804 C   0  0  0  0  0  0  0  0  0  0  0  0
    5.9767  -11.3581   26.6243 C   0  0  0  0  0  0  0  0  0  0  0  0
    7.3483  -11.4496   26.4704 C   0  0  0  0  0  0  0  0  0  0  0  0
    7.9134  -12.7097   26.2692 C   0  0  0  0  0  0  0  0  0  0  0  0
    7.8100  -16.4005   23.8673 C   0  0  0  0  0  0  0  0  0  0  0  0
    8.6463  -17.3201   24.2061 O   0  0  0  0  0  0  0  0  0  0  0  0
    7.7484  -15.9478   22.5388 N   0  0  0  0  0  0  0  0  0  0  0  0
    6.5142  -15.6515   21.7655 C   0  0  0  0  0  0  0  0  0  0  0  0
    6.8906  -14.2746   21.1824 C   0  0  0  0  0  0  0  0  0  0  0  0
    8.4104  -14.1979   21.2548 C   0  0  0  0  0  0  0  0  0  0  0  0
    8.7448  -15.6656   21.5516 C   0  0  1  0  0  0  0  0  0  0  0  0
   10.1289  -15.9058   21.7772 C   0  0  0  0  0  0  0  0  0  0  0  0
   11.0276  -15.1251   22.1350 O   0  0  0  0  0  0  0  0  0  0  0  0
   11.1177  -19.5788   22.6814 O   0  0  0  0  0  0  0  0  0  0  0  0
   12.1254  -18.6403   22.7661 C   0  0  0  0  0  0  0  0  0  0  0  0
   11.9842  -17.6125   21.6354 C   0  0  2  0  0  0  0  0  0  0  0  0
   10.5830  -17.2725   21.5606 N   0  0  0  0  0  0  0  0  0  0  0  0
   12.4204  -18.3356   20.3874 C   0  0  0  0  0  0  0  0  0  0  0  0
   13.5989  -18.7551   20.2698 O   0  0  0  0  0  0  0  0  0  0  0  0
   11.5522  -18.5662   19.3296 O   0  0  0  0  0  0  0  0  0  0  0  0
  2  1  1  1
  2 10  1  0
  3  2  1  0
  4  3  1  0
  4  9  1  0
  5  4  2  0
  6  5  1  0
  6  7  2  0
  7  8  1  0
  8  9  2  0
 10 11  2  0
 10 12  1  0
 12 13  1  0
 13 14  1  0
 15 14  1  0
 16 12  1  0
 16 15  1  0
 16 17  1  1
 18 17  2  0
 19 20  1  0
 21 20  1  1
 21 22  1  0
 21 23  1  0
 22 17  1  0
 23 25  1  0
 24 23  2  0
M  END
$$$$
