FPS.pdb
     RDKit          3D

 25 26  0  0  1  0  0  0  0  0999 V2000
    5.5690  -17.7061   25.1894 N   0  0  0  0  0  0  0  0  0  0  0  0
    6.3476  -16.5037   25.1670 C   0  0  1  0  0  0  0  0  0  0  0  0
    6.6548  -16.0621   26.6002 C   0  0  0  0  0  0  0  0  0  0  0  0
    6.8146  -14.5889   26.5721 C   0  0  0  0  0  0  0  0  0  0  0  0
    5.7859  -13.6995   26.3861 C   0  0  0  0  0  0  0  0  0  0  0  0
    5.9702  -12.3342   26.3634 C   0  0  0  0  0  0  0  0  0  0  0  0
    7.2456  -11.8403   26.5353 C   0  0  0  0  0  0  0  0  0  0  0  0
    8.3170  -12.6940   26.7263 C   0  0  0  0  0  0  0  0  0  0  0  0
    8.0786  -14.0690   26.7413 C   0  0  0  0  0  0  0  0  0  0  0  0
    7.5637  -16.5265   24.3457 C   0  0  0  0  0  0  0  0  0  0  0  0
    8.5062  -17.2398   24.8583 O   0  0  0  0  0  0  0  0  0  0  0  0
    7.7552  -15.8677   23.1197 N   0  0  0  0  0  0  0  0  0  0  0  0
    6.6933  -15.4641   22.1612 C   0  0  0  0  0  0  0  0  0  0  0  0
    7.1209  -14.0078   21.8892 C   0  0  0  0  0  0  0  0  0  0  0  0
    8.5891  -13.9281   22.2879 C   0  0  0  0  0  0  0  0  0  0  0  0
    8.9190  -15.4208   22.4176 C   0  0  1  0  0  0  0  0  0  0  0  0
   10.2370  -15.6798   22.8871 C   0  0  0  0  0  0  0  0  0  0  0  0
   10.9102  -15.0860   23.7469 O   0  0  0  0  0  0  0  0  0  0  0  0
   11.5995  -19.3213   22.0177 O   0  0  0  0  0  0  0  0  0  0  0  0
   12.3578  -18.6073   22.9225 C   0  0  0  0  0  0  0  0  0  0  0  0
   12.2974  -17.1095   22.5941 C   0  0  2  0  0  0  0  0  0  0  0  0
   10.9203  -16.8125   22.2779 N   0  0  0  0  0  0  0  0  0  0  0  0
   13.1688  -16.9364   21.3770 C   0  0  0  0  0  0  0  0  0  0  0  0
   12.6570  -16.7415   20.2462 O   0  0  0  0  0  0  0  0  0  0  0  0
   14.5537  -16.9841   21.4514 O   0  0  0  0  0  0  0  0  0  0  0  0
  2  1  1  1
  2 10  1  0
  3  2  1  0
  4  3  1  0
  4  9  1  0
  5  4  2  0
  6  5  1  0
  6  7  2  0
  7  8  1  0
  8  9  2  0
 10 11  2  0
 10 12  1  0
 12 13  1  0
 13 14  1  0
 15 14  1  0
 16 12  1  0
 16 15  1  0
 16 17  1  1
 18 17  2  0
 19 20  1  0
 21 20  1  6
 21 22  1  0
 21 23  1  0
 22 17  1  0
 23 25  1  0
 24 23  2  0
M  END
$$$$
