FPS.pdb
     RDKit          3D

 25 26  0  0  1  0  0  0  0  0999 V2000
    6.1034  -17.4573   25.2943 N   0  0  0  0  0  0  0  0  0  0  0  0
    6.8902  -16.2980   24.9951 C   0  0  1  0  0  0  0  0  0  0  0  0
    7.6182  -15.8295   26.2577 C   0  0  0  0  0  0  0  0  0  0  0  0
    7.3202  -14.3863   26.4163 C   0  0  0  0  0  0  0  0  0  0  0  0
    8.2726  -13.4030   26.5153 C   0  0  0  0  0  0  0  0  0  0  0  0
    7.9603  -12.0693   26.6642 C   0  0  0  0  0  0  0  0  0  0  0  0
    6.6313  -11.7073   26.7159 C   0  0  0  0  0  0  0  0  0  0  0  0
    5.6327  -12.6596   26.6207 C   0  0  0  0  0  0  0  0  0  0  0  0
    6.0002  -13.9975   26.4708 C   0  0  0  0  0  0  0  0  0  0  0  0
    7.8134  -16.4088   23.8596 C   0  0  0  0  0  0  0  0  0  0  0  0
    8.8593  -17.1127   24.1255 O   0  0  0  0  0  0  0  0  0  0  0  0
    7.6436  -15.8378   22.5872 N   0  0  0  0  0  0  0  0  0  0  0  0
    6.3490  -15.5586   21.9127 C   0  0  0  0  0  0  0  0  0  0  0  0
    6.5984  -14.1093   21.4492 C   0  0  0  0  0  0  0  0  0  0  0  0
    8.1115  -13.9314   21.4489 C   0  0  0  0  0  0  0  0  0  0  0  0
    8.5590  -15.3929   21.5817 C   0  0  1  0  0  0  0  0  0  0  0  0
    9.9669  -15.5539   21.7096 C   0  0  0  0  0  0  0  0  0  0  0  0
   10.8951  -14.9376   21.1584 O   0  0  0  0  0  0  0  0  0  0  0  0
   11.2000  -18.4673   24.4926 O   0  0  0  0  0  0  0  0  0  0  0  0
   11.9436  -17.3205   24.3048 C   0  0  0  0  0  0  0  0  0  0  0  0
   11.8140  -16.8406   22.8530 C   0  0  2  0  0  0  0  0  0  0  0  0
   10.4094  -16.5979   22.6235 N   0  0  0  0  0  0  0  0  0  0  0  0
   12.2961  -17.9937   22.0112 C   0  0  0  0  0  0  0  0  0  0  0  0
   11.4861  -18.6712   21.3302 O   0  0  0  0  0  0  0  0  0  0  0  0
   13.6354  -18.3520   21.9525 O   0  0  0  0  0  0  0  0  0  0  0  0
  2  1  1  1
  2 10  1  0
  3  2  1  0
  4  3  1  0
  4  9  1  0
  5  4  2  0
  6  5  1  0
  6  7  2  0
  7  8  1  0
  8  9  2  0
 10 11  2  0
 10 12  1  0
 12 13  1  0
 13 14  1  0
 15 14  1  0
 16 12  1  0
 16 15  1  0
 16 17  1  1
 18 17  2  0
 19 20  1  0
 21 20  1  1
 21 22  1  0
 21 23  1  0
 22 17  1  0
 23 25  1  0
 24 23  2  0
M  END
$$$$
