FPS.pdb
     RDKit          3D

 25 26  0  0  1  0  0  0  0  0999 V2000
    5.6111  -17.8971   24.9506 N   0  0  0  0  0  0  0  0  0  0  0  0
    6.2164  -16.6023   25.0496 C   0  0  1  0  0  0  0  0  0  0  0  0
    6.2983  -16.1831   26.5197 C   0  0  0  0  0  0  0  0  0  0  0  0
    6.5198  -14.7177   26.5380 C   0  0  0  0  0  0  0  0  0  0  0  0
    7.7499  -14.1195   26.6507 C   0  0  0  0  0  0  0  0  0  0  0  0
    7.9200  -12.7523   26.6665 C   0  0  0  0  0  0  0  0  0  0  0  0
    6.8038  -11.9500   26.5643 C   0  0  0  0  0  0  0  0  0  0  0  0
    5.5412  -12.5028   26.4486 C   0  0  0  0  0  0  0  0  0  0  0  0
    5.4213  -13.8932   26.4375 C   0  0  0  0  0  0  0  0  0  0  0  0
    7.5086  -16.4304   24.3752 C   0  0  0  0  0  0  0  0  0  0  0  0
    8.4958  -16.9205   25.0423 O   0  0  0  0  0  0  0  0  0  0  0  0
    7.7258  -15.8100   23.1336 N   0  0  0  0  0  0  0  0  0  0  0  0
    6.6812  -15.3991   22.1594 C   0  0  0  0  0  0  0  0  0  0  0  0
    7.1548  -13.9642   21.8520 C   0  0  0  0  0  0  0  0  0  0  0  0
    8.6230  -13.9194   22.2563 C   0  0  0  0  0  0  0  0  0  0  0  0
    8.9060  -15.4176   22.4264 C   0  0  1  0  0  0  0  0  0  0  0  0
   10.2132  -15.7048   22.9093 C   0  0  0  0  0  0  0  0  0  0  0  0
   10.8152  -15.2572   23.9005 O   0  0  0  0  0  0  0  0  0  0  0  0
   11.6829  -18.8026   23.7950 O   0  0  0  0  0  0  0  0  0  0  0  0
   12.4595  -18.4568   22.7084 C   0  0  0  0  0  0  0  0  0  0  0  0
   12.3630  -16.9471   22.4510 C   0  0  2  0  0  0  0  0  0  0  0  0
   10.9814  -16.6707   22.1361 N   0  0  0  0  0  0  0  0  0  0  0  0
   13.2398  -16.6939   21.2520 C   0  0  0  0  0  0  0  0  0  0  0  0
   12.7368  -16.5606   20.1083 O   0  0  0  0  0  0  0  0  0  0  0  0
   14.6202  -16.5983   21.3574 O   0  0  0  0  0  0  0  0  0  0  0  0
  2  1  1  1
  2 10  1  0
  3  2  1  0
  4  3  1  0
  4  9  1  0
  5  4  2  0
  6  5  1  0
  6  7  2  0
  7  8  1  0
  8  9  2  0
 10 11  2  0
 10 12  1  0
 12 13  1  0
 13 14  1  0
 15 14  1  0
 16 12  1  0
 16 15  1  0
 16 17  1  1
 18 17  2  0
 19 20  1  0
 21 20  1  6
 21 22  1  0
 21 23  1  0
 22 17  1  0
 23 25  1  0
 24 23  2  0
M  END
$$$$
