FPS.pdb
     RDKit          3D

 25 26  0  0  1  0  0  0  0  0999 V2000
    6.0408  -17.3483   25.6170 N   0  0  0  0  0  0  0  0  0  0  0  0
    6.8538  -16.2674   25.1446 C   0  0  1  0  0  0  0  0  0  0  0  0
    7.6579  -15.6810   26.3078 C   0  0  0  0  0  0  0  0  0  0  0  0
    7.2088  -14.2788   26.4782 C   0  0  0  0  0  0  0  0  0  0  0  0
    5.8956  -13.8801   26.4909 C   0  0  0  0  0  0  0  0  0  0  0  0
    5.5127  -12.5660   26.6496 C   0  0  0  0  0  0  0  0  0  0  0  0
    6.4935  -11.6096   26.8023 C   0  0  0  0  0  0  0  0  0  0  0  0
    7.8318  -11.9590   26.7967 C   0  0  0  0  0  0  0  0  0  0  0  0
    8.1685  -13.3034   26.6327 C   0  0  0  0  0  0  0  0  0  0  0  0
    7.7170  -16.5527   23.9923 C   0  0  0  0  0  0  0  0  0  0  0  0
    8.5689  -17.4921   24.2196 O   0  0  0  0  0  0  0  0  0  0  0  0
    7.6780  -15.9134   22.7420 N   0  0  0  0  0  0  0  0  0  0  0  0
    6.4617  -15.4322   22.0361 C   0  0  0  0  0  0  0  0  0  0  0  0
    6.9243  -14.0135   21.6475 C   0  0  0  0  0  0  0  0  0  0  0  0
    8.4462  -14.0454   21.7078 C   0  0  0  0  0  0  0  0  0  0  0  0
    8.6854  -15.5587   21.7899 C   0  0  1  0  0  0  0  0  0  0  0  0
   10.0520  -15.9166   21.9592 C   0  0  0  0  0  0  0  0  0  0  0  0
   10.9340  -15.3937   22.6619 O   0  0  0  0  0  0  0  0  0  0  0  0
   11.0702  -19.5901   21.8949 O   0  0  0  0  0  0  0  0  0  0  0  0
   12.0275  -18.6364   22.1730 C   0  0  0  0  0  0  0  0  0  0  0  0
   11.8986  -17.4602   21.1959 C   0  0  2  0  0  0  0  0  0  0  0  0
   10.5078  -17.0725   21.1995 N   0  0  0  0  0  0  0  0  0  0  0  0
   12.2885  -18.0186   19.8518 C   0  0  0  0  0  0  0  0  0  0  0  0
   11.4288  -18.1701   18.9481 O   0  0  0  0  0  0  0  0  0  0  0  0
   13.5946  -18.3843   19.5582 O   0  0  0  0  0  0  0  0  0  0  0  0
  2  1  1  1
  2 10  1  0
  3  2  1  0
  4  3  1  0
  4  9  1  0
  5  4  2  0
  6  5  1  0
  6  7  2  0
  7  8  1  0
  8  9  2  0
 10 11  2  0
 10 12  1  0
 12 13  1  0
 13 14  1  0
 15 14  1  0
 16 12  1  0
 16 15  1  0
 16 17  1  1
 18 17  2  0
 19 20  1  0
 21 20  1  1
 21 22  1  0
 21 23  1  0
 22 17  1  0
 23 25  1  0
 24 23  2  0
M  END
$$$$
