CVY.pdb
     RDKit          3D

 26 26  0  0  1  0  0  0  0  0999 V2000
   18.1383  -15.9863  -17.1185 N   0  0  0  0  0  0  0  0  0  0  0  0
   17.8783  -14.9176  -16.1736 C   0  0  1  0  0  0  0  0  0  0  0  0
   18.8181  -15.0220  -14.9916 C   0  0  0  0  0  0  0  0  0  0  0  0
   18.2924  -16.4142  -13.9240 S   0  0  0  0  0  0  0  0  0  0  0  0
   17.9977  -13.6342  -16.8773 C   0  0  0  0  0  0  0  0  0  0  0  0
   18.8988  -13.4393  -17.7644 O   0  0  0  0  0  0  0  0  0  0  0  0
   16.0906   -9.4019  -18.3347 C   0  0  0  0  0  0  0  0  0  0  0  0
   15.9463  -10.8105  -17.7957 C   0  0  1  0  0  0  0  0  0  0  0  0
   15.4739  -11.6735  -18.9524 C   0  0  0  0  0  0  0  0  0  0  0  0
   17.3300  -11.2538  -17.3220 C   0  0  2  0  0  0  0  0  0  0  0  0
   17.1478  -12.5161  -16.6475 N   0  0  0  0  0  0  0  0  0  0  0  0
   17.8633  -10.1964  -16.4660 C   0  0  0  0  0  0  0  0  0  0  0  0
   17.2776   -9.9569  -15.3824 O   0  0  0  0  0  0  0  0  0  0  0  0
   22.5875   -3.3887  -13.4926 O   0  0  0  0  0  0  0  0  0  0  0  0
   22.1671   -4.5553  -14.0955 C   0  0  0  0  0  0  0  0  0  0  0  0
   22.1381   -5.7327  -13.3599 C   0  0  0  0  0  0  0  0  0  0  0  0
   21.7176   -6.8795  -13.9771 C   0  0  0  0  0  0  0  0  0  0  0  0
   21.3270   -6.9041  -15.2879 C   0  0  0  0  0  0  0  0  0  0  0  0
   20.8820   -8.1664  -15.9592 C   0  0  0  0  0  0  0  0  0  0  0  0
   19.3796   -8.3026  -15.9132 C   0  0  2  0  0  0  0  0  0  0  0  0
   19.0058   -9.4269  -16.7933 N   0  0  0  0  0  0  0  0  0  0  0  0
   18.6567   -7.0990  -16.3046 C   0  0  0  0  0  0  0  0  0  0  0  0
   18.2382   -6.1750  -15.3832 O   0  0  0  0  0  0  0  0  0  0  0  0
   21.3575   -5.7330  -16.0148 C   0  0  0  0  0  0  0  0  0  0  0  0
   21.7751   -4.5659  -15.4214 C   0  0  0  0  0  0  0  0  0  0  0  0
   18.3962   -6.8808  -17.5227 O   0  0  0  0  0  0  0  0  0  0  0  0
  2  1  1  6
  2  3  1  0
  3  4  1  0
  5  2  1  0
  6  5  2  0
  8  7  1  6
  8  9  1  0
  8 10  1  0
 10 12  1  0
 10 11  1  1
 11  5  1  0
 12 21  1  0
 13 12  2  0
 15 16  2  0
 15 14  1  0
 17 16  1  0
 18 17  2  0
 20 19  1  6
 19 18  1  0
 20 22  1  0
 21 20  1  0
 22 26  2  0
 22 23  1  0
 24 18  1  0
 24 25  2  0
 25 15  1  0
M  END
$$$$
