CVY.pdb
     RDKit          3D

 26 26  0  0  1  0  0  0  0  0999 V2000
   19.1715  -13.2312  -17.6321 N   0  0  0  0  0  0  0  0  0  0  0  0
   19.7169  -11.9618  -18.0725 C   0  0  1  0  0  0  0  0  0  0  0  0
   18.6338  -11.1180  -18.7096 C   0  0  0  0  0  0  0  0  0  0  0  0
   18.0138  -11.9648  -20.2106 S   0  0  0  0  0  0  0  0  0  0  0  0
   20.3438  -11.2997  -16.9213 C   0  0  0  0  0  0  0  0  0  0  0  0
   19.7839  -11.2865  -15.7710 O   0  0  0  0  0  0  0  0  0  0  0  0
   24.2981   -9.8289  -14.5714 C   0  0  0  0  0  0  0  0  0  0  0  0
   23.6446  -10.4999  -15.7624 C   0  0  1  0  0  0  0  0  0  0  0  0
   23.7023  -11.9955  -15.5058 C   0  0  0  0  0  0  0  0  0  0  0  0
   22.1957  -10.0164  -15.8108 C   0  0  2  0  0  0  0  0  0  0  0  0
   21.5976  -10.6284  -16.9724 N   0  0  0  0  0  0  0  0  0  0  0  0
   22.2189   -8.5560  -15.8565 C   0  0  0  0  0  0  0  0  0  0  0  0
   22.8805   -8.0004  -16.7666 O   0  0  0  0  0  0  0  0  0  0  0  0
   19.5095   -6.4564  -21.0013 O   0  0  0  0  0  0  0  0  0  0  0  0
   19.7176   -6.2748  -19.6505 C   0  0  0  0  0  0  0  0  0  0  0  0
   19.1985   -7.1950  -18.7494 C   0  0  0  0  0  0  0  0  0  0  0  0
   19.4164   -6.9965  -17.4130 C   0  0  0  0  0  0  0  0  0  0  0  0
   20.1249   -5.9270  -16.9381 C   0  0  0  0  0  0  0  0  0  0  0  0
   20.3462   -5.7098  -15.4731 C   0  0  0  0  0  0  0  0  0  0  0  0
   21.6793   -6.2688  -15.0390 C   0  0  2  0  0  0  0  0  0  0  0  0
   21.5350   -7.7335  -14.9290 N   0  0  0  0  0  0  0  0  0  0  0  0
   22.1792   -5.7196  -13.7848 C   0  0  0  0  0  0  0  0  0  0  0  0
   22.6129   -4.4235  -13.6848 O   0  0  0  0  0  0  0  0  0  0  0  0
   20.6384   -5.0156  -17.8360 C   0  0  0  0  0  0  0  0  0  0  0  0
   20.4357   -5.1891  -19.1841 C   0  0  0  0  0  0  0  0  0  0  0  0
   22.2246   -6.4412  -12.7473 O   0  0  0  0  0  0  0  0  0  0  0  0
  2  1  1  1
  2  3  1  0
  3  4  1  0
  5  2  1  0
  6  5  2  0
  8  7  1  1
  8  9  1  0
  8 10  1  0
 10 12  1  0
 10 11  1  6
 11  5  1  0
 12 21  1  0
 13 12  2  0
 15 16  2  0
 15 14  1  0
 17 16  1  0
 18 17  2  0
 20 19  1  1
 19 18  1  0
 20 22  1  0
 21 20  1  0
 22 26  2  0
 22 23  1  0
 24 18  1  0
 24 25  2  0
 25 15  1  0
M  END
$$$$
