CVY.pdb
     RDKit          3D

 26 26  0  0  1  0  0  0  0  0999 V2000
   21.3125  -15.1942  -18.9856 N   0  0  0  0  0  0  0  0  0  0  0  0
   21.6692  -13.8139  -19.2503 C   0  0  1  0  0  0  0  0  0  0  0  0
   20.7023  -13.2029  -20.2419 C   0  0  0  0  0  0  0  0  0  0  0  0
   20.9741  -13.9533  -21.8904 S   0  0  0  0  0  0  0  0  0  0  0  0
   21.7018  -13.0882  -17.9740 C   0  0  0  0  0  0  0  0  0  0  0  0
   20.7551  -13.1944  -17.1201 O   0  0  0  0  0  0  0  0  0  0  0  0
   24.2498  -13.2065  -15.4423 C   0  0  0  0  0  0  0  0  0  0  0  0
   24.1012  -11.7167  -15.6748 C   0  0  1  0  0  0  0  0  0  0  0  0
   25.2185  -11.3095  -16.6190 C   0  0  0  0  0  0  0  0  0  0  0  0
   22.7367  -11.4982  -16.3277 C   0  0  2  0  0  0  0  0  0  0  0  0
   22.7585  -12.2222  -17.5755 N   0  0  0  0  0  0  0  0  0  0  0  0
   22.5468  -10.0576  -16.4820 C   0  0  0  0  0  0  0  0  0  0  0  0
   23.0114   -9.5034  -17.5075 O   0  0  0  0  0  0  0  0  0  0  0  0
   15.5290   -9.0946  -16.3609 O   0  0  0  0  0  0  0  0  0  0  0  0
   16.8503   -8.7477  -16.5474 C   0  0  0  0  0  0  0  0  0  0  0  0
   17.7174   -9.6546  -17.1424 C   0  0  0  0  0  0  0  0  0  0  0  0
   19.0248   -9.2907  -17.3184 C   0  0  0  0  0  0  0  0  0  0  0  0
   19.5032   -8.0694  -16.9298 C   0  0  0  0  0  0  0  0  0  0  0  0
   20.9388   -7.6851  -17.1132 C   0  0  0  0  0  0  0  0  0  0  0  0
   21.7027   -7.8132  -15.8179 C   0  0  2  0  0  0  0  0  0  0  0  0
   21.8666   -9.2527  -15.5365 N   0  0  0  0  0  0  0  0  0  0  0  0
   21.0729   -7.1500  -14.6830 C   0  0  0  0  0  0  0  0  0  0  0  0
   20.6237   -7.8506  -13.5942 O   0  0  0  0  0  0  0  0  0  0  0  0
   18.6391   -7.1721  -16.3393 C   0  0  0  0  0  0  0  0  0  0  0  0
   17.3206   -7.5098  -16.1496 C   0  0  0  0  0  0  0  0  0  0  0  0
   20.9249   -5.8941  -14.6816 O   0  0  0  0  0  0  0  0  0  0  0  0
  2  1  1  1
  2  3  1  0
  3  4  1  0
  5  2  1  0
  6  5  2  0
  8  7  1  6
  8  9  1  0
  8 10  1  0
 10 12  1  0
 10 11  1  6
 11  5  1  0
 12 21  1  0
 13 12  2  0
 15 16  2  0
 15 14  1  0
 17 16  1  0
 18 17  2  0
 20 19  1  6
 19 18  1  0
 20 22  1  0
 21 20  1  0
 22 26  2  0
 22 23  1  0
 24 18  1  0
 24 25  2  0
 25 15  1  0
M  END
$$$$
