CVY.pdb
     RDKit          3D

 26 26  0  0  1  0  0  0  0  0999 V2000
   23.9798  -14.0870  -17.2199 N   0  0  0  0  0  0  0  0  0  0  0  0
   24.3660  -12.9352  -16.4283 C   0  0  1  0  0  0  0  0  0  0  0  0
   25.8095  -12.5706  -16.7018 C   0  0  0  0  0  0  0  0  0  0  0  0
   26.2698  -11.1218  -15.6803 S   0  0  0  0  0  0  0  0  0  0  0  0
   23.4404  -11.8344  -16.7251 C   0  0  0  0  0  0  0  0  0  0  0  0
   23.1539  -11.5077  -17.9284 O   0  0  0  0  0  0  0  0  0  0  0  0
   19.8097   -8.8834  -15.4269 C   0  0  0  0  0  0  0  0  0  0  0  0
   20.6602  -10.1194  -15.2163 C   0  0  1  0  0  0  0  0  0  0  0  0
   19.8414  -11.3006  -15.7066 C   0  0  0  0  0  0  0  0  0  0  0  0
   21.9199   -9.9472  -16.0644 C   0  0  2  0  0  0  0  0  0  0  0  0
   22.7917  -11.0478  -15.7322 N   0  0  0  0  0  0  0  0  0  0  0  0
   22.4818   -8.6334  -15.7586 C   0  0  0  0  0  0  0  0  0  0  0  0
   22.8751   -8.4132  -14.5875 O   0  0  0  0  0  0  0  0  0  0  0  0
   25.4914   -0.3909  -16.2451 O   0  0  0  0  0  0  0  0  0  0  0  0
   25.0195   -1.6492  -16.5533 C   0  0  0  0  0  0  0  0  0  0  0  0
   25.8974   -2.7251  -16.5618 C   0  0  0  0  0  0  0  0  0  0  0  0
   25.4088   -3.9657  -16.8702 C   0  0  0  0  0  0  0  0  0  0  0  0
   24.0911   -4.1797  -17.1689 C   0  0  0  0  0  0  0  0  0  0  0  0
   23.5679   -5.5382  -17.5194 C   0  0  0  0  0  0  0  0  0  0  0  0
   23.1607   -6.2971  -16.2799 C   0  0  2  0  0  0  0  0  0  0  0  0
   22.6066   -7.5948  -16.7126 N   0  0  0  0  0  0  0  0  0  0  0  0
   22.1979   -5.5975  -15.4385 C   0  0  0  0  0  0  0  0  0  0  0  0
   20.8633   -5.5565  -15.7470 O   0  0  0  0  0  0  0  0  0  0  0  0
   23.2229   -3.1088  -17.1596 C   0  0  0  0  0  0  0  0  0  0  0  0
   23.6850   -1.8513  -16.8535 C   0  0  0  0  0  0  0  0  0  0  0  0
   22.5821   -5.0034  -14.3904 O   0  0  0  0  0  0  0  0  0  0  0  0
  2  1  1  6
  2  3  1  0
  3  4  1  0
  5  2  1  0
  6  5  2  0
  8  7  1  6
  8  9  1  0
  8 10  1  0
 10 12  1  0
 10 11  1  1
 11  5  1  0
 12 21  1  0
 13 12  2  0
 15 16  2  0
 15 14  1  0
 17 16  1  0
 18 17  2  0
 20 19  1  6
 19 18  1  0
 20 22  1  0
 21 20  1  0
 22 26  2  0
 22 23  1  0
 24 18  1  0
 24 25  2  0
 25 15  1  0
M  END
$$$$
