CVY.pdb
     RDKit          3D

 26 26  0  0  1  0  0  0  0  0999 V2000
   18.9376  -15.3162  -17.5769 N   0  0  0  0  0  0  0  0  0  0  0  0
   18.4484  -14.2946  -16.6716 C   0  0  1  0  0  0  0  0  0  0  0  0
   18.6790  -14.7124  -15.2350 C   0  0  0  0  0  0  0  0  0  0  0  0
   17.5116  -16.0558  -14.8026 S   0  0  0  0  0  0  0  0  0  0  0  0
   19.1076  -13.0246  -17.0023 C   0  0  0  0  0  0  0  0  0  0  0  0
   20.3311  -12.9833  -17.3739 O   0  0  0  0  0  0  0  0  0  0  0  0
   18.7690   -8.4343  -18.5357 C   0  0  0  0  0  0  0  0  0  0  0  0
   18.1865   -9.8113  -18.2904 C   0  0  1  0  0  0  0  0  0  0  0  0
   18.1462  -10.5136  -19.6361 C   0  0  0  0  0  0  0  0  0  0  0  0
   19.1325  -10.5347  -17.3325 C   0  0  2  0  0  0  0  0  0  0  0  0
   18.4680  -11.7547  -16.9431 N   0  0  0  0  0  0  0  0  0  0  0  0
   19.4101   -9.6300  -16.2191 C   0  0  0  0  0  0  0  0  0  0  0  0
   18.4475   -9.2453  -15.5118 O   0  0  0  0  0  0  0  0  0  0  0  0
   26.5870   -9.9534  -16.8694 O   0  0  0  0  0  0  0  0  0  0  0  0
   25.4531   -9.7038  -16.1258 C   0  0  0  0  0  0  0  0  0  0  0  0
   24.8360  -10.7478  -15.4493 C   0  0  0  0  0  0  0  0  0  0  0  0
   23.7118  -10.4789  -14.7168 C   0  0  0  0  0  0  0  0  0  0  0  0
   23.1787   -9.2221  -14.6294 C   0  0  0  0  0  0  0  0  0  0  0  0
   21.9399   -8.9395  -13.8371 C   0  0  0  0  0  0  0  0  0  0  0  0
   20.8762   -8.3098  -14.7030 C   0  0  2  0  0  0  0  0  0  0  0  0
   20.7070   -9.1638  -15.8948 N   0  0  0  0  0  0  0  0  0  0  0  0
   21.1659   -6.9395  -15.1064 C   0  0  0  0  0  0  0  0  0  0  0  0
   21.1338   -5.9006  -14.2132 O   0  0  0  0  0  0  0  0  0  0  0  0
   23.7942   -8.1884  -15.3026 C   0  0  0  0  0  0  0  0  0  0  0  0
   24.9248   -8.4286  -16.0461 C   0  0  0  0  0  0  0  0  0  0  0  0
   21.4562   -6.6779  -16.3090 O   0  0  0  0  0  0  0  0  0  0  0  0
  2  1  1  6
  2  3  1  0
  3  4  1  0
  5  2  1  0
  6  5  2  0
  8  7  1  6
  8  9  1  0
  8 10  1  0
 10 12  1  0
 10 11  1  1
 11  5  1  0
 12 21  1  0
 13 12  2  0
 15 16  2  0
 15 14  1  0
 17 16  1  0
 18 17  2  0
 20 19  1  1
 19 18  1  0
 20 22  1  0
 21 20  1  0
 22 26  2  0
 22 23  1  0
 24 18  1  0
 24 25  2  0
 25 15  1  0
M  END
$$$$
