CVY.pdb
     RDKit          3D

 26 26  0  0  1  0  0  0  0  0999 V2000
   26.8671  -16.7413  -16.2951 N   0  0  0  0  0  0  0  0  0  0  0  0
   26.4912  -18.0269  -15.7395 C   0  0  1  0  0  0  0  0  0  0  0  0
   27.4124  -18.3939  -14.5959 C   0  0  0  0  0  0  0  0  0  0  0  0
   29.0386  -18.8999  -15.2697 S   0  0  0  0  0  0  0  0  0  0  0  0
   25.0821  -17.9636  -15.3306 C   0  0  0  0  0  0  0  0  0  0  0  0
   24.5917  -16.9176  -14.7808 O   0  0  0  0  0  0  0  0  0  0  0  0
   22.2898  -20.5341  -16.9095 C   0  0  0  0  0  0  0  0  0  0  0  0
   21.9616  -19.1361  -16.4263 C   0  0  1  0  0  0  0  0  0  0  0  0
   20.4705  -19.1129  -16.1399 C   0  0  0  0  0  0  0  0  0  0  0  0
   22.7608  -18.9051  -15.1443 C   0  0  2  0  0  0  0  0  0  0  0  0
   24.1533  -19.0283  -15.5013 N   0  0  0  0  0  0  0  0  0  0  0  0
   22.3122  -19.8887  -14.1612 C   0  0  0  0  0  0  0  0  0  0  0  0
   22.7330  -21.0664  -14.2641 O   0  0  0  0  0  0  0  0  0  0  0  0
   19.2325  -23.9029   -7.0346 O   0  0  0  0  0  0  0  0  0  0  0  0
   19.6020  -22.9492   -7.9592 C   0  0  0  0  0  0  0  0  0  0  0  0
   18.6266  -22.3310   -8.7303 C   0  0  0  0  0  0  0  0  0  0  0  0
   19.0144  -21.3871   -9.6422 C   0  0  0  0  0  0  0  0  0  0  0  0
   20.3244  -21.0344   -9.8182 C   0  0  0  0  0  0  0  0  0  0  0  0
   20.7412  -20.0108  -10.8285 C   0  0  0  0  0  0  0  0  0  0  0  0
   21.0574  -20.6577  -12.1549 C   0  0  2  0  0  0  0  0  0  0  0  0
   21.4279  -19.5847  -13.0981 N   0  0  0  0  0  0  0  0  0  0  0  0
   19.9696  -21.4555  -12.7067 C   0  0  0  0  0  0  0  0  0  0  0  0
   19.9546  -22.8225  -12.6107 O   0  0  0  0  0  0  0  0  0  0  0  0
   21.2897  -21.6507   -9.0508 C   0  0  0  0  0  0  0  0  0  0  0  0
   20.9299  -22.6023   -8.1269 C   0  0  0  0  0  0  0  0  0  0  0  0
   19.0027  -20.8924  -13.2959 O   0  0  0  0  0  0  0  0  0  0  0  0
  2  1  1  1
  2  3  1  0
  3  4  1  0
  5  2  1  0
  6  5  2  0
  8  7  1  1
  8  9  1  0
  8 10  1  0
 10 12  1  0
 10 11  1  6
 11  5  1  0
 12 21  1  0
 13 12  2  0
 15 16  2  0
 15 14  1  0
 17 16  1  0
 18 17  2  0
 20 19  1  1
 19 18  1  0
 20 22  1  0
 21 20  1  0
 22 26  2  0
 22 23  1  0
 24 18  1  0
 24 25  2  0
 25 15  1  0
M  END
$$$$
