CVY.pdb
     RDKit          3D

 26 26  0  0  1  0  0  0  0  0999 V2000
   27.0327  -20.7315  -17.0722 N   0  0  0  0  0  0  0  0  0  0  0  0
   27.2019  -21.5760  -15.9057 C   0  0  1  0  0  0  0  0  0  0  0  0
   28.6732  -21.7997  -15.6288 C   0  0  0  0  0  0  0  0  0  0  0  0
   29.2851  -23.1652  -16.6849 S   0  0  0  0  0  0  0  0  0  0  0  0
   26.5035  -20.9528  -14.7741 C   0  0  0  0  0  0  0  0  0  0  0  0
   26.6129  -19.7022  -14.5275 O   0  0  0  0  0  0  0  0  0  0  0  0
   22.8158  -20.9949  -11.6011 C   0  0  0  0  0  0  0  0  0  0  0  0
   23.5426  -21.5990  -12.7853 C   0  0  1  0  0  0  0  0  0  0  0  0
   22.7706  -21.1876  -14.0266 C   0  0  0  0  0  0  0  0  0  0  0  0
   24.9488  -21.0007  -12.8017 C   0  0  2  0  0  0  0  0  0  0  0  0
   25.6622  -21.6590  -13.8691 N   0  0  0  0  0  0  0  0  0  0  0  0
   25.5340  -21.2122  -11.4796 C   0  0  0  0  0  0  0  0  0  0  0  0
   25.6872  -22.3916  -11.0792 O   0  0  0  0  0  0  0  0  0  0  0  0
   29.1023  -20.1178   -3.5238 O   0  0  0  0  0  0  0  0  0  0  0  0
   28.6611  -19.9321   -4.8168 C   0  0  0  0  0  0  0  0  0  0  0  0
   29.2760  -20.6207   -5.8541 C   0  0  0  0  0  0  0  0  0  0  0  0
   28.8229  -20.4223   -7.1301 C   0  0  0  0  0  0  0  0  0  0  0  0
   27.7897  -19.5725   -7.4159 C   0  0  0  0  0  0  0  0  0  0  0  0
   27.3098  -19.3505   -8.8169 C   0  0  0  0  0  0  0  0  0  0  0  0
   26.4312  -20.4892   -9.2743 C   0  0  2  0  0  0  0  0  0  0  0  0
   25.9379  -20.1579  -10.6253 N   0  0  0  0  0  0  0  0  0  0  0  0
   25.3097  -20.7738   -8.3879 C   0  0  0  0  0  0  0  0  0  0  0  0
   25.3921  -21.7174   -7.3976 O   0  0  0  0  0  0  0  0  0  0  0  0
   27.1821  -18.8906   -6.3832 C   0  0  0  0  0  0  0  0  0  0  0  0
   27.6157  -19.0699   -5.0915 C   0  0  0  0  0  0  0  0  0  0  0  0
   24.2199  -20.1459   -8.5186 O   0  0  0  0  0  0  0  0  0  0  0  0
  2  1  1  6
  2  3  1  0
  3  4  1  0
  5  2  1  0
  6  5  2  0
  8  7  1  1
  8  9  1  0
  8 10  1  0
 10 12  1  0
 10 11  1  6
 11  5  1  0
 12 21  1  0
 13 12  2  0
 15 16  2  0
 15 14  1  0
 17 16  1  0
 18 17  2  0
 20 19  1  1
 19 18  1  0
 20 22  1  0
 21 20  1  0
 22 26  2  0
 22 23  1  0
 24 18  1  0
 24 25  2  0
 25 15  1  0
M  END
$$$$
