CVY.pdb
     RDKit          3D

 26 26  0  0  1  0  0  0  0  0999 V2000
   26.0262  -16.5370  -19.2616 N   0  0  0  0  0  0  0  0  0  0  0  0
   25.9132  -17.5934  -18.2748 C   0  0  1  0  0  0  0  0  0  0  0  0
   26.9884  -17.4433  -17.2199 C   0  0  0  0  0  0  0  0  0  0  0  0
   28.5918  -17.9983  -17.9095 S   0  0  0  0  0  0  0  0  0  0  0  0
   24.5587  -17.5588  -17.7083 C   0  0  0  0  0  0  0  0  0  0  0  0
   24.0369  -16.4685  -17.2890 O   0  0  0  0  0  0  0  0  0  0  0  0
   20.0806  -19.3069  -17.3136 C   0  0  0  0  0  0  0  0  0  0  0  0
   21.4400  -19.2551  -17.9806 C   0  0  1  0  0  0  0  0  0  0  0  0
   21.2919  -18.3669  -19.2033 C   0  0  0  0  0  0  0  0  0  0  0  0
   22.4094  -18.6330  -16.9761 C   0  0  2  0  0  0  0  0  0  0  0  0
   23.7203  -18.7010  -17.5750 N   0  0  0  0  0  0  0  0  0  0  0  0
   22.2899  -19.3805  -15.7262 C   0  0  0  0  0  0  0  0  0  0  0  0
   22.5664  -20.6045  -15.7369 O   0  0  0  0  0  0  0  0  0  0  0  0
   22.3211  -21.7823   -7.3519 O   0  0  0  0  0  0  0  0  0  0  0  0
   22.2758  -21.0393   -8.5125 C   0  0  0  0  0  0  0  0  0  0  0  0
   21.0485  -20.6159   -9.0053 C   0  0  0  0  0  0  0  0  0  0  0  0
   21.0255  -19.8794  -10.1585 C   0  0  0  0  0  0  0  0  0  0  0  0
   22.1656  -19.5483  -10.8382 C   0  0  0  0  0  0  0  0  0  0  0  0
   22.1299  -18.7542  -12.1072 C   0  0  0  0  0  0  0  0  0  0  0  0
   21.8410  -19.6423  -13.2929 C   0  0  2  0  0  0  0  0  0  0  0  0
   21.8787  -18.7982  -14.5029 N   0  0  0  0  0  0  0  0  0  0  0  0
   20.5690  -20.3496  -13.2156 C   0  0  0  0  0  0  0  0  0  0  0  0
   20.4889  -21.6490  -12.7877 O   0  0  0  0  0  0  0  0  0  0  0  0
   23.3819  -19.9707  -10.3457 C   0  0  0  0  0  0  0  0  0  0  0  0
   23.4360  -20.7117   -9.1895 C   0  0  0  0  0  0  0  0  0  0  0  0
   19.4964  -19.7685  -13.5487 O   0  0  0  0  0  0  0  0  0  0  0  0
  2  1  1  6
  2  3  1  0
  3  4  1  0
  5  2  1  0
  6  5  2  0
  8  7  1  1
  8  9  1  0
  8 10  1  0
 10 12  1  0
 10 11  1  6
 11  5  1  0
 12 21  1  0
 13 12  2  0
 15 16  2  0
 15 14  1  0
 17 16  1  0
 18 17  2  0
 20 19  1  1
 19 18  1  0
 20 22  1  0
 21 20  1  0
 22 26  2  0
 22 23  1  0
 24 18  1  0
 24 25  2  0
 25 15  1  0
M  END
$$$$
