VDA.pdb
     RDKit          3D

 21 20  0  0  1  0  0  0  0  0999 V2000
   19.0120  -12.2682  -16.6517 C   0  0  0  0  0  0  0  0  0  0  0  0
   19.5181  -11.1392  -15.7968 C   0  0  1  0  0  0  0  0  0  0  0  0
   20.9006  -10.7242  -16.2082 C   0  0  0  0  0  0  0  0  0  0  0  0
   18.5458   -9.9874  -15.7274 C   0  0  2  0  0  0  0  0  0  0  0  0
   18.1152   -9.6704  -17.0549 N   0  0  0  0  0  0  0  0  0  0  0  0
   19.0504   -8.8454  -14.9608 C   0  0  0  0  0  0  0  0  0  0  0  0
   19.1793   -8.9634  -13.7243 O   0  0  0  0  0  0  0  0  0  0  0  0
   19.4140   -7.5870  -15.5141 N   0  0  0  0  0  0  0  0  0  0  0  0
   19.7866   -6.4410  -14.7713 C   0  0  1  0  0  0  0  0  0  0  0  0
   21.2496   -6.2939  -14.4989 C   0  0  0  0  0  0  0  0  0  0  0  0
   21.5939   -5.1641  -13.6331 C   0  0  0  0  0  0  0  0  0  0  0  0
   20.6729   -4.5770  -13.0167 O   0  0  0  0  0  0  0  0  0  0  0  0
   19.2279   -5.2308  -15.3926 C   0  0  0  0  0  0  0  0  0  0  0  0
   19.6404   -4.8769  -16.5239 O   0  0  0  0  0  0  0  0  0  0  0  0
   22.8995   -4.7233  -13.4726 O   0  0  0  0  0  0  0  0  0  0  0  0
   16.2802   -2.9740  -14.7863 C   0  0  0  0  0  0  0  0  0  0  0  0
   17.6501   -3.2571  -15.4122 C   0  0  2  0  0  0  0  0  0  0  0  0
   18.2317   -4.4160  -14.7882 N   0  0  0  0  0  0  0  0  0  0  0  0
   18.4890   -2.0458  -15.2365 C   0  0  0  0  0  0  0  0  0  0  0  0
   19.6725   -2.0393  -14.5331 O   0  0  0  0  0  0  0  0  0  0  0  0
   18.0981   -0.9711  -15.7570 O   0  0  0  0  0  0  0  0  0  0  0  0
  2  1  1  6
  2  4  1  0
  3  2  1  0
  4  5  1  6
  4  6  1  0
  6  8  1  0
  7  6  2  0
  8  9  1  0
  9 10  1  6
  9 13  1  0
 10 11  1  0
 11 15  1  0
 12 11  2  0
 13 18  1  0
 13 14  2  0
 17 16  1  1
 18 17  1  0
 19 17  1  0
 19 20  1  0
 21 19  2  0
M  END
$$$$
