VDA.pdb
     RDKit          3D

 21 20  0  0  1  0  0  0  0  0999 V2000
   25.2067  -10.5622  -16.1772 C   0  0  0  0  0  0  0  0  0  0  0  0
   23.9121  -11.3118  -16.3323 C   0  0  1  0  0  0  0  0  0  0  0  0
   24.1098  -12.7851  -16.1258 C   0  0  0  0  0  0  0  0  0  0  0  0
   22.8059  -10.7340  -15.4843 C   0  0  2  0  0  0  0  0  0  0  0  0
   21.7104  -11.6547  -15.4703 N   0  0  0  0  0  0  0  0  0  0  0  0
   22.4455   -9.3627  -15.8535 C   0  0  0  0  0  0  0  0  0  0  0  0
   23.3445   -8.4971  -15.8947 O   0  0  0  0  0  0  0  0  0  0  0  0
   21.1325   -8.9222  -16.1760 N   0  0  0  0  0  0  0  0  0  0  0  0
   20.7762   -7.6008  -16.5376 C   0  0  1  0  0  0  0  0  0  0  0  0
   19.4813   -7.4575  -17.2717 C   0  0  0  0  0  0  0  0  0  0  0  0
   19.4076   -8.2144  -18.5232 C   0  0  0  0  0  0  0  0  0  0  0  0
   18.6201   -9.1881  -18.5910 O   0  0  0  0  0  0  0  0  0  0  0  0
   20.8304   -6.7213  -15.3601 C   0  0  0  0  0  0  0  0  0  0  0  0
   20.8803   -7.2330  -14.2152 O   0  0  0  0  0  0  0  0  0  0  0  0
   20.1766   -7.8916  -19.6318 O   0  0  0  0  0  0  0  0  0  0  0  0
   22.2925   -4.7644  -13.5693 C   0  0  0  0  0  0  0  0  0  0  0  0
   20.9790   -4.4379  -14.2880 C   0  0  2  0  0  0  0  0  0  0  0  0
   20.8301   -5.3011  -15.4297 N   0  0  0  0  0  0  0  0  0  0  0  0
   21.0143   -3.0046  -14.6703 C   0  0  0  0  0  0  0  0  0  0  0  0
   21.0290   -1.9764  -13.7548 O   0  0  0  0  0  0  0  0  0  0  0  0
   21.0318   -2.7154  -15.8929 O   0  0  0  0  0  0  0  0  0  0  0  0
  2  1  1  1
  2  4  1  0
  3  2  1  0
  4  5  1  6
  4  6  1  0
  6  8  1  0
  7  6  2  0
  8  9  1  0
  9 10  1  1
  9 13  1  0
 10 11  1  0
 11 15  1  0
 12 11  2  0
 13 18  1  0
 13 14  2  0
 17 16  1  6
 18 17  1  0
 19 17  1  0
 19 20  1  0
 21 19  2  0
M  END
$$$$
