VDA.pdb
     RDKit          3D

 21 20  0  0  1  0  0  0  0  0999 V2000
   17.0472  -11.4255  -15.7700 C   0  0  0  0  0  0  0  0  0  0  0  0
   18.1086  -10.5379  -15.1806 C   0  0  1  0  0  0  0  0  0  0  0  0
   19.4685  -10.8961  -15.7048 C   0  0  0  0  0  0  0  0  0  0  0  0
   17.7808   -9.0721  -15.3257 C   0  0  2  0  0  0  0  0  0  0  0  0
   17.3170   -8.8359  -16.6588 N   0  0  0  0  0  0  0  0  0  0  0  0
   18.8651   -8.1878  -14.8913 C   0  0  0  0  0  0  0  0  0  0  0  0
   19.1706   -8.1638  -13.6808 O   0  0  0  0  0  0  0  0  0  0  0  0
   19.6162   -7.3357  -15.7469 N   0  0  0  0  0  0  0  0  0  0  0  0
   20.6484   -6.4603  -15.3323 C   0  0  1  0  0  0  0  0  0  0  0  0
   22.0224   -6.8078  -15.8095 C   0  0  0  0  0  0  0  0  0  0  0  0
   22.5102   -8.1113  -15.3541 C   0  0  0  0  0  0  0  0  0  0  0  0
   22.6016   -8.3213  -14.1211 O   0  0  0  0  0  0  0  0  0  0  0  0
   20.2970   -5.0708  -15.6617 C   0  0  0  0  0  0  0  0  0  0  0  0
   19.6670   -4.8329  -16.7208 O   0  0  0  0  0  0  0  0  0  0  0  0
   22.8732   -9.1175  -16.2375 O   0  0  0  0  0  0  0  0  0  0  0  0
   18.6696   -2.5421  -15.0882 C   0  0  0  0  0  0  0  0  0  0  0  0
   20.2006   -2.6060  -15.1132 C   0  0  2  0  0  0  0  0  0  0  0  0
   20.6283   -3.9538  -14.8466 N   0  0  0  0  0  0  0  0  0  0  0  0
   20.7119   -1.6459  -14.1039 C   0  0  0  0  0  0  0  0  0  0  0  0
   20.5827   -0.2805  -14.2233 O   0  0  0  0  0  0  0  0  0  0  0  0
   21.2927   -2.1039  -13.0882 O   0  0  0  0  0  0  0  0  0  0  0  0
  2  1  1  6
  2  4  1  0
  3  2  1  0
  4  5  1  6
  4  6  1  0
  6  8  1  0
  7  6  2  0
  8  9  1  0
  9 10  1  6
  9 13  1  0
 10 11  1  0
 11 15  1  0
 12 11  2  0
 13 18  1  0
 13 14  2  0
 17 16  1  1
 18 17  1  0
 19 17  1  0
 19 20  1  0
 21 19  2  0
M  END
$$$$
