VDA.pdb
     RDKit          3D

 21 20  0  0  1  0  0  0  0  0999 V2000
   18.5817  -11.4586  -18.4942 C   0  0  0  0  0  0  0  0  0  0  0  0
   18.6133  -10.2369  -17.6175 C   0  0  1  0  0  0  0  0  0  0  0  0
   17.2260   -9.7850  -17.2659 C   0  0  0  0  0  0  0  0  0  0  0  0
   19.5058  -10.4137  -16.4137 C   0  0  2  0  0  0  0  0  0  0  0  0
   19.0536  -11.5502  -15.6708 N   0  0  0  0  0  0  0  0  0  0  0  0
   19.6639   -9.1911  -15.6221 C   0  0  0  0  0  0  0  0  0  0  0  0
   18.9175   -9.0142  -14.6367 O   0  0  0  0  0  0  0  0  0  0  0  0
   20.6139   -8.1659  -15.8840 N   0  0  0  0  0  0  0  0  0  0  0  0
   20.7794   -6.9861  -15.1195 C   0  0  1  0  0  0  0  0  0  0  0  0
   22.1528   -6.7551  -14.5749 C   0  0  0  0  0  0  0  0  0  0  0  0
   22.3025   -5.5113  -13.8166 C   0  0  0  0  0  0  0  0  0  0  0  0
   21.7916   -5.4393  -12.6735 O   0  0  0  0  0  0  0  0  0  0  0  0
   20.2942   -5.8210  -15.8745 C   0  0  0  0  0  0  0  0  0  0  0  0
   20.8094   -5.5545  -16.9874 O   0  0  0  0  0  0  0  0  0  0  0  0
   22.9875   -4.4143  -14.3185 O   0  0  0  0  0  0  0  0  0  0  0  0
   17.2693   -3.7748  -16.1488 C   0  0  0  0  0  0  0  0  0  0  0  0
   18.8016   -3.8000  -16.1447 C   0  0  2  0  0  0  0  0  0  0  0  0
   19.2598   -4.9567  -15.4218 N   0  0  0  0  0  0  0  0  0  0  0  0
   19.2752   -2.5335  -15.5336 C   0  0  0  0  0  0  0  0  0  0  0  0
   19.5524   -1.3982  -16.2614 O   0  0  0  0  0  0  0  0  0  0  0  0
   19.4309   -2.4963  -14.2873 O   0  0  0  0  0  0  0  0  0  0  0  0
  2  1  1  1
  2  4  1  0
  3  2  1  0
  4  5  1  1
  4  6  1  0
  6  8  1  0
  7  6  2  0
  8  9  1  0
  9 10  1  6
  9 13  1  0
 10 11  1  0
 11 15  1  0
 12 11  2  0
 13 18  1  0
 13 14  2  0
 17 16  1  1
 18 17  1  0
 19 17  1  0
 19 20  1  0
 21 19  2  0
M  END
$$$$
