SCV.pdb
     RDKit          3D

 20 19  0  0  1  0  0  0  0  0999 V2000
   10.0571  -12.9486   20.2431 O   0  0  0  0  0  0  0  0  0  0  0  0
    9.7412  -14.1970   19.7726 C   0  0  0  0  0  0  0  0  0  0  0  0
    8.2624  -14.4563   19.6645 C   0  0  2  0  0  0  0  0  0  0  0  0
    7.5890  -13.4477   18.9025 N   0  0  0  0  0  0  0  0  0  0  0  0
    7.5989  -14.6913   20.9441 C   0  0  0  0  0  0  0  0  0  0  0  0
    6.7731  -13.8317   21.3522 O   0  0  0  0  0  0  0  0  0  0  0  0
    7.8109  -15.8172   21.7702 N   0  0  0  0  0  0  0  0  0  0  0  0
    7.1338  -15.9246   23.0402 C   0  0  1  0  0  0  0  0  0  0  0  0
    7.0962  -17.4197   23.3486 C   0  0  0  0  0  0  0  0  0  0  0  0
    6.5205  -17.7623   25.0236 S   0  0  0  0  0  0  0  0  0  0  0  0
    7.9148  -15.1675   24.0378 C   0  0  0  0  0  0  0  0  0  0  0  0
    9.1914  -15.1290   23.9507 O   0  0  0  0  0  0  0  0  0  0  0  0
    7.3320  -11.5948   25.5081 C   0  0  0  0  0  0  0  0  0  0  0  0
    7.5712  -12.5547   26.6538 C   0  0  1  0  0  0  0  0  0  0  0  0
    6.2627  -12.8193   27.3302 C   0  0  0  0  0  0  0  0  0  0  0  0
    8.2005  -13.7975   26.0831 C   0  0  2  0  0  0  0  0  0  0  0  0
    7.3637  -14.4564   25.1170 N   0  0  0  0  0  0  0  0  0  0  0  0
    8.4320  -14.7485   27.2012 C   0  0  0  0  0  0  0  0  0  0  0  0
    7.8133  -15.8512   27.2720 O   0  0  0  0  0  0  0  0  0  0  0  0
    9.3415  -14.4598   28.2152 O   0  0  0  0  0  0  0  0  0  0  0  0
  2  1  1  0
  3  2  1  0
  3  5  1  0
  3  4  1  1
  5  6  2  0
  7  8  1  0
  7  5  1  0
  9 10  1  0
  8  9  1  1
 11  8  1  0
 11 12  2  0
 14 13  1  6
 14 16  1  0
 15 14  1  0
 16 17  1  6
 16 18  1  0
 17 11  1  0
 18 19  2  0
 18 20  1  0
M  END
$$$$
