SCV.pdb
     RDKit          3D

 20 19  0  0  1  0  0  0  0  0999 V2000
   11.2815  -17.4002   19.2781 O   0  0  0  0  0  0  0  0  0  0  0  0
   10.3960  -16.8011   20.1364 C   0  0  0  0  0  0  0  0  0  0  0  0
    9.0481  -17.4689   20.1927 C   0  0  2  0  0  0  0  0  0  0  0  0
    8.4281  -17.5487   18.9041 N   0  0  0  0  0  0  0  0  0  0  0  0
    8.1403  -16.9059   21.1886 C   0  0  0  0  0  0  0  0  0  0  0  0
    7.1928  -16.1797   20.7859 O   0  0  0  0  0  0  0  0  0  0  0  0
    8.2402  -17.1125   22.5823 N   0  0  0  0  0  0  0  0  0  0  0  0
    7.2224  -16.5997   23.4677 C   0  0  1  0  0  0  0  0  0  0  0  0
    6.8145  -17.7862   24.3382 C   0  0  0  0  0  0  0  0  0  0  0  0
    8.1044  -18.2565   25.5085 S   0  0  0  0  0  0  0  0  0  0  0  0
    7.8169  -15.5045   24.2586 C   0  0  0  0  0  0  0  0  0  0  0  0
    9.0862  -15.3384   24.2621 O   0  0  0  0  0  0  0  0  0  0  0  0
    5.6618  -12.8981   26.8568 C   0  0  0  0  0  0  0  0  0  0  0  0
    6.8428  -12.3762   26.0668 C   0  0  1  0  0  0  0  0  0  0  0  0
    7.5130  -11.3057   26.8697 C   0  0  0  0  0  0  0  0  0  0  0  0
    7.7463  -13.5440   25.7730 C   0  0  2  0  0  0  0  0  0  0  0  0
    7.0884  -14.5906   25.0385 N   0  0  0  0  0  0  0  0  0  0  0  0
    8.1920  -14.1161   27.0701 C   0  0  0  0  0  0  0  0  0  0  0  0
    7.7741  -15.2401   27.4770 O   0  0  0  0  0  0  0  0  0  0  0  0
    9.0889  -13.4335   27.8876 O   0  0  0  0  0  0  0  0  0  0  0  0
  2  1  1  0
  3  2  1  0
  3  5  1  0
  3  4  1  6
  5  6  2  0
  7  8  1  0
  7  5  1  0
  9 10  1  0
  8  9  1  1
 11  8  1  0
 11 12  2  0
 14 13  1  1
 14 16  1  0
 15 14  1  0
 16 17  1  1
 16 18  1  0
 17 11  1  0
 18 19  2  0
 18 20  1  0
M  END
$$$$
