SCV.pdb
     RDKit          3D

 20 19  0  0  1  0  0  0  0  0999 V2000
    9.4634  -15.8889   18.0753 O   0  0  0  0  0  0  0  0  0  0  0  0
    8.4499  -15.7288   18.9847 C   0  0  0  0  0  0  0  0  0  0  0  0
    8.2012  -16.9380   19.8460 C   0  0  2  0  0  0  0  0  0  0  0  0
    7.5574  -17.9946   19.1247 N   0  0  0  0  0  0  0  0  0  0  0  0
    7.5113  -16.6498   21.1006 C   0  0  0  0  0  0  0  0  0  0  0  0
    6.2841  -16.3684   21.0531 O   0  0  0  0  0  0  0  0  0  0  0  0
    8.1160  -16.6614   22.3770 N   0  0  0  0  0  0  0  0  0  0  0  0
    7.3187  -16.4464   23.5607 C   0  0  1  0  0  0  0  0  0  0  0  0
    7.1930  -17.8211   24.2137 C   0  0  0  0  0  0  0  0  0  0  0  0
    6.4833  -17.7336   25.8700 S   0  0  0  0  0  0  0  0  0  0  0  0
    8.0320  -15.4822   24.4209 C   0  0  0  0  0  0  0  0  0  0  0  0
    9.3115  -15.4901   24.4609 O   0  0  0  0  0  0  0  0  0  0  0  0
    6.9461  -11.6595   25.2124 C   0  0  0  0  0  0  0  0  0  0  0  0
    7.3910  -12.3930   26.4595 C   0  0  1  0  0  0  0  0  0  0  0  0
    6.1760  -12.7497   27.2573 C   0  0  0  0  0  0  0  0  0  0  0  0
    8.1821  -13.5968   26.0223 C   0  0  2  0  0  0  0  0  0  0  0  0
    7.4107  -14.5173   25.2317 N   0  0  0  0  0  0  0  0  0  0  0  0
    8.6312  -14.3174   27.2419 C   0  0  0  0  0  0  0  0  0  0  0  0
    8.2450  -15.4966   27.4946 O   0  0  0  0  0  0  0  0  0  0  0  0
    9.4965  -13.7190   28.1540 O   0  0  0  0  0  0  0  0  0  0  0  0
  2  1  1  0
  3  2  1  0
  3  5  1  0
  3  4  1  6
  5  6  2  0
  7  8  1  0
  7  5  1  0
  9 10  1  0
  8  9  1  1
 11  8  1  0
 11 12  2  0
 14 13  1  6
 14 16  1  0
 15 14  1  0
 16 17  1  6
 16 18  1  0
 17 11  1  0
 18 19  2  0
 18 20  1  0
M  END
$$$$
