SCV.pdb
     RDKit          3D

 20 19  0  0  1  0  0  0  0  0999 V2000
    7.4896  -15.9325   18.7520 O   0  0  0  0  0  0  0  0  0  0  0  0
    8.4103  -16.6699   19.4507 C   0  0  0  0  0  0  0  0  0  0  0  0
    7.8056  -17.7167   20.3476 C   0  0  2  0  0  0  0  0  0  0  0  0
    6.9770  -18.6359   19.6265 N   0  0  0  0  0  0  0  0  0  0  0  0
    7.1153  -17.1794   21.5171 C   0  0  0  0  0  0  0  0  0  0  0  0
    5.8558  -17.1490   21.5020 O   0  0  0  0  0  0  0  0  0  0  0  0
    7.7532  -16.6856   22.6765 N   0  0  0  0  0  0  0  0  0  0  0  0
    6.9722  -16.3012   23.8277 C   0  0  1  0  0  0  0  0  0  0  0  0
    6.8085  -17.5804   24.6455 C   0  0  0  0  0  0  0  0  0  0  0  0
    8.3751  -18.1743   25.3147 S   0  0  0  0  0  0  0  0  0  0  0  0
    7.7220  -15.2619   24.5599 C   0  0  0  0  0  0  0  0  0  0  0  0
    8.9878  -15.1583   24.3995 O   0  0  0  0  0  0  0  0  0  0  0  0
    6.9085  -11.3889   25.2519 C   0  0  0  0  0  0  0  0  0  0  0  0
    7.2105  -12.1366   26.5329 C   0  0  1  0  0  0  0  0  0  0  0  0
    5.9179  -12.4153   27.2338 C   0  0  0  0  0  0  0  0  0  0  0  0
    7.9615  -13.3880   26.1638 C   0  0  2  0  0  0  0  0  0  0  0  0
    7.1510  -14.3386   25.4519 N   0  0  0  0  0  0  0  0  0  0  0  0
    8.4165  -14.0367   27.4210 C   0  0  0  0  0  0  0  0  0  0  0  0
    9.1951  -13.4467   28.2269 O   0  0  0  0  0  0  0  0  0  0  0  0
    8.0010  -15.3219   27.7591 O   0  0  0  0  0  0  0  0  0  0  0  0
  2  1  1  0
  3  2  1  0
  3  5  1  0
  3  4  1  6
  5  6  2  0
  7  8  1  0
  7  5  1  0
  9 10  1  0
  8  9  1  1
 11  8  1  0
 11 12  2  0
 14 13  1  6
 14 16  1  0
 15 14  1  0
 16 17  1  1
 16 18  1  0
 17 11  1  0
 18 19  2  0
 18 20  1  0
M  END
$$$$
