SCV.pdb
     RDKit          3D

 20 19  0  0  1  0  0  0  0  0999 V2000
    8.2623  -15.4891   18.3058 O   0  0  0  0  0  0  0  0  0  0  0  0
    8.7949  -16.0485   19.4385 C   0  0  0  0  0  0  0  0  0  0  0  0
    7.9606  -17.1542   20.0280 C   0  0  2  0  0  0  0  0  0  0  0  0
    7.0117  -17.6763   19.0907 N   0  0  0  0  0  0  0  0  0  0  0  0
    7.3256  -16.8151   21.2986 C   0  0  0  0  0  0  0  0  0  0  0  0
    6.1008  -16.5198   21.2908 O   0  0  0  0  0  0  0  0  0  0  0  0
    7.9814  -16.7913   22.5494 N   0  0  0  0  0  0  0  0  0  0  0  0
    7.2293  -16.5641   23.7600 C   0  0  1  0  0  0  0  0  0  0  0  0
    7.2534  -17.8983   24.5025 C   0  0  0  0  0  0  0  0  0  0  0  0
    6.5528  -17.7756   26.1604 S   0  0  0  0  0  0  0  0  0  0  0  0
    7.9006  -15.4903   24.5181 C   0  0  0  0  0  0  0  0  0  0  0  0
    9.1720  -15.3596   24.4462 O   0  0  0  0  0  0  0  0  0  0  0  0
    6.4913  -11.7500   25.2386 C   0  0  0  0  0  0  0  0  0  0  0  0
    7.0895  -12.3884   26.4738 C   0  0  1  0  0  0  0  0  0  0  0  0
    5.9723  -12.8383   27.3621 C   0  0  0  0  0  0  0  0  0  0  0  0
    7.9723  -13.5201   26.0197 C   0  0  2  0  0  0  0  0  0  0  0  0
    7.2460  -14.5609   25.3439 N   0  0  0  0  0  0  0  0  0  0  0  0
    8.6034  -14.1203   27.2238 C   0  0  0  0  0  0  0  0  0  0  0  0
    9.3087  -13.4290   28.0164 O   0  0  0  0  0  0  0  0  0  0  0  0
    8.4407  -15.4700   27.5245 O   0  0  0  0  0  0  0  0  0  0  0  0
  2  1  1  0
  3  2  1  0
  3  5  1  0
  3  4  1  6
  5  6  2  0
  7  8  1  0
  7  5  1  0
  9 10  1  0
  8  9  1  1
 11  8  1  0
 11 12  2  0
 14 13  1  6
 14 16  1  0
 15 14  1  0
 16 17  1  1
 16 18  1  0
 17 11  1  0
 18 19  2  0
 18 20  1  0
M  END
$$$$
