SCV.pdb
     RDKit          3D

 20 19  0  0  1  0  0  0  0  0999 V2000
   12.7127  -18.8325   21.1966 O   0  0  0  0  0  0  0  0  0  0  0  0
   12.7158  -17.4700   21.3494 C   0  0  0  0  0  0  0  0  0  0  0  0
   11.3929  -16.8158   21.0532 C   0  0  2  0  0  0  0  0  0  0  0  0
   11.4968  -15.8224   20.0267 N   0  0  0  0  0  0  0  0  0  0  0  0
   10.7025  -16.2971   22.2309 C   0  0  0  0  0  0  0  0  0  0  0  0
   10.8533  -15.0802   22.5203 O   0  0  0  0  0  0  0  0  0  0  0  0
    9.8700  -17.0584   23.0809 N   0  0  0  0  0  0  0  0  0  0  0  0
    9.1654  -16.4223   24.1681 C   0  0  1  0  0  0  0  0  0  0  0  0
    7.8729  -17.2195   24.3280 C   0  0  0  0  0  0  0  0  0  0  0  0
    6.9219  -16.7054   25.7724 S   0  0  0  0  0  0  0  0  0  0  0  0
   10.0199  -16.4961   25.3692 C   0  0  0  0  0  0  0  0  0  0  0  0
   10.8500  -17.4616   25.5014 O   0  0  0  0  0  0  0  0  0  0  0  0
   11.4644  -13.4681   27.7641 C   0  0  0  0  0  0  0  0  0  0  0  0
   10.7941  -14.5881   28.5304 C   0  0  1  0  0  0  0  0  0  0  0  0
    9.4348  -14.1252   28.9523 C   0  0  0  0  0  0  0  0  0  0  0  0
   10.7518  -15.7942   27.6305 C   0  0  2  0  0  0  0  0  0  0  0  0
   10.0057  -15.5664   26.4226 N   0  0  0  0  0  0  0  0  0  0  0  0
   10.0834  -16.8954   28.3715 C   0  0  0  0  0  0  0  0  0  0  0  0
    8.9394  -17.3216   28.0350 O   0  0  0  0  0  0  0  0  0  0  0  0
   10.6941  -17.5004   29.4669 O   0  0  0  0  0  0  0  0  0  0  0  0
  2  1  1  0
  3  2  1  0
  3  5  1  0
  3  4  1  6
  5  6  2  0
  7  8  1  0
  7  5  1  0
  9 10  1  0
  8  9  1  1
 11  8  1  0
 11 12  2  0
 14 13  1  6
 14 16  1  0
 15 14  1  0
 16 17  1  6
 16 18  1  0
 17 11  1  0
 18 19  2  0
 18 20  1  0
M  END
$$$$
