KGF.pdb
     RDKit          3D

 25 25  0  0  1  0  0  0  0  0999 V2000
    5.4003  -21.1140   21.7811 N   0  0  0  0  0  0  0  0  0  0  0  0
    5.4164  -19.9186   21.0370 C   0  0  1  0  0  0  0  0  0  0  0  0
    4.3175  -19.5806   20.1310 C   0  0  0  0  0  0  0  0  0  0  0  0
    3.7435  -20.4789   19.1502 C   0  0  0  0  0  0  0  0  0  0  0  0
    4.4235  -21.4672   18.3393 C   0  0  0  0  0  0  0  0  0  0  0  0
    3.7053  -22.3628   17.4054 C   0  0  0  0  0  0  0  0  0  0  0  0
    4.6871  -23.3162   16.7850 N   0  0  0  0  0  0  0  0  0  0  0  0
    5.5184  -18.7800   22.0366 C   0  0  0  0  0  0  0  0  0  0  0  0
    5.6800  -17.6124   21.6259 O   0  0  0  0  0  0  0  0  0  0  0  0
    5.4341  -19.0120   23.4340 N   0  0  0  0  0  0  0  0  0  0  0  0
    5.6908  -17.9244   24.3099 C   0  0  0  0  0  0  0  0  0  0  0  0
    7.0490  -17.3824   24.3001 C   0  0  0  0  0  0  0  0  0  0  0  0
    7.9369  -17.8976   23.5311 O   0  0  0  0  0  0  0  0  0  0  0  0
    7.5210  -16.2999   25.0810 N   0  0  0  0  0  0  0  0  0  0  0  0
    8.8604  -15.7568   24.9474 C   0  0  1  0  0  0  0  0  0  0  0  0
    8.8245  -14.3041   24.5749 C   0  0  0  0  0  0  0  0  0  0  0  0
    8.1135  -13.4612   25.5267 C   0  0  0  0  0  0  0  0  0  0  0  0
    8.7669  -12.7774   26.5247 C   0  0  0  0  0  0  0  0  0  0  0  0
    8.0514  -11.9847   27.3886 C   0  0  0  0  0  0  0  0  0  0  0  0
    6.6820  -11.8484   27.2893 C   0  0  0  0  0  0  0  0  0  0  0  0
    6.0429  -12.5408   26.2831 C   0  0  0  0  0  0  0  0  0  0  0  0
    6.7447  -13.3387   25.4099 C   0  0  0  0  0  0  0  0  0  0  0  0
    9.6985  -16.0677   26.1199 C   0  0  0  0  0  0  0  0  0  0  0  0
   10.9174  -15.7855   26.0937 O   0  0  0  0  0  0  0  0  0  0  0  0
    9.1682  -16.6554   27.2314 O   0  0  0  0  0  0  0  0  0  0  0  0
  2  1  1  1
  2  8  1  0
  3  2  1  0
  3  4  1  0
  4  5  1  0
  5  6  1  0
  6  7  1  0
  8  9  2  0
 10 11  1  0
 10  8  1  0
 11 12  1  0
 12 13  2  0
 12 14  1  0
 14 15  1  0
 15 23  1  0
 15 16  1  1
 17 16  1  0
 17 18  2  0
 19 18  1  0
 20 19  2  0
 21 22  2  0
 21 20  1  0
 22 17  1  0
 23 25  1  0
 24 23  2  0
M  END
$$$$
