KGF.pdb
     RDKit          3D

 25 25  0  0  1  0  0  0  0  0999 V2000
    9.1247  -15.5662   19.6859 N   0  0  0  0  0  0  0  0  0  0  0  0
    8.6739  -14.4986   20.4859 C   0  0  1  0  0  0  0  0  0  0  0  0
    7.6606  -13.5640   19.9935 C   0  0  0  0  0  0  0  0  0  0  0  0
    7.3543  -13.3311   18.5968 C   0  0  0  0  0  0  0  0  0  0  0  0
    8.2001  -13.5691   17.4459 C   0  0  0  0  0  0  0  0  0  0  0  0
    7.7106  -13.4350   16.0558 C   0  0  0  0  0  0  0  0  0  0  0  0
    8.7973  -13.8589   15.1085 N   0  0  0  0  0  0  0  0  0  0  0  0
    8.1165  -15.1088   21.7598 C   0  0  0  0  0  0  0  0  0  0  0  0
    7.5717  -14.3730   22.6082 O   0  0  0  0  0  0  0  0  0  0  0  0
    8.2002  -16.5030   22.0110 N   0  0  0  0  0  0  0  0  0  0  0  0
    7.8011  -16.9783   23.2879 C   0  0  0  0  0  0  0  0  0  0  0  0
    8.6142  -16.5555   24.4274 C   0  0  0  0  0  0  0  0  0  0  0  0
    9.8476  -16.2495   24.2536 O   0  0  0  0  0  0  0  0  0  0  0  0
    8.1749  -16.4388   25.7683 N   0  0  0  0  0  0  0  0  0  0  0  0
    9.0605  -16.0731   26.8587 C   0  0  1  0  0  0  0  0  0  0  0  0
    8.4101  -15.0841   27.7803 C   0  0  0  0  0  0  0  0  0  0  0  0
    7.7727  -13.9644   27.1007 C   0  0  0  0  0  0  0  0  0  0  0  0
    6.4183  -13.9291   26.8668 C   0  0  0  0  0  0  0  0  0  0  0  0
    5.8643  -12.8434   26.2336 C   0  0  0  0  0  0  0  0  0  0  0  0
    6.6289  -11.7725   25.8184 C   0  0  0  0  0  0  0  0  0  0  0  0
    7.9849  -11.8242   26.0608 C   0  0  0  0  0  0  0  0  0  0  0  0
    8.5552  -12.9041   26.6936 C   0  0  0  0  0  0  0  0  0  0  0  0
    9.6224  -17.2588   27.5311 C   0  0  0  0  0  0  0  0  0  0  0  0
   10.5448  -17.1112   28.3638 O   0  0  0  0  0  0  0  0  0  0  0  0
    9.1534  -18.5118   27.2623 O   0  0  0  0  0  0  0  0  0  0  0  0
  2  1  1  6
  2  8  1  0
  3  2  1  0
  3  4  1  0
  4  5  1  0
  5  6  1  0
  6  7  1  0
  8  9  2  0
 10 11  1  0
 10  8  1  0
 11 12  1  0
 12 13  2  0
 12 14  1  0
 14 15  1  0
 15 23  1  0
 15 16  1  1
 17 16  1  0
 17 18  2  0
 19 18  1  0
 20 19  2  0
 21 22  2  0
 21 20  1  0
 22 17  1  0
 23 25  1  0
 24 23  2  0
M  END
$$$$
