KGF.pdb
     RDKit          3D

 25 25  0  0  1  0  0  0  0  0999 V2000
    7.5188  -16.8170   20.0080 N   0  0  0  0  0  0  0  0  0  0  0  0
    8.2057  -16.0245   20.9477 C   0  0  1  0  0  0  0  0  0  0  0  0
    8.0090  -14.5748   20.9975 C   0  0  0  0  0  0  0  0  0  0  0  0
    8.3099  -13.6582   19.9168 C   0  0  0  0  0  0  0  0  0  0  0  0
    8.2421  -13.9057   18.4917 C   0  0  0  0  0  0  0  0  0  0  0  0
    8.5956  -12.8785   17.4867 C   0  0  0  0  0  0  0  0  0  0  0  0
    8.5545  -13.4954   16.1172 N   0  0  0  0  0  0  0  0  0  0  0  0
    7.8417  -16.5576   22.3222 C   0  0  0  0  0  0  0  0  0  0  0  0
    6.6482  -16.5549   22.6878 O   0  0  0  0  0  0  0  0  0  0  0  0
    8.8306  -17.0616   23.2064 N   0  0  0  0  0  0  0  0  0  0  0  0
    8.5447  -17.0680   24.5970 C   0  0  0  0  0  0  0  0  0  0  0  0
    9.3611  -16.1928   25.4373 C   0  0  0  0  0  0  0  0  0  0  0  0
   10.3877  -15.6059   24.9404 O   0  0  0  0  0  0  0  0  0  0  0  0
    9.1380  -15.9039   26.8053 N   0  0  0  0  0  0  0  0  0  0  0  0
   10.0374  -15.0817   27.5939 C   0  0  1  0  0  0  0  0  0  0  0  0
    9.2924  -13.9990   28.3172 C   0  0  0  0  0  0  0  0  0  0  0  0
    8.2207  -13.3904   27.5407 C   0  0  0  0  0  0  0  0  0  0  0  0
    7.2660  -12.5882   28.1197 C   0  0  0  0  0  0  0  0  0  0  0  0
    6.2838  -12.0271   27.3407 C   0  0  0  0  0  0  0  0  0  0  0  0
    6.2202  -12.2428   25.9793 C   0  0  0  0  0  0  0  0  0  0  0  0
    7.1851  -13.0496   25.4151 C   0  0  0  0  0  0  0  0  0  0  0  0
    8.1753  -13.6189   26.1813 C   0  0  0  0  0  0  0  0  0  0  0  0
   10.9175  -15.8970   28.4509 C   0  0  0  0  0  0  0  0  0  0  0  0
   10.6881  -17.1207   28.5762 O   0  0  0  0  0  0  0  0  0  0  0  0
   11.9767  -15.3408   29.1075 O   0  0  0  0  0  0  0  0  0  0  0  0
  2  1  1  6
  2  8  1  0
  3  2  1  0
  3  4  1  0
  4  5  1  0
  5  6  1  0
  6  7  1  0
  8  9  2  0
 10 11  1  0
 10  8  1  0
 11 12  1  0
 12 13  2  0
 12 14  1  0
 14 15  1  0
 15 23  1  0
 15 16  1  1
 17 16  1  0
 17 18  2  0
 19 18  1  0
 20 19  2  0
 21 22  2  0
 21 20  1  0
 22 17  1  0
 23 25  1  0
 24 23  2  0
M  END
$$$$
