KGF.pdb
     RDKit          3D

 25 25  0  0  1  0  0  0  0  0999 V2000
    4.8926  -18.0815   22.6424 N   0  0  0  0  0  0  0  0  0  0  0  0
    5.3584  -18.1837   21.3174 C   0  0  1  0  0  0  0  0  0  0  0  0
    4.4285  -18.1499   20.1874 C   0  0  0  0  0  0  0  0  0  0  0  0
    3.2741  -19.0120   20.0357 C   0  0  0  0  0  0  0  0  0  0  0  0
    2.2292  -19.2824   21.0010 C   0  0  0  0  0  0  0  0  0  0  0  0
    1.0643  -20.1421   20.6946 C   0  0  0  0  0  0  0  0  0  0  0  0
    0.2128  -20.2739   21.9256 N   0  0  0  0  0  0  0  0  0  0  0  0
    6.3369  -17.0417   21.1062 C   0  0  0  0  0  0  0  0  0  0  0  0
    7.0846  -17.0480   20.1067 O   0  0  0  0  0  0  0  0  0  0  0  0
    6.4226  -15.9614   22.0223 N   0  0  0  0  0  0  0  0  0  0  0  0
    7.6111  -15.1847   22.0322 C   0  0  0  0  0  0  0  0  0  0  0  0
    8.4037  -15.2165   23.2607 C   0  0  0  0  0  0  0  0  0  0  0  0
    9.5569  -14.6558   23.2917 O   0  0  0  0  0  0  0  0  0  0  0  0
    8.0260  -15.8254   24.4819 N   0  0  0  0  0  0  0  0  0  0  0  0
    8.8687  -15.8104   25.6636 C   0  0  1  0  0  0  0  0  0  0  0  0
    8.1342  -15.2578   26.8492 C   0  0  0  0  0  0  0  0  0  0  0  0
    7.6949  -13.8781   26.6894 C   0  0  0  0  0  0  0  0  0  0  0  0
    6.3829  -13.5558   26.4344 C   0  0  0  0  0  0  0  0  0  0  0  0
    6.0177  -12.2381   26.3056 C   0  0  0  0  0  0  0  0  0  0  0  0
    6.9329  -11.2124   26.4246 C   0  0  0  0  0  0  0  0  0  0  0  0
    8.2439  -11.5532   26.6804 C   0  0  0  0  0  0  0  0  0  0  0  0
    8.6259  -12.8679   26.8121 C   0  0  0  0  0  0  0  0  0  0  0  0
    9.5118  -17.1166   25.8962 C   0  0  0  0  0  0  0  0  0  0  0  0
   10.2901  -17.2520   26.8667 O   0  0  0  0  0  0  0  0  0  0  0  0
    9.2719  -18.1786   25.0735 O   0  0  0  0  0  0  0  0  0  0  0  0
  2  1  1  1
  2  8  1  0
  3  2  1  0
  3  4  1  0
  4  5  1  0
  5  6  1  0
  6  7  1  0
  8  9  2  0
 10 11  1  0
 10  8  1  0
 11 12  1  0
 12 13  2  0
 12 14  1  0
 14 15  1  0
 15 23  1  0
 15 16  1  1
 17 16  1  0
 17 18  2  0
 19 18  1  0
 20 19  2  0
 21 22  2  0
 21 20  1  0
 22 17  1  0
 23 25  1  0
 24 23  2  0
M  END
$$$$
