KGF.pdb
     RDKit          3D

 25 25  0  0  1  0  0  0  0  0999 V2000
   10.2059  -14.7042   18.6178 N   0  0  0  0  0  0  0  0  0  0  0  0
    8.9411  -14.2770   19.0659 C   0  0  1  0  0  0  0  0  0  0  0  0
    7.8969  -13.8897   18.1159 C   0  0  0  0  0  0  0  0  0  0  0  0
    7.8298  -14.3202   16.7343 C   0  0  0  0  0  0  0  0  0  0  0  0
    7.4401  -13.5441   15.5757 C   0  0  0  0  0  0  0  0  0  0  0  0
    7.2872  -14.1421   14.2306 C   0  0  0  0  0  0  0  0  0  0  0  0
    6.9567  -13.0574   13.2446 N   0  0  0  0  0  0  0  0  0  0  0  0
    8.3667  -15.4063   19.9029 C   0  0  0  0  0  0  0  0  0  0  0  0
    8.5779  -16.5901   19.5684 O   0  0  0  0  0  0  0  0  0  0  0  0
    7.5912  -15.1474   21.0629 N   0  0  0  0  0  0  0  0  0  0  0  0
    7.3773  -16.2128   21.9766 C   0  0  0  0  0  0  0  0  0  0  0  0
    8.3314  -16.3319   23.0784 C   0  0  0  0  0  0  0  0  0  0  0  0
    9.5579  -16.6162   22.8335 O   0  0  0  0  0  0  0  0  0  0  0  0
    8.0432  -16.1608   24.4540 N   0  0  0  0  0  0  0  0  0  0  0  0
    9.0730  -15.9476   25.4544 C   0  0  1  0  0  0  0  0  0  0  0  0
    9.4322  -14.4954   25.5654 C   0  0  0  0  0  0  0  0  0  0  0  0
    8.3118  -13.6273   25.9019 C   0  0  0  0  0  0  0  0  0  0  0  0
    7.3677  -13.2621   24.9716 C   0  0  0  0  0  0  0  0  0  0  0  0
    6.3226  -12.4520   25.3432 C   0  0  0  0  0  0  0  0  0  0  0  0
    6.1846  -11.9855   26.6344 C   0  0  0  0  0  0  0  0  0  0  0  0
    7.1400  -12.3612   27.5544 C   0  0  0  0  0  0  0  0  0  0  0  0
    8.1926  -13.1718   27.1983 C   0  0  0  0  0  0  0  0  0  0  0  0
    8.7363  -16.5947   26.7357 C   0  0  0  0  0  0  0  0  0  0  0  0
    9.5852  -16.6121   27.6549 O   0  0  0  0  0  0  0  0  0  0  0  0
    7.5164  -17.1725   26.9362 O   0  0  0  0  0  0  0  0  0  0  0  0
  2  1  1  6
  2  8  1  0
  3  2  1  0
  3  4  1  0
  4  5  1  0
  5  6  1  0
  6  7  1  0
  8  9  2  0
 10 11  1  0
 10  8  1  0
 11 12  1  0
 12 13  2  0
 12 14  1  0
 14 15  1  0
 15 23  1  0
 15 16  1  1
 17 16  1  0
 17 18  2  0
 19 18  1  0
 20 19  2  0
 21 22  2  0
 21 20  1  0
 22 17  1  0
 23 25  1  0
 24 23  2  0
M  END
$$$$
