KGF.pdb
     RDKit          3D

 25 25  0  0  1  0  0  0  0  0999 V2000
    7.0087  -19.0066   23.6603 N   0  0  0  0  0  0  0  0  0  0  0  0
    7.0750  -19.1701   22.2632 C   0  0  1  0  0  0  0  0  0  0  0  0
    5.9010  -19.5926   21.4978 C   0  0  0  0  0  0  0  0  0  0  0  0
    4.8311  -20.4244   22.0097 C   0  0  0  0  0  0  0  0  0  0  0  0
    3.6927  -20.9570   21.2905 C   0  0  0  0  0  0  0  0  0  0  0  0
    2.6189  -21.7274   21.9563 C   0  0  0  0  0  0  0  0  0  0  0  0
    3.1924  -23.0088   22.4921 N   0  0  0  0  0  0  0  0  0  0  0  0
    7.5108  -17.8354   21.6847 C   0  0  0  0  0  0  0  0  0  0  0  0
    7.9018  -17.7753   20.5008 O   0  0  0  0  0  0  0  0  0  0  0  0
    7.4843  -16.6480   22.4612 N   0  0  0  0  0  0  0  0  0  0  0  0
    8.5900  -15.7622   22.3678 C   0  0  0  0  0  0  0  0  0  0  0  0
    9.2584  -15.4150   23.6213 C   0  0  0  0  0  0  0  0  0  0  0  0
   10.4095  -14.8496   23.5962 O   0  0  0  0  0  0  0  0  0  0  0  0
    8.7563  -15.6423   24.9254 N   0  0  0  0  0  0  0  0  0  0  0  0
    9.6017  -15.6488   26.1053 C   0  0  1  0  0  0  0  0  0  0  0  0
    9.2733  -14.5035   27.0169 C   0  0  0  0  0  0  0  0  0  0  0  0
    8.1717  -13.6698   26.5551 C   0  0  0  0  0  0  0  0  0  0  0  0
    6.8671  -13.9262   26.9052 C   0  0  0  0  0  0  0  0  0  0  0  0
    5.8658  -13.1013   26.4541 C   0  0  0  0  0  0  0  0  0  0  0  0
    6.1262  -12.0097   25.6512 C   0  0  0  0  0  0  0  0  0  0  0  0
    7.4395  -11.7672   25.3098 C   0  0  0  0  0  0  0  0  0  0  0  0
    8.4537  -12.5836   25.7532 C   0  0  0  0  0  0  0  0  0  0  0  0
    9.6180  -16.9687   26.7620 C   0  0  0  0  0  0  0  0  0  0  0  0
    8.8976  -17.8867   26.3101 O   0  0  0  0  0  0  0  0  0  0  0  0
   10.4049  -17.2061   27.8513 O   0  0  0  0  0  0  0  0  0  0  0  0
  2  1  1  1
  2  8  1  0
  3  2  1  0
  3  4  1  0
  4  5  1  0
  5  6  1  0
  6  7  1  0
  8  9  2  0
 10 11  1  0
 10  8  1  0
 11 12  1  0
 12 13  2  0
 12 14  1  0
 14 15  1  0
 15 23  1  0
 15 16  1  1
 17 16  1  0
 17 18  2  0
 19 18  1  0
 20 19  2  0
 21 22  2  0
 21 20  1  0
 22 17  1  0
 23 25  1  0
 24 23  2  0
M  END
$$$$
