KGF.pdb
     RDKit          3D

 25 25  0  0  1  0  0  0  0  0999 V2000
    6.3696  -16.1897   23.2905 N   0  0  0  0  0  0  0  0  0  0  0  0
    7.0710  -16.7519   22.2065 C   0  0  1  0  0  0  0  0  0  0  0  0
    6.9879  -16.1630   20.8690 C   0  0  0  0  0  0  0  0  0  0  0  0
    7.8454  -15.1065   20.3718 C   0  0  0  0  0  0  0  0  0  0  0  0
    7.7750  -14.4262   19.0955 C   0  0  0  0  0  0  0  0  0  0  0  0
    8.6721  -13.3043   18.7399 C   0  0  0  0  0  0  0  0  0  0  0  0
    8.3780  -12.8661   17.3330 N   0  0  0  0  0  0  0  0  0  0  0  0
    8.5410  -16.7535   22.5875 C   0  0  0  0  0  0  0  0  0  0  0  0
    9.1810  -17.8251   22.5692 O   0  0  0  0  0  0  0  0  0  0  0  0
    9.2089  -15.5601   22.9660 N   0  0  0  0  0  0  0  0  0  0  0  0
   10.6039  -15.6259   23.2219 C   0  0  0  0  0  0  0  0  0  0  0  0
   11.0130  -15.6185   24.6258 C   0  0  0  0  0  0  0  0  0  0  0  0
   12.2531  -15.4944   24.9293 O   0  0  0  0  0  0  0  0  0  0  0  0
   10.1550  -15.7386   25.7456 N   0  0  0  0  0  0  0  0  0  0  0  0
   10.5906  -15.4722   27.1043 C   0  0  1  0  0  0  0  0  0  0  0  0
   10.3007  -14.0548   27.5012 C   0  0  0  0  0  0  0  0  0  0  0  0
    8.9736  -13.5884   27.1229 C   0  0  0  0  0  0  0  0  0  0  0  0
    7.9024  -13.6635   27.9815 C   0  0  0  0  0  0  0  0  0  0  0  0
    6.6741  -13.1972   27.5809 C   0  0  0  0  0  0  0  0  0  0  0  0
    6.4743  -12.6487   26.3307 C   0  0  0  0  0  0  0  0  0  0  0  0
    7.5589  -12.5811   25.4825 C   0  0  0  0  0  0  0  0  0  0  0  0
    8.7954  -13.0436   25.8684 C   0  0  0  0  0  0  0  0  0  0  0  0
   10.0913  -16.4871   28.0501 C   0  0  0  0  0  0  0  0  0  0  0  0
   10.4431  -16.4322   29.2497 O   0  0  0  0  0  0  0  0  0  0  0  0
    9.2525  -17.4824   27.6404 O   0  0  0  0  0  0  0  0  0  0  0  0
  2  1  1  1
  2  8  1  0
  3  2  1  0
  3  4  1  0
  4  5  1  0
  5  6  1  0
  6  7  1  0
  8  9  2  0
 10 11  1  0
 10  8  1  0
 11 12  1  0
 12 13  2  0
 12 14  1  0
 14 15  1  0
 15 23  1  0
 15 16  1  1
 17 16  1  0
 17 18  2  0
 19 18  1  0
 20 19  2  0
 21 22  2  0
 21 20  1  0
 22 17  1  0
 23 25  1  0
 24 23  2  0
M  END
$$$$
