KGF.pdb
     RDKit          3D

 25 25  0  0  1  0  0  0  0  0999 V2000
    9.8355  -14.6706   19.0628 N   0  0  0  0  0  0  0  0  0  0  0  0
    9.0066  -13.7107   19.6747 C   0  0  1  0  0  0  0  0  0  0  0  0
    7.9001  -13.0937   18.9414 C   0  0  0  0  0  0  0  0  0  0  0  0
    7.3040  -13.6276   17.7339 C   0  0  0  0  0  0  0  0  0  0  0  0
    7.9633  -13.9816   16.4943 C   0  0  0  0  0  0  0  0  0  0  0  0
    7.2284  -14.5100   15.3234 C   0  0  0  0  0  0  0  0  0  0  0  0
    8.2156  -14.9251   14.2693 N   0  0  0  0  0  0  0  0  0  0  0  0
    8.3986  -14.3715   20.8993 C   0  0  0  0  0  0  0  0  0  0  0  0
    7.6852  -13.6991   21.6720 O   0  0  0  0  0  0  0  0  0  0  0  0
    8.6225  -15.7426   21.1884 N   0  0  0  0  0  0  0  0  0  0  0  0
    8.0179  -16.2891   22.3510 C   0  0  0  0  0  0  0  0  0  0  0  0
    8.6668  -15.9922   23.6275 C   0  0  0  0  0  0  0  0  0  0  0  0
    9.8697  -15.5473   23.6445 O   0  0  0  0  0  0  0  0  0  0  0  0
    8.0914  -16.1469   24.9119 N   0  0  0  0  0  0  0  0  0  0  0  0
    8.8375  -15.9401   26.1396 C   0  0  1  0  0  0  0  0  0  0  0  0
    8.0092  -15.2260   27.1665 C   0  0  0  0  0  0  0  0  0  0  0  0
    7.4703  -13.9496   26.7164 C   0  0  0  0  0  0  0  0  0  0  0  0
    6.1707  -13.8175   26.2879 C   0  0  0  0  0  0  0  0  0  0  0  0
    5.7073  -12.5885   25.8863 C   0  0  0  0  0  0  0  0  0  0  0  0
    6.5105  -11.4666   25.8977 C   0  0  0  0  0  0  0  0  0  0  0  0
    7.8107  -11.6169   26.3302 C   0  0  0  0  0  0  0  0  0  0  0  0
    8.2901  -12.8406   26.7357 C   0  0  0  0  0  0  0  0  0  0  0  0
    9.4647  -17.1859   26.6176 C   0  0  0  0  0  0  0  0  0  0  0  0
    9.1393  -18.2753   26.0949 O   0  0  0  0  0  0  0  0  0  0  0  0
   10.3933  -17.1707   27.6175 O   0  0  0  0  0  0  0  0  0  0  0  0
  2  1  1  6
  2  8  1  0
  3  2  1  0
  3  4  1  0
  4  5  1  0
  5  6  1  0
  6  7  1  0
  8  9  2  0
 10 11  1  0
 10  8  1  0
 11 12  1  0
 12 13  2  0
 12 14  1  0
 14 15  1  0
 15 23  1  0
 15 16  1  1
 17 16  1  0
 17 18  2  0
 19 18  1  0
 20 19  2  0
 21 22  2  0
 21 20  1  0
 22 17  1  0
 23 25  1  0
 24 23  2  0
M  END
$$$$
