KGF.pdb
     RDKit          3D

 25 25  0  0  1  0  0  0  0  0999 V2000
    8.4831  -16.2303   20.3831 N   0  0  0  0  0  0  0  0  0  0  0  0
    8.2543  -15.0500   21.1164 C   0  0  1  0  0  0  0  0  0  0  0  0
    7.3044  -14.0417   20.6434 C   0  0  0  0  0  0  0  0  0  0  0  0
    7.3877  -13.3543   19.3710 C   0  0  0  0  0  0  0  0  0  0  0  0
    8.0750  -13.7803   18.1698 C   0  0  0  0  0  0  0  0  0  0  0  0
    8.1302  -12.9498   16.9461 C   0  0  0  0  0  0  0  0  0  0  0  0
    8.8479  -13.7105   15.8672 N   0  0  0  0  0  0  0  0  0  0  0  0
    7.7832  -15.4742   22.4963 C   0  0  0  0  0  0  0  0  0  0  0  0
    7.2896  -14.6251   23.2667 O   0  0  0  0  0  0  0  0  0  0  0  0
    7.8908  -16.8197   22.9340 N   0  0  0  0  0  0  0  0  0  0  0  0
    7.7244  -17.0888   24.3181 C   0  0  0  0  0  0  0  0  0  0  0  0
    8.7604  -16.5761   25.2139 C   0  0  0  0  0  0  0  0  0  0  0  0
    9.9697  -16.4725   24.7990 O   0  0  0  0  0  0  0  0  0  0  0  0
    8.5733  -16.1597   26.5541 N   0  0  0  0  0  0  0  0  0  0  0  0
    9.6551  -15.6588   27.3820 C   0  0  1  0  0  0  0  0  0  0  0  0
    9.3461  -14.2901   27.9126 C   0  0  0  0  0  0  0  0  0  0  0  0
    8.3785  -13.5460   27.1176 C   0  0  0  0  0  0  0  0  0  0  0  0
    8.4607  -13.4766   25.7470 C   0  0  0  0  0  0  0  0  0  0  0  0
    7.5148  -12.7727   25.0425 C   0  0  0  0  0  0  0  0  0  0  0  0
    6.4710  -12.1240   25.6698 C   0  0  0  0  0  0  0  0  0  0  0  0
    6.4036  -12.2039   27.0443 C   0  0  0  0  0  0  0  0  0  0  0  0
    7.3428  -12.9047   27.7644 C   0  0  0  0  0  0  0  0  0  0  0  0
   10.0588  -16.6367   28.4089 C   0  0  0  0  0  0  0  0  0  0  0  0
   11.0484  -16.3902   29.1341 O   0  0  0  0  0  0  0  0  0  0  0  0
    9.3721  -17.8032   28.5823 O   0  0  0  0  0  0  0  0  0  0  0  0
  2  1  1  6
  2  8  1  0
  3  2  1  0
  3  4  1  0
  4  5  1  0
  5  6  1  0
  6  7  1  0
  8  9  2  0
 10 11  1  0
 10  8  1  0
 11 12  1  0
 12 13  2  0
 12 14  1  0
 14 15  1  0
 15 23  1  0
 15 16  1  1
 17 16  1  0
 17 18  2  0
 19 18  1  0
 20 19  2  0
 21 22  2  0
 21 20  1  0
 22 17  1  0
 23 25  1  0
 24 23  2  0
M  END
$$$$
