KGF.pdb
     RDKit          3D

 25 25  0  0  1  0  0  0  0  0999 V2000
   10.2236  -16.0262   18.1526 N   0  0  0  0  0  0  0  0  0  0  0  0
    9.4188  -15.0036   18.6905 C   0  0  1  0  0  0  0  0  0  0  0  0
    8.4597  -14.2810   17.8534 C   0  0  0  0  0  0  0  0  0  0  0  0
    8.3938  -14.3598   16.4084 C   0  0  0  0  0  0  0  0  0  0  0  0
    7.5348  -13.6145   15.5123 C   0  0  0  0  0  0  0  0  0  0  0  0
    7.6069  -13.7526   14.0406 C   0  0  0  0  0  0  0  0  0  0  0  0
    6.6533  -12.7789   13.4077 N   0  0  0  0  0  0  0  0  0  0  0  0
    8.6220  -15.6224   19.8254 C   0  0  0  0  0  0  0  0  0  0  0  0
    8.4399  -16.8570   19.8487 O   0  0  0  0  0  0  0  0  0  0  0  0
    8.0760  -14.8270   20.8662 N   0  0  0  0  0  0  0  0  0  0  0  0
    7.4988  -15.4887   21.9818 C   0  0  0  0  0  0  0  0  0  0  0  0
    8.2816  -15.4936   23.2171 C   0  0  0  0  0  0  0  0  0  0  0  0
    9.5075  -15.1167   23.1980 O   0  0  0  0  0  0  0  0  0  0  0  0
    7.8192  -15.8861   24.4964 N   0  0  0  0  0  0  0  0  0  0  0  0
    8.6507  -15.8341   25.6850 C   0  0  1  0  0  0  0  0  0  0  0  0
    7.9093  -15.2331   26.8424 C   0  0  0  0  0  0  0  0  0  0  0  0
    7.3040  -13.9393   26.5566 C   0  0  0  0  0  0  0  0  0  0  0  0
    5.9985  -13.8210   26.1421 C   0  0  0  0  0  0  0  0  0  0  0  0
    5.4710  -12.5764   25.8986 C   0  0  0  0  0  0  0  0  0  0  0  0
    6.2147  -11.4251   26.0574 C   0  0  0  0  0  0  0  0  0  0  0  0
    7.5217  -11.5618   26.4736 C   0  0  0  0  0  0  0  0  0  0  0  0
    8.0649  -12.8008   26.7216 C   0  0  0  0  0  0  0  0  0  0  0  0
    9.2813  -17.1357   25.9714 C   0  0  0  0  0  0  0  0  0  0  0  0
    8.8835  -18.1557   25.3654 O   0  0  0  0  0  0  0  0  0  0  0  0
   10.2905  -17.2462   26.8833 O   0  0  0  0  0  0  0  0  0  0  0  0
  2  1  1  6
  2  8  1  0
  3  2  1  0
  3  4  1  0
  4  5  1  0
  5  6  1  0
  6  7  1  0
  8  9  2  0
 10 11  1  0
 10  8  1  0
 11 12  1  0
 12 13  2  0
 12 14  1  0
 14 15  1  0
 15 23  1  0
 15 16  1  1
 17 16  1  0
 17 18  2  0
 19 18  1  0
 20 19  2  0
 21 22  2  0
 21 20  1  0
 22 17  1  0
 23 25  1  0
 24 23  2  0
M  END
$$$$
