KGF.pdb
     RDKit          3D

 25 25  0  0  1  0  0  0  0  0999 V2000
    5.4099  -16.8041   22.3860 N   0  0  0  0  0  0  0  0  0  0  0  0
    6.5063  -17.3537   21.6939 C   0  0  1  0  0  0  0  0  0  0  0  0
    7.4444  -16.4967   20.9671 C   0  0  0  0  0  0  0  0  0  0  0  0
    7.2315  -15.0943   20.6730 C   0  0  0  0  0  0  0  0  0  0  0  0
    8.0774  -14.2051   19.9046 C   0  0  0  0  0  0  0  0  0  0  0  0
    7.8461  -12.7449   19.8380 C   0  0  0  0  0  0  0  0  0  0  0  0
    8.9761  -12.1017   19.0847 N   0  0  0  0  0  0  0  0  0  0  0  0
    7.3263  -18.1263   22.7120 C   0  0  0  0  0  0  0  0  0  0  0  0
    8.3417  -18.7497   22.3400 O   0  0  0  0  0  0  0  0  0  0  0  0
    6.9646  -18.1572   24.0839 N   0  0  0  0  0  0  0  0  0  0  0  0
    7.7773  -18.9078   24.9738 C   0  0  0  0  0  0  0  0  0  0  0  0
    8.8450  -18.1792   25.6577 C   0  0  0  0  0  0  0  0  0  0  0  0
   10.0096  -18.7056   25.7663 O   0  0  0  0  0  0  0  0  0  0  0  0
    8.7362  -16.8949   26.2435 N   0  0  0  0  0  0  0  0  0  0  0  0
    9.8899  -16.1154   26.6534 C   0  0  1  0  0  0  0  0  0  0  0  0
    9.8366  -14.7261   26.0900 C   0  0  0  0  0  0  0  0  0  0  0  0
    8.6255  -13.9907   26.4282 C   0  0  0  0  0  0  0  0  0  0  0  0
    8.5662  -13.1409   27.5074 C   0  0  0  0  0  0  0  0  0  0  0  0
    7.4037  -12.4603   27.7756 C   0  0  0  0  0  0  0  0  0  0  0  0
    6.2782  -12.6008   26.9899 C   0  0  0  0  0  0  0  0  0  0  0  0
    6.3550  -13.4567   25.9120 C   0  0  0  0  0  0  0  0  0  0  0  0
    7.5115  -14.1457   25.6299 C   0  0  0  0  0  0  0  0  0  0  0  0
   10.1049  -16.1771   28.1107 C   0  0  0  0  0  0  0  0  0  0  0  0
    9.2740  -16.7786   28.8275 O   0  0  0  0  0  0  0  0  0  0  0  0
   11.1932  -15.5918   28.6896 O   0  0  0  0  0  0  0  0  0  0  0  0
  2  1  1  1
  2  8  1  0
  3  2  1  0
  3  4  1  0
  4  5  1  0
  5  6  1  0
  6  7  1  0
  8  9  2  0
 10 11  1  0
 10  8  1  0
 11 12  1  0
 12 13  2  0
 12 14  1  0
 14 15  1  0
 15 23  1  0
 15 16  1  1
 17 16  1  0
 17 18  2  0
 19 18  1  0
 20 19  2  0
 21 22  2  0
 21 20  1  0
 22 17  1  0
 23 25  1  0
 24 23  2  0
M  END
$$$$
