RKM.pdb
     RDKit          3D

 29 28  0  0  1  0  0  0  0  0999 V2000
    7.8507  -12.8027   17.2417 N   0  0  0  0  0  0  0  0  0  0  0  0
    8.1983  -14.0599   16.6801 C   0  0  0  0  0  0  0  0  0  0  0  0
    7.9796  -14.2712   15.4480 N   0  0  0  0  0  0  0  0  0  0  0  0
    8.7812  -15.0662   17.4806 N   0  0  0  0  0  0  0  0  0  0  0  0
    8.3919  -15.2319   18.8390 C   0  0  0  0  0  0  0  0  0  0  0  0
    6.8927  -15.2725   19.0642 C   0  0  0  0  0  0  0  0  0  0  0  0
    6.6209  -15.5836   20.5125 C   0  0  0  0  0  0  0  0  0  0  0  0
    6.5437  -17.0810   20.7620 C   0  0  2  0  0  0  0  0  0  0  0  0
    5.3721  -17.6584   20.1816 N   0  0  0  0  0  0  0  0  0  0  0  0
    6.5583  -17.3175   22.2170 C   0  0  0  0  0  0  0  0  0  0  0  0
    5.6152  -16.9626   22.9817 O   0  0  0  0  0  0  0  0  0  0  0  0
    8.2381  -15.1256   14.9102 N   0  0  0  0  0  0  0  0  0  0  0  0
    7.6582  -17.9650   22.8095 C   0  0  2  0  0  0  0  0  0  0  0  0
    7.7997  -18.1571   24.2377 C   0  0  0  0  0  0  0  0  0  0  0  0
    8.7249  -19.3323   24.4652 C   0  0  0  0  0  0  0  0  0  0  0  0
    8.0595  -20.6486   24.2250 C   0  0  0  0  0  0  0  0  0  0  0  0
    7.2298  -21.0273   25.4103 C   0  0  0  0  0  0  0  0  0  0  0  0
    6.4778  -22.3083   25.2513 N   0  0  0  0  0  0  0  0  0  0  0  0
    5.7953  -22.5566   26.5319 C   0  0  0  0  0  0  0  0  0  0  0  0
    8.5058  -16.9438   24.7771 O   0  0  0  0  0  0  0  0  0  0  0  0
    9.5848  -16.5419   24.2757 C   0  0  0  0  0  0  0  0  0  0  0  0
    5.9774  -11.0752   25.7620 S   0  0  0  0  0  0  0  0  0  0  0  0
    6.8445  -11.4840   27.2580 C   0  0  0  0  0  0  0  0  0  0  0  0
    8.1133  -12.7133   27.1564 C   0  0  0  0  0  0  0  0  0  0  0  0
    7.6401  -13.9723   26.5118 C   0  0  1  0  0  0  0  0  0  0  0  0
    8.6684  -15.0459   26.3747 N   0  0  0  0  0  0  0  0  0  0  0  0
    7.9596  -16.2314   25.8662 C   0  0  0  0  0  0  0  0  0  0  0  0
    9.2906  -15.3924   27.6669 O   0  0  0  0  0  0  0  0  0  0  0  0
   10.2496  -14.5143   28.2182 O   0  0  0  0  0  0  0  0  0  0  0  0
  2  3  2  0
  2  1  1  0
  4  2  1  0
  5  4  1  0
  6  7  1  0
  6  5  1  0
  7  8  1  0
  8 10  1  0
  8  9  1  1
 10 12  1  0
 11 10  2  0
 12 13  1  0
 13 19  1  0
 13 14  1  1
 15 14  1  0
 16 17  1  0
 16 15  1  0
 18 17  1  0
 19 20  2  0
 19 26  1  0
 22 21  1  0
 23 22  1  0
 24 23  1  0
 25 24  1  6
 25 27  1  0
 26 25  1  0
 27 28  1  0
 29 27  2  0
M  END
$$$$
