RKM.pdb
     RDKit          3D

 29 28  0  0  1  0  0  0  0  0999 V2000
    8.4192  -12.0488   19.4489 N   0  0  0  0  0  0  0  0  0  0  0  0
    8.6238  -12.9492   18.3700 C   0  0  0  0  0  0  0  0  0  0  0  0
    8.2606  -12.6111   17.2019 N   0  0  0  0  0  0  0  0  0  0  0  0
    9.2248  -14.2075   18.5905 N   0  0  0  0  0  0  0  0  0  0  0  0
    8.4863  -15.4092   18.4040 C   0  0  0  0  0  0  0  0  0  0  0  0
    7.2176  -15.5036   19.2294 C   0  0  0  0  0  0  0  0  0  0  0  0
    7.5828  -15.5482   20.6898 C   0  0  0  0  0  0  0  0  0  0  0  0
    8.1688  -16.8946   21.0829 C   0  0  2  0  0  0  0  0  0  0  0  0
    7.5588  -17.9709   20.3671 N   0  0  0  0  0  0  0  0  0  0  0  0
    7.9863  -17.0823   22.5336 C   0  0  0  0  0  0  0  0  0  0  0  0
    6.8542  -17.0394   23.0963 O   0  0  0  0  0  0  0  0  0  0  0  0
    8.2832  -13.2088   16.3485 N   0  0  0  0  0  0  0  0  0  0  0  0
    9.1041  -17.3214   23.3542 C   0  0  2  0  0  0  0  0  0  0  0  0
    9.0182  -17.5199   24.7859 C   0  0  0  0  0  0  0  0  0  0  0  0
    9.7064  -18.8244   25.1224 C   0  0  0  0  0  0  0  0  0  0  0  0
   11.1646  -18.8116   24.7955 C   0  0  0  0  0  0  0  0  0  0  0  0
   11.7519  -20.1686   25.0197 C   0  0  0  0  0  0  0  0  0  0  0  0
   13.2268  -20.2457   24.7952 N   0  0  0  0  0  0  0  0  0  0  0  0
   13.6291  -21.6250   25.1159 C   0  0  0  0  0  0  0  0  0  0  0  0
    9.8272  -16.4285   25.4309 O   0  0  0  0  0  0  0  0  0  0  0  0
   10.6544  -15.7538   24.7694 C   0  0  0  0  0  0  0  0  0  0  0  0
    6.3407  -12.1321   25.6059 S   0  0  0  0  0  0  0  0  0  0  0  0
    7.1613  -11.7451   27.1336 C   0  0  0  0  0  0  0  0  0  0  0  0
    8.6785  -12.5867   27.4813 C   0  0  0  0  0  0  0  0  0  0  0  0
    8.6639  -14.0059   27.0229 C   0  0  1  0  0  0  0  0  0  0  0  0
    9.9159  -14.7755   27.2857 N   0  0  0  0  0  0  0  0  0  0  0  0
    9.6662  -16.1436   26.8038 C   0  0  0  0  0  0  0  0  0  0  0  0
   10.2417  -14.8391   28.7234 O   0  0  0  0  0  0  0  0  0  0  0  0
   10.8765  -13.7315   29.3275 O   0  0  0  0  0  0  0  0  0  0  0  0
  2  3  2  0
  2  1  1  0
  4  2  1  0
  5  4  1  0
  6  7  1  0
  6  5  1  0
  7  8  1  0
  8 10  1  0
  8  9  1  6
 10 12  1  0
 11 10  2  0
 12 13  1  0
 13 19  1  0
 13 14  1  6
 15 14  1  0
 16 17  1  0
 16 15  1  0
 18 17  1  0
 19 20  2  0
 19 26  1  0
 22 21  1  0
 23 22  1  0
 24 23  1  0
 25 24  1  6
 25 27  1  0
 26 25  1  0
 27 28  1  0
 29 27  2  0
M  END
$$$$
