RKM.pdb
     RDKit          3D

 29 28  0  0  1  0  0  0  0  0999 V2000
   10.3326  -13.2544   18.6186 N   0  0  0  0  0  0  0  0  0  0  0  0
    8.9754  -12.9928   18.9445 C   0  0  0  0  0  0  0  0  0  0  0  0
    8.5837  -11.7906   19.0536 N   0  0  0  0  0  0  0  0  0  0  0  0
    8.0686  -14.0561   19.1454 N   0  0  0  0  0  0  0  0  0  0  0  0
    8.2136  -14.9364   20.2536 C   0  0  0  0  0  0  0  0  0  0  0  0
    7.2739  -14.6537   21.4099 C   0  0  0  0  0  0  0  0  0  0  0  0
    6.1599  -15.6673   21.3977 C   0  0  0  0  0  0  0  0  0  0  0  0
    6.6912  -17.0890   21.4823 C   0  0  2  0  0  0  0  0  0  0  0  0
    5.7212  -18.0470   21.0530 N   0  0  0  0  0  0  0  0  0  0  0  0
    7.0905  -17.3605   22.8751 C   0  0  0  0  0  0  0  0  0  0  0  0
    6.2795  -17.3164   23.8448 O   0  0  0  0  0  0  0  0  0  0  0  0
    7.6009  -11.4680   19.1797 N   0  0  0  0  0  0  0  0  0  0  0  0
    8.4277  -17.6858   23.1688 C   0  0  2  0  0  0  0  0  0  0  0  0
    8.9264  -17.8837   24.5137 C   0  0  0  0  0  0  0  0  0  0  0  0
   10.1124  -18.8203   24.4428 C   0  0  0  0  0  0  0  0  0  0  0  0
    9.7118  -20.2529   24.2995 C   0  0  0  0  0  0  0  0  0  0  0  0
   10.9277  -21.1223   24.2485 C   0  0  0  0  0  0  0  0  0  0  0  0
   10.6439  -22.5612   23.9644 N   0  0  0  0  0  0  0  0  0  0  0  0
   11.9481  -23.2402   23.8916 C   0  0  0  0  0  0  0  0  0  0  0  0
    9.4541  -16.5575   24.9870 O   0  0  0  0  0  0  0  0  0  0  0  0
   10.2472  -15.8839   24.2837 C   0  0  0  0  0  0  0  0  0  0  0  0
    5.7162  -11.3251   26.7835 S   0  0  0  0  0  0  0  0  0  0  0  0
    6.5957  -12.2568   25.5525 C   0  0  0  0  0  0  0  0  0  0  0  0
    8.2700  -12.7046   25.9092 C   0  0  0  0  0  0  0  0  0  0  0  0
    8.3661  -13.8602   26.8472 C   0  0  2  0  0  0  0  0  0  0  0  0
    9.5661  -14.7302   26.6690 N   0  0  0  0  0  0  0  0  0  0  0  0
    9.0610  -16.0450   26.2418 C   0  0  0  0  0  0  0  0  0  0  0  0
   10.3211  -14.9055   27.9246 O   0  0  0  0  0  0  0  0  0  0  0  0
   11.0887  -13.8258   28.4142 O   0  0  0  0  0  0  0  0  0  0  0  0
  2  3  2  0
  2  1  1  0
  4  2  1  0
  5  4  1  0
  6  7  1  0
  6  5  1  0
  7  8  1  0
  8 10  1  0
  8  9  1  1
 10 12  1  0
 11 10  2  0
 12 13  1  0
 13 19  1  0
 13 14  1  6
 15 14  1  0
 16 17  1  0
 16 15  1  0
 18 17  1  0
 19 20  2  0
 19 26  1  0
 22 21  1  0
 23 22  1  0
 24 23  1  0
 25 24  1  6
 25 27  1  0
 26 25  1  0
 27 28  1  0
 29 27  2  0
M  END
$$$$
