RKM.pdb
     RDKit          3D

 29 28  0  0  1  0  0  0  0  0999 V2000
    9.1563  -12.9121   17.2543 N   0  0  0  0  0  0  0  0  0  0  0  0
    9.3337  -12.7028   18.6476 C   0  0  0  0  0  0  0  0  0  0  0  0
   10.4785  -12.3731   19.0850 N   0  0  0  0  0  0  0  0  0  0  0  0
    8.2506  -12.8587   19.5396 N   0  0  0  0  0  0  0  0  0  0  0  0
    7.1269  -13.6570   19.1872 C   0  0  0  0  0  0  0  0  0  0  0  0
    7.3527  -15.1516   19.3093 C   0  0  0  0  0  0  0  0  0  0  0  0
    7.4949  -15.5105   20.7650 C   0  0  0  0  0  0  0  0  0  0  0  0
    7.7288  -17.0001   20.9575 C   0  0  2  0  0  0  0  0  0  0  0  0
    6.6018  -17.7748   20.5420 N   0  0  0  0  0  0  0  0  0  0  0  0
    8.0200  -17.2512   22.3806 C   0  0  0  0  0  0  0  0  0  0  0  0
    7.1330  -17.2150   23.2817 O   0  0  0  0  0  0  0  0  0  0  0  0
   10.7372  -12.2064   20.0806 N   0  0  0  0  0  0  0  0  0  0  0  0
    9.3354  -17.5467   22.7840 C   0  0  2  0  0  0  0  0  0  0  0  0
    9.7144  -17.7932   24.1596 C   0  0  0  0  0  0  0  0  0  0  0  0
   11.0735  -18.4577   24.1615 C   0  0  0  0  0  0  0  0  0  0  0  0
   11.6363  -18.6222   25.5361 C   0  0  0  0  0  0  0  0  0  0  0  0
   11.3385  -19.9945   26.0508 C   0  0  0  0  0  0  0  0  0  0  0  0
   11.7719  -20.2305   27.4608 N   0  0  0  0  0  0  0  0  0  0  0  0
   11.2089  -21.5304   27.8615 C   0  0  0  0  0  0  0  0  0  0  0  0
    9.8915  -16.4511   24.8146 O   0  0  0  0  0  0  0  0  0  0  0  0
   10.5342  -15.5313   24.2507 C   0  0  0  0  0  0  0  0  0  0  0  0
    6.0187  -11.4451   25.9738 S   0  0  0  0  0  0  0  0  0  0  0  0
    6.5978  -12.1674   27.4904 C   0  0  0  0  0  0  0  0  0  0  0  0
    8.2057  -12.9062   27.4811 C   0  0  0  0  0  0  0  0  0  0  0  0
    8.2220  -14.2330   26.8000 C   0  0  1  0  0  0  0  0  0  0  0  0
    9.5569  -14.8974   26.7262 N   0  0  0  0  0  0  0  0  0  0  0  0
    9.3313  -16.2033   26.0860 C   0  0  0  0  0  0  0  0  0  0  0  0
   10.1419  -15.1267   28.0613 O   0  0  0  0  0  0  0  0  0  0  0  0
   10.5942  -14.0156   28.8066 O   0  0  0  0  0  0  0  0  0  0  0  0
  2  3  2  0
  2  1  1  0
  4  2  1  0
  5  4  1  0
  6  7  1  0
  6  5  1  0
  7  8  1  0
  8 10  1  0
  8  9  1  1
 10 12  1  0
 11 10  2  0
 12 13  1  0
 13 19  1  0
 13 14  1  6
 15 14  1  0
 16 17  1  0
 16 15  1  0
 18 17  1  0
 19 20  2  0
 19 26  1  0
 22 21  1  0
 23 22  1  0
 24 23  1  0
 25 24  1  6
 25 27  1  0
 26 25  1  0
 27 28  1  0
 29 27  2  0
M  END
$$$$
