RKM.pdb
     RDKit          3D

 29 28  0  0  1  0  0  0  0  0999 V2000
   10.0279  -11.7289   19.1924 N   0  0  0  0  0  0  0  0  0  0  0  0
    9.2471  -12.7897   18.6615 C   0  0  0  0  0  0  0  0  0  0  0  0
    9.5709  -13.3009   17.5460 N   0  0  0  0  0  0  0  0  0  0  0  0
    8.1222  -13.2731   19.3644 N   0  0  0  0  0  0  0  0  0  0  0  0
    7.2881  -14.2779   18.7998 C   0  0  0  0  0  0  0  0  0  0  0  0
    7.7370  -15.6994   19.0788 C   0  0  0  0  0  0  0  0  0  0  0  0
    7.7238  -15.9367   20.5660 C   0  0  0  0  0  0  0  0  0  0  0  0
    8.1092  -17.3660   20.9116 C   0  0  2  0  0  0  0  0  0  0  0  0
    7.1819  -18.3125   20.3756 N   0  0  0  0  0  0  0  0  0  0  0  0
    8.1743  -17.4945   22.3787 C   0  0  0  0  0  0  0  0  0  0  0  0
    7.1802  -17.8299   23.0852 O   0  0  0  0  0  0  0  0  0  0  0  0
    9.0828  -14.0807   17.0565 N   0  0  0  0  0  0  0  0  0  0  0  0
    9.3842  -17.2387   23.0503 C   0  0  2  0  0  0  0  0  0  0  0  0
    9.6165  -17.5789   24.4384 C   0  0  0  0  0  0  0  0  0  0  0  0
   10.9190  -18.3438   24.5240 C   0  0  0  0  0  0  0  0  0  0  0  0
   11.2497  -18.7710   25.9173 C   0  0  0  0  0  0  0  0  0  0  0  0
   12.5181  -19.5634   25.9229 C   0  0  0  0  0  0  0  0  0  0  0  0
   12.9103  -20.0879   27.2655 N   0  0  0  0  0  0  0  0  0  0  0  0
   14.2070  -20.7627   27.0906 C   0  0  0  0  0  0  0  0  0  0  0  0
    9.8274  -16.2871   25.1788 O   0  0  0  0  0  0  0  0  0  0  0  0
   10.5706  -15.3861   24.7173 C   0  0  0  0  0  0  0  0  0  0  0  0
    5.7407  -11.6496   28.0745 S   0  0  0  0  0  0  0  0  0  0  0  0
    5.7084  -13.1981   27.2037 C   0  0  0  0  0  0  0  0  0  0  0  0
    7.2411  -13.8060   26.5617 C   0  0  0  0  0  0  0  0  0  0  0  0
    8.1484  -14.3139   27.6311 C   0  0  2  0  0  0  0  0  0  0  0  0
    9.4683  -14.8274   27.1590 N   0  0  0  0  0  0  0  0  0  0  0  0
    9.1857  -16.0663   26.4163 C   0  0  0  0  0  0  0  0  0  0  0  0
   10.3752  -15.1500   28.2773 O   0  0  0  0  0  0  0  0  0  0  0  0
   11.0507  -14.0965   28.9319 O   0  0  0  0  0  0  0  0  0  0  0  0
  2  3  2  0
  2  1  1  0
  4  2  1  0
  5  4  1  0
  6  7  1  0
  6  5  1  0
  7  8  1  0
  8 10  1  0
  8  9  1  1
 10 12  1  0
 11 10  2  0
 12 13  1  0
 13 19  1  0
 13 14  1  6
 15 14  1  0
 16 17  1  0
 16 15  1  0
 18 17  1  0
 19 20  2  0
 19 26  1  0
 22 21  1  0
 23 22  1  0
 24 23  1  0
 25 24  1  6
 25 27  1  0
 26 25  1  0
 27 28  1  0
 29 27  2  0
M  END
$$$$
