RKM.pdb
     RDKit          3D

 29 28  0  0  1  0  0  0  0  0999 V2000
    8.3982  -12.2736   17.1897 N   0  0  0  0  0  0  0  0  0  0  0  0
    8.0180  -13.5850   16.7993 C   0  0  0  0  0  0  0  0  0  0  0  0
    8.2609  -13.9757   15.6166 N   0  0  0  0  0  0  0  0  0  0  0  0
    7.3767  -14.4478   17.7145 N   0  0  0  0  0  0  0  0  0  0  0  0
    6.7934  -13.9386   18.9082 C   0  0  0  0  0  0  0  0  0  0  0  0
    7.6360  -14.1336   20.1540 C   0  0  0  0  0  0  0  0  0  0  0  0
    8.4861  -15.3653   19.9853 C   0  0  0  0  0  0  0  0  0  0  0  0
    9.3272  -15.6425   21.2208 C   0  0  2  0  0  0  0  0  0  0  0  0
   10.1996  -16.7589   21.0323 N   0  0  0  0  0  0  0  0  0  0  0  0
    8.4242  -15.8909   22.3592 C   0  0  0  0  0  0  0  0  0  0  0  0
    7.4082  -15.1771   22.6006 O   0  0  0  0  0  0  0  0  0  0  0  0
    7.9797  -14.8860   15.1945 N   0  0  0  0  0  0  0  0  0  0  0  0
    8.6796  -16.9634   23.2336 C   0  0  1  0  0  0  0  0  0  0  0  0
    7.8388  -17.2903   24.3662 C   0  0  0  0  0  0  0  0  0  0  0  0
    7.7085  -18.7960   24.4367 C   0  0  0  0  0  0  0  0  0  0  0  0
    6.8060  -19.3496   23.3821 C   0  0  0  0  0  0  0  0  0  0  0  0
    6.8279  -20.8445   23.4220 C   0  0  0  0  0  0  0  0  0  0  0  0
    5.9286  -21.5000   22.4255 N   0  0  0  0  0  0  0  0  0  0  0  0
    6.1274  -22.9514   22.5710 C   0  0  0  0  0  0  0  0  0  0  0  0
    8.5813  -16.8650   25.6029 O   0  0  0  0  0  0  0  0  0  0  0  0
    8.3663  -17.4132   26.7121 C   0  0  0  0  0  0  0  0  0  0  0  0
    6.3367  -11.1816   26.4506 S   0  0  0  0  0  0  0  0  0  0  0  0
    7.8468  -11.5418   27.3149 C   0  0  0  0  0  0  0  0  0  0  0  0
    8.1224  -13.2171   27.8135 C   0  0  0  0  0  0  0  0  0  0  0  0
    8.3257  -14.1332   26.6542 C   0  0  1  0  0  0  0  0  0  0  0  0
    9.6291  -14.8608   26.6353 N   0  0  0  0  0  0  0  0  0  0  0  0
    9.5413  -15.8329   25.5336 C   0  0  0  0  0  0  0  0  0  0  0  0
    9.8765  -15.5976   27.8895 O   0  0  0  0  0  0  0  0  0  0  0  0
   10.7777  -15.0550   28.8318 O   0  0  0  0  0  0  0  0  0  0  0  0
  2  3  2  0
  2  1  1  0
  4  2  1  0
  5  4  1  0
  6  7  1  0
  6  5  1  0
  7  8  1  0
  8 10  1  0
  8  9  1  6
 10 12  1  0
 11 10  2  0
 12 13  1  0
 13 19  1  0
 13 14  1  1
 15 14  1  0
 16 17  1  0
 16 15  1  0
 18 17  1  0
 19 20  2  0
 19 26  1  0
 22 21  1  0
 23 22  1  0
 24 23  1  0
 25 24  1  6
 25 27  1  0
 26 25  1  0
 27 28  1  0
 29 27  2  0
M  END
$$$$
