RKM.pdb
     RDKit          3D

 29 28  0  0  1  0  0  0  0  0999 V2000
    8.6093  -13.1891   18.6240 N   0  0  0  0  0  0  0  0  0  0  0  0
    8.6436  -12.9468   20.0229 C   0  0  0  0  0  0  0  0  0  0  0  0
    8.7241  -11.7524   20.4443 N   0  0  0  0  0  0  0  0  0  0  0  0
    8.5886  -14.0205   20.9380 N   0  0  0  0  0  0  0  0  0  0  0  0
    7.7852  -15.1639   20.6706 C   0  0  0  0  0  0  0  0  0  0  0  0
    6.3993  -15.1176   21.2848 C   0  0  0  0  0  0  0  0  0  0  0  0
    5.6759  -16.3990   20.9638 C   0  0  0  0  0  0  0  0  0  0  0  0
    6.5021  -17.6201   21.3339 C   0  0  2  0  0  0  0  0  0  0  0  0
    5.9017  -18.8309   20.8689 N   0  0  0  0  0  0  0  0  0  0  0  0
    6.6538  -17.6594   22.7998 C   0  0  0  0  0  0  0  0  0  0  0  0
    5.6909  -17.4666   23.5970 O   0  0  0  0  0  0  0  0  0  0  0  0
    8.7362  -11.4461   21.4403 N   0  0  0  0  0  0  0  0  0  0  0  0
    7.9154  -17.9210   23.3657 C   0  0  2  0  0  0  0  0  0  0  0  0
    8.1678  -17.9240   24.7915 C   0  0  0  0  0  0  0  0  0  0  0  0
    9.1427  -19.0406   25.0946 C   0  0  0  0  0  0  0  0  0  0  0  0
    9.4941  -19.1255   26.5446 C   0  0  0  0  0  0  0  0  0  0  0  0
   10.5503  -20.1631   26.7559 C   0  0  0  0  0  0  0  0  0  0  0  0
   10.9848  -20.3184   28.1767 N   0  0  0  0  0  0  0  0  0  0  0  0
   11.9100  -21.4631   28.2104 C   0  0  0  0  0  0  0  0  0  0  0  0
    8.8746  -16.6369   25.1161 O   0  0  0  0  0  0  0  0  0  0  0  0
    9.8792  -16.2629   24.4618 C   0  0  0  0  0  0  0  0  0  0  0  0
    5.9902  -11.9159   24.9953 S   0  0  0  0  0  0  0  0  0  0  0  0
    6.8244  -11.4199   26.4837 C   0  0  0  0  0  0  0  0  0  0  0  0
    8.3490  -12.2290   26.8736 C   0  0  0  0  0  0  0  0  0  0  0  0
    8.1688  -13.6812   27.1623 C   0  0  2  0  0  0  0  0  0  0  0  0
    9.1506  -14.5910   26.5014 N   0  0  0  0  0  0  0  0  0  0  0  0
    8.4135  -15.8216   26.1718 C   0  0  0  0  0  0  0  0  0  0  0  0
   10.2734  -14.9435   27.3915 O   0  0  0  0  0  0  0  0  0  0  0  0
   11.3200  -14.0120   27.5692 O   0  0  0  0  0  0  0  0  0  0  0  0
  2  3  2  0
  2  1  1  0
  4  2  1  0
  5  4  1  0
  6  7  1  0
  6  5  1  0
  7  8  1  0
  8 10  1  0
  8  9  1  1
 10 12  1  0
 11 10  2  0
 12 13  1  0
 13 19  1  0
 13 14  1  6
 15 14  1  0
 16 17  1  0
 16 15  1  0
 18 17  1  0
 19 20  2  0
 19 26  1  0
 22 21  1  0
 23 22  1  0
 24 23  1  0
 25 24  1  6
 25 27  1  0
 26 25  1  0
 27 28  1  0
 29 27  2  0
M  END
$$$$
