RKM.pdb
     RDKit          3D

 29 28  0  0  1  0  0  0  0  0999 V2000
    8.5860  -12.8557   18.9891 N   0  0  0  0  0  0  0  0  0  0  0  0
    8.6014  -13.8821   18.0078 C   0  0  0  0  0  0  0  0  0  0  0  0
    8.9095  -13.5925   16.8112 N   0  0  0  0  0  0  0  0  0  0  0  0
    8.2784  -15.2117   18.3560 N   0  0  0  0  0  0  0  0  0  0  0  0
    8.3020  -15.6343   19.7142 C   0  0  0  0  0  0  0  0  0  0  0  0
    7.4395  -14.8060   20.6469 C   0  0  0  0  0  0  0  0  0  0  0  0
    6.1370  -15.5250   20.8811 C   0  0  0  0  0  0  0  0  0  0  0  0
    6.3588  -16.9636   21.3191 C   0  0  2  0  0  0  0  0  0  0  0  0
    5.3382  -17.8343   20.8259 N   0  0  0  0  0  0  0  0  0  0  0  0
    6.3947  -17.0073   22.7922 C   0  0  0  0  0  0  0  0  0  0  0  0
    5.4291  -16.6279   23.5159 O   0  0  0  0  0  0  0  0  0  0  0  0
    9.0044  -14.2600   16.0167 N   0  0  0  0  0  0  0  0  0  0  0  0
    7.5420  -17.4879   23.4500 C   0  0  2  0  0  0  0  0  0  0  0  0
    7.6596  -17.5790   24.8903 C   0  0  0  0  0  0  0  0  0  0  0  0
    8.3789  -18.8676   25.2233 C   0  0  0  0  0  0  0  0  0  0  0  0
    8.6043  -19.0432   26.6902 C   0  0  0  0  0  0  0  0  0  0  0  0
    9.2633  -20.3597   26.9534 C   0  0  0  0  0  0  0  0  0  0  0  0
    9.6420  -20.5839   28.3810 N   0  0  0  0  0  0  0  0  0  0  0  0
   10.2993  -21.8998   28.4396 C   0  0  0  0  0  0  0  0  0  0  0  0
    8.5605  -16.4581   25.3301 O   0  0  0  0  0  0  0  0  0  0  0  0
    9.6862  -16.2821   24.8018 C   0  0  0  0  0  0  0  0  0  0  0  0
    4.9160  -11.8981   26.9375 S   0  0  0  0  0  0  0  0  0  0  0  0
    6.5140  -11.2782   26.4690 C   0  0  0  0  0  0  0  0  0  0  0  0
    7.7418  -12.4611   25.9955 C   0  0  0  0  0  0  0  0  0  0  0  0
    8.1599  -13.3368   27.1282 C   0  0  2  0  0  0  0  0  0  0  0  0
    9.0439  -14.4816   26.7587 N   0  0  0  0  0  0  0  0  0  0  0  0
    8.1492  -15.5779   26.3538 C   0  0  0  0  0  0  0  0  0  0  0  0
    9.8644  -14.9439   27.8945 O   0  0  0  0  0  0  0  0  0  0  0  0
    9.3046  -15.8623   28.8099 O   0  0  0  0  0  0  0  0  0  0  0  0
  2  3  2  0
  2  1  1  0
  4  2  1  0
  5  4  1  0
  6  7  1  0
  6  5  1  0
  7  8  1  0
  8 10  1  0
  8  9  1  1
 10 12  1  0
 11 10  2  0
 12 13  1  0
 13 19  1  0
 13 14  1  6
 15 14  1  0
 16 17  1  0
 16 15  1  0
 18 17  1  0
 19 20  2  0
 19 26  1  0
 22 21  1  0
 23 22  1  0
 24 23  1  0
 25 24  1  6
 25 27  1  0
 26 25  1  0
 27 28  1  0
 29 27  2  0
M  END
$$$$
