GAY.pdb
     RDKit          3D

 22 22  0  0  1  0  0  0  0  0999 V2000
    7.9145  -12.0546   18.4388 N   0  0  0  0  0  0  0  0  0  0  0  0
    8.5554  -13.3439   18.4219 C   0  0  0  0  0  0  0  0  0  0  0  0
    8.2458  -14.0936   19.6515 C   0  0  0  0  0  0  0  0  0  0  0  0
    7.7772  -13.4886   20.6499 O   0  0  0  0  0  0  0  0  0  0  0  0
    8.2163  -17.7439   20.6429 C   0  0  0  0  0  0  0  0  0  0  0  0
    8.1038  -16.2412   20.8691 C   0  0  2  0  0  0  0  0  0  0  0  0
    8.4736  -15.4898   19.7126 N   0  0  0  0  0  0  0  0  0  0  0  0
    9.0234  -15.9356   22.0314 C   0  0  0  0  0  0  0  0  0  0  0  0
   10.2272  -15.6790   21.8015 O   0  0  0  0  0  0  0  0  0  0  0  0
   10.9558  -14.6354   30.7314 O   0  0  0  0  0  0  0  0  0  0  0  0
   10.3404  -14.7528   29.4845 C   0  0  0  0  0  0  0  0  0  0  0  0
   10.0370  -13.6516   28.7066 C   0  0  0  0  0  0  0  0  0  0  0  0
    9.4203  -13.8025   27.4620 C   0  0  0  0  0  0  0  0  0  0  0  0
    9.1011  -15.0543   26.9828 C   0  0  0  0  0  0  0  0  0  0  0  0
    8.4535  -15.1838   25.6717 C   0  0  0  0  0  0  0  0  0  0  0  0
    9.3085  -15.6320   24.5460 C   0  0  2  0  0  0  0  0  0  0  0  0
    8.5504  -15.9356   23.3545 N   0  0  0  0  0  0  0  0  0  0  0  0
   10.3385  -16.6453   24.8772 C   0  0  0  0  0  0  0  0  0  0  0  0
   10.0034  -18.0138   24.8334 O   0  0  0  0  0  0  0  0  0  0  0  0
    9.4181  -16.1288   27.7849 C   0  0  0  0  0  0  0  0  0  0  0  0
   10.0240  -16.0097   29.0119 C   0  0  0  0  0  0  0  0  0  0  0  0
   11.5105  -16.3528   25.2013 O   0  0  0  0  0  0  0  0  0  0  0  0
  2  1  1  0
  3  4  2  0
  3  2  1  0
  6  5  1  6
  6  8  1  0
  6  7  1  0
  7  3  1  0
  8  9  2  0
 10 11  1  0
 11 21  2  0
 12 11  1  0
 12 13  2  0
 13 14  1  0
 14 20  2  0
 14 15  1  0
 16 15  1  1
 17 16  1  0
 17  8  1  0
 18 16  1  0
 19 18  1  0
 21 20  1  0
 22 18  2  0
M  END
$$$$
