GAY.pdb
     RDKit          3D

 22 22  0  0  1  0  0  0  0  0999 V2000
    8.1791  -12.3159   17.9228 N   0  0  0  0  0  0  0  0  0  0  0  0
    8.4376  -13.7113   18.1664 C   0  0  0  0  0  0  0  0  0  0  0  0
    7.9707  -14.0991   19.5086 C   0  0  0  0  0  0  0  0  0  0  0  0
    8.0408  -13.2746   20.4560 O   0  0  0  0  0  0  0  0  0  0  0  0
    6.4472  -17.2039   21.0547 C   0  0  0  0  0  0  0  0  0  0  0  0
    7.0572  -15.8076   21.0453 C   0  0  2  0  0  0  0  0  0  0  0  0
    7.4445  -15.3941   19.7346 N   0  0  0  0  0  0  0  0  0  0  0  0
    8.2552  -15.8817   21.9668 C   0  0  0  0  0  0  0  0  0  0  0  0
    9.3850  -16.1075   21.4764 O   0  0  0  0  0  0  0  0  0  0  0  0
    5.0088  -11.4587   26.8714 O   0  0  0  0  0  0  0  0  0  0  0  0
    6.1070  -12.1663   26.3812 C   0  0  0  0  0  0  0  0  0  0  0  0
    6.9958  -11.6136   25.4788 C   0  0  0  0  0  0  0  0  0  0  0  0
    8.0862  -12.3486   25.0066 C   0  0  0  0  0  0  0  0  0  0  0  0
    8.2990  -13.6421   25.4311 C   0  0  0  0  0  0  0  0  0  0  0  0
    9.4528  -14.3913   24.9187 C   0  0  0  0  0  0  0  0  0  0  0  0
    9.1768  -15.7276   24.3383 C   0  0  2  0  0  0  0  0  0  0  0  0
    8.1199  -15.7023   23.3538 N   0  0  0  0  0  0  0  0  0  0  0  0
    9.0699  -16.8456   25.3058 C   0  0  0  0  0  0  0  0  0  0  0  0
   10.1973  -17.2122   26.0683 O   0  0  0  0  0  0  0  0  0  0  0  0
    7.3931  -14.1603   26.3306 C   0  0  0  0  0  0  0  0  0  0  0  0
    6.3129  -13.4609   26.8113 C   0  0  0  0  0  0  0  0  0  0  0  0
    8.0183  -17.4975   25.4886 O   0  0  0  0  0  0  0  0  0  0  0  0
  2  1  1  0
  3  4  2  0
  3  2  1  0
  6  5  1  6
  6  8  1  0
  6  7  1  0
  7  3  1  0
  8  9  2  0
 10 11  1  0
 11 21  2  0
 12 11  1  0
 12 13  2  0
 13 14  1  0
 14 20  2  0
 14 15  1  0
 16 15  1  1
 17 16  1  0
 17  8  1  0
 18 16  1  0
 19 18  1  0
 21 20  1  0
 22 18  2  0
M  END
$$$$
