GAY.pdb
     RDKit          3D

 22 22  0  0  1  0  0  0  0  0999 V2000
    7.8123  -11.8523   19.2565 N   0  0  0  0  0  0  0  0  0  0  0  0
    8.5144  -13.1037   19.1367 C   0  0  0  0  0  0  0  0  0  0  0  0
    8.1936  -13.9894   20.2690 C   0  0  0  0  0  0  0  0  0  0  0  0
    7.5836  -13.5289   21.2681 O   0  0  0  0  0  0  0  0  0  0  0  0
    8.3707  -17.7033   20.9111 C   0  0  0  0  0  0  0  0  0  0  0  0
    8.2058  -16.2385   21.2969 C   0  0  2  0  0  0  0  0  0  0  0  0
    8.5689  -15.3544   20.2361 N   0  0  0  0  0  0  0  0  0  0  0  0
    9.0968  -16.0335   22.5028 C   0  0  0  0  0  0  0  0  0  0  0  0
   10.2719  -15.6376   22.3288 O   0  0  0  0  0  0  0  0  0  0  0  0
    5.5936  -10.8922   26.0045 O   0  0  0  0  0  0  0  0  0  0  0  0
    6.2848  -12.1035   26.0508 C   0  0  0  0  0  0  0  0  0  0  0  0
    5.6368  -13.3161   26.1912 C   0  0  0  0  0  0  0  0  0  0  0  0
    6.3579  -14.5121   26.2342 C   0  0  0  0  0  0  0  0  0  0  0  0
    7.7324  -14.5082   26.1374 C   0  0  0  0  0  0  0  0  0  0  0  0
    8.4648  -15.7796   26.1855 C   0  0  0  0  0  0  0  0  0  0  0  0
    9.3544  -16.0815   25.0382 C   0  0  2  0  0  0  0  0  0  0  0  0
    8.6288  -16.2788   23.8047 N   0  0  0  0  0  0  0  0  0  0  0  0
   10.4085  -17.0944   25.2836 C   0  0  0  0  0  0  0  0  0  0  0  0
   10.3676  -18.3196   24.5877 O   0  0  0  0  0  0  0  0  0  0  0  0
    8.3444  -13.2816   25.9985 C   0  0  0  0  0  0  0  0  0  0  0  0
    7.6609  -12.0910   25.9532 C   0  0  0  0  0  0  0  0  0  0  0  0
   11.3502  -16.9244   26.0888 O   0  0  0  0  0  0  0  0  0  0  0  0
  2  1  1  0
  3  4  2  0
  3  2  1  0
  6  5  1  6
  6  8  1  0
  6  7  1  0
  7  3  1  0
  8  9  2  0
 10 11  1  0
 11 21  2  0
 12 11  1  0
 12 13  2  0
 13 14  1  0
 14 20  2  0
 14 15  1  0
 16 15  1  1
 17 16  1  0
 17  8  1  0
 18 16  1  0
 19 18  1  0
 21 20  1  0
 22 18  2  0
M  END
$$$$
