GAY.pdb
     RDKit          3D

 22 22  0  0  1  0  0  0  0  0999 V2000
    6.4827  -18.5391   19.2787 N   0  0  0  0  0  0  0  0  0  0  0  0
    6.1540  -17.3744   20.0590 C   0  0  0  0  0  0  0  0  0  0  0  0
    7.2865  -16.4329   20.0886 C   0  0  0  0  0  0  0  0  0  0  0  0
    8.4409  -16.8360   19.7934 O   0  0  0  0  0  0  0  0  0  0  0  0
    7.7417  -12.7242   20.6207 C   0  0  0  0  0  0  0  0  0  0  0  0
    8.1824  -14.1824   20.5859 C   0  0  2  0  0  0  0  0  0  0  0  0
    7.0797  -15.0788   20.4474 N   0  0  0  0  0  0  0  0  0  0  0  0
    8.9117  -14.4173   21.8910 C   0  0  0  0  0  0  0  0  0  0  0  0
    9.9798  -13.8011   22.1087 O   0  0  0  0  0  0  0  0  0  0  0  0
    5.9530  -10.6391   26.9722 O   0  0  0  0  0  0  0  0  0  0  0  0
    6.4388  -11.8744   26.5418 C   0  0  0  0  0  0  0  0  0  0  0  0
    5.5997  -12.8948   26.1362 C   0  0  0  0  0  0  0  0  0  0  0  0
    6.1176  -14.1207   25.7106 C   0  0  0  0  0  0  0  0  0  0  0  0
    7.4779  -14.3388   25.6861 C   0  0  0  0  0  0  0  0  0  0  0  0
    7.9947  -15.6365   25.2343 C   0  0  0  0  0  0  0  0  0  0  0  0
    8.9959  -15.6124   24.1407 C   0  0  2  0  0  0  0  0  0  0  0  0
    8.4121  -15.3095   22.8546 N   0  0  0  0  0  0  0  0  0  0  0  0
    9.9548  -16.7426   24.1141 C   0  0  0  0  0  0  0  0  0  0  0  0
   10.7021  -17.0445   25.2705 O   0  0  0  0  0  0  0  0  0  0  0  0
    8.2838  -13.2996   26.0972 C   0  0  0  0  0  0  0  0  0  0  0  0
    7.8021  -12.0847   26.5203 C   0  0  0  0  0  0  0  0  0  0  0  0
   10.1455  -17.4578   23.1060 O   0  0  0  0  0  0  0  0  0  0  0  0
  2  1  1  0
  3  4  2  0
  3  2  1  0
  6  5  1  1
  6  8  1  0
  6  7  1  0
  7  3  1  0
  8  9  2  0
 10 11  1  0
 11 21  2  0
 12 11  1  0
 12 13  2  0
 13 14  1  0
 14 20  2  0
 14 15  1  0
 16 15  1  1
 17 16  1  0
 17  8  1  0
 18 16  1  0
 19 18  1  0
 21 20  1  0
 22 18  2  0
M  END
$$$$
