GAY.pdb
     RDKit          3D

 22 22  0  0  1  0  0  0  0  0999 V2000
    5.7980  -18.7724   20.2339 N   0  0  0  0  0  0  0  0  0  0  0  0
    5.6846  -17.5813   21.0349 C   0  0  0  0  0  0  0  0  0  0  0  0
    6.8063  -16.6655   20.7650 C   0  0  0  0  0  0  0  0  0  0  0  0
    7.8746  -17.1146   20.2756 O   0  0  0  0  0  0  0  0  0  0  0  0
    7.3992  -12.9435   20.9028 C   0  0  0  0  0  0  0  0  0  0  0  0
    7.8085  -14.4110   20.9315 C   0  0  2  0  0  0  0  0  0  0  0  0
    6.6858  -15.2846   21.0541 N   0  0  0  0  0  0  0  0  0  0  0  0
    8.7365  -14.5505   22.1187 C   0  0  0  0  0  0  0  0  0  0  0  0
    9.8447  -13.9681   22.0943 O   0  0  0  0  0  0  0  0  0  0  0  0
    6.0626  -10.6872   27.1767 O   0  0  0  0  0  0  0  0  0  0  0  0
    6.6623  -11.8912   26.8053 C   0  0  0  0  0  0  0  0  0  0  0  0
    8.0347  -12.0420   26.7438 C   0  0  0  0  0  0  0  0  0  0  0  0
    8.6046  -13.2611   26.3681 C   0  0  0  0  0  0  0  0  0  0  0  0
    7.8094  -14.3406   26.0504 C   0  0  0  0  0  0  0  0  0  0  0  0
    8.4348  -15.6098   25.6590 C   0  0  0  0  0  0  0  0  0  0  0  0
    9.1996  -15.6134   24.3886 C   0  0  2  0  0  0  0  0  0  0  0  0
    8.3760  -15.3177   23.2392 N   0  0  0  0  0  0  0  0  0  0  0  0
   10.1207  -16.7576   24.1892 C   0  0  0  0  0  0  0  0  0  0  0  0
   11.0943  -17.0420   25.1681 O   0  0  0  0  0  0  0  0  0  0  0  0
    6.4462  -14.1539   26.1227 C   0  0  0  0  0  0  0  0  0  0  0  0
    5.8591  -12.9672   26.4887 C   0  0  0  0  0  0  0  0  0  0  0  0
   10.0862  -17.4999   23.1833 O   0  0  0  0  0  0  0  0  0  0  0  0
  2  1  1  0
  3  4  2  0
  3  2  1  0
  6  5  1  1
  6  8  1  0
  6  7  1  0
  7  3  1  0
  8  9  2  0
 10 11  1  0
 11 21  2  0
 12 11  1  0
 12 13  2  0
 13 14  1  0
 14 20  2  0
 14 15  1  0
 16 15  1  1
 17 16  1  0
 17  8  1  0
 18 16  1  0
 19 18  1  0
 21 20  1  0
 22 18  2  0
M  END
$$$$
