GAY.pdb
     RDKit          3D

 22 22  0  0  1  0  0  0  0  0999 V2000
    5.1521  -19.3291   22.0905 N   0  0  0  0  0  0  0  0  0  0  0  0
    5.1110  -17.9024   22.2802 C   0  0  0  0  0  0  0  0  0  0  0  0
    6.3547  -17.2785   21.7969 C   0  0  0  0  0  0  0  0  0  0  0  0
    7.3580  -17.9961   21.5506 O   0  0  0  0  0  0  0  0  0  0  0  0
    7.4340  -13.7876   20.8167 C   0  0  0  0  0  0  0  0  0  0  0  0
    7.6329  -15.2561   21.1712 C   0  0  2  0  0  0  0  0  0  0  0  0
    6.4239  -15.8766   21.6093 N   0  0  0  0  0  0  0  0  0  0  0  0
    8.6779  -15.2716   22.2656 C   0  0  0  0  0  0  0  0  0  0  0  0
    9.8683  -15.0178   21.9716 O   0  0  0  0  0  0  0  0  0  0  0  0
    5.3255  -11.3432   27.4699 O   0  0  0  0  0  0  0  0  0  0  0  0
    6.3855  -12.0934   26.9595 C   0  0  0  0  0  0  0  0  0  0  0  0
    7.6597  -12.0235   27.4902 C   0  0  0  0  0  0  0  0  0  0  0  0
    8.7002  -12.7879   26.9562 C   0  0  0  0  0  0  0  0  0  0  0  0
    8.4780  -13.6290   25.8877 C   0  0  0  0  0  0  0  0  0  0  0  0
    9.5895  -14.4207   25.3466 C   0  0  0  0  0  0  0  0  0  0  0  0
    9.2408  -15.7146   24.7118 C   0  0  2  0  0  0  0  0  0  0  0  0
    8.3352  -15.5642   23.5964 N   0  0  0  0  0  0  0  0  0  0  0  0
    8.8767  -16.8139   25.6372 C   0  0  0  0  0  0  0  0  0  0  0  0
    9.7982  -17.2247   26.6216 O   0  0  0  0  0  0  0  0  0  0  0  0
    7.1961  -13.6731   25.3847 C   0  0  0  0  0  0  0  0  0  0  0  0
    6.1547  -12.9331   25.8896 C   0  0  0  0  0  0  0  0  0  0  0  0
    7.7793  -17.4122   25.5949 O   0  0  0  0  0  0  0  0  0  0  0  0
  2  1  1  0
  3  4  2  0
  3  2  1  0
  6  5  1  1
  6  8  1  0
  6  7  1  0
  7  3  1  0
  8  9  2  0
 10 11  1  0
 11 21  2  0
 12 11  1  0
 12 13  2  0
 13 14  1  0
 14 20  2  0
 14 15  1  0
 16 15  1  1
 17 16  1  0
 17  8  1  0
 18 16  1  0
 19 18  1  0
 21 20  1  0
 22 18  2  0
M  END
$$$$
