GAY.pdb
     RDKit          3D

 22 22  0  0  1  0  0  0  0  0999 V2000
    6.0948  -19.4046   20.8693 N   0  0  0  0  0  0  0  0  0  0  0  0
    5.7484  -18.0981   21.3658 C   0  0  0  0  0  0  0  0  0  0  0  0
    6.8773  -17.1656   21.2051 C   0  0  0  0  0  0  0  0  0  0  0  0
    8.0053  -17.6046   20.8627 O   0  0  0  0  0  0  0  0  0  0  0  0
    7.3176  -13.4177   21.2191 C   0  0  0  0  0  0  0  0  0  0  0  0
    7.7843  -14.8666   21.2877 C   0  0  2  0  0  0  0  0  0  0  0  0
    6.6968  -15.7801   21.4345 N   0  0  0  0  0  0  0  0  0  0  0  0
    8.7162  -14.9370   22.4780 C   0  0  0  0  0  0  0  0  0  0  0  0
    9.8052  -14.3207   22.4334 O   0  0  0  0  0  0  0  0  0  0  0  0
    6.1562  -10.5564   27.0805 O   0  0  0  0  0  0  0  0  0  0  0  0
    6.6859  -11.8229   26.8305 C   0  0  0  0  0  0  0  0  0  0  0  0
    5.8908  -12.9500   26.7461 C   0  0  0  0  0  0  0  0  0  0  0  0
    6.4519  -14.2046   26.4946 C   0  0  0  0  0  0  0  0  0  0  0  0
    7.8122  -14.3451   26.3250 C   0  0  0  0  0  0  0  0  0  0  0  0
    8.3750  -15.6751   26.0618 C   0  0  0  0  0  0  0  0  0  0  0  0
    9.1733  -15.8289   24.8216 C   0  0  2  0  0  0  0  0  0  0  0  0
    8.3803  -15.6778   23.6237 N   0  0  0  0  0  0  0  0  0  0  0  0
   10.1008  -16.9847   24.7863 C   0  0  0  0  0  0  0  0  0  0  0  0
   11.0267  -17.1624   25.8343 O   0  0  0  0  0  0  0  0  0  0  0  0
    8.5736  -13.2004   26.4157 C   0  0  0  0  0  0  0  0  0  0  0  0
    8.0488  -11.9550   26.6619 C   0  0  0  0  0  0  0  0  0  0  0  0
   10.1125  -17.8279   23.8627 O   0  0  0  0  0  0  0  0  0  0  0  0
  2  1  1  0
  3  4  2  0
  3  2  1  0
  6  5  1  1
  6  8  1  0
  6  7  1  0
  7  3  1  0
  8  9  2  0
 10 11  1  0
 11 21  2  0
 12 11  1  0
 12 13  2  0
 13 14  1  0
 14 20  2  0
 14 15  1  0
 16 15  1  1
 17 16  1  0
 17  8  1  0
 18 16  1  0
 19 18  1  0
 21 20  1  0
 22 18  2  0
M  END
$$$$
