GAY.pdb
     RDKit          3D

 22 22  0  0  1  0  0  0  0  0999 V2000
    6.7538  -19.7391   20.5590 N   0  0  0  0  0  0  0  0  0  0  0  0
    6.2590  -18.5115   21.1260 C   0  0  0  0  0  0  0  0  0  0  0  0
    7.1846  -17.4004   20.8462 C   0  0  0  0  0  0  0  0  0  0  0  0
    8.2982  -17.6357   20.3106 O   0  0  0  0  0  0  0  0  0  0  0  0
    7.0260  -13.6418   20.9147 C   0  0  0  0  0  0  0  0  0  0  0  0
    7.7322  -14.9914   20.9550 C   0  0  2  0  0  0  0  0  0  0  0  0
    6.8252  -16.0714   21.1775 N   0  0  0  0  0  0  0  0  0  0  0  0
    8.7398  -14.8889   22.0794 C   0  0  0  0  0  0  0  0  0  0  0  0
    9.6941  -14.0860   21.9678 O   0  0  0  0  0  0  0  0  0  0  0  0
    5.6044  -11.0432   26.6500 O   0  0  0  0  0  0  0  0  0  0  0  0
    6.4012  -12.1648   26.4174 C   0  0  0  0  0  0  0  0  0  0  0  0
    7.7074  -12.2450   26.8617 C   0  0  0  0  0  0  0  0  0  0  0  0
    8.4795  -13.3825   26.6125 C   0  0  0  0  0  0  0  0  0  0  0  0
    7.9545  -14.4502   25.9175 C   0  0  0  0  0  0  0  0  0  0  0  0
    8.7882  -15.6328   25.6699 C   0  0  0  0  0  0  0  0  0  0  0  0
    9.5110  -15.6812   24.3760 C   0  0  2  0  0  0  0  0  0  0  0  0
    8.6214  -15.6752   23.2379 N   0  0  0  0  0  0  0  0  0  0  0  0
   10.6028  -16.6793   24.2798 C   0  0  0  0  0  0  0  0  0  0  0  0
   10.5662  -17.6498   23.2582 O   0  0  0  0  0  0  0  0  0  0  0  0
    6.6497  -14.3353   25.4900 C   0  0  0  0  0  0  0  0  0  0  0  0
    5.8680  -13.2296   25.7208 C   0  0  0  0  0  0  0  0  0  0  0  0
   11.5733  -16.7137   25.0678 O   0  0  0  0  0  0  0  0  0  0  0  0
  2  1  1  0
  3  4  2  0
  3  2  1  0
  6  5  1  1
  6  8  1  0
  6  7  1  0
  7  3  1  0
  8  9  2  0
 10 11  1  0
 11 21  2  0
 12 11  1  0
 12 13  2  0
 13 14  1  0
 14 20  2  0
 14 15  1  0
 16 15  1  1
 17 16  1  0
 17  8  1  0
 18 16  1  0
 19 18  1  0
 21 20  1  0
 22 18  2  0
M  END
$$$$
