GAY.pdb
     RDKit          3D

 22 22  0  0  1  0  0  0  0  0999 V2000
    8.0951  -12.2923   18.3035 N   0  0  0  0  0  0  0  0  0  0  0  0
    8.3114  -13.7156   18.3349 C   0  0  0  0  0  0  0  0  0  0  0  0
    8.0562  -14.2497   19.6837 C   0  0  0  0  0  0  0  0  0  0  0  0
    8.2136  -13.5092   20.6882 O   0  0  0  0  0  0  0  0  0  0  0  0
    6.8913  -17.5627   21.1059 C   0  0  0  0  0  0  0  0  0  0  0  0
    7.2890  -16.0923   21.1436 C   0  0  2  0  0  0  0  0  0  0  0  0
    7.6353  -15.5912   19.8522 N   0  0  0  0  0  0  0  0  0  0  0  0
    8.4677  -16.0147   22.0895 C   0  0  0  0  0  0  0  0  0  0  0  0
    9.6229  -16.1752   21.6339 O   0  0  0  0  0  0  0  0  0  0  0  0
    5.2092  -11.4229   27.1967 O   0  0  0  0  0  0  0  0  0  0  0  0
    6.2719  -12.0993   26.5965 C   0  0  0  0  0  0  0  0  0  0  0  0
    6.4289  -12.1541   25.2245 C   0  0  0  0  0  0  0  0  0  0  0  0
    7.5043  -12.8398   24.6541 C   0  0  0  0  0  0  0  0  0  0  0  0
    8.4327  -13.4770   25.4483 C   0  0  0  0  0  0  0  0  0  0  0  0
    9.5528  -14.1901   24.8223 C   0  0  0  0  0  0  0  0  0  0  0  0
    9.3208  -15.6084   24.4568 C   0  0  2  0  0  0  0  0  0  0  0  0
    8.2867  -15.7671   23.4607 N   0  0  0  0  0  0  0  0  0  0  0  0
    9.2169  -16.5611   25.5876 C   0  0  0  0  0  0  0  0  0  0  0  0
   10.3069  -16.7123   26.4685 O   0  0  0  0  0  0  0  0  0  0  0  0
    8.2445  -13.4014   26.8111 C   0  0  0  0  0  0  0  0  0  0  0  0
    7.1971  -12.7347   27.3987 C   0  0  0  0  0  0  0  0  0  0  0  0
    8.2001  -17.2542   25.8106 O   0  0  0  0  0  0  0  0  0  0  0  0
  2  1  1  0
  3  4  2  0
  3  2  1  0
  6  5  1  6
  6  8  1  0
  6  7  1  0
  7  3  1  0
  8  9  2  0
 10 11  1  0
 11 21  2  0
 12 11  1  0
 12 13  2  0
 13 14  1  0
 14 20  2  0
 14 15  1  0
 16 15  1  1
 17 16  1  0
 17  8  1  0
 18 16  1  0
 19 18  1  0
 21 20  1  0
 22 18  2  0
M  END
$$$$
