FTQ.pdb
     RDKit          3D

 28 28  0  0  1  0  0  0  0  0999 V2000
    7.3952  -15.7586   25.7479 N   0  0  0  0  0  0  0  0  0  0  0  0
    7.1827  -15.3874   24.3565 C   0  0  1  0  0  0  0  0  0  0  0  0
    7.5597  -13.9152   24.2224 C   0  0  0  0  0  0  0  0  0  0  0  0
    7.1839  -13.1074   25.3841 C   0  0  0  0  0  0  0  0  0  0  0  0
    5.9046  -12.6124   25.4848 C   0  0  0  0  0  0  0  0  0  0  0  0
    5.4829  -11.8500   26.5432 C   0  0  0  0  0  0  0  0  0  0  0  0
    6.3674  -11.5564   27.5614 C   0  0  0  0  0  0  0  0  0  0  0  0
    7.6447  -12.0567   27.4502 C   0  0  0  0  0  0  0  0  0  0  0  0
    8.0776  -12.8243   26.3890 C   0  0  0  0  0  0  0  0  0  0  0  0
    8.0071  -16.1829   23.4378 C   0  0  0  0  0  0  0  0  0  0  0  0
    7.8714  -16.1553   22.1783 O   0  0  0  0  0  0  0  0  0  0  0  0
    9.3132  -16.2625   21.1860 C   0  0  0  0  0  0  0  0  0  0  0  0
   10.4148  -16.9328   21.9646 C   0  0  1  0  0  0  0  0  0  0  0  0
   11.1772  -15.8753   22.4989 O   0  0  0  0  0  0  0  0  0  0  0  0
    9.9039  -17.8217   23.0800 C   0  0  2  0  0  0  0  0  0  0  0  0
    9.0096  -17.0317   23.9513 N   0  0  0  0  0  0  0  0  0  0  0  0
   10.9354  -18.4831   23.8762 C   0  0  0  0  0  0  0  0  0  0  0  0
   11.3678  -17.8728   24.9253 O   0  0  0  0  0  0  0  0  0  0  0  0
   13.9862  -24.1214   24.2046 N   0  0  0  0  0  0  0  0  0  0  0  0
   12.6713  -23.9310   23.7577 C   0  0  0  0  0  0  0  0  0  0  0  0
   11.9491  -24.9169   23.4975 O   0  0  0  0  0  0  0  0  0  0  0  0
   12.1170  -22.5495   23.5870 C   0  0  0  0  0  0  0  0  0  0  0  0
   13.1760  -21.5350   23.9437 C   0  0  0  0  0  0  0  0  0  0  0  0
   12.6245  -20.2528   24.4908 C   0  0  2  0  0  0  0  0  0  0  0  0
   11.5378  -19.7386   23.6448 N   0  0  0  0  0  0  0  0  0  0  0  0
   13.6326  -19.2039   24.7387 C   0  0  0  0  0  0  0  0  0  0  0  0
   14.2501  -18.9615   25.9523 O   0  0  0  0  0  0  0  0  0  0  0  0
   13.9671  -18.4624   23.7811 O   0  0  0  0  0  0  0  0  0  0  0  0
  2  1  1  1
  2 10  1  0
  3  2  1  0
  4  3  1  0
  4  9  2  0
  5  4  1  0
  6  5  2  0
  6  7  1  0
  7  8  2  0
  8  9  1  0
 10 11  2  0
 13 12  1  1
 13 15  1  0
 14 13  1  0
 15 16  1  1
 16 10  1  0
 17 18  2  0
 17 15  1  0
 19 20  1  0
 20 22  1  0
 20 21  2  0
 22 23  1  0
 24 23  1  6
 24 25  1  0
 24 26  1  0
 25 17  1  0
 26 27  1  0
 28 26  2  0
M  END
$$$$
