FTQ.pdb
     RDKit          3D

 28 28  0  0  1  0  0  0  0  0999 V2000
    5.4912  -16.6628   24.2450 N   0  0  0  0  0  0  0  0  0  0  0  0
    6.8451  -16.1289   24.2712 C   0  0  1  0  0  0  0  0  0  0  0  0
    7.1487  -15.7464   25.7165 C   0  0  0  0  0  0  0  0  0  0  0  0
    7.0564  -14.3079   25.9721 C   0  0  0  0  0  0  0  0  0  0  0  0
    5.9146  -13.7877   26.5355 C   0  0  0  0  0  0  0  0  0  0  0  0
    5.7587  -12.4523   26.8031 C   0  0  0  0  0  0  0  0  0  0  0  0
    6.7821  -11.5769   26.5007 C   0  0  0  0  0  0  0  0  0  0  0  0
    7.9198  -12.1082   25.9374 C   0  0  0  0  0  0  0  0  0  0  0  0
    8.0853  -13.4502   25.6644 C   0  0  0  0  0  0  0  0  0  0  0  0
    7.8372  -17.1096   23.8124 C   0  0  0  0  0  0  0  0  0  0  0  0
    7.6112  -17.9517   22.8931 O   0  0  0  0  0  0  0  0  0  0  0  0
    9.1172  -17.6610   21.6187 C   0  0  0  0  0  0  0  0  0  0  0  0
   10.4052  -17.6429   22.3998 C   0  0  1  0  0  0  0  0  0  0  0  0
   10.9011  -16.3324   22.2520 O   0  0  0  0  0  0  0  0  0  0  0  0
   10.2192  -17.9668   23.8681 C   0  0  2  0  0  0  0  0  0  0  0  0
    9.1167  -17.1427   24.4050 N   0  0  0  0  0  0  0  0  0  0  0  0
   11.4133  -17.8214   24.6977 C   0  0  0  0  0  0  0  0  0  0  0  0
   11.7557  -16.6314   25.0541 O   0  0  0  0  0  0  0  0  0  0  0  0
   12.0007  -19.7755   29.8430 N   0  0  0  0  0  0  0  0  0  0  0  0
   10.8981  -19.8339   28.9793 C   0  0  0  0  0  0  0  0  0  0  0  0
    9.8881  -20.4974   29.2969 O   0  0  0  0  0  0  0  0  0  0  0  0
   10.9160  -19.1050   27.6704 C   0  0  0  0  0  0  0  0  0  0  0  0
   12.1844  -18.2940   27.5636 C   0  0  0  0  0  0  0  0  0  0  0  0
   13.0553  -18.6839   26.4073 C   0  0  2  0  0  0  0  0  0  0  0  0
   12.2659  -18.8392   25.1769 N   0  0  0  0  0  0  0  0  0  0  0  0
   13.8946  -19.8750   26.6416 C   0  0  0  0  0  0  0  0  0  0  0  0
   14.9047  -19.9669   27.5818 O   0  0  0  0  0  0  0  0  0  0  0  0
   13.6884  -20.8955   25.9381 O   0  0  0  0  0  0  0  0  0  0  0  0
  2  1  1  1
  2 10  1  0
  3  2  1  0
  4  3  1  0
  4  9  2  0
  5  4  1  0
  6  5  2  0
  6  7  1  0
  7  8  2  0
  8  9  1  0
 10 11  2  0
 13 12  1  6
 13 15  1  0
 14 13  1  0
 15 16  1  1
 16 10  1  0
 17 18  2  0
 17 15  1  0
 19 20  1  0
 20 22  1  0
 20 21  2  0
 22 23  1  0
 24 23  1  1
 24 25  1  0
 24 26  1  0
 25 17  1  0
 26 27  1  0
 28 26  2  0
M  END
$$$$
