FTQ.pdb
     RDKit          3D

 28 28  0  0  1  0  0  0  0  0999 V2000
    5.7382  -16.5638   24.9972 N   0  0  0  0  0  0  0  0  0  0  0  0
    7.0540  -16.0179   24.6983 C   0  0  1  0  0  0  0  0  0  0  0  0
    7.4901  -15.2068   25.9146 C   0  0  0  0  0  0  0  0  0  0  0  0
    7.0504  -13.8109   25.8745 C   0  0  0  0  0  0  0  0  0  0  0  0
    7.6046  -12.9480   24.9580 C   0  0  0  0  0  0  0  0  0  0  0  0
    7.2414  -11.6295   24.8632 C   0  0  0  0  0  0  0  0  0  0  0  0
    6.2790  -11.1289   25.7167 C   0  0  0  0  0  0  0  0  0  0  0  0
    5.7314  -12.0012   26.6296 C   0  0  0  0  0  0  0  0  0  0  0  0
    6.0908  -13.3290   26.7323 C   0  0  0  0  0  0  0  0  0  0  0  0
    8.0452  -17.0697   24.4384 C   0  0  0  0  0  0  0  0  0  0  0  0
    8.0258  -18.2015   25.0076 O   0  0  0  0  0  0  0  0  0  0  0  0
    9.4763  -17.4472   20.7881 C   0  0  0  0  0  0  0  0  0  0  0  0
   10.5937  -17.6443   21.7790 C   0  0  1  0  0  0  0  0  0  0  0  0
   11.3568  -16.4621   21.7055 O   0  0  0  0  0  0  0  0  0  0  0  0
   10.1051  -17.8613   23.1966 C   0  0  2  0  0  0  0  0  0  0  0  0
    9.0855  -16.8402   23.5140 N   0  0  0  0  0  0  0  0  0  0  0  0
   11.1457  -17.8768   24.2223 C   0  0  0  0  0  0  0  0  0  0  0  0
   11.5458  -16.7445   24.6891 O   0  0  0  0  0  0  0  0  0  0  0  0
   11.5278  -19.3472   29.7453 N   0  0  0  0  0  0  0  0  0  0  0  0
   10.7189  -19.9128   28.7499 C   0  0  0  0  0  0  0  0  0  0  0  0
    9.6763  -20.5259   29.0634 O   0  0  0  0  0  0  0  0  0  0  0  0
   11.0920  -19.7903   27.3040 C   0  0  0  0  0  0  0  0  0  0  0  0
   12.3372  -18.9471   27.1754 C   0  0  0  0  0  0  0  0  0  0  0  0
   12.8694  -18.8650   25.7764 C   0  0  2  0  0  0  0  0  0  0  0  0
   11.7888  -18.9985   24.7886 N   0  0  0  0  0  0  0  0  0  0  0  0
   13.9671  -19.8052   25.4780 C   0  0  0  0  0  0  0  0  0  0  0  0
   15.1349  -19.9263   26.2090 O   0  0  0  0  0  0  0  0  0  0  0  0
   13.8472  -20.5627   24.4827 O   0  0  0  0  0  0  0  0  0  0  0  0
  2  1  1  1
  2 10  1  0
  3  2  1  0
  4  3  1  0
  4  9  2  0
  5  4  1  0
  6  5  2  0
  6  7  1  0
  7  8  2  0
  8  9  1  0
 10 11  2  0
 13 12  1  6
 13 15  1  0
 14 13  1  0
 15 16  1  1
 16 10  1  0
 17 18  2  0
 17 15  1  0
 19 20  1  0
 20 22  1  0
 20 21  2  0
 22 23  1  0
 24 23  1  1
 24 25  1  0
 24 26  1  0
 25 17  1  0
 26 27  1  0
 28 26  2  0
M  END
$$$$
