FTQ.pdb
     RDKit          3D

 28 28  0  0  1  0  0  0  0  0999 V2000
    7.5294  -17.0016   20.7272 N   0  0  0  0  0  0  0  0  0  0  0  0
    8.9140  -16.5686   20.6073 C   0  0  1  0  0  0  0  0  0  0  0  0
    8.9886  -15.1470   21.1559 C   0  0  0  0  0  0  0  0  0  0  0  0
    8.1969  -14.1827   20.3899 C   0  0  0  0  0  0  0  0  0  0  0  0
    8.5094  -13.9375   19.0732 C   0  0  0  0  0  0  0  0  0  0  0  0
    7.8122  -13.0492   18.2959 C   0  0  0  0  0  0  0  0  0  0  0  0
    6.7471  -12.3619   18.8422 C   0  0  0  0  0  0  0  0  0  0  0  0
    6.4434  -12.6150   20.1604 C   0  0  0  0  0  0  0  0  0  0  0  0
    7.1394  -13.5067   20.9499 C   0  0  0  0  0  0  0  0  0  0  0  0
    9.8317  -17.4280   21.3660 C   0  0  0  0  0  0  0  0  0  0  0  0
    9.4429  -18.2844   22.2151 O   0  0  0  0  0  0  0  0  0  0  0  0
   10.2895  -19.9621   21.5784 C   0  0  0  0  0  0  0  0  0  0  0  0
   11.7464  -19.6937   21.3056 C   0  0  1  0  0  0  0  0  0  0  0  0
   11.8927  -19.8636   19.9146 O   0  0  0  0  0  0  0  0  0  0  0  0
   12.1840  -18.3004   21.7089 C   0  0  2  0  0  0  0  0  0  0  0  0
   11.2233  -17.3193   21.1634 N   0  0  0  0  0  0  0  0  0  0  0  0
   13.5489  -17.9389   21.3323 C   0  0  0  0  0  0  0  0  0  0  0  0
   13.7719  -17.6377   20.0996 O   0  0  0  0  0  0  0  0  0  0  0  0
   14.1899  -14.9667   19.4500 N   0  0  0  0  0  0  0  0  0  0  0  0
   15.2351  -14.3278   20.1314 C   0  0  0  0  0  0  0  0  0  0  0  0
   16.1925  -13.8396   19.4939 O   0  0  0  0  0  0  0  0  0  0  0  0
   15.2183  -14.2223   21.6259 C   0  0  0  0  0  0  0  0  0  0  0  0
   14.5212  -15.4281   22.2075 C   0  0  0  0  0  0  0  0  0  0  0  0
   15.4182  -16.6155   22.3890 C   0  0  2  0  0  0  0  0  0  0  0  0
   14.6887  -17.8714   22.1623 N   0  0  0  0  0  0  0  0  0  0  0  0
   16.1356  -16.6551   23.6781 C   0  0  0  0  0  0  0  0  0  0  0  0
   17.4269  -16.2059   23.8868 O   0  0  0  0  0  0  0  0  0  0  0  0
   15.5399  -17.1332   24.6757 O   0  0  0  0  0  0  0  0  0  0  0  0
  2  1  1  1
  2 10  1  0
  3  2  1  0
  4  3  1  0
  4  9  2  0
  5  4  1  0
  6  5  2  0
  6  7  1  0
  7  8  2  0
  8  9  1  0
 10 11  2  0
 13 12  1  6
 13 15  1  0
 14 13  1  0
 15 16  1  6
 16 10  1  0
 17 18  2  0
 17 15  1  0
 19 20  1  0
 20 22  1  0
 20 21  2  0
 22 23  1  0
 24 23  1  1
 24 25  1  0
 24 26  1  0
 25 17  1  0
 26 27  1  0
 28 26  2  0
M  END
$$$$
