FTQ.pdb
     RDKit          3D

 28 28  0  0  1  0  0  0  0  0999 V2000
    5.4927  -17.4219   25.9135 N   0  0  0  0  0  0  0  0  0  0  0  0
    6.1681  -16.2397   25.3987 C   0  0  1  0  0  0  0  0  0  0  0  0
    7.1008  -15.7414   26.4983 C   0  0  0  0  0  0  0  0  0  0  0  0
    7.0647  -14.2894   26.6819 C   0  0  0  0  0  0  0  0  0  0  0  0
    8.2036  -13.5475   26.4717 C   0  0  0  0  0  0  0  0  0  0  0  0
    8.2431  -12.1856   26.6242 C   0  0  0  0  0  0  0  0  0  0  0  0
    7.0993  -11.5132   27.0047 C   0  0  0  0  0  0  0  0  0  0  0  0
    5.9658  -12.2655   27.2123 C   0  0  0  0  0  0  0  0  0  0  0  0
    5.9169  -13.6358   27.0616 C   0  0  0  0  0  0  0  0  0  0  0  0
    6.9545  -16.5307   24.1932 C   0  0  0  0  0  0  0  0  0  0  0  0
    7.4716  -17.6626   23.9550 O   0  0  0  0  0  0  0  0  0  0  0  0
    7.8170  -13.2874   21.4337 C   0  0  0  0  0  0  0  0  0  0  0  0
    7.5880  -14.7043   20.9765 C   0  0  1  0  0  0  0  0  0  0  0  0
    8.3907  -14.8493   19.8277 O   0  0  0  0  0  0  0  0  0  0  0  0
    7.9736  -15.7379   22.0150 C   0  0  2  0  0  0  0  0  0  0  0  0
    7.1642  -15.5203   23.2318 N   0  0  0  0  0  0  0  0  0  0  0  0
    9.3947  -15.7876   22.3518 C   0  0  0  0  0  0  0  0  0  0  0  0
    9.8251  -14.9815   23.2601 O   0  0  0  0  0  0  0  0  0  0  0  0
   14.3812  -20.4010   24.3306 N   0  0  0  0  0  0  0  0  0  0  0  0
   13.3248  -19.4918   24.4801 C   0  0  0  0  0  0  0  0  0  0  0  0
   12.3981  -19.7347   25.2823 O   0  0  0  0  0  0  0  0  0  0  0  0
   13.2929  -18.2231   23.6838 C   0  0  0  0  0  0  0  0  0  0  0  0
   11.9278  -18.0531   23.0628 C   0  0  0  0  0  0  0  0  0  0  0  0
   11.7338  -16.7312   22.3828 C   0  0  2  0  0  0  0  0  0  0  0  0
   10.3878  -16.6260   21.8010 N   0  0  0  0  0  0  0  0  0  0  0  0
   12.7628  -16.3971   21.3790 C   0  0  0  0  0  0  0  0  0  0  0  0
   12.5224  -16.1629   20.0374 O   0  0  0  0  0  0  0  0  0  0  0  0
   13.9583  -16.3161   21.7573 O   0  0  0  0  0  0  0  0  0  0  0  0
  2  1  1  1
  2 10  1  0
  3  2  1  0
  4  3  1  0
  4  9  2  0
  5  4  1  0
  6  5  2  0
  6  7  1  0
  7  8  2  0
  8  9  1  0
 10 11  2  0
 13 12  1  1
 13 15  1  0
 14 13  1  0
 15 16  1  1
 16 10  1  0
 17 18  2  0
 17 15  1  0
 19 20  1  0
 20 22  1  0
 20 21  2  0
 22 23  1  0
 24 23  1  6
 24 25  1  0
 24 26  1  0
 25 17  1  0
 26 27  1  0
 28 26  2  0
M  END
$$$$
