FTQ.pdb
     RDKit          3D

 28 28  0  0  1  0  0  0  0  0999 V2000
    6.1670  -16.0999   25.6411 N   0  0  0  0  0  0  0  0  0  0  0  0
    6.9312  -15.4827   24.5669 C   0  0  1  0  0  0  0  0  0  0  0  0
    7.8012  -14.4009   25.1994 C   0  0  0  0  0  0  0  0  0  0  0  0
    7.0320  -13.3179   25.8150 C   0  0  0  0  0  0  0  0  0  0  0  0
    7.5719  -12.6085   26.8623 C   0  0  0  0  0  0  0  0  0  0  0  0
    6.9099  -11.5827   27.4858 C   0  0  0  0  0  0  0  0  0  0  0  0
    5.6454  -11.2328   27.0569 C   0  0  0  0  0  0  0  0  0  0  0  0
    5.1151  -11.9493   26.0084 C   0  0  0  0  0  0  0  0  0  0  0  0
    5.7737  -12.9829   25.3754 C   0  0  0  0  0  0  0  0  0  0  0  0
    7.7910  -16.4489   23.8715 C   0  0  0  0  0  0  0  0  0  0  0  0
    7.8670  -17.6720   24.1935 O   0  0  0  0  0  0  0  0  0  0  0  0
    8.5808  -16.0730   20.0091 C   0  0  0  0  0  0  0  0  0  0  0  0
    9.8478  -16.4288   20.7421 C   0  0  1  0  0  0  0  0  0  0  0  0
   10.6110  -15.2444   20.7439 O   0  0  0  0  0  0  0  0  0  0  0  0
    9.6062  -16.8948   22.1633 C   0  0  2  0  0  0  0  0  0  0  0  0
    8.5861  -16.0261   22.7860 N   0  0  0  0  0  0  0  0  0  0  0  0
   10.7957  -16.9689   23.0089 C   0  0  0  0  0  0  0  0  0  0  0  0
   11.1888  -15.8874   23.5885 O   0  0  0  0  0  0  0  0  0  0  0  0
   13.3058  -19.3357   27.8414 N   0  0  0  0  0  0  0  0  0  0  0  0
   11.9508  -19.2245   27.4998 C   0  0  0  0  0  0  0  0  0  0  0  0
   11.0779  -19.2191   28.3937 O   0  0  0  0  0  0  0  0  0  0  0  0
   11.5334  -19.1112   26.0653 C   0  0  0  0  0  0  0  0  0  0  0  0
   12.7576  -19.1234   25.1827 C   0  0  0  0  0  0  0  0  0  0  0  0
   12.7750  -18.0289   24.1584 C   0  0  2  0  0  0  0  0  0  0  0  0
   11.5940  -18.0996   23.2859 N   0  0  0  0  0  0  0  0  0  0  0  0
   14.0116  -17.9544   23.3564 C   0  0  0  0  0  0  0  0  0  0  0  0
   15.2322  -17.4917   23.8131 O   0  0  0  0  0  0  0  0  0  0  0  0
   13.9686  -18.3372   22.1604 O   0  0  0  0  0  0  0  0  0  0  0  0
  2  1  1  1
  2 10  1  0
  3  2  1  0
  4  3  1  0
  4  9  2  0
  5  4  1  0
  6  5  2  0
  6  7  1  0
  7  8  2  0
  8  9  1  0
 10 11  2  0
 13 12  1  1
 13 15  1  0
 14 13  1  0
 15 16  1  1
 16 10  1  0
 17 18  2  0
 17 15  1  0
 19 20  1  0
 20 22  1  0
 20 21  2  0
 22 23  1  0
 24 23  1  6
 24 25  1  0
 24 26  1  0
 25 17  1  0
 26 27  1  0
 28 26  2  0
M  END
$$$$
