FTQ.pdb
     RDKit          3D

 28 28  0  0  1  0  0  0  0  0999 V2000
    6.0437  -16.0942   26.0226 N   0  0  0  0  0  0  0  0  0  0  0  0
    6.7163  -15.2750   25.0250 C   0  0  1  0  0  0  0  0  0  0  0  0
    7.7338  -14.4120   25.7650 C   0  0  0  0  0  0  0  0  0  0  0  0
    7.1400  -13.2544   26.4363 C   0  0  0  0  0  0  0  0  0  0  0  0
    5.7848  -13.0371   26.3491 C   0  0  0  0  0  0  0  0  0  0  0  0
    5.1610  -11.9754   26.9517 C   0  0  0  0  0  0  0  0  0  0  0  0
    5.9103  -11.0752   27.6821 C   0  0  0  0  0  0  0  0  0  0  0  0
    7.2652  -11.3024   27.7627 C   0  0  0  0  0  0  0  0  0  0  0  0
    7.9012  -12.3676   27.1595 C   0  0  0  0  0  0  0  0  0  0  0  0
    7.4124  -16.0864   24.0183 C   0  0  0  0  0  0  0  0  0  0  0  0
    7.6483  -17.3231   24.1618 O   0  0  0  0  0  0  0  0  0  0  0  0
    7.1637  -14.8213   20.3086 C   0  0  0  0  0  0  0  0  0  0  0  0
    8.4833  -15.5303   20.4670 C   0  0  1  0  0  0  0  0  0  0  0  0
    9.4563  -14.5192   20.3395 O   0  0  0  0  0  0  0  0  0  0  0  0
    8.6306  -16.2292   21.8031 C   0  0  2  0  0  0  0  0  0  0  0  0
    7.8545  -15.4892   22.8195 N   0  0  0  0  0  0  0  0  0  0  0  0
   10.0050  -16.4278   22.2579 C   0  0  0  0  0  0  0  0  0  0  0  0
   10.6304  -15.4105   22.7417 O   0  0  0  0  0  0  0  0  0  0  0  0
   12.3651  -20.5638   25.8138 N   0  0  0  0  0  0  0  0  0  0  0  0
   11.5189  -19.4723   26.0539 C   0  0  0  0  0  0  0  0  0  0  0  0
   10.8868  -19.3944   27.1288 O   0  0  0  0  0  0  0  0  0  0  0  0
   11.3621  -18.3900   25.0298 C   0  0  0  0  0  0  0  0  0  0  0  0
   12.2703  -18.6712   23.8575 C   0  0  0  0  0  0  0  0  0  0  0  0
   12.1415  -17.6783   22.7417 C   0  0  2  0  0  0  0  0  0  0  0  0
   10.7609  -17.6198   22.2399 N   0  0  0  0  0  0  0  0  0  0  0  0
   13.0921  -17.8736   21.6298 C   0  0  0  0  0  0  0  0  0  0  0  0
   12.7439  -18.0301   20.3005 O   0  0  0  0  0  0  0  0  0  0  0  0
   14.3198  -17.9037   21.8954 O   0  0  0  0  0  0  0  0  0  0  0  0
  2  1  1  1
  2 10  1  0
  3  2  1  0
  4  3  1  0
  4  9  2  0
  5  4  1  0
  6  5  2  0
  6  7  1  0
  7  8  2  0
  8  9  1  0
 10 11  2  0
 13 12  1  1
 13 15  1  0
 14 13  1  0
 15 16  1  1
 16 10  1  0
 17 18  2  0
 17 15  1  0
 19 20  1  0
 20 22  1  0
 20 21  2  0
 22 23  1  0
 24 23  1  1
 24 25  1  0
 24 26  1  0
 25 17  1  0
 26 27  1  0
 28 26  2  0
M  END
$$$$
