FTQ.pdb
     RDKit          3D

 28 28  0  0  1  0  0  0  0  0999 V2000
    6.1267  -15.9926   25.8180 N   0  0  0  0  0  0  0  0  0  0  0  0
    6.8942  -15.2411   24.8356 C   0  0  1  0  0  0  0  0  0  0  0  0
    7.8505  -14.3382   25.6086 C   0  0  0  0  0  0  0  0  0  0  0  0
    7.1747  -13.2834   26.3661 C   0  0  0  0  0  0  0  0  0  0  0  0
    5.9317  -12.8489   25.9690 C   0  0  0  0  0  0  0  0  0  0  0  0
    5.2406  -11.8665   26.6299 C   0  0  0  0  0  0  0  0  0  0  0  0
    5.8015  -11.2766   27.7446 C   0  0  0  0  0  0  0  0  0  0  0  0
    7.0455  -11.7191   28.1329 C   0  0  0  0  0  0  0  0  0  0  0  0
    7.7480  -12.7066   27.4740 C   0  0  0  0  0  0  0  0  0  0  0  0
    7.6687  -16.1178   23.9480 C   0  0  0  0  0  0  0  0  0  0  0  0
    8.0310  -17.2891   24.2680 O   0  0  0  0  0  0  0  0  0  0  0  0
    7.3713  -15.8196   19.9899 C   0  0  0  0  0  0  0  0  0  0  0  0
    8.8195  -15.9656   20.3779 C   0  0  1  0  0  0  0  0  0  0  0  0
    9.3818  -14.6908   20.1685 O   0  0  0  0  0  0  0  0  0  0  0  0
    9.0130  -16.3897   21.8194 C   0  0  2  0  0  0  0  0  0  0  0  0
    8.0454  -15.6630   22.6671 N   0  0  0  0  0  0  0  0  0  0  0  0
   10.3680  -16.2299   22.3429 C   0  0  0  0  0  0  0  0  0  0  0  0
   10.6858  -15.0879   22.8479 O   0  0  0  0  0  0  0  0  0  0  0  0
   12.1254  -15.9605   27.1470 N   0  0  0  0  0  0  0  0  0  0  0  0
   11.5018  -17.1367   26.7081 C   0  0  0  0  0  0  0  0  0  0  0  0
   10.8749  -17.8530   27.5175 O   0  0  0  0  0  0  0  0  0  0  0  0
   11.5782  -17.5485   25.2695 C   0  0  0  0  0  0  0  0  0  0  0  0
   12.4281  -16.5608   24.5080 C   0  0  0  0  0  0  0  0  0  0  0  0
   12.6710  -16.9475   23.0801 C   0  0  2  0  0  0  0  0  0  0  0  0
   11.4050  -17.1870   22.3723 N   0  0  0  0  0  0  0  0  0  0  0  0
   13.5933  -18.0852   22.8976 C   0  0  0  0  0  0  0  0  0  0  0  0
   13.2804  -19.2715   22.2595 O   0  0  0  0  0  0  0  0  0  0  0  0
   14.7596  -17.9842   23.3538 O   0  0  0  0  0  0  0  0  0  0  0  0
  2  1  1  1
  2 10  1  0
  3  2  1  0
  4  3  1  0
  4  9  2  0
  5  4  1  0
  6  5  2  0
  6  7  1  0
  7  8  2  0
  8  9  1  0
 10 11  2  0
 13 12  1  1
 13 15  1  0
 14 13  1  0
 15 16  1  1
 16 10  1  0
 17 18  2  0
 17 15  1  0
 19 20  1  0
 20 22  1  0
 20 21  2  0
 22 23  1  0
 24 23  1  1
 24 25  1  0
 24 26  1  0
 25 17  1  0
 26 27  1  0
 28 26  2  0
M  END
$$$$
