YNH.pdb
     RDKit          3D

 31 32  0  0  1  0  0  0  0  0999 V2000
   15.7515  -16.5433  -19.5885 O   0  0  0  0  0  0  0  0  0  0  0  0
   16.3680  -15.4638  -18.9845 C   0  0  0  0  0  0  0  0  0  0  0  0
   17.5761  -15.0115  -19.4743 C   0  0  0  0  0  0  0  0  0  0  0  0
   18.1737  -13.9496  -18.8734 C   0  0  0  0  0  0  0  0  0  0  0  0
   17.6197  -13.3066  -17.7931 C   0  0  0  0  0  0  0  0  0  0  0  0
   18.3072  -12.1696  -17.1887 C   0  0  0  0  0  0  0  0  0  0  0  0
   19.4504  -12.5735  -16.2655 C   0  0  2  0  0  0  0  0  0  0  0  0
   18.9764  -13.4520  -15.2108 N   0  0  0  0  0  0  0  0  0  0  0  0
   20.0368  -11.3296  -15.7244 C   0  0  0  0  0  0  0  0  0  0  0  0
   19.4903  -10.7925  -14.7309 O   0  0  0  0  0  0  0  0  0  0  0  0
   16.4202  -13.7374  -17.2882 C   0  0  0  0  0  0  0  0  0  0  0  0
   15.8097  -14.8185  -17.8984 C   0  0  0  0  0  0  0  0  0  0  0  0
   25.0962  -11.3070  -15.5546 N   0  0  0  0  0  0  0  0  0  0  0  0
   24.0163  -10.4940  -15.0803 C   0  0  0  0  0  0  0  0  0  0  0  0
   23.7340  -10.5561  -13.8573 O   0  0  0  0  0  0  0  0  0  0  0  0
   23.2957   -9.6349  -16.0279 C   0  0  0  0  0  0  0  0  0  0  0  0
   21.8308   -9.5510  -15.8438 C   0  0  2  0  0  0  0  0  0  0  0  0
   21.1867  -10.7886  -16.3387 N   0  0  0  0  0  0  0  0  0  0  0  0
   21.2114   -8.4178  -16.5498 C   0  0  0  0  0  0  0  0  0  0  0  0
   21.1798   -8.3988  -17.8302 O   0  0  0  0  0  0  0  0  0  0  0  0
   20.6275   -7.3236  -15.8964 N   0  0  0  0  0  0  0  0  0  0  0  0
   19.9967   -6.2566  -16.7141 C   0  0  1  0  0  0  0  0  0  0  0  0
   18.5808   -6.7182  -16.9339 C   0  0  0  0  0  0  0  0  0  0  0  0
   17.7888   -5.6780  -17.6075 C   0  0  0  0  0  0  0  0  0  0  0  0
   18.3763   -4.5378  -18.1584 C   0  0  0  0  0  0  0  0  0  0  0  0
   17.3652   -3.8111  -18.6898 N   0  0  0  0  0  0  0  0  0  0  0  0
   16.2061   -4.4287  -18.5006 C   0  0  0  0  0  0  0  0  0  0  0  0
   16.4971   -5.5564  -17.8424 N   0  0  0  0  0  0  0  0  0  0  0  0
   20.0085   -5.0305  -15.8776 C   0  0  0  0  0  0  0  0  0  0  0  0
   20.3781   -5.0272  -14.6640 O   0  0  0  0  0  0  0  0  0  0  0  0
   19.6164   -3.7966  -16.3645 O   0  0  0  0  0  0  0  0  0  0  0  0
  2  1  1  0
  2 12  2  0
  3  2  1  0
  4  3  2  0
  4  5  1  0
  5  6  1  0
  5 11  2  0
  7  6  1  0
  7  8  1  1
  9 18  1  0
  9  7  1  0
 10  9  2  0
 11 12  1  0
 13 14  1  0
 14 16  1  0
 14 15  2  0
 17 16  1  6
 17 18  1  0
 19 17  1  0
 19 21  1  0
 20 19  2  0
 22 21  1  0
 22 23  1  1
 22 29  1  0
 24 23  1  0
 24 28  1  0
 25 24  2  0
 26 25  1  0
 26 27  1  0
 27 28  2  0
 29 30  2  0
 29 31  1  0
M  END
$$$$
