YNH.pdb
     RDKit          3D

 31 32  0  0  1  0  0  0  0  0999 V2000
   51.1018  -13.5243   -4.3760 O   0  0  0  0  0  0  0  0  0  0  0  0
   49.9348  -13.0356   -4.9322 C   0  0  0  0  0  0  0  0  0  0  0  0
   49.8343  -12.9183   -6.3034 C   0  0  0  0  0  0  0  0  0  0  0  0
   48.6828  -12.4368   -6.8399 C   0  0  0  0  0  0  0  0  0  0  0  0
   47.6107  -12.0609   -6.0673 C   0  0  0  0  0  0  0  0  0  0  0  0
   46.3980  -11.5511   -6.6997 C   0  0  0  0  0  0  0  0  0  0  0  0
   45.3172  -12.6103   -6.8799 C   0  0  2  0  0  0  0  0  0  0  0  0
   45.7854  -13.6849   -7.7371 N   0  0  0  0  0  0  0  0  0  0  0  0
   44.1302  -11.9336   -7.4431 C   0  0  0  0  0  0  0  0  0  0  0  0
   44.0143  -11.8674   -8.6906 O   0  0  0  0  0  0  0  0  0  0  0  0
   47.6864  -12.1680   -4.7027 C   0  0  0  0  0  0  0  0  0  0  0  0
   48.8580  -12.6581   -4.1539 C   0  0  0  0  0  0  0  0  0  0  0  0
   38.2774  -11.2078   -6.0643 N   0  0  0  0  0  0  0  0  0  0  0  0
   39.4391  -10.8725   -6.8325 C   0  0  0  0  0  0  0  0  0  0  0  0
   39.2760  -10.1592   -7.8541 O   0  0  0  0  0  0  0  0  0  0  0  0
   40.7518  -11.3680   -6.4007 C   0  0  0  0  0  0  0  0  0  0  0  0
   41.9258  -10.7552   -7.0588 C   0  0  2  0  0  0  0  0  0  0  0  0
   43.1702  -11.3868   -6.5648 N   0  0  0  0  0  0  0  0  0  0  0  0
   42.0431   -9.3066   -6.8263 C   0  0  0  0  0  0  0  0  0  0  0  0
   42.2192   -8.8591   -5.6390 O   0  0  0  0  0  0  0  0  0  0  0  0
   41.9803   -8.3501   -7.8491 N   0  0  0  0  0  0  0  0  0  0  0  0
   42.0089   -6.9109   -7.4843 C   0  0  1  0  0  0  0  0  0  0  0  0
   43.1218   -6.3208   -8.3084 C   0  0  0  0  0  0  0  0  0  0  0  0
   43.2613   -4.8804   -8.0464 C   0  0  0  0  0  0  0  0  0  0  0  0
   44.3769   -4.3484   -7.3975 C   0  0  0  0  0  0  0  0  0  0  0  0
   44.1726   -3.0118   -7.3293 N   0  0  0  0  0  0  0  0  0  0  0  0
   43.0127   -2.6947   -7.8905 C   0  0  0  0  0  0  0  0  0  0  0  0
   42.4855   -3.8486   -8.3150 N   0  0  0  0  0  0  0  0  0  0  0  0
   40.7041   -6.3477   -7.9128 C   0  0  0  0  0  0  0  0  0  0  0  0
   40.1798   -5.3297   -7.3667 O   0  0  0  0  0  0  0  0  0  0  0  0
   39.9630   -6.8947   -8.9447 O   0  0  0  0  0  0  0  0  0  0  0  0
  2  1  1  0
  2 12  2  0
  3  2  1  0
  4  3  2  0
  4  5  1  0
  5  6  1  0
  5 11  2  0
  7  6  1  0
  7  8  1  6
  9 18  1  0
  9  7  1  0
 10  9  2  0
 11 12  1  0
 13 14  1  0
 14 16  1  0
 14 15  2  0
 17 16  1  1
 17 18  1  0
 19 17  1  0
 19 21  1  0
 20 19  2  0
 22 21  1  0
 22 23  1  6
 22 29  1  0
 24 23  1  0
 24 28  1  0
 25 24  2  0
 26 25  1  0
 26 27  1  0
 27 28  2  0
 29 30  2  0
 29 31  1  0
M  END
$$$$
