YNH.pdb
     RDKit          3D

 31 32  0  0  1  0  0  0  0  0999 V2000
   29.4322  -20.6253   -3.7731 O   0  0  0  0  0  0  0  0  0  0  0  0
   28.7649  -20.4112   -4.9643 C   0  0  0  0  0  0  0  0  0  0  0  0
   27.7230  -21.2443   -5.3173 C   0  0  0  0  0  0  0  0  0  0  0  0
   27.0738  -21.0252   -6.4903 C   0  0  0  0  0  0  0  0  0  0  0  0
   27.4157  -20.0025   -7.3418 C   0  0  0  0  0  0  0  0  0  0  0  0
   26.6812  -19.8146   -8.5891 C   0  0  0  0  0  0  0  0  0  0  0  0
   26.9886  -20.8752   -9.6393 C   0  0  2  0  0  0  0  0  0  0  0  0
   28.4162  -20.9502   -9.8945 N   0  0  0  0  0  0  0  0  0  0  0  0
   26.2293  -20.5197  -10.8563 C   0  0  0  0  0  0  0  0  0  0  0  0
   26.5352  -19.4673  -11.4670 O   0  0  0  0  0  0  0  0  0  0  0  0
   28.4473  -19.1616   -7.0133 C   0  0  0  0  0  0  0  0  0  0  0  0
   29.1100  -19.3827   -5.8192 C   0  0  0  0  0  0  0  0  0  0  0  0
   26.6724  -21.4725  -14.2012 N   0  0  0  0  0  0  0  0  0  0  0  0
   25.6847  -22.5093  -14.1618 C   0  0  0  0  0  0  0  0  0  0  0  0
   25.9307  -23.5722  -14.7854 O   0  0  0  0  0  0  0  0  0  0  0  0
   24.4453  -22.2906  -13.4058 C   0  0  0  0  0  0  0  0  0  0  0  0
   24.4221  -21.1015  -12.5269 C   0  0  2  0  0  0  0  0  0  0  0  0
   25.1904  -21.3707  -11.2905 N   0  0  0  0  0  0  0  0  0  0  0  0
   23.0669  -20.6917  -12.1246 C   0  0  0  0  0  0  0  0  0  0  0  0
   22.8653  -20.1942  -10.9615 O   0  0  0  0  0  0  0  0  0  0  0  0
   21.9442  -20.8052  -12.9563 N   0  0  0  0  0  0  0  0  0  0  0  0
   20.9360  -19.7150  -12.9482 C   0  0  1  0  0  0  0  0  0  0  0  0
   21.6630  -18.5062  -13.4739 C   0  0  0  0  0  0  0  0  0  0  0  0
   20.7401  -17.3750  -13.6508 C   0  0  0  0  0  0  0  0  0  0  0  0
   19.7570  -17.0647  -12.7095 C   0  0  0  0  0  0  0  0  0  0  0  0
   19.1034  -15.9804  -13.1891 N   0  0  0  0  0  0  0  0  0  0  0  0
   19.6197  -15.6105  -14.3543 C   0  0  0  0  0  0  0  0  0  0  0  0
   20.6089  -16.4753  -14.6056 N   0  0  0  0  0  0  0  0  0  0  0  0
   19.8738  -20.1245  -13.9007 C   0  0  0  0  0  0  0  0  0  0  0  0
   20.1239  -20.6369  -15.0340 O   0  0  0  0  0  0  0  0  0  0  0  0
   18.5276  -19.9770  -13.6189 O   0  0  0  0  0  0  0  0  0  0  0  0
  2  1  1  0
  2 12  2  0
  3  2  1  0
  4  3  2  0
  4  5  1  0
  5  6  1  0
  5 11  2  0
  7  6  1  0
  7  8  1  6
  9 18  1  0
  9  7  1  0
 10  9  2  0
 11 12  1  0
 13 14  1  0
 14 16  1  0
 14 15  2  0
 17 16  1  6
 17 18  1  0
 19 17  1  0
 19 21  1  0
 20 19  2  0
 22 21  1  0
 22 23  1  6
 22 29  1  0
 24 23  1  0
 24 28  1  0
 25 24  2  0
 26 25  1  0
 26 27  1  0
 27 28  2  0
 29 30  2  0
 29 31  1  0
M  END
$$$$
