YNH.pdb
     RDKit          3D

 31 32  0  0  1  0  0  0  0  0999 V2000
   15.5771  -20.6889    0.6563 O   0  0  0  0  0  0  0  0  0  0  0  0
   16.2228  -19.7405    1.4267 C   0  0  0  0  0  0  0  0  0  0  0  0
   17.2053  -18.9574    0.8561 C   0  0  0  0  0  0  0  0  0  0  0  0
   17.8337  -18.0280    1.6222 C   0  0  0  0  0  0  0  0  0  0  0  0
   17.5276  -17.8370    2.9479 C   0  0  0  0  0  0  0  0  0  0  0  0
   18.2358  -16.8219    3.7218 C   0  0  0  0  0  0  0  0  0  0  0  0
   17.4561  -15.5213    3.8726 C   0  0  2  0  0  0  0  0  0  0  0  0
   17.2581  -14.8857    2.5820 N   0  0  0  0  0  0  0  0  0  0  0  0
   18.2177  -14.6591    4.8003 C   0  0  0  0  0  0  0  0  0  0  0  0
   19.1206  -13.9251    4.3310 O   0  0  0  0  0  0  0  0  0  0  0  0
   16.5553  -18.6026    3.5376 C   0  0  0  0  0  0  0  0  0  0  0  0
   15.9139  -19.5497    2.7594 C   0  0  0  0  0  0  0  0  0  0  0  0
   16.3056  -10.9331    7.6648 N   0  0  0  0  0  0  0  0  0  0  0  0
   17.4038  -11.7218    7.1917 C   0  0  0  0  0  0  0  0  0  0  0  0
   18.0387  -11.2972    6.1938 O   0  0  0  0  0  0  0  0  0  0  0  0
   17.7372  -12.9739    7.8819 C   0  0  0  0  0  0  0  0  0  0  0  0
   18.6577  -13.8843    7.1671 C   0  0  2  0  0  0  0  0  0  0  0  0
   17.9067  -14.6883    6.1767 N   0  0  0  0  0  0  0  0  0  0  0  0
   19.3653  -14.8228    8.0529 C   0  0  0  0  0  0  0  0  0  0  0  0
   19.0563  -16.0660    8.0494 O   0  0  0  0  0  0  0  0  0  0  0  0
   20.3937  -14.4394    8.9250 N   0  0  0  0  0  0  0  0  0  0  0  0
   21.0271  -15.4740    9.7814 C   0  0  1  0  0  0  0  0  0  0  0  0
   21.8670  -16.2980    8.8425 C   0  0  0  0  0  0  0  0  0  0  0  0
   22.6368  -17.3113    9.5797 C   0  0  0  0  0  0  0  0  0  0  0  0
   22.0369  -18.4477   10.1250 C   0  0  0  0  0  0  0  0  0  0  0  0
   23.0293  -19.1492   10.7219 N   0  0  0  0  0  0  0  0  0  0  0  0
   24.1884  -18.5196   10.5777 C   0  0  0  0  0  0  0  0  0  0  0  0
   23.9166  -17.4101    9.8814 N   0  0  0  0  0  0  0  0  0  0  0  0
   21.8979  -14.7456   10.7376 C   0  0  0  0  0  0  0  0  0  0  0  0
   22.4532  -15.3075   11.7303 O   0  0  0  0  0  0  0  0  0  0  0  0
   22.1687  -13.3949   10.6135 O   0  0  0  0  0  0  0  0  0  0  0  0
  2  1  1  0
  2 12  2  0
  3  2  1  0
  4  3  2  0
  4  5  1  0
  5  6  1  0
  5 11  2  0
  7  6  1  0
  7  8  1  6
  9 18  1  0
  9  7  1  0
 10  9  2  0
 11 12  1  0
 13 14  1  0
 14 16  1  0
 14 15  2  0
 17 16  1  1
 17 18  1  0
 19 17  1  0
 19 21  1  0
 20 19  2  0
 22 21  1  0
 22 23  1  6
 22 29  1  0
 24 23  1  0
 24 28  1  0
 25 24  2  0
 26 25  1  0
 26 27  1  0
 27 28  2  0
 29 30  2  0
 29 31  1  0
M  END
$$$$
