YNH.pdb
     RDKit          3D

 31 32  0  0  1  0  0  0  0  0999 V2000
   22.1228  -13.7336  -22.6616 O   0  0  0  0  0  0  0  0  0  0  0  0
   21.7504  -12.7316  -21.7857 C   0  0  0  0  0  0  0  0  0  0  0  0
   20.6185  -11.9872  -22.0482 C   0  0  0  0  0  0  0  0  0  0  0  0
   20.2613  -11.0047  -21.1807 C   0  0  0  0  0  0  0  0  0  0  0  0
   20.9861  -10.7225  -20.0481 C   0  0  0  0  0  0  0  0  0  0  0  0
   20.5533   -9.6551  -19.1514 C   0  0  0  0  0  0  0  0  0  0  0  0
   19.9739  -10.1650  -17.8374 C   0  0  2  0  0  0  0  0  0  0  0  0
   18.7963  -10.9810  -18.0747 N   0  0  0  0  0  0  0  0  0  0  0  0
   19.6663   -8.9825  -17.0061 C   0  0  0  0  0  0  0  0  0  0  0  0
   18.5366   -8.4485  -17.1189 O   0  0  0  0  0  0  0  0  0  0  0  0
   22.1144  -11.4479  -19.7656 C   0  0  0  0  0  0  0  0  0  0  0  0
   22.4802  -12.4491  -20.6475 C   0  0  0  0  0  0  0  0  0  0  0  0
   19.1984   -8.8256  -13.2310 N   0  0  0  0  0  0  0  0  0  0  0  0
   20.5154   -8.3160  -12.9905 C   0  0  0  0  0  0  0  0  0  0  0  0
   21.0822   -8.6489  -11.9194 O   0  0  0  0  0  0  0  0  0  0  0  0
   21.1388   -7.4398  -13.9900 C   0  0  0  0  0  0  0  0  0  0  0  0
   20.4159   -7.3006  -15.2725 C   0  0  2  0  0  0  0  0  0  0  0  0
   20.6475   -8.4945  -16.1165 N   0  0  0  0  0  0  0  0  0  0  0  0
   20.8225   -6.1214  -16.0539 C   0  0  0  0  0  0  0  0  0  0  0  0
   21.9150   -6.1398  -16.7225 O   0  0  0  0  0  0  0  0  0  0  0  0
   20.0685   -4.9418  -16.1257 N   0  0  0  0  0  0  0  0  0  0  0  0
   20.5437   -3.8424  -17.0035 C   0  0  1  0  0  0  0  0  0  0  0  0
   20.4430   -4.3882  -18.4028 C   0  0  0  0  0  0  0  0  0  0  0  0
   20.6596   -3.3261  -19.3967 C   0  0  0  0  0  0  0  0  0  0  0  0
   21.9282   -3.0216  -19.8934 C   0  0  0  0  0  0  0  0  0  0  0  0
   21.7554   -2.0096  -20.7760 N   0  0  0  0  0  0  0  0  0  0  0  0
   20.4726   -1.6783  -20.8505 C   0  0  0  0  0  0  0  0  0  0  0  0
   19.8356   -2.4943  -20.0031 N   0  0  0  0  0  0  0  0  0  0  0  0
   19.5855   -2.7233  -16.8232 C   0  0  0  0  0  0  0  0  0  0  0  0
   18.4715   -2.8578  -16.2314 O   0  0  0  0  0  0  0  0  0  0  0  0
   19.8405   -1.4461  -17.2892 O   0  0  0  0  0  0  0  0  0  0  0  0
  2  1  1  0
  2 12  2  0
  3  2  1  0
  4  3  2  0
  4  5  1  0
  5  6  1  0
  5 11  2  0
  7  6  1  0
  7  8  1  6
  9 18  1  0
  9  7  1  0
 10  9  2  0
 11 12  1  0
 13 14  1  0
 14 16  1  0
 14 15  2  0
 17 16  1  1
 17 18  1  0
 19 17  1  0
 19 21  1  0
 20 19  2  0
 22 21  1  0
 22 23  1  6
 22 29  1  0
 24 23  1  0
 24 28  1  0
 25 24  2  0
 26 25  1  0
 26 27  1  0
 27 28  2  0
 29 30  2  0
 29 31  1  0
M  END
$$$$
