YNH.pdb
     RDKit          3D

 31 32  0  0  1  0  0  0  0  0999 V2000
   30.1081  -25.1987  -16.8256 O   0  0  0  0  0  0  0  0  0  0  0  0
   29.3930  -24.0162  -16.8044 C   0  0  0  0  0  0  0  0  0  0  0  0
   28.0592  -24.0365  -16.4514 C   0  0  0  0  0  0  0  0  0  0  0  0
   27.3654  -22.8686  -16.4336 C   0  0  0  0  0  0  0  0  0  0  0  0
   27.9426  -21.6638  -16.7547 C   0  0  0  0  0  0  0  0  0  0  0  0
   27.1475  -20.4403  -16.7171 C   0  0  0  0  0  0  0  0  0  0  0  0
   26.2166  -20.2853  -17.9136 C   0  0  2  0  0  0  0  0  0  0  0  0
   26.9735  -20.2166  -19.1510 N   0  0  0  0  0  0  0  0  0  0  0  0
   25.4150  -19.0641  -17.6897 C   0  0  0  0  0  0  0  0  0  0  0  0
   25.7905  -17.9942  -18.2268 O   0  0  0  0  0  0  0  0  0  0  0  0
   29.2661  -21.6178  -17.1088 C   0  0  0  0  0  0  0  0  0  0  0  0
   29.9748  -22.8059  -17.1276 C   0  0  0  0  0  0  0  0  0  0  0  0
   24.1740  -17.0061  -20.1040 N   0  0  0  0  0  0  0  0  0  0  0  0
   23.8056  -16.6459  -18.7673 C   0  0  0  0  0  0  0  0  0  0  0  0
   24.3020  -15.5949  -18.2895 O   0  0  0  0  0  0  0  0  0  0  0  0
   22.8775  -17.5059  -18.0229 C   0  0  0  0  0  0  0  0  0  0  0  0
   23.3503  -17.9846  -16.7060 C   0  0  2  0  0  0  0  0  0  0  0  0
   24.2589  -19.1398  -16.8835 N   0  0  0  0  0  0  0  0  0  0  0  0
   22.2643  -18.4105  -15.8084 C   0  0  0  0  0  0  0  0  0  0  0  0
   21.5717  -19.4514  -16.0874 O   0  0  0  0  0  0  0  0  0  0  0  0
   21.9280  -17.7376  -14.6255 N   0  0  0  0  0  0  0  0  0  0  0  0
   20.8118  -18.2615  -13.7982 C   0  0  1  0  0  0  0  0  0  0  0  0
   19.6286  -18.3160  -14.7273 C   0  0  0  0  0  0  0  0  0  0  0  0
   19.0738  -16.9722  -14.9492 C   0  0  0  0  0  0  0  0  0  0  0  0
   19.6011  -15.8393  -14.3268 C   0  0  0  0  0  0  0  0  0  0  0  0
   18.8573  -14.7923  -14.7552 N   0  0  0  0  0  0  0  0  0  0  0  0
   17.9164  -15.2089  -15.5930 C   0  0  0  0  0  0  0  0  0  0  0  0
   18.0746  -16.5337  -15.6894 N   0  0  0  0  0  0  0  0  0  0  0  0
   21.2042  -19.6343  -13.3924 C   0  0  0  0  0  0  0  0  0  0  0  0
   21.6609  -20.4908  -14.2093 O   0  0  0  0  0  0  0  0  0  0  0  0
   21.1006  -20.0801  -12.0871 O   0  0  0  0  0  0  0  0  0  0  0  0
  2  1  1  0
  2 12  2  0
  3  2  1  0
  4  3  2  0
  4  5  1  0
  5  6  1  0
  5 11  2  0
  7  6  1  0
  7  8  1  6
  9 18  1  0
  9  7  1  0
 10  9  2  0
 11 12  1  0
 13 14  1  0
 14 16  1  0
 14 15  2  0
 17 16  1  6
 17 18  1  0
 19 17  1  0
 19 21  1  0
 20 19  2  0
 22 21  1  0
 22 23  1  6
 22 29  1  0
 24 23  1  0
 24 28  1  0
 25 24  2  0
 26 25  1  0
 26 27  1  0
 27 28  2  0
 29 30  2  0
 29 31  1  0
M  END
$$$$
