AML.pdb
     RDKit          3D

 22 21  0  0  1  0  0  0  0  0999 V2000
    7.9475  -14.5073   19.2259 C   0  0  0  0  0  0  0  0  0  0  0  0
    8.5515  -15.5984   20.1195 C   0  0  2  0  0  0  0  0  0  0  0  0
    7.5700  -16.6560   20.2248 N   0  0  0  0  0  0  0  0  0  0  0  0
    8.8659  -15.0482   21.4593 C   0  0  0  0  0  0  0  0  0  0  0  0
    9.8013  -14.2222   21.5683 O   0  0  0  0  0  0  0  0  0  0  0  0
    6.7673  -11.8206   26.6496 C   0  0  0  0  0  0  0  0  0  0  0  0
    5.6885  -13.1535   26.0790 S   0  0  0  0  0  0  0  0  0  0  0  0
    6.3297  -13.7529   24.4851 C   0  0  0  0  0  0  0  0  0  0  0  0
    7.1391  -14.9931   24.7768 C   0  0  0  0  0  0  0  0  0  0  0  0
    8.4040  -14.9809   23.9240 C   0  0  2  0  0  0  0  0  0  0  0  0
    8.1246  -15.4468   22.5970 N   0  0  0  0  0  0  0  0  0  0  0  0
    9.4399  -15.7892   24.6210 C   0  0  0  0  0  0  0  0  0  0  0  0
    9.6547  -16.9416   24.1682 O   0  0  0  0  0  0  0  0  0  0  0  0
   11.4781  -13.4756   29.0627 C   0  0  0  0  0  0  0  0  0  0  0  0
   10.8343  -14.6956   28.4519 C   0  0  2  0  0  0  0  0  0  0  0  0
   10.0441  -15.4096   29.4940 C   0  0  0  0  0  0  0  0  0  0  0  0
   11.6941  -15.4840   27.5618 C   0  0  0  0  0  0  0  0  0  0  0  0
   11.1164  -16.2260   26.4249 C   0  0  2  0  0  0  0  0  0  0  0  0
   10.1638  -15.3162   25.7375 N   0  0  0  0  0  0  0  0  0  0  0  0
   10.4337  -17.4910   26.7069 C   0  0  0  0  0  0  0  0  0  0  0  0
    9.0679  -17.6734   26.8120 O   0  0  0  0  0  0  0  0  0  0  0  0
   11.1121  -18.5727   26.8882 O   0  0  0  0  0  0  0  0  0  0  0  0
  2  1  1  6
  2  3  1  0
  4  2  1  0
  5  4  2  0
  7  6  1  0
  8  7  1  0
  8  9  1  0
 10  9  1  1
 10 12  1  0
 10 11  1  0
 11  4  1  0
 12 19  1  0
 13 12  2  0
 15 14  1  1
 16 15  1  0
 17 15  1  0
 18 17  1  1
 18 20  1  0
 19 18  1  0
 20 21  1  0
 22 20  2  0
M  END
$$$$
