AML.pdb
     RDKit          3D

 22 21  0  0  1  0  0  0  0  0999 V2000
    7.2963  -18.0852   20.0904 C   0  0  0  0  0  0  0  0  0  0  0  0
    7.6002  -18.2084   21.5892 C   0  0  2  0  0  0  0  0  0  0  0  0
    6.3407  -18.0922   22.2913 N   0  0  0  0  0  0  0  0  0  0  0  0
    8.5308  -17.1357   22.0135 C   0  0  0  0  0  0  0  0  0  0  0  0
    9.7077  -17.1531   21.5849 O   0  0  0  0  0  0  0  0  0  0  0  0
    6.6679  -11.8808   25.8690 C   0  0  0  0  0  0  0  0  0  0  0  0
    6.6337  -13.6662   26.1465 S   0  0  0  0  0  0  0  0  0  0  0  0
    6.8638  -14.4897   24.5404 C   0  0  0  0  0  0  0  0  0  0  0  0
    8.1108  -13.9052   23.9228 C   0  0  0  0  0  0  0  0  0  0  0  0
    8.9422  -15.0274   23.3090 C   0  0  2  0  0  0  0  0  0  0  0  0
    8.1005  -16.1087   22.8871 N   0  0  0  0  0  0  0  0  0  0  0  0
    9.9688  -15.4397   24.3033 C   0  0  0  0  0  0  0  0  0  0  0  0
   11.1673  -15.2073   24.0054 O   0  0  0  0  0  0  0  0  0  0  0  0
   10.4683  -13.5910   27.9646 C   0  0  0  0  0  0  0  0  0  0  0  0
    9.5767  -14.7788   28.2293 C   0  0  2  0  0  0  0  0  0  0  0  0
    8.9388  -14.6276   29.5673 C   0  0  0  0  0  0  0  0  0  0  0  0
   10.1395  -16.0839   27.8648 C   0  0  0  0  0  0  0  0  0  0  0  0
   10.7220  -16.3020   26.5269 C   0  0  2  0  0  0  0  0  0  0  0  0
    9.6474  -16.0629   25.5291 N   0  0  0  0  0  0  0  0  0  0  0  0
   11.3362  -17.6027   26.2496 C   0  0  0  0  0  0  0  0  0  0  0  0
   12.5374  -18.0606   26.7566 O   0  0  0  0  0  0  0  0  0  0  0  0
   10.7554  -18.4448   25.4643 O   0  0  0  0  0  0  0  0  0  0  0  0
  2  1  1  6
  2  3  1  0
  4  2  1  0
  5  4  2  0
  7  6  1  0
  8  7  1  0
  8  9  1  0
 10  9  1  1
 10 12  1  0
 10 11  1  0
 11  4  1  0
 12 19  1  0
 13 12  2  0
 15 14  1  1
 16 15  1  0
 17 15  1  0
 18 17  1  1
 18 20  1  0
 19 18  1  0
 20 21  1  0
 22 20  2  0
M  END
$$$$
