AML.pdb
     RDKit          3D

 22 21  0  0  1  0  0  0  0  0999 V2000
    8.0839  -19.9471   22.1139 C   0  0  0  0  0  0  0  0  0  0  0  0
    7.3034  -18.6632   21.8032 C   0  0  2  0  0  0  0  0  0  0  0  0
    7.2726  -18.5199   20.3640 N   0  0  0  0  0  0  0  0  0  0  0  0
    7.9693  -17.4948   22.4261 C   0  0  0  0  0  0  0  0  0  0  0  0
    9.1177  -17.1776   22.0394 O   0  0  0  0  0  0  0  0  0  0  0  0
    6.9771  -11.0400   26.7832 C   0  0  0  0  0  0  0  0  0  0  0  0
    6.2223  -12.5529   26.1451 S   0  0  0  0  0  0  0  0  0  0  0  0
    7.5437  -13.5874   25.4416 C   0  0  0  0  0  0  0  0  0  0  0  0
    6.8717  -14.7612   24.7718 C   0  0  0  0  0  0  0  0  0  0  0  0
    7.9313  -15.6404   24.1150 C   0  0  2  0  0  0  0  0  0  0  0  0
    7.3220  -16.7490   23.4399 N   0  0  0  0  0  0  0  0  0  0  0  0
    8.9020  -16.0561   25.1625 C   0  0  0  0  0  0  0  0  0  0  0  0
    8.5067  -16.9182   25.9870 O   0  0  0  0  0  0  0  0  0  0  0  0
   10.9538  -13.4840   27.6478 C   0  0  0  0  0  0  0  0  0  0  0  0
   10.2071  -14.6416   28.2630 C   0  0  2  0  0  0  0  0  0  0  0  0
   10.3342  -14.5774   29.7462 C   0  0  0  0  0  0  0  0  0  0  0  0
   10.3932  -15.9368   27.5991 C   0  0  0  0  0  0  0  0  0  0  0  0
   11.1199  -16.0253   26.3181 C   0  0  2  0  0  0  0  0  0  0  0  0
   10.2089  -15.5290   25.2544 N   0  0  0  0  0  0  0  0  0  0  0  0
   11.6415  -17.3331   25.9140 C   0  0  0  0  0  0  0  0  0  0  0  0
   10.9076  -18.3694   25.3688 O   0  0  0  0  0  0  0  0  0  0  0  0
   12.8931  -17.6094   26.0571 O   0  0  0  0  0  0  0  0  0  0  0  0
  2  1  1  6
  2  3  1  0
  4  2  1  0
  5  4  2  0
  7  6  1  0
  8  7  1  0
  8  9  1  0
 10  9  1  1
 10 12  1  0
 10 11  1  0
 11  4  1  0
 12 19  1  0
 13 12  2  0
 15 14  1  6
 16 15  1  0
 17 15  1  0
 18 17  1  1
 18 20  1  0
 19 18  1  0
 20 21  1  0
 22 20  2  0
M  END
$$$$
