AML.pdb
     RDKit          3D

 22 21  0  0  1  0  0  0  0  0999 V2000
   10.0142  -15.4448   19.6491 C   0  0  0  0  0  0  0  0  0  0  0  0
   10.0448  -16.5769   20.6842 C   0  0  2  0  0  0  0  0  0  0  0  0
    8.9045  -17.4274   20.4208 N   0  0  0  0  0  0  0  0  0  0  0  0
    9.9699  -16.0200   22.0556 C   0  0  0  0  0  0  0  0  0  0  0  0
   10.8922  -15.2722   22.4547 O   0  0  0  0  0  0  0  0  0  0  0  0
    6.3962  -11.8196   25.6327 C   0  0  0  0  0  0  0  0  0  0  0  0
    7.0935  -13.4683   25.8807 S   0  0  0  0  0  0  0  0  0  0  0  0
    6.6164  -14.5004   24.4603 C   0  0  0  0  0  0  0  0  0  0  0  0
    7.2635  -15.8491   24.6614 C   0  0  0  0  0  0  0  0  0  0  0  0
    8.7216  -15.7791   24.2181 C   0  0  2  0  0  0  0  0  0  0  0  0
    8.8773  -16.3256   22.9016 N   0  0  0  0  0  0  0  0  0  0  0  0
    9.5500  -16.4727   25.2403 C   0  0  0  0  0  0  0  0  0  0  0  0
   10.0305  -17.5873   24.9148 O   0  0  0  0  0  0  0  0  0  0  0  0
   10.0432  -14.0367   30.2237 C   0  0  0  0  0  0  0  0  0  0  0  0
   10.5700  -14.5881   28.9221 C   0  0  2  0  0  0  0  0  0  0  0  0
   10.0611  -13.7587   27.7937 C   0  0  0  0  0  0  0  0  0  0  0  0
   10.5279  -16.0491   28.7926 C   0  0  0  0  0  0  0  0  0  0  0  0
   10.6625  -16.6888   27.4699 C   0  0  2  0  0  0  0  0  0  0  0  0
    9.8035  -15.9343   26.5210 N   0  0  0  0  0  0  0  0  0  0  0  0
   10.3400  -18.1135   27.3608 C   0  0  0  0  0  0  0  0  0  0  0  0
    9.1247  -18.6460   26.9745 O   0  0  0  0  0  0  0  0  0  0  0  0
   11.2270  -19.0070   27.6403 O   0  0  0  0  0  0  0  0  0  0  0  0
  2  1  1  6
  2  3  1  0
  4  2  1  0
  5  4  2  0
  7  6  1  0
  8  7  1  0
  8  9  1  0
 10  9  1  1
 10 12  1  0
 10 11  1  0
 11  4  1  0
 12 19  1  0
 13 12  2  0
 15 14  1  1
 16 15  1  0
 17 15  1  0
 18 17  1  1
 18 20  1  0
 19 18  1  0
 20 21  1  0
 22 20  2  0
M  END
$$$$
