AML.pdb
     RDKit          3D

 22 21  0  0  1  0  0  0  0  0999 V2000
    8.3920  -18.2011   19.7950 C   0  0  0  0  0  0  0  0  0  0  0  0
    8.4740  -18.3283   21.3218 C   0  0  2  0  0  0  0  0  0  0  0  0
    7.1235  -18.5074   21.8085 N   0  0  0  0  0  0  0  0  0  0  0  0
    9.0777  -17.1073   21.9063 C   0  0  0  0  0  0  0  0  0  0  0  0
   10.2658  -16.8274   21.6250 O   0  0  0  0  0  0  0  0  0  0  0  0
    6.0380  -12.3094   26.2332 C   0  0  0  0  0  0  0  0  0  0  0  0
    7.8060  -12.6798   26.1814 S   0  0  0  0  0  0  0  0  0  0  0  0
    8.2788  -12.9241   24.4414 C   0  0  0  0  0  0  0  0  0  0  0  0
    7.7399  -14.2712   24.0257 C   0  0  0  0  0  0  0  0  0  0  0  0
    8.8521  -15.0744   23.3584 C   0  0  2  0  0  0  0  0  0  0  0  0
    8.3279  -16.2708   22.7671 N   0  0  0  0  0  0  0  0  0  0  0  0
    9.9061  -15.3380   24.3742 C   0  0  0  0  0  0  0  0  0  0  0  0
   10.9760  -14.6891   24.2578 O   0  0  0  0  0  0  0  0  0  0  0  0
    9.6607  -14.5929   29.7758 C   0  0  0  0  0  0  0  0  0  0  0  0
   10.2160  -14.7160   28.3785 C   0  0  2  0  0  0  0  0  0  0  0  0
    9.7864  -13.5390   27.5721 C   0  0  0  0  0  0  0  0  0  0  0  0
   10.1196  -16.0507   27.7766 C   0  0  0  0  0  0  0  0  0  0  0  0
   10.7815  -16.3428   26.4907 C   0  0  2  0  0  0  0  0  0  0  0  0
    9.7454  -16.2636   25.4286 N   0  0  0  0  0  0  0  0  0  0  0  0
   11.4902  -17.6179   26.3579 C   0  0  0  0  0  0  0  0  0  0  0  0
   12.8023  -17.8614   26.7169 O   0  0  0  0  0  0  0  0  0  0  0  0
   10.8928  -18.6486   25.8637 O   0  0  0  0  0  0  0  0  0  0  0  0
  2  1  1  6
  2  3  1  0
  4  2  1  0
  5  4  2  0
  7  6  1  0
  8  7  1  0
  8  9  1  0
 10  9  1  1
 10 12  1  0
 10 11  1  0
 11  4  1  0
 12 19  1  0
 13 12  2  0
 15 14  1  1
 16 15  1  0
 17 15  1  0
 18 17  1  1
 18 20  1  0
 19 18  1  0
 20 21  1  0
 22 20  2  0
M  END
$$$$
