AML.pdb
     RDKit          3D

 22 21  0  0  1  0  0  0  0  0999 V2000
    6.7282  -19.6445   19.8823 C   0  0  0  0  0  0  0  0  0  0  0  0
    7.1544  -20.3580   21.1719 C   0  0  2  0  0  0  0  0  0  0  0  0
    6.6165  -21.6998   21.1153 N   0  0  0  0  0  0  0  0  0  0  0  0
    6.6267  -19.6378   22.3549 C   0  0  0  0  0  0  0  0  0  0  0  0
    5.3898  -19.6265   22.5525 O   0  0  0  0  0  0  0  0  0  0  0  0
    9.3197  -19.1710   28.6359 C   0  0  0  0  0  0  0  0  0  0  0  0
    7.6312  -19.7228   28.3035 S   0  0  0  0  0  0  0  0  0  0  0  0
    6.9655  -18.7105   26.9460 C   0  0  0  0  0  0  0  0  0  0  0  0
    7.5325  -19.2694   25.6637 C   0  0  0  0  0  0  0  0  0  0  0  0
    7.0765  -18.4047   24.4926 C   0  0  2  0  0  0  0  0  0  0  0  0
    7.5019  -18.9738   23.2471 N   0  0  0  0  0  0  0  0  0  0  0  0
    7.5878  -17.0249   24.7093 C   0  0  0  0  0  0  0  0  0  0  0  0
    8.7913  -16.8167   24.4131 O   0  0  0  0  0  0  0  0  0  0  0  0
    5.5655  -11.6645   27.1314 C   0  0  0  0  0  0  0  0  0  0  0  0
    6.6516  -12.3773   26.3644 C   0  0  2  0  0  0  0  0  0  0  0  0
    7.2218  -11.4533   25.3440 C   0  0  0  0  0  0  0  0  0  0  0  0
    6.3429  -13.7556   25.9671 C   0  0  0  0  0  0  0  0  0  0  0  0
    7.4151  -14.6648   25.5190 C   0  0  2  0  0  0  0  0  0  0  0  0
    6.7888  -15.9786   25.2203 N   0  0  0  0  0  0  0  0  0  0  0  0
    8.5507  -14.8821   26.4183 C   0  0  0  0  0  0  0  0  0  0  0  0
    8.5705  -15.7197   27.5173 O   0  0  0  0  0  0  0  0  0  0  0  0
    9.6649  -14.2619   26.2248 O   0  0  0  0  0  0  0  0  0  0  0  0
  2  1  1  6
  2  3  1  0
  4  2  1  0
  5  4  2  0
  7  6  1  0
  8  7  1  0
  8  9  1  0
 10  9  1  1
 10 12  1  0
 10 11  1  0
 11  4  1  0
 12 19  1  0
 13 12  2  0
 15 14  1  6
 16 15  1  0
 17 15  1  0
 18 17  1  1
 18 20  1  0
 19 18  1  0
 20 21  1  0
 22 20  2  0
M  END
$$$$
