AML.pdb
     RDKit          3D

 22 21  0  0  1  0  0  0  0  0999 V2000
    6.0946  -20.4763   23.5713 C   0  0  0  0  0  0  0  0  0  0  0  0
    5.4326  -19.1947   23.0485 C   0  0  2  0  0  0  0  0  0  0  0  0
    5.1702  -19.3937   21.6398 N   0  0  0  0  0  0  0  0  0  0  0  0
    6.3323  -18.0342   23.2491 C   0  0  0  0  0  0  0  0  0  0  0  0
    7.2203  -17.8044   22.3961 O   0  0  0  0  0  0  0  0  0  0  0  0
    7.5621  -11.3554   27.1879 C   0  0  0  0  0  0  0  0  0  0  0  0
    6.5025  -12.8023   26.9657 S   0  0  0  0  0  0  0  0  0  0  0  0
    7.3878  -13.9913   25.9106 C   0  0  0  0  0  0  0  0  0  0  0  0
    6.4492  -15.1488   25.6716 C   0  0  0  0  0  0  0  0  0  0  0  0
    7.0874  -16.1184   24.6817 C   0  0  2  0  0  0  0  0  0  0  0  0
    6.1932  -17.1988   24.3830 N   0  0  0  0  0  0  0  0  0  0  0  0
    8.3842  -16.5736   25.2503 C   0  0  0  0  0  0  0  0  0  0  0  0
    8.3328  -17.4906   26.1080 O   0  0  0  0  0  0  0  0  0  0  0  0
   11.4479  -18.0424   22.5505 C   0  0  0  0  0  0  0  0  0  0  0  0
   11.7436  -16.6069   22.9082 C   0  0  2  0  0  0  0  0  0  0  0  0
   12.7334  -16.0523   21.9423 C   0  0  0  0  0  0  0  0  0  0  0  0
   11.9342  -16.3393   24.3382 C   0  0  0  0  0  0  0  0  0  0  0  0
   10.8820  -16.6861   25.3127 C   0  0  2  0  0  0  0  0  0  0  0  0
    9.6280  -16.0248   24.8679 N   0  0  0  0  0  0  0  0  0  0  0  0
   11.1129  -16.3515   26.7200 C   0  0  0  0  0  0  0  0  0  0  0  0
   10.3382  -15.5092   27.4945 O   0  0  0  0  0  0  0  0  0  0  0  0
   12.1179  -16.8531   27.3539 O   0  0  0  0  0  0  0  0  0  0  0  0
  2  1  1  6
  2  3  1  0
  4  2  1  0
  5  4  2  0
  7  6  1  0
  8  7  1  0
  8  9  1  0
 10  9  1  1
 10 12  1  0
 10 11  1  0
 11  4  1  0
 12 19  1  0
 13 12  2  0
 15 14  1  1
 16 15  1  0
 17 15  1  0
 18 17  1  6
 18 20  1  0
 19 18  1  0
 20 21  1  0
 22 20  2  0
M  END
$$$$
