AML.pdb
     RDKit          3D

 22 21  0  0  1  0  0  0  0  0999 V2000
    8.6210  -17.7282   19.5068 C   0  0  0  0  0  0  0  0  0  0  0  0
    8.9717  -18.0137   20.9729 C   0  0  2  0  0  0  0  0  0  0  0  0
    7.8056  -18.6160   21.5815 N   0  0  0  0  0  0  0  0  0  0  0  0
    9.3278  -16.7548   21.6695 C   0  0  0  0  0  0  0  0  0  0  0  0
   10.4067  -16.1886   21.3791 O   0  0  0  0  0  0  0  0  0  0  0  0
    6.6239  -11.2376   26.5828 C   0  0  0  0  0  0  0  0  0  0  0  0
    6.6774  -12.9916   26.1510 S   0  0  0  0  0  0  0  0  0  0  0  0
    7.9195  -13.2105   24.8395 C   0  0  0  0  0  0  0  0  0  0  0  0
    7.5501  -14.4684   24.0915 C   0  0  0  0  0  0  0  0  0  0  0  0
    8.7955  -15.0391   23.4204 C   0  0  2  0  0  0  0  0  0  0  0  0
    8.4664  -16.1999   22.6457 N   0  0  0  0  0  0  0  0  0  0  0  0
    9.8078  -15.3091   24.4762 C   0  0  0  0  0  0  0  0  0  0  0  0
   10.8662  -14.6332   24.4283 O   0  0  0  0  0  0  0  0  0  0  0  0
   10.4439  -13.6687   27.8417 C   0  0  0  0  0  0  0  0  0  0  0  0
    9.5104  -14.8141   28.1457 C   0  0  2  0  0  0  0  0  0  0  0  0
    8.8639  -14.5851   29.4684 C   0  0  0  0  0  0  0  0  0  0  0  0
   10.0331  -16.1514   27.8434 C   0  0  0  0  0  0  0  0  0  0  0  0
   10.6646  -16.4326   26.5399 C   0  0  2  0  0  0  0  0  0  0  0  0
    9.6210  -16.2689   25.4951 N   0  0  0  0  0  0  0  0  0  0  0  0
   11.3092  -17.7351   26.3565 C   0  0  0  0  0  0  0  0  0  0  0  0
   12.5309  -18.1194   26.8757 O   0  0  0  0  0  0  0  0  0  0  0  0
   10.7383  -18.6528   25.6528 O   0  0  0  0  0  0  0  0  0  0  0  0
  2  1  1  6
  2  3  1  0
  4  2  1  0
  5  4  2  0
  7  6  1  0
  8  7  1  0
  8  9  1  0
 10  9  1  1
 10 12  1  0
 10 11  1  0
 11  4  1  0
 12 19  1  0
 13 12  2  0
 15 14  1  1
 16 15  1  0
 17 15  1  0
 18 17  1  1
 18 20  1  0
 19 18  1  0
 20 21  1  0
 22 20  2  0
M  END
$$$$
