AML.pdb
     RDKit          3D

 22 21  0  0  1  0  0  0  0  0999 V2000
    6.3604  -19.5500   23.9614 C   0  0  0  0  0  0  0  0  0  0  0  0
    6.3629  -19.0015   22.5286 C   0  0  2  0  0  0  0  0  0  0  0  0
    6.6810  -20.1055   21.6493 N   0  0  0  0  0  0  0  0  0  0  0  0
    7.3720  -17.9244   22.3936 C   0  0  0  0  0  0  0  0  0  0  0  0
    8.5349  -18.1310   22.8109 O   0  0  0  0  0  0  0  0  0  0  0  0
    7.8284  -13.1658   17.7585 C   0  0  0  0  0  0  0  0  0  0  0  0
    7.8887  -12.2898   19.3380 S   0  0  0  0  0  0  0  0  0  0  0  0
    8.4925  -13.4506   20.6024 C   0  0  0  0  0  0  0  0  0  0  0  0
    7.4638  -14.5491   20.7160 C   0  0  0  0  0  0  0  0  0  0  0  0
    7.9181  -15.5577   21.7665 C   0  0  2  0  0  0  0  0  0  0  0  0
    7.0310  -16.6837   21.8044 N   0  0  0  0  0  0  0  0  0  0  0  0
    8.0222  -14.8517   23.0715 C   0  0  0  0  0  0  0  0  0  0  0  0
    7.7311  -13.6292   23.0758 O   0  0  0  0  0  0  0  0  0  0  0  0
    5.8658  -12.5177   27.1738 C   0  0  0  0  0  0  0  0  0  0  0  0
    7.2556  -13.0257   26.8800 C   0  0  2  0  0  0  0  0  0  0  0  0
    8.2208  -11.8932   26.9576 C   0  0  0  0  0  0  0  0  0  0  0  0
    7.3609  -13.9602   25.7537 C   0  0  0  0  0  0  0  0  0  0  0  0
    8.6211  -14.6823   25.4939 C   0  0  2  0  0  0  0  0  0  0  0  0
    8.4245  -15.4924   24.2640 N   0  0  0  0  0  0  0  0  0  0  0  0
    9.1426  -15.5540   26.5492 C   0  0  0  0  0  0  0  0  0  0  0  0
   10.1130  -15.2210   27.4751 O   0  0  0  0  0  0  0  0  0  0  0  0
    8.7001  -16.7585   26.6792 O   0  0  0  0  0  0  0  0  0  0  0  0
  2  1  1  1
  2  3  1  0
  4  2  1  0
  5  4  2  0
  7  6  1  0
  8  7  1  0
  8  9  1  0
 10  9  1  6
 10 12  1  0
 10 11  1  0
 11  4  1  0
 12 19  1  0
 13 12  2  0
 15 14  1  6
 16 15  1  0
 17 15  1  0
 18 17  1  1
 18 20  1  0
 19 18  1  0
 20 21  1  0
 22 20  2  0
M  END
$$$$
