AML.pdb
     RDKit          3D

 22 21  0  0  1  0  0  0  0  0999 V2000
    9.2736  -15.4878   19.3063 C   0  0  0  0  0  0  0  0  0  0  0  0
    9.3383  -16.5118   20.4470 C   0  0  2  0  0  0  0  0  0  0  0  0
    8.1251  -17.2974   20.3850 N   0  0  0  0  0  0  0  0  0  0  0  0
    9.4406  -15.8187   21.7531 C   0  0  0  0  0  0  0  0  0  0  0  0
   10.4687  -15.1476   22.0014 O   0  0  0  0  0  0  0  0  0  0  0  0
    6.8045  -11.5120   26.4750 C   0  0  0  0  0  0  0  0  0  0  0  0
    5.9799  -12.9602   25.7760 S   0  0  0  0  0  0  0  0  0  0  0  0
    7.1312  -14.3658   25.8755 C   0  0  0  0  0  0  0  0  0  0  0  0
    7.0444  -15.0975   24.5583 C   0  0  0  0  0  0  0  0  0  0  0  0
    8.4494  -15.2907   23.9961 C   0  0  2  0  0  0  0  0  0  0  0  0
    8.3972  -15.9115   22.7047 N   0  0  0  0  0  0  0  0  0  0  0  0
    9.2413  -16.0681   24.9865 C   0  0  0  0  0  0  0  0  0  0  0  0
    9.1704  -17.3203   24.9068 O   0  0  0  0  0  0  0  0  0  0  0  0
   10.4639  -13.7389   29.7302 C   0  0  0  0  0  0  0  0  0  0  0  0
   10.7578  -14.2315   28.3349 C   0  0  2  0  0  0  0  0  0  0  0  0
    9.8935  -13.5042   27.3632 C   0  0  0  0  0  0  0  0  0  0  0  0
   10.8989  -15.6854   28.1957 C   0  0  0  0  0  0  0  0  0  0  0  0
   10.8768  -16.3166   26.8623 C   0  0  2  0  0  0  0  0  0  0  0  0
   10.0425  -15.4617   25.9788 N   0  0  0  0  0  0  0  0  0  0  0  0
   10.3976  -17.6974   26.7647 C   0  0  0  0  0  0  0  0  0  0  0  0
   11.1499  -18.8373   26.9757 O   0  0  0  0  0  0  0  0  0  0  0  0
    9.1703  -17.9421   26.4529 O   0  0  0  0  0  0  0  0  0  0  0  0
  2  1  1  6
  2  3  1  0
  4  2  1  0
  5  4  2  0
  7  6  1  0
  8  7  1  0
  8  9  1  0
 10  9  1  1
 10 12  1  0
 10 11  1  0
 11  4  1  0
 12 19  1  0
 13 12  2  0
 15 14  1  1
 16 15  1  0
 17 15  1  0
 18 17  1  1
 18 20  1  0
 19 18  1  0
 20 21  1  0
 22 20  2  0
M  END
$$$$
