AML.pdb
     RDKit          3D

 22 21  0  0  1  0  0  0  0  0999 V2000
    9.8804  -20.3151   21.1971 C   0  0  0  0  0  0  0  0  0  0  0  0
    9.0936  -19.1348   20.6126 C   0  0  2  0  0  0  0  0  0  0  0  0
    9.4705  -19.0178   19.2207 N   0  0  0  0  0  0  0  0  0  0  0  0
    9.4205  -17.8880   21.3444 C   0  0  0  0  0  0  0  0  0  0  0  0
   10.6067  -17.4857   21.3516 O   0  0  0  0  0  0  0  0  0  0  0  0
    7.6409  -11.8789   19.9807 C   0  0  0  0  0  0  0  0  0  0  0  0
    8.0961  -12.8483   21.4363 S   0  0  0  0  0  0  0  0  0  0  0  0
    7.1518  -14.4030   21.3947 C   0  0  0  0  0  0  0  0  0  0  0  0
    7.3644  -15.0808   22.7265 C   0  0  0  0  0  0  0  0  0  0  0  0
    8.6464  -15.9058   22.6726 C   0  0  2  0  0  0  0  0  0  0  0  0
    8.4127  -17.1629   22.0237 N   0  0  0  0  0  0  0  0  0  0  0  0
    9.1618  -16.0514   24.0602 C   0  0  0  0  0  0  0  0  0  0  0  0
    8.4108  -16.6341   24.8822 O   0  0  0  0  0  0  0  0  0  0  0  0
    9.7784  -15.2255   28.8966 C   0  0  0  0  0  0  0  0  0  0  0  0
    9.8884  -14.0940   27.9049 C   0  0  2  0  0  0  0  0  0  0  0  0
    9.0790  -12.9384   28.3842 C   0  0  0  0  0  0  0  0  0  0  0  0
    9.7902  -14.4807   26.4929 C   0  0  0  0  0  0  0  0  0  0  0  0
   10.7301  -15.4614   25.9170 C   0  0  2  0  0  0  0  0  0  0  0  0
   10.4260  -15.5709   24.4668 N   0  0  0  0  0  0  0  0  0  0  0  0
   10.7545  -16.8083   26.4924 C   0  0  0  0  0  0  0  0  0  0  0  0
    9.6662  -17.6444   26.6543 O   0  0  0  0  0  0  0  0  0  0  0  0
   11.8624  -17.3199   26.9099 O   0  0  0  0  0  0  0  0  0  0  0  0
  2  1  1  1
  2  3  1  0
  4  2  1  0
  5  4  2  0
  7  6  1  0
  8  7  1  0
  8  9  1  0
 10  9  1  1
 10 12  1  0
 10 11  1  0
 11  4  1  0
 12 19  1  0
 13 12  2  0
 15 14  1  1
 16 15  1  0
 17 15  1  0
 18 17  1  1
 18 20  1  0
 19 18  1  0
 20 21  1  0
 22 20  2  0
M  END
$$$$
