SLH.pdb
     RDKit          3D

 25 25  0  0  1  0  0  0  0  0999 V2000
    7.5909  -18.0188   22.0905 O   0  0  0  0  0  0  0  0  0  0  0  0
    6.5673  -17.0809   21.9884 C   0  0  0  0  0  0  0  0  0  0  0  0
    7.0879  -15.7158   21.6064 C   0  0  2  0  0  0  0  0  0  0  0  0
    7.6769  -15.7614   20.3057 N   0  0  0  0  0  0  0  0  0  0  0  0
    8.0181  -15.1603   22.6073 C   0  0  0  0  0  0  0  0  0  0  0  0
    9.2005  -14.8451   22.3679 O   0  0  0  0  0  0  0  0  0  0  0  0
    5.6191  -12.0902   26.6484 C   0  0  0  0  0  0  0  0  0  0  0  0
    6.5961  -12.5317   25.5793 C   0  0  1  0  0  0  0  0  0  0  0  0
    7.6506  -11.4188   25.4957 C   0  0  0  0  0  0  0  0  0  0  0  0
    7.3211  -13.7892   25.9726 C   0  0  0  0  0  0  0  0  0  0  0  0
    8.3306  -14.2570   24.9523 C   0  0  2  0  0  0  0  0  0  0  0  0
    7.5469  -14.9682   23.9312 N   0  0  0  0  0  0  0  0  0  0  0  0
    9.2068  -15.2578   25.5830 C   0  0  0  0  0  0  0  0  0  0  0  0
    9.8697  -15.0073   26.6469 O   0  0  0  0  0  0  0  0  0  0  0  0
    9.3816  -16.5693   25.0612 N   0  0  0  0  0  0  0  0  0  0  0  0
   10.3002  -17.5174   25.7075 C   0  0  1  0  0  0  0  0  0  0  0  0
    9.7727  -18.9230   25.5581 C   0  0  0  0  0  0  0  0  0  0  0  0
    8.6042  -19.1272   26.4362 C   0  0  0  0  0  0  0  0  0  0  0  0
    8.5189  -18.9068   27.8125 C   0  0  0  0  0  0  0  0  0  0  0  0
    7.2886  -19.2064   28.2645 N   0  0  0  0  0  0  0  0  0  0  0  0
    6.5999  -19.6130   27.1854 C   0  0  0  0  0  0  0  0  0  0  0  0
    7.3757  -19.5662   26.1078 N   0  0  0  0  0  0  0  0  0  0  0  0
   11.6163  -17.4315   25.0379 C   0  0  0  0  0  0  0  0  0  0  0  0
   12.5691  -18.1469   25.4993 O   0  0  0  0  0  0  0  0  0  0  0  0
   11.8986  -16.6426   23.9546 O   0  0  0  0  0  0  0  0  0  0  0  0
  2  1  1  0
  2  3  1  0
  3  4  1  6
  5  3  1  0
  5  6  2  0
  8  7  1  1
  8 10  1  0
  8  9  1  0
 11 10  1  1
 11 12  1  0
 12  5  1  0
 13 11  1  0
 14 13  2  0
 15 13  1  0
 16 15  1  0
 16 17  1  6
 18 17  1  0
 19 18  2  0
 20 21  1  0
 20 19  1  0
 21 22  2  0
 22 18  1  0
 23 16  1  0
 24 23  2  0
 25 23  1  0
M  END
$$$$
