SLH.pdb
     RDKit          3D

 25 25  0  0  1  0  0  0  0  0999 V2000
    7.3214  -17.8273   21.2862 O   0  0  0  0  0  0  0  0  0  0  0  0
    6.4371  -16.8263   20.8940 C   0  0  0  0  0  0  0  0  0  0  0  0
    7.1147  -15.4802   20.7964 C   0  0  2  0  0  0  0  0  0  0  0  0
    7.9570  -15.4372   19.6433 N   0  0  0  0  0  0  0  0  0  0  0  0
    7.8511  -15.1228   22.0234 C   0  0  0  0  0  0  0  0  0  0  0  0
    9.0843  -15.2437   22.1623 O   0  0  0  0  0  0  0  0  0  0  0  0
    8.2880  -11.9274   26.4110 C   0  0  0  0  0  0  0  0  0  0  0  0
    7.1757  -12.9516   26.4892 C   0  0  1  0  0  0  0  0  0  0  0  0
    5.9834  -12.2217   27.1243 C   0  0  0  0  0  0  0  0  0  0  0  0
    6.7340  -13.3994   25.1232 C   0  0  0  0  0  0  0  0  0  0  0  0
    7.7588  -14.2328   24.3924 C   0  0  2  0  0  0  0  0  0  0  0  0
    7.1181  -14.6073   23.1228 N   0  0  0  0  0  0  0  0  0  0  0  0
    7.9695  -15.4821   25.1420 C   0  0  0  0  0  0  0  0  0  0  0  0
    7.0014  -16.2492   25.4715 O   0  0  0  0  0  0  0  0  0  0  0  0
    9.2558  -15.9279   25.5539 N   0  0  0  0  0  0  0  0  0  0  0  0
    9.4136  -17.1980   26.2766 C   0  0  1  0  0  0  0  0  0  0  0  0
    9.9377  -18.2578   25.3394 C   0  0  0  0  0  0  0  0  0  0  0  0
   11.0220  -17.7095   24.5017 C   0  0  0  0  0  0  0  0  0  0  0  0
   10.9905  -17.4345   23.1329 C   0  0  0  0  0  0  0  0  0  0  0  0
   12.1720  -16.9417   22.7218 N   0  0  0  0  0  0  0  0  0  0  0  0
   12.9458  -16.9044   23.8192 C   0  0  0  0  0  0  0  0  0  0  0  0
   12.2676  -17.3570   24.8683 N   0  0  0  0  0  0  0  0  0  0  0  0
   10.3939  -17.0028   27.3670 C   0  0  0  0  0  0  0  0  0  0  0  0
   10.9424  -15.8543   27.4786 O   0  0  0  0  0  0  0  0  0  0  0  0
   10.7632  -17.9598   28.2744 O   0  0  0  0  0  0  0  0  0  0  0  0
  2  1  1  0
  2  3  1  0
  3  4  1  6
  5  3  1  0
  5  6  2  0
  8  7  1  6
  8 10  1  0
  8  9  1  0
 11 10  1  1
 11 12  1  0
 12  5  1  0
 13 11  1  0
 14 13  2  0
 15 13  1  0
 16 15  1  0
 16 17  1  6
 18 17  1  0
 19 18  2  0
 20 21  1  0
 20 19  1  0
 21 22  2  0
 22 18  1  0
 23 16  1  0
 24 23  2  0
 25 23  1  0
M  END
$$$$
