SLH.pdb
     RDKit          3D

 25 25  0  0  1  0  0  0  0  0999 V2000
    7.0358  -17.5126   21.6476 O   0  0  0  0  0  0  0  0  0  0  0  0
    7.6870  -16.9332   20.5622 C   0  0  0  0  0  0  0  0  0  0  0  0
    7.8102  -15.4354   20.7112 C   0  0  2  0  0  0  0  0  0  0  0  0
    8.5478  -14.8922   19.6149 N   0  0  0  0  0  0  0  0  0  0  0  0
    8.3888  -15.0376   22.0084 C   0  0  0  0  0  0  0  0  0  0  0  0
    9.5926  -15.1631   22.3080 O   0  0  0  0  0  0  0  0  0  0  0  0
    8.0911  -11.7581   26.4389 C   0  0  0  0  0  0  0  0  0  0  0  0
    7.0892  -12.8903   26.3560 C   0  0  1  0  0  0  0  0  0  0  0  0
    5.7663  -12.3130   26.8797 C   0  0  0  0  0  0  0  0  0  0  0  0
    6.8457  -13.3154   24.9342 C   0  0  0  0  0  0  0  0  0  0  0  0
    8.0099  -14.0427   24.3060 C   0  0  2  0  0  0  0  0  0  0  0  0
    7.5284  -14.4748   22.9854 N   0  0  0  0  0  0  0  0  0  0  0  0
    8.2716  -15.2673   25.0799 C   0  0  0  0  0  0  0  0  0  0  0  0
    7.4570  -16.2524   25.0904 O   0  0  0  0  0  0  0  0  0  0  0  0
    9.4413  -15.4469   25.8689 N   0  0  0  0  0  0  0  0  0  0  0  0
    9.9033  -16.7949   26.2294 C   0  0  1  0  0  0  0  0  0  0  0  0
   11.0107  -17.2219   25.2980 C   0  0  0  0  0  0  0  0  0  0  0  0
   11.5630  -18.5231   25.7223 C   0  0  0  0  0  0  0  0  0  0  0  0
   12.0192  -18.8867   26.9911 C   0  0  0  0  0  0  0  0  0  0  0  0
   12.4509  -20.1600   26.9920 N   0  0  0  0  0  0  0  0  0  0  0  0
   12.2704  -20.6002   25.7359 C   0  0  0  0  0  0  0  0  0  0  0  0
   11.7470  -19.6351   24.9876 N   0  0  0  0  0  0  0  0  0  0  0  0
   10.4324  -16.7598   27.6101 C   0  0  0  0  0  0  0  0  0  0  0  0
   10.8210  -17.8608   28.1291 O   0  0  0  0  0  0  0  0  0  0  0  0
   10.5420  -15.6345   28.3831 O   0  0  0  0  0  0  0  0  0  0  0  0
  2  1  1  0
  2  3  1  0
  3  4  1  6
  5  3  1  0
  5  6  2  0
  8  7  1  6
  8 10  1  0
  8  9  1  0
 11 10  1  1
 11 12  1  0
 12  5  1  0
 13 11  1  0
 14 13  2  0
 15 13  1  0
 16 15  1  0
 16 17  1  6
 18 17  1  0
 19 18  2  0
 20 21  1  0
 20 19  1  0
 21 22  2  0
 22 18  1  0
 23 16  1  0
 24 23  2  0
 25 23  1  0
M  END
$$$$
