SLH.pdb
     RDKit          3D

 25 25  0  0  1  0  0  0  0  0999 V2000
    8.8712  -18.9615   22.6874 O   0  0  0  0  0  0  0  0  0  0  0  0
    7.5235  -18.6332   22.5696 C   0  0  0  0  0  0  0  0  0  0  0  0
    7.3143  -17.3990   21.7249 C   0  0  2  0  0  0  0  0  0  0  0  0
    7.7030  -17.6567   20.3746 N   0  0  0  0  0  0  0  0  0  0  0  0
    7.9975  -16.2117   22.2721 C   0  0  0  0  0  0  0  0  0  0  0  0
    8.9769  -15.6563   21.7363 O   0  0  0  0  0  0  0  0  0  0  0  0
    7.3781  -11.4755   24.9209 C   0  0  0  0  0  0  0  0  0  0  0  0
    7.4004  -12.7078   25.8002 C   0  0  1  0  0  0  0  0  0  0  0  0
    6.3167  -12.4786   26.8635 C   0  0  0  0  0  0  0  0  0  0  0  0
    7.0075  -13.9430   25.0379 C   0  0  0  0  0  0  0  0  0  0  0  0
    8.0483  -14.4070   24.0477 C   0  0  2  0  0  0  0  0  0  0  0  0
    7.5170  -15.6580   23.4862 N   0  0  0  0  0  0  0  0  0  0  0  0
    9.2720  -14.7628   24.7846 C   0  0  0  0  0  0  0  0  0  0  0  0
   10.0719  -13.8771   25.2426 O   0  0  0  0  0  0  0  0  0  0  0  0
    9.6551  -16.1083   25.0414 N   0  0  0  0  0  0  0  0  0  0  0  0
   10.9057  -16.4094   25.7525 C   0  0  1  0  0  0  0  0  0  0  0  0
   10.5952  -17.0208   27.0963 C   0  0  0  0  0  0  0  0  0  0  0  0
   10.4554  -15.9657   28.1187 C   0  0  0  0  0  0  0  0  0  0  0  0
   10.4305  -14.5831   27.9240 C   0  0  0  0  0  0  0  0  0  0  0  0
   10.2885  -13.9422   29.0975 N   0  0  0  0  0  0  0  0  0  0  0  0
   10.2239  -14.9089   30.0278 C   0  0  0  0  0  0  0  0  0  0  0  0
   10.3224  -16.1016   29.4506 N   0  0  0  0  0  0  0  0  0  0  0  0
   11.6797  -17.3856   24.9551 C   0  0  0  0  0  0  0  0  0  0  0  0
   11.1503  -17.8340   23.8821 O   0  0  0  0  0  0  0  0  0  0  0  0
   12.9276  -17.8505   25.2748 O   0  0  0  0  0  0  0  0  0  0  0  0
  2  1  1  0
  2  3  1  0
  3  4  1  6
  5  3  1  0
  5  6  2  0
  8  7  1  6
  8 10  1  0
  8  9  1  0
 11 10  1  1
 11 12  1  0
 12  5  1  0
 13 11  1  0
 14 13  2  0
 15 13  1  0
 16 15  1  0
 16 17  1  1
 18 17  1  0
 19 18  2  0
 20 21  1  0
 20 19  1  0
 21 22  2  0
 22 18  1  0
 23 16  1  0
 24 23  2  0
 25 23  1  0
M  END
$$$$
