SLH.pdb
     RDKit          3D

 25 25  0  0  1  0  0  0  0  0999 V2000
    9.0541  -18.6071   22.6902 O   0  0  0  0  0  0  0  0  0  0  0  0
    7.6908  -18.4127   22.4867 C   0  0  0  0  0  0  0  0  0  0  0  0
    7.4145  -17.1975   21.6337 C   0  0  2  0  0  0  0  0  0  0  0  0
    7.8346  -17.4359   20.2893 N   0  0  0  0  0  0  0  0  0  0  0  0
    8.0151  -15.9674   22.1829 C   0  0  0  0  0  0  0  0  0  0  0  0
    8.9699  -15.3588   21.6607 O   0  0  0  0  0  0  0  0  0  0  0  0
    7.3159  -11.2784   24.9537 C   0  0  0  0  0  0  0  0  0  0  0  0
    7.2626  -12.5520   25.7707 C   0  0  1  0  0  0  0  0  0  0  0  0
    6.1256  -12.3487   26.7825 C   0  0  0  0  0  0  0  0  0  0  0  0
    6.8872  -13.7392   24.9274 C   0  0  0  0  0  0  0  0  0  0  0  0
    7.9767  -14.1871   23.9833 C   0  0  2  0  0  0  0  0  0  0  0  0
    7.4793  -15.4339   23.3829 N   0  0  0  0  0  0  0  0  0  0  0  0
    9.1654  -14.5458   24.7741 C   0  0  0  0  0  0  0  0  0  0  0  0
    9.9383  -13.6618   25.2795 O   0  0  0  0  0  0  0  0  0  0  0  0
    9.5422  -15.8924   25.0344 N   0  0  0  0  0  0  0  0  0  0  0  0
   10.6953  -16.1959   25.8937 C   0  0  1  0  0  0  0  0  0  0  0  0
   10.2303  -16.9039   27.1422 C   0  0  0  0  0  0  0  0  0  0  0  0
   10.0615  -15.9382   28.2455 C   0  0  0  0  0  0  0  0  0  0  0  0
    9.9364  -14.5502   28.1564 C   0  0  0  0  0  0  0  0  0  0  0  0
    9.7992  -14.0079   29.3791 N   0  0  0  0  0  0  0  0  0  0  0  0
    9.8369  -15.0418   30.2357 C   0  0  0  0  0  0  0  0  0  0  0  0
    9.9916  -16.1796   29.5671 N   0  0  0  0  0  0  0  0  0  0  0  0
   11.6126  -17.0909   25.1552 C   0  0  0  0  0  0  0  0  0  0  0  0
   11.2629  -17.4727   23.9871 O   0  0  0  0  0  0  0  0  0  0  0  0
   12.8161  -17.5459   25.6244 O   0  0  0  0  0  0  0  0  0  0  0  0
  2  1  1  0
  2  3  1  0
  3  4  1  6
  5  3  1  0
  5  6  2  0
  8  7  1  6
  8 10  1  0
  8  9  1  0
 11 10  1  1
 11 12  1  0
 12  5  1  0
 13 11  1  0
 14 13  2  0
 15 13  1  0
 16 15  1  0
 16 17  1  1
 18 17  1  0
 19 18  2  0
 20 21  1  0
 20 19  1  0
 21 22  2  0
 22 18  1  0
 23 16  1  0
 24 23  2  0
 25 23  1  0
M  END
$$$$
