SLH.pdb
     RDKit          3D

 25 25  0  0  1  0  0  0  0  0999 V2000
    7.9348  -17.7893   21.2201 O   0  0  0  0  0  0  0  0  0  0  0  0
    7.0001  -16.7922   20.9552 C   0  0  0  0  0  0  0  0  0  0  0  0
    7.6542  -15.4493   20.7332 C   0  0  2  0  0  0  0  0  0  0  0  0
    8.5293  -15.5101   19.6057 N   0  0  0  0  0  0  0  0  0  0  0  0
    8.3468  -14.9473   21.9348 C   0  0  0  0  0  0  0  0  0  0  0  0
    9.5862  -14.9016   22.0629 O   0  0  0  0  0  0  0  0  0  0  0  0
    8.5248  -11.7368   26.2918 C   0  0  0  0  0  0  0  0  0  0  0  0
    7.4706  -12.8198   26.3828 C   0  0  1  0  0  0  0  0  0  0  0  0
    6.2337  -12.1448   26.9927 C   0  0  0  0  0  0  0  0  0  0  0  0
    7.0672  -13.3199   25.0232 C   0  0  0  0  0  0  0  0  0  0  0  0
    8.1497  -14.0945   24.3110 C   0  0  2  0  0  0  0  0  0  0  0  0
    7.5611  -14.4842   23.0210 N   0  0  0  0  0  0  0  0  0  0  0  0
    8.4009  -15.3410   25.0528 C   0  0  0  0  0  0  0  0  0  0  0  0
    7.4682  -16.1736   25.3191 O   0  0  0  0  0  0  0  0  0  0  0  0
    9.6899  -15.7115   25.5261 N   0  0  0  0  0  0  0  0  0  0  0  0
    9.9036  -17.0092   26.1823 C   0  0  1  0  0  0  0  0  0  0  0  0
   11.2678  -17.5448   25.8240 C   0  0  0  0  0  0  0  0  0  0  0  0
   11.3186  -17.8990   24.3921 C   0  0  0  0  0  0  0  0  0  0  0  0
   10.2781  -17.8540   23.4617 C   0  0  0  0  0  0  0  0  0  0  0  0
   10.7077  -18.2523   22.2516 N   0  0  0  0  0  0  0  0  0  0  0  0
   12.0082  -18.5473   22.4124 C   0  0  0  0  0  0  0  0  0  0  0  0
   12.3681  -18.3389   23.6744 N   0  0  0  0  0  0  0  0  0  0  0  0
    9.8408  -16.8142   27.6472 C   0  0  0  0  0  0  0  0  0  0  0  0
    9.7397  -15.6188   28.0869 O   0  0  0  0  0  0  0  0  0  0  0  0
    9.8812  -17.8183   28.5776 O   0  0  0  0  0  0  0  0  0  0  0  0
  2  1  1  0
  2  3  1  0
  3  4  1  6
  5  3  1  0
  5  6  2  0
  8  7  1  6
  8 10  1  0
  8  9  1  0
 11 10  1  1
 11 12  1  0
 12  5  1  0
 13 11  1  0
 14 13  2  0
 15 13  1  0
 16 15  1  0
 16 17  1  1
 18 17  1  0
 19 18  2  0
 20 21  1  0
 20 19  1  0
 21 22  2  0
 22 18  1  0
 23 16  1  0
 24 23  2  0
 25 23  1  0
M  END
$$$$
