SLH.pdb
     RDKit          3D

 25 25  0  0  1  0  0  0  0  0999 V2000
    7.6416  -17.6460   21.8280 O   0  0  0  0  0  0  0  0  0  0  0  0
    8.2171  -17.1199   20.6747 C   0  0  0  0  0  0  0  0  0  0  0  0
    8.2566  -15.6105   20.7010 C   0  0  2  0  0  0  0  0  0  0  0  0
    9.0062  -15.1197   19.5883 N   0  0  0  0  0  0  0  0  0  0  0  0
    8.7638  -15.0760   21.9788 C   0  0  0  0  0  0  0  0  0  0  0  0
    9.9707  -14.8943   22.2339 O   0  0  0  0  0  0  0  0  0  0  0  0
    8.2136  -12.0828   26.4610 C   0  0  0  0  0  0  0  0  0  0  0  0
    7.1924  -13.1947   26.3467 C   0  0  1  0  0  0  0  0  0  0  0  0
    5.8572  -12.5792   26.7895 C   0  0  0  0  0  0  0  0  0  0  0  0
    7.0137  -13.6424   24.9222 C   0  0  0  0  0  0  0  0  0  0  0  0
    8.2352  -14.3047   24.3321 C   0  0  2  0  0  0  0  0  0  0  0  0
    7.8260  -14.7441   22.9897 N   0  0  0  0  0  0  0  0  0  0  0  0
    8.5270  -15.5243   25.1033 C   0  0  0  0  0  0  0  0  0  0  0  0
    7.6386  -16.4154   25.3287 O   0  0  0  0  0  0  0  0  0  0  0  0
    9.8093  -15.8024   25.6522 N   0  0  0  0  0  0  0  0  0  0  0  0
   10.0491  -17.0394   26.4089 C   0  0  1  0  0  0  0  0  0  0  0  0
   11.4261  -17.5710   26.0965 C   0  0  0  0  0  0  0  0  0  0  0  0
   11.4500  -18.1692   24.7475 C   0  0  0  0  0  0  0  0  0  0  0  0
   10.3881  -18.2996   23.8501 C   0  0  0  0  0  0  0  0  0  0  0  0
   10.7963  -18.8981   22.7175 N   0  0  0  0  0  0  0  0  0  0  0  0
   12.1047  -19.1450   22.8944 C   0  0  0  0  0  0  0  0  0  0  0  0
   12.4898  -18.7152   24.0913 N   0  0  0  0  0  0  0  0  0  0  0  0
    9.9765  -16.7315   27.8537 C   0  0  0  0  0  0  0  0  0  0  0  0
    9.8382  -15.5087   28.1977 O   0  0  0  0  0  0  0  0  0  0  0  0
   10.0443  -17.6574   28.8606 O   0  0  0  0  0  0  0  0  0  0  0  0
  2  1  1  0
  2  3  1  0
  3  4  1  6
  5  3  1  0
  5  6  2  0
  8  7  1  6
  8 10  1  0
  8  9  1  0
 11 10  1  1
 11 12  1  0
 12  5  1  0
 13 11  1  0
 14 13  2  0
 15 13  1  0
 16 15  1  0
 16 17  1  1
 18 17  1  0
 19 18  2  0
 20 21  1  0
 20 19  1  0
 21 22  2  0
 22 18  1  0
 23 16  1  0
 24 23  2  0
 25 23  1  0
M  END
$$$$
