SLH.pdb
     RDKit          3D

 25 25  0  0  1  0  0  0  0  0999 V2000
    6.4082  -18.6060   24.0142 O   0  0  0  0  0  0  0  0  0  0  0  0
    6.2202  -18.4592   22.6427 C   0  0  0  0  0  0  0  0  0  0  0  0
    6.0645  -17.0105   22.2457 C   0  0  2  0  0  0  0  0  0  0  0  0
    5.9566  -16.8997   20.8255 N   0  0  0  0  0  0  0  0  0  0  0  0
    7.1408  -16.1547   22.7794 C   0  0  0  0  0  0  0  0  0  0  0  0
    8.1942  -15.8883   22.1678 O   0  0  0  0  0  0  0  0  0  0  0  0
    5.8106  -12.2359   26.5599 C   0  0  0  0  0  0  0  0  0  0  0  0
    6.4704  -12.9443   25.3958 C   0  0  1  0  0  0  0  0  0  0  0  0
    7.3994  -11.9058   24.7507 C   0  0  0  0  0  0  0  0  0  0  0  0
    7.3414  -14.0803   25.8565 C   0  0  0  0  0  0  0  0  0  0  0  0
    8.0336  -14.8139   24.7333 C   0  0  2  0  0  0  0  0  0  0  0  0
    6.9767  -15.5933   24.0715 N   0  0  0  0  0  0  0  0  0  0  0  0
    8.9720  -15.7872   25.3159 C   0  0  0  0  0  0  0  0  0  0  0  0
    8.6293  -16.5844   26.2545 O   0  0  0  0  0  0  0  0  0  0  0  0
   10.3208  -15.9139   24.8827 N   0  0  0  0  0  0  0  0  0  0  0  0
   11.1022  -17.1164   25.2048 C   0  0  1  0  0  0  0  0  0  0  0  0
   10.4865  -18.3206   24.5361 C   0  0  0  0  0  0  0  0  0  0  0  0
    9.5710  -19.0102   25.4659 C   0  0  0  0  0  0  0  0  0  0  0  0
    9.3443  -18.7238   26.8138 C   0  0  0  0  0  0  0  0  0  0  0  0
    8.4380  -19.5710   27.3318 N   0  0  0  0  0  0  0  0  0  0  0  0
    8.0929  -20.3873   26.3224 C   0  0  0  0  0  0  0  0  0  0  0  0
    8.7610  -20.0564   25.2226 N   0  0  0  0  0  0  0  0  0  0  0  0
   12.4770  -16.9391   24.6889 C   0  0  0  0  0  0  0  0  0  0  0  0
   13.3524  -17.8133   25.0086 O   0  0  0  0  0  0  0  0  0  0  0  0
   12.8910  -15.9072   23.8893 O   0  0  0  0  0  0  0  0  0  0  0  0
  2  1  1  0
  2  3  1  0
  3  4  1  6
  5  3  1  0
  5  6  2  0
  8  7  1  1
  8 10  1  0
  8  9  1  0
 11 10  1  1
 11 12  1  0
 12  5  1  0
 13 11  1  0
 14 13  2  0
 15 13  1  0
 16 15  1  0
 16 17  1  6
 18 17  1  0
 19 18  2  0
 20 21  1  0
 20 19  1  0
 21 22  2  0
 22 18  1  0
 23 16  1  0
 24 23  2  0
 25 23  1  0
M  END
$$$$
