PWS.pdb
     RDKit          3D

 28 30  0  0  1  0  0  0  0  0999 V2000
    7.2877  -15.3799   20.7118 N   0  0  0  0  0  0  0  0  0  0  0  0
    6.6068  -14.7314   19.5934 C   0  0  0  0  0  0  0  0  0  0  0  0
    7.0320  -13.2728   19.6623 C   0  0  0  0  0  0  0  0  0  0  0  0
    8.1728  -13.2604   20.6309 C   0  0  0  0  0  0  0  0  0  0  0  0
    8.5735  -14.7204   20.6848 C   0  0  1  0  0  0  0  0  0  0  0  0
    9.3560  -14.9417   21.9104 C   0  0  0  0  0  0  0  0  0  0  0  0
   10.4841  -14.4057   22.0377 O   0  0  0  0  0  0  0  0  0  0  0  0
    8.9067  -15.7521   23.0057 N   0  0  0  0  0  0  0  0  0  0  0  0
    9.6854  -15.8550   24.2347 C   0  0  1  0  0  0  0  0  0  0  0  0
    8.8644  -15.9356   25.4700 C   0  0  0  0  0  0  0  0  0  0  0  0
    7.6379  -15.1519   25.5007 C   0  0  0  0  0  0  0  0  0  0  0  0
    6.3587  -15.4890   25.1719 C   0  0  0  0  0  0  0  0  0  0  0  0
    5.5307  -14.4245   25.3689 N   0  0  0  0  0  0  0  0  0  0  0  0
    6.2716  -13.4012   25.8241 C   0  0  0  0  0  0  0  0  0  0  0  0
    5.9023  -12.1197   26.1694 C   0  0  0  0  0  0  0  0  0  0  0  0
    6.8399  -11.2196   26.6185 C   0  0  0  0  0  0  0  0  0  0  0  0
    8.1477  -11.6122   26.7191 C   0  0  0  0  0  0  0  0  0  0  0  0
    8.4982  -12.9016   26.3683 C   0  0  0  0  0  0  0  0  0  0  0  0
    7.5884  -13.8327   25.9139 C   0  0  0  0  0  0  0  0  0  0  0  0
   10.6972  -16.9451   24.0969 C   0  0  0  0  0  0  0  0  0  0  0  0
   10.3646  -18.0898   23.6715 O   0  0  0  0  0  0  0  0  0  0  0  0
   14.3868  -16.5437   22.9822 O   0  0  0  0  0  0  0  0  0  0  0  0
   14.4129  -17.3612   24.1167 C   0  0  0  0  0  0  0  0  0  0  0  0
   13.0220  -17.8489   24.4704 C   0  0  2  0  0  0  0  0  0  0  0  0
   12.0586  -16.7674   24.4263 N   0  0  0  0  0  0  0  0  0  0  0  0
   12.9906  -18.5865   25.7376 C   0  0  0  0  0  0  0  0  0  0  0  0
   12.2414  -18.1921   26.6630 O   0  0  0  0  0  0  0  0  0  0  0  0
   13.7552  -19.7181   25.9804 O   0  0  0  0  0  0  0  0  0  0  0  0
  1  5  1  0
  2  3  1  0
  2  1  1  0
  3  4  1  0
  4  5  1  0
  5  6  1  1
  6  7  2  0
  8  9  1  0
  8  6  1  0
  9 20  1  0
 10 11  1  0
  9 10  1  1
 11 12  2  0
 12 13  1  0
 14 13  1  0
 15 14  2  0
 16 15  1  0
 17 18  1  0
 17 16  2  0
 18 19  2  0
 19 11  1  0
 19 14  1  0
 20 21  2  0
 23 22  1  0
 24 23  1  1
 24 26  1  0
 25 20  1  0
 25 24  1  0
 26 27  2  0
 26 28  1  0
M  END
$$$$
