PWS.pdb
     RDKit          3D

 28 30  0  0  1  0  0  0  0  0999 V2000
    7.4003  -15.3007   20.7415 N   0  0  0  0  0  0  0  0  0  0  0  0
    6.6863  -14.6307   19.6569 C   0  0  0  0  0  0  0  0  0  0  0  0
    7.0665  -13.1632   19.7792 C   0  0  0  0  0  0  0  0  0  0  0  0
    8.2176  -13.1526   20.7354 C   0  0  0  0  0  0  0  0  0  0  0  0
    8.6644  -14.6001   20.7271 C   0  0  1  0  0  0  0  0  0  0  0  0
    9.4678  -14.8444   21.9347 C   0  0  0  0  0  0  0  0  0  0  0  0
   10.5996  -14.3137   22.0511 O   0  0  0  0  0  0  0  0  0  0  0  0
    9.0356  -15.6724   23.0239 N   0  0  0  0  0  0  0  0  0  0  0  0
    9.8609  -15.8408   24.2146 C   0  0  1  0  0  0  0  0  0  0  0  0
    9.0975  -15.8401   25.4888 C   0  0  0  0  0  0  0  0  0  0  0  0
    7.8737  -15.0522   25.5257 C   0  0  0  0  0  0  0  0  0  0  0  0
    6.5926  -15.3837   25.1990 C   0  0  0  0  0  0  0  0  0  0  0  0
    5.7688  -14.3170   25.4021 N   0  0  0  0  0  0  0  0  0  0  0  0
    6.5144  -13.2980   25.8591 C   0  0  0  0  0  0  0  0  0  0  0  0
    6.1505  -12.0165   26.2101 C   0  0  0  0  0  0  0  0  0  0  0  0
    7.0924  -11.1214   26.6600 C   0  0  0  0  0  0  0  0  0  0  0  0
    8.3991  -11.5188   26.7557 C   0  0  0  0  0  0  0  0  0  0  0  0
    8.7442  -12.8081   26.3992 C   0  0  0  0  0  0  0  0  0  0  0  0
    7.8300  -13.7344   25.9438 C   0  0  0  0  0  0  0  0  0  0  0  0
   10.7606  -17.0199   24.0378 C   0  0  0  0  0  0  0  0  0  0  0  0
   10.2887  -18.1611   23.7602 O   0  0  0  0  0  0  0  0  0  0  0  0
   14.9714  -16.6299   24.2362 O   0  0  0  0  0  0  0  0  0  0  0  0
   14.3972  -17.6354   23.4518 C   0  0  0  0  0  0  0  0  0  0  0  0
   13.0557  -18.0653   24.0113 C   0  0  2  0  0  0  0  0  0  0  0  0
   12.1640  -16.9339   24.1670 N   0  0  0  0  0  0  0  0  0  0  0  0
   13.1867  -18.8586   25.2378 C   0  0  0  0  0  0  0  0  0  0  0  0
   12.6053  -18.4800   26.2828 O   0  0  0  0  0  0  0  0  0  0  0  0
   13.9301  -20.0271   25.3145 O   0  0  0  0  0  0  0  0  0  0  0  0
  1  5  1  0
  2  3  1  0
  2  1  1  0
  3  4  1  0
  4  5  1  0
  5  6  1  1
  6  7  2  0
  8  9  1  0
  8  6  1  0
  9 20  1  0
 10 11  1  0
  9 10  1  1
 11 12  2  0
 12 13  1  0
 14 13  1  0
 15 14  2  0
 16 15  1  0
 17 18  1  0
 17 16  2  0
 18 19  2  0
 19 11  1  0
 19 14  1  0
 20 21  2  0
 23 22  1  0
 24 23  1  1
 24 26  1  0
 25 20  1  0
 25 24  1  0
 26 27  2  0
 26 28  1  0
M  END
$$$$
