PWS.pdb
     RDKit          3D

 28 30  0  0  1  0  0  0  0  0999 V2000
    7.3629  -16.2976   21.1639 N   0  0  0  0  0  0  0  0  0  0  0  0
    6.5604  -15.8262   20.0375 C   0  0  0  0  0  0  0  0  0  0  0  0
    6.6072  -14.3085   20.1252 C   0  0  0  0  0  0  0  0  0  0  0  0
    7.6925  -14.0235   21.1154 C   0  0  0  0  0  0  0  0  0  0  0  0
    8.4438  -15.3381   21.1662 C   0  0  1  0  0  0  0  0  0  0  0  0
    9.2363  -15.3717   22.4049 C   0  0  0  0  0  0  0  0  0  0  0  0
   10.1935  -14.5738   22.5571 O   0  0  0  0  0  0  0  0  0  0  0  0
    8.9845  -16.2806   23.4861 N   0  0  0  0  0  0  0  0  0  0  0  0
    9.7286  -16.1866   24.7370 C   0  0  1  0  0  0  0  0  0  0  0  0
    8.8734  -16.1120   25.9493 C   0  0  0  0  0  0  0  0  0  0  0  0
    7.6320  -15.3597   25.8371 C   0  0  0  0  0  0  0  0  0  0  0  0
    6.3652  -15.7721   25.5488 C   0  0  0  0  0  0  0  0  0  0  0  0
    5.5141  -14.7077   25.5613 N   0  0  0  0  0  0  0  0  0  0  0  0
    6.2277  -13.6093   25.8571 C   0  0  0  0  0  0  0  0  0  0  0  0
    5.8287  -12.2972   25.9876 C   0  0  0  0  0  0  0  0  0  0  0  0
    6.7413  -11.3172   26.2998 C   0  0  0  0  0  0  0  0  0  0  0  0
    8.0543  -11.6608   26.4801 C   0  0  0  0  0  0  0  0  0  0  0  0
    8.4349  -12.9819   26.3451 C   0  0  0  0  0  0  0  0  0  0  0  0
    7.5507  -13.9928   26.0331 C   0  0  0  0  0  0  0  0  0  0  0  0
   10.7682  -17.2580   24.7832 C   0  0  0  0  0  0  0  0  0  0  0  0
   10.4531  -18.4753   24.6381 O   0  0  0  0  0  0  0  0  0  0  0  0
   14.8558  -16.2982   25.1281 O   0  0  0  0  0  0  0  0  0  0  0  0
   14.4813  -17.4857   24.4911 C   0  0  0  0  0  0  0  0  0  0  0  0
   13.1643  -18.0044   25.0332 C   0  0  2  0  0  0  0  0  0  0  0  0
   12.1379  -16.9827   24.9872 N   0  0  0  0  0  0  0  0  0  0  0  0
   13.3033  -18.6110   26.3611 C   0  0  0  0  0  0  0  0  0  0  0  0
   12.6058  -18.1825   27.3115 O   0  0  0  0  0  0  0  0  0  0  0  0
   14.1775  -19.6521   26.6363 O   0  0  0  0  0  0  0  0  0  0  0  0
  1  5  1  0
  2  3  1  0
  2  1  1  0
  3  4  1  0
  4  5  1  0
  5  6  1  1
  6  7  2  0
  8  9  1  0
  8  6  1  0
  9 20  1  0
 10 11  1  0
  9 10  1  1
 11 12  2  0
 12 13  1  0
 14 13  1  0
 15 14  2  0
 16 15  1  0
 17 18  1  0
 17 16  2  0
 18 19  2  0
 19 11  1  0
 19 14  1  0
 20 21  2  0
 23 22  1  0
 24 23  1  1
 24 26  1  0
 25 20  1  0
 25 24  1  0
 26 27  2  0
 26 28  1  0
M  END
$$$$
