PWS.pdb
     RDKit          3D

 28 30  0  0  1  0  0  0  0  0999 V2000
    7.9303  -15.3326   18.2175 N   0  0  0  0  0  0  0  0  0  0  0  0
    7.7614  -14.8136   16.8621 C   0  0  0  0  0  0  0  0  0  0  0  0
    7.7614  -13.3003   17.0142 C   0  0  0  0  0  0  0  0  0  0  0  0
    8.2441  -13.0640   18.4109 C   0  0  0  0  0  0  0  0  0  0  0  0
    8.8800  -14.3921   18.7674 C   0  0  1  0  0  0  0  0  0  0  0  0
    8.9868  -14.4768   20.2319 C   0  0  0  0  0  0  0  0  0  0  0  0
    9.8369  -13.7802   20.8386 O   0  0  0  0  0  0  0  0  0  0  0  0
    8.1615  -15.3261   21.0420 N   0  0  0  0  0  0  0  0  0  0  0  0
    8.1965  -15.2428   22.4978 C   0  0  1  0  0  0  0  0  0  0  0  0
    6.8809  -14.9495   23.1220 C   0  0  0  0  0  0  0  0  0  0  0  0
    6.8442  -14.8581   24.5746 C   0  0  0  0  0  0  0  0  0  0  0  0
    6.7113  -15.8275   25.5235 C   0  0  0  0  0  0  0  0  0  0  0  0
    6.7391  -15.2699   26.7668 N   0  0  0  0  0  0  0  0  0  0  0  0
    6.8898  -13.9433   26.6233 C   0  0  0  0  0  0  0  0  0  0  0  0
    6.9734  -12.9492   27.5734 C   0  0  0  0  0  0  0  0  0  0  0  0
    7.1282  -11.6355   27.1981 C   0  0  0  0  0  0  0  0  0  0  0  0
    7.1987  -11.3254   25.8664 C   0  0  0  0  0  0  0  0  0  0  0  0
    7.1130  -12.3364   24.9287 C   0  0  0  0  0  0  0  0  0  0  0  0
    6.9575  -13.6646   25.2646 C   0  0  0  0  0  0  0  0  0  0  0  0
    8.8851  -16.4468   23.0520 C   0  0  0  0  0  0  0  0  0  0  0  0
    8.5169  -17.6131   22.7259 O   0  0  0  0  0  0  0  0  0  0  0  0
   12.7891  -16.2810   24.3529 O   0  0  0  0  0  0  0  0  0  0  0  0
   12.1549  -17.4547   23.9332 C   0  0  0  0  0  0  0  0  0  0  0  0
   10.7205  -17.5046   24.4206 C   0  0  2  0  0  0  0  0  0  0  0  0
    9.9668  -16.3580   23.9550 N   0  0  0  0  0  0  0  0  0  0  0  0
   10.6266  -17.6953   25.8716 C   0  0  0  0  0  0  0  0  0  0  0  0
    9.9865  -16.8671   26.5628 O   0  0  0  0  0  0  0  0  0  0  0  0
   11.2148  -18.7584   26.5408 O   0  0  0  0  0  0  0  0  0  0  0  0
  1  5  1  0
  2  3  1  0
  2  1  1  0
  3  4  1  0
  4  5  1  0
  5  6  1  1
  6  7  2  0
  8  9  1  0
  8  6  1  0
  9 20  1  0
 10 11  1  0
  9 10  1  1
 11 12  2  0
 12 13  1  0
 14 13  1  0
 15 14  2  0
 16 15  1  0
 17 18  1  0
 17 16  2  0
 18 19  2  0
 19 11  1  0
 19 14  1  0
 20 21  2  0
 23 22  1  0
 24 23  1  1
 24 26  1  0
 25 20  1  0
 25 24  1  0
 26 27  2  0
 26 28  1  0
M  END
$$$$
