PWS.pdb
     RDKit          3D

 28 30  0  0  1  0  0  0  0  0999 V2000
    7.3790  -16.4570   20.9508 N   0  0  0  0  0  0  0  0  0  0  0  0
    6.5566  -16.1210   19.7907 C   0  0  0  0  0  0  0  0  0  0  0  0
    6.5775  -14.6021   19.7166 C   0  0  0  0  0  0  0  0  0  0  0  0
    7.6678  -14.1958   20.6577 C   0  0  0  0  0  0  0  0  0  0  0  0
    8.4427  -15.4850   20.8382 C   0  0  1  0  0  0  0  0  0  0  0  0
    9.2486  -15.3740   22.0636 C   0  0  0  0  0  0  0  0  0  0  0  0
   10.2512  -14.6189   22.0868 O   0  0  0  0  0  0  0  0  0  0  0  0
    8.9604  -16.0902   23.2730 N   0  0  0  0  0  0  0  0  0  0  0  0
    9.7812  -15.9140   24.4657 C   0  0  1  0  0  0  0  0  0  0  0  0
    9.0232  -15.9832   25.7413 C   0  0  0  0  0  0  0  0  0  0  0  0
    7.7771  -15.2337   25.8112 C   0  0  0  0  0  0  0  0  0  0  0  0
    6.4872  -15.6336   25.6263 C   0  0  0  0  0  0  0  0  0  0  0  0
    5.6422  -14.5788   25.8018 N   0  0  0  0  0  0  0  0  0  0  0  0
    6.3828  -13.4990   26.0996 C   0  0  0  0  0  0  0  0  0  0  0  0
    5.9997  -12.2022   26.3632 C   0  0  0  0  0  0  0  0  0  0  0  0
    6.9400  -11.2403   26.6484 C   0  0  0  0  0  0  0  0  0  0  0  0
    8.2645  -11.5864   26.6678 C   0  0  0  0  0  0  0  0  0  0  0  0
    8.6288  -12.8920   26.4010 C   0  0  0  0  0  0  0  0  0  0  0  0
    7.7168  -13.8846   26.1108 C   0  0  0  0  0  0  0  0  0  0  0  0
   10.9610  -16.8277   24.4014 C   0  0  0  0  0  0  0  0  0  0  0  0
   10.8127  -18.0653   24.1811 O   0  0  0  0  0  0  0  0  0  0  0  0
   14.5556  -16.0512   22.9088 O   0  0  0  0  0  0  0  0  0  0  0  0
   14.6983  -16.5582   24.2044 C   0  0  0  0  0  0  0  0  0  0  0  0
   13.4328  -17.2572   24.6597 C   0  0  2  0  0  0  0  0  0  0  0  0
   12.2864  -16.3747   24.5788 N   0  0  0  0  0  0  0  0  0  0  0  0
   13.5786  -17.8798   25.9795 C   0  0  0  0  0  0  0  0  0  0  0  0
   12.8118  -17.5380   26.9114 O   0  0  0  0  0  0  0  0  0  0  0  0
   14.5332  -18.8445   26.2663 O   0  0  0  0  0  0  0  0  0  0  0  0
  1  5  1  0
  2  3  1  0
  2  1  1  0
  3  4  1  0
  4  5  1  0
  5  6  1  1
  6  7  2  0
  8  9  1  0
  8  6  1  0
  9 20  1  0
 10 11  1  0
  9 10  1  1
 11 12  2  0
 12 13  1  0
 14 13  1  0
 15 14  2  0
 16 15  1  0
 17 18  1  0
 17 16  2  0
 18 19  2  0
 19 11  1  0
 19 14  1  0
 20 21  2  0
 23 22  1  0
 24 23  1  1
 24 26  1  0
 25 20  1  0
 25 24  1  0
 26 27  2  0
 26 28  1  0
M  END
$$$$
