PWS.pdb
     RDKit          3D

 28 30  0  0  1  0  0  0  0  0999 V2000
    7.8333  -15.0241   18.2034 N   0  0  0  0  0  0  0  0  0  0  0  0
    7.6637  -14.4006   16.8928 C   0  0  0  0  0  0  0  0  0  0  0  0
    7.8209  -12.9083   17.1405 C   0  0  0  0  0  0  0  0  0  0  0  0
    8.3796  -12.8151   18.5257 C   0  0  0  0  0  0  0  0  0  0  0  0
    8.8932  -14.2197   18.7676 C   0  0  1  0  0  0  0  0  0  0  0  0
    9.0488  -14.4133   20.2173 C   0  0  0  0  0  0  0  0  0  0  0  0
   10.0586  -13.9539   20.8050 O   0  0  0  0  0  0  0  0  0  0  0  0
    8.0977  -15.1119   21.0333 N   0  0  0  0  0  0  0  0  0  0  0  0
    8.2036  -15.1023   22.4880 C   0  0  1  0  0  0  0  0  0  0  0  0
    6.8974  -15.0380   23.1924 C   0  0  0  0  0  0  0  0  0  0  0  0
    6.9338  -14.9280   24.6437 C   0  0  0  0  0  0  0  0  0  0  0  0
    6.9287  -15.8905   25.6089 C   0  0  0  0  0  0  0  0  0  0  0  0
    6.9817  -15.3138   26.8426 N   0  0  0  0  0  0  0  0  0  0  0  0
    7.0213  -13.9819   26.6768 C   0  0  0  0  0  0  0  0  0  0  0  0
    7.0800  -12.9702   27.6101 C   0  0  0  0  0  0  0  0  0  0  0  0
    7.1119  -11.6542   27.2126 C   0  0  0  0  0  0  0  0  0  0  0  0
    7.0847  -11.3597   25.8759 C   0  0  0  0  0  0  0  0  0  0  0  0
    7.0259  -12.3881   24.9553 C   0  0  0  0  0  0  0  0  0  0  0  0
    6.9923  -13.7191   25.3135 C   0  0  0  0  0  0  0  0  0  0  0  0
    9.0876  -16.2209   22.9333 C   0  0  0  0  0  0  0  0  0  0  0  0
    8.9157  -17.3970   22.4984 O   0  0  0  0  0  0  0  0  0  0  0  0
   13.4630  -17.6161   24.0474 O   0  0  0  0  0  0  0  0  0  0  0  0
   12.5192  -16.6313   23.7386 C   0  0  0  0  0  0  0  0  0  0  0  0
   11.1268  -17.0585   24.1584 C   0  0  2  0  0  0  0  0  0  0  0  0
   10.1474  -16.0369   23.8479 N   0  0  0  0  0  0  0  0  0  0  0  0
   11.0706  -17.4932   25.5579 C   0  0  0  0  0  0  0  0  0  0  0  0
   11.8751  -18.3646   25.9664 O   0  0  0  0  0  0  0  0  0  0  0  0
   10.1626  -16.9888   26.4772 O   0  0  0  0  0  0  0  0  0  0  0  0
  1  5  1  0
  2  3  1  0
  2  1  1  0
  3  4  1  0
  4  5  1  0
  5  6  1  1
  6  7  2  0
  8  9  1  0
  8  6  1  0
  9 20  1  0
 10 11  1  0
  9 10  1  1
 11 12  2  0
 12 13  1  0
 14 13  1  0
 15 14  2  0
 16 15  1  0
 17 18  1  0
 17 16  2  0
 18 19  2  0
 19 11  1  0
 19 14  1  0
 20 21  2  0
 23 22  1  0
 24 23  1  1
 24 26  1  0
 25 20  1  0
 25 24  1  0
 26 27  2  0
 26 28  1  0
M  END
$$$$
