EAV.pdb
     RDKit          3D

 22 21  0  0  1  0  0  0  0  0999 V2000
   16.6497  -14.1650  -17.7220 N   0  0  0  0  0  0  0  0  0  0  0  0
   16.6561  -13.3513  -16.5706 C   0  0  1  0  0  0  0  0  0  0  0  0
   17.2379  -13.9471  -15.3390 C   0  0  0  0  0  0  0  0  0  0  0  0
   16.5596  -15.1544  -14.8373 C   0  0  0  0  0  0  0  0  0  0  0  0
   15.1598  -14.9643  -14.4588 C   0  0  0  0  0  0  0  0  0  0  0  0
   14.7833  -14.0162  -13.7581 O   0  0  0  0  0  0  0  0  0  0  0  0
   17.2577  -12.0048  -16.8243 C   0  0  0  0  0  0  0  0  0  0  0  0
   18.3877  -11.9054  -17.4054 O   0  0  0  0  0  0  0  0  0  0  0  0
   14.2249  -15.9174  -14.9268 O   0  0  0  0  0  0  0  0  0  0  0  0
   16.0102   -8.5332  -16.5315 C   0  0  0  0  0  0  0  0  0  0  0  0
   17.1474   -9.5083  -16.7462 C   0  0  2  0  0  0  0  0  0  0  0  0
   16.6077  -10.8414  -16.4354 N   0  0  0  0  0  0  0  0  0  0  0  0
   18.2042   -9.2539  -15.7372 C   0  0  0  0  0  0  0  0  0  0  0  0
   18.1717   -9.7000  -14.5600 O   0  0  0  0  0  0  0  0  0  0  0  0
   22.9040   -8.0399  -15.0056 C   0  0  0  0  0  0  0  0  0  0  0  0
   21.7568   -8.4288  -15.8753 C   0  0  1  0  0  0  0  0  0  0  0  0
   21.9088   -9.8514  -16.3503 C   0  0  0  0  0  0  0  0  0  0  0  0
   20.4173   -8.1996  -15.2054 C   0  0  2  0  0  0  0  0  0  0  0  0
   19.3236   -8.4609  -16.1126 N   0  0  0  0  0  0  0  0  0  0  0  0
   20.2982   -6.8262  -14.6700 C   0  0  0  0  0  0  0  0  0  0  0  0
   19.5249   -5.8294  -15.2416 O   0  0  0  0  0  0  0  0  0  0  0  0
   20.9305   -6.5258  -13.6321 O   0  0  0  0  0  0  0  0  0  0  0  0
  2  1  1  6
  3  2  1  0
  4  3  1  0
  4  5  1  0
  5  9  1  0
  5  6  2  0
  7  2  1  0
  8  7  2  0
 11 10  1  1
 11 13  1  0
 11 12  1  0
 12  7  1  0
 13 19  1  0
 14 13  2  0
 16 15  1  1
 16 17  1  0
 18 16  1  0
 18 20  1  0
 18 19  1  6
 20 22  2  0
 20 21  1  0
M  END
$$$$
