EAV.pdb
     RDKit          3D

 22 21  0  0  1  0  0  0  0  0999 V2000
   20.4567  -12.3314  -18.4592 N   0  0  0  0  0  0  0  0  0  0  0  0
   19.8014  -11.1085  -18.2081 C   0  0  1  0  0  0  0  0  0  0  0  0
   18.4808  -11.1891  -17.5301 C   0  0  0  0  0  0  0  0  0  0  0  0
   17.5159  -12.1259  -18.1307 C   0  0  0  0  0  0  0  0  0  0  0  0
   16.1863  -12.1181  -17.5218 C   0  0  0  0  0  0  0  0  0  0  0  0
   15.8958  -11.3843  -16.5685 O   0  0  0  0  0  0  0  0  0  0  0  0
   20.6804  -10.1213  -17.5067 C   0  0  0  0  0  0  0  0  0  0  0  0
   21.2035  -10.4130  -16.3816 O   0  0  0  0  0  0  0  0  0  0  0  0
   15.2174  -12.9940  -18.0655 O   0  0  0  0  0  0  0  0  0  0  0  0
   22.1276   -6.8369  -18.4349 C   0  0  0  0  0  0  0  0  0  0  0  0
   21.8529   -7.9152  -17.4092 C   0  0  2  0  0  0  0  0  0  0  0  0
   20.9444   -8.8743  -18.0569 N   0  0  0  0  0  0  0  0  0  0  0  0
   21.0876   -7.3309  -16.2811 C   0  0  0  0  0  0  0  0  0  0  0  0
   19.8313   -7.2494  -16.2538 O   0  0  0  0  0  0  0  0  0  0  0  0
   22.4891   -7.8448  -12.4889 C   0  0  0  0  0  0  0  0  0  0  0  0
   21.1194   -7.4093  -12.8865 C   0  0  1  0  0  0  0  0  0  0  0  0
   20.3344   -6.9589  -11.6809 C   0  0  0  0  0  0  0  0  0  0  0  0
   21.1390   -6.3525  -13.9719 C   0  0  2  0  0  0  0  0  0  0  0  0
   21.8067   -6.8311  -15.1604 N   0  0  0  0  0  0  0  0  0  0  0  0
   21.7833   -5.1036  -13.5117 C   0  0  0  0  0  0  0  0  0  0  0  0
   21.1083   -4.0483  -12.9207 O   0  0  0  0  0  0  0  0  0  0  0  0
   23.0198   -4.9729  -13.6571 O   0  0  0  0  0  0  0  0  0  0  0  0
  2  1  1  1
  3  2  1  0
  4  3  1  0
  4  5  1  0
  5  9  1  0
  5  6  2  0
  7  2  1  0
  8  7  2  0
 11 10  1  6
 11 13  1  0
 11 12  1  0
 12  7  1  0
 13 19  1  0
 14 13  2  0
 16 15  1  1
 16 17  1  0
 18 16  1  0
 18 20  1  0
 18 19  1  6
 20 22  2  0
 20 21  1  0
M  END
$$$$
