EAV.pdb
     RDKit          3D

 22 21  0  0  1  0  0  0  0  0999 V2000
   15.3803  -10.8199  -16.3582 N   0  0  0  0  0  0  0  0  0  0  0  0
   16.5560  -11.3852  -15.8234 C   0  0  1  0  0  0  0  0  0  0  0  0
   16.8102  -12.8151  -16.1416 C   0  0  0  0  0  0  0  0  0  0  0  0
   15.8003  -13.7646  -15.6438 C   0  0  0  0  0  0  0  0  0  0  0  0
   16.0815  -15.1713  -15.9284 C   0  0  0  0  0  0  0  0  0  0  0  0
   17.1161  -15.5404  -16.4983 O   0  0  0  0  0  0  0  0  0  0  0  0
   17.7726  -10.5674  -16.1235 C   0  0  0  0  0  0  0  0  0  0  0  0
   18.9285  -10.9904  -15.7926 O   0  0  0  0  0  0  0  0  0  0  0  0
   15.1146  -16.1219  -15.5247 O   0  0  0  0  0  0  0  0  0  0  0  0
   18.3907   -7.3851  -17.9301 C   0  0  0  0  0  0  0  0  0  0  0  0
   18.8543   -8.4963  -17.0135 C   0  0  2  0  0  0  0  0  0  0  0  0
   17.6743   -9.3385  -16.7619 N   0  0  0  0  0  0  0  0  0  0  0  0
   19.2278   -7.9196  -15.6991 C   0  0  0  0  0  0  0  0  0  0  0  0
   18.3969   -7.6346  -14.7968 O   0  0  0  0  0  0  0  0  0  0  0  0
   21.0517   -9.3850  -13.0212 C   0  0  0  0  0  0  0  0  0  0  0  0
   21.8660   -8.1970  -13.4074 C   0  0  1  0  0  0  0  0  0  0  0  0
   23.0909   -8.6203  -14.1775 C   0  0  0  0  0  0  0  0  0  0  0  0
   21.0582   -7.1603  -14.1611 C   0  0  2  0  0  0  0  0  0  0  0  0
   20.6027   -7.6710  -15.4336 N   0  0  0  0  0  0  0  0  0  0  0  0
   21.8253   -5.9141  -14.3743 C   0  0  0  0  0  0  0  0  0  0  0  0
   22.1063   -4.9903  -13.3813 O   0  0  0  0  0  0  0  0  0  0  0  0
   22.2578   -5.6600  -15.5213 O   0  0  0  0  0  0  0  0  0  0  0  0
  2  1  1  6
  3  2  1  0
  4  3  1  0
  4  5  1  0
  5  9  1  0
  5  6  2  0
  7  2  1  0
  8  7  2  0
 11 10  1  6
 11 13  1  0
 11 12  1  0
 12  7  1  0
 13 19  1  0
 14 13  2  0
 16 15  1  6
 16 17  1  0
 18 16  1  0
 18 20  1  0
 18 19  1  6
 20 22  2  0
 20 21  1  0
M  END
$$$$
