INV.pdb
     RDKit          3D

 24 23  0  0  1  0  0  0  0  0999 V2000
   19.8152  -12.6058  -15.5864 C   0  0  0  0  0  0  0  0  0  0  0  0
   19.3005  -11.4106  -16.3533 C   0  0  0  0  0  0  0  0  0  0  0  0
   19.4111  -10.1253  -15.6138 C   0  0  2  0  0  0  0  0  0  0  0  0
   18.4817  -10.1938  -14.4195 C   0  0  0  0  0  0  0  0  0  0  0  0
   19.0992   -8.9149  -16.4536 C   0  0  2  0  0  0  0  0  0  0  0  0
   19.9183   -8.7959  -17.6133 N   0  0  0  0  0  0  0  0  0  0  0  0
   19.1090   -7.6675  -15.6607 C   0  0  0  0  0  0  0  0  0  0  0  0
   18.3470   -7.5639  -14.6836 O   0  0  0  0  0  0  0  0  0  0  0  0
   20.6857   -6.3434  -12.7249 N   0  0  0  0  0  0  0  0  0  0  0  0
   21.6985   -5.6250  -13.4054 C   0  0  0  0  0  0  0  0  0  0  0  0
   22.8005   -5.4366  -12.8462 O   0  0  0  0  0  0  0  0  0  0  0  0
   21.4548   -5.1054  -14.7584 C   0  0  0  0  0  0  0  0  0  0  0  0
   20.0515   -5.3821  -15.2367 C   0  0  2  0  0  0  0  0  0  0  0  0
   19.9778   -6.6165  -16.0208 N   0  0  0  0  0  0  0  0  0  0  0  0
   19.5446   -4.2820  -16.0997 C   0  0  0  0  0  0  0  0  0  0  0  0
   19.9484   -4.1279  -17.2875 O   0  0  0  0  0  0  0  0  0  0  0  0
   16.1309   -3.6193  -17.3088 C   0  0  0  0  0  0  0  0  0  0  0  0
   16.5391   -2.4332  -16.4618 C   0  0  1  0  0  0  0  0  0  0  0  0
   15.9970   -2.5406  -15.0552 C   0  0  0  0  0  0  0  0  0  0  0  0
   18.0518   -2.2763  -16.4714 C   0  0  2  0  0  0  0  0  0  0  0  0
   18.5791   -3.3427  -15.6396 N   0  0  0  0  0  0  0  0  0  0  0  0
   18.4589   -0.9829  -15.8647 C   0  0  0  0  0  0  0  0  0  0  0  0
   18.5308    0.1928  -16.6158 O   0  0  0  0  0  0  0  0  0  0  0  0
   18.7568   -0.8846  -14.6522 O   0  0  0  0  0  0  0  0  0  0  0  0
  2  1  1  0
  3  2  1  0
  3  4  1  1
  5  7  1  0
  5  3  1  0
  5  6  1  6
  7  8  2  0
 10  9  1  0
 11 10  2  0
 13 12  1  6
 12 10  1  0
 14 13  1  0
 14  7  1  0
 15 21  1  0
 15 13  1  0
 16 15  2  0
 18 17  1  6
 19 18  1  0
 20 18  1  0
 20 21  1  1
 22 23  1  0
 22 20  1  0
 24 22  2  0
M  END
$$$$
