INV.pdb
     RDKit          3D

 24 23  0  0  1  0  0  0  0  0999 V2000
   27.0857  -23.3697  -20.6320 C   0  0  0  0  0  0  0  0  0  0  0  0
   27.7012  -23.3946  -19.2530 C   0  0  0  0  0  0  0  0  0  0  0  0
   26.7078  -23.3512  -18.1474 C   0  0  2  0  0  0  0  0  0  0  0  0
   25.9170  -22.0662  -18.2822 C   0  0  0  0  0  0  0  0  0  0  0  0
   27.3232  -23.4481  -16.7764 C   0  0  2  0  0  0  0  0  0  0  0  0
   28.0278  -24.6656  -16.5496 N   0  0  0  0  0  0  0  0  0  0  0  0
   26.3398  -23.1905  -15.7034 C   0  0  0  0  0  0  0  0  0  0  0  0
   25.6908  -24.1418  -15.2344 O   0  0  0  0  0  0  0  0  0  0  0  0
   25.5737  -23.0184  -11.7596 N   0  0  0  0  0  0  0  0  0  0  0  0
   26.1303  -21.7168  -11.7915 C   0  0  0  0  0  0  0  0  0  0  0  0
   26.7543  -21.2902  -10.7960 O   0  0  0  0  0  0  0  0  0  0  0  0
   25.9749  -20.8752  -12.9863 C   0  0  0  0  0  0  0  0  0  0  0  0
   25.2576  -21.5898  -14.1041 C   0  0  2  0  0  0  0  0  0  0  0  0
   26.1514  -21.8761  -15.2281 N   0  0  0  0  0  0  0  0  0  0  0  0
   24.1308  -20.7767  -14.6342 C   0  0  0  0  0  0  0  0  0  0  0  0
   24.3192  -19.6474  -15.1697 O   0  0  0  0  0  0  0  0  0  0  0  0
   22.0175  -21.2503  -17.3354 C   0  0  0  0  0  0  0  0  0  0  0  0
   21.0353  -21.1639  -16.1870 C   0  0  1  0  0  0  0  0  0  0  0  0
   20.5373  -22.5303  -15.7762 C   0  0  0  0  0  0  0  0  0  0  0  0
   21.6583  -20.4171  -15.0178 C   0  0  2  0  0  0  0  0  0  0  0  0
   22.7803  -21.2217  -14.5694 N   0  0  0  0  0  0  0  0  0  0  0  0
   20.7018  -20.3007  -13.8871 C   0  0  0  0  0  0  0  0  0  0  0  0
   19.7363  -19.2922  -13.8400 O   0  0  0  0  0  0  0  0  0  0  0  0
   20.7151  -21.1003  -12.9233 O   0  0  0  0  0  0  0  0  0  0  0  0
  2  1  1  0
  3  2  1  0
  3  4  1  1
  5  7  1  0
  5  3  1  0
  5  6  1  1
  7  8  2  0
 10  9  1  0
 11 10  2  0
 13 12  1  1
 12 10  1  0
 14 13  1  0
 14  7  1  0
 15 21  1  0
 15 13  1  0
 16 15  2  0
 18 17  1  6
 19 18  1  0
 20 18  1  0
 20 21  1  1
 22 23  1  0
 22 20  1  0
 24 22  2  0
M  END
$$$$
