INV.pdb
     RDKit          3D

 24 23  0  0  1  0  0  0  0  0999 V2000
   27.2760  -26.0925  -16.5808 C   0  0  0  0  0  0  0  0  0  0  0  0
   26.9807  -24.6232  -16.7683 C   0  0  0  0  0  0  0  0  0  0  0  0
   25.9203  -24.1004  -15.8665 C   0  0  2  0  0  0  0  0  0  0  0  0
   24.6607  -24.9048  -16.1136 C   0  0  0  0  0  0  0  0  0  0  0  0
   25.6475  -22.6299  -16.0417 C   0  0  2  0  0  0  0  0  0  0  0  0
   26.8075  -21.8126  -15.9124 N   0  0  0  0  0  0  0  0  0  0  0  0
   24.5575  -22.1555  -15.1631 C   0  0  0  0  0  0  0  0  0  0  0  0
   24.8055  -21.9044  -13.9708 O   0  0  0  0  0  0  0  0  0  0  0  0
   23.7108  -19.3377  -14.0825 N   0  0  0  0  0  0  0  0  0  0  0  0
   22.5673  -19.0455  -14.8647 C   0  0  0  0  0  0  0  0  0  0  0  0
   22.3099  -17.8580  -15.1582 O   0  0  0  0  0  0  0  0  0  0  0  0
   21.6908  -20.1307  -15.3272 C   0  0  0  0  0  0  0  0  0  0  0  0
   22.1591  -21.4866  -14.8616 C   0  0  2  0  0  0  0  0  0  0  0  0
   23.2575  -21.9950  -15.6857 N   0  0  0  0  0  0  0  0  0  0  0  0
   21.0632  -22.4903  -14.9215 C   0  0  0  0  0  0  0  0  0  0  0  0
   20.6974  -23.0118  -16.0133 O   0  0  0  0  0  0  0  0  0  0  0  0
   18.1726  -25.6764  -12.5249 C   0  0  0  0  0  0  0  0  0  0  0  0
   19.3570  -24.7367  -12.5970 C   0  0  1  0  0  0  0  0  0  0  0  0
   20.6664  -25.4911  -12.6077 C   0  0  0  0  0  0  0  0  0  0  0  0
   19.2268  -23.8186  -13.8024 C   0  0  2  0  0  0  0  0  0  0  0  0
   20.3659  -22.9200  -13.7574 N   0  0  0  0  0  0  0  0  0  0  0  0
   17.9939  -22.9943  -13.7158 C   0  0  0  0  0  0  0  0  0  0  0  0
   17.9447  -21.8197  -12.9611 O   0  0  0  0  0  0  0  0  0  0  0  0
   16.9409  -23.3125  -14.3144 O   0  0  0  0  0  0  0  0  0  0  0  0
  2  1  1  0
  3  2  1  0
  3  4  1  6
  5  7  1  0
  5  3  1  0
  5  6  1  1
  7  8  2  0
 10  9  1  0
 11 10  2  0
 13 12  1  6
 12 10  1  0
 14 13  1  0
 14  7  1  0
 15 21  1  0
 15 13  1  0
 16 15  2  0
 18 17  1  6
 19 18  1  0
 20 18  1  0
 20 21  1  1
 22 23  1  0
 22 20  1  0
 24 22  2  0
M  END
$$$$
