INV.pdb
     RDKit          3D

 24 23  0  0  1  0  0  0  0  0999 V2000
   10.6947  -13.3212  -10.6387 C   0  0  0  0  0  0  0  0  0  0  0  0
   11.6314  -13.2123  -11.8185 C   0  0  0  0  0  0  0  0  0  0  0  0
   12.8933  -12.4835  -11.5225 C   0  0  2  0  0  0  0  0  0  0  0  0
   12.5259  -11.1123  -10.9939 C   0  0  0  0  0  0  0  0  0  0  0  0
   13.8137  -12.3604  -12.7080 C   0  0  2  0  0  0  0  0  0  0  0  0
   14.1690  -13.6117  -13.2896 N   0  0  0  0  0  0  0  0  0  0  0  0
   15.0129  -11.5520  -12.4024 C   0  0  0  0  0  0  0  0  0  0  0  0
   16.1394  -12.0381  -12.6039 O   0  0  0  0  0  0  0  0  0  0  0  0
   18.2523   -7.7273  -11.7763 N   0  0  0  0  0  0  0  0  0  0  0  0
   17.9158   -8.3376  -13.0089 C   0  0  0  0  0  0  0  0  0  0  0  0
   18.6252   -8.1229  -14.0154 O   0  0  0  0  0  0  0  0  0  0  0  0
   16.7415   -9.2164  -13.1027 C   0  0  0  0  0  0  0  0  0  0  0  0
   16.0008   -9.3284  -11.7937 C   0  0  2  0  0  0  0  0  0  0  0  0
   14.8644  -10.2469  -11.8890 N   0  0  0  0  0  0  0  0  0  0  0  0
   15.4661   -8.0110  -11.3572 C   0  0  0  0  0  0  0  0  0  0  0  0
   14.6973   -7.3282  -12.0923 O   0  0  0  0  0  0  0  0  0  0  0  0
   13.2497   -7.4438   -8.7261 C   0  0  0  0  0  0  0  0  0  0  0  0
   14.4161   -6.5492   -8.3653 C   0  0  1  0  0  0  0  0  0  0  0  0
   15.2861   -7.1719   -7.2981 C   0  0  0  0  0  0  0  0  0  0  0  0
   15.2161   -6.2007   -9.6109 C   0  0  2  0  0  0  0  0  0  0  0  0
   15.7882   -7.4453  -10.0914 N   0  0  0  0  0  0  0  0  0  0  0  0
   16.3365   -5.2807   -9.2866 C   0  0  0  0  0  0  0  0  0  0  0  0
   16.1481   -3.9009   -9.1761 O   0  0  0  0  0  0  0  0  0  0  0  0
   17.5021   -5.6976   -9.0970 O   0  0  0  0  0  0  0  0  0  0  0  0
  2  1  1  0
  3  2  1  0
  3  4  1  6
  5  7  1  0
  5  3  1  0
  5  6  1  1
  7  8  2  0
 10  9  1  0
 11 10  2  0
 13 12  1  6
 12 10  1  0
 14 13  1  0
 14  7  1  0
 15 21  1  0
 15 13  1  0
 16 15  2  0
 18 17  1  6
 19 18  1  0
 20 18  1  0
 20 21  1  1
 22 23  1  0
 22 20  1  0
 24 22  2  0
M  END
$$$$
