INV.pdb
     RDKit          3D

 24 23  0  0  1  0  0  0  0  0999 V2000
   14.9950  -12.9016  -13.5944 C   0  0  0  0  0  0  0  0  0  0  0  0
   15.9744  -11.8007  -13.2624 C   0  0  0  0  0  0  0  0  0  0  0  0
   15.3377  -10.5649  -12.7348 C   0  0  2  0  0  0  0  0  0  0  0  0
   14.3995  -10.0337  -13.7989 C   0  0  0  0  0  0  0  0  0  0  0  0
   16.3239   -9.5029  -12.3261 C   0  0  2  0  0  0  0  0  0  0  0  0
   17.2080   -9.9118  -11.2862 N   0  0  0  0  0  0  0  0  0  0  0  0
   15.6616   -8.2238  -11.9939 C   0  0  0  0  0  0  0  0  0  0  0  0
   14.7746   -7.7866  -12.7475 O   0  0  0  0  0  0  0  0  0  0  0  0
   15.1501   -7.4823   -7.1992 N   0  0  0  0  0  0  0  0  0  0  0  0
   14.6860   -6.5824   -8.1890 C   0  0  0  0  0  0  0  0  0  0  0  0
   13.4572   -6.3980   -8.3250 O   0  0  0  0  0  0  0  0  0  0  0  0
   15.6425   -5.8715   -9.0490 C   0  0  0  0  0  0  0  0  0  0  0  0
   15.4685   -6.2126  -10.5078 C   0  0  2  0  0  0  0  0  0  0  0  0
   16.0425   -7.5199  -10.8327 N   0  0  0  0  0  0  0  0  0  0  0  0
   16.1328   -5.2106  -11.3833 C   0  0  0  0  0  0  0  0  0  0  0  0
   17.3824   -5.2169  -11.5729 O   0  0  0  0  0  0  0  0  0  0  0  0
   15.5958   -2.3117  -15.2727 C   0  0  0  0  0  0  0  0  0  0  0  0
   15.1115   -3.3178  -14.2508 C   0  0  1  0  0  0  0  0  0  0  0  0
   15.0145   -4.7064  -14.8391 C   0  0  0  0  0  0  0  0  0  0  0  0
   16.0052   -3.2890  -13.0206 C   0  0  2  0  0  0  0  0  0  0  0  0
   15.4024   -4.1905  -12.0557 N   0  0  0  0  0  0  0  0  0  0  0  0
   16.0390   -1.9325  -12.4160 C   0  0  0  0  0  0  0  0  0  0  0  0
   17.1021   -1.0536  -12.6375 O   0  0  0  0  0  0  0  0  0  0  0  0
   15.1172   -1.5123  -11.6798 O   0  0  0  0  0  0  0  0  0  0  0  0
  2  1  1  0
  3  2  1  0
  3  4  1  6
  5  7  1  0
  5  3  1  0
  5  6  1  1
  7  8  2  0
 10  9  1  0
 11 10  2  0
 13 12  1  1
 12 10  1  0
 14 13  1  0
 14  7  1  0
 15 21  1  0
 15 13  1  0
 16 15  2  0
 18 17  1  6
 19 18  1  0
 20 18  1  0
 20 21  1  1
 22 23  1  0
 22 20  1  0
 24 22  2  0
M  END
$$$$
