INV.pdb
     RDKit          3D

 24 23  0  0  1  0  0  0  0  0999 V2000
   23.1829  -18.0768  -15.0049 C   0  0  0  0  0  0  0  0  0  0  0  0
   21.7806  -17.7337  -15.4487 C   0  0  0  0  0  0  0  0  0  0  0  0
   21.6283  -16.3407  -15.9460 C   0  0  2  0  0  0  0  0  0  0  0  0
   21.9445  -15.4004  -14.8012 C   0  0  0  0  0  0  0  0  0  0  0  0
   20.2630  -16.0442  -16.5078 C   0  0  2  0  0  0  0  0  0  0  0  0
   19.8451  -16.9638  -17.5127 N   0  0  0  0  0  0  0  0  0  0  0  0
   20.1432  -14.6475  -16.9766 C   0  0  0  0  0  0  0  0  0  0  0  0
   20.6727  -14.3218  -18.0534 O   0  0  0  0  0  0  0  0  0  0  0  0
   17.7545  -10.1434  -18.6565 N   0  0  0  0  0  0  0  0  0  0  0  0
   17.6462  -10.5831  -17.3149 C   0  0  0  0  0  0  0  0  0  0  0  0
   17.3830   -9.7555  -16.4158 O   0  0  0  0  0  0  0  0  0  0  0  0
   17.8418  -12.0015  -16.9836 C   0  0  0  0  0  0  0  0  0  0  0  0
   19.2749  -12.3191  -16.6373 C   0  0  2  0  0  0  0  0  0  0  0  0
   19.4338  -13.7077  -16.2006 N   0  0  0  0  0  0  0  0  0  0  0  0
   19.7730  -11.4520  -15.5364 C   0  0  0  0  0  0  0  0  0  0  0  0
   19.4923  -11.6856  -14.3263 O   0  0  0  0  0  0  0  0  0  0  0  0
   23.2536   -8.3541  -14.0571 C   0  0  0  0  0  0  0  0  0  0  0  0
   22.6261   -9.3491  -15.0095 C   0  0  1  0  0  0  0  0  0  0  0  0
   23.3324  -10.6843  -14.9647 C   0  0  0  0  0  0  0  0  0  0  0  0
   21.1397   -9.4888  -14.7196 C   0  0  2  0  0  0  0  0  0  0  0  0
   20.5914  -10.3134  -15.7810 N   0  0  0  0  0  0  0  0  0  0  0  0
   20.4588   -8.1695  -14.7712 C   0  0  0  0  0  0  0  0  0  0  0  0
   20.2754   -7.3900  -13.6265 O   0  0  0  0  0  0  0  0  0  0  0  0
   20.0170   -7.6935  -15.8420 O   0  0  0  0  0  0  0  0  0  0  0  0
  2  1  1  0
  3  2  1  0
  3  4  1  1
  5  7  1  0
  5  3  1  0
  5  6  1  6
  7  8  2  0
 10  9  1  0
 11 10  2  0
 13 12  1  1
 12 10  1  0
 14 13  1  0
 14  7  1  0
 15 21  1  0
 15 13  1  0
 16 15  2  0
 18 17  1  1
 19 18  1  0
 20 18  1  0
 20 21  1  6
 22 23  1  0
 22 20  1  0
 24 22  2  0
M  END
$$$$
