INV.pdb
     RDKit          3D

 24 23  0  0  1  0  0  0  0  0999 V2000
   27.4622  -15.1863  -18.2268 C   0  0  0  0  0  0  0  0  0  0  0  0
   26.5017  -16.3514  -18.1918 C   0  0  0  0  0  0  0  0  0  0  0  0
   25.8892  -16.5892  -16.8578 C   0  0  2  0  0  0  0  0  0  0  0  0
   27.0083  -16.8596  -15.8733 C   0  0  0  0  0  0  0  0  0  0  0  0
   24.8915  -17.7170  -16.8421 C   0  0  2  0  0  0  0  0  0  0  0  0
   23.8890  -17.6089  -17.8488 N   0  0  0  0  0  0  0  0  0  0  0  0
   24.2901  -17.9120  -15.5060 C   0  0  0  0  0  0  0  0  0  0  0  0
   23.2408  -17.3096  -15.2195 O   0  0  0  0  0  0  0  0  0  0  0  0
   21.1010  -19.5262  -15.4275 N   0  0  0  0  0  0  0  0  0  0  0  0
   21.7604  -19.7921  -14.2030 C   0  0  0  0  0  0  0  0  0  0  0  0
   21.1944  -19.5081  -13.1253 O   0  0  0  0  0  0  0  0  0  0  0  0
   23.0997  -20.3974  -14.2005 C   0  0  0  0  0  0  0  0  0  0  0  0
   24.1354  -19.5000  -13.5708 C   0  0  2  0  0  0  0  0  0  0  0  0
   24.9110  -18.7741  -14.5786 N   0  0  0  0  0  0  0  0  0  0  0  0
   25.1007  -20.2775  -12.7488 C   0  0  0  0  0  0  0  0  0  0  0  0
   25.7915  -21.2142  -13.2418 O   0  0  0  0  0  0  0  0  0  0  0  0
   27.1681  -20.8194   -8.2348 C   0  0  0  0  0  0  0  0  0  0  0  0
   26.1976  -20.1203   -9.1623 C   0  0  1  0  0  0  0  0  0  0  0  0
   26.4548  -18.6321   -9.2183 C   0  0  0  0  0  0  0  0  0  0  0  0
   26.2444  -20.7518  -10.5450 C   0  0  2  0  0  0  0  0  0  0  0  0
   25.3017  -20.0125  -11.3647 N   0  0  0  0  0  0  0  0  0  0  0  0
   25.7963  -22.1675  -10.5016 C   0  0  0  0  0  0  0  0  0  0  0  0
   26.7033  -23.2241  -10.3898 O   0  0  0  0  0  0  0  0  0  0  0  0
   24.5854  -22.4811  -10.5629 O   0  0  0  0  0  0  0  0  0  0  0  0
  2  1  1  0
  3  2  1  0
  3  4  1  1
  5  7  1  0
  5  3  1  0
  5  6  1  6
  7  8  2  0
 10  9  1  0
 11 10  2  0
 13 12  1  6
 12 10  1  0
 14 13  1  0
 14  7  1  0
 15 21  1  0
 15 13  1  0
 16 15  2  0
 18 17  1  1
 19 18  1  0
 20 18  1  0
 20 21  1  6
 22 23  1  0
 22 20  1  0
 24 22  2  0
M  END
$$$$
