INV.pdb
     RDKit          3D

 24 23  0  0  1  0  0  0  0  0999 V2000
   28.2848  -17.6422  -17.4412 C   0  0  0  0  0  0  0  0  0  0  0  0
   28.5717  -18.6949  -16.3968 C   0  0  0  0  0  0  0  0  0  0  0  0
   27.3553  -19.2351  -15.7337 C   0  0  2  0  0  0  0  0  0  0  0  0
   26.6452  -18.0827  -15.0536 C   0  0  0  0  0  0  0  0  0  0  0  0
   27.6424  -20.3330  -14.7439 C   0  0  2  0  0  0  0  0  0  0  0  0
   28.3989  -21.4111  -15.2878 N   0  0  0  0  0  0  0  0  0  0  0  0
   26.4154  -20.8212  -14.0799 C   0  0  0  0  0  0  0  0  0  0  0  0
   25.7662  -21.7418  -14.6062 O   0  0  0  0  0  0  0  0  0  0  0  0
   26.6348  -22.0672  -10.2494 N   0  0  0  0  0  0  0  0  0  0  0  0
   26.0909  -20.7900   -9.9702 C   0  0  0  0  0  0  0  0  0  0  0  0
   26.6453  -20.0573   -9.1228 O   0  0  0  0  0  0  0  0  0  0  0  0
   24.8840  -20.3308  -10.6720 C   0  0  0  0  0  0  0  0  0  0  0  0
   24.8568  -20.7670  -12.1154 C   0  0  2  0  0  0  0  0  0  0  0  0
   25.9991  -20.2394  -12.8645 N   0  0  0  0  0  0  0  0  0  0  0  0
   23.6248  -20.2957  -12.8026 C   0  0  0  0  0  0  0  0  0  0  0  0
   23.4244  -19.0713  -13.0441 O   0  0  0  0  0  0  0  0  0  0  0  0
   22.5138  -21.3001  -16.1018 C   0  0  0  0  0  0  0  0  0  0  0  0
   21.3377  -21.6040  -15.1989 C   0  0  1  0  0  0  0  0  0  0  0  0
   21.2452  -23.0788  -14.8825 C   0  0  0  0  0  0  0  0  0  0  0  0
   21.4136  -20.7610  -13.9353 C   0  0  2  0  0  0  0  0  0  0  0  0
   22.6042  -21.1930  -13.2261 N   0  0  0  0  0  0  0  0  0  0  0  0
   20.2438  -21.0116  -13.0546 C   0  0  0  0  0  0  0  0  0  0  0  0
   19.0153  -20.3804  -13.2642 O   0  0  0  0  0  0  0  0  0  0  0  0
   20.3030  -21.7997  -12.0831 O   0  0  0  0  0  0  0  0  0  0  0  0
  2  1  1  0
  3  2  1  0
  3  4  1  1
  5  7  1  0
  5  3  1  0
  5  6  1  6
  7  8  2  0
 10  9  1  0
 11 10  2  0
 13 12  1  1
 12 10  1  0
 14 13  1  0
 14  7  1  0
 15 21  1  0
 15 13  1  0
 16 15  2  0
 18 17  1  6
 19 18  1  0
 20 18  1  0
 20 21  1  1
 22 23  1  0
 22 20  1  0
 24 22  2  0
M  END
$$$$
