INV.pdb
     RDKit          3D

 24 23  0  0  1  0  0  0  0  0999 V2000
   28.1355  -20.5784   -7.1680 C   0  0  0  0  0  0  0  0  0  0  0  0
   28.2143  -21.3176   -8.4828 C   0  0  0  0  0  0  0  0  0  0  0  0
   27.3170  -20.7735   -9.5363 C   0  0  2  0  0  0  0  0  0  0  0  0
   25.8872  -21.0415   -9.1141 C   0  0  0  0  0  0  0  0  0  0  0  0
   27.5762  -21.3434  -10.9058 C   0  0  2  0  0  0  0  0  0  0  0  0
   28.9414  -21.2713  -11.3073 N   0  0  0  0  0  0  0  0  0  0  0  0
   26.6850  -20.7606  -11.9310 C   0  0  0  0  0  0  0  0  0  0  0  0
   27.0168  -19.7016  -12.4919 O   0  0  0  0  0  0  0  0  0  0  0  0
   25.3183  -19.4419  -16.2274 N   0  0  0  0  0  0  0  0  0  0  0  0
   24.4722  -20.4572  -15.7194 C   0  0  0  0  0  0  0  0  0  0  0  0
   23.3157  -20.5803  -16.1774 O   0  0  0  0  0  0  0  0  0  0  0  0
   24.9512  -21.3587  -14.6621 C   0  0  0  0  0  0  0  0  0  0  0  0
   24.5755  -20.8784  -13.2827 C   0  0  2  0  0  0  0  0  0  0  0  0
   25.4763  -21.4097  -12.2579 N   0  0  0  0  0  0  0  0  0  0  0  0
   23.1967  -21.2996  -12.9174 C   0  0  0  0  0  0  0  0  0  0  0  0
   22.9453  -22.4667  -12.5021 O   0  0  0  0  0  0  0  0  0  0  0  0
   20.9044  -19.1182  -10.6921 C   0  0  0  0  0  0  0  0  0  0  0  0
   20.1614  -19.4974  -11.9550 C   0  0  1  0  0  0  0  0  0  0  0  0
   20.1451  -18.3631  -12.9534 C   0  0  0  0  0  0  0  0  0  0  0  0
   20.7533  -20.7645  -12.5527 C   0  0  2  0  0  0  0  0  0  0  0  0
   22.0848  -20.4161  -13.0140 N   0  0  0  0  0  0  0  0  0  0  0  0
   19.9684  -21.2175  -13.7298 C   0  0  0  0  0  0  0  0  0  0  0  0
   18.8202  -22.0012  -13.5921 O   0  0  0  0  0  0  0  0  0  0  0  0
   20.2982  -20.9190  -14.9005 O   0  0  0  0  0  0  0  0  0  0  0  0
  2  1  1  0
  3  2  1  0
  3  4  1  1
  5  7  1  0
  5  3  1  0
  5  6  1  6
  7  8  2  0
 10  9  1  0
 11 10  2  0
 13 12  1  6
 12 10  1  0
 14 13  1  0
 14  7  1  0
 15 21  1  0
 15 13  1  0
 16 15  2  0
 18 17  1  1
 19 18  1  0
 20 18  1  0
 20 21  1  6
 22 23  1  0
 22 20  1  0
 24 22  2  0
M  END
$$$$
