INV.pdb
     RDKit          3D

 24 23  0  0  1  0  0  0  0  0999 V2000
   28.3798  -19.1691  -14.4470 C   0  0  0  0  0  0  0  0  0  0  0  0
   27.6248  -19.7946  -13.2980 C   0  0  0  0  0  0  0  0  0  0  0  0
   26.1824  -20.0242  -13.5769 C   0  0  2  0  0  0  0  0  0  0  0  0
   25.5738  -18.7031  -13.9997 C   0  0  0  0  0  0  0  0  0  0  0  0
   25.4250  -20.6025  -12.4110 C   0  0  2  0  0  0  0  0  0  0  0  0
   26.0489  -21.7456  -11.8328 N   0  0  0  0  0  0  0  0  0  0  0  0
   24.0108  -20.8751  -12.7436 C   0  0  0  0  0  0  0  0  0  0  0  0
   23.7206  -21.9237  -13.3455 O   0  0  0  0  0  0  0  0  0  0  0  0
   20.5917  -21.9263  -10.4504 N   0  0  0  0  0  0  0  0  0  0  0  0
   20.7994  -20.5279  -10.3709 C   0  0  0  0  0  0  0  0  0  0  0  0
   21.0681  -20.0078   -9.2665 O   0  0  0  0  0  0  0  0  0  0  0  0
   20.6995  -19.6957  -11.5782 C   0  0  0  0  0  0  0  0  0  0  0  0
   21.6021  -20.1783  -12.6859 C   0  0  2  0  0  0  0  0  0  0  0  0
   23.0144  -19.9472  -12.3760 N   0  0  0  0  0  0  0  0  0  0  0  0
   21.3126  -19.4792  -13.9663 C   0  0  0  0  0  0  0  0  0  0  0  0
   21.5174  -18.2401  -14.1091 O   0  0  0  0  0  0  0  0  0  0  0  0
   22.6748  -20.1473  -17.3272 C   0  0  0  0  0  0  0  0  0  0  0  0
   21.1731  -20.2945  -17.4459 C   0  0  1  0  0  0  0  0  0  0  0  0
   20.7531  -21.7461  -17.4319 C   0  0  0  0  0  0  0  0  0  0  0  0
   20.4788  -19.4974  -16.3525 C   0  0  2  0  0  0  0  0  0  0  0  0
   20.7903  -20.1626  -15.1004 N   0  0  0  0  0  0  0  0  0  0  0  0
   19.0037  -19.5237  -16.5264 C   0  0  0  0  0  0  0  0  0  0  0  0
   18.3576  -18.7101  -17.4604 O   0  0  0  0  0  0  0  0  0  0  0  0
   18.2697  -20.2755  -15.8450 O   0  0  0  0  0  0  0  0  0  0  0  0
  2  1  1  0
  3  2  1  0
  3  4  1  1
  5  7  1  0
  5  3  1  0
  5  6  1  6
  7  8  2  0
 10  9  1  0
 11 10  2  0
 13 12  1  1
 12 10  1  0
 14 13  1  0
 14  7  1  0
 15 21  1  0
 15 13  1  0
 16 15  2  0
 18 17  1  1
 19 18  1  0
 20 18  1  0
 20 21  1  1
 22 23  1  0
 22 20  1  0
 24 22  2  0
M  END
$$$$
