APQ.pdb
     RDKit          3D

 22 22  0  0  1  0  0  0  0  0999 V2000
    7.6196  -17.2033   17.4230 C   0  0  0  0  0  0  0  0  0  0  0  0
    8.6903  -16.1319   17.2837 C   0  0  2  0  0  0  0  0  0  0  0  0
    9.7029  -16.4810   16.3562 N   0  0  0  0  0  0  0  0  0  0  0  0
    9.1840  -15.6911   18.6094 C   0  0  0  0  0  0  0  0  0  0  0  0
    9.9283  -16.5804   19.1768 O   0  0  0  0  0  0  0  0  0  0  0  0
    8.9186  -14.4715   19.2371 N   0  0  0  0  0  0  0  0  0  0  0  0
    8.8728  -13.1048   18.7313 C   0  0  0  0  0  0  0  0  0  0  0  0
    7.5377  -12.6526   19.3244 C   0  0  0  0  0  0  0  0  0  0  0  0
    7.2291  -13.6410   20.4727 C   0  0  0  0  0  0  0  0  0  0  0  0
    8.5889  -14.2585   20.6300 C   0  0  1  0  0  0  0  0  0  0  0  0
    8.7507  -15.3293   21.5676 C   0  0  0  0  0  0  0  0  0  0  0  0
    7.9875  -16.3541   21.6327 O   0  0  0  0  0  0  0  0  0  0  0  0
   10.7355  -20.2590   21.7080 N   0  0  0  0  0  0  0  0  0  0  0  0
   11.7628  -19.3045   21.6079 C   0  0  0  0  0  0  0  0  0  0  0  0
   12.8589  -19.6306   21.0915 O   0  0  0  0  0  0  0  0  0  0  0  0
   11.6046  -17.9094   22.0932 C   0  0  0  0  0  0  0  0  0  0  0  0
   10.2373  -17.7123   22.6652 C   0  0  0  0  0  0  0  0  0  0  0  0
   10.0449  -16.4450   23.4294 C   0  0  2  0  0  0  0  0  0  0  0  0
    9.8090  -15.3059   22.5238 N   0  0  0  0  0  0  0  0  0  0  0  0
   11.1413  -16.1206   24.3698 C   0  0  0  0  0  0  0  0  0  0  0  0
   11.3507  -16.8202   25.5406 O   0  0  0  0  0  0  0  0  0  0  0  0
   11.9569  -15.1674   24.1447 O   0  0  0  0  0  0  0  0  0  0  0  0
  2  1  1  1
  2  3  1  0
  4  2  1  0
  5  4  2  0
  6  4  1  0
  6  7  1  0
  8  7  1  0
  9 10  1  0
  9  8  1  0
 10  6  1  0
 10 11  1  1
 11 19  1  0
 12 11  2  0
 14 16  1  0
 14 13  1  0
 15 14  2  0
 17 16  1  0
 18 20  1  0
 18 17  1  6
 19 18  1  0
 20 21  1  0
 22 20  2  0
M  END
$$$$
