APQ.pdb
     RDKit          3D

 22 22  0  0  1  0  0  0  0  0999 V2000
    7.4873  -17.4756   17.1975 C   0  0  0  0  0  0  0  0  0  0  0  0
    8.2454  -16.1852   16.9254 C   0  0  2  0  0  0  0  0  0  0  0  0
    9.0632  -16.2586   15.7708 N   0  0  0  0  0  0  0  0  0  0  0  0
    8.9312  -15.6983   18.1453 C   0  0  0  0  0  0  0  0  0  0  0  0
    9.8035  -16.5411   18.5877 O   0  0  0  0  0  0  0  0  0  0  0  0
    8.7139  -14.4821   18.7976 N   0  0  0  0  0  0  0  0  0  0  0  0
    8.3683  -13.1567   18.2981 C   0  0  0  0  0  0  0  0  0  0  0  0
    7.2119  -12.8172   19.2396 C   0  0  0  0  0  0  0  0  0  0  0  0
    7.3575  -13.7705   20.4482 C   0  0  0  0  0  0  0  0  0  0  0  0
    8.7686  -14.2317   20.2218 C   0  0  1  0  0  0  0  0  0  0  0  0
    9.3121  -15.2282   21.0955 C   0  0  0  0  0  0  0  0  0  0  0  0
    8.7885  -16.3787   21.2937 O   0  0  0  0  0  0  0  0  0  0  0  0
   15.7202  -16.5990   21.1232 N   0  0  0  0  0  0  0  0  0  0  0  0
   14.7660  -15.8174   21.7978 C   0  0  0  0  0  0  0  0  0  0  0  0
   15.1484  -14.9660   22.6364 O   0  0  0  0  0  0  0  0  0  0  0  0
   13.3067  -15.9580   21.5577 C   0  0  0  0  0  0  0  0  0  0  0  0
   12.5575  -15.8531   22.8474 C   0  0  0  0  0  0  0  0  0  0  0  0
   11.0762  -15.9941   22.7349 C   0  0  2  0  0  0  0  0  0  0  0  0
   10.5104  -14.9787   21.8282 N   0  0  0  0  0  0  0  0  0  0  0  0
   10.3554  -15.9707   24.0278 C   0  0  0  0  0  0  0  0  0  0  0  0
   10.4635  -16.9824   24.9599 O   0  0  0  0  0  0  0  0  0  0  0  0
    9.5889  -15.0047   24.3501 O   0  0  0  0  0  0  0  0  0  0  0  0
  2  1  1  1
  2  3  1  0
  4  2  1  0
  5  4  2  0
  6  4  1  0
  6  7  1  0
  8  7  1  0
  9 10  1  0
  9  8  1  0
 10  6  1  0
 10 11  1  1
 11 19  1  0
 12 11  2  0
 14 16  1  0
 14 13  1  0
 15 14  2  0
 17 16  1  0
 18 20  1  0
 18 17  1  1
 19 18  1  0
 20 21  1  0
 22 20  2  0
M  END
$$$$
