APQ.pdb
     RDKit          3D

 22 22  0  0  1  0  0  0  0  0999 V2000
    6.7726  -18.6531   21.5390 C   0  0  0  0  0  0  0  0  0  0  0  0
    7.8988  -17.7445   21.0702 C   0  0  2  0  0  0  0  0  0  0  0  0
    8.9617  -18.4539   20.4583 N   0  0  0  0  0  0  0  0  0  0  0  0
    8.3103  -16.8047   22.1393 C   0  0  0  0  0  0  0  0  0  0  0  0
    8.5581  -17.4071   23.2540 O   0  0  0  0  0  0  0  0  0  0  0  0
    8.4386  -15.4178   22.0296 N   0  0  0  0  0  0  0  0  0  0  0  0
    8.6929  -14.5503   20.8858 C   0  0  0  0  0  0  0  0  0  0  0  0
    7.5922  -13.5100   21.0986 C   0  0  0  0  0  0  0  0  0  0  0  0
    7.1649  -13.6438   22.5785 C   0  0  0  0  0  0  0  0  0  0  0  0
    8.3279  -14.4426   23.0931 C   0  0  1  0  0  0  0  0  0  0  0  0
    8.3080  -14.8811   24.4566 C   0  0  0  0  0  0  0  0  0  0  0  0
    7.3922  -15.6149   24.9663 O   0  0  0  0  0  0  0  0  0  0  0  0
   10.7600  -18.8381   27.2782 N   0  0  0  0  0  0  0  0  0  0  0  0
   10.4374  -18.1127   28.4385 C   0  0  0  0  0  0  0  0  0  0  0  0
   10.4430  -18.6943   29.5504 O   0  0  0  0  0  0  0  0  0  0  0  0
   10.0857  -16.6698   28.4043 C   0  0  0  0  0  0  0  0  0  0  0  0
   10.0659  -16.1752   26.9934 C   0  0  0  0  0  0  0  0  0  0  0  0
    9.3116  -14.9061   26.7757 C   0  0  2  0  0  0  0  0  0  0  0  0
    9.3457  -14.5010   25.3587 N   0  0  0  0  0  0  0  0  0  0  0  0
    9.7443  -13.7781   27.6312 C   0  0  0  0  0  0  0  0  0  0  0  0
    9.2787  -13.5967   28.9175 O   0  0  0  0  0  0  0  0  0  0  0  0
   10.5777  -12.9061   27.2194 O   0  0  0  0  0  0  0  0  0  0  0  0
  2  1  1  1
  2  3  1  0
  4  2  1  0
  5  4  2  0
  6  4  1  0
  6  7  1  0
  8  7  1  0
  9 10  1  0
  9  8  1  0
 10  6  1  0
 10 11  1  1
 11 19  1  0
 12 11  2  0
 14 16  1  0
 14 13  1  0
 15 14  2  0
 17 16  1  0
 18 20  1  0
 18 17  1  6
 19 18  1  0
 20 21  1  0
 22 20  2  0
M  END
$$$$
