APQ.pdb
     RDKit          3D

 22 22  0  0  1  0  0  0  0  0999 V2000
    7.5624  -17.0591   17.2937 C   0  0  0  0  0  0  0  0  0  0  0  0
    8.6710  -16.0211   17.2088 C   0  0  2  0  0  0  0  0  0  0  0  0
    9.6810  -16.3673   16.2775 N   0  0  0  0  0  0  0  0  0  0  0  0
    9.1651  -15.6524   18.5562 C   0  0  0  0  0  0  0  0  0  0  0  0
    9.9156  -16.5678   19.0715 O   0  0  0  0  0  0  0  0  0  0  0  0
    8.8941  -14.4714   19.2518 N   0  0  0  0  0  0  0  0  0  0  0  0
    8.7672  -13.0877   18.8103 C   0  0  0  0  0  0  0  0  0  0  0  0
    7.4554  -12.7135   19.5014 C   0  0  0  0  0  0  0  0  0  0  0  0
    7.2543  -13.7603   20.6215 C   0  0  0  0  0  0  0  0  0  0  0  0
    8.6430  -14.3299   20.6699 C   0  0  1  0  0  0  0  0  0  0  0  0
    8.9012  -15.4317   21.5481 C   0  0  0  0  0  0  0  0  0  0  0  0
    8.3348  -16.5754   21.4583 O   0  0  0  0  0  0  0  0  0  0  0  0
   12.7527  -19.1556   21.3700 N   0  0  0  0  0  0  0  0  0  0  0  0
   12.5057  -19.3991   22.7324 C   0  0  0  0  0  0  0  0  0  0  0  0
   13.1077  -20.3365   23.3099 O   0  0  0  0  0  0  0  0  0  0  0  0
   11.5510  -18.5846   23.5274 C   0  0  0  0  0  0  0  0  0  0  0  0
   11.1876  -17.3400   22.7828 C   0  0  0  0  0  0  0  0  0  0  0  0
   10.1905  -16.4616   23.4620 C   0  0  2  0  0  0  0  0  0  0  0  0
    9.8352  -15.3057   22.6190 N   0  0  0  0  0  0  0  0  0  0  0  0
   10.5956  -15.9964   24.8078 C   0  0  0  0  0  0  0  0  0  0  0  0
   10.5370  -16.8044   25.9248 O   0  0  0  0  0  0  0  0  0  0  0  0
   11.0233  -14.8123   25.0067 O   0  0  0  0  0  0  0  0  0  0  0  0
  2  1  1  1
  2  3  1  0
  4  2  1  0
  5  4  2  0
  6  4  1  0
  6  7  1  0
  8  7  1  0
  9 10  1  0
  9  8  1  0
 10  6  1  0
 10 11  1  1
 11 19  1  0
 12 11  2  0
 14 16  1  0
 14 13  1  0
 15 14  2  0
 17 16  1  0
 18 20  1  0
 18 17  1  6
 19 18  1  0
 20 21  1  0
 22 20  2  0
M  END
$$$$
