APQ.pdb
     RDKit          3D

 22 22  0  0  1  0  0  0  0  0999 V2000
    7.3723  -17.0882   17.2484 C   0  0  0  0  0  0  0  0  0  0  0  0
    8.3874  -15.9570   17.1860 C   0  0  2  0  0  0  0  0  0  0  0  0
    9.3717  -16.1534   16.1860 N   0  0  0  0  0  0  0  0  0  0  0  0
    8.9203  -15.6395   18.5316 C   0  0  0  0  0  0  0  0  0  0  0  0
    9.5871  -16.6212   19.0400 O   0  0  0  0  0  0  0  0  0  0  0  0
    8.7620  -14.4411   19.2321 N   0  0  0  0  0  0  0  0  0  0  0  0
    8.6496  -13.0582   18.7843 C   0  0  0  0  0  0  0  0  0  0  0  0
    7.4233  -12.6234   19.5879 C   0  0  0  0  0  0  0  0  0  0  0  0
    7.2855  -13.6491   20.7366 C   0  0  0  0  0  0  0  0  0  0  0  0
    8.6491  -14.2743   20.6652 C   0  0  1  0  0  0  0  0  0  0  0  0
    8.9436  -15.3763   21.5316 C   0  0  0  0  0  0  0  0  0  0  0  0
    8.2979  -16.4808   21.5409 O   0  0  0  0  0  0  0  0  0  0  0  0
   14.2747  -19.4780   24.2189 N   0  0  0  0  0  0  0  0  0  0  0  0
   13.6323  -18.3589   23.6608 C   0  0  0  0  0  0  0  0  0  0  0  0
   14.2588  -17.6253   22.8582 O   0  0  0  0  0  0  0  0  0  0  0  0
   12.2267  -18.0031   23.9842 C   0  0  0  0  0  0  0  0  0  0  0  0
   11.7545  -16.8985   23.0938 C   0  0  0  0  0  0  0  0  0  0  0  0
   10.3553  -16.4404   23.3374 C   0  0  2  0  0  0  0  0  0  0  0  0
   10.0105  -15.2955   22.4751 N   0  0  0  0  0  0  0  0  0  0  0  0
   10.0507  -16.1157   24.7493 C   0  0  0  0  0  0  0  0  0  0  0  0
    9.6066  -14.8719   25.1490 O   0  0  0  0  0  0  0  0  0  0  0  0
   10.1850  -16.9772   25.6789 O   0  0  0  0  0  0  0  0  0  0  0  0
  2  1  1  1
  2  3  1  0
  4  2  1  0
  5  4  2  0
  6  4  1  0
  6  7  1  0
  8  7  1  0
  9 10  1  0
  9  8  1  0
 10  6  1  0
 10 11  1  1
 11 19  1  0
 12 11  2  0
 14 16  1  0
 14 13  1  0
 15 14  2  0
 17 16  1  0
 18 20  1  0
 18 17  1  1
 19 18  1  0
 20 21  1  0
 22 20  2  0
M  END
$$$$
