APQ.pdb
     RDKit          3D

 22 22  0  0  1  0  0  0  0  0999 V2000
    5.5639  -18.4252   21.3014 C   0  0  0  0  0  0  0  0  0  0  0  0
    6.5002  -17.7574   20.3058 C   0  0  2  0  0  0  0  0  0  0  0  0
    6.8869  -18.6181   19.2489 N   0  0  0  0  0  0  0  0  0  0  0  0
    7.6201  -17.0759   20.9964 C   0  0  0  0  0  0  0  0  0  0  0  0
    8.2694  -17.8698   21.7806 O   0  0  0  0  0  0  0  0  0  0  0  0
    7.9916  -15.7355   20.8650 N   0  0  0  0  0  0  0  0  0  0  0  0
    7.7826  -14.7668   19.7956 C   0  0  0  0  0  0  0  0  0  0  0  0
    7.2550  -13.5868   20.6130 C   0  0  0  0  0  0  0  0  0  0  0  0
    7.6795  -13.8616   22.0742 C   0  0  0  0  0  0  0  0  0  0  0  0
    8.7080  -14.9282   21.8289 C   0  0  1  0  0  0  0  0  0  0  0  0
    9.3264  -15.5561   22.9582 C   0  0  0  0  0  0  0  0  0  0  0  0
    9.2756  -15.1039   24.1540 O   0  0  0  0  0  0  0  0  0  0  0  0
   15.2713  -17.8084   24.5159 N   0  0  0  0  0  0  0  0  0  0  0  0
   14.6139  -16.6831   23.9887 C   0  0  0  0  0  0  0  0  0  0  0  0
   15.0864  -16.1112   22.9767 O   0  0  0  0  0  0  0  0  0  0  0  0
   13.3687  -16.1352   24.5855 C   0  0  0  0  0  0  0  0  0  0  0  0
   12.2906  -16.0569   23.5524 C   0  0  0  0  0  0  0  0  0  0  0  0
   11.2095  -17.0771   23.6837 C   0  0  2  0  0  0  0  0  0  0  0  0
   10.0696  -16.7638   22.8030 N   0  0  0  0  0  0  0  0  0  0  0  0
   10.7306  -17.2920   25.0680 C   0  0  0  0  0  0  0  0  0  0  0  0
    9.4435  -16.9938   25.4663 O   0  0  0  0  0  0  0  0  0  0  0  0
   11.4907  -17.7680   25.9736 O   0  0  0  0  0  0  0  0  0  0  0  0
  2  1  1  1
  2  3  1  0
  4  2  1  0
  5  4  2  0
  6  4  1  0
  6  7  1  0
  8  7  1  0
  9 10  1  0
  9  8  1  0
 10  6  1  0
 10 11  1  1
 11 19  1  0
 12 11  2  0
 14 16  1  0
 14 13  1  0
 15 14  2  0
 17 16  1  0
 18 20  1  0
 18 17  1  1
 19 18  1  0
 20 21  1  0
 22 20  2  0
M  END
$$$$
