APQ.pdb
     RDKit          3D

 22 22  0  0  1  0  0  0  0  0999 V2000
    8.6707  -16.2024   15.8972 C   0  0  0  0  0  0  0  0  0  0  0  0
    9.4651  -14.9381   16.1880 C   0  0  2  0  0  0  0  0  0  0  0  0
   10.5855  -14.7820   15.3350 N   0  0  0  0  0  0  0  0  0  0  0  0
    9.7601  -14.8107   17.6345 C   0  0  0  0  0  0  0  0  0  0  0  0
   10.7424  -15.5628   18.0034 O   0  0  0  0  0  0  0  0  0  0  0  0
    9.0976  -13.9937   18.5540 N   0  0  0  0  0  0  0  0  0  0  0  0
    8.4968  -12.6714   18.4268 C   0  0  0  0  0  0  0  0  0  0  0  0
    7.1385  -12.9394   19.0763 C   0  0  0  0  0  0  0  0  0  0  0  0
    7.3166  -14.2282   19.9118 C   0  0  0  0  0  0  0  0  0  0  0  0
    8.8168  -14.2890   19.9426 C   0  0  1  0  0  0  0  0  0  0  0  0
    9.4440  -15.4149   20.5679 C   0  0  0  0  0  0  0  0  0  0  0  0
    9.4408  -16.6016   20.0897 O   0  0  0  0  0  0  0  0  0  0  0  0
   14.3226  -16.9559   19.6184 N   0  0  0  0  0  0  0  0  0  0  0  0
   14.1433  -15.6566   20.1244 C   0  0  0  0  0  0  0  0  0  0  0  0
   14.9241  -14.7422   19.7655 O   0  0  0  0  0  0  0  0  0  0  0  0
   13.0561  -15.3153   21.0775 C   0  0  0  0  0  0  0  0  0  0  0  0
   12.1802  -16.5045   21.3107 C   0  0  0  0  0  0  0  0  0  0  0  0
   11.0722  -16.2954   22.2882 C   0  0  2  0  0  0  0  0  0  0  0  0
   10.1264  -15.2697   21.8122 N   0  0  0  0  0  0  0  0  0  0  0  0
   11.5167  -15.9699   23.6623 C   0  0  0  0  0  0  0  0  0  0  0  0
   11.1335  -14.8167   24.3162 O   0  0  0  0  0  0  0  0  0  0  0  0
   12.2852  -16.7458   24.3194 O   0  0  0  0  0  0  0  0  0  0  0  0
  2  1  1  1
  2  3  1  0
  4  2  1  0
  5  4  2  0
  6  4  1  0
  6  7  1  0
  8  7  1  0
  9 10  1  0
  9  8  1  0
 10  6  1  0
 10 11  1  6
 11 19  1  0
 12 11  2  0
 14 16  1  0
 14 13  1  0
 15 14  2  0
 17 16  1  0
 18 20  1  0
 18 17  1  6
 19 18  1  0
 20 21  1  0
 22 20  2  0
M  END
$$$$
