APQ.pdb
     RDKit          3D

 22 22  0  0  1  0  0  0  0  0999 V2000
   11.3120  -15.9732   18.2495 C   0  0  0  0  0  0  0  0  0  0  0  0
   11.5830  -14.5721   18.7762 C   0  0  2  0  0  0  0  0  0  0  0  0
   12.9627  -14.2515   18.8072 N   0  0  0  0  0  0  0  0  0  0  0  0
   10.8570  -14.3259   20.0442 C   0  0  0  0  0  0  0  0  0  0  0  0
   11.3882  -14.9478   21.0430 O   0  0  0  0  0  0  0  0  0  0  0  0
    9.7240  -13.5268   20.2172 N   0  0  0  0  0  0  0  0  0  0  0  0
    9.2527  -12.3392   19.5150 C   0  0  0  0  0  0  0  0  0  0  0  0
    7.7998  -12.7452   19.2636 C   0  0  0  0  0  0  0  0  0  0  0  0
    7.5017  -13.8880   20.2616 C   0  0  0  0  0  0  0  0  0  0  0  0
    8.6679  -13.7062   21.1902 C   0  0  1  0  0  0  0  0  0  0  0  0
    8.8431  -14.6413   22.2611 C   0  0  0  0  0  0  0  0  0  0  0  0
    9.1144  -15.8812   22.1005 O   0  0  0  0  0  0  0  0  0  0  0  0
   10.1913  -14.9791   29.6129 N   0  0  0  0  0  0  0  0  0  0  0  0
    9.7202  -14.4499   28.3987 C   0  0  0  0  0  0  0  0  0  0  0  0
    9.4566  -13.2255   28.3210 O   0  0  0  0  0  0  0  0  0  0  0  0
    9.5185  -15.2880   27.1888 C   0  0  0  0  0  0  0  0  0  0  0  0
    9.1798  -14.4275   26.0138 C   0  0  0  0  0  0  0  0  0  0  0  0
    8.9639  -15.1597   24.7315 C   0  0  2  0  0  0  0  0  0  0  0  0
    8.7108  -14.2257   23.6193 N   0  0  0  0  0  0  0  0  0  0  0  0
    7.8966  -16.1845   24.7797 C   0  0  0  0  0  0  0  0  0  0  0  0
    8.1235  -17.4775   25.2047 O   0  0  0  0  0  0  0  0  0  0  0  0
    6.7003  -15.9230   24.4265 O   0  0  0  0  0  0  0  0  0  0  0  0
  2  1  1  1
  2  3  1  0
  4  2  1  0
  5  4  2  0
  6  4  1  0
  6  7  1  0
  8  7  1  0
  9 10  1  0
  9  8  1  0
 10  6  1  0
 10 11  1  6
 11 19  1  0
 12 11  2  0
 14 16  1  0
 14 13  1  0
 15 14  2  0
 17 16  1  0
 18 20  1  0
 18 17  1  1
 19 18  1  0
 20 21  1  0
 22 20  2  0
M  END
$$$$
