EVV.pdb
     RDKit          3D

 24 23  0  0  1  0  0  0  0  0999 V2000
   15.6446  -14.7186  -17.4743 N   0  0  0  0  0  0  0  0  0  0  0  0
   16.8456  -14.2861  -16.8271 C   0  0  1  0  0  0  0  0  0  0  0  0
   18.0466  -15.0475  -17.2893 C   0  0  0  0  0  0  0  0  0  0  0  0
   18.3306  -16.2857  -16.5170 C   0  0  0  0  0  0  0  0  0  0  0  0
   19.4536  -16.1900  -15.5716 C   0  0  0  0  0  0  0  0  0  0  0  0
   20.1981  -15.2003  -15.4009 O   0  0  0  0  0  0  0  0  0  0  0  0
   17.0432  -12.8149  -16.9270 C   0  0  0  0  0  0  0  0  0  0  0  0
   17.0895  -12.2936  -18.0702 O   0  0  0  0  0  0  0  0  0  0  0  0
   19.7292  -17.3135  -14.7749 O   0  0  0  0  0  0  0  0  0  0  0  0
   14.8901  -10.0607  -16.1912 C   0  0  0  0  0  0  0  0  0  0  0  0
   16.1090   -9.8758  -15.3095 C   0  0  2  0  0  0  0  0  0  0  0  0
   16.3991   -8.3895  -15.2421 C   0  0  0  0  0  0  0  0  0  0  0  0
   17.3263  -10.5539  -15.9486 C   0  0  2  0  0  0  0  0  0  0  0  0
   17.1812  -11.9732  -15.8064 N   0  0  0  0  0  0  0  0  0  0  0  0
   18.5654  -10.0418  -15.3184 C   0  0  0  0  0  0  0  0  0  0  0  0
   18.8260  -10.3103  -14.1202 O   0  0  0  0  0  0  0  0  0  0  0  0
   23.0926   -8.0320  -15.8284 C   0  0  0  0  0  0  0  0  0  0  0  0
   21.8369   -8.5978  -16.4342 C   0  0  1  0  0  0  0  0  0  0  0  0
   22.1707   -9.9563  -17.0107 C   0  0  0  0  0  0  0  0  0  0  0  0
   20.7074   -8.7205  -15.4082 C   0  0  2  0  0  0  0  0  0  0  0  0
   19.5068   -9.2371  -16.0164 N   0  0  0  0  0  0  0  0  0  0  0  0
   20.4960   -7.4903  -14.6443 C   0  0  0  0  0  0  0  0  0  0  0  0
   19.8199   -6.5629  -15.1574 O   0  0  0  0  0  0  0  0  0  0  0  0
   20.9948   -7.2625  -13.3696 O   0  0  0  0  0  0  0  0  0  0  0  0
  2  1  1  6
  2  3  1  0
  3  4  1  0
  4  5  1  0
  5  6  2  0
  5  9  1  0
  7  8  2  0
  7  2  1  0
 11 10  1  6
 11 13  1  0
 12 11  1  0
 13 14  1  1
 14  7  1  0
 15 13  1  0
 15 21  1  0
 16 15  2  0
 18 20  1  0
 18 17  1  1
 19 18  1  0
 20 21  1  6
 20 22  1  0
 22 23  2  0
 22 24  1  0
M  END
$$$$
