EVV.pdb
     RDKit          3D

 24 23  0  0  1  0  0  0  0  0999 V2000
   13.7660  -12.0339  -17.0406 N   0  0  0  0  0  0  0  0  0  0  0  0
   14.9181  -12.0957  -16.1940 C   0  0  1  0  0  0  0  0  0  0  0  0
   15.2436  -13.4945  -15.7776 C   0  0  0  0  0  0  0  0  0  0  0  0
   14.3235  -14.0687  -14.7609 C   0  0  0  0  0  0  0  0  0  0  0  0
   14.5313  -15.4941  -14.4626 C   0  0  0  0  0  0  0  0  0  0  0  0
   15.5201  -15.9952  -13.8847 O   0  0  0  0  0  0  0  0  0  0  0  0
   16.0926  -11.4005  -16.7860 C   0  0  0  0  0  0  0  0  0  0  0  0
   16.1312  -11.2474  -18.0334 O   0  0  0  0  0  0  0  0  0  0  0  0
   13.5283  -16.3935  -14.8601 O   0  0  0  0  0  0  0  0  0  0  0  0
   16.7914   -8.0436  -16.2017 C   0  0  0  0  0  0  0  0  0  0  0  0
   17.5079   -8.8645  -17.2553 C   0  0  2  0  0  0  0  0  0  0  0  0
   16.4575   -9.3875  -18.2149 C   0  0  0  0  0  0  0  0  0  0  0  0
   18.1827  -10.0780  -16.6055 C   0  0  2  0  0  0  0  0  0  0  0  0
   17.1659  -10.9033  -16.0216 N   0  0  0  0  0  0  0  0  0  0  0  0
   19.1812   -9.6164  -15.6132 C   0  0  0  0  0  0  0  0  0  0  0  0
   18.8330   -9.3576  -14.4353 O   0  0  0  0  0  0  0  0  0  0  0  0
   23.9337   -9.6401  -14.2288 C   0  0  0  0  0  0  0  0  0  0  0  0
   22.8914   -9.8412  -15.2951 C   0  0  1  0  0  0  0  0  0  0  0  0
   22.6892  -11.3301  -15.4721 C   0  0  0  0  0  0  0  0  0  0  0  0
   21.5651   -9.1650  -14.9383 C   0  0  2  0  0  0  0  0  0  0  0  0
   20.5564   -9.4440  -15.9298 N   0  0  0  0  0  0  0  0  0  0  0  0
   21.7149   -7.7405  -14.6382 C   0  0  0  0  0  0  0  0  0  0  0  0
   21.8745   -7.3829  -13.4434 O   0  0  0  0  0  0  0  0  0  0  0  0
   21.6938   -6.7313  -15.5902 O   0  0  0  0  0  0  0  0  0  0  0  0
  2  1  1  6
  2  3  1  0
  3  4  1  0
  4  5  1  0
  5  6  2  0
  5  9  1  0
  7  8  2  0
  7  2  1  0
 11 10  1  1
 11 13  1  0
 12 11  1  0
 13 14  1  1
 14  7  1  0
 15 13  1  0
 15 21  1  0
 16 15  2  0
 18 20  1  0
 18 17  1  1
 19 18  1  0
 20 21  1  6
 20 22  1  0
 22 23  2  0
 22 24  1  0
M  END
$$$$
