EVV.pdb
     RDKit          3D

 24 23  0  0  1  0  0  0  0  0999 V2000
   23.5706  -22.2898  -13.3113 N   0  0  0  0  0  0  0  0  0  0  0  0
   23.7936  -21.2034  -12.4069 C   0  0  1  0  0  0  0  0  0  0  0  0
   22.5496  -20.8040  -11.6797 C   0  0  0  0  0  0  0  0  0  0  0  0
   21.4582  -20.2952  -12.5515 C   0  0  0  0  0  0  0  0  0  0  0  0
   21.8105  -19.1327  -13.3813 C   0  0  0  0  0  0  0  0  0  0  0  0
   21.8593  -17.9409  -13.0071 O   0  0  0  0  0  0  0  0  0  0  0  0
   24.9255  -21.4649  -11.4774 C   0  0  0  0  0  0  0  0  0  0  0  0
   24.9483  -22.5569  -10.8545 O   0  0  0  0  0  0  0  0  0  0  0  0
   22.1256  -19.3690  -14.7296 O   0  0  0  0  0  0  0  0  0  0  0  0
   28.6025  -20.9307  -12.3563 C   0  0  0  0  0  0  0  0  0  0  0  0
   28.3557  -20.3002  -11.0002 C   0  0  2  0  0  0  0  0  0  0  0  0
   29.5056  -20.7008  -10.0974 C   0  0  0  0  0  0  0  0  0  0  0  0
   27.0697  -20.8646  -10.3856 C   0  0  2  0  0  0  0  0  0  0  0  0
   25.9754  -20.5523  -11.2579 N   0  0  0  0  0  0  0  0  0  0  0  0
   26.8882  -20.3114   -9.0233 C   0  0  0  0  0  0  0  0  0  0  0  0
   26.1909  -19.2832   -8.8434 O   0  0  0  0  0  0  0  0  0  0  0  0
   29.4577  -21.4378   -5.6369 C   0  0  0  0  0  0  0  0  0  0  0  0
   27.9720  -21.2479   -5.4944 C   0  0  1  0  0  0  0  0  0  0  0  0
   27.7048  -20.6967   -4.1110 C   0  0  0  0  0  0  0  0  0  0  0  0
   27.4076  -20.3037   -6.5591 C   0  0  2  0  0  0  0  0  0  0  0  0
   27.4785  -20.8980   -7.8707 N   0  0  0  0  0  0  0  0  0  0  0  0
   27.9836  -18.9601   -6.4916 C   0  0  0  0  0  0  0  0  0  0  0  0
   29.0572  -18.7258   -7.1025 O   0  0  0  0  0  0  0  0  0  0  0  0
   27.4250  -17.9011   -5.7902 O   0  0  0  0  0  0  0  0  0  0  0  0
  2  1  1  1
  2  3  1  0
  3  4  1  0
  4  5  1  0
  5  6  2  0
  5  9  1  0
  7  8  2  0
  7  2  1  0
 11 10  1  6
 11 13  1  0
 12 11  1  0
 13 14  1  6
 14  7  1  0
 15 13  1  0
 15 21  1  0
 16 15  2  0
 18 20  1  0
 18 17  1  6
 19 18  1  0
 20 21  1  6
 20 22  1  0
 22 23  2  0
 22 24  1  0
M  END
$$$$
