EVV.pdb
     RDKit          3D

 24 23  0  0  1  0  0  0  0  0999 V2000
   15.8798  -11.5399  -15.8033 N   0  0  0  0  0  0  0  0  0  0  0  0
   17.2422  -11.1256  -15.6605 C   0  0  1  0  0  0  0  0  0  0  0  0
   17.9259  -10.9544  -16.9792 C   0  0  0  0  0  0  0  0  0  0  0  0
   18.1409  -12.2167  -17.7345 C   0  0  0  0  0  0  0  0  0  0  0  0
   18.8355  -12.0650  -19.0223 C   0  0  0  0  0  0  0  0  0  0  0  0
   19.2210  -10.9925  -19.5361 O   0  0  0  0  0  0  0  0  0  0  0  0
   17.3791   -9.9207  -14.7985 C   0  0  0  0  0  0  0  0  0  0  0  0
   16.6295   -8.9363  -15.0225 O   0  0  0  0  0  0  0  0  0  0  0  0
   19.0988  -13.2313  -19.7594 O   0  0  0  0  0  0  0  0  0  0  0  0
   16.7325   -9.2713  -11.2882 C   0  0  0  0  0  0  0  0  0  0  0  0
   18.1970   -8.9455  -11.5037 C   0  0  2  0  0  0  0  0  0  0  0  0
   18.5071   -7.6974  -10.7013 C   0  0  0  0  0  0  0  0  0  0  0  0
   18.4497   -8.6183  -12.9799 C   0  0  2  0  0  0  0  0  0  0  0  0
   18.3058   -9.8239  -13.7425 N   0  0  0  0  0  0  0  0  0  0  0  0
   19.7909   -8.0068  -13.1286 C   0  0  0  0  0  0  0  0  0  0  0  0
   20.8196   -8.6439  -12.7947 O   0  0  0  0  0  0  0  0  0  0  0  0
   22.8314   -5.2429  -15.6769 C   0  0  0  0  0  0  0  0  0  0  0  0
   21.4943   -5.8713  -15.3922 C   0  0  1  0  0  0  0  0  0  0  0  0
   21.4162   -7.1683  -16.1674 C   0  0  0  0  0  0  0  0  0  0  0  0
   21.2881   -6.1338  -13.8981 C   0  0  2  0  0  0  0  0  0  0  0  0
   19.9852   -6.6964  -13.6444 N   0  0  0  0  0  0  0  0  0  0  0  0
   21.5964   -4.9689  -13.0675 C   0  0  0  0  0  0  0  0  0  0  0  0
   20.6830   -4.1436  -12.8122 O   0  0  0  0  0  0  0  0  0  0  0  0
   22.8458   -4.6982  -12.5280 O   0  0  0  0  0  0  0  0  0  0  0  0
  2  1  1  6
  2  3  1  0
  3  4  1  0
  4  5  1  0
  5  6  2  0
  5  9  1  0
  7  8  2  0
  7  2  1  0
 11 10  1  6
 11 13  1  0
 12 11  1  0
 13 14  1  6
 14  7  1  0
 15 13  1  0
 15 21  1  0
 16 15  2  0
 18 20  1  0
 18 17  1  1
 19 18  1  0
 20 21  1  6
 20 22  1  0
 22 23  2  0
 22 24  1  0
M  END
$$$$
