EVV.pdb
     RDKit          3D

 24 23  0  0  1  0  0  0  0  0999 V2000
   22.1288  -21.0549  -14.3739 N   0  0  0  0  0  0  0  0  0  0  0  0
   21.1101  -20.6235  -13.4661 C   0  0  1  0  0  0  0  0  0  0  0  0
   19.7471  -20.6641  -14.0796 C   0  0  0  0  0  0  0  0  0  0  0  0
   19.4869  -19.5983  -15.0828 C   0  0  0  0  0  0  0  0  0  0  0  0
   19.3444  -18.2417  -14.5321 C   0  0  0  0  0  0  0  0  0  0  0  0
   20.2517  -17.3903  -14.4114 O   0  0  0  0  0  0  0  0  0  0  0  0
   21.1623  -21.3524  -12.1701 C   0  0  0  0  0  0  0  0  0  0  0  0
   21.1758  -22.6095  -12.1906 O   0  0  0  0  0  0  0  0  0  0  0  0
   18.0686  -17.8493  -14.0944 O   0  0  0  0  0  0  0  0  0  0  0  0
   23.5724  -20.4429   -9.1869 C   0  0  0  0  0  0  0  0  0  0  0  0
   22.1424  -20.5926   -8.7073 C   0  0  2  0  0  0  0  0  0  0  0  0
   22.1815  -21.3415   -7.3900 C   0  0  0  0  0  0  0  0  0  0  0  0
   21.3435  -21.4465   -9.6986 C   0  0  2  0  0  0  0  0  0  0  0  0
   21.1976  -20.7075  -10.9186 N   0  0  0  0  0  0  0  0  0  0  0  0
   20.0410  -21.8152   -9.0966 C   0  0  0  0  0  0  0  0  0  0  0  0
   19.1052  -20.9800   -9.0478 O   0  0  0  0  0  0  0  0  0  0  0  0
   18.7055  -25.8541   -8.8152 C   0  0  0  0  0  0  0  0  0  0  0  0
   17.8629  -24.6076   -8.8059 C   0  0  1  0  0  0  0  0  0  0  0  0
   16.5124  -24.9641   -8.2246 C   0  0  0  0  0  0  0  0  0  0  0  0
   18.5090  -23.4821   -7.9938 C   0  0  2  0  0  0  0  0  0  0  0  0
   19.7826  -23.1030   -8.5529 N   0  0  0  0  0  0  0  0  0  0  0  0
   18.5601  -23.7715   -6.5601 C   0  0  0  0  0  0  0  0  0  0  0  0
   19.6355  -24.1895   -6.0606 O   0  0  0  0  0  0  0  0  0  0  0  0
   17.4905  -23.6174   -5.6897 O   0  0  0  0  0  0  0  0  0  0  0  0
  2  1  1  6
  2  3  1  0
  3  4  1  0
  4  5  1  0
  5  6  2  0
  5  9  1  0
  7  8  2  0
  7  2  1  0
 11 10  1  6
 11 13  1  0
 12 11  1  0
 13 14  1  6
 14  7  1  0
 15 13  1  0
 15 21  1  0
 16 15  2  0
 18 20  1  0
 18 17  1  1
 19 18  1  0
 20 21  1  6
 20 22  1  0
 22 23  2  0
 22 24  1  0
M  END
$$$$
