EVV.pdb
     RDKit          3D

 24 23  0  0  1  0  0  0  0  0999 V2000
   16.1464  -10.8653  -12.4724 N   0  0  0  0  0  0  0  0  0  0  0  0
   16.7426   -9.7344  -11.8292 C   0  0  1  0  0  0  0  0  0  0  0  0
   17.6614   -8.9820  -12.7378 C   0  0  0  0  0  0  0  0  0  0  0  0
   18.8100   -9.7735  -13.2518 C   0  0  0  0  0  0  0  0  0  0  0  0
   19.6959   -9.0585  -14.1835 C   0  0  0  0  0  0  0  0  0  0  0  0
   20.9153   -8.8342  -14.0240 O   0  0  0  0  0  0  0  0  0  0  0  0
   15.7311   -8.8462  -11.1956 C   0  0  0  0  0  0  0  0  0  0  0  0
   14.7080   -8.5366  -11.8577 O   0  0  0  0  0  0  0  0  0  0  0  0
   19.1305   -8.5739  -15.3745 O   0  0  0  0  0  0  0  0  0  0  0  0
   13.5471   -9.4372   -8.5532 C   0  0  0  0  0  0  0  0  0  0  0  0
   14.2422   -8.1635   -8.1148 C   0  0  2  0  0  0  0  0  0  0  0  0
   13.1815   -7.2383   -7.5521 C   0  0  0  0  0  0  0  0  0  0  0  0
   14.8676   -7.4635   -9.3268 C   0  0  2  0  0  0  0  0  0  0  0  0
   15.8589   -8.3327   -9.8905 N   0  0  0  0  0  0  0  0  0  0  0  0
   15.4266   -6.1567   -8.9093 C   0  0  0  0  0  0  0  0  0  0  0  0
   16.4567   -6.1063   -8.1936 O   0  0  0  0  0  0  0  0  0  0  0  0
   14.8976   -2.5609  -11.0887 C   0  0  0  0  0  0  0  0  0  0  0  0
   15.9400   -2.8585  -10.0452 C   0  0  1  0  0  0  0  0  0  0  0  0
   16.5140   -1.5406   -9.5731 C   0  0  0  0  0  0  0  0  0  0  0  0
   15.3632   -3.6396   -8.8617 C   0  0  2  0  0  0  0  0  0  0  0  0
   14.8435   -4.9158   -9.2853 N   0  0  0  0  0  0  0  0  0  0  0  0
   14.4167   -2.8544   -8.0683 C   0  0  0  0  0  0  0  0  0  0  0  0
   13.1860   -2.9700   -8.2979 O   0  0  0  0  0  0  0  0  0  0  0  0
   14.7797   -1.9728   -7.0602 O   0  0  0  0  0  0  0  0  0  0  0  0
  2  1  1  6
  2  3  1  0
  3  4  1  0
  4  5  1  0
  5  6  2  0
  5  9  1  0
  7  8  2  0
  7  2  1  0
 11 10  1  6
 11 13  1  0
 12 11  1  0
 13 14  1  1
 14  7  1  0
 15 13  1  0
 15 21  1  0
 16 15  2  0
 18 20  1  0
 18 17  1  6
 19 18  1  0
 20 21  1  6
 20 22  1  0
 22 23  2  0
 22 24  1  0
M  END
$$$$
