EVV.pdb
     RDKit          3D

 24 23  0  0  1  0  0  0  0  0999 V2000
   20.5397  -19.6425  -12.9445 N   0  0  0  0  0  0  0  0  0  0  0  0
   21.3674  -20.7855  -13.1823 C   0  0  1  0  0  0  0  0  0  0  0  0
   20.9400  -21.5559  -14.3904 C   0  0  0  0  0  0  0  0  0  0  0  0
   19.6060  -22.2017  -14.2738 C   0  0  0  0  0  0  0  0  0  0  0  0
   19.3093  -22.7926  -12.9597 C   0  0  0  0  0  0  0  0  0  0  0  0
   19.8545  -23.7997  -12.4584 O   0  0  0  0  0  0  0  0  0  0  0  0
   22.8133  -20.4376  -13.2232 C   0  0  0  0  0  0  0  0  0  0  0  0
   23.1516  -19.3459  -13.7473 O   0  0  0  0  0  0  0  0  0  0  0  0
   18.3178  -22.1756  -12.1792 O   0  0  0  0  0  0  0  0  0  0  0  0
   25.4380  -20.8485  -10.3481 C   0  0  0  0  0  0  0  0  0  0  0  0
   25.9634  -21.4857  -11.6190 C   0  0  2  0  0  0  0  0  0  0  0  0
   27.4185  -21.0847  -11.7598 C   0  0  0  0  0  0  0  0  0  0  0  0
   25.2128  -20.9287  -12.8341 C   0  0  2  0  0  0  0  0  0  0  0  0
   23.8257  -21.2680  -12.7046 N   0  0  0  0  0  0  0  0  0  0  0  0
   25.8166  -21.4637  -14.0766 C   0  0  0  0  0  0  0  0  0  0  0  0
   25.9728  -22.7004  -14.2251 O   0  0  0  0  0  0  0  0  0  0  0  0
   26.2645  -21.3584  -18.8618 C   0  0  0  0  0  0  0  0  0  0  0  0
   25.7735  -20.8238  -17.5439 C   0  0  1  0  0  0  0  0  0  0  0  0
   24.4165  -21.4351  -17.2713 C   0  0  0  0  0  0  0  0  0  0  0  0
   26.7378  -21.1422  -16.3983 C   0  0  2  0  0  0  0  0  0  0  0  0
   26.2434  -20.6288  -15.1452 N   0  0  0  0  0  0  0  0  0  0  0  0
   28.1174  -20.7505  -16.6898 C   0  0  0  0  0  0  0  0  0  0  0  0
   28.4365  -19.5371  -16.6089 O   0  0  0  0  0  0  0  0  0  0  0  0
   29.1230  -21.6333  -17.0569 O   0  0  0  0  0  0  0  0  0  0  0  0
  2  1  1  6
  2  3  1  0
  3  4  1  0
  4  5  1  0
  5  6  2  0
  5  9  1  0
  7  8  2  0
  7  2  1  0
 11 10  1  1
 11 13  1  0
 12 11  1  0
 13 14  1  1
 14  7  1  0
 15 13  1  0
 15 21  1  0
 16 15  2  0
 18 20  1  0
 18 17  1  6
 19 18  1  0
 20 21  1  1
 20 22  1  0
 22 23  2  0
 22 24  1  0
M  END
$$$$
