EVV.pdb
     RDKit          3D

 24 23  0  0  1  0  0  0  0  0999 V2000
   18.3852  -24.2634  -14.4099 N   0  0  0  0  0  0  0  0  0  0  0  0
   19.0062  -23.9167  -13.1680 C   0  0  1  0  0  0  0  0  0  0  0  0
   18.8112  -22.4763  -12.8172 C   0  0  0  0  0  0  0  0  0  0  0  0
   19.4460  -21.5173  -13.7593 C   0  0  0  0  0  0  0  0  0  0  0  0
   18.5323  -20.8967  -14.7308 C   0  0  0  0  0  0  0  0  0  0  0  0
   17.2887  -21.0196  -14.7640 O   0  0  0  0  0  0  0  0  0  0  0  0
   18.5992  -24.8225  -12.0602 C   0  0  0  0  0  0  0  0  0  0  0  0
   17.3825  -25.1178  -11.9450 O   0  0  0  0  0  0  0  0  0  0  0  0
   19.0981  -20.0824  -15.7258 O   0  0  0  0  0  0  0  0  0  0  0  0
   19.8895  -28.2383  -11.3524 C   0  0  0  0  0  0  0  0  0  0  0  0
   20.0042  -27.4631  -10.0549 C   0  0  2  0  0  0  0  0  0  0  0  0
   19.5294  -28.3729   -8.9392 C   0  0  0  0  0  0  0  0  0  0  0  0
   19.0710  -26.2473  -10.0861 C   0  0  2  0  0  0  0  0  0  0  0  0
   19.5066  -25.3683  -11.1317 N   0  0  0  0  0  0  0  0  0  0  0  0
   19.0661  -25.5932   -8.7569 C   0  0  0  0  0  0  0  0  0  0  0  0
   20.0683  -24.9480   -8.3631 O   0  0  0  0  0  0  0  0  0  0  0  0
   16.0861  -23.4588   -7.4544 C   0  0  0  0  0  0  0  0  0  0  0  0
   16.5264  -24.3759   -6.3458 C   0  0  1  0  0  0  0  0  0  0  0  0
   15.4994  -25.4797   -6.2207 C   0  0  0  0  0  0  0  0  0  0  0  0
   17.9133  -24.9695   -6.6065 C   0  0  2  0  0  0  0  0  0  0  0  0
   17.9545  -25.6570   -7.8729 N   0  0  0  0  0  0  0  0  0  0  0  0
   18.4091  -25.7710   -5.4870 C   0  0  0  0  0  0  0  0  0  0  0  0
   18.1905  -27.0091   -5.4799 O   0  0  0  0  0  0  0  0  0  0  0  0
   19.1173  -25.2600   -4.4087 O   0  0  0  0  0  0  0  0  0  0  0  0
  2  1  1  6
  2  3  1  0
  3  4  1  0
  4  5  1  0
  5  6  2  0
  5  9  1  0
  7  8  2  0
  7  2  1  0
 11 10  1  6
 11 13  1  0
 12 11  1  0
 13 14  1  6
 14  7  1  0
 15 13  1  0
 15 21  1  0
 16 15  2  0
 18 20  1  0
 18 17  1  6
 19 18  1  0
 20 21  1  6
 20 22  1  0
 22 23  2  0
 22 24  1  0
M  END
$$$$
