EVV.pdb
     RDKit          3D

 24 23  0  0  1  0  0  0  0  0999 V2000
   25.5351  -18.5999  -15.7130 N   0  0  0  0  0  0  0  0  0  0  0  0
   26.4483  -18.8846  -14.6485 C   0  0  1  0  0  0  0  0  0  0  0  0
   27.6010  -17.9327  -14.6179 C   0  0  0  0  0  0  0  0  0  0  0  0
   28.7785  -18.3592  -15.4189 C   0  0  0  0  0  0  0  0  0  0  0  0
   28.5164  -18.5771  -16.8499 C   0  0  0  0  0  0  0  0  0  0  0  0
   28.1378  -17.7173  -17.6746 O   0  0  0  0  0  0  0  0  0  0  0  0
   25.7666  -18.9805  -13.3295 C   0  0  0  0  0  0  0  0  0  0  0  0
   25.0913  -17.9972  -12.9320 O   0  0  0  0  0  0  0  0  0  0  0  0
   28.7059  -19.8742  -17.3545 O   0  0  0  0  0  0  0  0  0  0  0  0
   23.0268  -20.7657  -12.6763 C   0  0  0  0  0  0  0  0  0  0  0  0
   23.9321  -21.2488  -11.5607 C   0  0  2  0  0  0  0  0  0  0  0  0
   23.0952  -21.3283  -10.2994 C   0  0  0  0  0  0  0  0  0  0  0  0
   25.0466  -20.2265  -11.3098 C   0  0  2  0  0  0  0  0  0  0  0  0
   25.8376  -20.1169  -12.5007 N   0  0  0  0  0  0  0  0  0  0  0  0
   25.8439  -20.6426  -10.1326 C   0  0  0  0  0  0  0  0  0  0  0  0
   26.4511  -21.7412  -10.1332 O   0  0  0  0  0  0  0  0  0  0  0  0
   27.2565  -19.7851   -5.4048 C   0  0  0  0  0  0  0  0  0  0  0  0
   26.7708  -19.2512   -6.7249 C   0  0  1  0  0  0  0  0  0  0  0  0
   27.8865  -18.4296   -7.3325 C   0  0  0  0  0  0  0  0  0  0  0  0
   26.3565  -20.3721   -7.6818 C   0  0  2  0  0  0  0  0  0  0  0  0
   25.9639  -19.8422   -8.9638 N   0  0  0  0  0  0  0  0  0  0  0  0
   25.3730  -21.2849   -7.0978 C   0  0  0  0  0  0  0  0  0  0  0  0
   24.1594  -20.9565   -7.1011 O   0  0  0  0  0  0  0  0  0  0  0  0
   25.6821  -22.5117   -6.5279 O   0  0  0  0  0  0  0  0  0  0  0  0
  2  1  1  6
  2  3  1  0
  3  4  1  0
  4  5  1  0
  5  6  2  0
  5  9  1  0
  7  8  2  0
  7  2  1  0
 11 10  1  6
 11 13  1  0
 12 11  1  0
 13 14  1  6
 14  7  1  0
 15 13  1  0
 15 21  1  0
 16 15  2  0
 18 20  1  0
 18 17  1  1
 19 18  1  0
 20 21  1  6
 20 22  1  0
 22 23  2  0
 22 24  1  0
M  END
$$$$
