EVV.pdb
     RDKit          3D

 24 23  0  0  1  0  0  0  0  0999 V2000
   30.1458  -23.7705  -16.6682 N   0  0  0  0  0  0  0  0  0  0  0  0
   29.1061  -22.9076  -17.1398 C   0  0  1  0  0  0  0  0  0  0  0  0
   28.3448  -23.5047  -18.2799 C   0  0  0  0  0  0  0  0  0  0  0  0
   28.5938  -22.8608  -19.5965 C   0  0  0  0  0  0  0  0  0  0  0  0
   29.7983  -23.3246  -20.3022 C   0  0  0  0  0  0  0  0  0  0  0  0
   30.5078  -24.3065  -19.9936 O   0  0  0  0  0  0  0  0  0  0  0  0
   28.2080  -22.4535  -16.0441 C   0  0  0  0  0  0  0  0  0  0  0  0
   27.8875  -23.2794  -15.1519 O   0  0  0  0  0  0  0  0  0  0  0  0
   30.2041  -22.6032  -21.4372 O   0  0  0  0  0  0  0  0  0  0  0  0
   29.0859  -19.8826  -13.6852 C   0  0  0  0  0  0  0  0  0  0  0  0
   27.7296  -19.4711  -14.2224 C   0  0  2  0  0  0  0  0  0  0  0  0
   26.9168  -18.9517  -13.0530 C   0  0  0  0  0  0  0  0  0  0  0  0
   26.9958  -20.6933  -14.7862 C   0  0  2  0  0  0  0  0  0  0  0  0
   27.6967  -21.1444  -15.9528 N   0  0  0  0  0  0  0  0  0  0  0  0
   25.5864  -20.3365  -15.0706 C   0  0  0  0  0  0  0  0  0  0  0  0
   25.3126  -19.4818  -15.9482 O   0  0  0  0  0  0  0  0  0  0  0  0
   23.0524  -22.0534  -16.6356 C   0  0  0  0  0  0  0  0  0  0  0  0
   22.3623  -21.6550  -15.3593 C   0  0  1  0  0  0  0  0  0  0  0  0
   22.2477  -22.8873  -14.4891 C   0  0  0  0  0  0  0  0  0  0  0  0
   23.1185  -20.5503  -14.6167 C   0  0  2  0  0  0  0  0  0  0  0  0
   24.4905  -20.9263  -14.3833 N   0  0  0  0  0  0  0  0  0  0  0  0
   22.4222  -20.0936  -13.4133 C   0  0  0  0  0  0  0  0  0  0  0  0
   22.8690  -20.4278  -12.2867 O   0  0  0  0  0  0  0  0  0  0  0  0
   21.2818  -19.3030  -13.4187 O   0  0  0  0  0  0  0  0  0  0  0  0
  2  1  1  1
  2  3  1  0
  3  4  1  0
  4  5  1  0
  5  6  2  0
  5  9  1  0
  7  8  2  0
  7  2  1  0
 11 10  1  1
 11 13  1  0
 12 11  1  0
 13 14  1  6
 14  7  1  0
 15 13  1  0
 15 21  1  0
 16 15  2  0
 18 20  1  0
 18 17  1  6
 19 18  1  0
 20 21  1  1
 20 22  1  0
 22 23  2  0
 22 24  1  0
M  END
$$$$
