NQL.pdb
     RDKit          3D

 26 25  0  0  1  0  0  0  0  0999 V2000
    7.7193  -18.3887   17.2793 N   0  0  0  0  0  0  0  0  0  0  0  0
    7.2182  -17.1483   17.7291 C   0  0  0  0  0  0  0  0  0  0  0  0
    7.0997  -16.2088   16.9116 O   0  0  0  0  0  0  0  0  0  0  0  0
    6.8365  -16.9492   19.1373 C   0  0  0  0  0  0  0  0  0  0  0  0
    8.0485  -16.6802   20.0181 C   0  0  2  0  0  0  0  0  0  0  0  0
    8.9803  -17.7731   19.8921 N   0  0  0  0  0  0  0  0  0  0  0  0
    7.6633  -16.5333   21.4298 C   0  0  0  0  0  0  0  0  0  0  0  0
    6.8759  -15.6341   21.7709 O   0  0  0  0  0  0  0  0  0  0  0  0
    7.6478  -21.1083   25.6624 N   0  0  0  0  0  0  0  0  0  0  0  0
    7.3584  -20.0066   26.5012 C   0  0  0  0  0  0  0  0  0  0  0  0
    7.1139  -20.2102   27.7083 O   0  0  0  0  0  0  0  0  0  0  0  0
    7.3534  -18.6544   25.9579 C   0  0  0  0  0  0  0  0  0  0  0  0
    7.7296  -18.6073   24.5345 C   0  0  0  0  0  0  0  0  0  0  0  0
    7.7114  -17.3085   23.8242 C   0  0  2  0  0  0  0  0  0  0  0  0
    8.1531  -17.3863   22.4656 N   0  0  0  0  0  0  0  0  0  0  0  0
    8.3695  -16.2101   24.5793 C   0  0  0  0  0  0  0  0  0  0  0  0
    9.5934  -15.9468   24.4070 O   0  0  0  0  0  0  0  0  0  0  0  0
    5.9324  -11.4336   27.2583 C   0  0  0  0  0  0  0  0  0  0  0  0
    7.1332  -12.1186   26.6355 C   0  0  2  0  0  0  0  0  0  0  0  0
    7.3269  -11.6669   25.2427 C   0  0  0  0  0  0  0  0  0  0  0  0
    7.2395  -13.5577   26.9404 C   0  0  0  0  0  0  0  0  0  0  0  0
    8.3086  -14.3642   26.3105 C   0  0  2  0  0  0  0  0  0  0  0  0
    7.6566  -15.4267   25.5097 N   0  0  0  0  0  0  0  0  0  0  0  0
    9.1563  -15.0820   27.2751 C   0  0  0  0  0  0  0  0  0  0  0  0
    9.1763  -16.4600   27.4652 O   0  0  0  0  0  0  0  0  0  0  0  0
    9.9743  -14.4585   28.0508 O   0  0  0  0  0  0  0  0  0  0  0  0
  2  4  1  0
  2  1  1  0
  3  2  2  0
  5  7  1  0
  5  4  1  0
  5  6  1  1
  7  8  2  0
 10  9  1  0
 10 12  1  0
 11 10  2  0
 13 12  1  0
 14 13  1  1
 15 14  1  0
 15  7  1  0
 16 14  1  0
 17 16  2  0
 19 18  1  6
 19 21  1  0
 20 19  1  0
 22 21  1  1
 22 23  1  0
 22 24  1  0
 23 16  1  0
 24 25  1  0
 26 24  2  0
M  END
$$$$
