NQL.pdb
     RDKit          3D

 26 25  0  0  1  0  0  0  0  0999 V2000
    8.9840  -14.1080   17.3830 N   0  0  0  0  0  0  0  0  0  0  0  0
    7.7438  -13.6190   17.8466 C   0  0  0  0  0  0  0  0  0  0  0  0
    7.0323  -12.9389   17.0744 O   0  0  0  0  0  0  0  0  0  0  0  0
    7.2819  -13.8977   19.2167 C   0  0  0  0  0  0  0  0  0  0  0  0
    8.3254  -14.6612   20.0199 C   0  0  2  0  0  0  0  0  0  0  0  0
    8.6468  -15.8894   19.3367 N   0  0  0  0  0  0  0  0  0  0  0  0
    7.8383  -14.9732   21.3721 C   0  0  0  0  0  0  0  0  0  0  0  0
    7.4203  -14.0641   22.1095 O   0  0  0  0  0  0  0  0  0  0  0  0
    6.8833  -20.7451   23.8242 N   0  0  0  0  0  0  0  0  0  0  0  0
    6.6154  -19.9207   24.9421 C   0  0  0  0  0  0  0  0  0  0  0  0
    6.2073  -20.4448   25.9991 O   0  0  0  0  0  0  0  0  0  0  0  0
    6.8211  -18.4807   24.8556 C   0  0  0  0  0  0  0  0  0  0  0  0
    7.2351  -18.0405   23.5123 C   0  0  0  0  0  0  0  0  0  0  0  0
    7.4298  -16.5961   23.2525 C   0  0  2  0  0  0  0  0  0  0  0  0
    7.8151  -16.2973   21.9074 N   0  0  0  0  0  0  0  0  0  0  0  0
    8.2923  -15.9233   24.2591 C   0  0  0  0  0  0  0  0  0  0  0  0
    9.3571  -15.3372   23.9133 O   0  0  0  0  0  0  0  0  0  0  0  0
    8.0960  -11.9605   26.2306 C   0  0  0  0  0  0  0  0  0  0  0  0
    7.0136  -12.9664   26.5703 C   0  0  2  0  0  0  0  0  0  0  0  0
    5.8262  -12.2868   27.1268 C   0  0  0  0  0  0  0  0  0  0  0  0
    7.5059  -14.1932   27.2246 C   0  0  0  0  0  0  0  0  0  0  0  0
    8.5865  -14.9802   26.5899 C   0  0  2  0  0  0  0  0  0  0  0  0
    7.9559  -15.9145   25.6282 N   0  0  0  0  0  0  0  0  0  0  0  0
    9.3228  -15.8413   27.5284 C   0  0  0  0  0  0  0  0  0  0  0  0
    9.2774  -17.2315   27.5560 O   0  0  0  0  0  0  0  0  0  0  0  0
   10.0933  -15.3482   28.4354 O   0  0  0  0  0  0  0  0  0  0  0  0
  2  4  1  0
  2  1  1  0
  3  2  2  0
  5  7  1  0
  5  4  1  0
  5  6  1  6
  7  8  2  0
 10  9  1  0
 10 12  1  0
 11 10  2  0
 13 12  1  0
 14 13  1  1
 15 14  1  0
 15  7  1  0
 16 14  1  0
 17 16  2  0
 19 18  1  1
 19 21  1  0
 20 19  1  0
 22 21  1  1
 22 23  1  0
 22 24  1  0
 23 16  1  0
 24 25  1  0
 26 24  2  0
M  END
$$$$
