NQL.pdb
     RDKit          3D

 26 25  0  0  1  0  0  0  0  0999 V2000
    7.3611  -12.0943   17.3688 N   0  0  0  0  0  0  0  0  0  0  0  0
    7.9604  -13.3018   17.7872 C   0  0  0  0  0  0  0  0  0  0  0  0
    8.7612  -13.8800   17.0196 O   0  0  0  0  0  0  0  0  0  0  0  0
    7.6563  -13.8835   19.1054 C   0  0  0  0  0  0  0  0  0  0  0  0
    8.9032  -14.4402   19.7779 C   0  0  2  0  0  0  0  0  0  0  0  0
    9.4503  -15.4978   18.9651 N   0  0  0  0  0  0  0  0  0  0  0  0
    8.6001  -14.9670   21.1171 C   0  0  0  0  0  0  0  0  0  0  0  0
    7.8599  -14.3290   21.8853 O   0  0  0  0  0  0  0  0  0  0  0  0
   10.7507  -20.3199   22.4296 N   0  0  0  0  0  0  0  0  0  0  0  0
    9.4474  -20.3006   21.8799 C   0  0  0  0  0  0  0  0  0  0  0  0
    9.0724  -21.2586   21.1729 O   0  0  0  0  0  0  0  0  0  0  0  0
    8.5581  -19.1769   22.1444 C   0  0  0  0  0  0  0  0  0  0  0  0
    9.1534  -18.1742   23.0444 C   0  0  0  0  0  0  0  0  0  0  0  0
    8.7843  -16.7494   22.8851 C   0  0  2  0  0  0  0  0  0  0  0  0
    9.1195  -16.2049   21.6053 N   0  0  0  0  0  0  0  0  0  0  0  0
    9.2366  -15.8900   24.0106 C   0  0  0  0  0  0  0  0  0  0  0  0
   10.4368  -15.5026   24.0894 O   0  0  0  0  0  0  0  0  0  0  0  0
    8.1488  -11.8210   25.4839 C   0  0  0  0  0  0  0  0  0  0  0  0
    7.1180  -12.8446   25.9184 C   0  0  2  0  0  0  0  0  0  0  0  0
    5.8753  -12.1787   26.3586 C   0  0  0  0  0  0  0  0  0  0  0  0
    7.6616  -13.9498   26.7298 C   0  0  0  0  0  0  0  0  0  0  0  0
    8.8076  -14.7373   26.2231 C   0  0  2  0  0  0  0  0  0  0  0  0
    8.3484  -15.4783   25.0250 N   0  0  0  0  0  0  0  0  0  0  0  0
    9.2727  -15.7752   27.1562 C   0  0  0  0  0  0  0  0  0  0  0  0
   10.1022  -15.5637   28.2528 O   0  0  0  0  0  0  0  0  0  0  0  0
    8.9340  -17.0102   27.0164 O   0  0  0  0  0  0  0  0  0  0  0  0
  2  4  1  0
  2  1  1  0
  3  2  2  0
  5  7  1  0
  5  4  1  0
  5  6  1  6
  7  8  2  0
 10  9  1  0
 10 12  1  0
 11 10  2  0
 13 12  1  0
 14 13  1  1
 15 14  1  0
 15  7  1  0
 16 14  1  0
 17 16  2  0
 19 18  1  1
 19 21  1  0
 20 19  1  0
 22 21  1  1
 22 23  1  0
 22 24  1  0
 23 16  1  0
 24 25  1  0
 26 24  2  0
M  END
$$$$
