NQL.pdb
     RDKit          3D

 26 25  0  0  1  0  0  0  0  0999 V2000
    5.8588  -19.5883   17.4892 N   0  0  0  0  0  0  0  0  0  0  0  0
    6.9752  -19.4552   18.3425 C   0  0  0  0  0  0  0  0  0  0  0  0
    7.7575  -20.4226   18.4741 O   0  0  0  0  0  0  0  0  0  0  0  0
    7.2275  -18.2018   19.0729 C   0  0  0  0  0  0  0  0  0  0  0  0
    8.2554  -18.3905   20.1796 C   0  0  2  0  0  0  0  0  0  0  0  0
    7.5806  -18.7661   21.3970 N   0  0  0  0  0  0  0  0  0  0  0  0
    9.0240  -17.1585   20.4131 C   0  0  0  0  0  0  0  0  0  0  0  0
    9.8338  -16.7576   19.5595 O   0  0  0  0  0  0  0  0  0  0  0  0
    8.8951  -12.2197   18.7833 N   0  0  0  0  0  0  0  0  0  0  0  0
    8.0832  -13.3764   18.7210 C   0  0  0  0  0  0  0  0  0  0  0  0
    7.2226  -13.4664   17.8212 O   0  0  0  0  0  0  0  0  0  0  0  0
    8.2586  -14.4471   19.6939 C   0  0  0  0  0  0  0  0  0  0  0  0
    9.2020  -14.0956   20.7691 C   0  0  0  0  0  0  0  0  0  0  0  0
    9.5554  -15.1147   21.7831 C   0  0  2  0  0  0  0  0  0  0  0  0
    8.8938  -16.3695   21.5966 N   0  0  0  0  0  0  0  0  0  0  0  0
    9.4606  -14.6183   23.1811 C   0  0  0  0  0  0  0  0  0  0  0  0
   10.0823  -13.5800   23.5445 O   0  0  0  0  0  0  0  0  0  0  0  0
    5.8422  -12.4545   26.7523 C   0  0  0  0  0  0  0  0  0  0  0  0
    7.2547  -12.9510   26.5135 C   0  0  2  0  0  0  0  0  0  0  0  0
    8.1221  -11.8509   26.0458 C   0  0  0  0  0  0  0  0  0  0  0  0
    7.3342  -14.2594   25.8374 C   0  0  0  0  0  0  0  0  0  0  0  0
    8.6565  -14.8672   25.5686 C   0  0  2  0  0  0  0  0  0  0  0  0
    8.6783  -15.2839   24.1468 N   0  0  0  0  0  0  0  0  0  0  0  0
    8.9079  -16.1009   26.3296 C   0  0  0  0  0  0  0  0  0  0  0  0
    9.0938  -17.3657   25.7808 O   0  0  0  0  0  0  0  0  0  0  0  0
    8.9724  -16.0997   27.6162 O   0  0  0  0  0  0  0  0  0  0  0  0
  2  4  1  0
  2  1  1  0
  3  2  2  0
  5  7  1  0
  5  4  1  0
  5  6  1  1
  7  8  2  0
 10  9  1  0
 10 12  1  0
 11 10  2  0
 13 12  1  0
 14 13  1  6
 15 14  1  0
 15  7  1  0
 16 14  1  0
 17 16  2  0
 19 18  1  6
 19 21  1  0
 20 19  1  0
 22 21  1  1
 22 23  1  0
 22 24  1  0
 23 16  1  0
 24 25  1  0
 26 24  2  0
M  END
$$$$
