NQL.pdb
     RDKit          3D

 26 25  0  0  1  0  0  0  0  0999 V2000
    8.3152  -12.5075   16.2829 N   0  0  0  0  0  0  0  0  0  0  0  0
    8.0714  -13.8928   16.3999 C   0  0  0  0  0  0  0  0  0  0  0  0
    8.1954  -14.6187   15.3887 O   0  0  0  0  0  0  0  0  0  0  0  0
    7.6761  -14.4881   17.6875 C   0  0  0  0  0  0  0  0  0  0  0  0
    8.8267  -14.4930   18.6840 C   0  0  2  0  0  0  0  0  0  0  0  0
    9.9095  -15.2856   18.1568 N   0  0  0  0  0  0  0  0  0  0  0  0
    8.4098  -15.0459   19.9815 C   0  0  0  0  0  0  0  0  0  0  0  0
    7.4229  -14.5744   20.5721 O   0  0  0  0  0  0  0  0  0  0  0  0
   10.4723  -20.4015   22.6238 N   0  0  0  0  0  0  0  0  0  0  0  0
   10.0622  -20.1676   21.2903 C   0  0  0  0  0  0  0  0  0  0  0  0
   10.3042  -21.0298   20.4205 O   0  0  0  0  0  0  0  0  0  0  0  0
    9.3619  -18.9372   20.9450 C   0  0  0  0  0  0  0  0  0  0  0  0
    9.1347  -18.0615   22.1075 C   0  0  0  0  0  0  0  0  0  0  0  0
    8.6880  -16.6675   21.8866 C   0  0  2  0  0  0  0  0  0  0  0  0
    9.0896  -16.1247   20.6253 N   0  0  0  0  0  0  0  0  0  0  0  0
    8.9911  -15.7601   23.0244 C   0  0  0  0  0  0  0  0  0  0  0  0
   10.1109  -15.1811   23.1120 O   0  0  0  0  0  0  0  0  0  0  0  0
    5.6579  -12.5102   27.0231 C   0  0  0  0  0  0  0  0  0  0  0  0
    7.0584  -12.9078   26.5996 C   0  0  2  0  0  0  0  0  0  0  0  0
    7.9647  -11.7421   26.6355 C   0  0  0  0  0  0  0  0  0  0  0  0
    7.1088  -13.8155   25.4381 C   0  0  0  0  0  0  0  0  0  0  0  0
    8.3302  -14.6105   25.1807 C   0  0  2  0  0  0  0  0  0  0  0  0
    8.0460  -15.5137   24.0410 N   0  0  0  0  0  0  0  0  0  0  0  0
    8.7011  -15.5035   26.2894 C   0  0  0  0  0  0  0  0  0  0  0  0
    9.6537  -15.2282   27.2653 O   0  0  0  0  0  0  0  0  0  0  0  0
    8.1494  -16.6577   26.4408 O   0  0  0  0  0  0  0  0  0  0  0  0
  2  4  1  0
  2  1  1  0
  3  2  2  0
  5  7  1  0
  5  4  1  0
  5  6  1  6
  7  8  2  0
 10  9  1  0
 10 12  1  0
 11 10  2  0
 13 12  1  0
 14 13  1  1
 15 14  1  0
 15  7  1  0
 16 14  1  0
 17 16  2  0
 19 18  1  6
 19 21  1  0
 20 19  1  0
 22 21  1  1
 22 23  1  0
 22 24  1  0
 23 16  1  0
 24 25  1  0
 26 24  2  0
M  END
$$$$
