NQL.pdb
     RDKit          3D

 26 25  0  0  1  0  0  0  0  0999 V2000
    7.9942  -12.4693   16.9504 N   0  0  0  0  0  0  0  0  0  0  0  0
    7.9578  -13.8723   17.1001 C   0  0  0  0  0  0  0  0  0  0  0  0
    8.2415  -14.5951   16.1191 O   0  0  0  0  0  0  0  0  0  0  0  0
    7.5931  -14.4896   18.3862 C   0  0  0  0  0  0  0  0  0  0  0  0
    8.6300  -14.2044   19.4635 C   0  0  2  0  0  0  0  0  0  0  0  0
    9.9206  -14.6650   19.0156 N   0  0  0  0  0  0  0  0  0  0  0  0
    8.2888  -14.8753   20.7270 C   0  0  0  0  0  0  0  0  0  0  0  0
    7.1609  -14.7257   21.2276 O   0  0  0  0  0  0  0  0  0  0  0  0
    9.9361  -20.4675   22.8455 N   0  0  0  0  0  0  0  0  0  0  0  0
   10.8711  -19.6073   22.2234 C   0  0  0  0  0  0  0  0  0  0  0  0
   11.9400  -20.0844   21.7896 O   0  0  0  0  0  0  0  0  0  0  0  0
   10.5811  -18.1855   22.0891 C   0  0  0  0  0  0  0  0  0  0  0  0
    9.2922  -17.8041   22.6916 C   0  0  0  0  0  0  0  0  0  0  0  0
    8.8682  -16.3861   22.6552 C   0  0  2  0  0  0  0  0  0  0  0  0
    9.2013  -15.7142   21.4368 N   0  0  0  0  0  0  0  0  0  0  0  0
    9.2676  -15.6163   23.8626 C   0  0  0  0  0  0  0  0  0  0  0  0
   10.4397  -15.1597   23.9826 O   0  0  0  0  0  0  0  0  0  0  0  0
    7.6886  -11.7476   25.4606 C   0  0  0  0  0  0  0  0  0  0  0  0
    6.8419  -12.9514   25.8248 C   0  0  2  0  0  0  0  0  0  0  0  0
    5.4760  -12.5338   26.2009 C   0  0  0  0  0  0  0  0  0  0  0  0
    7.5350  -13.9551   26.6540 C   0  0  0  0  0  0  0  0  0  0  0  0
    8.7468  -14.6264   26.1335 C   0  0  2  0  0  0  0  0  0  0  0  0
    8.3587  -15.3692   24.9116 N   0  0  0  0  0  0  0  0  0  0  0  0
    9.2951  -15.6471   27.0401 C   0  0  0  0  0  0  0  0  0  0  0  0
   10.0965  -15.3968   28.1494 O   0  0  0  0  0  0  0  0  0  0  0  0
    9.0660  -16.9022   26.8619 O   0  0  0  0  0  0  0  0  0  0  0  0
  2  4  1  0
  2  1  1  0
  3  2  2  0
  5  7  1  0
  5  4  1  0
  5  6  1  6
  7  8  2  0
 10  9  1  0
 10 12  1  0
 11 10  2  0
 13 12  1  0
 14 13  1  6
 15 14  1  0
 15  7  1  0
 16 14  1  0
 17 16  2  0
 19 18  1  1
 19 21  1  0
 20 19  1  0
 22 21  1  1
 22 23  1  0
 22 24  1  0
 23 16  1  0
 24 25  1  0
 26 24  2  0
M  END
$$$$
