NQL.pdb
     RDKit          3D

 26 25  0  0  1  0  0  0  0  0999 V2000
    8.9172  -12.9404   16.9398 N   0  0  0  0  0  0  0  0  0  0  0  0
    7.6922  -13.5825   17.2214 C   0  0  0  0  0  0  0  0  0  0  0  0
    6.7940  -13.5851   16.3506 O   0  0  0  0  0  0  0  0  0  0  0  0
    7.4615  -14.2433   18.5169 C   0  0  0  0  0  0  0  0  0  0  0  0
    8.5723  -13.9385   19.5119 C   0  0  2  0  0  0  0  0  0  0  0  0
    9.8401  -14.3207   18.9416 N   0  0  0  0  0  0  0  0  0  0  0  0
    8.3729  -14.6625   20.7764 C   0  0  0  0  0  0  0  0  0  0  0  0
    7.3845  -14.4141   21.4879 O   0  0  0  0  0  0  0  0  0  0  0  0
   10.7512  -20.3141   22.4305 N   0  0  0  0  0  0  0  0  0  0  0  0
   11.6537  -19.2251   22.4581 C   0  0  0  0  0  0  0  0  0  0  0  0
   12.8800  -19.4539   22.5058 O   0  0  0  0  0  0  0  0  0  0  0  0
   11.1518  -17.8575   22.4251 C   0  0  0  0  0  0  0  0  0  0  0  0
    9.6810  -17.7876   22.3825 C   0  0  0  0  0  0  0  0  0  0  0  0
    9.0187  -16.4639   22.4118 C   0  0  2  0  0  0  0  0  0  0  0  0
    9.2725  -15.6646   21.2526 N   0  0  0  0  0  0  0  0  0  0  0  0
    9.2355  -15.7199   23.6803 C   0  0  0  0  0  0  0  0  0  0  0  0
   10.2151  -14.9324   23.8113 O   0  0  0  0  0  0  0  0  0  0  0  0
    8.2609  -12.1004   26.4978 C   0  0  0  0  0  0  0  0  0  0  0  0
    7.1434  -12.9902   25.9894 C   0  0  2  0  0  0  0  0  0  0  0  0
    5.8315  -12.3375   26.1753 C   0  0  0  0  0  0  0  0  0  0  0  0
    7.2890  -14.4141   26.3452 C   0  0  0  0  0  0  0  0  0  0  0  0
    8.5541  -15.1202   26.0434 C   0  0  2  0  0  0  0  0  0  0  0  0
    8.3616  -15.8648   24.7770 N   0  0  0  0  0  0  0  0  0  0  0  0
    8.9123  -16.1454   27.0359 C   0  0  0  0  0  0  0  0  0  0  0  0
    9.6120  -15.9181   28.2167 O   0  0  0  0  0  0  0  0  0  0  0  0
    8.5938  -17.3830   26.8739 O   0  0  0  0  0  0  0  0  0  0  0  0
  2  4  1  0
  2  1  1  0
  3  2  2  0
  5  7  1  0
  5  4  1  0
  5  6  1  6
  7  8  2  0
 10  9  1  0
 10 12  1  0
 11 10  2  0
 13 12  1  0
 14 13  1  1
 15 14  1  0
 15  7  1  0
 16 14  1  0
 17 16  2  0
 19 18  1  1
 19 21  1  0
 20 19  1  0
 22 21  1  1
 22 23  1  0
 22 24  1  0
 23 16  1  0
 24 25  1  0
 26 24  2  0
M  END
$$$$
