NQL.pdb
     RDKit          3D

 26 25  0  0  1  0  0  0  0  0999 V2000
    9.1962  -14.1080   17.3445 N   0  0  0  0  0  0  0  0  0  0  0  0
    7.9455  -13.6295   17.7908 C   0  0  0  0  0  0  0  0  0  0  0  0
    7.2470  -12.9406   17.0146 O   0  0  0  0  0  0  0  0  0  0  0  0
    7.4580  -13.9293   19.1475 C   0  0  0  0  0  0  0  0  0  0  0  0
    8.4892  -14.6990   19.9606 C   0  0  2  0  0  0  0  0  0  0  0  0
    8.7606  -15.9590   19.3146 N   0  0  0  0  0  0  0  0  0  0  0  0
    8.0138  -14.9500   21.3295 C   0  0  0  0  0  0  0  0  0  0  0  0
    7.6622  -14.0010   22.0513 O   0  0  0  0  0  0  0  0  0  0  0  0
    6.8577  -20.6135   23.9462 N   0  0  0  0  0  0  0  0  0  0  0  0
    6.7241  -19.7620   25.0679 C   0  0  0  0  0  0  0  0  0  0  0  0
    6.4512  -20.2603   26.1794 O   0  0  0  0  0  0  0  0  0  0  0  0
    6.9098  -18.3241   24.9214 C   0  0  0  0  0  0  0  0  0  0  0  0
    7.2754  -17.9302   23.5499 C   0  0  0  0  0  0  0  0  0  0  0  0
    7.5280  -16.5025   23.2505 C   0  0  2  0  0  0  0  0  0  0  0  0
    7.9282  -16.2572   21.8990 N   0  0  0  0  0  0  0  0  0  0  0  0
    8.4140  -15.8364   24.2411 C   0  0  0  0  0  0  0  0  0  0  0  0
    9.6714  -15.8971   24.1309 O   0  0  0  0  0  0  0  0  0  0  0  0
    7.8030  -11.5443   25.3132 C   0  0  0  0  0  0  0  0  0  0  0  0
    7.0535  -12.5029   26.2178 C   0  0  2  0  0  0  0  0  0  0  0  0
    5.9386  -11.8136   26.8985 C   0  0  0  0  0  0  0  0  0  0  0  0
    7.9194  -13.4046   27.0005 C   0  0  0  0  0  0  0  0  0  0  0  0
    8.7540  -14.4083   26.3034 C   0  0  2  0  0  0  0  0  0  0  0  0
    7.8871  -15.1170   25.3329 N   0  0  0  0  0  0  0  0  0  0  0  0
    9.2754  -15.4627   27.1871 C   0  0  0  0  0  0  0  0  0  0  0  0
    8.9374  -16.8108   27.1241 O   0  0  0  0  0  0  0  0  0  0  0  0
   10.1164  -15.2015   28.1272 O   0  0  0  0  0  0  0  0  0  0  0  0
  2  4  1  0
  2  1  1  0
  3  2  2  0
  5  7  1  0
  5  4  1  0
  5  6  1  6
  7  8  2  0
 10  9  1  0
 10 12  1  0
 11 10  2  0
 13 12  1  0
 14 13  1  1
 15 14  1  0
 15  7  1  0
 16 14  1  0
 17 16  2  0
 19 18  1  1
 19 21  1  0
 20 19  1  0
 22 21  1  1
 22 23  1  0
 22 24  1  0
 23 16  1  0
 24 25  1  0
 26 24  2  0
M  END
$$$$
