QWA.pdb
     RDKit          3D

 29 30  0  0  1  0  0  0  0  0999 V2000
    8.2569  -12.5623   16.3090 N   0  0  0  0  0  0  0  0  0  0  0  0
    8.0258  -13.8999   15.9018 C   0  0  0  0  0  0  0  0  0  0  0  0
    7.6581  -14.1418   14.7343 O   0  0  0  0  0  0  0  0  0  0  0  0
    8.2280  -14.9892   16.8795 C   0  0  0  0  0  0  0  0  0  0  0  0
    8.6225  -14.4037   18.1948 C   0  0  0  0  0  0  0  0  0  0  0  0
    9.2798  -15.4369   19.0908 C   0  0  2  0  0  0  0  0  0  0  0  0
    8.7511  -16.7545   18.8533 N   0  0  0  0  0  0  0  0  0  0  0  0
    9.2412  -15.0729   20.5115 C   0  0  0  0  0  0  0  0  0  0  0  0
    9.7908  -14.0193   20.9273 O   0  0  0  0  0  0  0  0  0  0  0  0
    8.5799  -15.9012   21.4696 N   0  0  0  0  0  0  0  0  0  0  0  0
    8.5005  -15.5452   22.8692 C   0  0  1  0  0  0  0  0  0  0  0  0
    7.0903  -15.6905   23.3993 C   0  0  0  0  0  0  0  0  0  0  0  0
    6.9302  -15.1771   24.7750 C   0  0  0  0  0  0  0  0  0  0  0  0
    6.5434  -15.9401   25.8519 C   0  0  0  0  0  0  0  0  0  0  0  0
    6.5109  -15.1333   26.9346 N   0  0  0  0  0  0  0  0  0  0  0  0
    6.8649  -13.8749   26.5874 C   0  0  0  0  0  0  0  0  0  0  0  0
    6.9912  -12.6951   27.2981 C   0  0  0  0  0  0  0  0  0  0  0  0
    7.3789  -11.5113   26.6972 C   0  0  0  0  0  0  0  0  0  0  0  0
    7.6402  -11.5509   25.3362 C   0  0  0  0  0  0  0  0  0  0  0  0
    7.5230  -12.7099   24.6034 C   0  0  0  0  0  0  0  0  0  0  0  0
    7.1344  -13.8879   25.2162 C   0  0  0  0  0  0  0  0  0  0  0  0
    9.3348  -16.5374   23.6240 C   0  0  0  0  0  0  0  0  0  0  0  0
    9.3394  -17.7695   23.3254 O   0  0  0  0  0  0  0  0  0  0  0  0
   12.1832  -16.4224   26.0957 C   0  0  0  0  0  0  0  0  0  0  0  0
   11.0327  -17.0965   25.3977 C   0  0  2  0  0  0  0  0  0  0  0  0
   10.1646  -16.1511   24.7138 N   0  0  0  0  0  0  0  0  0  0  0  0
   10.2724  -17.9408   26.3476 C   0  0  0  0  0  0  0  0  0  0  0  0
    9.0083  -17.5113   26.7218 O   0  0  0  0  0  0  0  0  0  0  0  0
   10.7013  -19.0189   26.8337 O   0  0  0  0  0  0  0  0  0  0  0  0
  1  2  1  0
  2  3  2  0
  4  5  1  0
  4  2  1  0
  5  6  1  0
  6  7  1  1
  8  6  1  0
  9  8  2  0
 10  8  1  0
 11 10  1  0
 12 13  1  0
 11 12  1  1
 13 21  1  0
 13 14  2  0
 14 15  1  0
 16 15  1  0
 16 17  2  0
 18 17  1  0
 19 18  2  0
 20 19  1  0
 20 21  2  0
 21 16  1  0
 22 26  1  0
 22 11  1  0
 23 22  2  0
 25 24  1  1
 25 26  1  0
 25 27  1  0
 27 28  1  0
 29 27  2  0
M  END
$$$$
