QWA.pdb
     RDKit          3D

 29 30  0  0  1  0  0  0  0  0999 V2000
    8.0934  -12.4325   18.3332 N   0  0  0  0  0  0  0  0  0  0  0  0
    7.8359  -13.8145   18.1532 C   0  0  0  0  0  0  0  0  0  0  0  0
    7.8677  -14.3110   17.0090 O   0  0  0  0  0  0  0  0  0  0  0  0
    7.5328  -14.6447   19.3374 C   0  0  0  0  0  0  0  0  0  0  0  0
    8.6681  -14.5588   20.3029 C   0  0  0  0  0  0  0  0  0  0  0  0
    8.9049  -15.8831   21.0048 C   0  0  2  0  0  0  0  0  0  0  0  0
    7.7237  -16.7056   20.9929 N   0  0  0  0  0  0  0  0  0  0  0  0
    9.4570  -15.7268   22.3551 C   0  0  0  0  0  0  0  0  0  0  0  0
   10.3561  -14.8789   22.5952 O   0  0  0  0  0  0  0  0  0  0  0  0
    8.9935  -16.5310   23.4413 N   0  0  0  0  0  0  0  0  0  0  0  0
    9.5127  -16.3838   24.7832 C   0  0  1  0  0  0  0  0  0  0  0  0
    8.4053  -16.4263   25.8141 C   0  0  0  0  0  0  0  0  0  0  0  0
    7.3964  -15.3635   25.6282 C   0  0  0  0  0  0  0  0  0  0  0  0
    6.1323  -15.5675   25.1264 C   0  0  0  0  0  0  0  0  0  0  0  0
    5.5022  -14.3731   25.1063 N   0  0  0  0  0  0  0  0  0  0  0  0
    6.3220  -13.4070   25.5797 C   0  0  0  0  0  0  0  0  0  0  0  0
    6.1731  -12.0447   25.7671 C   0  0  0  0  0  0  0  0  0  0  0  0
    7.1872  -11.2568   26.2806 C   0  0  0  0  0  0  0  0  0  0  0  0
    8.3761  -11.8917   26.6055 C   0  0  0  0  0  0  0  0  0  0  0  0
    8.5530  -13.2452   26.4301 C   0  0  0  0  0  0  0  0  0  0  0  0
    7.5307  -14.0227   25.9155 C   0  0  0  0  0  0  0  0  0  0  0  0
   10.3807  -17.5771   25.0530 C   0  0  0  0  0  0  0  0  0  0  0  0
    9.9398  -18.7609   24.9451 O   0  0  0  0  0  0  0  0  0  0  0  0
   14.0323  -18.3237   25.6595 C   0  0  0  0  0  0  0  0  0  0  0  0
   12.5588  -18.5961   25.8006 C   0  0  2  0  0  0  0  0  0  0  0  0
   11.7428  -17.4463   25.4439 N   0  0  0  0  0  0  0  0  0  0  0  0
   12.2487  -19.0778   27.1662 C   0  0  0  0  0  0  0  0  0  0  0  0
   12.9335  -20.1918   27.6273 O   0  0  0  0  0  0  0  0  0  0  0  0
   11.4058  -18.5407   27.9301 O   0  0  0  0  0  0  0  0  0  0  0  0
  1  2  1  0
  2  3  2  0
  4  5  1  0
  4  2  1  0
  5  6  1  0
  6  7  1  1
  8  6  1  0
  9  8  2  0
 10  8  1  0
 11 10  1  0
 12 13  1  0
 11 12  1  1
 13 21  1  0
 13 14  2  0
 14 15  1  0
 16 15  1  0
 16 17  2  0
 18 17  1  0
 19 18  2  0
 20 19  1  0
 20 21  2  0
 21 16  1  0
 22 26  1  0
 22 11  1  0
 23 22  2  0
 25 24  1  1
 25 26  1  0
 25 27  1  0
 27 28  1  0
 29 27  2  0
M  END
$$$$
