QWA.pdb
     RDKit          3D

 29 30  0  0  1  0  0  0  0  0999 V2000
   11.5796  -16.6725   18.8825 N   0  0  0  0  0  0  0  0  0  0  0  0
   10.1811  -16.8201   18.7065 C   0  0  0  0  0  0  0  0  0  0  0  0
    9.7317  -17.2714   17.6336 O   0  0  0  0  0  0  0  0  0  0  0  0
    9.2775  -16.4323   19.8095 C   0  0  0  0  0  0  0  0  0  0  0  0
   10.0912  -16.0052   20.9859 C   0  0  0  0  0  0  0  0  0  0  0  0
   10.2003  -17.1105   22.0198 C   0  0  2  0  0  0  0  0  0  0  0  0
    9.0815  -18.0133   21.9473 N   0  0  0  0  0  0  0  0  0  0  0  0
   10.4167  -16.6053   23.3800 C   0  0  0  0  0  0  0  0  0  0  0  0
   11.2717  -15.7108   23.6124 O   0  0  0  0  0  0  0  0  0  0  0  0
    9.6658  -17.1114   24.4852 N   0  0  0  0  0  0  0  0  0  0  0  0
    9.9320  -16.7031   25.8469 C   0  0  1  0  0  0  0  0  0  0  0  0
    8.6519  -16.5472   26.6394 C   0  0  0  0  0  0  0  0  0  0  0  0
    7.6654  -15.6650   25.9832 C   0  0  0  0  0  0  0  0  0  0  0  0
    6.6811  -16.0980   25.1259 C   0  0  0  0  0  0  0  0  0  0  0  0
    5.9769  -15.0152   24.7311 N   0  0  0  0  0  0  0  0  0  0  0  0
    6.4778  -13.8992   25.3080 C   0  0  0  0  0  0  0  0  0  0  0  0
    6.1333  -12.5612   25.2422 C   0  0  0  0  0  0  0  0  0  0  0  0
    6.8200  -11.5885   25.9458 C   0  0  0  0  0  0  0  0  0  0  0  0
    7.8821  -12.0096   26.7311 C   0  0  0  0  0  0  0  0  0  0  0  0
    8.2477  -13.3337   26.8161 C   0  0  0  0  0  0  0  0  0  0  0  0
    7.5526  -14.2975   26.1073 C   0  0  0  0  0  0  0  0  0  0  0  0
   10.6943  -17.8179   26.4999 C   0  0  0  0  0  0  0  0  0  0  0  0
   10.9755  -17.7994   27.7360 O   0  0  0  0  0  0  0  0  0  0  0  0
   12.0660  -21.2202   25.5042 C   0  0  0  0  0  0  0  0  0  0  0  0
   11.9290  -20.0098   26.3882 C   0  0  2  0  0  0  0  0  0  0  0  0
   11.1426  -18.9542   25.7698 N   0  0  0  0  0  0  0  0  0  0  0  0
   13.2624  -19.5184   26.8053 C   0  0  0  0  0  0  0  0  0  0  0  0
   13.9027  -18.6103   25.9758 O   0  0  0  0  0  0  0  0  0  0  0  0
   13.8470  -19.8727   27.8612 O   0  0  0  0  0  0  0  0  0  0  0  0
  1  2  1  0
  2  3  2  0
  4  5  1  0
  4  2  1  0
  5  6  1  0
  6  7  1  1
  8  6  1  0
  9  8  2  0
 10  8  1  0
 11 10  1  0
 12 13  1  0
 11 12  1  1
 13 21  1  0
 13 14  2  0
 14 15  1  0
 16 15  1  0
 16 17  2  0
 18 17  1  0
 19 18  2  0
 20 19  1  0
 20 21  2  0
 21 16  1  0
 22 26  1  0
 22 11  1  0
 23 22  2  0
 25 24  1  6
 25 26  1  0
 25 27  1  0
 27 28  1  0
 29 27  2  0
M  END
$$$$
