QWA.pdb
     RDKit          3D

 29 30  0  0  1  0  0  0  0  0999 V2000
    8.4776  -12.3888   18.8605 N   0  0  0  0  0  0  0  0  0  0  0  0
    7.9492  -13.5313   18.2094 C   0  0  0  0  0  0  0  0  0  0  0  0
    7.5323  -13.4438   17.0367 O   0  0  0  0  0  0  0  0  0  0  0  0
    7.9038  -14.8138   18.9419 C   0  0  0  0  0  0  0  0  0  0  0  0
    8.4252  -14.6094   20.3258 C   0  0  0  0  0  0  0  0  0  0  0  0
    8.8228  -15.9236   20.9719 C   0  0  2  0  0  0  0  0  0  0  0  0
    7.7522  -16.8843   20.9165 N   0  0  0  0  0  0  0  0  0  0  0  0
    9.3491  -15.7591   22.3314 C   0  0  0  0  0  0  0  0  0  0  0  0
   10.1980  -14.8678   22.5960 O   0  0  0  0  0  0  0  0  0  0  0  0
    8.9166  -16.6042   23.3993 N   0  0  0  0  0  0  0  0  0  0  0  0
    9.4257  -16.4634   24.7457 C   0  0  1  0  0  0  0  0  0  0  0  0
    8.3200  -16.5841   25.7722 C   0  0  0  0  0  0  0  0  0  0  0  0
    7.3211  -15.4998   25.6814 C   0  0  0  0  0  0  0  0  0  0  0  0
    6.0162  -15.6731   25.2832 C   0  0  0  0  0  0  0  0  0  0  0  0
    5.4109  -14.4665   25.3279 N   0  0  0  0  0  0  0  0  0  0  0  0
    6.2862  -13.5224   25.7424 C   0  0  0  0  0  0  0  0  0  0  0  0
    6.1809  -12.1599   25.9560 C   0  0  0  0  0  0  0  0  0  0  0  0
    7.2496  -11.3981   26.3926 C   0  0  0  0  0  0  0  0  0  0  0  0
    8.4480  -12.0599   26.6117 C   0  0  0  0  0  0  0  0  0  0  0  0
    8.5824  -13.4143   26.4079 C   0  0  0  0  0  0  0  0  0  0  0  0
    7.5057  -14.1655   25.9710 C   0  0  0  0  0  0  0  0  0  0  0  0
   10.3506  -17.6189   24.9900 C   0  0  0  0  0  0  0  0  0  0  0  0
   10.0251  -18.8080   24.6944 O   0  0  0  0  0  0  0  0  0  0  0  0
   13.9736  -18.1655   25.8725 C   0  0  0  0  0  0  0  0  0  0  0  0
   12.5234  -18.5669   25.8393 C   0  0  2  0  0  0  0  0  0  0  0  0
   11.6404  -17.4443   25.5654 N   0  0  0  0  0  0  0  0  0  0  0  0
   12.1476  -19.2581   27.0940 C   0  0  0  0  0  0  0  0  0  0  0  0
   11.1259  -18.7067   27.8521 O   0  0  0  0  0  0  0  0  0  0  0  0
   12.6961  -20.3101   27.5123 O   0  0  0  0  0  0  0  0  0  0  0  0
  1  2  1  0
  2  3  2  0
  4  5  1  0
  4  2  1  0
  5  6  1  0
  6  7  1  1
  8  6  1  0
  9  8  2  0
 10  8  1  0
 11 10  1  0
 12 13  1  0
 11 12  1  1
 13 21  1  0
 13 14  2  0
 14 15  1  0
 16 15  1  0
 16 17  2  0
 18 17  1  0
 19 18  2  0
 20 19  1  0
 20 21  2  0
 21 16  1  0
 22 26  1  0
 22 11  1  0
 23 22  2  0
 25 24  1  1
 25 26  1  0
 25 27  1  0
 27 28  1  0
 29 27  2  0
M  END
$$$$
