QWA.pdb
     RDKit          3D

 29 30  0  0  1  0  0  0  0  0999 V2000
    9.0635  -21.0049   21.4174 N   0  0  0  0  0  0  0  0  0  0  0  0
   10.2284  -20.3420   20.9569 C   0  0  0  0  0  0  0  0  0  0  0  0
   11.1841  -21.0033   20.5029 O   0  0  0  0  0  0  0  0  0  0  0  0
   10.2851  -18.8670   21.0253 C   0  0  0  0  0  0  0  0  0  0  0  0
    9.0030  -18.3504   21.5894 C   0  0  0  0  0  0  0  0  0  0  0  0
    9.0236  -16.8396   21.7290 C   0  0  2  0  0  0  0  0  0  0  0  0
    9.5425  -16.2070   20.5447 N   0  0  0  0  0  0  0  0  0  0  0  0
    9.7075  -16.3845   22.9445 C   0  0  0  0  0  0  0  0  0  0  0  0
   10.7469  -15.6770   22.8789 O   0  0  0  0  0  0  0  0  0  0  0  0
    9.2178  -16.7290   24.2419 N   0  0  0  0  0  0  0  0  0  0  0  0
    9.8494  -16.2540   25.4532 C   0  0  1  0  0  0  0  0  0  0  0  0
    8.8461  -16.0920   26.5749 C   0  0  0  0  0  0  0  0  0  0  0  0
    7.6749  -15.2764   26.1944 C   0  0  0  0  0  0  0  0  0  0  0  0
    6.4992  -15.7857   25.6947 C   0  0  0  0  0  0  0  0  0  0  0  0
    5.6666  -14.7468   25.4681 N   0  0  0  0  0  0  0  0  0  0  0  0
    6.2704  -13.5847   25.8065 C   0  0  0  0  0  0  0  0  0  0  0  0
    5.8682  -12.2618   25.7721 C   0  0  0  0  0  0  0  0  0  0  0  0
    6.6926  -11.2305   26.1839 C   0  0  0  0  0  0  0  0  0  0  0  0
    7.9556  -11.5762   26.6393 C   0  0  0  0  0  0  0  0  0  0  0  0
    8.3831  -12.8836   26.6850 C   0  0  0  0  0  0  0  0  0  0  0  0
    7.5489  -13.9065   26.2702 C   0  0  0  0  0  0  0  0  0  0  0  0
   10.8056  -17.3205   25.8987 C   0  0  0  0  0  0  0  0  0  0  0  0
   11.3809  -17.2715   27.0274 O   0  0  0  0  0  0  0  0  0  0  0  0
   12.0306  -20.6818   24.6208 C   0  0  0  0  0  0  0  0  0  0  0  0
   12.0768  -19.4560   25.4931 C   0  0  2  0  0  0  0  0  0  0  0  0
   11.1187  -18.4425   25.0812 N   0  0  0  0  0  0  0  0  0  0  0  0
   13.4525  -18.9104   25.5485 C   0  0  0  0  0  0  0  0  0  0  0  0
   13.7553  -17.8414   24.7189 O   0  0  0  0  0  0  0  0  0  0  0  0
   14.3590  -19.3552   26.2986 O   0  0  0  0  0  0  0  0  0  0  0  0
  1  2  1  0
  2  3  2  0
  4  5  1  0
  4  2  1  0
  5  6  1  0
  6  7  1  6
  8  6  1  0
  9  8  2  0
 10  8  1  0
 11 10  1  0
 12 13  1  0
 11 12  1  1
 13 21  1  0
 13 14  2  0
 14 15  1  0
 16 15  1  0
 16 17  2  0
 18 17  1  0
 19 18  2  0
 20 19  1  0
 20 21  2  0
 21 16  1  0
 22 26  1  0
 22 11  1  0
 23 22  2  0
 25 24  1  6
 25 26  1  0
 25 27  1  0
 27 28  1  0
 29 27  2  0
M  END
$$$$
