QWA.pdb
     RDKit          3D

 29 30  0  0  1  0  0  0  0  0999 V2000
   13.9049  -15.9389   19.6544 N   0  0  0  0  0  0  0  0  0  0  0  0
   13.1529  -16.8637   18.8878 C   0  0  0  0  0  0  0  0  0  0  0  0
   13.7066  -17.5183   17.9813 O   0  0  0  0  0  0  0  0  0  0  0  0
   11.7150  -17.0335   19.1827 C   0  0  0  0  0  0  0  0  0  0  0  0
   11.3560  -16.2096   20.3748 C   0  0  0  0  0  0  0  0  0  0  0  0
   11.0922  -17.0757   21.5925 C   0  0  2  0  0  0  0  0  0  0  0  0
   10.1806  -18.1480   21.2903 N   0  0  0  0  0  0  0  0  0  0  0  0
   10.6687  -16.3033   22.7657 C   0  0  0  0  0  0  0  0  0  0  0  0
   11.1455  -15.1616   22.9986 O   0  0  0  0  0  0  0  0  0  0  0  0
    9.7024  -16.8205   23.6824 N   0  0  0  0  0  0  0  0  0  0  0  0
    9.2379  -16.0590   24.8209 C   0  0  1  0  0  0  0  0  0  0  0  0
    7.9129  -16.5807   25.3339 C   0  0  0  0  0  0  0  0  0  0  0  0
    6.8683  -15.5393   25.4108 C   0  0  0  0  0  0  0  0  0  0  0  0
    5.5336  -15.7535   25.1573 C   0  0  0  0  0  0  0  0  0  0  0  0
    4.8906  -14.5784   25.3294 N   0  0  0  0  0  0  0  0  0  0  0  0
    5.7703  -13.6148   25.6857 C   0  0  0  0  0  0  0  0  0  0  0  0
    5.6370  -12.2690   25.9754 C   0  0  0  0  0  0  0  0  0  0  0  0
    6.7184  -11.4797   26.3226 C   0  0  0  0  0  0  0  0  0  0  0  0
    7.9594  -12.0959   26.3704 C   0  0  0  0  0  0  0  0  0  0  0  0
    8.1224  -13.4328   26.0874 C   0  0  0  0  0  0  0  0  0  0  0  0
    7.0326  -14.2119   25.7413 C   0  0  0  0  0  0  0  0  0  0  0  0
   10.2279  -16.2732   25.9275 C   0  0  0  0  0  0  0  0  0  0  0  0
   11.1165  -17.1751   25.8624 O   0  0  0  0  0  0  0  0  0  0  0  0
   11.0111  -14.6968   29.3049 C   0  0  0  0  0  0  0  0  0  0  0  0
   11.1758  -15.6903   28.1864 C   0  0  2  0  0  0  0  0  0  0  0  0
   10.2238  -15.4780   27.1077 N   0  0  0  0  0  0  0  0  0  0  0  0
   11.1041  -17.0747   28.7075 C   0  0  0  0  0  0  0  0  0  0  0  0
    9.9744  -17.8194   28.4044 O   0  0  0  0  0  0  0  0  0  0  0  0
   12.0012  -17.6141   29.4051 O   0  0  0  0  0  0  0  0  0  0  0  0
  1  2  1  0
  2  3  2  0
  4  5  1  0
  4  2  1  0
  5  6  1  0
  6  7  1  6
  8  6  1  0
  9  8  2  0
 10  8  1  0
 11 10  1  0
 12 13  1  0
 11 12  1  1
 13 21  1  0
 13 14  2  0
 14 15  1  0
 16 15  1  0
 16 17  2  0
 18 17  1  0
 19 18  2  0
 20 19  1  0
 20 21  2  0
 21 16  1  0
 22 26  1  0
 22 11  1  0
 23 22  2  0
 25 24  1  1
 25 26  1  0
 25 27  1  0
 27 28  1  0
 29 27  2  0
M  END
$$$$
