QWA.pdb
     RDKit          3D

 29 30  0  0  1  0  0  0  0  0999 V2000
   12.3220  -20.1962   20.3717 N   0  0  0  0  0  0  0  0  0  0  0  0
   12.7286  -19.0909   19.5835 C   0  0  0  0  0  0  0  0  0  0  0  0
   13.3285  -19.2802   18.5059 O   0  0  0  0  0  0  0  0  0  0  0  0
   12.4295  -17.7248   20.0607 C   0  0  0  0  0  0  0  0  0  0  0  0
   11.7109  -17.8055   21.3668 C   0  0  0  0  0  0  0  0  0  0  0  0
   10.3794  -17.0795   21.3168 C   0  0  2  0  0  0  0  0  0  0  0  0
   10.2187  -16.3558   20.0829 N   0  0  0  0  0  0  0  0  0  0  0  0
   10.1432  -16.2316   22.4906 C   0  0  0  0  0  0  0  0  0  0  0  0
   10.4314  -15.0061   22.4753 O   0  0  0  0  0  0  0  0  0  0  0  0
    9.5794  -16.7678   23.6889 N   0  0  0  0  0  0  0  0  0  0  0  0
    9.2743  -15.9378   24.8334 C   0  0  1  0  0  0  0  0  0  0  0  0
    7.9602  -16.3342   25.4714 C   0  0  0  0  0  0  0  0  0  0  0  0
    6.9403  -15.2673   25.4134 C   0  0  0  0  0  0  0  0  0  0  0  0
    5.6448  -15.4493   24.9890 C   0  0  0  0  0  0  0  0  0  0  0  0
    5.0140  -14.2584   25.0774 N   0  0  0  0  0  0  0  0  0  0  0  0
    5.8636  -13.3158   25.5455 C   0  0  0  0  0  0  0  0  0  0  0  0
    5.7270  -11.9665   25.8166 C   0  0  0  0  0  0  0  0  0  0  0  0
    6.7735  -11.2031   26.3017 C   0  0  0  0  0  0  0  0  0  0  0  0
    7.9823  -11.8494   26.5093 C   0  0  0  0  0  0  0  0  0  0  0  0
    8.1477  -13.1906   26.2486 C   0  0  0  0  0  0  0  0  0  0  0  0
    7.0930  -13.9435   25.7636 C   0  0  0  0  0  0  0  0  0  0  0  0
   10.3340  -16.1997   25.8624 C   0  0  0  0  0  0  0  0  0  0  0  0
   10.9487  -17.3069   25.9202 O   0  0  0  0  0  0  0  0  0  0  0  0
   11.1923  -14.5323   29.1396 C   0  0  0  0  0  0  0  0  0  0  0  0
   11.3704  -15.5778   28.0716 C   0  0  2  0  0  0  0  0  0  0  0  0
   10.7064  -15.2223   26.8275 N   0  0  0  0  0  0  0  0  0  0  0  0
   10.9266  -16.9024   28.5632 C   0  0  0  0  0  0  0  0  0  0  0  0
   11.8903  -17.7514   29.0858 O   0  0  0  0  0  0  0  0  0  0  0  0
    9.7344  -17.3027   28.5359 O   0  0  0  0  0  0  0  0  0  0  0  0
  1  2  1  0
  2  3  2  0
  4  5  1  0
  4  2  1  0
  5  6  1  0
  6  7  1  6
  8  6  1  0
  9  8  2  0
 10  8  1  0
 11 10  1  0
 12 13  1  0
 11 12  1  1
 13 21  1  0
 13 14  2  0
 14 15  1  0
 16 15  1  0
 16 17  2  0
 18 17  1  0
 19 18  2  0
 20 19  1  0
 20 21  2  0
 21 16  1  0
 22 26  1  0
 22 11  1  0
 23 22  2  0
 25 24  1  1
 25 26  1  0
 25 27  1  0
 27 28  1  0
 29 27  2  0
M  END
$$$$
