QWA.pdb
     RDKit          3D

 29 30  0  0  1  0  0  0  0  0999 V2000
    8.7480  -12.5950   18.2057 N   0  0  0  0  0  0  0  0  0  0  0  0
    7.8432  -13.5446   18.7423 C   0  0  0  0  0  0  0  0  0  0  0  0
    6.6214  -13.2935   18.7737 O   0  0  0  0  0  0  0  0  0  0  0  0
    8.3728  -14.8242   19.2576 C   0  0  0  0  0  0  0  0  0  0  0  0
    8.8543  -14.6300   20.6573 C   0  0  0  0  0  0  0  0  0  0  0  0
    9.4340  -15.9099   21.2304 C   0  0  2  0  0  0  0  0  0  0  0  0
    8.6086  -17.0480   20.9215 N   0  0  0  0  0  0  0  0  0  0  0  0
    9.7310  -15.8143   22.6640 C   0  0  0  0  0  0  0  0  0  0  0  0
   10.4782  -14.9061   23.1135 O   0  0  0  0  0  0  0  0  0  0  0  0
    9.1834  -16.7479   23.5967 N   0  0  0  0  0  0  0  0  0  0  0  0
    9.4744  -16.6814   25.0118 C   0  0  1  0  0  0  0  0  0  0  0  0
    8.2169  -16.8157   25.8435 C   0  0  0  0  0  0  0  0  0  0  0  0
    7.3072  -15.6593   25.7133 C   0  0  0  0  0  0  0  0  0  0  0  0
    6.0373  -15.7214   25.1889 C   0  0  0  0  0  0  0  0  0  0  0  0
    5.5139  -14.4772   25.2354 N   0  0  0  0  0  0  0  0  0  0  0  0
    6.4079  -13.6167   25.7736 C   0  0  0  0  0  0  0  0  0  0  0  0
    6.3755  -12.2601   26.0416 C   0  0  0  0  0  0  0  0  0  0  0  0
    7.4470  -11.5962   26.6108 C   0  0  0  0  0  0  0  0  0  0  0  0
    8.5714  -12.3511   26.9073 C   0  0  0  0  0  0  0  0  0  0  0  0
    8.6323  -13.7021   26.6520 C   0  0  0  0  0  0  0  0  0  0  0  0
    7.5536  -14.3549   26.0823 C   0  0  0  0  0  0  0  0  0  0  0  0
   10.3236  -17.8727   25.3433 C   0  0  0  0  0  0  0  0  0  0  0  0
   10.0193  -19.0391   24.9505 O   0  0  0  0  0  0  0  0  0  0  0  0
   13.7893  -18.6091   26.5148 C   0  0  0  0  0  0  0  0  0  0  0  0
   12.3168  -18.9181   26.4728 C   0  0  2  0  0  0  0  0  0  0  0  0
   11.5142  -17.7594   26.1146 N   0  0  0  0  0  0  0  0  0  0  0  0
   11.8737  -19.5081   27.7568 C   0  0  0  0  0  0  0  0  0  0  0  0
   10.8685  -18.8545   28.4532 O   0  0  0  0  0  0  0  0  0  0  0  0
   12.3512  -20.5612   28.2522 O   0  0  0  0  0  0  0  0  0  0  0  0
  1  2  1  0
  2  3  2  0
  4  5  1  0
  4  2  1  0
  5  6  1  0
  6  7  1  1
  8  6  1  0
  9  8  2  0
 10  8  1  0
 11 10  1  0
 12 13  1  0
 11 12  1  1
 13 21  1  0
 13 14  2  0
 14 15  1  0
 16 15  1  0
 16 17  2  0
 18 17  1  0
 19 18  2  0
 20 19  1  0
 20 21  2  0
 21 16  1  0
 22 26  1  0
 22 11  1  0
 23 22  2  0
 25 24  1  1
 25 26  1  0
 25 27  1  0
 27 28  1  0
 29 27  2  0
M  END
$$$$
