QWA.pdb
     RDKit          3D

 29 30  0  0  1  0  0  0  0  0999 V2000
    8.5676  -12.5416   19.0925 N   0  0  0  0  0  0  0  0  0  0  0  0
    8.2862  -13.7700   18.4443 C   0  0  0  0  0  0  0  0  0  0  0  0
    7.7553  -13.7720   17.3151 O   0  0  0  0  0  0  0  0  0  0  0  0
    8.6316  -15.0338   19.1275 C   0  0  0  0  0  0  0  0  0  0  0  0
    9.1664  -14.7284   20.4875 C   0  0  0  0  0  0  0  0  0  0  0  0
    9.6187  -15.9868   21.2047 C   0  0  2  0  0  0  0  0  0  0  0  0
    8.7310  -17.0900   20.9457 N   0  0  0  0  0  0  0  0  0  0  0  0
    9.8419  -15.7810   22.6400 C   0  0  0  0  0  0  0  0  0  0  0  0
   10.6100  -14.8737   23.0545 O   0  0  0  0  0  0  0  0  0  0  0  0
    9.1961  -16.6028   23.6143 N   0  0  0  0  0  0  0  0  0  0  0  0
    9.4138  -16.4282   25.0334 C   0  0  1  0  0  0  0  0  0  0  0  0
    8.1187  -16.5313   25.8099 C   0  0  0  0  0  0  0  0  0  0  0  0
    7.2098  -15.3899   25.5793 C   0  0  0  0  0  0  0  0  0  0  0  0
    6.0984  -15.4294   24.7702 C   0  0  0  0  0  0  0  0  0  0  0  0
    5.5205  -14.2093   24.8088 N   0  0  0  0  0  0  0  0  0  0  0  0
    6.2258  -13.3862   25.6178 C   0  0  0  0  0  0  0  0  0  0  0  0
    6.0692  -12.0649   25.9955 C   0  0  0  0  0  0  0  0  0  0  0  0
    6.9492  -11.4362   26.8576 C   0  0  0  0  0  0  0  0  0  0  0  0
    8.0098  -12.1898   27.3364 C   0  0  0  0  0  0  0  0  0  0  0  0
    8.1909  -13.5062   26.9781 C   0  0  0  0  0  0  0  0  0  0  0  0
    7.3035  -14.1240   26.1149 C   0  0  0  0  0  0  0  0  0  0  0  0
   10.2681  -17.5727   25.4921 C   0  0  0  0  0  0  0  0  0  0  0  0
   10.1118  -18.7459   25.0377 O   0  0  0  0  0  0  0  0  0  0  0  0
   13.3551  -18.1182   27.6078 C   0  0  0  0  0  0  0  0  0  0  0  0
   12.0410  -18.5317   27.0016 C   0  0  2  0  0  0  0  0  0  0  0  0
   11.2982  -17.4049   26.4596 N   0  0  0  0  0  0  0  0  0  0  0  0
   11.2331  -19.2914   27.9831 C   0  0  0  0  0  0  0  0  0  0  0  0
   11.7867  -20.4448   28.5177 O   0  0  0  0  0  0  0  0  0  0  0  0
   10.0807  -18.9561   28.3597 O   0  0  0  0  0  0  0  0  0  0  0  0
  1  2  1  0
  2  3  2  0
  4  5  1  0
  4  2  1  0
  5  6  1  0
  6  7  1  1
  8  6  1  0
  9  8  2  0
 10  8  1  0
 11 10  1  0
 12 13  1  0
 11 12  1  1
 13 21  1  0
 13 14  2  0
 14 15  1  0
 16 15  1  0
 16 17  2  0
 18 17  1  0
 19 18  2  0
 20 19  1  0
 20 21  2  0
 21 16  1  0
 22 26  1  0
 22 11  1  0
 23 22  2  0
 25 24  1  1
 25 26  1  0
 25 27  1  0
 27 28  1  0
 29 27  2  0
M  END
$$$$
