NIA.pdb
     RDKit          3D

 22 21  0  0  1  0  0  0  0  0999 V2000
    4.7958  -19.1159   20.4385 N   0  0  0  0  0  0  0  0  0  0  0  0
    4.8803  -18.2911   21.5986 C   0  0  0  0  0  0  0  0  0  0  0  0
    3.8110  -18.0187   22.1869 O   0  0  0  0  0  0  0  0  0  0  0  0
    6.1563  -17.7555   22.1238 C   0  0  0  0  0  0  0  0  0  0  0  0
    6.0548  -16.2754   22.2545 C   0  0  2  0  0  0  0  0  0  0  0  0
    5.8725  -15.6901   20.9613 N   0  0  0  0  0  0  0  0  0  0  0  0
    7.1644  -15.6716   23.0207 C   0  0  0  0  0  0  0  0  0  0  0  0
    8.2760  -15.5450   22.4445 O   0  0  0  0  0  0  0  0  0  0  0  0
    6.1645  -11.8290   26.3160 C   0  0  0  0  0  0  0  0  0  0  0  0
    6.9901  -12.6694   25.3774 C   0  0  0  0  0  0  0  0  0  0  0  0
    7.6077  -13.8293   26.1318 C   0  0  2  0  0  0  0  0  0  0  0  0
    8.4954  -13.2487   27.1890 C   0  0  0  0  0  0  0  0  0  0  0  0
    8.2167  -14.7308   25.1382 C   0  0  2  0  0  0  0  0  0  0  0  0
    7.0740  -15.2267   24.3463 N   0  0  0  0  0  0  0  0  0  0  0  0
    8.9220  -15.9018   25.6270 C   0  0  0  0  0  0  0  0  0  0  0  0
    8.3599  -16.7272   26.3903 O   0  0  0  0  0  0  0  0  0  0  0  0
   12.2480  -17.4340   24.8542 C   0  0  0  0  0  0  0  0  0  0  0  0
   10.9353  -17.4228   25.6475 C   0  0  2  0  0  0  0  0  0  0  0  0
   10.2689  -16.1782   25.2752 N   0  0  0  0  0  0  0  0  0  0  0  0
   11.1792  -17.4708   27.0930 C   0  0  0  0  0  0  0  0  0  0  0  0
   11.4023  -18.5582   27.6894 O   0  0  0  0  0  0  0  0  0  0  0  0
   11.1689  -16.3131   27.8372 O   0  0  0  0  0  0  0  0  0  0  0  0
  1  2  1  0
  2  4  1  0
  3  2  2  0
  4  5  1  0
  5  7  1  0
  5  6  1  6
  7  8  2  0
  9 10  1  0
 10 11  1  0
 11 12  1  1
 11 13  1  0
 13 14  1  6
 14  7  1  0
 15 13  1  0
 15 19  1  0
 16 15  2  0
 18 19  1  0
 18 17  1  6
 20 18  1  0
 21 20  2  0
 22 20  1  0
M  END
$$$$
