NIA.pdb
     RDKit          3D

 22 21  0  0  1  0  0  0  0  0999 V2000
    5.8704  -17.4885   19.7538 N   0  0  0  0  0  0  0  0  0  0  0  0
    7.2951  -17.4908   19.8109 C   0  0  0  0  0  0  0  0  0  0  0  0
    7.9102  -17.7647   18.7572 O   0  0  0  0  0  0  0  0  0  0  0  0
    8.0596  -17.1883   21.0417 C   0  0  0  0  0  0  0  0  0  0  0  0
    8.2518  -15.7157   21.1551 C   0  0  2  0  0  0  0  0  0  0  0  0
    9.0739  -15.2540   20.0785 N   0  0  0  0  0  0  0  0  0  0  0  0
    8.7278  -15.2818   22.4847 C   0  0  0  0  0  0  0  0  0  0  0  0
    9.9576  -15.3844   22.7310 O   0  0  0  0  0  0  0  0  0  0  0  0
    6.8832  -11.6816   27.0345 C   0  0  0  0  0  0  0  0  0  0  0  0
    7.8788  -12.6989   26.5418 C   0  0  0  0  0  0  0  0  0  0  0  0
    7.3922  -13.3098   25.2434 C   0  0  2  0  0  0  0  0  0  0  0  0
    5.9997  -13.8072   25.4816 C   0  0  0  0  0  0  0  0  0  0  0  0
    8.4066  -14.2835   24.8035 C   0  0  2  0  0  0  0  0  0  0  0  0
    7.9114  -14.7620   23.4978 N   0  0  0  0  0  0  0  0  0  0  0  0
    8.6170  -15.4620   25.6246 C   0  0  0  0  0  0  0  0  0  0  0  0
    7.6992  -16.3023   25.8023 O   0  0  0  0  0  0  0  0  0  0  0  0
   11.3702  -17.5609   26.4121 C   0  0  0  0  0  0  0  0  0  0  0  0
   10.0972  -16.9569   27.0181 C   0  0  2  0  0  0  0  0  0  0  0  0
    9.8549  -15.7296   26.2651 N   0  0  0  0  0  0  0  0  0  0  0  0
   10.2654  -16.6672   28.4460 C   0  0  0  0  0  0  0  0  0  0  0  0
   10.4781  -17.5829   29.2852 O   0  0  0  0  0  0  0  0  0  0  0  0
   10.1934  -15.3714   28.9043 O   0  0  0  0  0  0  0  0  0  0  0  0
  1  2  1  0
  2  4  1  0
  3  2  2  0
  4  5  1  0
  5  7  1  0
  5  6  1  6
  7  8  2  0
  9 10  1  0
 10 11  1  0
 11 12  1  1
 11 13  1  0
 13 14  1  6
 14  7  1  0
 15 13  1  0
 15 19  1  0
 16 15  2  0
 18 19  1  0
 18 17  1  6
 20 18  1  0
 21 20  2  0
 22 20  1  0
M  END
$$$$
