NIA.pdb
     RDKit          3D

 22 21  0  0  1  0  0  0  0  0999 V2000
   11.7788  -19.7234   17.5257 N   0  0  0  0  0  0  0  0  0  0  0  0
   10.7318  -18.8727   17.9876 C   0  0  0  0  0  0  0  0  0  0  0  0
    9.5703  -19.1344   17.6052 O   0  0  0  0  0  0  0  0  0  0  0  0
   10.9596  -17.7163   18.8829 C   0  0  0  0  0  0  0  0  0  0  0  0
   10.2040  -17.9162   20.1507 C   0  0  2  0  0  0  0  0  0  0  0  0
    8.9342  -18.5112   19.8648 N   0  0  0  0  0  0  0  0  0  0  0  0
   10.1074  -16.6975   20.9804 C   0  0  0  0  0  0  0  0  0  0  0  0
   11.1665  -16.0584   21.2115 O   0  0  0  0  0  0  0  0  0  0  0  0
    7.1715  -12.8684   19.7862 C   0  0  0  0  0  0  0  0  0  0  0  0
    8.2895  -13.5517   20.5295 C   0  0  0  0  0  0  0  0  0  0  0  0
    7.7511  -14.1984   21.7895 C   0  0  2  0  0  0  0  0  0  0  0  0
    7.1425  -13.1115   22.6210 C   0  0  0  0  0  0  0  0  0  0  0  0
    8.8423  -14.9914   22.3822 C   0  0  2  0  0  0  0  0  0  0  0  0
    8.9214  -16.1959   21.5326 N   0  0  0  0  0  0  0  0  0  0  0  0
    8.6785  -15.4568   23.7476 C   0  0  0  0  0  0  0  0  0  0  0  0
    8.7890  -14.6685   24.7203 O   0  0  0  0  0  0  0  0  0  0  0  0
    7.0722  -18.2757   25.3977 C   0  0  0  0  0  0  0  0  0  0  0  0
    8.2427  -17.2850   25.4314 C   0  0  2  0  0  0  0  0  0  0  0  0
    8.3877  -16.8108   24.0580 N   0  0  0  0  0  0  0  0  0  0  0  0
    9.4780  -17.9263   25.8941 C   0  0  0  0  0  0  0  0  0  0  0  0
   10.4597  -18.1014   25.1238 O   0  0  0  0  0  0  0  0  0  0  0  0
    9.5911  -18.3554   27.1969 O   0  0  0  0  0  0  0  0  0  0  0  0
  1  2  1  0
  2  4  1  0
  3  2  2  0
  4  5  1  0
  5  7  1  0
  5  6  1  6
  7  8  2  0
  9 10  1  0
 10 11  1  0
 11 12  1  1
 11 13  1  0
 13 14  1  6
 14  7  1  0
 15 13  1  0
 15 19  1  0
 16 15  2  0
 18 19  1  0
 18 17  1  6
 20 18  1  0
 21 20  2  0
 22 20  1  0
M  END
$$$$
