NIA.pdb
     RDKit          3D

 22 21  0  0  1  0  0  0  0  0999 V2000
    9.5423  -17.1717   18.8390 N   0  0  0  0  0  0  0  0  0  0  0  0
    8.6113  -16.3830   19.5770 C   0  0  0  0  0  0  0  0  0  0  0  0
    7.4170  -16.4118   19.2078 O   0  0  0  0  0  0  0  0  0  0  0  0
    8.9937  -15.5490   20.7384 C   0  0  0  0  0  0  0  0  0  0  0  0
    8.5972  -16.2410   21.9962 C   0  0  2  0  0  0  0  0  0  0  0  0
    7.1779  -16.4239   22.0173 N   0  0  0  0  0  0  0  0  0  0  0  0
    9.1240  -15.5972   23.2172 C   0  0  0  0  0  0  0  0  0  0  0  0
   10.3244  -15.2197   23.2114 O   0  0  0  0  0  0  0  0  0  0  0  0
    6.4539  -12.2753   25.7312 C   0  0  0  0  0  0  0  0  0  0  0  0
    7.6927  -13.0228   25.3120 C   0  0  0  0  0  0  0  0  0  0  0  0
    7.9954  -14.1206   26.3115 C   0  0  2  0  0  0  0  0  0  0  0  0
    8.3667  -13.4563   27.6015 C   0  0  0  0  0  0  0  0  0  0  0  0
    8.9803  -15.0249   25.6927 C   0  0  2  0  0  0  0  0  0  0  0  0
    8.3862  -15.3734   24.3872 N   0  0  0  0  0  0  0  0  0  0  0  0
    9.2671  -16.2787   26.3660 C   0  0  0  0  0  0  0  0  0  0  0  0
    8.3599  -17.1206   26.5854 O   0  0  0  0  0  0  0  0  0  0  0  0
   12.2302  -18.3208   26.9835 C   0  0  0  0  0  0  0  0  0  0  0  0
   10.8583  -17.8733   27.5031 C   0  0  2  0  0  0  0  0  0  0  0  0
   10.5713  -16.6212   26.8088 N   0  0  0  0  0  0  0  0  0  0  0  0
   10.8719  -17.6719   28.9559 C   0  0  0  0  0  0  0  0  0  0  0  0
   10.8369  -16.5190   29.4632 O   0  0  0  0  0  0  0  0  0  0  0  0
   10.9240  -18.7532   29.8057 O   0  0  0  0  0  0  0  0  0  0  0  0
  1  2  1  0
  2  4  1  0
  3  2  2  0
  4  5  1  0
  5  7  1  0
  5  6  1  1
  7  8  2  0
  9 10  1  0
 10 11  1  0
 11 12  1  1
 11 13  1  0
 13 14  1  6
 14  7  1  0
 15 13  1  0
 15 19  1  0
 16 15  2  0
 18 19  1  0
 18 17  1  6
 20 18  1  0
 21 20  2  0
 22 20  1  0
M  END
$$$$
