NIA.pdb
     RDKit          3D

 22 21  0  0  1  0  0  0  0  0999 V2000
    7.5626  -18.4356   18.6660 N   0  0  0  0  0  0  0  0  0  0  0  0
    7.2275  -17.3958   19.5825 C   0  0  0  0  0  0  0  0  0  0  0  0
    6.2278  -16.6947   19.3127 O   0  0  0  0  0  0  0  0  0  0  0  0
    7.9992  -17.1186   20.8147 C   0  0  0  0  0  0  0  0  0  0  0  0
    8.2239  -15.6514   20.9379 C   0  0  2  0  0  0  0  0  0  0  0  0
    9.0449  -15.1984   19.8567 N   0  0  0  0  0  0  0  0  0  0  0  0
    8.7224  -15.2386   22.2660 C   0  0  0  0  0  0  0  0  0  0  0  0
    9.9665  -15.2438   22.4544 O   0  0  0  0  0  0  0  0  0  0  0  0
    6.9908  -11.7837   26.9226 C   0  0  0  0  0  0  0  0  0  0  0  0
    7.9402  -12.8419   26.4246 C   0  0  0  0  0  0  0  0  0  0  0  0
    7.4331  -13.4153   25.1170 C   0  0  2  0  0  0  0  0  0  0  0  0
    6.0321  -13.8887   25.3537 C   0  0  0  0  0  0  0  0  0  0  0  0
    8.4245  -14.4002   24.6503 C   0  0  2  0  0  0  0  0  0  0  0  0
    7.9124  -14.8397   23.3375 N   0  0  0  0  0  0  0  0  0  0  0  0
    8.6143  -15.6005   25.4446 C   0  0  0  0  0  0  0  0  0  0  0  0
    7.6541  -16.3718   25.6957 O   0  0  0  0  0  0  0  0  0  0  0  0
   11.4217  -17.7722   26.1498 C   0  0  0  0  0  0  0  0  0  0  0  0
   10.0937  -17.2240   26.6867 C   0  0  2  0  0  0  0  0  0  0  0  0
    9.8783  -15.9670   25.9757 N   0  0  0  0  0  0  0  0  0  0  0  0
   10.1498  -16.9999   28.1352 C   0  0  0  0  0  0  0  0  0  0  0  0
   10.0824  -15.8419   28.6274 O   0  0  0  0  0  0  0  0  0  0  0  0
   10.2789  -18.0648   28.9975 O   0  0  0  0  0  0  0  0  0  0  0  0
  1  2  1  0
  2  4  1  0
  3  2  2  0
  4  5  1  0
  5  7  1  0
  5  6  1  6
  7  8  2  0
  9 10  1  0
 10 11  1  0
 11 12  1  1
 11 13  1  0
 13 14  1  6
 14  7  1  0
 15 13  1  0
 15 19  1  0
 16 15  2  0
 18 19  1  0
 18 17  1  6
 20 18  1  0
 21 20  2  0
 22 20  1  0
M  END
$$$$
