NIA.pdb
     RDKit          3D

 22 21  0  0  1  0  0  0  0  0999 V2000
    7.0628  -12.8037   18.3192 N   0  0  0  0  0  0  0  0  0  0  0  0
    7.9374  -13.6895   19.0146 C   0  0  0  0  0  0  0  0  0  0  0  0
    8.3375  -14.7009   18.3976 O   0  0  0  0  0  0  0  0  0  0  0  0
    8.3816  -13.4648   20.4085 C   0  0  0  0  0  0  0  0  0  0  0  0
    8.0776  -14.6725   21.2252 C   0  0  2  0  0  0  0  0  0  0  0  0
    6.6699  -14.9292   21.1981 N   0  0  0  0  0  0  0  0  0  0  0  0
    8.6382  -14.6197   22.5911 C   0  0  0  0  0  0  0  0  0  0  0  0
    9.8853  -14.5016   22.7104 O   0  0  0  0  0  0  0  0  0  0  0  0
    6.1061  -11.8454   25.9740 C   0  0  0  0  0  0  0  0  0  0  0  0
    7.2371  -12.5664   25.2884 C   0  0  0  0  0  0  0  0  0  0  0  0
    7.4432  -13.9257   25.9253 C   0  0  2  0  0  0  0  0  0  0  0  0
    7.7255  -13.6969   27.3782 C   0  0  0  0  0  0  0  0  0  0  0  0
    8.4572  -14.6393   25.1295 C   0  0  2  0  0  0  0  0  0  0  0  0
    7.8844  -14.6912   23.7701 N   0  0  0  0  0  0  0  0  0  0  0  0
    8.7710  -16.0075   25.5000 C   0  0  0  0  0  0  0  0  0  0  0  0
    7.8953  -16.9084   25.4604 O   0  0  0  0  0  0  0  0  0  0  0  0
   11.7845  -18.0268   25.6391 C   0  0  0  0  0  0  0  0  0  0  0  0
   10.3977  -17.7855   26.2482 C   0  0  2  0  0  0  0  0  0  0  0  0
   10.0675  -16.4011   25.9223 N   0  0  0  0  0  0  0  0  0  0  0  0
   10.4040  -17.9913   27.7005 C   0  0  0  0  0  0  0  0  0  0  0  0
   10.4141  -17.0215   28.5049 O   0  0  0  0  0  0  0  0  0  0  0  0
   10.3990  -19.2655   28.2207 O   0  0  0  0  0  0  0  0  0  0  0  0
  1  2  1  0
  2  4  1  0
  3  2  2  0
  4  5  1  0
  5  7  1  0
  5  6  1  1
  7  8  2  0
  9 10  1  0
 10 11  1  0
 11 12  1  1
 11 13  1  0
 13 14  1  6
 14  7  1  0
 15 13  1  0
 15 19  1  0
 16 15  2  0
 18 19  1  0
 18 17  1  1
 20 18  1  0
 21 20  2  0
 22 20  1  0
M  END
$$$$
