NIA.pdb
     RDKit          3D

 22 21  0  0  1  0  0  0  0  0999 V2000
    7.2891  -18.1822   18.8572 N   0  0  0  0  0  0  0  0  0  0  0  0
    6.8961  -17.5645   20.0808 C   0  0  0  0  0  0  0  0  0  0  0  0
    5.6778  -17.3316   20.2394 O   0  0  0  0  0  0  0  0  0  0  0  0
    7.8522  -17.1955   21.1487 C   0  0  0  0  0  0  0  0  0  0  0  0
    7.6996  -15.7495   21.4711 C   0  0  2  0  0  0  0  0  0  0  0  0
    8.0393  -14.9630   20.3248 N   0  0  0  0  0  0  0  0  0  0  0  0
    8.4135  -15.3381   22.6974 C   0  0  0  0  0  0  0  0  0  0  0  0
    9.6640  -15.2121   22.6352 O   0  0  0  0  0  0  0  0  0  0  0  0
    6.4445  -11.7843   25.9090 C   0  0  0  0  0  0  0  0  0  0  0  0
    7.4437  -12.6620   25.2016 C   0  0  0  0  0  0  0  0  0  0  0  0
    7.6241  -13.9577   25.9662 C   0  0  2  0  0  0  0  0  0  0  0  0
    8.0269  -13.5964   27.3627 C   0  0  0  0  0  0  0  0  0  0  0  0
    8.5357  -14.8111   25.1842 C   0  0  2  0  0  0  0  0  0  0  0  0
    7.8024  -15.0762   23.9308 N   0  0  0  0  0  0  0  0  0  0  0  0
    8.8948  -16.1048   25.7363 C   0  0  0  0  0  0  0  0  0  0  0  0
    8.0133  -16.9405   26.0597 O   0  0  0  0  0  0  0  0  0  0  0  0
   11.9510  -18.1551   25.8992 C   0  0  0  0  0  0  0  0  0  0  0  0
   10.6064  -17.7786   26.5339 C   0  0  2  0  0  0  0  0  0  0  0  0
   10.2441  -16.4950   25.9396 N   0  0  0  0  0  0  0  0  0  0  0  0
   10.7120  -17.6659   27.9925 C   0  0  0  0  0  0  0  0  0  0  0  0
   10.6140  -16.5543   28.5778 O   0  0  0  0  0  0  0  0  0  0  0  0
   10.9231  -18.7876   28.7616 O   0  0  0  0  0  0  0  0  0  0  0  0
  1  2  1  0
  2  4  1  0
  3  2  2  0
  4  5  1  0
  5  7  1  0
  5  6  1  6
  7  8  2  0
  9 10  1  0
 10 11  1  0
 11 12  1  1
 11 13  1  0
 13 14  1  6
 14  7  1  0
 15 13  1  0
 15 19  1  0
 16 15  2  0
 18 19  1  0
 18 17  1  6
 20 18  1  0
 21 20  2  0
 22 20  1  0
M  END
$$$$
