YLI.pdb
     RDKit          3D

 29 29  0  0  1  0  0  0  0  0999 V2000
   27.1056  -16.7965  -21.5352 O   0  0  0  0  0  0  0  0  0  0  0  0
   26.8938  -17.5011  -20.3402 C   0  0  0  0  0  0  0  0  0  0  0  0
   26.1901  -18.6848  -20.2973 C   0  0  0  0  0  0  0  0  0  0  0  0
   26.0059  -19.3475  -19.0893 C   0  0  0  0  0  0  0  0  0  0  0  0
   26.5091  -18.8596  -17.9035 C   0  0  0  0  0  0  0  0  0  0  0  0
   26.3181  -19.5611  -16.6092 C   0  0  0  0  0  0  0  0  0  0  0  0
   27.1855  -20.8166  -16.6079 C   0  0  2  0  0  0  0  0  0  0  0  0
   26.6188  -21.7245  -17.5861 N   0  0  0  0  0  0  0  0  0  0  0  0
   27.1033  -21.4715  -15.2778 C   0  0  0  0  0  0  0  0  0  0  0  0
   26.2693  -22.4065  -15.0525 O   0  0  0  0  0  0  0  0  0  0  0  0
   27.2161  -17.6699  -17.9472 C   0  0  0  0  0  0  0  0  0  0  0  0
   27.4004  -17.0062  -19.1584 C   0  0  0  0  0  0  0  0  0  0  0  0
   31.2685  -21.3053  -10.9651 C   0  0  0  0  0  0  0  0  0  0  0  0
   29.9371  -20.8982  -11.5156 C   0  0  1  0  0  0  0  0  0  0  0  0
   30.1522  -19.6825  -12.4363 C   0  0  0  0  0  0  0  0  0  0  0  0
   29.2132  -21.9129  -12.3137 C   0  0  0  0  0  0  0  0  0  0  0  0
   27.8912  -21.5373  -12.8765 C   0  0  2  0  0  0  0  0  0  0  0  0
   27.9751  -21.0413  -14.2413 N   0  0  0  0  0  0  0  0  0  0  0  0
   27.0257  -20.7169  -12.0127 C   0  0  0  0  0  0  0  0  0  0  0  0
   27.4005  -19.5948  -11.5945 O   0  0  0  0  0  0  0  0  0  0  0  0
   21.6236  -22.0948  -12.0547 C   0  0  0  0  0  0  0  0  0  0  0  0
   22.9512  -21.8934  -11.4025 C   0  0  0  0  0  0  0  0  0  0  0  0
   23.4625  -20.4701  -11.4978 C   0  0  2  0  0  0  0  0  0  0  0  0
   23.4937  -19.9707  -12.9067 C   0  0  0  0  0  0  0  0  0  0  0  0
   24.8262  -20.4056  -10.8297 C   0  0  2  0  0  0  0  0  0  0  0  0
   25.7473  -21.1850  -11.6384 N   0  0  0  0  0  0  0  0  0  0  0  0
   24.7853  -21.0057   -9.4735 C   0  0  0  0  0  0  0  0  0  0  0  0
   25.3389  -22.1189   -9.2631 O   0  0  0  0  0  0  0  0  0  0  0  0
   24.1638  -20.4153   -8.3842 O   0  0  0  0  0  0  0  0  0  0  0  0
  2 12  2  0
  2  1  1  0
  3  2  1  0
  4  3  2  0
  4  5  1  0
  5 11  2  0
  6  5  1  0
  7  6  1  0
  7  8  1  6
  9  7  1  0
  9 18  1  0
 10  9  2  0
 11 12  1  0
 14 13  1  6
 14 16  1  0
 14 15  1  0
 17 18  1  0
 17 16  1  1
 19 17  1  0
 19 26  1  0
 20 19  2  0
 21 22  1  0
 23 22  1  0
 23 24  1  6
 25 26  1  6
 25 23  1  0
 27 25  1  0
 28 27  2  0
 29 27  1  0
M  END
$$$$
