YLI.pdb
     RDKit          3D

 29 29  0  0  1  0  0  0  0  0999 V2000
   30.5102  -16.9742  -19.7415 O   0  0  0  0  0  0  0  0  0  0  0  0
   29.5483  -17.5900  -18.9261 C   0  0  0  0  0  0  0  0  0  0  0  0
   29.6019  -17.5320  -17.5507 C   0  0  0  0  0  0  0  0  0  0  0  0
   28.6256  -18.1578  -16.7841 C   0  0  0  0  0  0  0  0  0  0  0  0
   27.5808  -18.8508  -17.3546 C   0  0  0  0  0  0  0  0  0  0  0  0
   26.5334  -19.5212  -16.5438 C   0  0  0  0  0  0  0  0  0  0  0  0
   27.1678  -20.7052  -15.8194 C   0  0  2  0  0  0  0  0  0  0  0  0
   27.4031  -21.7339  -16.8138 N   0  0  0  0  0  0  0  0  0  0  0  0
   26.2081  -21.2458  -14.8235 C   0  0  0  0  0  0  0  0  0  0  0  0
   25.1724  -21.8904  -15.1869 O   0  0  0  0  0  0  0  0  0  0  0  0
   27.5275  -18.9088  -18.7369 C   0  0  0  0  0  0  0  0  0  0  0  0
   28.5063  -18.2812  -19.5047 C   0  0  0  0  0  0  0  0  0  0  0  0
   24.2161  -22.0162   -9.6432 C   0  0  0  0  0  0  0  0  0  0  0  0
   24.9218  -20.7354   -9.9641 C   0  0  1  0  0  0  0  0  0  0  0  0
   25.6829  -20.2807   -8.7048 C   0  0  0  0  0  0  0  0  0  0  0  0
   25.9107  -20.7828  -11.0643 C   0  0  0  0  0  0  0  0  0  0  0  0
   25.4158  -21.1047  -12.4270 C   0  0  2  0  0  0  0  0  0  0  0  0
   26.4570  -21.0358  -13.4403 N   0  0  0  0  0  0  0  0  0  0  0  0
   24.1629  -20.4479  -12.8361 C   0  0  0  0  0  0  0  0  0  0  0  0
   24.1081  -19.2075  -13.0171 O   0  0  0  0  0  0  0  0  0  0  0  0
   19.7161  -20.7374  -16.6612 C   0  0  0  0  0  0  0  0  0  0  0  0
   20.0530  -20.5299  -15.2218 C   0  0  0  0  0  0  0  0  0  0  0  0
   21.4183  -21.0629  -14.8369 C   0  0  2  0  0  0  0  0  0  0  0  0
   21.5193  -22.5446  -15.0099 C   0  0  0  0  0  0  0  0  0  0  0  0
   21.7197  -20.6238  -13.4133 C   0  0  2  0  0  0  0  0  0  0  0  0
   22.9922  -21.2121  -13.0337 N   0  0  0  0  0  0  0  0  0  0  0  0
   20.6858  -21.1192  -12.4716 C   0  0  0  0  0  0  0  0  0  0  0  0
   19.5892  -20.5059  -12.3645 O   0  0  0  0  0  0  0  0  0  0  0  0
   20.8394  -22.2426  -11.6742 O   0  0  0  0  0  0  0  0  0  0  0  0
  2 12  2  0
  2  1  1  0
  3  2  1  0
  4  3  2  0
  4  5  1  0
  5 11  2  0
  6  5  1  0
  7  6  1  0
  7  8  1  6
  9  7  1  0
  9 18  1  0
 10  9  2  0
 11 12  1  0
 14 13  1  1
 14 16  1  0
 14 15  1  0
 17 18  1  0
 17 16  1  1
 19 17  1  0
 19 26  1  0
 20 19  2  0
 21 22  1  0
 23 22  1  0
 23 24  1  1
 25 26  1  1
 25 23  1  0
 27 25  1  0
 28 27  2  0
 29 27  1  0
M  END
$$$$
