YLI.pdb
     RDKit          3D

 29 29  0  0  1  0  0  0  0  0999 V2000
   20.6929  -18.9824  -15.7219 O   0  0  0  0  0  0  0  0  0  0  0  0
   21.4603  -19.4857  -14.6602 C   0  0  0  0  0  0  0  0  0  0  0  0
   21.6376  -18.7900  -13.4844 C   0  0  0  0  0  0  0  0  0  0  0  0
   22.4068  -19.3295  -12.4598 C   0  0  0  0  0  0  0  0  0  0  0  0
   23.0147  -20.5604  -12.5723 C   0  0  0  0  0  0  0  0  0  0  0  0
   23.8369  -21.1445  -11.4830 C   0  0  0  0  0  0  0  0  0  0  0  0
   24.8711  -20.1090  -11.0504 C   0  0  2  0  0  0  0  0  0  0  0  0
   25.7456  -19.8837  -12.1848 N   0  0  0  0  0  0  0  0  0  0  0  0
   25.6928  -20.6645   -9.9453 C   0  0  0  0  0  0  0  0  0  0  0  0
   25.2882  -21.6543   -9.2546 O   0  0  0  0  0  0  0  0  0  0  0  0
   22.8362  -21.2591  -13.7542 C   0  0  0  0  0  0  0  0  0  0  0  0
   22.0650  -20.7178  -14.7807 C   0  0  0  0  0  0  0  0  0  0  0  0
   30.2114  -20.9513   -6.6554 C   0  0  0  0  0  0  0  0  0  0  0  0
   29.7096  -19.6020   -7.0665 C   0  0  1  0  0  0  0  0  0  0  0  0
   30.9252  -18.6725   -7.2396 C   0  0  0  0  0  0  0  0  0  0  0  0
   28.9428  -19.5386   -8.3309 C   0  0  0  0  0  0  0  0  0  0  0  0
   27.6121  -20.1969   -8.3677 C   0  0  2  0  0  0  0  0  0  0  0  0
   26.9537  -20.0750   -9.6590 N   0  0  0  0  0  0  0  0  0  0  0  0
   26.7175  -19.9198   -7.2313 C   0  0  0  0  0  0  0  0  0  0  0  0
   25.9423  -18.9332   -7.2396 O   0  0  0  0  0  0  0  0  0  0  0  0
   23.1381  -22.9643   -5.4743 C   0  0  0  0  0  0  0  0  0  0  0  0
   24.0051  -21.7570   -5.6143 C   0  0  0  0  0  0  0  0  0  0  0  0
   25.1078  -21.6805   -4.5778 C   0  0  2  0  0  0  0  0  0  0  0  0
   24.5742  -21.6524   -3.1814 C   0  0  0  0  0  0  0  0  0  0  0  0
   25.9759  -20.4728   -4.8908 C   0  0  2  0  0  0  0  0  0  0  0  0
   26.7181  -20.7694   -6.1036 N   0  0  0  0  0  0  0  0  0  0  0  0
   26.9540  -20.2222   -3.8038 C   0  0  0  0  0  0  0  0  0  0  0  0
   26.6376  -19.4812   -2.8337 O   0  0  0  0  0  0  0  0  0  0  0  0
   28.2317  -20.7589   -3.7731 O   0  0  0  0  0  0  0  0  0  0  0  0
  2 12  2  0
  2  1  1  0
  3  2  1  0
  4  3  2  0
  4  5  1  0
  5 11  2  0
  6  5  1  0
  7  6  1  0
  7  8  1  6
  9  7  1  0
  9 18  1  0
 10  9  2  0
 11 12  1  0
 14 13  1  6
 14 16  1  0
 14 15  1  0
 17 18  1  0
 17 16  1  6
 19 17  1  0
 19 26  1  0
 20 19  2  0
 21 22  1  0
 23 22  1  0
 23 24  1  1
 25 26  1  6
 25 23  1  0
 27 25  1  0
 28 27  2  0
 29 27  1  0
M  END
$$$$
