YLI.pdb
     RDKit          3D

 29 29  0  0  1  0  0  0  0  0999 V2000
   23.7013  -13.6742  -19.9902 O   0  0  0  0  0  0  0  0  0  0  0  0
   24.0023  -14.6876  -19.0673 C   0  0  0  0  0  0  0  0  0  0  0  0
   25.1763  -14.7031  -18.3465 C   0  0  0  0  0  0  0  0  0  0  0  0
   25.4307  -15.7284  -17.4429 C   0  0  0  0  0  0  0  0  0  0  0  0
   24.5373  -16.7552  -17.2317 C   0  0  0  0  0  0  0  0  0  0  0  0
   24.8002  -17.8536  -16.2681 C   0  0  0  0  0  0  0  0  0  0  0  0
   26.0371  -18.6173  -16.7325 C   0  0  2  0  0  0  0  0  0  0  0  0
   25.6702  -19.3207  -17.9462 N   0  0  0  0  0  0  0  0  0  0  0  0
   26.4027  -19.6316  -15.7114 C   0  0  0  0  0  0  0  0  0  0  0  0
   25.6591  -20.6401  -15.4866 O   0  0  0  0  0  0  0  0  0  0  0  0
   23.3576  -16.7393  -17.9564 C   0  0  0  0  0  0  0  0  0  0  0  0
   23.1032  -15.7112  -18.8619 C   0  0  0  0  0  0  0  0  0  0  0  0
   29.4214  -21.9832  -11.7112 C   0  0  0  0  0  0  0  0  0  0  0  0
   29.5636  -20.5014  -11.8701 C   0  0  1  0  0  0  0  0  0  0  0  0
   31.0323  -20.1298  -11.5929 C   0  0  0  0  0  0  0  0  0  0  0  0
   29.2279  -19.9436  -13.1994 C   0  0  0  0  0  0  0  0  0  0  0  0
   27.8212  -20.0555  -13.6623 C   0  0  2  0  0  0  0  0  0  0  0  0
   27.6068  -19.4670  -14.9751 N   0  0  0  0  0  0  0  0  0  0  0  0
   26.7833  -19.6877  -12.6845 C   0  0  0  0  0  0  0  0  0  0  0  0
   26.5753  -18.4891  -12.3770 O   0  0  0  0  0  0  0  0  0  0  0  0
   21.1591  -20.7420  -11.2290 C   0  0  0  0  0  0  0  0  0  0  0  0
   22.5256  -20.3748  -10.7531 C   0  0  0  0  0  0  0  0  0  0  0  0
   23.6243  -20.7337  -11.7330 C   0  0  2  0  0  0  0  0  0  0  0  0
   23.5486  -22.1604  -12.1740 C   0  0  0  0  0  0  0  0  0  0  0  0
   24.9624  -20.3939  -11.0973 C   0  0  2  0  0  0  0  0  0  0  0  0
   25.9979  -20.6886  -12.0723 N   0  0  0  0  0  0  0  0  0  0  0  0
   25.2109  -21.2297   -9.8970 C   0  0  0  0  0  0  0  0  0  0  0  0
   24.5408  -21.0342   -8.8467 O   0  0  0  0  0  0  0  0  0  0  0  0
   26.1552  -22.2429   -9.8410 O   0  0  0  0  0  0  0  0  0  0  0  0
  2 12  2  0
  2  1  1  0
  3  2  1  0
  4  3  2  0
  4  5  1  0
  5 11  2  0
  6  5  1  0
  7  6  1  0
  7  8  1  6
  9  7  1  0
  9 18  1  0
 10  9  2  0
 11 12  1  0
 14 13  1  6
 14 16  1  0
 14 15  1  0
 17 18  1  0
 17 16  1  1
 19 17  1  0
 19 26  1  0
 20 19  2  0
 21 22  1  0
 23 22  1  0
 23 24  1  1
 25 26  1  6
 25 23  1  0
 27 25  1  0
 28 27  2  0
 29 27  1  0
M  END
$$$$
