YLI.pdb
     RDKit          3D

 29 29  0  0  1  0  0  0  0  0999 V2000
   30.2495  -17.0898  -18.8488 O   0  0  0  0  0  0  0  0  0  0  0  0
   29.3456  -17.6467  -17.9311 C   0  0  0  0  0  0  0  0  0  0  0  0
   28.0052  -17.7939  -18.2138 C   0  0  0  0  0  0  0  0  0  0  0  0
   27.1474  -18.3516  -17.2726 C   0  0  0  0  0  0  0  0  0  0  0  0
   27.5908  -18.7740  -16.0388 C   0  0  0  0  0  0  0  0  0  0  0  0
   26.6822  -19.3714  -15.0282 C   0  0  0  0  0  0  0  0  0  0  0  0
   27.3501  -20.6184  -14.4558 C   0  0  2  0  0  0  0  0  0  0  0  0
   27.3783  -21.6084  -15.5149 N   0  0  0  0  0  0  0  0  0  0  0  0
   26.5199  -21.1589  -13.3496 C   0  0  0  0  0  0  0  0  0  0  0  0
   25.5552  -21.9576  -13.5775 O   0  0  0  0  0  0  0  0  0  0  0  0
   28.9379  -18.6257  -15.7553 C   0  0  0  0  0  0  0  0  0  0  0  0
   29.7971  -18.0667  -16.6991 C   0  0  0  0  0  0  0  0  0  0  0  0
   24.8092  -21.5209   -8.0423 C   0  0  0  0  0  0  0  0  0  0  0  0
   25.4374  -20.2407   -8.4984 C   0  0  1  0  0  0  0  0  0  0  0  0
   26.2394  -19.6559   -7.3208 C   0  0  0  0  0  0  0  0  0  0  0  0
   26.3705  -20.3332   -9.6436 C   0  0  0  0  0  0  0  0  0  0  0  0
   25.8219  -20.7788  -10.9497 C   0  0  2  0  0  0  0  0  0  0  0  0
   26.8135  -20.7729  -12.0139 N   0  0  0  0  0  0  0  0  0  0  0  0
   24.5354  -20.1856  -11.3515 C   0  0  0  0  0  0  0  0  0  0  0  0
   24.4493  -18.9758  -11.6729 O   0  0  0  0  0  0  0  0  0  0  0  0
   20.9500  -19.8946  -15.4731 C   0  0  0  0  0  0  0  0  0  0  0  0
   21.0242  -19.8052  -13.9848 C   0  0  0  0  0  0  0  0  0  0  0  0
   22.0526  -20.7352  -13.3733 C   0  0  2  0  0  0  0  0  0  0  0  0
   21.7911  -22.1692  -13.7061 C   0  0  0  0  0  0  0  0  0  0  0  0
   22.0920  -20.4860  -11.8744 C   0  0  2  0  0  0  0  0  0  0  0  0
   23.3670  -20.9777  -11.3821 N   0  0  0  0  0  0  0  0  0  0  0  0
   21.0135  -21.2321  -11.1807 C   0  0  0  0  0  0  0  0  0  0  0  0
   19.8100  -20.8939  -11.3465 O   0  0  0  0  0  0  0  0  0  0  0  0
   21.2363  -22.3084  -10.3361 O   0  0  0  0  0  0  0  0  0  0  0  0
  2 12  2  0
  2  1  1  0
  3  2  1  0
  4  3  2  0
  4  5  1  0
  5 11  2  0
  6  5  1  0
  7  6  1  0
  7  8  1  6
  9  7  1  0
  9 18  1  0
 10  9  2  0
 11 12  1  0
 14 13  1  1
 14 16  1  0
 14 15  1  0
 17 18  1  0
 17 16  1  1
 19 17  1  0
 19 26  1  0
 20 19  2  0
 21 22  1  0
 23 22  1  0
 23 24  1  1
 25 26  1  1
 25 23  1  0
 27 25  1  0
 28 27  2  0
 29 27  1  0
M  END
$$$$
