YLI.pdb
     RDKit          3D

 29 29  0  0  1  0  0  0  0  0999 V2000
   22.8159  -16.3863  -16.9746 O   0  0  0  0  0  0  0  0  0  0  0  0
   23.5501  -17.5693  -17.1499 C   0  0  0  0  0  0  0  0  0  0  0  0
   24.7525  -17.5978  -17.8219 C   0  0  0  0  0  0  0  0  0  0  0  0
   25.4444  -18.7943  -17.9704 C   0  0  0  0  0  0  0  0  0  0  0  0
   24.9679  -19.9825  -17.4620 C   0  0  0  0  0  0  0  0  0  0  0  0
   25.7005  -21.2645  -17.6151 C   0  0  0  0  0  0  0  0  0  0  0  0
   26.5846  -21.4649  -16.3874 C   0  0  2  0  0  0  0  0  0  0  0  0
   27.3217  -22.6966  -16.5923 N   0  0  0  0  0  0  0  0  0  0  0  0
   25.7289  -21.6408  -15.1867 C   0  0  0  0  0  0  0  0  0  0  0  0
   24.9047  -22.6070  -15.0991 O   0  0  0  0  0  0  0  0  0  0  0  0
   23.7594  -19.9533  -16.7868 C   0  0  0  0  0  0  0  0  0  0  0  0
   23.0664  -18.7536  -16.6383 C   0  0  0  0  0  0  0  0  0  0  0  0
   24.7666  -21.8091   -9.8464 C   0  0  0  0  0  0  0  0  0  0  0  0
   25.1474  -20.4621  -10.3775 C   0  0  1  0  0  0  0  0  0  0  0  0
   26.0926  -19.7969   -9.3597 C   0  0  0  0  0  0  0  0  0  0  0  0
   25.8444  -20.4389  -11.6830 C   0  0  0  0  0  0  0  0  0  0  0  0
   25.0666  -20.8169  -12.8903 C   0  0  2  0  0  0  0  0  0  0  0  0
   25.8373  -20.7093  -14.1192 N   0  0  0  0  0  0  0  0  0  0  0  0
   23.7153  -20.2420  -13.0001 C   0  0  0  0  0  0  0  0  0  0  0  0
   23.5413  -19.0025  -13.0876 O   0  0  0  0  0  0  0  0  0  0  0  0
   18.7728  -20.3144  -16.0110 C   0  0  0  0  0  0  0  0  0  0  0  0
   19.3450  -20.2111  -14.6360 C   0  0  0  0  0  0  0  0  0  0  0  0
   20.7495  -20.7685  -14.5217 C   0  0  2  0  0  0  0  0  0  0  0  0
   20.8339  -22.1926  -14.9692 C   0  0  0  0  0  0  0  0  0  0  0  0
   21.2233  -20.5820  -13.0896 C   0  0  2  0  0  0  0  0  0  0  0  0
   22.5833  -21.0857  -13.0092 N   0  0  0  0  0  0  0  0  0  0  0  0
   20.3878  -21.3632  -12.1448 C   0  0  0  0  0  0  0  0  0  0  0  0
   19.2019  -21.0037  -11.9111 O   0  0  0  0  0  0  0  0  0  0  0  0
   20.8269  -22.4960  -11.4774 O   0  0  0  0  0  0  0  0  0  0  0  0
  2 12  2  0
  2  1  1  0
  3  2  1  0
  4  3  2  0
  4  5  1  0
  5 11  2  0
  6  5  1  0
  7  6  1  0
  7  8  1  6
  9  7  1  0
  9 18  1  0
 10  9  2  0
 11 12  1  0
 14 13  1  1
 14 16  1  0
 14 15  1  0
 17 18  1  0
 17 16  1  1
 19 17  1  0
 19 26  1  0
 20 19  2  0
 21 22  1  0
 23 22  1  0
 23 24  1  1
 25 26  1  6
 25 23  1  0
 27 25  1  0
 28 27  2  0
 29 27  1  0
M  END
$$$$
