YLI.pdb
     RDKit          3D

 29 29  0  0  1  0  0  0  0  0999 V2000
   17.8333  -11.5951  -24.7525 O   0  0  0  0  0  0  0  0  0  0  0  0
   18.2505  -11.0221  -23.5413 C   0  0  0  0  0  0  0  0  0  0  0  0
   19.5618  -10.6722  -23.3046 C   0  0  0  0  0  0  0  0  0  0  0  0
   19.9279  -10.1068  -22.0885 C   0  0  0  0  0  0  0  0  0  0  0  0
   19.0133   -9.8756  -21.0848 C   0  0  0  0  0  0  0  0  0  0  0  0
   19.3952   -9.2716  -19.7836 C   0  0  0  0  0  0  0  0  0  0  0  0
   20.1406  -10.3213  -18.9643 C   0  0  2  0  0  0  0  0  0  0  0  0
   19.1633  -11.3098  -18.5519 N   0  0  0  0  0  0  0  0  0  0  0  0
   20.6938   -9.6896  -17.7396 C   0  0  0  0  0  0  0  0  0  0  0  0
   19.9401   -9.3626  -16.7672 O   0  0  0  0  0  0  0  0  0  0  0  0
   17.6956  -10.2276  -21.3232 C   0  0  0  0  0  0  0  0  0  0  0  0
   17.3293  -10.7941  -22.5424 C   0  0  0  0  0  0  0  0  0  0  0  0
   25.6932  -11.2672  -15.8276 C   0  0  0  0  0  0  0  0  0  0  0  0
   24.2848  -10.7836  -15.9818 C   0  0  1  0  0  0  0  0  0  0  0  0
   23.5352  -11.0679  -14.6668 C   0  0  0  0  0  0  0  0  0  0  0  0
   24.1081   -9.3424  -16.2685 C   0  0  0  0  0  0  0  0  0  0  0  0
   22.7273   -8.8458  -16.4970 C   0  0  2  0  0  0  0  0  0  0  0  0
   22.0919   -9.4486  -17.6583 N   0  0  0  0  0  0  0  0  0  0  0  0
   22.5401   -7.3870  -16.4245 C   0  0  0  0  0  0  0  0  0  0  0  0
   23.0386   -6.6239  -17.2868 O   0  0  0  0  0  0  0  0  0  0  0  0
   19.3931   -2.9840  -16.5203 C   0  0  0  0  0  0  0  0  0  0  0  0
   19.8028   -3.6660  -15.2571 C   0  0  0  0  0  0  0  0  0  0  0  0
   20.0695   -5.1478  -15.4285 C   0  0  2  0  0  0  0  0  0  0  0  0
   19.2403   -5.9846  -14.5078 C   0  0  0  0  0  0  0  0  0  0  0  0
   21.5591   -5.3901  -15.2482 C   0  0  2  0  0  0  0  0  0  0  0  0
   21.7887   -6.8189  -15.3728 N   0  0  0  0  0  0  0  0  0  0  0  0
   22.0091   -4.9688  -13.8987 C   0  0  0  0  0  0  0  0  0  0  0  0
   21.9616   -5.7848  -12.9385 O   0  0  0  0  0  0  0  0  0  0  0  0
   22.4939   -3.7041  -13.6040 O   0  0  0  0  0  0  0  0  0  0  0  0
  2 12  2  0
  2  1  1  0
  3  2  1  0
  4  3  2  0
  4  5  1  0
  5 11  2  0
  6  5  1  0
  7  6  1  0
  7  8  1  1
  9  7  1  0
  9 18  1  0
 10  9  2  0
 11 12  1  0
 14 13  1  1
 14 16  1  0
 14 15  1  0
 17 18  1  0
 17 16  1  6
 19 17  1  0
 19 26  1  0
 20 19  2  0
 21 22  1  0
 23 22  1  0
 23 24  1  1
 25 26  1  1
 25 23  1  0
 27 25  1  0
 28 27  2  0
 29 27  1  0
M  END
$$$$
