YLI.pdb
     RDKit          3D

 29 29  0  0  1  0  0  0  0  0999 V2000
   18.5463  -15.5415  -18.9242 O   0  0  0  0  0  0  0  0  0  0  0  0
   19.4214  -16.2871  -18.1195 C   0  0  0  0  0  0  0  0  0  0  0  0
   20.7647  -15.9959  -18.0253 C   0  0  0  0  0  0  0  0  0  0  0  0
   21.5932  -16.7632  -17.2145 C   0  0  0  0  0  0  0  0  0  0  0  0
   21.1172  -17.8288  -16.4830 C   0  0  0  0  0  0  0  0  0  0  0  0
   21.9944  -18.6529  -15.6140 C   0  0  0  0  0  0  0  0  0  0  0  0
   22.8501  -19.5500  -16.5038 C   0  0  2  0  0  0  0  0  0  0  0  0
   21.9735  -20.5703  -17.0453 N   0  0  0  0  0  0  0  0  0  0  0  0
   23.8802  -20.2274  -15.6762 C   0  0  0  0  0  0  0  0  0  0  0  0
   23.5691  -21.1604  -14.8679 O   0  0  0  0  0  0  0  0  0  0  0  0
   19.7671  -18.1211  -16.5781 C   0  0  0  0  0  0  0  0  0  0  0  0
   18.9373  -17.3515  -17.3910 C   0  0  0  0  0  0  0  0  0  0  0  0
   29.3683  -20.9266  -17.2428 C   0  0  0  0  0  0  0  0  0  0  0  0
   27.9721  -21.0303  -16.7126 C   0  0  1  0  0  0  0  0  0  0  0  0
   27.7277  -22.4918  -16.2926 C   0  0  0  0  0  0  0  0  0  0  0  0
   27.6465  -20.1906  -15.5381 C   0  0  0  0  0  0  0  0  0  0  0  0
   26.2957  -20.3332  -14.9378 C   0  0  2  0  0  0  0  0  0  0  0  0
   25.2369  -19.8214  -15.7938 N   0  0  0  0  0  0  0  0  0  0  0  0
   26.1605  -19.9134  -13.5328 C   0  0  0  0  0  0  0  0  0  0  0  0
   26.2353  -18.7044  -13.2053 O   0  0  0  0  0  0  0  0  0  0  0  0
   22.1351  -20.1852  -10.9273 C   0  0  0  0  0  0  0  0  0  0  0  0
   23.5476  -20.0191  -11.3807 C   0  0  0  0  0  0  0  0  0  0  0  0
   24.5410  -20.8329  -10.5762 C   0  0  2  0  0  0  0  0  0  0  0  0
   24.4270  -20.5782   -9.1073 C   0  0  0  0  0  0  0  0  0  0  0  0
   25.9360  -20.5466  -11.1074 C   0  0  2  0  0  0  0  0  0  0  0  0
   25.9418  -20.8749  -12.5222 N   0  0  0  0  0  0  0  0  0  0  0  0
   26.9485  -21.3971  -10.4347 C   0  0  0  0  0  0  0  0  0  0  0  0
   27.1398  -22.5783  -10.8324 O   0  0  0  0  0  0  0  0  0  0  0  0
   27.7259  -20.9773   -9.3666 O   0  0  0  0  0  0  0  0  0  0  0  0
  2 12  2  0
  2  1  1  0
  3  2  1  0
  4  3  2  0
  4  5  1  0
  5 11  2  0
  6  5  1  0
  7  6  1  0
  7  8  1  1
  9  7  1  0
  9 18  1  0
 10  9  2  0
 11 12  1  0
 14 13  1  1
 14 16  1  0
 14 15  1  0
 17 18  1  0
 17 16  1  6
 19 17  1  0
 19 26  1  0
 20 19  2  0
 21 22  1  0
 23 22  1  0
 23 24  1  1
 25 26  1  6
 25 23  1  0
 27 25  1  0
 28 27  2  0
 29 27  1  0
M  END
$$$$
