YLI.pdb
     RDKit          3D

 29 29  0  0  1  0  0  0  0  0999 V2000
   24.6919  -20.9019  -23.9007 O   0  0  0  0  0  0  0  0  0  0  0  0
   24.9099  -21.2817  -22.5674 C   0  0  0  0  0  0  0  0  0  0  0  0
   25.2044  -20.3677  -21.5794 C   0  0  0  0  0  0  0  0  0  0  0  0
   25.4122  -20.7914  -20.2718 C   0  0  0  0  0  0  0  0  0  0  0  0
   25.3347  -22.1189  -19.9123 C   0  0  0  0  0  0  0  0  0  0  0  0
   25.5543  -22.5801  -18.5185 C   0  0  0  0  0  0  0  0  0  0  0  0
   26.8929  -22.0309  -18.0335 C   0  0  2  0  0  0  0  0  0  0  0  0
   27.8394  -23.1288  -18.0688 N   0  0  0  0  0  0  0  0  0  0  0  0
   26.7621  -21.5879  -16.6222 C   0  0  0  0  0  0  0  0  0  0  0  0
   27.1721  -22.3151  -15.6611 O   0  0  0  0  0  0  0  0  0  0  0  0
   25.0389  -23.0370  -20.9057 C   0  0  0  0  0  0  0  0  0  0  0  0
   24.8305  -22.6116  -22.2160 C   0  0  0  0  0  0  0  0  0  0  0  0
   26.7874  -16.0602  -16.0192 C   0  0  0  0  0  0  0  0  0  0  0  0
   26.9789  -17.5412  -15.9133 C   0  0  1  0  0  0  0  0  0  0  0  0
   28.3969  -17.8023  -15.3720 C   0  0  0  0  0  0  0  0  0  0  0  0
   26.0444  -18.2671  -15.0242 C   0  0  0  0  0  0  0  0  0  0  0  0
   26.1108  -19.7506  -15.0125 C   0  0  2  0  0  0  0  0  0  0  0  0
   26.1671  -20.3272  -16.3467 N   0  0  0  0  0  0  0  0  0  0  0  0
   25.1595  -20.4374  -14.1227 C   0  0  0  0  0  0  0  0  0  0  0  0
   24.0569  -20.8574  -14.5497 O   0  0  0  0  0  0  0  0  0  0  0  0
   26.0045  -20.2027   -8.4619 C   0  0  0  0  0  0  0  0  0  0  0  0
   25.4195  -20.1356   -9.8337 C   0  0  0  0  0  0  0  0  0  0  0  0
   25.3352  -21.4829  -10.5222 C   0  0  2  0  0  0  0  0  0  0  0  0
   26.6800  -22.1067  -10.7166 C   0  0  0  0  0  0  0  0  0  0  0  0
   24.5841  -21.3052  -11.8315 C   0  0  2  0  0  0  0  0  0  0  0  0
   25.4772  -20.6365  -12.7615 N   0  0  0  0  0  0  0  0  0  0  0  0
   23.3869  -20.4483  -11.6482 C   0  0  0  0  0  0  0  0  0  0  0  0
   22.3707  -20.9079  -11.0597 O   0  0  0  0  0  0  0  0  0  0  0  0
   23.2982  -19.1373  -12.0895 O   0  0  0  0  0  0  0  0  0  0  0  0
  2 12  2  0
  2  1  1  0
  3  2  1  0
  4  3  2  0
  4  5  1  0
  5 11  2  0
  6  5  1  0
  7  6  1  0
  7  8  1  1
  9  7  1  0
  9 18  1  0
 10  9  2  0
 11 12  1  0
 14 13  1  1
 14 16  1  0
 14 15  1  0
 17 18  1  0
 17 16  1  6
 19 17  1  0
 19 26  1  0
 20 19  2  0
 21 22  1  0
 23 22  1  0
 23 24  1  6
 25 26  1  6
 25 23  1  0
 27 25  1  0
 28 27  2  0
 29 27  1  0
M  END
$$$$
