YLI.pdb
     RDKit          3D

 29 29  0  0  1  0  0  0  0  0999 V2000
   21.7283  -14.4091  -19.8087 O   0  0  0  0  0  0  0  0  0  0  0  0
   22.0829  -15.3242  -18.8055 C   0  0  0  0  0  0  0  0  0  0  0  0
   22.8317  -14.9607  -17.7076 C   0  0  0  0  0  0  0  0  0  0  0  0
   23.1584  -15.9027  -16.7389 C   0  0  0  0  0  0  0  0  0  0  0  0
   22.7559  -17.2167  -16.8316 C   0  0  0  0  0  0  0  0  0  0  0  0
   23.0994  -18.2290  -15.8015 C   0  0  0  0  0  0  0  0  0  0  0  0
   24.4829  -18.7899  -16.1184 C   0  0  2  0  0  0  0  0  0  0  0  0
   24.3373  -19.6471  -17.2788 N   0  0  0  0  0  0  0  0  0  0  0  0
   24.9450  -19.6317  -14.9858 C   0  0  0  0  0  0  0  0  0  0  0  0
   24.3442  -20.7105  -14.6767 O   0  0  0  0  0  0  0  0  0  0  0  0
   22.0035  -17.5815  -17.9353 C   0  0  0  0  0  0  0  0  0  0  0  0
   21.6763  -16.6367  -18.9058 C   0  0  0  0  0  0  0  0  0  0  0  0
   30.3160  -19.2597  -13.3539 C   0  0  0  0  0  0  0  0  0  0  0  0
   28.9127  -19.6221  -13.7293 C   0  0  1  0  0  0  0  0  0  0  0  0
   28.9206  -21.0625  -14.2743 C   0  0  0  0  0  0  0  0  0  0  0  0
   27.9070  -19.5839  -12.6441 C   0  0  0  0  0  0  0  0  0  0  0  0
   26.4927  -19.8638  -13.0003 C   0  0  2  0  0  0  0  0  0  0  0  0
   26.0802  -19.2190  -14.2372 N   0  0  0  0  0  0  0  0  0  0  0  0
   25.5079  -19.7215  -11.9148 C   0  0  0  0  0  0  0  0  0  0  0  0
   25.1302  -18.5906  -11.5237 O   0  0  0  0  0  0  0  0  0  0  0  0
   20.1749  -21.2237  -10.2883 C   0  0  0  0  0  0  0  0  0  0  0  0
   21.5614  -20.9977   -9.7831 C   0  0  0  0  0  0  0  0  0  0  0  0
   22.6256  -21.1385  -10.8527 C   0  0  2  0  0  0  0  0  0  0  0  0
   22.6165  -22.4916  -11.4887 C   0  0  0  0  0  0  0  0  0  0  0  0
   23.9721  -20.7971  -10.2360 C   0  0  2  0  0  0  0  0  0  0  0  0
   24.9676  -20.8673  -11.2914 N   0  0  0  0  0  0  0  0  0  0  0  0
   24.3440  -21.7794   -9.1882 C   0  0  0  0  0  0  0  0  0  0  0  0
   25.1608  -22.7023   -9.4550 O   0  0  0  0  0  0  0  0  0  0  0  0
   23.8447  -21.7585   -7.8952 O   0  0  0  0  0  0  0  0  0  0  0  0
  2 12  2  0
  2  1  1  0
  3  2  1  0
  4  3  2  0
  4  5  1  0
  5 11  2  0
  6  5  1  0
  7  6  1  0
  7  8  1  6
  9  7  1  0
  9 18  1  0
 10  9  2  0
 11 12  1  0
 14 13  1  1
 14 16  1  0
 14 15  1  0
 17 18  1  0
 17 16  1  1
 19 17  1  0
 19 26  1  0
 20 19  2  0
 21 22  1  0
 23 22  1  0
 23 24  1  1
 25 26  1  6
 25 23  1  0
 27 25  1  0
 28 27  2  0
 29 27  1  0
M  END
$$$$
