AIY.pdb
     RDKit          3D

 26 26  0  0  1  0  0  0  0  0999 V2000
    6.6547  -18.7908   24.5224 C   0  0  0  0  0  0  0  0  0  0  0  0
    6.0772  -17.6158   23.7608 C   0  0  2  0  0  0  0  0  0  0  0  0
    5.8429  -18.0303   22.3898 N   0  0  0  0  0  0  0  0  0  0  0  0
    6.9727  -16.4373   23.8258 C   0  0  0  0  0  0  0  0  0  0  0  0
    7.8563  -16.3255   22.9417 O   0  0  0  0  0  0  0  0  0  0  0  0
    5.1950  -11.8179   26.1151 C   0  0  0  0  0  0  0  0  0  0  0  0
    5.9005  -12.7529   25.1826 C   0  0  0  0  0  0  0  0  0  0  0  0
    7.2581  -13.2042   25.7123 C   0  0  2  0  0  0  0  0  0  0  0  0
    8.1462  -12.0074   25.7651 C   0  0  0  0  0  0  0  0  0  0  0  0
    7.8315  -14.2888   24.8242 C   0  0  2  0  0  0  0  0  0  0  0  0
    6.8943  -15.4302   24.8216 N   0  0  0  0  0  0  0  0  0  0  0  0
    9.1497  -14.7501   25.3148 C   0  0  0  0  0  0  0  0  0  0  0  0
    9.3829  -14.6822   26.5639 O   0  0  0  0  0  0  0  0  0  0  0  0
   11.2325  -16.2574   31.5900 O   0  0  0  0  0  0  0  0  0  0  0  0
   11.1030  -16.4375   30.2140 C   0  0  0  0  0  0  0  0  0  0  0  0
   10.5631  -15.4679   29.3955 C   0  0  0  0  0  0  0  0  0  0  0  0
   10.4378  -15.6548   28.0278 C   0  0  0  0  0  0  0  0  0  0  0  0
   10.8507  -16.8271   27.4221 C   0  0  0  0  0  0  0  0  0  0  0  0
   10.7309  -17.0611   25.9755 C   0  0  0  0  0  0  0  0  0  0  0  0
   11.3224  -16.0033   25.1060 C   0  0  2  0  0  0  0  0  0  0  0  0
   10.1854  -15.2665   24.5327 N   0  0  0  0  0  0  0  0  0  0  0  0
   12.2096  -16.5094   24.0374 C   0  0  0  0  0  0  0  0  0  0  0  0
   13.5817  -16.5354   24.2252 O   0  0  0  0  0  0  0  0  0  0  0  0
   11.3903  -17.7935   28.2486 C   0  0  0  0  0  0  0  0  0  0  0  0
   11.5158  -17.6084   29.6122 C   0  0  0  0  0  0  0  0  0  0  0  0
   11.7776  -16.9355   22.9214 O   0  0  0  0  0  0  0  0  0  0  0  0
  2  1  1  1
  2  3  1  0
  4  2  1  0
  5  4  2  0
  6  7  1  0
  7  8  1  0
  8  9  1  6
 10  8  1  0
 10 11  1  1
 11  4  1  0
 12 10  1  0
 12 13  2  0
 15 14  1  0
 16 15  2  0
 17 16  1  0
 18 24  1  0
 18 17  2  0
 19 18  1  0
 20 19  1  6
 20 22  1  0
 20 21  1  0
 21 12  1  0
 22 23  1  0
 24 25  2  0
 25 15  1  0
 26 22  2  0
M  END
$$$$
