AIY.pdb
     RDKit          3D

 26 26  0  0  1  0  0  0  0  0999 V2000
    8.1736  -19.7650   21.2248 C   0  0  0  0  0  0  0  0  0  0  0  0
    8.2104  -18.7392   20.1111 C   0  0  2  0  0  0  0  0  0  0  0  0
    8.9313  -19.3095   18.9879 N   0  0  0  0  0  0  0  0  0  0  0  0
    8.8282  -17.4712   20.5648 C   0  0  0  0  0  0  0  0  0  0  0  0
   10.0641  -17.3312   20.3984 O   0  0  0  0  0  0  0  0  0  0  0  0
    6.6813  -12.5785   19.7479 C   0  0  0  0  0  0  0  0  0  0  0  0
    7.6477  -13.6991   19.9755 C   0  0  0  0  0  0  0  0  0  0  0  0
    7.8507  -14.0142   21.4543 C   0  0  2  0  0  0  0  0  0  0  0  0
    8.3705  -12.7822   22.1144 C   0  0  0  0  0  0  0  0  0  0  0  0
    8.8038  -15.1803   21.6144 C   0  0  2  0  0  0  0  0  0  0  0  0
    8.1124  -16.4087   21.1736 N   0  0  0  0  0  0  0  0  0  0  0  0
    9.2261  -15.3455   23.0235 C   0  0  0  0  0  0  0  0  0  0  0  0
   10.1188  -14.5612   23.4786 O   0  0  0  0  0  0  0  0  0  0  0  0
    6.5125  -10.8120   27.0624 O   0  0  0  0  0  0  0  0  0  0  0  0
    6.8700  -12.1409   26.8420 C   0  0  0  0  0  0  0  0  0  0  0  0
    5.9743  -13.0699   26.3557 C   0  0  0  0  0  0  0  0  0  0  0  0
    6.3378  -14.3899   26.1392 C   0  0  0  0  0  0  0  0  0  0  0  0
    7.6203  -14.8343   26.4026 C   0  0  0  0  0  0  0  0  0  0  0  0
    8.0405  -16.2268   26.1875 C   0  0  0  0  0  0  0  0  0  0  0  0
    9.2301  -16.4063   25.3058 C   0  0  2  0  0  0  0  0  0  0  0  0
    8.7334  -16.2910   23.9258 N   0  0  0  0  0  0  0  0  0  0  0  0
    9.9513  -17.6824   25.4969 C   0  0  0  0  0  0  0  0  0  0  0  0
   10.0944  -18.5667   24.4405 O   0  0  0  0  0  0  0  0  0  0  0  0
    8.5116  -13.8979   26.8894 C   0  0  0  0  0  0  0  0  0  0  0  0
    8.1504  -12.5818   27.1057 C   0  0  0  0  0  0  0  0  0  0  0  0
   10.4645  -18.0294   26.6059 O   0  0  0  0  0  0  0  0  0  0  0  0
  2  1  1  1
  2  3  1  0
  4  2  1  0
  5  4  2  0
  6  7  1  0
  7  8  1  0
  8  9  1  1
 10  8  1  0
 10 11  1  1
 11  4  1  0
 12 10  1  0
 12 13  2  0
 15 14  1  0
 16 15  2  0
 17 16  1  0
 18 24  1  0
 18 17  2  0
 19 18  1  0
 20 19  1  1
 20 22  1  0
 20 21  1  0
 21 12  1  0
 22 23  1  0
 24 25  2  0
 25 15  1  0
 26 22  2  0
M  END
$$$$
