AIY.pdb
     RDKit          3D

 26 26  0  0  1  0  0  0  0  0999 V2000
    8.1273  -19.7052   20.2424 C   0  0  0  0  0  0  0  0  0  0  0  0
    8.2302  -18.5394   19.2809 C   0  0  2  0  0  0  0  0  0  0  0  0
    9.0937  -18.9287   18.1812 N   0  0  0  0  0  0  0  0  0  0  0  0
    8.7320  -17.3219   19.9599 C   0  0  0  0  0  0  0  0  0  0  0  0
    9.9748  -17.1690   20.0422 O   0  0  0  0  0  0  0  0  0  0  0  0
    6.9299  -12.3168   19.3662 C   0  0  0  0  0  0  0  0  0  0  0  0
    7.7998  -13.4937   19.6811 C   0  0  0  0  0  0  0  0  0  0  0  0
    7.6340  -13.9850   21.1159 C   0  0  2  0  0  0  0  0  0  0  0  0
    8.0437  -12.8769   22.0260 C   0  0  0  0  0  0  0  0  0  0  0  0
    8.4647  -15.2312   21.3412 C   0  0  2  0  0  0  0  0  0  0  0  0
    7.8981  -16.3210   20.5211 N   0  0  0  0  0  0  0  0  0  0  0  0
    8.4504  -15.6422   22.7632 C   0  0  0  0  0  0  0  0  0  0  0  0
    7.4161  -16.2366   23.2060 O   0  0  0  0  0  0  0  0  0  0  0  0
    6.3915  -10.5067   27.2092 O   0  0  0  0  0  0  0  0  0  0  0  0
    6.7891  -11.7733   26.7847 C   0  0  0  0  0  0  0  0  0  0  0  0
    8.1117  -12.0864   26.5512 C   0  0  0  0  0  0  0  0  0  0  0  0
    8.4989  -13.3487   26.1290 C   0  0  0  0  0  0  0  0  0  0  0  0
    7.5715  -14.3532   25.9229 C   0  0  0  0  0  0  0  0  0  0  0  0
    7.9453  -15.7022   25.4732 C   0  0  0  0  0  0  0  0  0  0  0  0
    9.3769  -15.8746   25.0917 C   0  0  2  0  0  0  0  0  0  0  0  0
    9.4777  -15.4441   23.6885 N   0  0  0  0  0  0  0  0  0  0  0  0
    9.8967  -17.2487   25.2554 C   0  0  0  0  0  0  0  0  0  0  0  0
   10.8473  -17.5230   26.2248 O   0  0  0  0  0  0  0  0  0  0  0  0
    6.2488  -14.0317   26.1588 C   0  0  0  0  0  0  0  0  0  0  0  0
    5.8616  -12.7738   26.5797 C   0  0  0  0  0  0  0  0  0  0  0  0
    9.5132  -18.2250   24.5389 O   0  0  0  0  0  0  0  0  0  0  0  0
  2  1  1  1
  2  3  1  0
  4  2  1  0
  5  4  2  0
  6  7  1  0
  7  8  1  0
  8  9  1  1
 10  8  1  0
 10 11  1  6
 11  4  1  0
 12 10  1  0
 12 13  2  0
 15 14  1  0
 16 15  2  0
 17 16  1  0
 18 24  1  0
 18 17  2  0
 19 18  1  0
 20 19  1  6
 20 22  1  0
 20 21  1  0
 21 12  1  0
 22 23  1  0
 24 25  2  0
 25 15  1  0
 26 22  2  0
M  END
$$$$
