AIY.pdb
     RDKit          3D

 26 26  0  0  1  0  0  0  0  0999 V2000
    6.0784  -19.2117   22.3127 C   0  0  0  0  0  0  0  0  0  0  0  0
    6.3563  -18.5295   20.9893 C   0  0  2  0  0  0  0  0  0  0  0  0
    6.6835  -19.5489   20.0093 N   0  0  0  0  0  0  0  0  0  0  0  0
    7.4420  -17.5292   21.1147 C   0  0  0  0  0  0  0  0  0  0  0  0
    8.6258  -17.9417   21.0587 O   0  0  0  0  0  0  0  0  0  0  0  0
    7.3172  -12.5734   18.9787 C   0  0  0  0  0  0  0  0  0  0  0  0
    7.7687  -13.8875   19.5361 C   0  0  0  0  0  0  0  0  0  0  0  0
    7.9836  -13.8474   21.0459 C   0  0  2  0  0  0  0  0  0  0  0  0
    9.0521  -12.8458   21.3266 C   0  0  0  0  0  0  0  0  0  0  0  0
    8.3567  -15.2232   21.5577 C   0  0  2  0  0  0  0  0  0  0  0  0
    7.2280  -16.1384   21.2936 N   0  0  0  0  0  0  0  0  0  0  0  0
    8.6303  -15.2044   23.0123 C   0  0  0  0  0  0  0  0  0  0  0  0
    8.0266  -14.3408   23.7257 O   0  0  0  0  0  0  0  0  0  0  0  0
    5.6818  -11.2638   27.0753 O   0  0  0  0  0  0  0  0  0  0  0  0
    6.3700  -12.4367   26.7700 C   0  0  0  0  0  0  0  0  0  0  0  0
    7.7431  -12.5259   26.8617 C   0  0  0  0  0  0  0  0  0  0  0  0
    8.4201  -13.6962   26.5562 C   0  0  0  0  0  0  0  0  0  0  0  0
    7.7447  -14.8302   26.1443 C   0  0  0  0  0  0  0  0  0  0  0  0
    8.4296  -16.0875   25.8097 C   0  0  0  0  0  0  0  0  0  0  0  0
    9.7547  -15.9352   25.1421 C   0  0  2  0  0  0  0  0  0  0  0  0
    9.4983  -16.0567   23.6986 N   0  0  0  0  0  0  0  0  0  0  0  0
   10.7781  -16.9100   25.5752 C   0  0  0  0  0  0  0  0  0  0  0  0
   11.2358  -17.8767   24.6952 O   0  0  0  0  0  0  0  0  0  0  0  0
    6.3696  -14.7329   26.0548 C   0  0  0  0  0  0  0  0  0  0  0  0
    5.6937  -13.5668   26.3591 C   0  0  0  0  0  0  0  0  0  0  0  0
   11.2799  -16.9162   26.7421 O   0  0  0  0  0  0  0  0  0  0  0  0
  2  1  1  1
  2  3  1  0
  4  2  1  0
  5  4  2  0
  6  7  1  0
  7  8  1  0
  8  9  1  6
 10  8  1  0
 10 11  1  1
 11  4  1  0
 12 10  1  0
 12 13  2  0
 15 14  1  0
 16 15  2  0
 17 16  1  0
 18 24  1  0
 18 17  2  0
 19 18  1  0
 20 19  1  1
 20 22  1  0
 20 21  1  0
 21 12  1  0
 22 23  1  0
 24 25  2  0
 25 15  1  0
 26 22  2  0
M  END
$$$$
