AIY.pdb
     RDKit          3D

 26 26  0  0  1  0  0  0  0  0999 V2000
    6.4464  -19.3020   26.0419 C   0  0  0  0  0  0  0  0  0  0  0  0
    5.6625  -18.3636   25.1481 C   0  0  2  0  0  0  0  0  0  0  0  0
    5.1495  -19.1249   24.0240 N   0  0  0  0  0  0  0  0  0  0  0  0
    6.4963  -17.2251   24.6968 C   0  0  0  0  0  0  0  0  0  0  0  0
    7.1193  -17.3499   23.6147 O   0  0  0  0  0  0  0  0  0  0  0  0
    5.4636  -12.2179   26.5944 C   0  0  0  0  0  0  0  0  0  0  0  0
    5.8579  -13.2793   25.6150 C   0  0  0  0  0  0  0  0  0  0  0  0
    7.3157  -13.7053   25.7591 C   0  0  2  0  0  0  0  0  0  0  0  0
    8.1682  -12.5711   25.3004 C   0  0  0  0  0  0  0  0  0  0  0  0
    7.5751  -14.9623   24.9550 C   0  0  2  0  0  0  0  0  0  0  0  0
    6.6342  -16.0062   25.4091 N   0  0  0  0  0  0  0  0  0  0  0  0
    8.9603  -15.4491   25.1423 C   0  0  0  0  0  0  0  0  0  0  0  0
    9.4411  -15.4535   26.3205 O   0  0  0  0  0  0  0  0  0  0  0  0
    9.7583  -19.3590   29.9478 O   0  0  0  0  0  0  0  0  0  0  0  0
   10.1153  -18.9737   28.6569 C   0  0  0  0  0  0  0  0  0  0  0  0
   11.3629  -18.4653   28.3623 C   0  0  0  0  0  0  0  0  0  0  0  0
   11.7102  -18.0843   27.0756 C   0  0  0  0  0  0  0  0  0  0  0  0
   10.8164  -18.1980   26.0268 C   0  0  0  0  0  0  0  0  0  0  0  0
   11.1490  -17.8016   24.6506 C   0  0  0  0  0  0  0  0  0  0  0  0
   11.1986  -16.3315   24.4034 C   0  0  2  0  0  0  0  0  0  0  0  0
    9.8119  -15.9174   24.1391 N   0  0  0  0  0  0  0  0  0  0  0  0
   12.0865  -15.9231   23.2943 C   0  0  0  0  0  0  0  0  0  0  0  0
   13.4603  -16.0464   23.4203 O   0  0  0  0  0  0  0  0  0  0  0  0
    9.5688  -18.7079   26.3299 C   0  0  0  0  0  0  0  0  0  0  0  0
    9.2215  -19.0881   27.6122 C   0  0  0  0  0  0  0  0  0  0  0  0
   11.6536  -15.4506   22.1976 O   0  0  0  0  0  0  0  0  0  0  0  0
  2  1  1  1
  2  3  1  0
  4  2  1  0
  5  4  2  0
  6  7  1  0
  7  8  1  0
  8  9  1  6
 10  8  1  0
 10 11  1  1
 11  4  1  0
 12 10  1  0
 12 13  2  0
 15 14  1  0
 16 15  2  0
 17 16  1  0
 18 24  1  0
 18 17  2  0
 19 18  1  0
 20 19  1  6
 20 22  1  0
 20 21  1  0
 21 12  1  0
 22 23  1  0
 24 25  2  0
 25 15  1  0
 26 22  2  0
M  END
$$$$
