AIY.pdb
     RDKit          3D

 26 26  0  0  1  0  0  0  0  0999 V2000
    7.1563  -17.4198   21.6773 C   0  0  0  0  0  0  0  0  0  0  0  0
    6.7119  -15.9746   21.5881 C   0  0  2  0  0  0  0  0  0  0  0  0
    6.7574  -15.5673   20.1958 N   0  0  0  0  0  0  0  0  0  0  0  0
    7.5516  -15.0979   22.4375 C   0  0  0  0  0  0  0  0  0  0  0  0
    8.5621  -14.5702   21.9130 O   0  0  0  0  0  0  0  0  0  0  0  0
    5.4387  -12.0464   26.4765 C   0  0  0  0  0  0  0  0  0  0  0  0
    6.3127  -12.4923   25.3457 C   0  0  0  0  0  0  0  0  0  0  0  0
    7.4216  -13.4398   25.7930 C   0  0  2  0  0  0  0  0  0  0  0  0
    8.3067  -12.6925   26.7321 C   0  0  0  0  0  0  0  0  0  0  0  0
    8.1867  -13.9536   24.5911 C   0  0  2  0  0  0  0  0  0  0  0  0
    7.2857  -14.8184   23.8025 N   0  0  0  0  0  0  0  0  0  0  0  0
    9.3724  -14.7401   24.9993 C   0  0  0  0  0  0  0  0  0  0  0  0
   10.1443  -14.2477   25.8830 O   0  0  0  0  0  0  0  0  0  0  0  0
   11.5710  -14.6135   31.2237 O   0  0  0  0  0  0  0  0  0  0  0  0
   11.1715  -15.2557   30.0531 C   0  0  0  0  0  0  0  0  0  0  0  0
   10.5087  -14.5917   29.0423 C   0  0  0  0  0  0  0  0  0  0  0  0
   10.1146  -15.2379   27.8810 C   0  0  0  0  0  0  0  0  0  0  0  0
   10.3702  -16.5825   27.6849 C   0  0  0  0  0  0  0  0  0  0  0  0
    9.9649  -17.3009   26.4678 C   0  0  0  0  0  0  0  0  0  0  0  0
   10.6668  -16.8875   25.2183 C   0  0  2  0  0  0  0  0  0  0  0  0
    9.7380  -15.9952   24.5073 N   0  0  0  0  0  0  0  0  0  0  0  0
   11.0857  -18.0066   24.3482 C   0  0  0  0  0  0  0  0  0  0  0  0
   12.2547  -18.6988   24.6177 O   0  0  0  0  0  0  0  0  0  0  0  0
   11.0342  -17.2406   28.7019 C   0  0  0  0  0  0  0  0  0  0  0  0
   11.4276  -16.5975   29.8600 C   0  0  0  0  0  0  0  0  0  0  0  0
   10.4183  -18.3850   23.3357 O   0  0  0  0  0  0  0  0  0  0  0  0
  2  1  1  6
  2  3  1  0
  4  2  1  0
  5  4  2  0
  6  7  1  0
  7  8  1  0
  8  9  1  1
 10  8  1  0
 10 11  1  1
 11  4  1  0
 12 10  1  0
 12 13  2  0
 15 14  1  0
 16 15  2  0
 17 16  1  0
 18 24  1  0
 18 17  2  0
 19 18  1  0
 20 19  1  1
 20 22  1  0
 20 21  1  0
 21 12  1  0
 22 23  1  0
 24 25  2  0
 25 15  1  0
 26 22  2  0
M  END
$$$$
