AIY.pdb
     RDKit          3D

 26 26  0  0  1  0  0  0  0  0999 V2000
    6.0807  -18.8930   22.7092 C   0  0  0  0  0  0  0  0  0  0  0  0
    6.1500  -18.4442   21.2642 C   0  0  2  0  0  0  0  0  0  0  0  0
    6.0918  -19.6210   20.4167 N   0  0  0  0  0  0  0  0  0  0  0  0
    7.3722  -17.6481   21.0039 C   0  0  0  0  0  0  0  0  0  0  0  0
    8.4284  -18.2701   20.7354 O   0  0  0  0  0  0  0  0  0  0  0  0
    7.2800  -11.9380   20.6418 C   0  0  0  0  0  0  0  0  0  0  0  0
    7.6083  -13.2956   21.1810 C   0  0  0  0  0  0  0  0  0  0  0  0
    8.3572  -14.1659   20.1765 C   0  0  2  0  0  0  0  0  0  0  0  0
    7.4949  -14.3106   18.9685 C   0  0  0  0  0  0  0  0  0  0  0  0
    8.6880  -15.5092   20.7930 C   0  0  2  0  0  0  0  0  0  0  0  0
    7.4231  -16.2310   21.0390 N   0  0  0  0  0  0  0  0  0  0  0  0
    9.4102  -15.3536   22.0757 C   0  0  0  0  0  0  0  0  0  0  0  0
   10.5733  -14.8382   22.0512 O   0  0  0  0  0  0  0  0  0  0  0  0
   10.8832  -14.9690   30.9115 O   0  0  0  0  0  0  0  0  0  0  0  0
   10.3526  -15.0309   29.6242 C   0  0  0  0  0  0  0  0  0  0  0  0
   10.0101  -13.8974   28.9173 C   0  0  0  0  0  0  0  0  0  0  0  0
    9.4829  -13.9675   27.6373 C   0  0  0  0  0  0  0  0  0  0  0  0
    9.2766  -15.1827   27.0108 C   0  0  0  0  0  0  0  0  0  0  0  0
    8.7172  -15.2953   25.6557 C   0  0  0  0  0  0  0  0  0  0  0  0
    9.7151  -15.5139   24.5688 C   0  0  2  0  0  0  0  0  0  0  0  0
    8.9360  -15.7185   23.3378 N   0  0  0  0  0  0  0  0  0  0  0  0
   10.6373  -16.6461   24.7981 C   0  0  0  0  0  0  0  0  0  0  0  0
   10.3138  -17.9121   24.3387 O   0  0  0  0  0  0  0  0  0  0  0  0
    9.6220  -16.3134   27.7254 C   0  0  0  0  0  0  0  0  0  0  0  0
   10.1477  -16.2448   29.0015 C   0  0  0  0  0  0  0  0  0  0  0  0
   11.7438  -16.5261   25.4103 O   0  0  0  0  0  0  0  0  0  0  0  0
  2  1  1  1
  2  3  1  0
  4  2  1  0
  5  4  2  0
  6  7  1  0
  7  8  1  0
  8  9  1  6
 10  8  1  0
 10 11  1  1
 11  4  1  0
 12 10  1  0
 12 13  2  0
 15 14  1  0
 16 15  2  0
 17 16  1  0
 18 24  1  0
 18 17  2  0
 19 18  1  0
 20 19  1  1
 20 22  1  0
 20 21  1  0
 21 12  1  0
 22 23  1  0
 24 25  2  0
 25 15  1  0
 26 22  2  0
M  END
$$$$
