DHI.pdb
     RDKit          3D

 27 27  0  0  1  0  0  0  0  0999 V2000
    9.0235  -18.2452   21.0943 N   0  0  0  0  0  0  0  0  0  0  0  0
   10.3273  -17.6559   21.1849 C   0  0  1  0  0  0  0  0  0  0  0  0
   11.0145  -17.8836   19.8326 C   0  0  0  0  0  0  0  0  0  0  0  0
   11.2862  -19.3400   19.6442 C   0  0  0  0  0  0  0  0  0  0  0  0
   11.2179  -20.1400   20.6127 O   0  0  0  0  0  0  0  0  0  0  0  0
   10.1794  -16.2017   21.4484 C   0  0  0  0  0  0  0  0  0  0  0  0
   11.1549  -15.4061   21.4583 O   0  0  0  0  0  0  0  0  0  0  0  0
   11.6222  -19.8706   18.4087 O   0  0  0  0  0  0  0  0  0  0  0  0
    8.8910  -15.6168   21.7105 N   0  0  0  0  0  0  0  0  0  0  0  0
    8.6824  -14.2244   21.9608 C   0  0  1  0  0  0  0  0  0  0  0  0
    7.4489  -13.7010   21.2608 C   0  0  0  0  0  0  0  0  0  0  0  0
    7.5905  -13.8064   19.7878 C   0  0  0  0  0  0  0  0  0  0  0  0
    8.0214  -12.8058   18.9094 C   0  0  0  0  0  0  0  0  0  0  0  0
    8.0123  -13.2941   17.6576 N   0  0  0  0  0  0  0  0  0  0  0  0
    7.5911  -14.5686   17.7106 C   0  0  0  0  0  0  0  0  0  0  0  0
    7.3368  -14.8720   19.0099 N   0  0  0  0  0  0  0  0  0  0  0  0
    8.6449  -13.9914   23.4180 C   0  0  0  0  0  0  0  0  0  0  0  0
    8.4927  -12.8161   23.8340 O   0  0  0  0  0  0  0  0  0  0  0  0
    5.8660  -12.2295   25.8435 C   0  0  0  0  0  0  0  0  0  0  0  0
    7.1942  -12.8513   25.4046 C   0  0  0  0  0  0  0  0  0  0  0  0
    7.4578  -14.1013   26.1907 C   0  0  2  0  0  0  0  0  0  0  0  0
    7.4123  -13.7054   27.6589 C   0  0  0  0  0  0  0  0  0  0  0  0
    8.7610  -14.7083   25.8061 C   0  0  2  0  0  0  0  0  0  0  0  0
    8.7732  -15.0362   24.3750 N   0  0  0  0  0  0  0  0  0  0  0  0
    9.0361  -15.9505   26.5351 C   0  0  0  0  0  0  0  0  0  0  0  0
    8.5822  -17.0592   26.0878 O   0  0  0  0  0  0  0  0  0  0  0  0
    9.7826  -15.9569   27.7015 O   0  0  0  0  0  0  0  0  0  0  0  0
  2  1  1  6
  2  3  1  0
  2  6  1  0
  3  4  1  0
  4  8  1  0
  4  5  2  0
  6  9  1  0
  7  6  2  0
  9 10  1  0
 10 11  1  6
 11 12  1  0
 12 16  1  0
 12 13  2  0
 13 14  1  0
 15 14  1  0
 16 15  2  0
 17 10  1  0
 17 24  1  0
 18 17  2  0
 19 20  1  0
 20 21  1  0
 21 23  1  0
 21 22  1  1
 23 24  1  6
 23 25  1  0
 25 26  2  0
 25 27  1  0
M  END
$$$$
