DHI.pdb
     RDKit          3D

 27 27  0  0  1  0  0  0  0  0999 V2000
   10.3786  -19.2754   19.1249 N   0  0  0  0  0  0  0  0  0  0  0  0
   10.5145  -17.9119   19.5464 C   0  0  1  0  0  0  0  0  0  0  0  0
   10.2195  -17.0353   18.3226 C   0  0  0  0  0  0  0  0  0  0  0  0
   11.3314  -17.1601   17.3335 C   0  0  0  0  0  0  0  0  0  0  0  0
   12.5315  -17.0460   17.6934 O   0  0  0  0  0  0  0  0  0  0  0  0
    9.5273  -17.6417   20.6227 C   0  0  0  0  0  0  0  0  0  0  0  0
    8.2887  -17.5660   20.4110 O   0  0  0  0  0  0  0  0  0  0  0  0
   11.0951  -17.4044   15.9899 O   0  0  0  0  0  0  0  0  0  0  0  0
    9.9429  -17.4491   21.9869 N   0  0  0  0  0  0  0  0  0  0  0  0
    9.0600  -17.5275   23.1090 C   0  0  1  0  0  0  0  0  0  0  0  0
    9.1538  -18.8624   23.8123 C   0  0  0  0  0  0  0  0  0  0  0  0
    8.2563  -18.9037   24.9929 C   0  0  0  0  0  0  0  0  0  0  0  0
    6.8761  -18.6734   25.0100 C   0  0  0  0  0  0  0  0  0  0  0  0
    6.4300  -18.8043   26.2706 N   0  0  0  0  0  0  0  0  0  0  0  0
    7.4779  -19.1095   27.0538 C   0  0  0  0  0  0  0  0  0  0  0  0
    8.5846  -19.1680   26.2686 N   0  0  0  0  0  0  0  0  0  0  0  0
    9.3228  -16.3930   24.0162 C   0  0  0  0  0  0  0  0  0  0  0  0
   10.5139  -16.1215   24.3080 O   0  0  0  0  0  0  0  0  0  0  0  0
    6.7154  -11.3786   26.5482 C   0  0  0  0  0  0  0  0  0  0  0  0
    7.8956  -12.3477   26.4413 C   0  0  0  0  0  0  0  0  0  0  0  0
    7.5320  -13.4997   25.5521 C   0  0  2  0  0  0  0  0  0  0  0  0
    6.2571  -14.1009   26.1244 C   0  0  0  0  0  0  0  0  0  0  0  0
    8.6426  -14.4875   25.4780 C   0  0  2  0  0  0  0  0  0  0  0  0
    8.2897  -15.5914   24.5766 N   0  0  0  0  0  0  0  0  0  0  0  0
    8.9525  -15.0794   26.7833 C   0  0  0  0  0  0  0  0  0  0  0  0
    8.4758  -16.2267   27.0858 O   0  0  0  0  0  0  0  0  0  0  0  0
    9.7561  -14.4269   27.7032 O   0  0  0  0  0  0  0  0  0  0  0  0
  2  1  1  6
  2  3  1  0
  2  6  1  0
  3  4  1  0
  4  8  1  0
  4  5  2  0
  6  9  1  0
  7  6  2  0
  9 10  1  0
 10 11  1  1
 11 12  1  0
 12 16  1  0
 12 13  2  0
 13 14  1  0
 15 14  1  0
 16 15  2  0
 17 10  1  0
 17 24  1  0
 18 17  2  0
 19 20  1  0
 20 21  1  0
 21 23  1  0
 21 22  1  1
 23 24  1  6
 23 25  1  0
 25 26  2  0
 25 27  1  0
M  END
$$$$
