DHI.pdb
     RDKit          3D

 27 27  0  0  1  0  0  0  0  0999 V2000
    9.0291  -17.3126   19.3072 N   0  0  0  0  0  0  0  0  0  0  0  0
    8.0656  -16.2806   19.5557 C   0  0  1  0  0  0  0  0  0  0  0  0
    6.8633  -16.5645   18.6464 C   0  0  0  0  0  0  0  0  0  0  0  0
    7.3302  -16.7678   17.2425 C   0  0  0  0  0  0  0  0  0  0  0  0
    7.7985  -17.8751   16.8719 O   0  0  0  0  0  0  0  0  0  0  0  0
    7.6567  -16.3392   20.9824 C   0  0  0  0  0  0  0  0  0  0  0  0
    6.7352  -15.6264   21.4593 O   0  0  0  0  0  0  0  0  0  0  0  0
    7.2697  -15.7582   16.2949 O   0  0  0  0  0  0  0  0  0  0  0  0
    8.3039  -17.2295   21.9094 N   0  0  0  0  0  0  0  0  0  0  0  0
    7.8976  -17.3984   23.2700 C   0  0  1  0  0  0  0  0  0  0  0  0
    8.2228  -18.7796   23.7917 C   0  0  0  0  0  0  0  0  0  0  0  0
    7.7774  -18.9332   25.1985 C   0  0  0  0  0  0  0  0  0  0  0  0
    6.5256  -18.5983   25.7269 C   0  0  0  0  0  0  0  0  0  0  0  0
    6.5165  -18.8890   27.0386 N   0  0  0  0  0  0  0  0  0  0  0  0
    7.7179  -19.3963   27.3612 C   0  0  0  0  0  0  0  0  0  0  0  0
    8.4785  -19.4196   26.2362 N   0  0  0  0  0  0  0  0  0  0  0  0
    8.4963  -16.3296   24.0937 C   0  0  0  0  0  0  0  0  0  0  0  0
    9.6795  -15.9809   23.8567 O   0  0  0  0  0  0  0  0  0  0  0  0
    5.7378  -11.9483   25.4827 C   0  0  0  0  0  0  0  0  0  0  0  0
    6.8804  -12.8771   25.0642 C   0  0  0  0  0  0  0  0  0  0  0  0
    7.4610  -13.5496   26.2728 C   0  0  2  0  0  0  0  0  0  0  0  0
    8.0770  -12.4498   27.1245 C   0  0  0  0  0  0  0  0  0  0  0  0
    8.4529  -14.5874   25.8807 C   0  0  2  0  0  0  0  0  0  0  0  0
    7.7959  -15.6747   25.1446 N   0  0  0  0  0  0  0  0  0  0  0  0
    9.1176  -15.1918   27.0396 C   0  0  0  0  0  0  0  0  0  0  0  0
    8.5996  -16.2172   27.6013 O   0  0  0  0  0  0  0  0  0  0  0  0
   10.3019  -14.6813   27.5444 O   0  0  0  0  0  0  0  0  0  0  0  0
  2  1  1  1
  2  3  1  0
  2  6  1  0
  3  4  1  0
  4  8  1  0
  4  5  2  0
  6  9  1  0
  7  6  2  0
  9 10  1  0
 10 11  1  1
 11 12  1  0
 12 16  1  0
 12 13  2  0
 13 14  1  0
 15 14  1  0
 16 15  2  0
 17 10  1  0
 17 24  1  0
 18 17  2  0
 19 20  1  0
 20 21  1  0
 21 23  1  0
 21 22  1  1
 23 24  1  1
 23 25  1  0
 25 26  2  0
 25 27  1  0
M  END
$$$$
