DHI.pdb
     RDKit          3D

 27 27  0  0  1  0  0  0  0  0999 V2000
    9.2619  -17.7157   19.6831 N   0  0  0  0  0  0  0  0  0  0  0  0
    8.4297  -16.5485   19.6743 C   0  0  1  0  0  0  0  0  0  0  0  0
    7.4101  -16.7361   18.5437 C   0  0  0  0  0  0  0  0  0  0  0  0
    8.1254  -16.9493   17.2502 C   0  0  0  0  0  0  0  0  0  0  0  0
    9.3777  -17.0649   17.2164 O   0  0  0  0  0  0  0  0  0  0  0  0
    7.7340  -16.4453   20.9825 C   0  0  0  0  0  0  0  0  0  0  0  0
    6.7960  -15.6332   21.1958 O   0  0  0  0  0  0  0  0  0  0  0  0
    7.4506  -17.0286   16.0422 O   0  0  0  0  0  0  0  0  0  0  0  0
    8.1026  -17.2828   22.0932 N   0  0  0  0  0  0  0  0  0  0  0  0
    7.4810  -17.2220   23.3796 C   0  0  1  0  0  0  0  0  0  0  0  0
    7.3836  -18.5844   24.0274 C   0  0  0  0  0  0  0  0  0  0  0  0
    6.3915  -19.4353   23.3255 C   0  0  0  0  0  0  0  0  0  0  0  0
    5.0497  -19.1297   23.0715 C   0  0  0  0  0  0  0  0  0  0  0  0
    4.4878  -20.1573   22.4130 N   0  0  0  0  0  0  0  0  0  0  0  0
    5.4253  -21.1038   22.2401 C   0  0  0  0  0  0  0  0  0  0  0  0
    6.5800  -20.6565   22.7980 N   0  0  0  0  0  0  0  0  0  0  0  0
    8.2006  -16.2472   24.2229 C   0  0  0  0  0  0  0  0  0  0  0  0
    9.4426  -16.1295   24.0774 O   0  0  0  0  0  0  0  0  0  0  0  0
    5.6656  -11.7636   26.0409 C   0  0  0  0  0  0  0  0  0  0  0  0
    6.7305  -12.6811   25.4348 C   0  0  0  0  0  0  0  0  0  0  0  0
    7.4632  -13.4041   26.5259 C   0  0  2  0  0  0  0  0  0  0  0  0
    8.2438  -12.3485   27.2944 C   0  0  0  0  0  0  0  0  0  0  0  0
    8.3430  -14.4653   25.9651 C   0  0  2  0  0  0  0  0  0  0  0  0
    7.5534  -15.4338   25.1941 N   0  0  0  0  0  0  0  0  0  0  0  0
    9.0473  -15.2170   27.0086 C   0  0  0  0  0  0  0  0  0  0  0  0
    8.4543  -16.1829   27.6007 O   0  0  0  0  0  0  0  0  0  0  0  0
   10.3482  -14.9100   27.3710 O   0  0  0  0  0  0  0  0  0  0  0  0
  2  1  1  1
  2  3  1  0
  2  6  1  0
  3  4  1  0
  4  8  1  0
  4  5  2  0
  6  9  1  0
  7  6  2  0
  9 10  1  0
 10 11  1  1
 11 12  1  0
 12 16  1  0
 12 13  2  0
 13 14  1  0
 15 14  1  0
 16 15  2  0
 17 10  1  0
 17 24  1  0
 18 17  2  0
 19 20  1  0
 20 21  1  0
 21 23  1  0
 21 22  1  6
 23 24  1  1
 23 25  1  0
 25 26  2  0
 25 27  1  0
M  END
$$$$
