DHI.pdb
     RDKit          3D

 27 27  0  0  1  0  0  0  0  0999 V2000
    6.8943  -19.2195   19.5505 N   0  0  0  0  0  0  0  0  0  0  0  0
    7.5774  -18.0608   20.0465 C   0  0  1  0  0  0  0  0  0  0  0  0
    7.3270  -16.9306   19.0401 C   0  0  0  0  0  0  0  0  0  0  0  0
    8.1628  -17.1466   17.8214 C   0  0  0  0  0  0  0  0  0  0  0  0
    8.8988  -18.1613   17.7149 O   0  0  0  0  0  0  0  0  0  0  0  0
    7.0138  -17.7026   21.3732 C   0  0  0  0  0  0  0  0  0  0  0  0
    5.8734  -17.1887   21.5152 O   0  0  0  0  0  0  0  0  0  0  0  0
    8.1659  -16.2498   16.7647 O   0  0  0  0  0  0  0  0  0  0  0  0
    7.7549  -17.9285   22.5858 N   0  0  0  0  0  0  0  0  0  0  0  0
    7.2354  -17.6858   23.8958 C   0  0  1  0  0  0  0  0  0  0  0  0
    7.2385  -18.9349   24.7474 C   0  0  0  0  0  0  0  0  0  0  0  0
    6.2046  -19.8935   24.2859 C   0  0  0  0  0  0  0  0  0  0  0  0
    5.2903  -19.7086   23.2428 C   0  0  0  0  0  0  0  0  0  0  0  0
    4.5235  -20.8069   23.1381 N   0  0  0  0  0  0  0  0  0  0  0  0
    4.9188  -21.6821   24.0776 C   0  0  0  0  0  0  0  0  0  0  0  0
    5.9416  -21.1185   24.7711 N   0  0  0  0  0  0  0  0  0  0  0  0
    7.9841  -16.5769   24.5193 C   0  0  0  0  0  0  0  0  0  0  0  0
    9.2242  -16.5098   24.3316 O   0  0  0  0  0  0  0  0  0  0  0  0
    5.7929  -11.6657   25.6154 C   0  0  0  0  0  0  0  0  0  0  0  0
    6.7980  -12.7362   25.1830 C   0  0  0  0  0  0  0  0  0  0  0  0
    7.3924  -13.3970   26.3913 C   0  0  2  0  0  0  0  0  0  0  0  0
    8.2181  -12.3349   27.1017 C   0  0  0  0  0  0  0  0  0  0  0  0
    8.2038  -14.5834   26.0054 C   0  0  2  0  0  0  0  0  0  0  0  0
    7.3671  -15.5791   25.3240 N   0  0  0  0  0  0  0  0  0  0  0  0
    8.8078  -15.2486   27.1642 C   0  0  0  0  0  0  0  0  0  0  0  0
    8.1392  -16.1293   27.8065 O   0  0  0  0  0  0  0  0  0  0  0  0
   10.0935  -14.9500   27.5834 O   0  0  0  0  0  0  0  0  0  0  0  0
  2  1  1  6
  2  3  1  0
  2  6  1  0
  3  4  1  0
  4  8  1  0
  4  5  2  0
  6  9  1  0
  7  6  2  0
  9 10  1  0
 10 11  1  1
 11 12  1  0
 12 16  1  0
 12 13  2  0
 13 14  1  0
 15 14  1  0
 16 15  2  0
 17 10  1  0
 17 24  1  0
 18 17  2  0
 19 20  1  0
 20 21  1  0
 21 23  1  0
 21 22  1  6
 23 24  1  1
 23 25  1  0
 25 26  2  0
 25 27  1  0
M  END
$$$$
