DHI.pdb
     RDKit          3D

 27 27  0  0  1  0  0  0  0  0999 V2000
   10.6980  -15.8066   18.5139 N   0  0  0  0  0  0  0  0  0  0  0  0
   11.2868  -15.7874   19.8209 C   0  0  1  0  0  0  0  0  0  0  0  0
   12.0633  -14.4700   19.9410 C   0  0  0  0  0  0  0  0  0  0  0  0
   13.4764  -14.6762   19.5040 C   0  0  0  0  0  0  0  0  0  0  0  0
   14.0270  -15.8024   19.6099 O   0  0  0  0  0  0  0  0  0  0  0  0
   10.2038  -15.8406   20.8360 C   0  0  0  0  0  0  0  0  0  0  0  0
    9.1951  -15.0884   20.7995 O   0  0  0  0  0  0  0  0  0  0  0  0
   14.2369  -13.6488   18.9684 O   0  0  0  0  0  0  0  0  0  0  0  0
   10.2525  -16.7711   21.9327 N   0  0  0  0  0  0  0  0  0  0  0  0
    9.1861  -16.9610   22.8662 C   0  0  1  0  0  0  0  0  0  0  0  0
    9.0190  -18.4141   23.2484 C   0  0  0  0  0  0  0  0  0  0  0  0
    7.9821  -18.5703   24.2979 C   0  0  0  0  0  0  0  0  0  0  0  0
    6.6442  -18.1659   24.2267 C   0  0  0  0  0  0  0  0  0  0  0  0
    6.0326  -18.4854   25.3795 N   0  0  0  0  0  0  0  0  0  0  0  0
    6.9346  -19.0779   26.1795 C   0  0  0  0  0  0  0  0  0  0  0  0
    8.1175  -19.1255   25.5138 N   0  0  0  0  0  0  0  0  0  0  0  0
    9.4043  -16.0915   24.0390 C   0  0  0  0  0  0  0  0  0  0  0  0
   10.5838  -15.8622   24.4048 O   0  0  0  0  0  0  0  0  0  0  0  0
    5.7996  -12.2101   25.4888 C   0  0  0  0  0  0  0  0  0  0  0  0
    7.1208  -12.9201   25.1828 C   0  0  0  0  0  0  0  0  0  0  0  0
    7.4876  -13.8288   26.3186 C   0  0  2  0  0  0  0  0  0  0  0  0
    7.7763  -12.9317   27.5129 C   0  0  0  0  0  0  0  0  0  0  0  0
    8.6482  -14.6886   25.9602 C   0  0  2  0  0  0  0  0  0  0  0  0
    8.3407  -15.5000   24.7757 N   0  0  0  0  0  0  0  0  0  0  0  0
    9.0099  -15.6167   27.0362 C   0  0  0  0  0  0  0  0  0  0  0  0
    8.3833  -16.7254   27.1514 O   0  0  0  0  0  0  0  0  0  0  0  0
   10.0216  -15.3253   27.9359 O   0  0  0  0  0  0  0  0  0  0  0  0
  2  1  1  6
  2  3  1  0
  2  6  1  0
  3  4  1  0
  4  8  1  0
  4  5  2  0
  6  9  1  0
  7  6  2  0
  9 10  1  0
 10 11  1  1
 11 12  1  0
 12 16  1  0
 12 13  2  0
 13 14  1  0
 15 14  1  0
 16 15  2  0
 17 10  1  0
 17 24  1  0
 18 17  2  0
 19 20  1  0
 20 21  1  0
 21 23  1  0
 21 22  1  1
 23 24  1  6
 23 25  1  0
 25 26  2  0
 25 27  1  0
M  END
$$$$
