DWG.pdb
     RDKit          3D

 27 28  0  0  1  0  0  0  0  0999 V2000
   21.7985   -9.3141  -15.6260 N   0  0  0  0  0  0  0  0  0  0  0  0
   20.6332   -8.4763  -15.5329 C   0  0  1  0  0  0  0  0  0  0  0  0
   20.6282   -7.7741  -14.1770 C   0  0  0  0  0  0  0  0  0  0  0  0
   20.4658   -8.7721  -13.1171 C   0  0  0  0  0  0  0  0  0  0  0  0
   20.4324  -10.0017  -13.4041 O   0  0  0  0  0  0  0  0  0  0  0  0
   20.6657   -7.4038  -16.6111 C   0  0  0  0  0  0  0  0  0  0  0  0
   21.7673   -6.9393  -16.9330 O   0  0  0  0  0  0  0  0  0  0  0  0
   20.3424   -8.4732  -11.7718 O   0  0  0  0  0  0  0  0  0  0  0  0
   19.4728   -6.9767  -17.1997 N   0  0  0  0  0  0  0  0  0  0  0  0
   19.2673   -5.9852  -18.2091 C   0  0  1  0  0  0  0  0  0  0  0  0
   18.3232   -6.4920  -19.2992 C   0  0  0  0  0  0  0  0  0  0  0  0
   18.8547   -7.5672  -20.1383 C   0  0  0  0  0  0  0  0  0  0  0  0
   19.3861   -8.7922  -19.8565 C   0  0  0  0  0  0  0  0  0  0  0  0
   19.6825   -9.4445  -21.0121 N   0  0  0  0  0  0  0  0  0  0  0  0
   19.3375   -8.6329  -22.0268 C   0  0  0  0  0  0  0  0  0  0  0  0
   19.4162   -8.8328  -23.4123 C   0  0  0  0  0  0  0  0  0  0  0  0
   18.9833   -7.8701  -24.3063 C   0  0  0  0  0  0  0  0  0  0  0  0
   18.4631   -6.6866  -23.7938 C   0  0  0  0  0  0  0  0  0  0  0  0
   18.3979   -6.5150  -22.4281 C   0  0  0  0  0  0  0  0  0  0  0  0
   18.8232   -7.4637  -21.5313 C   0  0  0  0  0  0  0  0  0  0  0  0
   18.8172   -4.7424  -17.6172 C   0  0  0  0  0  0  0  0  0  0  0  0
   17.6924   -4.5243  -17.0765 O   0  0  0  0  0  0  0  0  0  0  0  0
   19.6841   -3.5795  -17.5927 N   0  0  0  0  0  0  0  0  0  0  0  0
   19.1600   -2.3503  -16.9920 C   0  0  0  0  0  0  0  0  0  0  0  0
   20.1437   -1.2801  -17.2948 C   0  0  0  0  0  0  0  0  0  0  0  0
   21.2446   -1.5131  -17.8686 O   0  0  0  0  0  0  0  0  0  0  0  0
   19.9305    0.0692  -16.9697 O   0  0  0  0  0  0  0  0  0  0  0  0
  2  1  1  1
  2  3  1  0
  3  4  1  0
  4  8  1  0
  5  4  2  0
  6  2  1  0
  7  6  2  0
  9  6  1  0
 10  9  1  0
 10 11  1  6
 11 12  1  0
 12 20  1  0
 13 12  2  0
 13 14  1  0
 14 15  1  0
 15 16  2  0
 16 17  1  0
 18 17  2  0
 19 18  1  0
 20 19  2  0
 20 15  1  0
 21 23  1  0
 21 10  1  0
 22 21  2  0
 24 23  1  0
 25 24  1  0
 25 27  1  0
 26 25  2  0
M  END
$$$$
