DWG.pdb
     RDKit          3D

 27 28  0  0  1  0  0  0  0  0999 V2000
   26.8525  -22.9900  -15.1037 N   0  0  0  0  0  0  0  0  0  0  0  0
   25.9491  -21.9185  -14.7812 C   0  0  1  0  0  0  0  0  0  0  0  0
   24.6898  -22.0512  -15.6346 C   0  0  0  0  0  0  0  0  0  0  0  0
   24.9245  -21.4319  -16.9411 C   0  0  0  0  0  0  0  0  0  0  0  0
   24.3755  -21.9061  -17.9751 O   0  0  0  0  0  0  0  0  0  0  0  0
   25.5312  -22.0008  -13.3209 C   0  0  0  0  0  0  0  0  0  0  0  0
   25.0168  -23.0548  -12.9243 O   0  0  0  0  0  0  0  0  0  0  0  0
   25.7276  -20.3249  -17.1505 O   0  0  0  0  0  0  0  0  0  0  0  0
   25.7336  -20.9041  -12.4794 N   0  0  0  0  0  0  0  0  0  0  0  0
   25.3700  -20.7390  -11.1066 C   0  0  1  0  0  0  0  0  0  0  0  0
   26.2802  -19.7274  -10.4104 C   0  0  0  0  0  0  0  0  0  0  0  0
   27.5113  -20.2793   -9.8424 C   0  0  0  0  0  0  0  0  0  0  0  0
   28.5352  -21.0100  -10.3716 C   0  0  0  0  0  0  0  0  0  0  0  0
   29.4856  -21.2280   -9.4241 N   0  0  0  0  0  0  0  0  0  0  0  0
   29.0643  -20.6339   -8.2940 C   0  0  0  0  0  0  0  0  0  0  0  0
   29.6778  -20.5432   -7.0366 C   0  0  0  0  0  0  0  0  0  0  0  0
   29.0838  -19.8590   -5.9913 C   0  0  0  0  0  0  0  0  0  0  0  0
   27.8510  -19.2571   -6.2186 C   0  0  0  0  0  0  0  0  0  0  0  0
   27.2693  -19.3621   -7.4634 C   0  0  0  0  0  0  0  0  0  0  0  0
   27.8498  -20.0373   -8.5085 C   0  0  0  0  0  0  0  0  0  0  0  0
   23.9673  -20.3980  -10.9894 C   0  0  0  0  0  0  0  0  0  0  0  0
   23.3831  -19.4031  -11.5130 O   0  0  0  0  0  0  0  0  0  0  0  0
   23.0666  -21.2321  -10.2165 N   0  0  0  0  0  0  0  0  0  0  0  0
   21.6875  -20.7690  -10.0433 C   0  0  0  0  0  0  0  0  0  0  0  0
   21.0039  -20.9838  -11.3438 C   0  0  0  0  0  0  0  0  0  0  0  0
   20.6816  -22.1322  -11.7592 O   0  0  0  0  0  0  0  0  0  0  0  0
   20.6627  -19.9337  -12.2113 O   0  0  0  0  0  0  0  0  0  0  0  0
  2  1  1  6
  2  3  1  0
  3  4  1  0
  4  8  1  0
  5  4  2  0
  6  2  1  0
  7  6  2  0
  9  6  1  0
 10  9  1  0
 10 11  1  6
 11 12  1  0
 12 20  1  0
 13 12  2  0
 13 14  1  0
 14 15  1  0
 15 16  2  0
 16 17  1  0
 18 17  2  0
 19 18  1  0
 20 19  2  0
 20 15  1  0
 21 23  1  0
 21 10  1  0
 22 21  2  0
 24 23  1  0
 25 24  1  0
 25 27  1  0
 26 25  2  0
M  END
$$$$
