DWG.pdb
     RDKit          3D

 27 28  0  0  1  0  0  0  0  0999 V2000
   21.7608  -21.6431  -14.8727 N   0  0  0  0  0  0  0  0  0  0  0  0
   20.9898  -22.6187  -15.5952 C   0  0  1  0  0  0  0  0  0  0  0  0
   20.1517  -21.9091  -16.6562 C   0  0  0  0  0  0  0  0  0  0  0  0
   18.9443  -21.3628  -16.0320 C   0  0  0  0  0  0  0  0  0  0  0  0
   18.8103  -21.3944  -14.7764 O   0  0  0  0  0  0  0  0  0  0  0  0
   21.9103  -23.5972  -16.3085 C   0  0  0  0  0  0  0  0  0  0  0  0
   22.2752  -23.3164  -17.4578 O   0  0  0  0  0  0  0  0  0  0  0  0
   17.8941  -20.7893  -16.7266 O   0  0  0  0  0  0  0  0  0  0  0  0
   22.3127  -24.7679  -15.6608 N   0  0  0  0  0  0  0  0  0  0  0  0
   23.2639  -25.7504  -16.0781 C   0  0  1  0  0  0  0  0  0  0  0  0
   24.4803  -25.7717  -15.1526 C   0  0  0  0  0  0  0  0  0  0  0  0
   25.5712  -24.8720  -15.5308 C   0  0  0  0  0  0  0  0  0  0  0  0
   25.6956  -23.5130  -15.5431 C   0  0  0  0  0  0  0  0  0  0  0  0
   26.9516  -23.1672  -15.9326 N   0  0  0  0  0  0  0  0  0  0  0  0
   27.6239  -24.3078  -16.1660 C   0  0  0  0  0  0  0  0  0  0  0  0
   28.9521  -24.5093  -16.5672 C   0  0  0  0  0  0  0  0  0  0  0  0
   29.4705  -25.7808  -16.7347 C   0  0  0  0  0  0  0  0  0  0  0  0
   28.6351  -26.8661  -16.4939 C   0  0  0  0  0  0  0  0  0  0  0  0
   27.3336  -26.6404  -16.1014 C   0  0  0  0  0  0  0  0  0  0  0  0
   26.8084  -25.3833  -15.9307 C   0  0  0  0  0  0  0  0  0  0  0  0
   22.6341  -27.0490  -16.1989 C   0  0  0  0  0  0  0  0  0  0  0  0
   21.7682  -27.5466  -15.4193 O   0  0  0  0  0  0  0  0  0  0  0  0
   22.9672  -27.9317  -17.3009 N   0  0  0  0  0  0  0  0  0  0  0  0
   22.2797  -29.2235  -17.3722 C   0  0  0  0  0  0  0  0  0  0  0  0
   23.3103  -30.2639  -17.1268 C   0  0  0  0  0  0  0  0  0  0  0  0
   23.8448  -30.4357  -15.9953 O   0  0  0  0  0  0  0  0  0  0  0  0
   23.7707  -31.1354  -18.1269 O   0  0  0  0  0  0  0  0  0  0  0  0
  2  1  1  6
  2  3  1  0
  3  4  1  0
  4  8  1  0
  5  4  2  0
  6  2  1  0
  7  6  2  0
  9  6  1  0
 10  9  1  0
 10 11  1  1
 11 12  1  0
 12 20  1  0
 13 12  2  0
 13 14  1  0
 14 15  1  0
 15 16  2  0
 16 17  1  0
 18 17  2  0
 19 18  1  0
 20 19  2  0
 20 15  1  0
 21 23  1  0
 21 10  1  0
 22 21  2  0
 24 23  1  0
 25 24  1  0
 25 27  1  0
 26 25  2  0
M  END
$$$$
