DWG.pdb
     RDKit          3D

 27 28  0  0  1  0  0  0  0  0999 V2000
   24.1741  -28.0918  -16.3140 N   0  0  0  0  0  0  0  0  0  0  0  0
   23.8400  -29.4760  -16.1123 C   0  0  1  0  0  0  0  0  0  0  0  0
   25.1162  -30.3126  -16.1676 C   0  0  0  0  0  0  0  0  0  0  0  0
   25.6483  -30.2918  -17.5323 C   0  0  0  0  0  0  0  0  0  0  0  0
   24.8718  -30.1151  -18.5127 O   0  0  0  0  0  0  0  0  0  0  0  0
   23.2139  -29.6743  -14.7403 C   0  0  0  0  0  0  0  0  0  0  0  0
   23.6813  -29.0301  -13.7919 O   0  0  0  0  0  0  0  0  0  0  0  0
   26.9839  -30.4540  -17.8550 O   0  0  0  0  0  0  0  0  0  0  0  0
   22.1471  -30.5633  -14.5874 N   0  0  0  0  0  0  0  0  0  0  0  0
   21.3684  -30.8489  -13.4228 C   0  0  1  0  0  0  0  0  0  0  0  0
   20.0576  -30.0626  -13.4265 C   0  0  0  0  0  0  0  0  0  0  0  0
   20.1896  -28.6233  -13.1953 C   0  0  0  0  0  0  0  0  0  0  0  0
   20.8038  -27.8889  -12.2227 C   0  0  0  0  0  0  0  0  0  0  0  0
   20.6827  -26.5630  -12.4987 N   0  0  0  0  0  0  0  0  0  0  0  0
   19.9925  -26.4572  -13.6476 C   0  0  0  0  0  0  0  0  0  0  0  0
   19.6158  -25.3197  -14.3754 C   0  0  0  0  0  0  0  0  0  0  0  0
   18.9163  -25.4223  -15.5643 C   0  0  0  0  0  0  0  0  0  0  0  0
   18.5914  -26.6933  -16.0259 C   0  0  0  0  0  0  0  0  0  0  0  0
   18.9728  -27.7948  -15.2909 C   0  0  0  0  0  0  0  0  0  0  0  0
   19.6682  -27.7053  -14.1105 C   0  0  0  0  0  0  0  0  0  0  0  0
   21.1607  -32.2758  -13.2872 C   0  0  0  0  0  0  0  0  0  0  0  0
   20.5326  -33.0296  -14.0887 O   0  0  0  0  0  0  0  0  0  0  0  0
   21.6999  -32.9957  -12.1490 N   0  0  0  0  0  0  0  0  0  0  0  0
   21.4055  -34.4272  -12.0453 C   0  0  0  0  0  0  0  0  0  0  0  0
   22.0108  -34.8911  -10.7713 C   0  0  0  0  0  0  0  0  0  0  0  0
   22.6048  -34.1082   -9.9777 O   0  0  0  0  0  0  0  0  0  0  0  0
   21.9717  -36.2296  -10.3486 O   0  0  0  0  0  0  0  0  0  0  0  0
  2  1  1  1
  2  3  1  0
  3  4  1  0
  4  8  1  0
  5  4  2  0
  6  2  1  0
  7  6  2  0
  9  6  1  0
 10  9  1  0
 10 11  1  6
 11 12  1  0
 12 20  1  0
 13 12  2  0
 13 14  1  0
 14 15  1  0
 15 16  2  0
 16 17  1  0
 18 17  2  0
 19 18  1  0
 20 19  2  0
 20 15  1  0
 21 23  1  0
 21 10  1  0
 22 21  2  0
 24 23  1  0
 25 24  1  0
 25 27  1  0
 26 25  2  0
M  END
$$$$
