DWG.pdb
     RDKit          3D

 27 28  0  0  1  0  0  0  0  0999 V2000
   27.9081  -21.2214  -13.9004 N   0  0  0  0  0  0  0  0  0  0  0  0
   26.7956  -20.4947  -13.3504 C   0  0  1  0  0  0  0  0  0  0  0  0
   25.6757  -20.4338  -14.3867 C   0  0  0  0  0  0  0  0  0  0  0  0
   26.0982  -19.5872  -15.5050 C   0  0  0  0  0  0  0  0  0  0  0  0
   26.4777  -20.1124  -16.5893 O   0  0  0  0  0  0  0  0  0  0  0  0
   26.2529  -21.2088  -12.1219 C   0  0  0  0  0  0  0  0  0  0  0  0
   26.2266  -22.4465  -12.1359 O   0  0  0  0  0  0  0  0  0  0  0  0
   26.1173  -18.2041  -15.4771 O   0  0  0  0  0  0  0  0  0  0  0  0
   25.8049  -20.4633  -11.0286 N   0  0  0  0  0  0  0  0  0  0  0  0
   25.2555  -20.9174   -9.7891 C   0  0  1  0  0  0  0  0  0  0  0  0
   25.8302  -20.1346   -8.6087 C   0  0  0  0  0  0  0  0  0  0  0  0
   27.1975  -20.4912   -8.2265 C   0  0  0  0  0  0  0  0  0  0  0  0
   28.1760  -21.2186   -8.8395 C   0  0  0  0  0  0  0  0  0  0  0  0
   29.3047  -21.2063   -8.0815 N   0  0  0  0  0  0  0  0  0  0  0  0
   29.0416  -20.4697   -6.9880 C   0  0  0  0  0  0  0  0  0  0  0  0
   29.8664  -20.1288   -5.9067 C   0  0  0  0  0  0  0  0  0  0  0  0
   29.4092  -19.3305   -4.8737 C   0  0  0  0  0  0  0  0  0  0  0  0
   28.0986  -18.8692   -4.9328 C   0  0  0  0  0  0  0  0  0  0  0  0
   27.3088  -19.2196   -6.0062 C   0  0  0  0  0  0  0  0  0  0  0  0
   27.7519  -20.0101   -7.0377 C   0  0  0  0  0  0  0  0  0  0  0  0
   23.8083  -20.8793   -9.8300 C   0  0  0  0  0  0  0  0  0  0  0  0
   23.0331  -20.5185   -8.8950 O   0  0  0  0  0  0  0  0  0  0  0  0
   23.0927  -21.2721  -11.0292 N   0  0  0  0  0  0  0  0  0  0  0  0
   21.6371  -21.4121  -10.9402 C   0  0  0  0  0  0  0  0  0  0  0  0
   21.0569  -20.2856  -11.7142 C   0  0  0  0  0  0  0  0  0  0  0  0
   21.7677  -19.4894  -12.3897 O   0  0  0  0  0  0  0  0  0  0  0  0
   19.6794  -20.0166  -11.7575 O   0  0  0  0  0  0  0  0  0  0  0  0
  2  1  1  6
  2  3  1  0
  3  4  1  0
  4  8  1  0
  5  4  2  0
  6  2  1  0
  7  6  2  0
  9  6  1  0
 10  9  1  0
 10 11  1  1
 11 12  1  0
 12 20  1  0
 13 12  2  0
 13 14  1  0
 14 15  1  0
 15 16  2  0
 16 17  1  0
 18 17  2  0
 19 18  1  0
 20 19  2  0
 20 15  1  0
 21 23  1  0
 21 10  1  0
 22 21  2  0
 24 23  1  0
 25 24  1  0
 25 27  1  0
 26 25  2  0
M  END
$$$$
