DWG.pdb
     RDKit          3D

 27 28  0  0  1  0  0  0  0  0999 V2000
   28.1054  -17.7452  -14.4022 N   0  0  0  0  0  0  0  0  0  0  0  0
   26.8191  -18.2369  -13.9875 C   0  0  1  0  0  0  0  0  0  0  0  0
   25.8667  -18.2168  -15.1810 C   0  0  0  0  0  0  0  0  0  0  0  0
   25.6851  -16.8346  -15.6306 C   0  0  0  0  0  0  0  0  0  0  0  0
   25.5982  -15.8996  -14.7858 O   0  0  0  0  0  0  0  0  0  0  0  0
   26.9326  -19.6760  -13.5082 C   0  0  0  0  0  0  0  0  0  0  0  0
   27.8887  -20.3486  -13.9162 O   0  0  0  0  0  0  0  0  0  0  0  0
   25.5986  -16.4467  -16.9559 O   0  0  0  0  0  0  0  0  0  0  0  0
   25.9717  -20.1937  -12.6361 N   0  0  0  0  0  0  0  0  0  0  0  0
   25.7981  -21.5364  -12.1765 C   0  0  1  0  0  0  0  0  0  0  0  0
   25.4419  -21.5714  -10.6905 C   0  0  0  0  0  0  0  0  0  0  0  0
   26.1513  -20.6028   -9.8531 C   0  0  0  0  0  0  0  0  0  0  0  0
   25.7390  -19.5310   -9.1158 C   0  0  0  0  0  0  0  0  0  0  0  0
   26.7990  -18.9832   -8.4637 N   0  0  0  0  0  0  0  0  0  0  0  0
   27.8834  -19.7092   -8.7869 C   0  0  0  0  0  0  0  0  0  0  0  0
   29.2160  -19.5793   -8.3712 C   0  0  0  0  0  0  0  0  0  0  0  0
   30.1963  -20.4528   -8.8064 C   0  0  0  0  0  0  0  0  0  0  0  0
   29.8258  -21.4735   -9.6753 C   0  0  0  0  0  0  0  0  0  0  0  0
   28.5095  -21.5782  -10.0691 C   0  0  0  0  0  0  0  0  0  0  0  0
   27.5278  -20.7181   -9.6429 C   0  0  0  0  0  0  0  0  0  0  0  0
   24.8297  -22.2337  -12.9972 C   0  0  0  0  0  0  0  0  0  0  0  0
   23.5957  -21.9674  -13.1045 O   0  0  0  0  0  0  0  0  0  0  0  0
   25.2318  -23.3608  -13.8173 N   0  0  0  0  0  0  0  0  0  0  0  0
   24.1945  -24.0436  -14.5946 C   0  0  0  0  0  0  0  0  0  0  0  0
   24.8687  -25.1533  -15.3147 C   0  0  0  0  0  0  0  0  0  0  0  0
   26.1104  -25.3660  -15.2232 O   0  0  0  0  0  0  0  0  0  0  0  0
   24.1841  -26.0505  -16.1503 O   0  0  0  0  0  0  0  0  0  0  0  0
  2  1  1  6
  2  3  1  0
  3  4  1  0
  4  8  1  0
  5  4  2  0
  6  2  1  0
  7  6  2  0
  9  6  1  0
 10  9  1  0
 10 11  1  1
 11 12  1  0
 12 20  1  0
 13 12  2  0
 13 14  1  0
 14 15  1  0
 15 16  2  0
 16 17  1  0
 18 17  2  0
 19 18  1  0
 20 19  2  0
 20 15  1  0
 21 23  1  0
 21 10  1  0
 22 21  2  0
 24 23  1  0
 25 24  1  0
 25 27  1  0
 26 25  2  0
M  END
$$$$
