DWG.pdb
     RDKit          3D

 27 28  0  0  1  0  0  0  0  0999 V2000
   28.3897  -21.7589  -14.6426 N   0  0  0  0  0  0  0  0  0  0  0  0
   27.6943  -20.6551  -14.0373 C   0  0  1  0  0  0  0  0  0  0  0  0
   26.7170  -20.0628  -15.0502 C   0  0  0  0  0  0  0  0  0  0  0  0
   27.3514  -18.9292  -15.7273 C   0  0  0  0  0  0  0  0  0  0  0  0
   27.5831  -17.8615  -15.0936 O   0  0  0  0  0  0  0  0  0  0  0  0
   26.8885  -21.1314  -12.8384 C   0  0  0  0  0  0  0  0  0  0  0  0
   26.0630  -22.0364  -13.0179 O   0  0  0  0  0  0  0  0  0  0  0  0
   27.7369  -18.9262  -17.0561 O   0  0  0  0  0  0  0  0  0  0  0  0
   27.0957  -20.5451  -11.5872 N   0  0  0  0  0  0  0  0  0  0  0  0
   26.4737  -20.8439  -10.3350 C   0  0  1  0  0  0  0  0  0  0  0  0
   27.4028  -20.5226   -9.1645 C   0  0  0  0  0  0  0  0  0  0  0  0
   26.7945  -20.6199   -7.8367 C   0  0  0  0  0  0  0  0  0  0  0  0
   25.6181  -21.1461   -7.3876 C   0  0  0  0  0  0  0  0  0  0  0  0
   25.5477  -21.0329   -6.0345 N   0  0  0  0  0  0  0  0  0  0  0  0
   26.6807  -20.4358   -5.6257 C   0  0  0  0  0  0  0  0  0  0  0  0
   27.1145  -20.1062   -4.3339 C   0  0  0  0  0  0  0  0  0  0  0  0
   28.3412  -19.5052   -4.1158 C   0  0  0  0  0  0  0  0  0  0  0  0
   29.1427  -19.2324   -5.2190 C   0  0  0  0  0  0  0  0  0  0  0  0
   28.6922  -19.5657   -6.4779 C   0  0  0  0  0  0  0  0  0  0  0  0
   27.4775  -20.1634   -6.7065 C   0  0  0  0  0  0  0  0  0  0  0  0
   25.1943  -20.1735  -10.2298 C   0  0  0  0  0  0  0  0  0  0  0  0
   24.9875  -18.9979   -9.8050 O   0  0  0  0  0  0  0  0  0  0  0  0
   23.9738  -20.8432  -10.6378 N   0  0  0  0  0  0  0  0  0  0  0  0
   22.7190  -20.0933  -10.5412 C   0  0  0  0  0  0  0  0  0  0  0  0
   21.6450  -21.0061  -11.0081 C   0  0  0  0  0  0  0  0  0  0  0  0
   21.8862  -22.1550  -11.4742 O   0  0  0  0  0  0  0  0  0  0  0  0
   20.2828  -20.6676  -10.9692 O   0  0  0  0  0  0  0  0  0  0  0  0
  2  1  1  6
  2  3  1  0
  3  4  1  0
  4  8  1  0
  5  4  2  0
  6  2  1  0
  7  6  2  0
  9  6  1  0
 10  9  1  0
 10 11  1  1
 11 12  1  0
 12 20  1  0
 13 12  2  0
 13 14  1  0
 14 15  1  0
 15 16  2  0
 16 17  1  0
 18 17  2  0
 19 18  1  0
 20 19  2  0
 20 15  1  0
 21 23  1  0
 21 10  1  0
 22 21  2  0
 24 23  1  0
 25 24  1  0
 25 27  1  0
 26 25  2  0
M  END
$$$$
