DWG.pdb
     RDKit          3D

 27 28  0  0  1  0  0  0  0  0999 V2000
   27.8912  -21.6107  -13.5289 N   0  0  0  0  0  0  0  0  0  0  0  0
   26.8680  -20.7094  -13.0718 C   0  0  1  0  0  0  0  0  0  0  0  0
   25.7803  -20.6041  -14.1384 C   0  0  0  0  0  0  0  0  0  0  0  0
   26.3104  -19.8846  -15.2991 C   0  0  0  0  0  0  0  0  0  0  0  0
   27.0702  -18.8890  -15.1348 O   0  0  0  0  0  0  0  0  0  0  0  0
   26.2226  -21.2426  -11.8017 C   0  0  0  0  0  0  0  0  0  0  0  0
   25.8588  -22.4259  -11.7898 O   0  0  0  0  0  0  0  0  0  0  0  0
   26.0420  -20.2152  -16.6155 O   0  0  0  0  0  0  0  0  0  0  0  0
   26.0587  -20.3983  -10.7007 N   0  0  0  0  0  0  0  0  0  0  0  0
   25.4527  -20.6712   -9.4348 C   0  0  1  0  0  0  0  0  0  0  0  0
   26.1461  -19.9008   -8.3113 C   0  0  0  0  0  0  0  0  0  0  0  0
   27.4712  -20.3970   -7.9365 C   0  0  0  0  0  0  0  0  0  0  0  0
   28.4182  -21.1189   -8.6032 C   0  0  0  0  0  0  0  0  0  0  0  0
   29.5178  -21.2750   -7.8188 N   0  0  0  0  0  0  0  0  0  0  0  0
   29.2680  -20.6504   -6.6548 C   0  0  0  0  0  0  0  0  0  0  0  0
   30.0759  -20.4956   -5.5195 C   0  0  0  0  0  0  0  0  0  0  0  0
   29.6389  -19.7890   -4.4135 C   0  0  0  0  0  0  0  0  0  0  0  0
   28.3662  -19.2300   -4.4538 C   0  0  0  0  0  0  0  0  0  0  0  0
   27.5922  -19.3978   -5.5815 C   0  0  0  0  0  0  0  0  0  0  0  0
   28.0156  -20.0958   -6.6854 C   0  0  0  0  0  0  0  0  0  0  0  0
   24.0281  -20.4159   -9.4874 C   0  0  0  0  0  0  0  0  0  0  0  0
   23.4653  -19.3117   -9.7509 O   0  0  0  0  0  0  0  0  0  0  0  0
   23.0770  -21.4809   -9.2311 N   0  0  0  0  0  0  0  0  0  0  0  0
   21.6507  -21.1529   -9.2987 C   0  0  0  0  0  0  0  0  0  0  0  0
   21.3080  -21.0558  -10.7401 C   0  0  0  0  0  0  0  0  0  0  0  0
   21.9081  -21.7260  -11.6268 O   0  0  0  0  0  0  0  0  0  0  0  0
   20.2951  -20.2161  -11.2307 O   0  0  0  0  0  0  0  0  0  0  0  0
  2  1  1  6
  2  3  1  0
  3  4  1  0
  4  8  1  0
  5  4  2  0
  6  2  1  0
  7  6  2  0
  9  6  1  0
 10  9  1  0
 10 11  1  1
 11 12  1  0
 12 20  1  0
 13 12  2  0
 13 14  1  0
 14 15  1  0
 15 16  2  0
 16 17  1  0
 18 17  2  0
 19 18  1  0
 20 19  2  0
 20 15  1  0
 21 23  1  0
 21 10  1  0
 22 21  2  0
 24 23  1  0
 25 24  1  0
 25 27  1  0
 26 25  2  0
M  END
$$$$
