DWG.pdb
     RDKit          3D

 27 28  0  0  1  0  0  0  0  0999 V2000
   27.8360  -21.7756  -15.5260 N   0  0  0  0  0  0  0  0  0  0  0  0
   26.8159  -20.8741  -15.0622 C   0  0  1  0  0  0  0  0  0  0  0  0
   25.7913  -20.6623  -16.1744 C   0  0  0  0  0  0  0  0  0  0  0  0
   26.4184  -19.9262  -17.2748 C   0  0  0  0  0  0  0  0  0  0  0  0
   25.8876  -19.9263  -18.4210 O   0  0  0  0  0  0  0  0  0  0  0  0
   26.0874  -21.4699  -13.8672 C   0  0  0  0  0  0  0  0  0  0  0  0
   25.7401  -22.6564  -13.9332 O   0  0  0  0  0  0  0  0  0  0  0  0
   27.5899  -19.1986  -17.1635 O   0  0  0  0  0  0  0  0  0  0  0  0
   25.8322  -20.6770  -12.7455 N   0  0  0  0  0  0  0  0  0  0  0  0
   25.1519  -21.0163  -11.5346 C   0  0  1  0  0  0  0  0  0  0  0  0
   25.7770  -20.3103  -10.3316 C   0  0  0  0  0  0  0  0  0  0  0  0
   27.0974  -20.8010   -9.9336 C   0  0  0  0  0  0  0  0  0  0  0  0
   28.0665  -21.5030  -10.5895 C   0  0  0  0  0  0  0  0  0  0  0  0
   29.1486  -21.6626   -9.7818 N   0  0  0  0  0  0  0  0  0  0  0  0
   28.8654  -21.0602   -8.6137 C   0  0  0  0  0  0  0  0  0  0  0  0
   29.6447  -20.9175   -7.4570 C   0  0  0  0  0  0  0  0  0  0  0  0
   29.1751  -20.2337   -6.3501 C   0  0  0  0  0  0  0  0  0  0  0  0
   27.8985  -19.6854   -6.4115 C   0  0  0  0  0  0  0  0  0  0  0  0
   27.1531  -19.8409   -7.5599 C   0  0  0  0  0  0  0  0  0  0  0  0
   27.6090  -20.5162   -8.6650 C   0  0  0  0  0  0  0  0  0  0  0  0
   23.7329  -20.7542  -11.6579 C   0  0  0  0  0  0  0  0  0  0  0  0
   23.1861  -19.6337  -11.8833 O   0  0  0  0  0  0  0  0  0  0  0  0
   22.7691  -21.8309  -11.5303 N   0  0  0  0  0  0  0  0  0  0  0  0
   21.3504  -21.4721  -11.4607 C   0  0  0  0  0  0  0  0  0  0  0  0
   20.7968  -21.6742  -12.8236 C   0  0  0  0  0  0  0  0  0  0  0  0
   21.5081  -22.0561  -13.7950 O   0  0  0  0  0  0  0  0  0  0  0  0
   19.4459  -21.4585  -13.1403 O   0  0  0  0  0  0  0  0  0  0  0  0
  2  1  1  6
  2  3  1  0
  3  4  1  0
  4  8  1  0
  5  4  2  0
  6  2  1  0
  7  6  2  0
  9  6  1  0
 10  9  1  0
 10 11  1  1
 11 12  1  0
 12 20  1  0
 13 12  2  0
 13 14  1  0
 14 15  1  0
 15 16  2  0
 16 17  1  0
 18 17  2  0
 19 18  1  0
 20 19  2  0
 20 15  1  0
 21 23  1  0
 21 10  1  0
 22 21  2  0
 24 23  1  0
 25 24  1  0
 25 27  1  0
 26 25  2  0
M  END
$$$$
