DWG.pdb
     RDKit          3D

 27 28  0  0  1  0  0  0  0  0999 V2000
   28.5054  -21.8253  -15.1913 N   0  0  0  0  0  0  0  0  0  0  0  0
   27.2214  -21.1781  -15.1598 C   0  0  1  0  0  0  0  0  0  0  0  0
   26.4545  -21.5247  -16.4339 C   0  0  0  0  0  0  0  0  0  0  0  0
   27.0997  -20.8753  -17.5775 C   0  0  0  0  0  0  0  0  0  0  0  0
   27.6181  -19.7309  -17.4470 O   0  0  0  0  0  0  0  0  0  0  0  0
   26.4063  -21.6780  -13.9768 C   0  0  0  0  0  0  0  0  0  0  0  0
   26.0569  -22.8657  -13.9747 O   0  0  0  0  0  0  0  0  0  0  0  0
   27.1967  -21.4300  -18.8414 O   0  0  0  0  0  0  0  0  0  0  0  0
   26.0774  -20.7995  -12.9414 N   0  0  0  0  0  0  0  0  0  0  0  0
   25.2912  -21.0362  -11.7709 C   0  0  1  0  0  0  0  0  0  0  0  0
   25.8882  -20.3341  -10.5514 C   0  0  0  0  0  0  0  0  0  0  0  0
   27.1707  -20.8661  -10.0876 C   0  0  0  0  0  0  0  0  0  0  0  0
   28.1394  -21.6166  -10.6882 C   0  0  0  0  0  0  0  0  0  0  0  0
   29.1790  -21.8008   -9.8315 N   0  0  0  0  0  0  0  0  0  0  0  0
   28.8695  -21.1656   -8.6878 C   0  0  0  0  0  0  0  0  0  0  0  0
   29.6035  -21.0297   -7.5010 C   0  0  0  0  0  0  0  0  0  0  0  0
   29.1134  -20.3073   -6.4279 C   0  0  0  0  0  0  0  0  0  0  0  0
   27.8626  -19.7129   -6.5545 C   0  0  0  0  0  0  0  0  0  0  0  0
   27.1615  -19.8627   -7.7313 C   0  0  0  0  0  0  0  0  0  0  0  0
   27.6381  -20.5761   -8.8033 C   0  0  0  0  0  0  0  0  0  0  0  0
   23.9097  -20.6686  -12.0033 C   0  0  0  0  0  0  0  0  0  0  0  0
   23.4864  -19.5705  -12.4725 O   0  0  0  0  0  0  0  0  0  0  0  0
   22.8374  -21.5979  -11.7012 N   0  0  0  0  0  0  0  0  0  0  0  0
   21.4615  -21.1008  -11.7795 C   0  0  0  0  0  0  0  0  0  0  0  0
   20.8298  -21.7881  -12.9341 C   0  0  0  0  0  0  0  0  0  0  0  0
   21.4880  -22.1572  -13.9469 O   0  0  0  0  0  0  0  0  0  0  0  0
   19.4578  -22.0814  -12.9926 O   0  0  0  0  0  0  0  0  0  0  0  0
  2  1  1  6
  2  3  1  0
  3  4  1  0
  4  8  1  0
  5  4  2  0
  6  2  1  0
  7  6  2  0
  9  6  1  0
 10  9  1  0
 10 11  1  1
 11 12  1  0
 12 20  1  0
 13 12  2  0
 13 14  1  0
 14 15  1  0
 15 16  2  0
 16 17  1  0
 18 17  2  0
 19 18  1  0
 20 19  2  0
 20 15  1  0
 21 23  1  0
 21 10  1  0
 22 21  2  0
 24 23  1  0
 25 24  1  0
 25 27  1  0
 26 25  2  0
M  END
$$$$
