DWG.pdb
     RDKit          3D

 27 28  0  0  1  0  0  0  0  0999 V2000
   28.5465  -21.0630  -13.8494 N   0  0  0  0  0  0  0  0  0  0  0  0
   27.6526  -20.1299  -13.2181 C   0  0  1  0  0  0  0  0  0  0  0  0
   26.7055  -19.5545  -14.2685 C   0  0  0  0  0  0  0  0  0  0  0  0
   27.4497  -18.6452  -15.1433 C   0  0  0  0  0  0  0  0  0  0  0  0
   27.7799  -19.0129  -16.3058 O   0  0  0  0  0  0  0  0  0  0  0  0
   26.8080  -20.8349  -12.1677 C   0  0  0  0  0  0  0  0  0  0  0  0
   26.4349  -21.9912  -12.4052 O   0  0  0  0  0  0  0  0  0  0  0  0
   27.8375  -17.3640  -14.7937 O   0  0  0  0  0  0  0  0  0  0  0  0
   26.4793  -20.1711  -10.9831 N   0  0  0  0  0  0  0  0  0  0  0  0
   25.7317  -20.6437   -9.8597 C   0  0  1  0  0  0  0  0  0  0  0  0
   26.2184  -20.0016   -8.5607 C   0  0  0  0  0  0  0  0  0  0  0  0
   27.5358  -20.4424   -8.0991 C   0  0  0  0  0  0  0  0  0  0  0  0
   28.5422  -21.1480   -8.6922 C   0  0  0  0  0  0  0  0  0  0  0  0
   29.6001  -21.2464   -7.8436 N   0  0  0  0  0  0  0  0  0  0  0  0
   29.2643  -20.6016   -6.7127 C   0  0  0  0  0  0  0  0  0  0  0  0
   30.0010  -20.3906   -5.5387 C   0  0  0  0  0  0  0  0  0  0  0  0
   29.4790  -19.6717   -4.4784 C   0  0  0  0  0  0  0  0  0  0  0  0
   28.1929  -19.1579   -4.6049 C   0  0  0  0  0  0  0  0  0  0  0  0
   27.4900  -19.3806   -5.7690 C   0  0  0  0  0  0  0  0  0  0  0  0
   27.9981  -20.0912   -6.8283 C   0  0  0  0  0  0  0  0  0  0  0  0
   24.3125  -20.4532  -10.0766 C   0  0  0  0  0  0  0  0  0  0  0  0
   23.4831  -19.9462   -9.2640 O   0  0  0  0  0  0  0  0  0  0  0  0
   23.6970  -20.8501  -11.3289 N   0  0  0  0  0  0  0  0  0  0  0  0
   22.2528  -20.6499  -11.4729 C   0  0  0  0  0  0  0  0  0  0  0  0
   21.8995  -21.0979  -12.8437 C   0  0  0  0  0  0  0  0  0  0  0  0
   22.0175  -22.2990  -13.2164 O   0  0  0  0  0  0  0  0  0  0  0  0
   21.4084  -20.2276  -13.8301 O   0  0  0  0  0  0  0  0  0  0  0  0
  2  1  1  6
  2  3  1  0
  3  4  1  0
  4  8  1  0
  5  4  2  0
  6  2  1  0
  7  6  2  0
  9  6  1  0
 10  9  1  0
 10 11  1  1
 11 12  1  0
 12 20  1  0
 13 12  2  0
 13 14  1  0
 14 15  1  0
 15 16  2  0
 16 17  1  0
 18 17  2  0
 19 18  1  0
 20 19  2  0
 20 15  1  0
 21 23  1  0
 21 10  1  0
 22 21  2  0
 24 23  1  0
 25 24  1  0
 25 27  1  0
 26 25  2  0
M  END
$$$$
