IEG.pdb
     RDKit          3D

 22 21  0  0  1  0  0  0  0  0999 V2000
    7.1792  -12.0557   20.7770 C   0  0  0  0  0  0  0  0  0  0  0  0
    7.3036  -13.3683   20.0351 C   0  0  0  0  0  0  0  0  0  0  0  0
    8.0091  -14.3684   20.9335 C   0  0  2  0  0  0  0  0  0  0  0  0
    9.4101  -13.8317   21.1943 C   0  0  0  0  0  0  0  0  0  0  0  0
    8.1605  -15.7038   20.2676 C   0  0  2  0  0  0  0  0  0  0  0  0
    6.9184  -16.3002   19.8640 N   0  0  0  0  0  0  0  0  0  0  0  0
    8.9782  -16.5934   21.1067 C   0  0  0  0  0  0  0  0  0  0  0  0
    8.3881  -17.3483   21.9230 O   0  0  0  0  0  0  0  0  0  0  0  0
   10.3941  -16.6515   21.0511 N   0  0  0  0  0  0  0  0  0  0  0  0
   11.1084  -17.5414   21.9232 C   0  0  1  0  0  0  0  0  0  0  0  0
   12.3916  -18.0340   21.2929 C   0  0  0  0  0  0  0  0  0  0  0  0
   12.1481  -18.8979   20.0806 C   0  0  0  0  0  0  0  0  0  0  0  0
   13.4493  -19.2486   19.4856 C   0  0  0  0  0  0  0  0  0  0  0  0
   13.9293  -18.5411   18.5788 O   0  0  0  0  0  0  0  0  0  0  0  0
   11.3774  -16.8277   23.2088 C   0  0  0  0  0  0  0  0  0  0  0  0
   11.7314  -15.6214   23.2132 O   0  0  0  0  0  0  0  0  0  0  0  0
   14.1379  -20.3544   19.9261 O   0  0  0  0  0  0  0  0  0  0  0  0
   11.2512  -17.4585   24.4835 N   0  0  0  0  0  0  0  0  0  0  0  0
   11.4700  -16.7853   25.7243 C   0  0  0  0  0  0  0  0  0  0  0  0
   11.2312  -17.6290   26.9135 C   0  0  0  0  0  0  0  0  0  0  0  0
   11.4980  -17.0782   28.1581 O   0  0  0  0  0  0  0  0  0  0  0  0
   10.8038  -18.8110   26.8829 O   0  0  0  0  0  0  0  0  0  0  0  0
  2  1  1  0
  3  5  1  0
  3  2  1  0
  3  4  1  6
  5  7  1  0
  5  6  1  1
  7  8  2  0
  9  7  1  0
  9 10  1  0
 10 15  1  0
 10 11  1  6
 11 12  1  0
 12 13  1  0
 13 14  2  0
 13 17  1  0
 15 16  2  0
 18 19  1  0
 18 15  1  0
 20 19  1  0
 21 20  1  0
 22 20  2  0
M  END
$$$$
