IEG.pdb
     RDKit          3D

 22 21  0  0  1  0  0  0  0  0999 V2000
    7.3003  -11.2450   27.4166 C   0  0  0  0  0  0  0  0  0  0  0  0
    6.2730  -12.1252   26.7392 C   0  0  0  0  0  0  0  0  0  0  0  0
    6.9801  -13.3352   26.1556 C   0  0  2  0  0  0  0  0  0  0  0  0
    7.9604  -12.8243   25.1083 C   0  0  0  0  0  0  0  0  0  0  0  0
    6.0230  -14.2558   25.4582 C   0  0  2  0  0  0  0  0  0  0  0  0
    4.8304  -14.5359   26.2069 N   0  0  0  0  0  0  0  0  0  0  0  0
    6.7250  -15.4724   25.0210 C   0  0  0  0  0  0  0  0  0  0  0  0
    6.0824  -16.5546   25.0017 O   0  0  0  0  0  0  0  0  0  0  0  0
    8.0848  -15.4991   24.6192 N   0  0  0  0  0  0  0  0  0  0  0  0
    8.6796  -16.7337   24.1892 C   0  0  1  0  0  0  0  0  0  0  0  0
    8.0168  -17.2703   22.9405 C   0  0  0  0  0  0  0  0  0  0  0  0
    7.7738  -16.1992   21.9067 C   0  0  0  0  0  0  0  0  0  0  0  0
    7.6742  -16.8385   20.5833 C   0  0  0  0  0  0  0  0  0  0  0  0
    6.5673  -16.9276   20.0176 O   0  0  0  0  0  0  0  0  0  0  0  0
   10.1400  -16.5027   23.9689 C   0  0  0  0  0  0  0  0  0  0  0  0
   10.6525  -16.6630   22.8323 O   0  0  0  0  0  0  0  0  0  0  0  0
    8.7979  -17.3382   19.9680 O   0  0  0  0  0  0  0  0  0  0  0  0
   11.0236  -16.0943   25.0135 N   0  0  0  0  0  0  0  0  0  0  0  0
   10.9858  -16.6314   26.3366 C   0  0  0  0  0  0  0  0  0  0  0  0
   11.6051  -17.9674   26.4584 C   0  0  0  0  0  0  0  0  0  0  0  0
   11.6242  -18.5564   27.7139 O   0  0  0  0  0  0  0  0  0  0  0  0
   12.1173  -18.6121   25.5084 O   0  0  0  0  0  0  0  0  0  0  0  0
  2  1  1  0
  3  5  1  0
  3  2  1  0
  3  4  1  6
  5  7  1  0
  5  6  1  1
  7  8  2  0
  9  7  1  0
  9 10  1  0
 10 15  1  0
 10 11  1  6
 11 12  1  0
 12 13  1  0
 13 14  2  0
 13 17  1  0
 15 16  2  0
 18 19  1  0
 18 15  1  0
 20 19  1  0
 21 20  1  0
 22 20  2  0
M  END
$$$$
