IEG.pdb
     RDKit          3D

 22 21  0  0  1  0  0  0  0  0999 V2000
    6.9680  -11.6498   26.7791 C   0  0  0  0  0  0  0  0  0  0  0  0
    6.2486  -12.8541   26.2126 C   0  0  0  0  0  0  0  0  0  0  0  0
    7.2822  -13.8305   25.6803 C   0  0  2  0  0  0  0  0  0  0  0  0
    7.9755  -13.1576   24.5032 C   0  0  0  0  0  0  0  0  0  0  0  0
    6.6460  -15.0867   25.1635 C   0  0  2  0  0  0  0  0  0  0  0  0
    5.6788  -15.6620   26.0552 N   0  0  0  0  0  0  0  0  0  0  0  0
    7.6853  -16.0424   24.7504 C   0  0  0  0  0  0  0  0  0  0  0  0
    8.0955  -16.8774   25.5983 O   0  0  0  0  0  0  0  0  0  0  0  0
    8.2537  -16.0795   23.4516 N   0  0  0  0  0  0  0  0  0  0  0  0
    9.0806  -17.1880   23.0640 C   0  0  1  0  0  0  0  0  0  0  0  0
    8.8670  -17.5673   21.6159 C   0  0  0  0  0  0  0  0  0  0  0  0
    9.0377  -16.3979   20.6786 C   0  0  0  0  0  0  0  0  0  0  0  0
    9.0230  -16.9004   19.2940 C   0  0  0  0  0  0  0  0  0  0  0  0
    9.0031  -18.1278   19.0781 O   0  0  0  0  0  0  0  0  0  0  0  0
   10.5076  -16.8257   23.3226 C   0  0  0  0  0  0  0  0  0  0  0  0
   11.4409  -17.5820   22.9519 O   0  0  0  0  0  0  0  0  0  0  0  0
    9.0311  -16.0210   18.2368 O   0  0  0  0  0  0  0  0  0  0  0  0
   10.8903  -15.6240   23.9921 N   0  0  0  0  0  0  0  0  0  0  0  0
   12.2417  -15.1732   24.0973 C   0  0  0  0  0  0  0  0  0  0  0  0
   13.1114  -16.0678   24.8886 C   0  0  0  0  0  0  0  0  0  0  0  0
   13.9099  -15.4914   25.8652 O   0  0  0  0  0  0  0  0  0  0  0  0
   13.1831  -17.3146   24.7435 O   0  0  0  0  0  0  0  0  0  0  0  0
  2  1  1  0
  3  5  1  0
  3  2  1  0
  3  4  1  6
  5  7  1  0
  5  6  1  1
  7  8  2  0
  9  7  1  0
  9 10  1  0
 10 15  1  0
 10 11  1  6
 11 12  1  0
 12 13  1  0
 13 14  2  0
 13 17  1  0
 15 16  2  0
 18 19  1  0
 18 15  1  0
 20 19  1  0
 21 20  1  0
 22 20  2  0
M  END
$$$$
