IEG.pdb
     RDKit          3D

 22 21  0  0  1  0  0  0  0  0999 V2000
    7.4014  -11.5072   27.2160 C   0  0  0  0  0  0  0  0  0  0  0  0
    6.5046  -12.5805   26.6391 C   0  0  0  0  0  0  0  0  0  0  0  0
    7.3704  -13.6068   25.9306 C   0  0  2  0  0  0  0  0  0  0  0  0
    8.0584  -12.8959   24.7729 C   0  0  0  0  0  0  0  0  0  0  0  0
    6.5498  -14.7182   25.3463 C   0  0  2  0  0  0  0  0  0  0  0  0
    5.7595  -15.4307   26.3102 N   0  0  0  0  0  0  0  0  0  0  0  0
    7.4045  -15.6023   24.5389 C   0  0  0  0  0  0  0  0  0  0  0  0
    7.8244  -16.6657   25.0653 O   0  0  0  0  0  0  0  0  0  0  0  0
    7.7845  -15.3278   23.2004 N   0  0  0  0  0  0  0  0  0  0  0  0
    8.4414  -16.3398   22.4213 C   0  0  1  0  0  0  0  0  0  0  0  0
    8.3033  -16.0829   20.9375 C   0  0  0  0  0  0  0  0  0  0  0  0
    8.9410  -17.1633   20.1000 C   0  0  0  0  0  0  0  0  0  0  0  0
    8.7400  -16.8345   18.6782 C   0  0  0  0  0  0  0  0  0  0  0  0
    9.6960  -16.9076   17.8819 O   0  0  0  0  0  0  0  0  0  0  0  0
    9.8786  -16.3909   22.8292 C   0  0  0  0  0  0  0  0  0  0  0  0
   10.6669  -17.2187   22.3061 O   0  0  0  0  0  0  0  0  0  0  0  0
    7.5012  -16.4467   18.2243 O   0  0  0  0  0  0  0  0  0  0  0  0
   10.4327  -15.5210   23.8166 N   0  0  0  0  0  0  0  0  0  0  0  0
   11.8038  -15.5496   24.2162 C   0  0  0  0  0  0  0  0  0  0  0  0
   12.1385  -16.6630   25.1281 C   0  0  0  0  0  0  0  0  0  0  0  0
   11.1652  -17.6247   25.3548 O   0  0  0  0  0  0  0  0  0  0  0  0
   13.2409  -16.8050   25.7157 O   0  0  0  0  0  0  0  0  0  0  0  0
  2  1  1  0
  3  5  1  0
  3  2  1  0
  3  4  1  6
  5  7  1  0
  5  6  1  1
  7  8  2  0
  9  7  1  0
  9 10  1  0
 10 15  1  0
 10 11  1  6
 11 12  1  0
 12 13  1  0
 13 14  2  0
 13 17  1  0
 15 16  2  0
 18 19  1  0
 18 15  1  0
 20 19  1  0
 21 20  1  0
 22 20  2  0
M  END
$$$$
