IEG.pdb
     RDKit          3D

 22 21  0  0  1  0  0  0  0  0999 V2000
    7.6328  -11.8895   27.1144 C   0  0  0  0  0  0  0  0  0  0  0  0
    6.6354  -12.7974   26.4289 C   0  0  0  0  0  0  0  0  0  0  0  0
    7.3712  -14.0163   25.9019 C   0  0  2  0  0  0  0  0  0  0  0  0
    8.3752  -13.5258   24.8673 C   0  0  0  0  0  0  0  0  0  0  0  0
    6.4437  -14.9679   25.2062 C   0  0  2  0  0  0  0  0  0  0  0  0
    5.3686  -15.4442   26.0302 N   0  0  0  0  0  0  0  0  0  0  0  0
    7.2144  -16.0552   24.5836 C   0  0  0  0  0  0  0  0  0  0  0  0
    7.4281  -17.0950   25.2601 O   0  0  0  0  0  0  0  0  0  0  0  0
    7.7322  -16.0021   23.2643 N   0  0  0  0  0  0  0  0  0  0  0  0
    8.1600  -17.2094   22.6146 C   0  0  1  0  0  0  0  0  0  0  0  0
    8.1123  -17.0828   21.1085 C   0  0  0  0  0  0  0  0  0  0  0  0
    8.5225  -18.3531   20.4063 C   0  0  0  0  0  0  0  0  0  0  0  0
    8.5031  -18.1130   18.9530 C   0  0  0  0  0  0  0  0  0  0  0  0
    7.5089  -18.4487   18.2805 O   0  0  0  0  0  0  0  0  0  0  0  0
    9.5406  -17.5355   23.0858 C   0  0  0  0  0  0  0  0  0  0  0  0
    9.9178  -18.7297   23.1958 O   0  0  0  0  0  0  0  0  0  0  0  0
    9.5778  -17.5194   18.3336 O   0  0  0  0  0  0  0  0  0  0  0  0
   10.4957  -16.5322   23.4322 N   0  0  0  0  0  0  0  0  0  0  0  0
   11.8349  -16.8210   23.8365 C   0  0  0  0  0  0  0  0  0  0  0  0
   12.6317  -15.6219   24.1690 C   0  0  0  0  0  0  0  0  0  0  0  0
   13.9356  -15.8145   24.6008 O   0  0  0  0  0  0  0  0  0  0  0  0
   12.2167  -14.4378   24.0902 O   0  0  0  0  0  0  0  0  0  0  0  0
  2  1  1  0
  3  5  1  0
  3  2  1  0
  3  4  1  6
  5  7  1  0
  5  6  1  1
  7  8  2  0
  9  7  1  0
  9 10  1  0
 10 15  1  0
 10 11  1  6
 11 12  1  0
 12 13  1  0
 13 14  2  0
 13 17  1  0
 15 16  2  0
 18 19  1  0
 18 15  1  0
 20 19  1  0
 21 20  1  0
 22 20  2  0
M  END
$$$$
