IEG.pdb
     RDKit          3D

 22 21  0  0  1  0  0  0  0  0999 V2000
    6.5652  -11.6255   27.1267 C   0  0  0  0  0  0  0  0  0  0  0  0
    5.9776  -12.7433   26.2935 C   0  0  0  0  0  0  0  0  0  0  0  0
    7.0592  -13.7773   26.0368 C   0  0  2  0  0  0  0  0  0  0  0  0
    8.1573  -13.0929   25.2338 C   0  0  0  0  0  0  0  0  0  0  0  0
    6.5502  -14.9210   25.2107 C   0  0  2  0  0  0  0  0  0  0  0  0
    5.3949  -15.5716   25.7614 N   0  0  0  0  0  0  0  0  0  0  0  0
    7.6481  -15.8545   24.9152 C   0  0  0  0  0  0  0  0  0  0  0  0
    7.9012  -16.7585   25.7537 O   0  0  0  0  0  0  0  0  0  0  0  0
    8.4400  -15.7969   23.7401 N   0  0  0  0  0  0  0  0  0  0  0  0
    9.4623  -16.7808   23.5174 C   0  0  1  0  0  0  0  0  0  0  0  0
    9.9580  -16.7608   22.0889 C   0  0  0  0  0  0  0  0  0  0  0  0
    8.9693  -17.3649   21.1232 C   0  0  0  0  0  0  0  0  0  0  0  0
    9.4960  -17.2126   19.7560 C   0  0  0  0  0  0  0  0  0  0  0  0
   10.7268  -17.2145   19.5600 O   0  0  0  0  0  0  0  0  0  0  0  0
   10.5779  -16.5287   24.4799 C   0  0  0  0  0  0  0  0  0  0  0  0
   11.0738  -15.3802   24.6037 O   0  0  0  0  0  0  0  0  0  0  0  0
    8.6353  -17.0681   18.6932 O   0  0  0  0  0  0  0  0  0  0  0  0
   11.1369  -17.5549   25.3004 N   0  0  0  0  0  0  0  0  0  0  0  0
   12.2011  -17.3346   26.2274 C   0  0  0  0  0  0  0  0  0  0  0  0
   12.5447  -18.5214   27.0376 C   0  0  0  0  0  0  0  0  0  0  0  0
   13.5593  -18.3902   27.9742 O   0  0  0  0  0  0  0  0  0  0  0  0
   11.9862  -19.6438   26.9423 O   0  0  0  0  0  0  0  0  0  0  0  0
  2  1  1  0
  3  5  1  0
  3  2  1  0
  3  4  1  6
  5  7  1  0
  5  6  1  1
  7  8  2  0
  9  7  1  0
  9 10  1  0
 10 15  1  0
 10 11  1  6
 11 12  1  0
 12 13  1  0
 13 14  2  0
 13 17  1  0
 15 16  2  0
 18 19  1  0
 18 15  1  0
 20 19  1  0
 21 20  1  0
 22 20  2  0
M  END
$$$$
