IEG.pdb
     RDKit          3D

 22 21  0  0  1  0  0  0  0  0999 V2000
    7.1328  -12.5236   27.4258 C   0  0  0  0  0  0  0  0  0  0  0  0
    6.7324  -13.4683   26.3139 C   0  0  0  0  0  0  0  0  0  0  0  0
    7.5757  -13.1614   25.0894 C   0  0  2  0  0  0  0  0  0  0  0  0
    7.1695  -11.7793   24.5957 C   0  0  0  0  0  0  0  0  0  0  0  0
    7.3096  -14.1286   23.9743 C   0  0  2  0  0  0  0  0  0  0  0  0
    5.9209  -14.2622   23.6349 N   0  0  0  0  0  0  0  0  0  0  0  0
    7.9562  -15.4180   24.2631 C   0  0  0  0  0  0  0  0  0  0  0  0
    7.2429  -16.3531   24.7119 O   0  0  0  0  0  0  0  0  0  0  0  0
    9.3376  -15.6712   24.0658 N   0  0  0  0  0  0  0  0  0  0  0  0
    9.8944  -16.9386   24.4487 C   0  0  1  0  0  0  0  0  0  0  0  0
   10.7469  -17.5315   23.3494 C   0  0  0  0  0  0  0  0  0  0  0  0
   11.1227  -16.5188   22.2967 C   0  0  0  0  0  0  0  0  0  0  0  0
   12.1604  -17.1052   21.4310 C   0  0  0  0  0  0  0  0  0  0  0  0
   12.5821  -18.2558   21.6578 O   0  0  0  0  0  0  0  0  0  0  0  0
   10.6859  -16.7472   25.7023 C   0  0  0  0  0  0  0  0  0  0  0  0
   11.2649  -15.6565   25.9375 O   0  0  0  0  0  0  0  0  0  0  0  0
   12.6669  -16.3884   20.3723 O   0  0  0  0  0  0  0  0  0  0  0  0
   10.8296  -17.7695   26.6887 N   0  0  0  0  0  0  0  0  0  0  0  0
   11.1034  -17.5070   28.0658 C   0  0  0  0  0  0  0  0  0  0  0  0
   11.1704  -18.7213   28.9050 C   0  0  0  0  0  0  0  0  0  0  0  0
   11.6122  -18.5774   30.2118 O   0  0  0  0  0  0  0  0  0  0  0  0
   10.8569  -19.8775   28.5236 O   0  0  0  0  0  0  0  0  0  0  0  0
  2  1  1  0
  3  5  1  0
  3  2  1  0
  3  4  1  6
  5  7  1  0
  5  6  1  1
  7  8  2  0
  9  7  1  0
  9 10  1  0
 10 15  1  0
 10 11  1  6
 11 12  1  0
 12 13  1  0
 13 14  2  0
 13 17  1  0
 15 16  2  0
 18 19  1  0
 18 15  1  0
 20 19  1  0
 21 20  1  0
 22 20  2  0
M  END
$$$$
