IEG.pdb
     RDKit          3D

 22 21  0  0  1  0  0  0  0  0999 V2000
    6.4147  -11.5866   26.7006 C   0  0  0  0  0  0  0  0  0  0  0  0
    5.8426  -12.8798   26.1628 C   0  0  0  0  0  0  0  0  0  0  0  0
    6.9900  -13.8160   25.8286 C   0  0  2  0  0  0  0  0  0  0  0  0
    7.8153  -13.1478   24.7371 C   0  0  0  0  0  0  0  0  0  0  0  0
    6.4996  -15.1227   25.2792 C   0  0  2  0  0  0  0  0  0  0  0  0
    5.6337  -15.8432   26.1694 N   0  0  0  0  0  0  0  0  0  0  0  0
    7.6371  -15.9280   24.8085 C   0  0  0  0  0  0  0  0  0  0  0  0
    8.2116  -16.6846   25.6343 O   0  0  0  0  0  0  0  0  0  0  0  0
    8.1261  -15.9030   23.4775 N   0  0  0  0  0  0  0  0  0  0  0  0
    9.0932  -16.8760   23.0523 C   0  0  1  0  0  0  0  0  0  0  0  0
    9.2618  -16.8793   21.5496 C   0  0  0  0  0  0  0  0  0  0  0  0
   10.2213  -17.9424   21.0759 C   0  0  0  0  0  0  0  0  0  0  0  0
   10.3210  -17.8640   19.6082 C   0  0  0  0  0  0  0  0  0  0  0  0
    9.9003  -18.8032   18.9053 O   0  0  0  0  0  0  0  0  0  0  0  0
   10.3882  -16.5866   23.7405 C   0  0  0  0  0  0  0  0  0  0  0  0
   10.8690  -15.4251   23.7450 O   0  0  0  0  0  0  0  0  0  0  0  0
   10.8768  -16.7581   19.0089 O   0  0  0  0  0  0  0  0  0  0  0  0
   11.1426  -17.5901   24.4207 N   0  0  0  0  0  0  0  0  0  0  0  0
   12.3946  -17.3401   25.0613 C   0  0  0  0  0  0  0  0  0  0  0  0
   13.0355  -18.5504   25.6161 C   0  0  0  0  0  0  0  0  0  0  0  0
   14.2794  -18.4048   26.2120 O   0  0  0  0  0  0  0  0  0  0  0  0
   12.5380  -19.7046   25.5887 O   0  0  0  0  0  0  0  0  0  0  0  0
  2  1  1  0
  3  5  1  0
  3  2  1  0
  3  4  1  6
  5  7  1  0
  5  6  1  1
  7  8  2  0
  9  7  1  0
  9 10  1  0
 10 15  1  0
 10 11  1  6
 11 12  1  0
 12 13  1  0
 13 14  2  0
 13 17  1  0
 15 16  2  0
 18 19  1  0
 18 15  1  0
 20 19  1  0
 21 20  1  0
 22 20  2  0
M  END
$$$$
