IEG.pdb
     RDKit          3D

 22 21  0  0  1  0  0  0  0  0999 V2000
    6.4041  -10.4504   26.5569 C   0  0  0  0  0  0  0  0  0  0  0  0
    7.2429  -11.6128   27.0411 C   0  0  0  0  0  0  0  0  0  0  0  0
    7.0070  -12.7975   26.1214 C   0  0  2  0  0  0  0  0  0  0  0  0
    5.5580  -13.2292   26.3030 C   0  0  0  0  0  0  0  0  0  0  0  0
    7.8699  -13.9678   26.4896 C   0  0  2  0  0  0  0  0  0  0  0  0
    9.2332  -13.6215   26.7777 N   0  0  0  0  0  0  0  0  0  0  0  0
    7.7486  -15.0214   25.4702 C   0  0  0  0  0  0  0  0  0  0  0  0
    6.6847  -15.6932   25.4337 O   0  0  0  0  0  0  0  0  0  0  0  0
    8.7604  -15.3263   24.5244 N   0  0  0  0  0  0  0  0  0  0  0  0
    8.6053  -16.4547   23.6495 C   0  0  1  0  0  0  0  0  0  0  0  0
    8.6798  -16.0503   22.1944 C   0  0  0  0  0  0  0  0  0  0  0  0
    7.7622  -14.8996   21.8643 C   0  0  0  0  0  0  0  0  0  0  0  0
    7.7782  -14.6901   20.4063 C   0  0  0  0  0  0  0  0  0  0  0  0
    8.6498  -13.9626   19.8922 O   0  0  0  0  0  0  0  0  0  0  0  0
    9.6587  -17.4607   23.9852 C   0  0  0  0  0  0  0  0  0  0  0  0
    9.7383  -18.5445   23.3530 O   0  0  0  0  0  0  0  0  0  0  0  0
    6.8350  -15.2940   19.6084 O   0  0  0  0  0  0  0  0  0  0  0  0
   10.6190  -17.2570   25.0220 N   0  0  0  0  0  0  0  0  0  0  0  0
   11.6593  -18.1861   25.3304 C   0  0  0  0  0  0  0  0  0  0  0  0
   11.2868  -19.1838   26.3545 C   0  0  0  0  0  0  0  0  0  0  0  0
   12.2814  -20.0311   26.8200 O   0  0  0  0  0  0  0  0  0  0  0  0
   10.1343  -19.3237   26.8370 O   0  0  0  0  0  0  0  0  0  0  0  0
  2  1  1  0
  3  5  1  0
  3  2  1  0
  3  4  1  1
  5  7  1  0
  5  6  1  6
  7  8  2  0
  9  7  1  0
  9 10  1  0
 10 15  1  0
 10 11  1  6
 11 12  1  0
 12 13  1  0
 13 14  2  0
 13 17  1  0
 15 16  2  0
 18 19  1  0
 18 15  1  0
 20 19  1  0
 21 20  1  0
 22 20  2  0
M  END
$$$$
