IEG.pdb
     RDKit          3D

 22 21  0  0  1  0  0  0  0  0999 V2000
    6.8468  -10.8757   26.1769 C   0  0  0  0  0  0  0  0  0  0  0  0
    6.2108  -12.2041   25.8310 C   0  0  0  0  0  0  0  0  0  0  0  0
    7.2727  -13.2861   25.9121 C   0  0  2  0  0  0  0  0  0  0  0  0
    8.2462  -13.0507   24.7650 C   0  0  0  0  0  0  0  0  0  0  0  0
    6.6875  -14.6546   25.7260 C   0  0  2  0  0  0  0  0  0  0  0  0
    5.5082  -14.8976   26.5080 N   0  0  0  0  0  0  0  0  0  0  0  0
    7.7273  -15.6763   25.9232 C   0  0  0  0  0  0  0  0  0  0  0  0
    8.1616  -15.8646   27.0896 O   0  0  0  0  0  0  0  0  0  0  0  0
    8.2709  -16.4633   24.8760 N   0  0  0  0  0  0  0  0  0  0  0  0
    9.3101  -17.4129   25.1603 C   0  0  1  0  0  0  0  0  0  0  0  0
    8.9590  -18.7954   24.6584 C   0  0  0  0  0  0  0  0  0  0  0  0
   10.0081  -19.8223   25.0052 C   0  0  0  0  0  0  0  0  0  0  0  0
    9.4276  -21.1644   24.8272 C   0  0  0  0  0  0  0  0  0  0  0  0
    9.3665  -21.9487   25.7940 O   0  0  0  0  0  0  0  0  0  0  0  0
   10.5804  -16.9212   24.5445 C   0  0  0  0  0  0  0  0  0  0  0  0
   11.6948  -17.3460   24.9420 O   0  0  0  0  0  0  0  0  0  0  0  0
    8.9521  -21.5571   23.5981 O   0  0  0  0  0  0  0  0  0  0  0  0
   10.6056  -15.9595   23.4894 N   0  0  0  0  0  0  0  0  0  0  0  0
   11.8085  -15.4208   22.9387 C   0  0  0  0  0  0  0  0  0  0  0  0
   12.5760  -16.3829   22.1210 C   0  0  0  0  0  0  0  0  0  0  0  0
   13.6823  -15.9056   21.4340 O   0  0  0  0  0  0  0  0  0  0  0  0
   12.3017  -17.6039   22.0003 O   0  0  0  0  0  0  0  0  0  0  0  0
  2  1  1  0
  3  5  1  0
  3  2  1  0
  3  4  1  6
  5  7  1  0
  5  6  1  1
  7  8  2  0
  9  7  1  0
  9 10  1  0
 10 15  1  0
 10 11  1  6
 11 12  1  0
 12 13  1  0
 13 14  2  0
 13 17  1  0
 15 16  2  0
 18 19  1  0
 18 15  1  0
 20 19  1  0
 21 20  1  0
 22 20  2  0
M  END
$$$$
