LMP.pdb
     RDKit          3D

 24 24  0  0  1  0  0  0  0  0999 V2000
   20.2793  -22.3902  -16.3253 C   0  0  0  0  0  0  0  0  0  0  0  0
   19.3504  -21.3440  -15.7825 C   0  0  2  0  0  0  0  0  0  0  0  0
   18.7409  -20.6174  -16.9653 C   0  0  0  0  0  0  0  0  0  0  0  0
   20.0058  -20.3909  -14.8257 C   0  0  0  0  0  0  0  0  0  0  0  0
   20.8839  -21.1549  -13.8473 C   0  0  2  0  0  0  0  0  0  0  0  0
   20.1548  -21.2154  -12.5941 N   0  0  0  0  0  0  0  0  0  0  0  0
   22.1366  -20.3825  -13.5836 C   0  0  0  0  0  0  0  0  0  0  0  0
   22.1343  -19.3204  -12.8721 O   0  0  0  0  0  0  0  0  0  0  0  0
   25.7395  -20.8301   -9.3767 C   0  0  0  0  0  0  0  0  0  0  0  0
   26.8712  -21.4637  -10.6485 S   0  0  0  0  0  0  0  0  0  0  0  0
   26.6045  -20.5664  -12.2350 C   0  0  0  0  0  0  0  0  0  0  0  0
   25.2565  -20.9319  -12.7042 C   0  0  0  0  0  0  0  0  0  0  0  0
   24.6482  -20.0351  -13.7829 C   0  0  2  0  0  0  0  0  0  0  0  0
   23.3922  -20.7734  -14.0995 N   0  0  0  0  0  0  0  0  0  0  0  0
   25.4772  -19.9080  -14.9751 C   0  0  0  0  0  0  0  0  0  0  0  0
   25.4298  -20.8630  -15.8254 O   0  0  0  0  0  0  0  0  0  0  0  0
   26.3044  -18.8199  -15.2468 N   0  0  0  0  0  0  0  0  0  0  0  0
   26.6860  -17.7503  -14.3480 C   0  0  0  0  0  0  0  0  0  0  0  0
   26.7158  -16.5494  -15.3216 C   0  0  0  0  0  0  0  0  0  0  0  0
   27.5201  -17.1681  -16.4443 C   0  0  0  0  0  0  0  0  0  0  0  0
   26.9367  -18.5563  -16.5486 C   0  0  1  0  0  0  0  0  0  0  0  0
   28.0612  -19.5065  -16.7485 C   0  0  0  0  0  0  0  0  0  0  0  0
   28.4211  -20.2651  -15.8144 O   0  0  0  0  0  0  0  0  0  0  0  0
   28.7561  -19.6058  -17.9430 O   0  0  0  0  0  0  0  0  0  0  0  0
  2  1  1  6
  2  3  1  0
  4  2  1  0
  4  5  1  0
  5  6  1  1
  7  5  1  0
  7  8  2  0
 10 11  1  0
 10  9  1  0
 11 12  1  0
 13 12  1  1
 14 13  1  0
 14  7  1  0
 15 16  2  0
 15 13  1  0
 17 15  1  0
 18 17  1  0
 19 18  1  0
 19 20  1  0
 20 21  1  0
 21 17  1  0
 21 22  1  1
 23 22  2  0
 24 22  1  0
M  END
$$$$
