LMP.pdb
     RDKit          3D

 24 24  0  0  1  0  0  0  0  0999 V2000
   18.9000  -19.8342  -17.3233 C   0  0  0  0  0  0  0  0  0  0  0  0
   18.6789  -19.5062  -15.8757 C   0  0  2  0  0  0  0  0  0  0  0  0
   17.6793  -18.3680  -15.8136 C   0  0  0  0  0  0  0  0  0  0  0  0
   19.9397  -19.1765  -15.1308 C   0  0  0  0  0  0  0  0  0  0  0  0
   21.0276  -20.1813  -15.4755 C   0  0  2  0  0  0  0  0  0  0  0  0
   20.6364  -21.4412  -14.8710 N   0  0  0  0  0  0  0  0  0  0  0  0
   22.3142  -19.7728  -14.8330 C   0  0  0  0  0  0  0  0  0  0  0  0
   22.8124  -18.6083  -15.0066 O   0  0  0  0  0  0  0  0  0  0  0  0
   25.8118  -19.8442   -8.9671 C   0  0  0  0  0  0  0  0  0  0  0  0
   25.5042  -21.4121   -9.8314 S   0  0  0  0  0  0  0  0  0  0  0  0
   25.8638  -21.2241  -11.6282 C   0  0  0  0  0  0  0  0  0  0  0  0
   24.5637  -21.2366  -12.3214 C   0  0  0  0  0  0  0  0  0  0  0  0
   24.4319  -20.3103  -13.5309 C   0  0  2  0  0  0  0  0  0  0  0  0
   23.0556  -20.6401  -14.0000 N   0  0  0  0  0  0  0  0  0  0  0  0
   25.4050  -20.5778  -14.5825 C   0  0  0  0  0  0  0  0  0  0  0  0
   25.1991  -21.6002  -15.3241 O   0  0  0  0  0  0  0  0  0  0  0  0
   26.5302  -19.7945  -14.8322 N   0  0  0  0  0  0  0  0  0  0  0  0
   26.9851  -18.6353  -14.0928 C   0  0  0  0  0  0  0  0  0  0  0  0
   27.5378  -17.7576  -15.2396 C   0  0  0  0  0  0  0  0  0  0  0  0
   28.3657  -18.7978  -15.9627 C   0  0  0  0  0  0  0  0  0  0  0  0
   27.4690  -20.0118  -15.9437 C   0  0  1  0  0  0  0  0  0  0  0  0
   28.3156  -21.1958  -15.6456 C   0  0  0  0  0  0  0  0  0  0  0  0
   28.3372  -21.6816  -14.4876 O   0  0  0  0  0  0  0  0  0  0  0  0
   29.1062  -21.8124  -16.6018 O   0  0  0  0  0  0  0  0  0  0  0  0
  2  1  1  6
  2  3  1  0
  4  2  1  0
  4  5  1  0
  5  6  1  1
  7  5  1  0
  7  8  2  0
 10 11  1  0
 10  9  1  0
 11 12  1  0
 13 12  1  1
 14 13  1  0
 14  7  1  0
 15 16  2  0
 15 13  1  0
 17 15  1  0
 18 17  1  0
 19 18  1  0
 19 20  1  0
 20 21  1  0
 21 17  1  0
 21 22  1  1
 23 22  2  0
 24 22  1  0
M  END
$$$$
