LMP.pdb
     RDKit          3D

 24 24  0  0  1  0  0  0  0  0999 V2000
   13.9361  -11.7618    6.9653 C   0  0  0  0  0  0  0  0  0  0  0  0
   13.7276  -12.7839    5.8864 C   0  0  2  0  0  0  0  0  0  0  0  0
   12.6319  -13.7221    6.3528 C   0  0  0  0  0  0  0  0  0  0  0  0
   14.9743  -13.5317    5.5126 C   0  0  0  0  0  0  0  0  0  0  0  0
   16.1021  -12.5541    5.2223 C   0  0  2  0  0  0  0  0  0  0  0  0
   16.2055  -12.4556    3.7782 N   0  0  0  0  0  0  0  0  0  0  0  0
   17.3974  -13.1174    5.7126 C   0  0  0  0  0  0  0  0  0  0  0  0
   17.9386  -14.1365    5.1622 O   0  0  0  0  0  0  0  0  0  0  0  0
   23.8609  -11.0882    9.5214 C   0  0  0  0  0  0  0  0  0  0  0  0
   22.2440  -10.7460    8.7675 S   0  0  0  0  0  0  0  0  0  0  0  0
   21.1678  -12.2370    8.8769 C   0  0  0  0  0  0  0  0  0  0  0  0
   19.9788  -11.9597    8.0522 C   0  0  0  0  0  0  0  0  0  0  0  0
   19.3704  -13.1544    7.3172 C   0  0  2  0  0  0  0  0  0  0  0  0
   18.1001  -12.5643    6.8061 N   0  0  0  0  0  0  0  0  0  0  0  0
   19.0896  -14.2935    8.1822 C   0  0  0  0  0  0  0  0  0  0  0  0
   17.9864  -14.2782    8.8303 O   0  0  0  0  0  0  0  0  0  0  0  0
   19.9358  -15.3893    8.3410 N   0  0  0  0  0  0  0  0  0  0  0  0
   21.1382  -15.6962    7.5944 C   0  0  0  0  0  0  0  0  0  0  0  0
   21.0437  -17.2374    7.5121 C   0  0  0  0  0  0  0  0  0  0  0  0
   20.7330  -17.5385    8.9623 C   0  0  0  0  0  0  0  0  0  0  0  0
   19.7294  -16.4688    9.3187 C   0  0  1  0  0  0  0  0  0  0  0  0
   20.0629  -15.9695   10.6777 C   0  0  0  0  0  0  0  0  0  0  0  0
   20.7207  -14.9087   10.8173 O   0  0  0  0  0  0  0  0  0  0  0  0
   19.6775  -16.6279   11.8342 O   0  0  0  0  0  0  0  0  0  0  0  0
  2  1  1  1
  2  3  1  0
  4  2  1  0
  4  5  1  0
  5  6  1  6
  7  5  1  0
  7  8  2  0
 10 11  1  0
 10  9  1  0
 11 12  1  0
 13 12  1  1
 14 13  1  0
 14  7  1  0
 15 16  2  0
 15 13  1  0
 17 15  1  0
 18 17  1  0
 19 18  1  0
 19 20  1  0
 20 21  1  0
 21 17  1  0
 21 22  1  1
 23 22  2  0
 24 22  1  0
M  END
$$$$
