LMP.pdb
     RDKit          3D

 24 24  0  0  1  0  0  0  0  0999 V2000
   24.1351  -18.0600  -16.6931 C   0  0  0  0  0  0  0  0  0  0  0  0
   25.1914  -17.4606  -15.8115 C   0  0  2  0  0  0  0  0  0  0  0  0
   24.9805  -15.9593  -15.8035 C   0  0  0  0  0  0  0  0  0  0  0  0
   26.5917  -17.8204  -16.2151 C   0  0  0  0  0  0  0  0  0  0  0  0
   27.4083  -18.1957  -14.9886 C   0  0  2  0  0  0  0  0  0  0  0  0
   28.7302  -18.5589  -15.4644 N   0  0  0  0  0  0  0  0  0  0  0  0
   26.8271  -19.4155  -14.3488 C   0  0  0  0  0  0  0  0  0  0  0  0
   26.7853  -20.5389  -14.9577 O   0  0  0  0  0  0  0  0  0  0  0  0
   27.4014  -20.3456   -8.1798 C   0  0  0  0  0  0  0  0  0  0  0  0
   25.6140  -20.6469   -8.2978 S   0  0  0  0  0  0  0  0  0  0  0  0
   25.1808  -21.2211   -9.9936 C   0  0  0  0  0  0  0  0  0  0  0  0
   25.8415  -20.2978  -10.9326 C   0  0  0  0  0  0  0  0  0  0  0  0
   25.6851  -20.6169  -12.4197 C   0  0  2  0  0  0  0  0  0  0  0  0
   26.2913  -19.4051  -13.0418 N   0  0  0  0  0  0  0  0  0  0  0  0
   24.2987  -20.7664  -12.8442 C   0  0  0  0  0  0  0  0  0  0  0  0
   23.5984  -19.6999  -12.9422 O   0  0  0  0  0  0  0  0  0  0  0  0
   23.6965  -21.9847  -13.1527 N   0  0  0  0  0  0  0  0  0  0  0  0
   24.2793  -23.3078  -13.0693 C   0  0  0  0  0  0  0  0  0  0  0  0
   23.6345  -23.9875  -14.2995 C   0  0  0  0  0  0  0  0  0  0  0  0
   22.1952  -23.5765  -14.0760 C   0  0  0  0  0  0  0  0  0  0  0  0
   22.3209  -22.1333  -13.6525 C   0  0  1  0  0  0  0  0  0  0  0  0
   21.3668  -21.9037  -12.5370 C   0  0  0  0  0  0  0  0  0  0  0  0
   21.7764  -21.8805  -11.3499 O   0  0  0  0  0  0  0  0  0  0  0  0
   20.0102  -21.7079  -12.7386 O   0  0  0  0  0  0  0  0  0  0  0  0
  2  1  1  6
  2  3  1  0
  4  2  1  0
  4  5  1  0
  5  6  1  6
  7  5  1  0
  7  8  2  0
 10 11  1  0
 10  9  1  0
 11 12  1  0
 13 12  1  1
 14 13  1  0
 14  7  1  0
 15 16  2  0
 15 13  1  0
 17 15  1  0
 18 17  1  0
 19 18  1  0
 19 20  1  0
 20 21  1  0
 21 17  1  0
 21 22  1  1
 23 22  2  0
 24 22  1  0
M  END
$$$$
