LMP.pdb
     RDKit          3D

 24 24  0  0  1  0  0  0  0  0999 V2000
   27.7853  -15.4639  -15.3274 C   0  0  0  0  0  0  0  0  0  0  0  0
   27.3428  -16.3900  -16.4222 C   0  0  2  0  0  0  0  0  0  0  0  0
   26.3192  -15.6492  -17.2601 C   0  0  0  0  0  0  0  0  0  0  0  0
   26.8065  -17.7011  -15.9254 C   0  0  0  0  0  0  0  0  0  0  0  0
   27.8797  -18.4410  -15.1425 C   0  0  2  0  0  0  0  0  0  0  0  0
   28.8168  -18.9675  -16.1174 N   0  0  0  0  0  0  0  0  0  0  0  0
   27.2750  -19.6160  -14.4433 C   0  0  0  0  0  0  0  0  0  0  0  0
   27.0725  -20.7255  -15.0454 O   0  0  0  0  0  0  0  0  0  0  0  0
   27.3599  -20.6630   -7.8685 C   0  0  0  0  0  0  0  0  0  0  0  0
   25.6395  -20.3497   -8.3601 S   0  0  0  0  0  0  0  0  0  0  0  0
   25.3292  -21.0319  -10.0428 C   0  0  0  0  0  0  0  0  0  0  0  0
   26.1763  -20.2635  -10.9716 C   0  0  0  0  0  0  0  0  0  0  0  0
   26.1145  -20.6747  -12.4431 C   0  0  2  0  0  0  0  0  0  0  0  0
   26.8918  -19.5758  -13.0842 N   0  0  0  0  0  0  0  0  0  0  0  0
   24.7611  -20.7213  -12.9821 C   0  0  0  0  0  0  0  0  0  0  0  0
   24.1782  -19.6027  -13.1977 O   0  0  0  0  0  0  0  0  0  0  0  0
   24.0719  -21.8953  -13.2800 N   0  0  0  0  0  0  0  0  0  0  0  0
   24.5522  -23.2572  -13.1704 C   0  0  0  0  0  0  0  0  0  0  0  0
   23.8711  -23.9052  -14.3981 C   0  0  0  0  0  0  0  0  0  0  0  0
   22.4647  -23.3836  -14.1977 C   0  0  0  0  0  0  0  0  0  0  0  0
   22.6945  -21.9475  -13.7938 C   0  0  1  0  0  0  0  0  0  0  0  0
   21.7486  -21.6295  -12.6931 C   0  0  0  0  0  0  0  0  0  0  0  0
   22.1440  -21.6273  -11.5010 O   0  0  0  0  0  0  0  0  0  0  0  0
   20.4149  -21.3263  -12.9144 O   0  0  0  0  0  0  0  0  0  0  0  0
  2  1  1  1
  2  3  1  0
  4  2  1  0
  4  5  1  0
  5  6  1  6
  7  5  1  0
  7  8  2  0
 10 11  1  0
 10  9  1  0
 11 12  1  0
 13 12  1  1
 14 13  1  0
 14  7  1  0
 15 16  2  0
 15 13  1  0
 17 15  1  0
 18 17  1  0
 19 18  1  0
 19 20  1  0
 20 21  1  0
 21 17  1  0
 21 22  1  1
 23 22  2  0
 24 22  1  0
M  END
$$$$
