YPV.pdb
     RDKit          3D

 27 28  0  0  1  0  0  0  0  0999 V2000
   25.3004  -12.5987  -18.6505 O   0  0  0  0  0  0  0  0  0  0  0  0
   25.0213  -13.7885  -18.0008 C   0  0  0  0  0  0  0  0  0  0  0  0
   24.0388  -14.6254  -18.4750 C   0  0  0  0  0  0  0  0  0  0  0  0
   23.7770  -15.8078  -17.8107 C   0  0  0  0  0  0  0  0  0  0  0  0
   24.4901  -16.1601  -16.6755 C   0  0  0  0  0  0  0  0  0  0  0  0
   24.2364  -17.4244  -15.9373 C   0  0  0  0  0  0  0  0  0  0  0  0
   25.2130  -18.4935  -16.4426 C   0  0  2  0  0  0  0  0  0  0  0  0
   24.6121  -19.0492  -17.6194 N   0  0  0  0  0  0  0  0  0  0  0  0
   25.4764  -19.5162  -15.4094 C   0  0  0  0  0  0  0  0  0  0  0  0
   24.6200  -20.4622  -15.3092 O   0  0  0  0  0  0  0  0  0  0  0  0
   25.4785  -15.2856  -16.2252 C   0  0  0  0  0  0  0  0  0  0  0  0
   25.7477  -14.1057  -16.8787 C   0  0  0  0  0  0  0  0  0  0  0  0
   26.5702  -19.5302  -14.5474 N   0  0  0  0  0  0  0  0  0  0  0  0
   27.6809  -18.5908  -14.5592 C   0  0  0  0  0  0  0  0  0  0  0  0
   28.8705  -19.3767  -14.0395 C   0  0  0  0  0  0  0  0  0  0  0  0
   28.3421  -20.6298  -13.4134 C   0  0  0  0  0  0  0  0  0  0  0  0
   26.8515  -20.4510  -13.4722 C   0  0  1  0  0  0  0  0  0  0  0  0
   26.3646  -19.9460  -12.1655 C   0  0  0  0  0  0  0  0  0  0  0  0
   26.5833  -18.7682  -11.7696 O   0  0  0  0  0  0  0  0  0  0  0  0
   22.9342  -21.8311  -10.6698 C   0  0  0  0  0  0  0  0  0  0  0  0
   23.4001  -20.4061  -10.4156 C   0  0  2  0  0  0  0  0  0  0  0  0
   22.9397  -19.5217  -11.5357 C   0  0  0  0  0  0  0  0  0  0  0  0
   24.8944  -20.3530  -10.1887 C   0  0  2  0  0  0  0  0  0  0  0  0
   25.6248  -20.8466  -11.3483 N   0  0  0  0  0  0  0  0  0  0  0  0
   25.2248  -21.2085   -9.0345 C   0  0  0  0  0  0  0  0  0  0  0  0
   24.9045  -20.8441   -7.8855 O   0  0  0  0  0  0  0  0  0  0  0  0
   25.8820  -22.4057   -9.2007 O   0  0  0  0  0  0  0  0  0  0  0  0
  2  3  2  0
  2  1  1  0
  4  3  1  0
  5  4  2  0
  6  5  1  0
  7  6  1  0
  7  9  1  0
  7  8  1  6
  9 10  2  0
  9 13  1  0
 11  5  1  0
 11 12  2  0
 12  2  1  0
 13 14  1  0
 14 15  1  0
 16 15  1  0
 17 13  1  0
 17 16  1  0
 17 18  1  1
 19 18  2  0
 21 20  1  6
 21 22  1  0
 23 21  1  0
 23 24  1  6
 24 18  1  0
 25 23  1  0
 26 25  2  0
 27 25  1  0
M  END
$$$$
