YPV.pdb
     RDKit          3D

 27 28  0  0  1  0  0  0  0  0999 V2000
   20.7502  -12.7312  -18.7729 O   0  0  0  0  0  0  0  0  0  0  0  0
   21.2131  -14.0109  -18.5206 C   0  0  0  0  0  0  0  0  0  0  0  0
   21.8170  -14.3077  -17.3215 C   0  0  0  0  0  0  0  0  0  0  0  0
   22.2717  -15.5914  -17.0912 C   0  0  0  0  0  0  0  0  0  0  0  0
   22.1270  -16.5812  -18.0507 C   0  0  0  0  0  0  0  0  0  0  0  0
   22.6025  -17.9726  -17.8361 C   0  0  0  0  0  0  0  0  0  0  0  0
   24.1110  -18.0242  -18.1075 C   0  0  2  0  0  0  0  0  0  0  0  0
   24.2565  -18.6186  -19.4038 N   0  0  0  0  0  0  0  0  0  0  0  0
   24.8230  -18.7825  -17.0583 C   0  0  0  0  0  0  0  0  0  0  0  0
   24.8060  -20.0581  -17.1628 O   0  0  0  0  0  0  0  0  0  0  0  0
   21.5096  -16.2419  -19.2540 C   0  0  0  0  0  0  0  0  0  0  0  0
   21.0532  -14.9669  -19.4942 C   0  0  0  0  0  0  0  0  0  0  0  0
   25.5025  -18.2238  -15.9785 N   0  0  0  0  0  0  0  0  0  0  0  0
   25.5650  -16.8088  -15.6465 C   0  0  0  0  0  0  0  0  0  0  0  0
   26.9026  -16.6227  -14.9543 C   0  0  0  0  0  0  0  0  0  0  0  0
   27.4137  -17.9823  -14.5916 C   0  0  0  0  0  0  0  0  0  0  0  0
   26.2807  -18.8955  -14.9654 C   0  0  1  0  0  0  0  0  0  0  0  0
   25.4761  -19.2012  -13.7576 C   0  0  0  0  0  0  0  0  0  0  0  0
   24.5613  -18.4386  -13.3413 O   0  0  0  0  0  0  0  0  0  0  0  0
   25.6989  -23.2812  -12.3063 C   0  0  0  0  0  0  0  0  0  0  0  0
   24.4738  -22.3867  -12.4138 C   0  0  2  0  0  0  0  0  0  0  0  0
   23.8427  -22.5624  -13.7627 C   0  0  0  0  0  0  0  0  0  0  0  0
   24.8192  -20.9483  -12.0991 C   0  0  2  0  0  0  0  0  0  0  0  0
   25.7692  -20.4081  -13.0621 N   0  0  0  0  0  0  0  0  0  0  0  0
   25.4354  -20.8955  -10.7609 C   0  0  0  0  0  0  0  0  0  0  0  0
   26.6637  -20.7060  -10.6549 O   0  0  0  0  0  0  0  0  0  0  0  0
   24.6793  -21.0516   -9.6222 O   0  0  0  0  0  0  0  0  0  0  0  0
  2  3  2  0
  2  1  1  0
  4  3  1  0
  5  4  2  0
  6  5  1  0
  7  6  1  0
  7  9  1  0
  7  8  1  6
  9 10  2  0
  9 13  1  0
 11  5  1  0
 11 12  2  0
 12  2  1  0
 13 14  1  0
 14 15  1  0
 16 15  1  0
 17 13  1  0
 17 16  1  0
 17 18  1  1
 19 18  2  0
 21 20  1  6
 21 22  1  0
 23 21  1  0
 23 24  1  6
 24 18  1  0
 25 23  1  0
 26 25  2  0
 27 25  1  0
M  END
$$$$
