YPV.pdb
     RDKit          3D

 27 28  0  0  1  0  0  0  0  0999 V2000
   24.5760  -12.8610  -18.3202 O   0  0  0  0  0  0  0  0  0  0  0  0
   24.3832  -14.0540  -17.6456 C   0  0  0  0  0  0  0  0  0  0  0  0
   25.2379  -14.4271  -16.6353 C   0  0  0  0  0  0  0  0  0  0  0  0
   25.0266  -15.6221  -15.9756 C   0  0  0  0  0  0  0  0  0  0  0  0
   23.9669  -16.4473  -16.3184 C   0  0  0  0  0  0  0  0  0  0  0  0
   23.7088  -17.7382  -15.6293 C   0  0  0  0  0  0  0  0  0  0  0  0
   24.6100  -18.8144  -16.2471 C   0  0  2  0  0  0  0  0  0  0  0  0
   23.7951  -19.5092  -17.1998 N   0  0  0  0  0  0  0  0  0  0  0  0
   25.1603  -19.7163  -15.2143 C   0  0  0  0  0  0  0  0  0  0  0  0
   24.4237  -20.7029  -14.8647 O   0  0  0  0  0  0  0  0  0  0  0  0
   23.1219  -16.0349  -17.3481 C   0  0  0  0  0  0  0  0  0  0  0  0
   23.3228  -14.8472  -18.0118 C   0  0  0  0  0  0  0  0  0  0  0  0
   26.4025  -19.5776  -14.5999 N   0  0  0  0  0  0  0  0  0  0  0  0
   27.3796  -18.5346  -14.8713 C   0  0  0  0  0  0  0  0  0  0  0  0
   28.7279  -19.1710  -14.5886 C   0  0  0  0  0  0  0  0  0  0  0  0
   28.4768  -20.4366  -13.8292 C   0  0  0  0  0  0  0  0  0  0  0  0
   26.9953  -20.4097  -13.5804 C   0  0  1  0  0  0  0  0  0  0  0  0
   26.7348  -19.8891  -12.2163 C   0  0  0  0  0  0  0  0  0  0  0  0
   26.7388  -18.6562  -11.9489 O   0  0  0  0  0  0  0  0  0  0  0  0
   23.5574  -20.9469  -10.8470 C   0  0  0  0  0  0  0  0  0  0  0  0
   24.5443  -21.1777   -9.7134 C   0  0  2  0  0  0  0  0  0  0  0  0
   23.8922  -20.8409   -8.4059 C   0  0  0  0  0  0  0  0  0  0  0  0
   25.8331  -20.4224   -9.9498 C   0  0  2  0  0  0  0  0  0  0  0  0
   26.4728  -20.8400  -11.1900 N   0  0  0  0  0  0  0  0  0  0  0  0
   26.7549  -20.7062   -8.8348 C   0  0  0  0  0  0  0  0  0  0  0  0
   27.5388  -21.6731   -8.9140 O   0  0  0  0  0  0  0  0  0  0  0  0
   26.7673  -19.9223   -7.7043 O   0  0  0  0  0  0  0  0  0  0  0  0
  2  3  2  0
  2  1  1  0
  4  3  1  0
  5  4  2  0
  6  5  1  0
  7  6  1  0
  7  9  1  0
  7  8  1  6
  9 10  2  0
  9 13  1  0
 11  5  1  0
 11 12  2  0
 12  2  1  0
 13 14  1  0
 14 15  1  0
 16 15  1  0
 17 13  1  0
 17 16  1  0
 17 18  1  1
 19 18  2  0
 21 20  1  6
 21 22  1  0
 23 21  1  0
 23 24  1  6
 24 18  1  0
 25 23  1  0
 26 25  2  0
 27 25  1  0
M  END
$$$$
