YPV.pdb
     RDKit          3D

 27 28  0  0  1  0  0  0  0  0999 V2000
   27.6283  -15.3735  -19.2875 O   0  0  0  0  0  0  0  0  0  0  0  0
   27.0782  -16.1306  -18.2679 C   0  0  0  0  0  0  0  0  0  0  0  0
   25.7726  -16.5549  -18.3440 C   0  0  0  0  0  0  0  0  0  0  0  0
   25.2441  -17.3093  -17.3147 C   0  0  0  0  0  0  0  0  0  0  0  0
   26.0113  -17.6430  -16.2095 C   0  0  0  0  0  0  0  0  0  0  0  0
   25.4761  -18.4542  -15.0854 C   0  0  0  0  0  0  0  0  0  0  0  0
   25.9603  -19.9002  -15.2482 C   0  0  2  0  0  0  0  0  0  0  0  0
   24.9609  -20.5627  -16.0336 N   0  0  0  0  0  0  0  0  0  0  0  0
   26.1683  -20.5510  -13.9382 C   0  0  0  0  0  0  0  0  0  0  0  0
   25.2027  -21.2637  -13.4935 O   0  0  0  0  0  0  0  0  0  0  0  0
   27.3309  -17.1944  -16.1684 C   0  0  0  0  0  0  0  0  0  0  0  0
   27.8675  -16.4426  -17.1875 C   0  0  0  0  0  0  0  0  0  0  0  0
   27.3190  -20.4501  -13.1601 N   0  0  0  0  0  0  0  0  0  0  0  0
   28.4998  -19.6616  -13.4771 C   0  0  0  0  0  0  0  0  0  0  0  0
   29.6558  -20.4006  -12.8286 C   0  0  0  0  0  0  0  0  0  0  0  0
   29.0739  -21.3892  -11.8666 C   0  0  0  0  0  0  0  0  0  0  0  0
   27.6031  -21.0838  -11.8949 C   0  0  1  0  0  0  0  0  0  0  0  0
   27.2596  -20.2111  -10.7459 C   0  0  0  0  0  0  0  0  0  0  0  0
   27.3867  -18.9565  -10.7856 O   0  0  0  0  0  0  0  0  0  0  0  0
   24.8601  -21.9525   -7.6449 C   0  0  0  0  0  0  0  0  0  0  0  0
   24.8553  -20.4938   -8.0745 C   0  0  2  0  0  0  0  0  0  0  0  0
   23.8333  -20.2933   -9.1533 C   0  0  0  0  0  0  0  0  0  0  0  0
   26.2411  -20.0378   -8.4728 C   0  0  2  0  0  0  0  0  0  0  0  0
   26.7697  -20.8408   -9.5671 N   0  0  0  0  0  0  0  0  0  0  0  0
   27.1371  -20.1897   -7.3120 C   0  0  0  0  0  0  0  0  0  0  0  0
   27.9734  -21.1150   -7.2957 O   0  0  0  0  0  0  0  0  0  0  0  0
   27.0686  -19.3275   -6.2421 O   0  0  0  0  0  0  0  0  0  0  0  0
  2  3  2  0
  2  1  1  0
  4  3  1  0
  5  4  2  0
  6  5  1  0
  7  6  1  0
  7  9  1  0
  7  8  1  6
  9 10  2  0
  9 13  1  0
 11  5  1  0
 11 12  2  0
 12  2  1  0
 13 14  1  0
 14 15  1  0
 16 15  1  0
 17 13  1  0
 17 16  1  0
 17 18  1  1
 19 18  2  0
 21 20  1  6
 21 22  1  0
 23 21  1  0
 23 24  1  6
 24 18  1  0
 25 23  1  0
 26 25  2  0
 27 25  1  0
M  END
$$$$
