YPV.pdb
     RDKit          3D

 27 28  0  0  1  0  0  0  0  0999 V2000
   20.8466  -16.9822  -18.7963 O   0  0  0  0  0  0  0  0  0  0  0  0
   21.3978  -17.6791  -17.7351 C   0  0  0  0  0  0  0  0  0  0  0  0
   20.8985  -18.9091  -17.3771 C   0  0  0  0  0  0  0  0  0  0  0  0
   21.4639  -19.5869  -16.3146 C   0  0  0  0  0  0  0  0  0  0  0  0
   22.5250  -19.0441  -15.6070 C   0  0  0  0  0  0  0  0  0  0  0  0
   23.1584  -19.7457  -14.4605 C   0  0  0  0  0  0  0  0  0  0  0  0
   24.3360  -20.5778  -14.9828 C   0  0  2  0  0  0  0  0  0  0  0  0
   23.7556  -21.6449  -15.7438 N   0  0  0  0  0  0  0  0  0  0  0  0
   25.1814  -21.0716  -13.8764 C   0  0  0  0  0  0  0  0  0  0  0  0
   24.7592  -22.1054  -13.2509 O   0  0  0  0  0  0  0  0  0  0  0  0
   23.0037  -17.7947  -15.9999 C   0  0  0  0  0  0  0  0  0  0  0  0
   22.4484  -17.1110  -17.0562 C   0  0  0  0  0  0  0  0  0  0  0  0
   26.3866  -20.5063  -13.4667 N   0  0  0  0  0  0  0  0  0  0  0  0
   27.0837  -19.4101  -14.1214 C   0  0  0  0  0  0  0  0  0  0  0  0
   28.5541  -19.6438  -13.8279 C   0  0  0  0  0  0  0  0  0  0  0  0
   28.6373  -20.6554  -12.7274 C   0  0  0  0  0  0  0  0  0  0  0  0
   27.2030  -20.8630  -12.3312 C   0  0  1  0  0  0  0  0  0  0  0  0
   26.8957  -20.0319  -11.1419 C   0  0  0  0  0  0  0  0  0  0  0  0
   26.6810  -18.7910  -11.2190 O   0  0  0  0  0  0  0  0  0  0  0  0
   25.3718  -22.0181   -7.7016 C   0  0  0  0  0  0  0  0  0  0  0  0
   25.1386  -20.5758   -8.1234 C   0  0  2  0  0  0  0  0  0  0  0  0
   23.9700  -20.5113   -9.0607 C   0  0  0  0  0  0  0  0  0  0  0  0
   26.3978  -19.9645   -8.6961 C   0  0  2  0  0  0  0  0  0  0  0  0
   26.8473  -20.6863   -9.8788 N   0  0  0  0  0  0  0  0  0  0  0  0
   27.4607  -20.0375   -7.6771 C   0  0  0  0  0  0  0  0  0  0  0  0
   28.3728  -20.8797   -7.7970 O   0  0  0  0  0  0  0  0  0  0  0  0
   27.4661  -19.1916   -6.5921 O   0  0  0  0  0  0  0  0  0  0  0  0
  2  3  2  0
  2  1  1  0
  4  3  1  0
  5  4  2  0
  6  5  1  0
  7  6  1  0
  7  9  1  0
  7  8  1  1
  9 10  2  0
  9 13  1  0
 11  5  1  0
 11 12  2  0
 12  2  1  0
 13 14  1  0
 14 15  1  0
 16 15  1  0
 17 13  1  0
 17 16  1  0
 17 18  1  1
 19 18  2  0
 21 20  1  6
 21 22  1  0
 23 21  1  0
 23 24  1  6
 24 18  1  0
 25 23  1  0
 26 25  2  0
 27 25  1  0
M  END
$$$$
