AQL.pdb
     RDKit          3D

 23 22  0  0  1  0  0  0  0  0999 V2000
    7.0519  -14.1260   19.5243 C   0  0  0  0  0  0  0  0  0  0  0  0
    7.4345  -15.5873   19.4430 C   0  0  2  0  0  0  0  0  0  0  0  0
    6.3189  -16.2938   18.8514 N   0  0  0  0  0  0  0  0  0  0  0  0
    7.7396  -16.0717   20.8109 C   0  0  0  0  0  0  0  0  0  0  0  0
    6.8470  -16.4001   21.6364 O   0  0  0  0  0  0  0  0  0  0  0  0
   13.1389  -19.5545   22.9276 N   0  0  0  0  0  0  0  0  0  0  0  0
   12.8817  -18.1982   23.3483 C   0  0  0  0  0  0  0  0  0  0  0  0
   13.8561  -17.4306   23.4960 O   0  0  0  0  0  0  0  0  0  0  0  0
   11.4953  -17.7421   23.5948 C   0  0  0  0  0  0  0  0  0  0  0  0
   10.9351  -17.2054   22.3173 C   0  0  0  0  0  0  0  0  0  0  0  0
    9.5332  -16.6616   22.4815 C   0  0  2  0  0  0  0  0  0  0  0  0
    9.0846  -16.1731   21.2161 N   0  0  0  0  0  0  0  0  0  0  0  0
    9.5375  -15.6406   23.5465 C   0  0  0  0  0  0  0  0  0  0  0  0
   10.1067  -14.5388   23.3321 O   0  0  0  0  0  0  0  0  0  0  0  0
    5.6691  -12.8172   26.9078 C   0  0  0  0  0  0  0  0  0  0  0  0
    7.1293  -13.0194   26.6185 C   0  0  2  0  0  0  0  0  0  0  0  0
    7.7687  -11.7150   26.2762 C   0  0  0  0  0  0  0  0  0  0  0  0
    7.4707  -14.1794   25.7847 C   0  0  0  0  0  0  0  0  0  0  0  0
    8.8411  -14.7316   25.8119 C   0  0  2  0  0  0  0  0  0  0  0  0
    8.9327  -15.8203   24.8184 N   0  0  0  0  0  0  0  0  0  0  0  0
    9.3314  -15.2825   27.0757 C   0  0  0  0  0  0  0  0  0  0  0  0
   10.1425  -14.6436   27.9984 O   0  0  0  0  0  0  0  0  0  0  0  0
    9.0084  -16.4774   27.4080 O   0  0  0  0  0  0  0  0  0  0  0  0
  2  1  1  1
  2  3  1  0
  4  2  1  0
  5  4  2  0
  6  7  1  0
  7  8  2  0
  7  9  1  0
  9 10  1  0
 11 10  1  6
 11 13  1  0
 11 12  1  0
 12  4  1  0
 13 20  1  0
 14 13  2  0
 16 15  1  6
 17 16  1  0
 18 16  1  0
 19 18  1  1
 19 21  1  0
 20 19  1  0
 21 22  1  0
 23 21  2  0
M  END
$$$$
