AQL.pdb
     RDKit          3D

 23 22  0  0  1  0  0  0  0  0999 V2000
    8.2253  -12.2119   19.5604 C   0  0  0  0  0  0  0  0  0  0  0  0
    8.4455  -13.6462   19.1329 C   0  0  2  0  0  0  0  0  0  0  0  0
    7.5893  -13.8936   17.9930 N   0  0  0  0  0  0  0  0  0  0  0  0
    8.1230  -14.5337   20.2761 C   0  0  0  0  0  0  0  0  0  0  0  0
    6.9579  -14.9480   20.5144 O   0  0  0  0  0  0  0  0  0  0  0  0
   10.9805  -19.7439   21.6388 N   0  0  0  0  0  0  0  0  0  0  0  0
   10.6069  -18.8978   20.5310 C   0  0  0  0  0  0  0  0  0  0  0  0
   11.1443  -19.1043   19.4224 O   0  0  0  0  0  0  0  0  0  0  0  0
    9.6122  -17.8176   20.7176 C   0  0  0  0  0  0  0  0  0  0  0  0
    9.9806  -17.0344   21.9360 C   0  0  0  0  0  0  0  0  0  0  0  0
    9.0286  -15.8889   22.1995 C   0  0  2  0  0  0  0  0  0  0  0  0
    9.1583  -14.9381   21.1411 N   0  0  0  0  0  0  0  0  0  0  0  0
    9.3077  -15.3327   23.5372 C   0  0  0  0  0  0  0  0  0  0  0  0
   10.4610  -14.8950   23.7867 O   0  0  0  0  0  0  0  0  0  0  0  0
    8.3879  -11.6820   25.8594 C   0  0  0  0  0  0  0  0  0  0  0  0
    7.2629  -12.6775   25.8739 C   0  0  2  0  0  0  0  0  0  0  0  0
    5.9952  -12.0112   26.2937 C   0  0  0  0  0  0  0  0  0  0  0  0
    7.5650  -13.9889   26.4625 C   0  0  0  0  0  0  0  0  0  0  0  0
    8.6890  -14.7928   25.9391 C   0  0  2  0  0  0  0  0  0  0  0  0
    8.3467  -15.2567   24.5795 N   0  0  0  0  0  0  0  0  0  0  0  0
    9.0893  -15.9811   26.6931 C   0  0  0  0  0  0  0  0  0  0  0  0
    9.1227  -17.2849   26.2279 O   0  0  0  0  0  0  0  0  0  0  0  0
    9.4519  -15.8570   27.9161 O   0  0  0  0  0  0  0  0  0  0  0  0
  2  1  1  1
  2  3  1  0
  4  2  1  0
  5  4  2  0
  6  7  1  0
  7  8  2  0
  7  9  1  0
  9 10  1  0
 11 10  1  6
 11 13  1  0
 11 12  1  0
 12  4  1  0
 13 20  1  0
 14 13  2  0
 16 15  1  1
 17 16  1  0
 18 16  1  0
 19 18  1  1
 19 21  1  0
 20 19  1  0
 21 22  1  0
 23 21  2  0
M  END
$$$$
