AQL.pdb
     RDKit          3D

 23 22  0  0  1  0  0  0  0  0999 V2000
    7.4581  -13.1826   18.1601 C   0  0  0  0  0  0  0  0  0  0  0  0
    8.6838  -13.3615   19.0285 C   0  0  2  0  0  0  0  0  0  0  0  0
    9.6666  -14.0797   18.2461 N   0  0  0  0  0  0  0  0  0  0  0  0
    8.2917  -14.1046   20.2502 C   0  0  0  0  0  0  0  0  0  0  0  0
    7.3841  -13.7114   21.0297 O   0  0  0  0  0  0  0  0  0  0  0  0
   11.1790  -18.8554   20.0712 N   0  0  0  0  0  0  0  0  0  0  0  0
    9.8144  -19.3027   20.2144 C   0  0  0  0  0  0  0  0  0  0  0  0
    9.4706  -20.3488   19.6246 O   0  0  0  0  0  0  0  0  0  0  0  0
    8.8581  -18.5328   21.0413 C   0  0  0  0  0  0  0  0  0  0  0  0
    9.5708  -17.3553   21.6238 C   0  0  0  0  0  0  0  0  0  0  0  0
    8.6929  -16.1261   21.7024 C   0  0  2  0  0  0  0  0  0  0  0  0
    8.9574  -15.3057   20.5630 N   0  0  0  0  0  0  0  0  0  0  0  0
    8.9309  -15.4495   22.9916 C   0  0  0  0  0  0  0  0  0  0  0  0
   10.0472  -14.9060   23.1976 O   0  0  0  0  0  0  0  0  0  0  0  0
    5.6615  -12.1219   26.9029 C   0  0  0  0  0  0  0  0  0  0  0  0
    6.9606  -12.8374   26.6638 C   0  0  2  0  0  0  0  0  0  0  0  0
    8.1048  -11.8986   26.8555 C   0  0  0  0  0  0  0  0  0  0  0  0
    7.0049  -13.7286   25.4971 C   0  0  0  0  0  0  0  0  0  0  0  0
    8.1934  -14.5732   25.2569 C   0  0  2  0  0  0  0  0  0  0  0  0
    7.9695  -15.3688   24.0331 N   0  0  0  0  0  0  0  0  0  0  0  0
    8.5810  -15.5215   26.3017 C   0  0  0  0  0  0  0  0  0  0  0  0
    8.4561  -16.8999   26.2569 O   0  0  0  0  0  0  0  0  0  0  0  0
    9.0901  -15.0817   27.3924 O   0  0  0  0  0  0  0  0  0  0  0  0
  2  1  1  6
  2  3  1  0
  4  2  1  0
  5  4  2  0
  6  7  1  0
  7  8  2  0
  7  9  1  0
  9 10  1  0
 11 10  1  6
 11 13  1  0
 11 12  1  0
 12  4  1  0
 13 20  1  0
 14 13  2  0
 16 15  1  6
 17 16  1  0
 18 16  1  0
 19 18  1  1
 19 21  1  0
 20 19  1  0
 21 22  1  0
 23 21  2  0
M  END
$$$$
