AQL.pdb
     RDKit          3D

 23 22  0  0  1  0  0  0  0  0999 V2000
    8.4763  -12.6305   19.3784 C   0  0  0  0  0  0  0  0  0  0  0  0
    8.4229  -14.1282   19.1721 C   0  0  2  0  0  0  0  0  0  0  0  0
    7.7176  -14.3686   17.9318 N   0  0  0  0  0  0  0  0  0  0  0  0
    7.7334  -14.7398   20.3337 C   0  0  0  0  0  0  0  0  0  0  0  0
    6.4803  -14.7503   20.4589 O   0  0  0  0  0  0  0  0  0  0  0  0
    4.7800  -18.0794   21.9132 N   0  0  0  0  0  0  0  0  0  0  0  0
    6.0593  -18.2740   22.5522 C   0  0  0  0  0  0  0  0  0  0  0  0
    6.0786  -18.4884   23.7826 O   0  0  0  0  0  0  0  0  0  0  0  0
    7.3076  -18.2185   21.7585 C   0  0  0  0  0  0  0  0  0  0  0  0
    8.3176  -17.4155   22.5128 C   0  0  0  0  0  0  0  0  0  0  0  0
    7.9857  -15.9400   22.5364 C   0  0  2  0  0  0  0  0  0  0  0  0
    8.5044  -15.3389   21.3487 N   0  0  0  0  0  0  0  0  0  0  0  0
    8.5135  -15.3506   23.7816 C   0  0  0  0  0  0  0  0  0  0  0  0
    9.7544  -15.1729   23.8935 O   0  0  0  0  0  0  0  0  0  0  0  0
    7.7979  -11.4112   25.8019 C   0  0  0  0  0  0  0  0  0  0  0  0
    6.7515  -12.4029   26.2243 C   0  0  2  0  0  0  0  0  0  0  0  0
    5.6269  -11.7001   26.9089 C   0  0  0  0  0  0  0  0  0  0  0  0
    7.2440  -13.6452   26.8340 C   0  0  0  0  0  0  0  0  0  0  0  0
    8.2721  -14.4508   26.1429 C   0  0  2  0  0  0  0  0  0  0  0  0
    7.7023  -14.9637   24.8808 N   0  0  0  0  0  0  0  0  0  0  0  0
    8.8226  -15.6082   26.8487 C   0  0  0  0  0  0  0  0  0  0  0  0
    9.8560  -15.6017   27.7705 O   0  0  0  0  0  0  0  0  0  0  0  0
    8.3355  -16.7720   26.6234 O   0  0  0  0  0  0  0  0  0  0  0  0
  2  1  1  1
  2  3  1  0
  4  2  1  0
  5  4  2  0
  6  7  1  0
  7  8  2  0
  7  9  1  0
  9 10  1  0
 11 10  1  6
 11 13  1  0
 11 12  1  0
 12  4  1  0
 13 20  1  0
 14 13  2  0
 16 15  1  1
 17 16  1  0
 18 16  1  0
 19 18  1  1
 19 21  1  0
 20 19  1  0
 21 22  1  0
 23 21  2  0
M  END
$$$$
