AQL.pdb
     RDKit          3D

 23 22  0  0  1  0  0  0  0  0999 V2000
    8.2613  -12.0997   19.5895 C   0  0  0  0  0  0  0  0  0  0  0  0
    8.4876  -13.5390   19.1824 C   0  0  2  0  0  0  0  0  0  0  0  0
    7.6234  -13.8098   18.0538 N   0  0  0  0  0  0  0  0  0  0  0  0
    8.1808  -14.4108   20.3419 C   0  0  0  0  0  0  0  0  0  0  0  0
    7.0132  -14.7877   20.6258 O   0  0  0  0  0  0  0  0  0  0  0  0
   11.7896  -18.9465   21.2913 N   0  0  0  0  0  0  0  0  0  0  0  0
   10.9153  -19.1534   22.4207 C   0  0  0  0  0  0  0  0  0  0  0  0
   10.9808  -20.2438   23.0266 O   0  0  0  0  0  0  0  0  0  0  0  0
    9.9710  -18.0931   22.8392 C   0  0  0  0  0  0  0  0  0  0  0  0
   10.1387  -16.9185   21.9305 C   0  0  0  0  0  0  0  0  0  0  0  0
    9.1276  -15.8265   22.2008 C   0  0  2  0  0  0  0  0  0  0  0  0
    9.2348  -14.8431   21.1700 N   0  0  0  0  0  0  0  0  0  0  0  0
    9.3504  -15.2932   23.5582 C   0  0  0  0  0  0  0  0  0  0  0  0
   10.4920  -14.8595   23.8627 O   0  0  0  0  0  0  0  0  0  0  0  0
    8.2129  -11.6938   25.9820 C   0  0  0  0  0  0  0  0  0  0  0  0
    7.0952  -12.6968   25.9444 C   0  0  2  0  0  0  0  0  0  0  0  0
    5.8317  -12.0739   26.4372 C   0  0  0  0  0  0  0  0  0  0  0  0
    7.4178  -14.0458   26.4280 C   0  0  0  0  0  0  0  0  0  0  0  0
    8.6202  -14.7429   25.9262 C   0  0  2  0  0  0  0  0  0  0  0  0
    8.3470  -15.2351   24.5610 N   0  0  0  0  0  0  0  0  0  0  0  0
    9.1136  -15.8903   26.6886 C   0  0  0  0  0  0  0  0  0  0  0  0
    9.9652  -15.8552   27.7799 O   0  0  0  0  0  0  0  0  0  0  0  0
    8.7528  -17.0724   26.3496 O   0  0  0  0  0  0  0  0  0  0  0  0
  2  1  1  1
  2  3  1  0
  4  2  1  0
  5  4  2  0
  6  7  1  0
  7  8  2  0
  7  9  1  0
  9 10  1  0
 11 10  1  6
 11 13  1  0
 11 12  1  0
 12  4  1  0
 13 20  1  0
 14 13  2  0
 16 15  1  1
 17 16  1  0
 18 16  1  0
 19 18  1  1
 19 21  1  0
 20 19  1  0
 21 22  1  0
 23 21  2  0
M  END
$$$$
