AQL.pdb
     RDKit          3D

 23 22  0  0  1  0  0  0  0  0999 V2000
    8.1687  -12.1678   19.6325 C   0  0  0  0  0  0  0  0  0  0  0  0
    8.3368  -13.6007   19.1775 C   0  0  2  0  0  0  0  0  0  0  0  0
    7.4286  -13.8121   18.0711 N   0  0  0  0  0  0  0  0  0  0  0  0
    8.0406  -14.4964   20.3215 C   0  0  0  0  0  0  0  0  0  0  0  0
    6.8722  -14.8519   20.6287 O   0  0  0  0  0  0  0  0  0  0  0  0
   11.7664  -19.6627   23.6393 N   0  0  0  0  0  0  0  0  0  0  0  0
   10.8751  -19.1781   22.6129 C   0  0  0  0  0  0  0  0  0  0  0  0
   10.9829  -19.6551   21.4634 O   0  0  0  0  0  0  0  0  0  0  0  0
    9.8648  -18.1431   22.9276 C   0  0  0  0  0  0  0  0  0  0  0  0
   10.0021  -17.0270   21.9432 C   0  0  0  0  0  0  0  0  0  0  0  0
    8.9892  -15.9265   22.1685 C   0  0  2  0  0  0  0  0  0  0  0  0
    9.1061  -14.9775   21.1069 N   0  0  0  0  0  0  0  0  0  0  0  0
    9.2003  -15.3489   23.5095 C   0  0  0  0  0  0  0  0  0  0  0  0
   10.3246  -14.8589   23.7919 O   0  0  0  0  0  0  0  0  0  0  0  0
    7.7519  -11.7583   26.1818 C   0  0  0  0  0  0  0  0  0  0  0  0
    6.7670  -12.8771   25.9942 C   0  0  2  0  0  0  0  0  0  0  0  0
    5.4075  -12.4403   26.4280 C   0  0  0  0  0  0  0  0  0  0  0  0
    7.2145  -14.2119   26.4132 C   0  0  0  0  0  0  0  0  0  0  0  0
    8.4688  -14.7748   25.8715 C   0  0  2  0  0  0  0  0  0  0  0  0
    8.2038  -15.3078   24.5200 N   0  0  0  0  0  0  0  0  0  0  0  0
    9.1149  -15.8523   26.6216 C   0  0  0  0  0  0  0  0  0  0  0  0
    9.0718  -17.2054   26.3308 O   0  0  0  0  0  0  0  0  0  0  0  0
    9.8006  -15.5675   27.6662 O   0  0  0  0  0  0  0  0  0  0  0  0
  2  1  1  1
  2  3  1  0
  4  2  1  0
  5  4  2  0
  6  7  1  0
  7  8  2  0
  7  9  1  0
  9 10  1  0
 11 10  1  6
 11 13  1  0
 11 12  1  0
 12  4  1  0
 13 20  1  0
 14 13  2  0
 16 15  1  1
 17 16  1  0
 18 16  1  0
 19 18  1  1
 19 21  1  0
 20 19  1  0
 21 22  1  0
 23 21  2  0
M  END
$$$$
