AQL.pdb
     RDKit          3D

 23 22  0  0  1  0  0  0  0  0999 V2000
    8.3291  -12.0736   19.6006 C   0  0  0  0  0  0  0  0  0  0  0  0
    8.6031  -13.5001   19.1781 C   0  0  2  0  0  0  0  0  0  0  0  0
    7.9033  -13.7234   17.9314 N   0  0  0  0  0  0  0  0  0  0  0  0
    8.1337  -14.4084   20.2520 C   0  0  0  0  0  0  0  0  0  0  0  0
    6.9253  -14.7325   20.3956 O   0  0  0  0  0  0  0  0  0  0  0  0
    8.8706  -18.8836   19.8782 N   0  0  0  0  0  0  0  0  0  0  0  0
    8.1628  -18.8971   21.1357 C   0  0  0  0  0  0  0  0  0  0  0  0
    7.0109  -19.3798   21.1602 O   0  0  0  0  0  0  0  0  0  0  0  0
    8.7967  -18.3501   22.3564 C   0  0  0  0  0  0  0  0  0  0  0  0
    9.5658  -17.1233   21.9862 C   0  0  0  0  0  0  0  0  0  0  0  0
    8.7776  -15.8529   22.2154 C   0  0  2  0  0  0  0  0  0  0  0  0
    9.0726  -14.9385   21.1581 N   0  0  0  0  0  0  0  0  0  0  0  0
    9.0913  -15.3308   23.5591 C   0  0  0  0  0  0  0  0  0  0  0  0
   10.2781  -15.0077   23.8256 O   0  0  0  0  0  0  0  0  0  0  0  0
    7.7236  -11.7014   25.9596 C   0  0  0  0  0  0  0  0  0  0  0  0
    6.7498  -12.8392   26.0774 C   0  0  2  0  0  0  0  0  0  0  0  0
    5.4695  -12.3576   26.6741 C   0  0  0  0  0  0  0  0  0  0  0  0
    7.2935  -14.1090   26.5769 C   0  0  0  0  0  0  0  0  0  0  0  0
    8.4902  -14.7008   25.9435 C   0  0  2  0  0  0  0  0  0  0  0  0
    8.1284  -15.1654   24.5893 N   0  0  0  0  0  0  0  0  0  0  0  0
    9.1284  -15.8346   26.6131 C   0  0  0  0  0  0  0  0  0  0  0  0
   10.0317  -15.7762   27.6610 O   0  0  0  0  0  0  0  0  0  0  0  0
    8.8601  -17.0261   26.2249 O   0  0  0  0  0  0  0  0  0  0  0  0
  2  1  1  1
  2  3  1  0
  4  2  1  0
  5  4  2  0
  6  7  1  0
  7  8  2  0
  7  9  1  0
  9 10  1  0
 11 10  1  6
 11 13  1  0
 11 12  1  0
 12  4  1  0
 13 20  1  0
 14 13  2  0
 16 15  1  1
 17 16  1  0
 18 16  1  0
 19 18  1  1
 19 21  1  0
 20 19  1  0
 21 22  1  0
 23 21  2  0
M  END
$$$$
