AQL.pdb
     RDKit          3D

 23 22  0  0  1  0  0  0  0  0999 V2000
    8.2530  -12.0577   19.5117 C   0  0  0  0  0  0  0  0  0  0  0  0
    8.5054  -13.4868   19.0846 C   0  0  2  0  0  0  0  0  0  0  0  0
    7.7105  -13.7307   17.9004 N   0  0  0  0  0  0  0  0  0  0  0  0
    8.1313  -14.3861   20.2027 C   0  0  0  0  0  0  0  0  0  0  0  0
    6.9702  -14.8515   20.3485 O   0  0  0  0  0  0  0  0  0  0  0  0
   11.6394  -18.8765   21.3015 N   0  0  0  0  0  0  0  0  0  0  0  0
   10.7578  -19.0691   22.4277 C   0  0  0  0  0  0  0  0  0  0  0  0
   10.8597  -20.1274   23.0835 O   0  0  0  0  0  0  0  0  0  0  0  0
    9.7639  -18.0321   22.7851 C   0  0  0  0  0  0  0  0  0  0  0  0
    9.9174  -16.8798   21.8457 C   0  0  0  0  0  0  0  0  0  0  0  0
    8.9628  -15.7480   22.1546 C   0  0  2  0  0  0  0  0  0  0  0  0
    9.1103  -14.7427   21.1503 N   0  0  0  0  0  0  0  0  0  0  0  0
    9.2213  -15.2641   23.5241 C   0  0  0  0  0  0  0  0  0  0  0  0
   10.3541  -14.7895   23.7990 O   0  0  0  0  0  0  0  0  0  0  0  0
    7.9508  -11.7497   25.9896 C   0  0  0  0  0  0  0  0  0  0  0  0
    6.9152  -12.8376   25.9572 C   0  0  2  0  0  0  0  0  0  0  0  0
    5.6018  -12.3083   26.4283 C   0  0  0  0  0  0  0  0  0  0  0  0
    7.3371  -14.1498   26.4650 C   0  0  0  0  0  0  0  0  0  0  0  0
    8.5536  -14.7940   25.9276 C   0  0  2  0  0  0  0  0  0  0  0  0
    8.2624  -15.2982   24.5705 N   0  0  0  0  0  0  0  0  0  0  0  0
    9.1187  -15.9184   26.6742 C   0  0  0  0  0  0  0  0  0  0  0  0
    9.1416  -17.2459   26.2808 O   0  0  0  0  0  0  0  0  0  0  0  0
    9.6568  -15.7066   27.8179 O   0  0  0  0  0  0  0  0  0  0  0  0
  2  1  1  1
  2  3  1  0
  4  2  1  0
  5  4  2  0
  6  7  1  0
  7  8  2  0
  7  9  1  0
  9 10  1  0
 11 10  1  6
 11 13  1  0
 11 12  1  0
 12  4  1  0
 13 20  1  0
 14 13  2  0
 16 15  1  1
 17 16  1  0
 18 16  1  0
 19 18  1  1
 19 21  1  0
 20 19  1  0
 21 22  1  0
 23 21  2  0
M  END
$$$$
