AQL.pdb
     RDKit          3D

 23 22  0  0  1  0  0  0  0  0999 V2000
    7.5677  -12.9653   18.0361 C   0  0  0  0  0  0  0  0  0  0  0  0
    8.7458  -13.3870   18.8861 C   0  0  2  0  0  0  0  0  0  0  0  0
    9.5270  -14.3237   18.1076 N   0  0  0  0  0  0  0  0  0  0  0  0
    8.2313  -13.9940   20.1373 C   0  0  0  0  0  0  0  0  0  0  0  0
    7.5311  -13.3589   20.9694 O   0  0  0  0  0  0  0  0  0  0  0  0
    9.2114  -20.0259   22.0617 N   0  0  0  0  0  0  0  0  0  0  0  0
   10.2820  -19.0960   21.7942 C   0  0  0  0  0  0  0  0  0  0  0  0
   11.4583  -19.5010   21.9067 O   0  0  0  0  0  0  0  0  0  0  0  0
    9.9801  -17.7021   21.3978 C   0  0  0  0  0  0  0  0  0  0  0  0
    8.4976  -17.5128   21.4098 C   0  0  0  0  0  0  0  0  0  0  0  0
    8.0990  -16.0628   21.5722 C   0  0  2  0  0  0  0  0  0  0  0  0
    8.5330  -15.3407   20.4183 N   0  0  0  0  0  0  0  0  0  0  0  0
    8.6567  -15.5520   22.8389 C   0  0  0  0  0  0  0  0  0  0  0  0
    9.8570  -15.1745   22.8680 O   0  0  0  0  0  0  0  0  0  0  0  0
    7.8434  -12.9292   27.6931 C   0  0  0  0  0  0  0  0  0  0  0  0
    7.2001  -12.5640   26.3856 C   0  0  2  0  0  0  0  0  0  0  0  0
    5.9794  -11.7405   26.6280 C   0  0  0  0  0  0  0  0  0  0  0  0
    7.1047  -13.6376   25.3877 C   0  0  0  0  0  0  0  0  0  0  0  0
    8.2725  -14.5018   25.1177 C   0  0  2  0  0  0  0  0  0  0  0  0
    7.9183  -15.4560   24.0477 N   0  0  0  0  0  0  0  0  0  0  0  0
    8.8035  -15.2990   26.2238 C   0  0  0  0  0  0  0  0  0  0  0  0
    8.3567  -16.5426   26.6377 O   0  0  0  0  0  0  0  0  0  0  0  0
    9.7813  -14.8424   26.9151 O   0  0  0  0  0  0  0  0  0  0  0  0
  2  1  1  6
  2  3  1  0
  4  2  1  0
  5  4  2  0
  6  7  1  0
  7  8  2  0
  7  9  1  0
  9 10  1  0
 11 10  1  6
 11 13  1  0
 11 12  1  0
 12  4  1  0
 13 20  1  0
 14 13  2  0
 16 15  1  1
 17 16  1  0
 18 16  1  0
 19 18  1  1
 19 21  1  0
 20 19  1  0
 21 22  1  0
 23 21  2  0
M  END
$$$$
