AQL.pdb
     RDKit          3D

 23 22  0  0  1  0  0  0  0  0999 V2000
    8.5370  -12.6060   19.4867 C   0  0  0  0  0  0  0  0  0  0  0  0
    8.4450  -14.1058   19.3116 C   0  0  2  0  0  0  0  0  0  0  0  0
    7.7073  -14.3539   18.0918 N   0  0  0  0  0  0  0  0  0  0  0  0
    7.7676  -14.6786   20.4997 C   0  0  0  0  0  0  0  0  0  0  0  0
    6.5538  -14.4705   20.7630 O   0  0  0  0  0  0  0  0  0  0  0  0
    6.1782  -19.4140   23.8515 N   0  0  0  0  0  0  0  0  0  0  0  0
    6.1508  -18.5314   22.7101 C   0  0  0  0  0  0  0  0  0  0  0  0
    5.0923  -17.9148   22.4654 O   0  0  0  0  0  0  0  0  0  0  0  0
    7.3521  -18.3704   21.8604 C   0  0  0  0  0  0  0  0  0  0  0  0
    8.3520  -17.5412   22.5995 C   0  0  0  0  0  0  0  0  0  0  0  0
    8.0060  -16.0688   22.5893 C   0  0  2  0  0  0  0  0  0  0  0  0
    8.5049  -15.4935   21.3805 N   0  0  0  0  0  0  0  0  0  0  0  0
    8.5426  -15.4426   23.8126 C   0  0  0  0  0  0  0  0  0  0  0  0
    9.7691  -15.1659   23.8679 O   0  0  0  0  0  0  0  0  0  0  0  0
    7.7985  -11.5097   25.7943 C   0  0  0  0  0  0  0  0  0  0  0  0
    6.7778  -12.5256   26.2220 C   0  0  2  0  0  0  0  0  0  0  0  0
    5.6242  -11.8458   26.8812 C   0  0  0  0  0  0  0  0  0  0  0  0
    7.3004  -13.7415   26.8590 C   0  0  0  0  0  0  0  0  0  0  0  0
    8.3366  -14.5456   26.1783 C   0  0  2  0  0  0  0  0  0  0  0  0
    7.7554  -15.1256   24.9509 N   0  0  0  0  0  0  0  0  0  0  0  0
    8.9350  -15.6573   26.9179 C   0  0  0  0  0  0  0  0  0  0  0  0
    9.9263  -15.5730   27.8811 O   0  0  0  0  0  0  0  0  0  0  0  0
    8.5383  -16.8534   26.6848 O   0  0  0  0  0  0  0  0  0  0  0  0
  2  1  1  1
  2  3  1  0
  4  2  1  0
  5  4  2  0
  6  7  1  0
  7  8  2  0
  7  9  1  0
  9 10  1  0
 11 10  1  1
 11 13  1  0
 11 12  1  0
 12  4  1  0
 13 20  1  0
 14 13  2  0
 16 15  1  1
 17 16  1  0
 18 16  1  0
 19 18  1  1
 19 21  1  0
 20 19  1  0
 21 22  1  0
 23 21  2  0
M  END
$$$$
