RRD.pdb
     RDKit          3D

 31 30  0  0  1  0  0  0  0  0999 V2000
   30.4174  -22.0791   -8.5245 N   0  0  0  0  0  0  0  0  0  0  0  0
   31.1597  -22.3140   -9.7272 C   0  0  0  0  0  0  0  0  0  0  0  0
   32.4317  -22.4513   -9.5863 N   0  0  0  0  0  0  0  0  0  0  0  0
   30.4636  -22.3815  -10.9403 N   0  0  0  0  0  0  0  0  0  0  0  0
   28.9885  -22.2731  -10.8917 C   0  0  0  0  0  0  0  0  0  0  0  0
   28.5971  -20.8291  -11.0048 C   0  0  0  0  0  0  0  0  0  0  0  0
   27.1539  -20.5471  -10.9049 C   0  0  0  0  0  0  0  0  0  0  0  0
   26.2250  -21.4135  -11.7077 C   0  0  2  0  0  0  0  0  0  0  0  0
   26.9517  -22.3431  -12.5035 N   0  0  0  0  0  0  0  0  0  0  0  0
   25.2944  -20.5539  -12.4493 C   0  0  0  0  0  0  0  0  0  0  0  0
   24.6290  -19.6789  -11.8353 O   0  0  0  0  0  0  0  0  0  0  0  0
   33.0120  -22.5315  -10.4470 N   0  0  0  0  0  0  0  0  0  0  0  0
   22.2861  -18.6699  -20.1771 C   0  0  0  0  0  0  0  0  0  0  0  0
   22.1431  -17.3855  -19.6083 N   0  0  0  0  0  0  0  0  0  0  0  0
   21.2901  -16.5371  -20.1156 N   0  0  0  0  0  0  0  0  0  0  0  0
   22.9267  -16.9882  -18.4635 C   0  0  0  0  0  0  0  0  0  0  0  0
   23.8383  -17.9080  -17.8634 C   0  0  0  0  0  0  0  0  0  0  0  0
   23.3880  -18.3304  -16.4603 C   0  0  0  0  0  0  0  0  0  0  0  0
   24.4037  -19.2860  -15.8751 C   0  0  2  0  0  0  0  0  0  0  0  0
   24.1128  -19.7838  -14.5246 N   0  0  0  0  0  0  0  0  0  0  0  0
   25.0515  -20.6075  -13.8571 C   0  0  0  0  0  0  0  0  0  0  0  0
   22.7972  -20.5169  -14.5734 O   0  0  0  0  0  0  0  0  0  0  0  0
   22.7482  -21.5946  -15.2078 N   0  0  0  0  0  0  0  0  0  0  0  0
   21.0812  -15.6176  -19.7185 C   0  0  2  0  0  0  0  0  0  0  0  0
   21.6253  -20.0560  -13.9460 C   0  0  0  0  0  0  0  0  0  0  0  0
   20.3636  -20.7811  -13.9811 C   0  0  0  0  0  0  0  0  0  0  0  0
   19.8895  -20.9810  -12.5452 O   0  0  0  0  0  0  0  0  0  0  0  0
   19.4495  -22.3825  -12.3599 C   0  0  0  0  0  0  0  0  0  0  0  0
   19.5563  -23.1520  -13.3741 O   0  0  0  0  0  0  0  0  0  0  0  0
   19.3528  -20.1059  -14.7965 O   0  0  0  0  0  0  0  0  0  0  0  0
   19.1511  -18.8853  -14.7025 O   0  0  0  0  0  0  0  0  0  0  0  0
  2  1  1  0
  3  2  2  0
  4  2  1  0
  5  4  1  0
  6  5  1  0
  7  6  1  0
  8  7  1  0
  8  9  1  6
  8 10  1  0
 10 11  2  0
 13 14  2  0
 13 12  1  0
 15 13  1  0
 16 15  1  0
 16 17  1  0
 18 17  1  0
 19 18  1  1
 19 21  1  0
 20 10  1  0
 20 19  1  0
 21 23  1  0
 22 21  2  0
 23 24  1  0
 24 25  1  6
 25 26  1  0
 26 27  2  0
 28 24  1  0
 28 31  1  0
 29 28  2  0
 30 26  1  0
M  END
$$$$
