RRD.pdb
     RDKit          3D

 31 30  0  0  1  0  0  0  0  0999 V2000
   27.7048  -25.1010  -17.1032 N   0  0  0  0  0  0  0  0  0  0  0  0
   26.7306  -26.1243  -16.8653 C   0  0  0  0  0  0  0  0  0  0  0  0
   27.1740  -27.3325  -16.8549 N   0  0  0  0  0  0  0  0  0  0  0  0
   25.3985  -25.7448  -16.6601 N   0  0  0  0  0  0  0  0  0  0  0  0
   25.1401  -24.3515  -16.2334 C   0  0  0  0  0  0  0  0  0  0  0  0
   25.0683  -24.3007  -14.7356 C   0  0  0  0  0  0  0  0  0  0  0  0
   24.7397  -22.9867  -14.1544 C   0  0  0  0  0  0  0  0  0  0  0  0
   25.1964  -21.7674  -14.9046 C   0  0  2  0  0  0  0  0  0  0  0  0
   26.4473  -21.3013  -14.4110 N   0  0  0  0  0  0  0  0  0  0  0  0
   24.1164  -20.7733  -14.8996 C   0  0  0  0  0  0  0  0  0  0  0  0
   23.8096  -20.1905  -13.8263 O   0  0  0  0  0  0  0  0  0  0  0  0
   26.4983  -28.0985  -16.6533 N   0  0  0  0  0  0  0  0  0  0  0  0
   20.6798  -13.9550  -17.8526 C   0  0  0  0  0  0  0  0  0  0  0  0
   19.7608  -14.5072  -16.9338 N   0  0  0  0  0  0  0  0  0  0  0  0
   18.4884  -14.2334  -17.0372 N   0  0  0  0  0  0  0  0  0  0  0  0
   20.2036  -15.3798  -15.8732 C   0  0  0  0  0  0  0  0  0  0  0  0
   20.5003  -16.7489  -16.1469 C   0  0  0  0  0  0  0  0  0  0  0  0
   21.9928  -16.9701  -16.4184 C   0  0  0  0  0  0  0  0  0  0  0  0
   22.2003  -18.3634  -16.9688 C   0  0  2  0  0  0  0  0  0  0  0  0
   22.2818  -19.4406  -15.9741 N   0  0  0  0  0  0  0  0  0  0  0  0
   23.3402  -20.3795  -16.0337 C   0  0  0  0  0  0  0  0  0  0  0  0
   20.9801  -20.1992  -16.0035 O   0  0  0  0  0  0  0  0  0  0  0  0
   20.8670  -21.1408  -16.8202 N   0  0  0  0  0  0  0  0  0  0  0  0
   17.7696  -14.5642  -16.3885 C   0  0  2  0  0  0  0  0  0  0  0  0
   19.8892  -19.9064  -15.1647 C   0  0  0  0  0  0  0  0  0  0  0  0
   18.6073  -20.5901  -15.2552 C   0  0  0  0  0  0  0  0  0  0  0  0
   17.9221  -20.4984  -13.8956 O   0  0  0  0  0  0  0  0  0  0  0  0
   16.6305  -21.2205  -13.9426 C   0  0  0  0  0  0  0  0  0  0  0  0
   16.6531  -22.3966  -14.4413 O   0  0  0  0  0  0  0  0  0  0  0  0
   17.7628  -20.0562  -16.3248 O   0  0  0  0  0  0  0  0  0  0  0  0
   17.0580  -20.7970  -17.0275 O   0  0  0  0  0  0  0  0  0  0  0  0
  2  1  1  0
  3  2  2  0
  4  2  1  0
  5  4  1  0
  6  5  1  0
  7  6  1  0
  8  7  1  0
  8  9  1  1
  8 10  1  0
 10 11  2  0
 13 14  2  0
 13 12  1  0
 15 13  1  0
 16 15  1  0
 16 17  1  0
 18 17  1  0
 19 18  1  1
 19 21  1  0
 20 10  1  0
 20 19  1  0
 21 23  1  0
 22 21  2  0
 23 24  1  0
 24 25  1  6
 25 26  1  0
 26 27  2  0
 28 24  1  0
 28 31  1  0
 29 28  2  0
 30 26  1  0
M  END
$$$$
