RRD.pdb
     RDKit          3D

 31 30  0  0  1  0  0  0  0  0999 V2000
   22.9713  -21.0184  -16.3231 N   0  0  0  0  0  0  0  0  0  0  0  0
   21.9093  -21.1837  -17.2706 C   0  0  0  0  0  0  0  0  0  0  0  0
   22.2409  -21.0879  -18.5106 N   0  0  0  0  0  0  0  0  0  0  0  0
   20.6185  -21.4375  -16.7909 N   0  0  0  0  0  0  0  0  0  0  0  0
   20.4368  -21.5269  -15.3249 C   0  0  0  0  0  0  0  0  0  0  0  0
   18.9787  -21.7057  -15.0198 C   0  0  0  0  0  0  0  0  0  0  0  0
   18.6260  -22.9252  -14.2710 C   0  0  0  0  0  0  0  0  0  0  0  0
   19.3815  -24.1809  -14.6034 C   0  0  2  0  0  0  0  0  0  0  0  0
   19.1404  -24.5829  -15.9472 N   0  0  0  0  0  0  0  0  0  0  0  0
   19.0849  -25.1979  -13.5873 C   0  0  0  0  0  0  0  0  0  0  0  0
   17.9303  -25.6960  -13.5214 O   0  0  0  0  0  0  0  0  0  0  0  0
   21.4850  -21.1504  -19.2239 N   0  0  0  0  0  0  0  0  0  0  0  0
   23.8183  -31.3039   -9.8036 C   0  0  0  0  0  0  0  0  0  0  0  0
   22.9469  -31.3709  -10.9126 N   0  0  0  0  0  0  0  0  0  0  0  0
   23.1685  -32.2338  -11.8671 N   0  0  0  0  0  0  0  0  0  0  0  0
   21.8024  -30.4976  -11.0124 C   0  0  0  0  0  0  0  0  0  0  0  0
   21.4600  -29.6362   -9.9270 C   0  0  0  0  0  0  0  0  0  0  0  0
   20.2738  -28.7268  -10.2675 C   0  0  0  0  0  0  0  0  0  0  0  0
   20.7178  -27.6759  -11.2605 C   0  0  2  0  0  0  0  0  0  0  0  0
   19.6884  -26.7183  -11.6846 N   0  0  0  0  0  0  0  0  0  0  0  0
   20.0080  -25.7049  -12.6206 C   0  0  0  0  0  0  0  0  0  0  0  0
   19.1320  -26.0575  -10.4499 O   0  0  0  0  0  0  0  0  0  0  0  0
   19.7017  -25.0260  -10.0282 N   0  0  0  0  0  0  0  0  0  0  0  0
   22.5735  -32.3527  -12.6908 C   0  0  2  0  0  0  0  0  0  0  0  0
   18.0104  -26.5366   -9.7487 C   0  0  0  0  0  0  0  0  0  0  0  0
   17.5102  -25.9215   -8.5279 C   0  0  0  0  0  0  0  0  0  0  0  0
   18.7002  -25.3617   -7.7551 O   0  0  0  0  0  0  0  0  0  0  0  0
   18.2331  -24.7948   -6.4696 C   0  0  0  0  0  0  0  0  0  0  0  0
   17.0244  -25.0471   -6.1414 O   0  0  0  0  0  0  0  0  0  0  0  0
   16.5030  -24.8928   -8.7917 O   0  0  0  0  0  0  0  0  0  0  0  0
   15.2930  -25.1095   -8.6231 O   0  0  0  0  0  0  0  0  0  0  0  0
  2  1  1  0
  3  2  2  0
  4  2  1  0
  5  4  1  0
  6  5  1  0
  7  6  1  0
  8  7  1  0
  8  9  1  6
  8 10  1  0
 10 11  2  0
 13 14  2  0
 13 12  1  0
 15 13  1  0
 16 15  1  0
 16 17  1  0
 18 17  1  0
 19 18  1  6
 19 21  1  0
 20 10  1  0
 20 19  1  0
 21 23  1  0
 22 21  2  0
 23 24  1  0
 24 25  1  1
 25 26  1  0
 26 27  2  0
 28 24  1  0
 28 31  1  0
 29 28  2  0
 30 26  1  0
M  END
$$$$
