RRD.pdb
     RDKit          3D

 31 30  0  0  1  0  0  0  0  0999 V2000
   25.8414  -20.6768  -22.3919 N   0  0  0  0  0  0  0  0  0  0  0  0
   24.7954  -19.8060  -21.9442 C   0  0  0  0  0  0  0  0  0  0  0  0
   23.6067  -20.2993  -21.9595 N   0  0  0  0  0  0  0  0  0  0  0  0
   25.1344  -18.5133  -21.5264 N   0  0  0  0  0  0  0  0  0  0  0  0
   26.3202  -18.3632  -20.6538 C   0  0  0  0  0  0  0  0  0  0  0  0
   25.9503  -18.7448  -19.2507 C   0  0  0  0  0  0  0  0  0  0  0  0
   27.0070  -18.5669  -18.2389 C   0  0  0  0  0  0  0  0  0  0  0  0
   27.6319  -19.8090  -17.6690 C   0  0  2  0  0  0  0  0  0  0  0  0
   27.7769  -20.8133  -18.6670 N   0  0  0  0  0  0  0  0  0  0  0  0
   26.8761  -20.2191  -16.4793 C   0  0  0  0  0  0  0  0  0  0  0  0
   26.2246  -21.2965  -16.4945 O   0  0  0  0  0  0  0  0  0  0  0  0
   22.8226  -19.6926  -21.6416 N   0  0  0  0  0  0  0  0  0  0  0  0
   26.1468  -20.1546   -8.3470 C   0  0  0  0  0  0  0  0  0  0  0  0
   25.0130  -20.9023   -8.7328 N   0  0  0  0  0  0  0  0  0  0  0  0
   24.0139  -21.0490   -7.9051 N   0  0  0  0  0  0  0  0  0  0  0  0
   24.9336  -21.5118  -10.0384 C   0  0  0  0  0  0  0  0  0  0  0  0
   25.8298  -21.1097  -11.0740 C   0  0  0  0  0  0  0  0  0  0  0  0
   25.4397  -19.7555  -11.6775 C   0  0  0  0  0  0  0  0  0  0  0  0
   26.4078  -19.4037  -12.7850 C   0  0  1  0  0  0  0  0  0  0  0  0
   26.0926  -19.9510  -14.1107 N   0  0  0  0  0  0  0  0  0  0  0  0
   26.7966  -19.4926  -15.2506 C   0  0  0  0  0  0  0  0  0  0  0  0
   24.6196  -19.7505  -14.3575 O   0  0  0  0  0  0  0  0  0  0  0  0
   24.2333  -18.6160  -14.7181 N   0  0  0  0  0  0  0  0  0  0  0  0
   23.1641  -21.5805   -8.1105 C   0  0  2  0  0  0  0  0  0  0  0  0
   23.6592  -20.7672  -14.2048 C   0  0  0  0  0  0  0  0  0  0  0  0
   22.2339  -20.5557  -14.4120 C   0  0  0  0  0  0  0  0  0  0  0  0
   21.6763  -21.7659  -15.1543 O   0  0  0  0  0  0  0  0  0  0  0  0
   20.9887  -21.3172  -16.3863 C   0  0  0  0  0  0  0  0  0  0  0  0
   20.9353  -20.0558  -16.5817 O   0  0  0  0  0  0  0  0  0  0  0  0
   21.5168  -20.3104  -13.1599 O   0  0  0  0  0  0  0  0  0  0  0  0
   21.7654  -20.9576  -12.1309 O   0  0  0  0  0  0  0  0  0  0  0  0
  2  1  1  0
  3  2  2  0
  4  2  1  0
  5  4  1  0
  6  5  1  0
  7  6  1  0
  8  7  1  0
  8  9  1  6
  8 10  1  0
 10 11  2  0
 13 14  2  0
 13 12  1  0
 15 13  1  0
 16 15  1  0
 16 17  1  0
 18 17  1  0
 19 18  1  1
 19 21  1  0
 20 10  1  0
 20 19  1  0
 21 23  1  0
 22 21  2  0
 23 24  1  0
 24 25  1  1
 25 26  1  0
 26 27  2  0
 28 24  1  0
 28 31  1  0
 29 28  2  0
 30 26  1  0
M  END
$$$$
