RRD.pdb
     RDKit          3D

 31 30  0  0  1  0  0  0  0  0999 V2000
   31.4631  -21.8011   -8.1986 N   0  0  0  0  0  0  0  0  0  0  0  0
   31.9300  -22.2187   -9.4872 C   0  0  0  0  0  0  0  0  0  0  0  0
   33.1434  -22.6449   -9.5356 N   0  0  0  0  0  0  0  0  0  0  0  0
   31.0512  -22.1405  -10.5745 N   0  0  0  0  0  0  0  0  0  0  0  0
   29.5998  -22.1459  -10.2853 C   0  0  0  0  0  0  0  0  0  0  0  0
   29.0873  -20.7360  -10.3126 C   0  0  0  0  0  0  0  0  0  0  0  0
   27.6479  -20.5725  -10.0413 C   0  0  0  0  0  0  0  0  0  0  0  0
   26.7008  -21.4804  -10.7740 C   0  0  2  0  0  0  0  0  0  0  0  0
   27.4065  -22.4993  -11.4736 N   0  0  0  0  0  0  0  0  0  0  0  0
   25.8041  -20.6644  -11.6017 C   0  0  0  0  0  0  0  0  0  0  0  0
   25.0477  -19.8188  -11.0554 O   0  0  0  0  0  0  0  0  0  0  0  0
   33.5252  -22.9256  -10.4626 N   0  0  0  0  0  0  0  0  0  0  0  0
   22.1651  -17.0800  -18.0950 C   0  0  0  0  0  0  0  0  0  0  0  0
   23.4034  -16.4019  -18.0719 N   0  0  0  0  0  0  0  0  0  0  0  0
   23.4709  -15.1512  -18.4404 N   0  0  0  0  0  0  0  0  0  0  0  0
   24.6083  -17.0695  -17.6418 C   0  0  0  0  0  0  0  0  0  0  0  0
   24.5798  -18.4565  -17.3063 C   0  0  0  0  0  0  0  0  0  0  0  0
   24.1110  -18.6896  -15.8655 C   0  0  0  0  0  0  0  0  0  0  0  0
   25.1699  -19.4649  -15.1138 C   0  0  1  0  0  0  0  0  0  0  0  0
   24.7872  -19.9464  -13.7803 N   0  0  0  0  0  0  0  0  0  0  0  0
   25.6922  -20.7313  -13.0254 C   0  0  0  0  0  0  0  0  0  0  0  0
   23.4994  -20.7169  -13.9169 O   0  0  0  0  0  0  0  0  0  0  0  0
   23.5665  -21.9157  -14.2699 N   0  0  0  0  0  0  0  0  0  0  0  0
   24.3339  -14.6025  -18.4739 C   0  0  2  0  0  0  0  0  0  0  0  0
   22.2303  -20.1623  -13.6693 C   0  0  0  0  0  0  0  0  0  0  0  0
   20.9944  -20.9258  -13.7617 C   0  0  0  0  0  0  0  0  0  0  0  0
   20.5404  -21.2694  -12.3467 O   0  0  0  0  0  0  0  0  0  0  0  0
   19.2882  -22.0571  -12.4062 C   0  0  0  0  0  0  0  0  0  0  0  0
   18.8488  -22.3412  -13.5717 O   0  0  0  0  0  0  0  0  0  0  0  0
   19.9534  -20.2171  -14.5077 O   0  0  0  0  0  0  0  0  0  0  0  0
   19.0530  -20.8264  -15.1055 O   0  0  0  0  0  0  0  0  0  0  0  0
  2  1  1  0
  3  2  2  0
  4  2  1  0
  5  4  1  0
  6  5  1  0
  7  6  1  0
  8  7  1  0
  8  9  1  6
  8 10  1  0
 10 11  2  0
 13 14  2  0
 13 12  1  0
 15 13  1  0
 16 15  1  0
 16 17  1  0
 18 17  1  0
 19 18  1  1
 19 21  1  0
 20 10  1  0
 20 19  1  0
 21 23  1  0
 22 21  2  0
 23 24  1  0
 24 25  1  6
 25 26  1  0
 26 27  2  0
 28 24  1  0
 28 31  1  0
 29 28  2  0
 30 26  1  0
M  END
$$$$
