RRD.pdb
     RDKit          3D

 31 30  0  0  1  0  0  0  0  0999 V2000
   23.3730  -16.7889  -16.7529 N   0  0  0  0  0  0  0  0  0  0  0  0
   24.4470  -16.3381  -17.5873 C   0  0  0  0  0  0  0  0  0  0  0  0
   24.3588  -16.6455  -18.8340 N   0  0  0  0  0  0  0  0  0  0  0  0
   25.4879  -15.6075  -17.0012 N   0  0  0  0  0  0  0  0  0  0  0  0
   26.7734  -16.3052  -16.7758 C   0  0  0  0  0  0  0  0  0  0  0  0
   26.6732  -17.1304  -15.5268 C   0  0  0  0  0  0  0  0  0  0  0  0
   27.8950  -17.8587  -15.1407 C   0  0  0  0  0  0  0  0  0  0  0  0
   27.9404  -19.3321  -15.4326 C   0  0  2  0  0  0  0  0  0  0  0  0
   27.8228  -19.5812  -16.8289 N   0  0  0  0  0  0  0  0  0  0  0  0
   26.9479  -20.0143  -14.5933 C   0  0  0  0  0  0  0  0  0  0  0  0
   26.0926  -20.7690  -15.1267 O   0  0  0  0  0  0  0  0  0  0  0  0
   25.1538  -16.3916  -19.4565 N   0  0  0  0  0  0  0  0  0  0  0  0
   22.0818  -20.1891   -8.9275 C   0  0  0  0  0  0  0  0  0  0  0  0
   22.4894  -21.2112   -8.0427 N   0  0  0  0  0  0  0  0  0  0  0  0
   21.6130  -21.7972   -7.2725 N   0  0  0  0  0  0  0  0  0  0  0  0
   23.8693  -21.6278   -7.9736 C   0  0  0  0  0  0  0  0  0  0  0  0
   24.8687  -20.9265   -8.7130 C   0  0  0  0  0  0  0  0  0  0  0  0
   24.6818  -21.0863  -10.2262 C   0  0  0  0  0  0  0  0  0  0  0  0
   25.8505  -20.4498  -10.9448 C   0  0  1  0  0  0  0  0  0  0  0  0
   25.8138  -20.5135  -12.4114 N   0  0  0  0  0  0  0  0  0  0  0  0
   26.8435  -19.9076  -13.1715 C   0  0  0  0  0  0  0  0  0  0  0  0
   24.4961  -19.9426  -12.8681 O   0  0  0  0  0  0  0  0  0  0  0  0
   24.3612  -18.6983  -12.8622 N   0  0  0  0  0  0  0  0  0  0  0  0
   21.8239  -22.5740   -6.6408 C   0  0  2  0  0  0  0  0  0  0  0  0
   23.4135  -20.7310  -13.2992 C   0  0  0  0  0  0  0  0  0  0  0  0
   22.1627  -20.1695  -13.7882 C   0  0  0  0  0  0  0  0  0  0  0  0
   22.1993  -20.1826  -15.3130 O   0  0  0  0  0  0  0  0  0  0  0  0
   20.9790  -19.5328  -15.8430 C   0  0  0  0  0  0  0  0  0  0  0  0
   20.3562  -18.7535  -15.0448 O   0  0  0  0  0  0  0  0  0  0  0  0
   20.9911  -20.8761  -13.2682 O   0  0  0  0  0  0  0  0  0  0  0  0
   19.8376  -20.4906  -13.5137 O   0  0  0  0  0  0  0  0  0  0  0  0
  2  1  1  0
  3  2  2  0
  4  2  1  0
  5  4  1  0
  6  5  1  0
  7  6  1  0
  8  7  1  0
  8  9  1  6
  8 10  1  0
 10 11  2  0
 13 14  2  0
 13 12  1  0
 15 13  1  0
 16 15  1  0
 16 17  1  0
 18 17  1  0
 19 18  1  1
 19 21  1  0
 20 10  1  0
 20 19  1  0
 21 23  1  0
 22 21  2  0
 23 24  1  0
 24 25  1  1
 25 26  1  0
 26 27  2  0
 28 24  1  0
 28 31  1  0
 29 28  2  0
 30 26  1  0
M  END
$$$$
