RRD.pdb
     RDKit          3D

 31 30  0  0  1  0  0  0  0  0999 V2000
   29.5919  -21.5321   -9.8870 N   0  0  0  0  0  0  0  0  0  0  0  0
   29.0971  -20.7528   -8.7911 C   0  0  0  0  0  0  0  0  0  0  0  0
   29.9741  -20.0633   -8.1491 N   0  0  0  0  0  0  0  0  0  0  0  0
   27.7264  -20.7920   -8.5078 N   0  0  0  0  0  0  0  0  0  0  0  0
   26.8179  -21.2608   -9.5777 C   0  0  0  0  0  0  0  0  0  0  0  0
   26.7923  -20.2451  -10.6818 C   0  0  0  0  0  0  0  0  0  0  0  0
   25.9260  -20.5685  -11.8295 C   0  0  0  0  0  0  0  0  0  0  0  0
   26.4006  -21.6390  -12.7712 C   0  0  2  0  0  0  0  0  0  0  0  0
   27.5625  -21.2204  -13.4785 N   0  0  0  0  0  0  0  0  0  0  0  0
   25.2770  -22.0620  -13.6159 C   0  0  0  0  0  0  0  0  0  0  0  0
   24.9103  -21.3352  -14.5765 O   0  0  0  0  0  0  0  0  0  0  0  0
   29.6504  -19.4961   -7.3382 N   0  0  0  0  0  0  0  0  0  0  0  0
   21.6268  -28.3061  -17.0131 C   0  0  0  0  0  0  0  0  0  0  0  0
   21.4879  -27.3171  -18.0112 N   0  0  0  0  0  0  0  0  0  0  0  0
   20.9388  -27.6174  -19.1572 N   0  0  0  0  0  0  0  0  0  0  0  0
   21.9426  -25.9660  -17.7873 C   0  0  0  0  0  0  0  0  0  0  0  0
   22.7952  -25.6696  -16.6816 C   0  0  0  0  0  0  0  0  0  0  0  0
   22.0000  -25.3991  -15.3992 C   0  0  0  0  0  0  0  0  0  0  0  0
   22.9548  -25.0239  -14.2880 C   0  0  2  0  0  0  0  0  0  0  0  0
   23.4599  -23.6453  -14.3141 N   0  0  0  0  0  0  0  0  0  0  0  0
   24.5202  -23.2643  -13.4562 C   0  0  0  0  0  0  0  0  0  0  0  0
   22.2975  -22.7201  -14.0621 O   0  0  0  0  0  0  0  0  0  0  0  0
   22.0797  -22.3576  -12.8842 N   0  0  0  0  0  0  0  0  0  0  0  0
   20.8145  -26.9592  -19.9306 C   0  0  2  0  0  0  0  0  0  0  0  0
   21.4472  -22.2439  -15.0768 C   0  0  0  0  0  0  0  0  0  0  0  0
   20.3059  -21.3776  -14.8200 C   0  0  0  0  0  0  0  0  0  0  0  0
   20.2480  -20.3269  -15.9241 O   0  0  0  0  0  0  0  0  0  0  0  0
   19.2374  -19.3014  -15.5789 C   0  0  0  0  0  0  0  0  0  0  0  0
   18.6670  -19.4237  -14.4423 O   0  0  0  0  0  0  0  0  0  0  0  0
   19.0505  -22.1228  -14.7146 O   0  0  0  0  0  0  0  0  0  0  0  0
   18.2678  -21.9470  -13.7681 O   0  0  0  0  0  0  0  0  0  0  0  0
  2  1  1  0
  3  2  2  0
  4  2  1  0
  5  4  1  0
  6  5  1  0
  7  6  1  0
  8  7  1  0
  8  9  1  6
  8 10  1  0
 10 11  2  0
 13 14  2  0
 13 12  1  0
 15 13  1  0
 16 15  1  0
 16 17  1  0
 18 17  1  0
 19 18  1  6
 19 21  1  0
 20 10  1  0
 20 19  1  0
 21 23  1  0
 22 21  2  0
 23 24  1  0
 24 25  1  1
 25 26  1  0
 26 27  2  0
 28 24  1  0
 28 31  1  0
 29 28  2  0
 30 26  1  0
M  END
$$$$
