RRD.pdb
     RDKit          3D

 31 30  0  0  1  0  0  0  0  0999 V2000
   19.9059  -17.7773  -12.0818 N   0  0  0  0  0  0  0  0  0  0  0  0
   19.7107  -16.8272  -13.1363 C   0  0  0  0  0  0  0  0  0  0  0  0
   18.7542  -15.9833  -12.9641 N   0  0  0  0  0  0  0  0  0  0  0  0
   20.5584  -16.8801  -14.2495 N   0  0  0  0  0  0  0  0  0  0  0  0
   20.3695  -17.9958  -15.2032 C   0  0  0  0  0  0  0  0  0  0  0  0
   21.7120  -18.5279  -15.6104 C   0  0  0  0  0  0  0  0  0  0  0  0
   22.5594  -19.0333  -14.5156 C   0  0  0  0  0  0  0  0  0  0  0  0
   22.9625  -20.4800  -14.5676 C   0  0  2  0  0  0  0  0  0  0  0  0
   23.5740  -20.7966  -15.8132 N   0  0  0  0  0  0  0  0  0  0  0  0
   21.8042  -21.3097  -14.2146 C   0  0  0  0  0  0  0  0  0  0  0  0
   21.4411  -22.2355  -14.9871 O   0  0  0  0  0  0  0  0  0  0  0  0
   18.5880  -15.2756  -13.7094 N   0  0  0  0  0  0  0  0  0  0  0  0
   16.6257  -25.0010   -7.8660 C   0  0  0  0  0  0  0  0  0  0  0  0
   17.7797  -25.7000   -8.2825 N   0  0  0  0  0  0  0  0  0  0  0  0
   17.9127  -26.9682   -8.0020 N   0  0  0  0  0  0  0  0  0  0  0  0
   18.8250  -25.0349   -9.0224 C   0  0  0  0  0  0  0  0  0  0  0  0
   18.6706  -23.6712   -9.4147 C   0  0  0  0  0  0  0  0  0  0  0  0
   18.7889  -23.4932  -10.9327 C   0  0  0  0  0  0  0  0  0  0  0  0
   19.8328  -22.4410  -11.2334 C   0  0  2  0  0  0  0  0  0  0  0  0
   20.0070  -22.0965  -12.6502 N   0  0  0  0  0  0  0  0  0  0  0  0
   21.0081  -21.1719  -13.0352 C   0  0  0  0  0  0  0  0  0  0  0  0
   18.6840  -21.5997  -13.1733 O   0  0  0  0  0  0  0  0  0  0  0  0
   18.2149  -20.5488  -12.6815 N   0  0  0  0  0  0  0  0  0  0  0  0
   18.6980  -27.5498   -8.3052 C   0  0  2  0  0  0  0  0  0  0  0  0
   17.9509  -22.2519  -14.1815 C   0  0  0  0  0  0  0  0  0  0  0  0
   16.5818  -21.8989  -14.5275 C   0  0  0  0  0  0  0  0  0  0  0  0
   15.6732  -23.0503  -14.1088 O   0  0  0  0  0  0  0  0  0  0  0  0
   16.0936  -24.2896  -14.8011 C   0  0  0  0  0  0  0  0  0  0  0  0
   17.0639  -24.1806  -15.6251 O   0  0  0  0  0  0  0  0  0  0  0  0
   16.1621  -20.6316  -13.9275 O   0  0  0  0  0  0  0  0  0  0  0  0
   15.8536  -19.6529  -14.6249 O   0  0  0  0  0  0  0  0  0  0  0  0
  2  1  1  0
  3  2  2  0
  4  2  1  0
  5  4  1  0
  6  5  1  0
  7  6  1  0
  8  7  1  0
  8  9  1  6
  8 10  1  0
 10 11  2  0
 13 14  2  0
 13 12  1  0
 15 13  1  0
 16 15  1  0
 16 17  1  0
 18 17  1  0
 19 18  1  6
 19 21  1  0
 20 10  1  0
 20 19  1  0
 21 23  1  0
 22 21  2  0
 23 24  1  0
 24 25  1  1
 25 26  1  0
 26 27  2  0
 28 24  1  0
 28 31  1  0
 29 28  2  0
 30 26  1  0
M  END
$$$$
