KCF.pdb
     RDKit          3D

 27 27  0  0  1  0  0  0  0  0999 V2000
   33.2161  -25.2945  -17.3535 N   0  0  0  0  0  0  0  0  0  0  0  0
   32.1041  -25.2520  -18.2766 C   0  0  1  0  0  0  0  0  0  0  0  0
   32.0387  -26.5258  -19.0326 C   0  0  0  0  0  0  0  0  0  0  0  0
   33.3950  -26.8708  -19.5805 C   0  0  0  0  0  0  0  0  0  0  0  0
   33.3703  -28.1098  -20.4213 C   0  0  0  0  0  0  0  0  0  0  0  0
   34.7550  -28.3601  -20.9993 C   0  0  0  0  0  0  0  0  0  0  0  0
   34.8039  -29.5370  -21.8184 N   0  0  0  0  0  0  0  0  0  0  0  0
   30.8232  -24.9474  -17.5547 C   0  0  0  0  0  0  0  0  0  0  0  0
   30.7342  -25.2605  -16.3422 O   0  0  0  0  0  0  0  0  0  0  0  0
   29.7102  -24.3275  -18.1622 N   0  0  0  0  0  0  0  0  0  0  0  0
   28.5023  -23.9575  -17.4971 C   0  0  1  0  0  0  0  0  0  0  0  0
   28.0047  -22.5854  -17.8680 C   0  0  0  0  0  0  0  0  0  0  0  0
   29.1209  -21.3481  -17.1536 S   0  0  0  0  0  0  0  0  0  0  0  0
   27.4060  -24.9419  -17.6933 C   0  0  0  0  0  0  0  0  0  0  0  0
   27.1676  -25.3339  -18.8648 O   0  0  0  0  0  0  0  0  0  0  0  0
   26.6223  -25.4583  -16.6451 N   0  0  0  0  0  0  0  0  0  0  0  0
   25.5712  -26.4695  -16.8582 C   0  0  1  0  0  0  0  0  0  0  0  0
   25.0383  -26.9582  -15.5520 C   0  0  0  0  0  0  0  0  0  0  0  0
   23.9709  -27.9557  -15.7351 C   0  0  0  0  0  0  0  0  0  0  0  0
   22.6454  -27.6141  -15.6241 C   0  0  0  0  0  0  0  0  0  0  0  0
   21.6209  -28.5239  -15.7976 C   0  0  0  0  0  0  0  0  0  0  0  0
   21.9531  -29.8175  -16.0920 C   0  0  0  0  0  0  0  0  0  0  0  0
   23.2674  -30.2118  -16.2141 C   0  0  0  0  0  0  0  0  0  0  0  0
   24.2585  -29.2719  -16.0332 C   0  0  0  0  0  0  0  0  0  0  0  0
   24.4966  -25.8878  -17.6836 C   0  0  0  0  0  0  0  0  0  0  0  0
   23.8125  -26.5105  -18.5235 O   0  0  0  0  0  0  0  0  0  0  0  0
   24.2086  -24.5305  -17.5242 O   0  0  0  0  0  0  0  0  0  0  0  0
  2  8  1  0
  2  1  1  1
  3  2  1  0
  4  3  1  0
  5  6  1  0
  5  4  1  0
  7  6  1  0
  8  9  2  0
 10 11  1  0
 10  8  1  0
 12 13  1  0
 11 12  1  6
 14 15  2  0
 14 11  1  0
 16 14  1  0
 17 25  1  0
 17 16  1  0
 17 18  1  1
 19 18  1  0
 20 19  2  0
 21 20  1  0
 22 23  1  0
 22 21  2  0
 23 24  2  0
 24 19  1  0
 25 27  1  0
 26 25  2  0
M  END
$$$$
