KCF.pdb
     RDKit          3D

 27 27  0  0  1  0  0  0  0  0999 V2000
   25.4277  -18.4888  -15.8467 N   0  0  0  0  0  0  0  0  0  0  0  0
   26.2007  -19.1874  -14.8442 C   0  0  1  0  0  0  0  0  0  0  0  0
   27.5635  -18.6073  -14.7762 C   0  0  0  0  0  0  0  0  0  0  0  0
   27.8007  -17.7073  -15.9562 C   0  0  0  0  0  0  0  0  0  0  0  0
   27.9175  -16.2681  -15.5591 C   0  0  0  0  0  0  0  0  0  0  0  0
   28.2922  -15.4337  -16.7747 C   0  0  0  0  0  0  0  0  0  0  0  0
   29.3562  -16.0210  -17.5373 N   0  0  0  0  0  0  0  0  0  0  0  0
   25.4997  -19.1615  -13.5167 C   0  0  0  0  0  0  0  0  0  0  0  0
   24.7779  -18.1713  -13.2438 O   0  0  0  0  0  0  0  0  0  0  0  0
   25.6056  -20.1892  -12.5550 N   0  0  0  0  0  0  0  0  0  0  0  0
   24.9541  -20.2057  -11.2847 C   0  0  1  0  0  0  0  0  0  0  0  0
   23.7339  -21.0873  -11.2434 C   0  0  0  0  0  0  0  0  0  0  0  0
   23.0502  -21.0576   -9.5645 S   0  0  0  0  0  0  0  0  0  0  0  0
   25.8633  -20.5812  -10.1704 C   0  0  0  0  0  0  0  0  0  0  0  0
   26.4423  -21.6964  -10.2315 O   0  0  0  0  0  0  0  0  0  0  0  0
   26.1119  -19.7612   -9.0544 N   0  0  0  0  0  0  0  0  0  0  0  0
   26.9254  -20.2011   -7.9065 C   0  0  1  0  0  0  0  0  0  0  0  0
   27.4981  -19.0256   -7.1859 C   0  0  0  0  0  0  0  0  0  0  0  0
   28.2474  -19.4316   -5.9853 C   0  0  0  0  0  0  0  0  0  0  0  0
   29.5261  -19.9249   -6.0726 C   0  0  0  0  0  0  0  0  0  0  0  0
   30.2581  -20.3070   -4.9654 C   0  0  0  0  0  0  0  0  0  0  0  0
   29.6739  -20.1844   -3.7350 C   0  0  0  0  0  0  0  0  0  0  0  0
   28.3937  -19.6955   -3.5930 C   0  0  0  0  0  0  0  0  0  0  0  0
   27.6987  -19.3258   -4.7237 C   0  0  0  0  0  0  0  0  0  0  0  0
   26.0931  -21.0198   -7.0056 C   0  0  0  0  0  0  0  0  0  0  0  0
   24.8540  -20.9220   -6.8781 O   0  0  0  0  0  0  0  0  0  0  0  0
   26.7284  -21.9878   -6.2247 O   0  0  0  0  0  0  0  0  0  0  0  0
  2  8  1  0
  2  1  1  6
  3  2  1  0
  4  3  1  0
  5  6  1  0
  5  4  1  0
  7  6  1  0
  8  9  2  0
 10 11  1  0
 10  8  1  0
 12 13  1  0
 11 12  1  6
 14 15  2  0
 14 11  1  0
 16 14  1  0
 17 25  1  0
 17 16  1  0
 17 18  1  1
 19 18  1  0
 20 19  2  0
 21 20  1  0
 22 23  1  0
 22 21  2  0
 23 24  2  0
 24 19  1  0
 25 27  1  0
 26 25  2  0
M  END
$$$$
