KCF.pdb
     RDKit          3D

 27 27  0  0  1  0  0  0  0  0999 V2000
   25.5139  -18.1880  -16.0805 N   0  0  0  0  0  0  0  0  0  0  0  0
   25.8789  -17.8292  -14.7283 C   0  0  1  0  0  0  0  0  0  0  0  0
   25.2543  -16.5319  -14.3742 C   0  0  0  0  0  0  0  0  0  0  0  0
   25.0101  -15.7209  -15.6156 C   0  0  0  0  0  0  0  0  0  0  0  0
   24.4087  -14.3835  -15.3119 C   0  0  0  0  0  0  0  0  0  0  0  0
   24.1744  -13.6245  -16.6094 C   0  0  0  0  0  0  0  0  0  0  0  0
   23.5673  -12.3426  -16.3940 N   0  0  0  0  0  0  0  0  0  0  0  0
   25.5110  -18.9237  -13.7685 C   0  0  0  0  0  0  0  0  0  0  0  0
   24.2961  -19.2050  -13.6237 O   0  0  0  0  0  0  0  0  0  0  0  0
   26.4548  -19.6566  -13.0174 N   0  0  0  0  0  0  0  0  0  0  0  0
   26.1541  -20.7477  -12.1470 C   0  0  1  0  0  0  0  0  0  0  0  0
   26.5755  -22.0874  -12.6906 C   0  0  0  0  0  0  0  0  0  0  0  0
   28.3301  -22.0081  -13.1400 S   0  0  0  0  0  0  0  0  0  0  0  0
   26.7203  -20.5761  -10.7835 C   0  0  0  0  0  0  0  0  0  0  0  0
   27.9416  -20.2911  -10.6832 O   0  0  0  0  0  0  0  0  0  0  0  0
   25.9689  -20.7144   -9.6020 N   0  0  0  0  0  0  0  0  0  0  0  0
   26.5906  -20.8663   -8.2742 C   0  0  1  0  0  0  0  0  0  0  0  0
   27.4350  -19.6787   -7.9493 C   0  0  0  0  0  0  0  0  0  0  0  0
   27.9491  -19.7334   -6.5706 C   0  0  0  0  0  0  0  0  0  0  0  0
   27.4986  -18.8681   -5.6040 C   0  0  0  0  0  0  0  0  0  0  0  0
   27.9547  -18.8986   -4.3008 C   0  0  0  0  0  0  0  0  0  0  0  0
   28.8954  -19.8347   -3.9707 C   0  0  0  0  0  0  0  0  0  0  0  0
   29.3804  -20.7256   -4.9030 C   0  0  0  0  0  0  0  0  0  0  0  0
   28.8981  -20.6606   -6.1920 C   0  0  0  0  0  0  0  0  0  0  0  0
   25.5355  -21.0581   -7.2620 C   0  0  0  0  0  0  0  0  0  0  0  0
   24.3247  -20.7936   -7.4207 O   0  0  0  0  0  0  0  0  0  0  0  0
   25.9052  -21.5772   -6.0193 O   0  0  0  0  0  0  0  0  0  0  0  0
  2  8  1  0
  2  1  1  6
  3  2  1  0
  4  3  1  0
  5  6  1  0
  5  4  1  0
  7  6  1  0
  8  9  2  0
 10 11  1  0
 10  8  1  0
 12 13  1  0
 11 12  1  6
 14 15  2  0
 14 11  1  0
 16 14  1  0
 17 25  1  0
 17 16  1  0
 17 18  1  1
 19 18  1  0
 20 19  2  0
 21 20  1  0
 22 23  1  0
 22 21  2  0
 23 24  2  0
 24 19  1  0
 25 27  1  0
 26 25  2  0
M  END
$$$$
