KCF.pdb
     RDKit          3D

 27 27  0  0  1  0  0  0  0  0999 V2000
   26.4122  -20.4235  -18.6101 N   0  0  0  0  0  0  0  0  0  0  0  0
   26.5047  -19.5285  -17.4784 C   0  0  1  0  0  0  0  0  0  0  0  0
   25.2912  -18.6786  -17.4182 C   0  0  0  0  0  0  0  0  0  0  0  0
   25.2433  -17.7626  -18.6088 C   0  0  0  0  0  0  0  0  0  0  0  0
   26.0025  -16.4923  -18.3797 C   0  0  0  0  0  0  0  0  0  0  0  0
   25.0798  -15.3022  -18.5953 C   0  0  0  0  0  0  0  0  0  0  0  0
   25.7615  -14.0470  -18.4602 N   0  0  0  0  0  0  0  0  0  0  0  0
   26.7302  -20.2966  -16.2081 C   0  0  0  0  0  0  0  0  0  0  0  0
   25.9536  -21.2462  -15.9408 O   0  0  0  0  0  0  0  0  0  0  0  0
   27.7677  -20.0121  -15.2945 N   0  0  0  0  0  0  0  0  0  0  0  0
   27.8562  -20.5105  -13.9595 C   0  0  1  0  0  0  0  0  0  0  0  0
   29.1257  -20.1174  -13.2513 C   0  0  0  0  0  0  0  0  0  0  0  0
   29.1031  -20.8221  -11.5809 S   0  0  0  0  0  0  0  0  0  0  0  0
   26.6918  -20.1284  -13.1184 C   0  0  0  0  0  0  0  0  0  0  0  0
   26.2164  -18.9721  -13.2590 O   0  0  0  0  0  0  0  0  0  0  0  0
   26.0933  -20.9852  -12.1765 N   0  0  0  0  0  0  0  0  0  0  0  0
   25.0183  -20.5463  -11.2685 C   0  0  1  0  0  0  0  0  0  0  0  0
   23.6831  -20.9551  -11.7969 C   0  0  0  0  0  0  0  0  0  0  0  0
   22.5876  -20.5102  -10.9196 C   0  0  0  0  0  0  0  0  0  0  0  0
   21.8437  -19.3939  -11.2137 C   0  0  0  0  0  0  0  0  0  0  0  0
   20.8052  -18.9550  -10.4158 C   0  0  0  0  0  0  0  0  0  0  0  0
   20.5149  -19.6707   -9.2872 C   0  0  0  0  0  0  0  0  0  0  0  0
   21.2309  -20.7975   -8.9471 C   0  0  0  0  0  0  0  0  0  0  0  0
   22.2589  -21.2006   -9.7710 C   0  0  0  0  0  0  0  0  0  0  0  0
   25.2525  -21.1130   -9.9274 C   0  0  0  0  0  0  0  0  0  0  0  0
   25.5797  -22.2951   -9.6891 O   0  0  0  0  0  0  0  0  0  0  0  0
   25.0999  -20.2711   -8.8237 O   0  0  0  0  0  0  0  0  0  0  0  0
  2  8  1  0
  2  1  1  6
  3  2  1  0
  4  3  1  0
  5  6  1  0
  5  4  1  0
  7  6  1  0
  8  9  2  0
 10 11  1  0
 10  8  1  0
 12 13  1  0
 11 12  1  1
 14 15  2  0
 14 11  1  0
 16 14  1  0
 17 25  1  0
 17 16  1  0
 17 18  1  6
 19 18  1  0
 20 19  2  0
 21 20  1  0
 22 23  1  0
 22 21  2  0
 23 24  2  0
 24 19  1  0
 25 27  1  0
 26 25  2  0
M  END
$$$$
