KCF.pdb
     RDKit          3D

 27 27  0  0  1  0  0  0  0  0999 V2000
   26.8295  -20.5809  -15.7154 N   0  0  0  0  0  0  0  0  0  0  0  0
   25.4656  -20.1072  -15.6383 C   0  0  1  0  0  0  0  0  0  0  0  0
   24.6926  -20.9710  -14.7137 C   0  0  0  0  0  0  0  0  0  0  0  0
   24.9788  -22.4185  -14.9994 C   0  0  0  0  0  0  0  0  0  0  0  0
   24.1419  -23.3388  -14.1657 C   0  0  0  0  0  0  0  0  0  0  0  0
   24.4115  -24.7798  -14.5720 C   0  0  0  0  0  0  0  0  0  0  0  0
   24.0099  -25.0543  -15.9218 N   0  0  0  0  0  0  0  0  0  0  0  0
   25.4256  -18.6602  -15.2393 C   0  0  0  0  0  0  0  0  0  0  0  0
   24.8720  -18.3570  -14.1541 O   0  0  0  0  0  0  0  0  0  0  0  0
   25.9759  -17.6181  -16.0160 N   0  0  0  0  0  0  0  0  0  0  0  0
   25.7757  -16.2225  -15.7914 C   0  0  1  0  0  0  0  0  0  0  0  0
   27.0562  -15.4340  -15.7118 C   0  0  0  0  0  0  0  0  0  0  0  0
   26.6496  -13.6886  -15.4378 S   0  0  0  0  0  0  0  0  0  0  0  0
   24.8797  -15.5948  -16.7976 C   0  0  0  0  0  0  0  0  0  0  0  0
   25.1491  -15.7641  -18.0148 O   0  0  0  0  0  0  0  0  0  0  0  0
   23.7504  -14.8240  -16.4657 N   0  0  0  0  0  0  0  0  0  0  0  0
   22.8906  -14.1900  -17.4814 C   0  0  1  0  0  0  0  0  0  0  0  0
   21.4496  -14.4418  -17.1828 C   0  0  0  0  0  0  0  0  0  0  0  0
   20.5697  -13.8876  -18.2251 C   0  0  0  0  0  0  0  0  0  0  0  0
   19.8707  -12.7223  -18.0263 C   0  0  0  0  0  0  0  0  0  0  0  0
   19.0437  -12.1725  -18.9862 C   0  0  0  0  0  0  0  0  0  0  0  0
   18.9237  -12.8257  -20.1817 C   0  0  0  0  0  0  0  0  0  0  0  0
   19.6031  -13.9979  -20.4313 C   0  0  0  0  0  0  0  0  0  0  0  0
   20.4177  -14.5118  -19.4462 C   0  0  0  0  0  0  0  0  0  0  0  0
   23.1766  -12.7441  -17.5270 C   0  0  0  0  0  0  0  0  0  0  0  0
   23.3847  -12.0165  -16.5327 O   0  0  0  0  0  0  0  0  0  0  0  0
   23.2217  -12.1234  -18.7772 O   0  0  0  0  0  0  0  0  0  0  0  0
  2  8  1  0
  2  1  1  1
  3  2  1  0
  4  3  1  0
  5  6  1  0
  5  4  1  0
  7  6  1  0
  8  9  2  0
 10 11  1  0
 10  8  1  0
 12 13  1  0
 11 12  1  6
 14 15  2  0
 14 11  1  0
 16 14  1  0
 17 25  1  0
 17 16  1  0
 17 18  1  1
 19 18  1  0
 20 19  2  0
 21 20  1  0
 22 23  1  0
 22 21  2  0
 23 24  2  0
 24 19  1  0
 25 27  1  0
 26 25  2  0
M  END
$$$$
