KCF.pdb
     RDKit          3D

 27 27  0  0  1  0  0  0  0  0999 V2000
   25.0213  -17.6495  -17.2151 N   0  0  0  0  0  0  0  0  0  0  0  0
   24.7599  -17.7400  -15.7960 C   0  0  1  0  0  0  0  0  0  0  0  0
   23.3152  -17.5217  -15.5434 C   0  0  0  0  0  0  0  0  0  0  0  0
   22.8458  -16.2895  -16.2645 C   0  0  0  0  0  0  0  0  0  0  0  0
   21.6630  -16.5602  -17.1422 C   0  0  0  0  0  0  0  0  0  0  0  0
   21.2673  -15.2845  -17.8705 C   0  0  0  0  0  0  0  0  0  0  0  0
   20.1003  -15.4575  -18.6869 N   0  0  0  0  0  0  0  0  0  0  0  0
   25.2463  -19.0500  -15.2468 C   0  0  0  0  0  0  0  0  0  0  0  0
   24.3942  -19.9139  -14.9249 O   0  0  0  0  0  0  0  0  0  0  0  0
   26.6103  -19.3674  -15.0709 N   0  0  0  0  0  0  0  0  0  0  0  0
   27.1129  -20.5019  -14.3648 C   0  0  1  0  0  0  0  0  0  0  0  0
   28.5567  -20.8081  -14.6636 C   0  0  0  0  0  0  0  0  0  0  0  0
   29.0770  -22.2145  -13.6446 S   0  0  0  0  0  0  0  0  0  0  0  0
   26.9324  -20.3970  -12.8932 C   0  0  0  0  0  0  0  0  0  0  0  0
   27.8214  -19.8023  -12.2306 O   0  0  0  0  0  0  0  0  0  0  0  0
   25.8262  -20.9240  -12.2018 N   0  0  0  0  0  0  0  0  0  0  0  0
   25.6739  -20.8162  -10.7396 C   0  0  1  0  0  0  0  0  0  0  0  0
   26.4029  -19.6209  -10.2211 C   0  0  0  0  0  0  0  0  0  0  0  0
   27.2476  -19.9551   -9.0624 C   0  0  0  0  0  0  0  0  0  0  0  0
   26.9461  -19.5002   -7.8021 C   0  0  0  0  0  0  0  0  0  0  0  0
   27.7133  -19.8021   -6.6940 C   0  0  0  0  0  0  0  0  0  0  0  0
   28.8181  -20.5883   -6.8720 C   0  0  0  0  0  0  0  0  0  0  0  0
   29.1644  -21.0700   -8.1154 C   0  0  0  0  0  0  0  0  0  0  0  0
   28.3713  -20.7449   -9.1940 C   0  0  0  0  0  0  0  0  0  0  0  0
   24.2397  -20.7482  -10.4035 C   0  0  0  0  0  0  0  0  0  0  0  0
   23.7582  -20.8848   -9.2586 O   0  0  0  0  0  0  0  0  0  0  0  0
   23.3336  -20.5121  -11.4397 O   0  0  0  0  0  0  0  0  0  0  0  0
  2  8  1  0
  2  1  1  6
  3  2  1  0
  4  3  1  0
  5  6  1  0
  5  4  1  0
  7  6  1  0
  8  9  2  0
 10 11  1  0
 10  8  1  0
 12 13  1  0
 11 12  1  1
 14 15  2  0
 14 11  1  0
 16 14  1  0
 17 25  1  0
 17 16  1  0
 17 18  1  6
 19 18  1  0
 20 19  2  0
 21 20  1  0
 22 23  1  0
 22 21  2  0
 23 24  2  0
 24 19  1  0
 25 27  1  0
 26 25  2  0
M  END
$$$$
