KCF.pdb
     RDKit          3D

 27 27  0  0  1  0  0  0  0  0999 V2000
   19.4929  -20.5588  -10.7228 N   0  0  0  0  0  0  0  0  0  0  0  0
   19.4968  -20.7376  -12.1576 C   0  0  1  0  0  0  0  0  0  0  0  0
   18.1360  -20.4890  -12.6915 C   0  0  0  0  0  0  0  0  0  0  0  0
   17.5049  -21.7844  -13.1187 C   0  0  0  0  0  0  0  0  0  0  0  0
   18.1022  -22.9659  -12.4188 C   0  0  0  0  0  0  0  0  0  0  0  0
   17.4235  -24.2392  -12.9008 C   0  0  0  0  0  0  0  0  0  0  0  0
   16.9267  -25.0402  -11.8191 N   0  0  0  0  0  0  0  0  0  0  0  0
   20.5337  -19.8628  -12.8011 C   0  0  0  0  0  0  0  0  0  0  0  0
   20.7895  -18.7540  -12.2708 O   0  0  0  0  0  0  0  0  0  0  0  0
   21.2396  -20.2161  -13.9711 N   0  0  0  0  0  0  0  0  0  0  0  0
   22.1486  -19.3715  -14.6774 C   0  0  1  0  0  0  0  0  0  0  0  0
   23.1583  -20.1264  -15.5010 C   0  0  0  0  0  0  0  0  0  0  0  0
   24.4251  -18.9648  -16.0779 S   0  0  0  0  0  0  0  0  0  0  0  0
   21.4636  -18.3748  -15.5414 C   0  0  0  0  0  0  0  0  0  0  0  0
   20.4804  -18.7623  -16.2240 O   0  0  0  0  0  0  0  0  0  0  0  0
   21.8522  -17.0261  -15.6383 N   0  0  0  0  0  0  0  0  0  0  0  0
   21.1453  -16.0511  -16.4882 C   0  0  1  0  0  0  0  0  0  0  0  0
   20.9668  -14.7560  -15.7672 C   0  0  0  0  0  0  0  0  0  0  0  0
   19.8622  -14.8183  -14.7956 C   0  0  0  0  0  0  0  0  0  0  0  0
   18.6077  -14.3547  -15.1076 C   0  0  0  0  0  0  0  0  0  0  0  0
   17.5492  -14.4059  -14.2220 C   0  0  0  0  0  0  0  0  0  0  0  0
   17.7721  -14.9432  -12.9843 C   0  0  0  0  0  0  0  0  0  0  0  0
   19.0119  -15.4220  -12.6216 C   0  0  0  0  0  0  0  0  0  0  0  0
   20.0403  -15.3518  -13.5357 C   0  0  0  0  0  0  0  0  0  0  0  0
   21.9003  -15.8597  -17.7404 C   0  0  0  0  0  0  0  0  0  0  0  0
   23.0699  -16.2482  -17.9460 O   0  0  0  0  0  0  0  0  0  0  0  0
   21.2689  -15.1909  -18.7914 O   0  0  0  0  0  0  0  0  0  0  0  0
  2  8  1  0
  2  1  1  1
  3  2  1  0
  4  3  1  0
  5  6  1  0
  5  4  1  0
  7  6  1  0
  8  9  2  0
 10 11  1  0
 10  8  1  0
 12 13  1  0
 11 12  1  6
 14 15  2  0
 14 11  1  0
 16 14  1  0
 17 25  1  0
 17 16  1  0
 17 18  1  1
 19 18  1  0
 20 19  2  0
 21 20  1  0
 22 23  1  0
 22 21  2  0
 23 24  2  0
 24 19  1  0
 25 27  1  0
 26 25  2  0
M  END
$$$$
