KCF.pdb
     RDKit          3D

 27 27  0  0  1  0  0  0  0  0999 V2000
   24.2510  -16.9267  -20.1863 N   0  0  0  0  0  0  0  0  0  0  0  0
   24.7274  -17.8052  -19.1414 C   0  0  1  0  0  0  0  0  0  0  0  0
   25.9770  -17.2552  -18.5631 C   0  0  0  0  0  0  0  0  0  0  0  0
   27.1332  -17.5210  -19.4857 C   0  0  0  0  0  0  0  0  0  0  0  0
   27.2738  -18.9747  -19.8169 C   0  0  0  0  0  0  0  0  0  0  0  0
   28.5002  -19.1806  -20.6930 C   0  0  0  0  0  0  0  0  0  0  0  0
   28.6374  -20.5383  -21.1359 N   0  0  0  0  0  0  0  0  0  0  0  0
   23.6643  -18.0259  -18.1043 C   0  0  0  0  0  0  0  0  0  0  0  0
   23.4261  -17.1008  -17.2897 O   0  0  0  0  0  0  0  0  0  0  0  0
   22.9150  -19.2167  -17.9920 N   0  0  0  0  0  0  0  0  0  0  0  0
   21.9287  -19.4843  -16.9950 C   0  0  1  0  0  0  0  0  0  0  0  0
   20.7360  -20.2431  -17.5140 C   0  0  0  0  0  0  0  0  0  0  0  0
   19.4732  -19.0538  -18.0412 S   0  0  0  0  0  0  0  0  0  0  0  0
   22.4782  -20.1934  -15.8099 C   0  0  0  0  0  0  0  0  0  0  0  0
   23.2165  -21.1923  -16.0097 O   0  0  0  0  0  0  0  0  0  0  0  0
   22.2196  -19.8109  -14.4808 N   0  0  0  0  0  0  0  0  0  0  0  0
   22.8115  -20.5030  -13.3217 C   0  0  1  0  0  0  0  0  0  0  0  0
   23.4886  -19.5283  -12.4159 C   0  0  0  0  0  0  0  0  0  0  0  0
   23.9901  -20.1755  -11.1923 C   0  0  0  0  0  0  0  0  0  0  0  0
   23.2305  -20.2316  -10.0495 C   0  0  0  0  0  0  0  0  0  0  0  0
   23.6687  -20.8378   -8.8885 C   0  0  0  0  0  0  0  0  0  0  0  0
   24.9142  -21.4027   -8.8889 C   0  0  0  0  0  0  0  0  0  0  0  0
   25.7160  -21.3734  -10.0088 C   0  0  0  0  0  0  0  0  0  0  0  0
   25.2398  -20.7585  -11.1461 C   0  0  0  0  0  0  0  0  0  0  0  0
   21.7562  -21.2446  -12.6069 C   0  0  0  0  0  0  0  0  0  0  0  0
   21.9457  -22.2130  -11.8403 O   0  0  0  0  0  0  0  0  0  0  0  0
   20.4316  -20.8427  -12.7921 O   0  0  0  0  0  0  0  0  0  0  0  0
  2  8  1  0
  2  1  1  6
  3  2  1  0
  4  3  1  0
  5  6  1  0
  5  4  1  0
  7  6  1  0
  8  9  2  0
 10 11  1  0
 10  8  1  0
 12 13  1  0
 11 12  1  6
 14 15  2  0
 14 11  1  0
 16 14  1  0
 17 25  1  0
 17 16  1  0
 17 18  1  1
 19 18  1  0
 20 19  2  0
 21 20  1  0
 22 23  1  0
 22 21  2  0
 23 24  2  0
 24 19  1  0
 25 27  1  0
 26 25  2  0
M  END
$$$$
