CLC.pdb
     RDKit          3D

 21 20  0  0  1  0  0  0  0  0999 V2000
    7.2629  -15.7225   20.3910 N   0  0  0  0  0  0  0  0  0  0  0  0
    6.6528  -16.0975   21.6379 C   0  0  1  0  0  0  0  0  0  0  0  0
    6.4649  -17.5987   21.7358 C   0  0  0  0  0  0  0  0  0  0  0  0
    4.9566  -18.0321   20.8258 S   0  0  0  0  0  0  0  0  0  0  0  0
    7.5415  -15.6948   22.7474 C   0  0  0  0  0  0  0  0  0  0  0  0
    8.8032  -15.8099   22.6098 O   0  0  0  0  0  0  0  0  0  0  0  0
    5.9121  -12.0529   26.7983 C   0  0  0  0  0  0  0  0  0  0  0  0
    6.6435  -12.6958   25.5948 C   0  0  1  0  0  0  0  0  0  0  0  0
    7.7289  -11.7043   25.2427 C   0  0  0  0  0  0  0  0  0  0  0  0
    7.1524  -13.9996   26.0755 C   0  0  0  0  0  0  0  0  0  0  0  0
    7.7870  -14.9167   25.0939 C   0  0  2  0  0  0  0  0  0  0  0  0
    6.9777  -15.1921   23.9345 N   0  0  0  0  0  0  0  0  0  0  0  0
    8.2491  -16.1887   25.6673 C   0  0  0  0  0  0  0  0  0  0  0  0
    7.4540  -17.1175   25.8777 O   0  0  0  0  0  0  0  0  0  0  0  0
    9.6133  -16.3522   25.9809 N   0  0  0  0  0  0  0  0  0  0  0  0
   10.2098  -17.5560   26.4643 C   0  0  1  0  0  0  0  0  0  0  0  0
   11.4205  -17.8549   25.5822 C   0  0  0  0  0  0  0  0  0  0  0  0
   12.3524  -19.2733   26.1734 S   0  0  0  0  0  0  0  0  0  0  0  0
   10.7148  -17.3352   27.8324 C   0  0  0  0  0  0  0  0  0  0  0  0
   10.7505  -18.3477   28.7833 O   0  0  0  0  0  0  0  0  0  0  0  0
   11.1315  -16.2027   28.1721 O   0  0  0  0  0  0  0  0  0  0  0  0
  2  1  1  6
  2  3  1  0
  2  5  1  0
  3  4  1  0
  5  6  2  0
  8  7  1  1
  8 10  1  0
  9  8  1  0
 11 10  1  1
 12 11  1  0
 12  5  1  0
 13 11  1  0
 13 14  2  0
 15 13  1  0
 16 15  1  0
 16 19  1  0
 16 17  1  6
 18 17  1  0
 19 21  2  0
 19 20  1  0
M  END
$$$$
