CLC.pdb
     RDKit          3D

 21 20  0  0  1  0  0  0  0  0999 V2000
    6.3223  -18.1775   22.6377 N   0  0  0  0  0  0  0  0  0  0  0  0
    6.5022  -18.0062   24.0540 C   0  0  1  0  0  0  0  0  0  0  0  0
    7.0397  -19.2666   24.7029 C   0  0  0  0  0  0  0  0  0  0  0  0
    7.0922  -18.9916   26.4953 S   0  0  0  0  0  0  0  0  0  0  0  0
    7.4956  -16.9373   24.2859 C   0  0  0  0  0  0  0  0  0  0  0  0
    8.4467  -16.7778   23.4529 O   0  0  0  0  0  0  0  0  0  0  0  0
    5.7397  -12.5012   26.8771 C   0  0  0  0  0  0  0  0  0  0  0  0
    6.4407  -13.2776   25.7359 C   0  0  1  0  0  0  0  0  0  0  0  0
    6.6998  -12.2319   24.6754 C   0  0  0  0  0  0  0  0  0  0  0  0
    7.6695  -13.8518   26.3276 C   0  0  0  0  0  0  0  0  0  0  0  0
    8.2873  -15.0315   25.6689 C   0  0  2  0  0  0  0  0  0  0  0  0
    7.3723  -16.1162   25.4218 N   0  0  0  0  0  0  0  0  0  0  0  0
    9.4744  -15.5556   26.3592 C   0  0  0  0  0  0  0  0  0  0  0  0
   10.4650  -14.8354   26.5566 O   0  0  0  0  0  0  0  0  0  0  0  0
    9.4842  -16.8938   26.8013 N   0  0  0  0  0  0  0  0  0  0  0  0
   10.5967  -17.5547   27.4050 C   0  0  1  0  0  0  0  0  0  0  0  0
   10.1991  -17.9078   28.8370 C   0  0  0  0  0  0  0  0  0  0  0  0
    8.5541  -18.6263   28.9229 S   0  0  0  0  0  0  0  0  0  0  0  0
   10.8506  -18.8252   26.7002 C   0  0  0  0  0  0  0  0  0  0  0  0
   10.0540  -19.2638   25.6496 O   0  0  0  0  0  0  0  0  0  0  0  0
   11.8130  -19.5515   27.0435 O   0  0  0  0  0  0  0  0  0  0  0  0
  2  1  1  6
  2  3  1  0
  2  5  1  0
  3  4  1  0
  5  6  2  0
  8  7  1  1
  8 10  1  0
  9  8  1  0
 11 10  1  1
 12 11  1  0
 12  5  1  0
 13 11  1  0
 13 14  2  0
 15 13  1  0
 16 15  1  0
 16 19  1  0
 16 17  1  1
 18 17  1  0
 19 21  2  0
 19 20  1  0
M  END
$$$$
