CLC.pdb
     RDKit          3D

 21 20  0  0  1  0  0  0  0  0999 V2000
    6.8841  -16.9491   22.7945 N   0  0  0  0  0  0  0  0  0  0  0  0
    8.1442  -16.3507   22.4454 C   0  0  1  0  0  0  0  0  0  0  0  0
    8.0063  -15.4151   21.2604 C   0  0  0  0  0  0  0  0  0  0  0  0
    7.2072  -16.3335   19.9154 S   0  0  0  0  0  0  0  0  0  0  0  0
    8.6248  -15.5437   23.5859 C   0  0  0  0  0  0  0  0  0  0  0  0
    9.7700  -14.9886   23.5191 O   0  0  0  0  0  0  0  0  0  0  0  0
    5.6270  -11.9600   26.4160 C   0  0  0  0  0  0  0  0  0  0  0  0
    6.7547  -12.6468   25.6076 C   0  0  1  0  0  0  0  0  0  0  0  0
    7.7693  -11.5507   25.3743 C   0  0  0  0  0  0  0  0  0  0  0  0
    7.2491  -13.7537   26.4561 C   0  0  0  0  0  0  0  0  0  0  0  0
    8.2585  -14.6841   25.8878 C   0  0  2  0  0  0  0  0  0  0  0  0
    7.8090  -15.4035   24.7236 N   0  0  0  0  0  0  0  0  0  0  0  0
    8.8109  -15.6410   26.8571 C   0  0  0  0  0  0  0  0  0  0  0  0
    9.0656  -15.2926   28.0202 O   0  0  0  0  0  0  0  0  0  0  0  0
    9.0533  -16.9704   26.4570 N   0  0  0  0  0  0  0  0  0  0  0  0
    9.5170  -18.0169   27.3105 C   0  0  1  0  0  0  0  0  0  0  0  0
    8.2883  -18.7078   27.8989 C   0  0  0  0  0  0  0  0  0  0  0  0
    7.4055  -19.6767   26.6694 S   0  0  0  0  0  0  0  0  0  0  0  0
   10.2346  -19.0222   26.5044 C   0  0  0  0  0  0  0  0  0  0  0  0
   10.8516  -20.1288   27.0748 O   0  0  0  0  0  0  0  0  0  0  0  0
   10.3036  -18.8948   25.2592 O   0  0  0  0  0  0  0  0  0  0  0  0
  2  1  1  1
  2  3  1  0
  2  5  1  0
  3  4  1  0
  5  6  2  0
  8  7  1  1
  8 10  1  0
  9  8  1  0
 11 10  1  1
 12 11  1  0
 12  5  1  0
 13 11  1  0
 13 14  2  0
 15 13  1  0
 16 15  1  0
 16 19  1  0
 16 17  1  6
 18 17  1  0
 19 21  2  0
 19 20  1  0
M  END
$$$$
