CLC.pdb
     RDKit          3D

 21 20  0  0  1  0  0  0  0  0999 V2000
    7.3323  -19.0444   22.5877 N   0  0  0  0  0  0  0  0  0  0  0  0
    7.3632  -18.6245   23.9626 C   0  0  1  0  0  0  0  0  0  0  0  0
    8.2875  -19.4963   24.7898 C   0  0  0  0  0  0  0  0  0  0  0  0
    8.1835  -18.9402   26.5134 S   0  0  0  0  0  0  0  0  0  0  0  0
    7.8863  -17.2444   24.0314 C   0  0  0  0  0  0  0  0  0  0  0  0
    8.8334  -16.8963   23.2530 O   0  0  0  0  0  0  0  0  0  0  0  0
    7.1849  -11.8676   24.5325 C   0  0  0  0  0  0  0  0  0  0  0  0
    7.0839  -12.6542   25.8621 C   0  0  1  0  0  0  0  0  0  0  0  0
    6.0402  -11.9074   26.6609 C   0  0  0  0  0  0  0  0  0  0  0  0
    6.6873  -14.0312   25.4926 C   0  0  0  0  0  0  0  0  0  0  0  0
    7.7350  -14.9596   24.9951 C   0  0  2  0  0  0  0  0  0  0  0  0
    7.3289  -16.3411   24.9549 N   0  0  0  0  0  0  0  0  0  0  0  0
    9.0177  -14.8591   25.7058 C   0  0  0  0  0  0  0  0  0  0  0  0
    9.7315  -13.8511   25.5902 O   0  0  0  0  0  0  0  0  0  0  0  0
    9.4391  -15.9231   26.5283 N   0  0  0  0  0  0  0  0  0  0  0  0
   10.4323  -15.8321   27.5501 C   0  0  1  0  0  0  0  0  0  0  0  0
    9.8708  -14.9433   28.6583 C   0  0  0  0  0  0  0  0  0  0  0  0
   11.1322  -14.4695   29.8475 S   0  0  0  0  0  0  0  0  0  0  0  0
   10.6532  -17.1674   28.1362 C   0  0  0  0  0  0  0  0  0  0  0  0
   11.8543  -17.5259   28.7358 O   0  0  0  0  0  0  0  0  0  0  0  0
    9.7399  -18.0255   28.1040 O   0  0  0  0  0  0  0  0  0  0  0  0
  2  1  1  6
  2  3  1  0
  2  5  1  0
  3  4  1  0
  5  6  2  0
  8  7  1  6
  8 10  1  0
  9  8  1  0
 11 10  1  1
 12 11  1  0
 12  5  1  0
 13 11  1  0
 13 14  2  0
 15 13  1  0
 16 15  1  0
 16 19  1  0
 16 17  1  1
 18 17  1  0
 19 21  2  0
 19 20  1  0
M  END
$$$$
