TLS.pdb
     RDKit          3D

 22 21  0  0  1  0  0  0  0  0999 V2000
    7.8962  -17.6648   19.5176 C   0  0  0  0  0  0  0  0  0  0  0  0
    8.2267  -17.3484   20.9596 C   0  0  1  0  0  0  0  0  0  0  0  0
    9.3293  -18.1206   21.3172 O   0  0  0  0  0  0  0  0  0  0  0  0
    8.5913  -15.8677   21.0109 C   0  0  2  0  0  0  0  0  0  0  0  0
    9.7167  -15.6857   20.1159 N   0  0  0  0  0  0  0  0  0  0  0  0
    8.9589  -15.4594   22.3992 C   0  0  0  0  0  0  0  0  0  0  0  0
   10.1222  -15.5976   22.8466 O   0  0  0  0  0  0  0  0  0  0  0  0
    5.6959  -12.3347   26.4782 C   0  0  0  0  0  0  0  0  0  0  0  0
    7.0339  -13.0980   26.3640 C   0  0  2  0  0  0  0  0  0  0  0  0
    8.1186  -12.1015   26.6786 C   0  0  0  0  0  0  0  0  0  0  0  0
    7.0845  -13.6289   24.9849 C   0  0  0  0  0  0  0  0  0  0  0  0
    8.2735  -14.4378   24.5963 C   0  0  2  0  0  0  0  0  0  0  0  0
    7.9698  -14.9061   23.2213 N   0  0  0  0  0  0  0  0  0  0  0  0
    8.5035  -15.6420   25.4042 C   0  0  0  0  0  0  0  0  0  0  0  0
    7.6125  -16.5174   25.4856 O   0  0  0  0  0  0  0  0  0  0  0  0
   12.1775  -17.2253   25.8534 O   0  0  0  0  0  0  0  0  0  0  0  0
   11.0138  -17.9535   26.0409 C   0  0  0  0  0  0  0  0  0  0  0  0
    9.9637  -17.1544   26.7853 C   0  0  2  0  0  0  0  0  0  0  0  0
    9.7024  -15.8860   26.1159 N   0  0  0  0  0  0  0  0  0  0  0  0
   10.4673  -16.9365   28.1665 C   0  0  0  0  0  0  0  0  0  0  0  0
   10.6539  -15.7908   28.5992 O   0  0  0  0  0  0  0  0  0  0  0  0
   10.7502  -18.0038   29.0303 O   0  0  0  0  0  0  0  0  0  0  0  0
  2  4  1  0
  2  1  1  6
  3  2  1  0
  4  6  1  0
  4  5  1  6
  6  7  2  0
  9  8  1  6
  9 10  1  0
  9 11  1  0
 12 11  1  1
 12 14  1  0
 13 12  1  0
 13  6  1  0
 14 19  1  0
 14 15  2  0
 16 17  1  0
 18 17  1  6
 18 20  1  0
 19 18  1  0
 20 21  2  0
 20 22  1  0
M  END
$$$$
