TLS.pdb
     RDKit          3D

 22 21  0  0  1  0  0  0  0  0999 V2000
    7.2960  -17.8960   20.5257 C   0  0  0  0  0  0  0  0  0  0  0  0
    7.9243  -17.4209   21.8173 C   0  0  1  0  0  0  0  0  0  0  0  0
    8.9862  -18.2744   22.1069 O   0  0  0  0  0  0  0  0  0  0  0  0
    8.4473  -16.0113   21.5577 C   0  0  2  0  0  0  0  0  0  0  0  0
    9.6128  -16.1506   20.7074 N   0  0  0  0  0  0  0  0  0  0  0  0
    8.8148  -15.3373   22.8383 C   0  0  0  0  0  0  0  0  0  0  0  0
   10.0000  -15.2820   23.2440 O   0  0  0  0  0  0  0  0  0  0  0  0
    5.3953  -12.0198   26.6190 C   0  0  0  0  0  0  0  0  0  0  0  0
    6.7938  -12.6721   26.5513 C   0  0  2  0  0  0  0  0  0  0  0  0
    7.7899  -11.5620   26.7610 C   0  0  0  0  0  0  0  0  0  0  0  0
    6.8799  -13.3164   25.2232 C   0  0  0  0  0  0  0  0  0  0  0  0
    8.0757  -14.1570   24.9362 C   0  0  2  0  0  0  0  0  0  0  0  0
    7.8001  -14.7512   23.6047 N   0  0  0  0  0  0  0  0  0  0  0  0
    8.2876  -15.2806   25.8572 C   0  0  0  0  0  0  0  0  0  0  0  0
    8.7904  -15.0757   26.9850 O   0  0  0  0  0  0  0  0  0  0  0  0
    7.5380  -19.2460   24.7451 O   0  0  0  0  0  0  0  0  0  0  0  0
    7.3484  -18.9325   26.0813 C   0  0  0  0  0  0  0  0  0  0  0  0
    8.1449  -17.7106   26.4911 C   0  0  2  0  0  0  0  0  0  0  0  0
    7.9487  -16.6190   25.5451 N   0  0  0  0  0  0  0  0  0  0  0  0
    9.5743  -18.1127   26.5547 C   0  0  0  0  0  0  0  0  0  0  0  0
   10.4131  -17.5905   25.8075 O   0  0  0  0  0  0  0  0  0  0  0  0
   10.0315  -19.0883   27.4516 O   0  0  0  0  0  0  0  0  0  0  0  0
  2  4  1  0
  2  1  1  6
  3  2  1  0
  4  6  1  0
  4  5  1  6
  6  7  2  0
  9  8  1  6
  9 10  1  0
  9 11  1  0
 12 11  1  1
 12 14  1  0
 13 12  1  0
 13  6  1  0
 14 19  1  0
 14 15  2  0
 16 17  1  0
 18 17  1  6
 18 20  1  0
 19 18  1  0
 20 21  2  0
 20 22  1  0
M  END
$$$$
