TLS.pdb
     RDKit          3D

 22 21  0  0  1  0  0  0  0  0999 V2000
    6.7055  -17.4601   21.5845 C   0  0  0  0  0  0  0  0  0  0  0  0
    7.7160  -16.9492   20.5812 C   0  0  1  0  0  0  0  0  0  0  0  0
    7.2894  -17.3455   19.3160 O   0  0  0  0  0  0  0  0  0  0  0  0
    7.7012  -15.4268   20.6808 C   0  0  2  0  0  0  0  0  0  0  0  0
    8.4382  -14.9284   19.5366 N   0  0  0  0  0  0  0  0  0  0  0  0
    8.3413  -14.9717   21.9506 C   0  0  0  0  0  0  0  0  0  0  0  0
    9.5868  -14.9202   22.0859 O   0  0  0  0  0  0  0  0  0  0  0  0
    5.9782  -12.2932   26.8436 C   0  0  0  0  0  0  0  0  0  0  0  0
    7.2456  -13.0714   26.4265 C   0  0  2  0  0  0  0  0  0  0  0  0
    8.4126  -12.1601   26.7024 C   0  0  0  0  0  0  0  0  0  0  0  0
    7.0669  -13.4064   24.9974 C   0  0  0  0  0  0  0  0  0  0  0  0
    8.0770  -14.2985   24.3626 C   0  0  2  0  0  0  0  0  0  0  0  0
    7.5197  -14.5923   23.0191 N   0  0  0  0  0  0  0  0  0  0  0  0
    8.2725  -15.5945   25.0242 C   0  0  0  0  0  0  0  0  0  0  0  0
    7.3083  -16.3834   25.1465 O   0  0  0  0  0  0  0  0  0  0  0  0
   11.0638  -17.6285   24.2660 O   0  0  0  0  0  0  0  0  0  0  0  0
   10.7315  -18.1503   25.5057 C   0  0  0  0  0  0  0  0  0  0  0  0
    9.6785  -17.3144   26.2041 C   0  0  2  0  0  0  0  0  0  0  0  0
    9.5163  -16.0239   25.5458 N   0  0  0  0  0  0  0  0  0  0  0  0
   10.1106  -17.1441   27.6159 C   0  0  0  0  0  0  0  0  0  0  0  0
   10.2387  -16.0141   28.1072 O   0  0  0  0  0  0  0  0  0  0  0  0
   10.3889  -18.2403   28.4442 O   0  0  0  0  0  0  0  0  0  0  0  0
  2  4  1  0
  2  1  1  1
  3  2  1  0
  4  6  1  0
  4  5  1  6
  6  7  2  0
  9  8  1  6
  9 10  1  0
  9 11  1  0
 12 11  1  1
 12 14  1  0
 13 12  1  0
 13  6  1  0
 14 19  1  0
 14 15  2  0
 16 17  1  0
 18 17  1  6
 18 20  1  0
 19 18  1  0
 20 21  2  0
 20 22  1  0
M  END
$$$$
