TLS.pdb
     RDKit          3D

 22 21  0  0  1  0  0  0  0  0999 V2000
    6.2699  -16.1931   19.6694 C   0  0  0  0  0  0  0  0  0  0  0  0
    7.0465  -16.1698   20.9675 C   0  0  1  0  0  0  0  0  0  0  0  0
    8.2371  -16.8614   20.7575 O   0  0  0  0  0  0  0  0  0  0  0  0
    7.3442  -14.7051   21.2739 C   0  0  2  0  0  0  0  0  0  0  0  0
    8.1419  -14.2040   20.1723 N   0  0  0  0  0  0  0  0  0  0  0  0
    8.0912  -14.5730   22.5598 C   0  0  0  0  0  0  0  0  0  0  0  0
    9.3429  -14.5087   22.5978 O   0  0  0  0  0  0  0  0  0  0  0  0
    7.9794  -11.5288   26.1149 C   0  0  0  0  0  0  0  0  0  0  0  0
    6.7005  -12.3036   25.7279 C   0  0  2  0  0  0  0  0  0  0  0  0
    5.6006  -11.7736   26.6099 C   0  0  0  0  0  0  0  0  0  0  0  0
    7.0090  -13.7337   25.9425 C   0  0  0  0  0  0  0  0  0  0  0  0
    8.0400  -14.3596   25.0683 C   0  0  2  0  0  0  0  0  0  0  0  0
    7.3657  -14.5199   23.7563 N   0  0  0  0  0  0  0  0  0  0  0  0
    8.4783  -15.6999   25.4770 C   0  0  0  0  0  0  0  0  0  0  0  0
    7.6525  -16.6396   25.5195 O   0  0  0  0  0  0  0  0  0  0  0  0
   11.4720  -17.3896   24.1460 O   0  0  0  0  0  0  0  0  0  0  0  0
   11.5038  -17.7459   25.4845 C   0  0  0  0  0  0  0  0  0  0  0  0
   10.2262  -17.3577   26.2005 C   0  0  2  0  0  0  0  0  0  0  0  0
    9.8127  -16.0087   25.8343 N   0  0  0  0  0  0  0  0  0  0  0  0
   10.4864  -17.4596   27.6603 C   0  0  0  0  0  0  0  0  0  0  0  0
   10.8742  -18.5239   28.1617 O   0  0  0  0  0  0  0  0  0  0  0  0
   10.3068  -16.3701   28.5239 O   0  0  0  0  0  0  0  0  0  0  0  0
  2  4  1  0
  2  1  1  6
  3  2  1  0
  4  6  1  0
  4  5  1  6
  6  7  2  0
  9  8  1  1
  9 10  1  0
  9 11  1  0
 12 11  1  1
 12 14  1  0
 13 12  1  0
 13  6  1  0
 14 19  1  0
 14 15  2  0
 16 17  1  0
 18 17  1  6
 18 20  1  0
 19 18  1  0
 20 21  2  0
 20 22  1  0
M  END
$$$$
