TLS.pdb
     RDKit          3D

 22 21  0  0  1  0  0  0  0  0999 V2000
    6.7514  -14.7345   18.3612 C   0  0  0  0  0  0  0  0  0  0  0  0
    7.2985  -14.8949   19.7626 C   0  0  1  0  0  0  0  0  0  0  0  0
    8.4724  -15.6391   19.6728 O   0  0  0  0  0  0  0  0  0  0  0  0
    7.6113  -13.4919   20.2741 C   0  0  2  0  0  0  0  0  0  0  0  0
    8.5754  -12.9200   19.3553 N   0  0  0  0  0  0  0  0  0  0  0  0
    8.1759  -13.5441   21.6553 C   0  0  0  0  0  0  0  0  0  0  0  0
    9.4115  -13.5650   21.8679 O   0  0  0  0  0  0  0  0  0  0  0  0
    5.6073  -12.1272   26.9202 C   0  0  0  0  0  0  0  0  0  0  0  0
    6.8738  -12.8346   26.3898 C   0  0  2  0  0  0  0  0  0  0  0  0
    8.0452  -12.0050   26.8462 C   0  0  0  0  0  0  0  0  0  0  0  0
    6.7187  -12.9021   24.9209 C   0  0  0  0  0  0  0  0  0  0  0  0
    7.7835  -13.5940   24.1421 C   0  0  2  0  0  0  0  0  0  0  0  0
    7.2931  -13.5704   22.7418 N   0  0  0  0  0  0  0  0  0  0  0  0
    7.9939  -15.0059   24.4852 C   0  0  0  0  0  0  0  0  0  0  0  0
    7.0459  -15.8179   24.3915 O   0  0  0  0  0  0  0  0  0  0  0  0
   11.6022  -16.7236   24.1628 O   0  0  0  0  0  0  0  0  0  0  0  0
   10.4731  -17.5231   24.2379 C   0  0  0  0  0  0  0  0  0  0  0  0
    9.4365  -16.9458   25.1800 C   0  0  2  0  0  0  0  0  0  0  0  0
    9.2350  -15.5246   24.9258 N   0  0  0  0  0  0  0  0  0  0  0  0
    9.9179  -17.1782   26.5668 C   0  0  0  0  0  0  0  0  0  0  0  0
   10.1114  -16.2279   27.3376 O   0  0  0  0  0  0  0  0  0  0  0  0
   10.1712  -18.4664   27.0583 O   0  0  0  0  0  0  0  0  0  0  0  0
  2  4  1  0
  2  1  1  6
  3  2  1  0
  4  6  1  0
  4  5  1  6
  6  7  2  0
  9  8  1  1
  9 10  1  0
  9 11  1  0
 12 11  1  1
 12 14  1  0
 13 12  1  0
 13  6  1  0
 14 19  1  0
 14 15  2  0
 16 17  1  0
 18 17  1  6
 18 20  1  0
 19 18  1  0
 20 21  2  0
 20 22  1  0
M  END
$$$$
