TLS.pdb
     RDKit          3D

 22 21  0  0  1  0  0  0  0  0999 V2000
    6.0732  -16.2652   19.7315 C   0  0  0  0  0  0  0  0  0  0  0  0
    6.9086  -16.2543   20.9927 C   0  0  1  0  0  0  0  0  0  0  0  0
    8.0783  -16.9627   20.7282 O   0  0  0  0  0  0  0  0  0  0  0  0
    7.2410  -14.7943   21.2857 C   0  0  2  0  0  0  0  0  0  0  0  0
    8.0064  -14.3076   20.1552 N   0  0  0  0  0  0  0  0  0  0  0  0
    8.0361  -14.6731   22.5436 C   0  0  0  0  0  0  0  0  0  0  0  0
    9.2887  -14.6168   22.5353 O   0  0  0  0  0  0  0  0  0  0  0  0
    8.0592  -11.6585   26.0439 C   0  0  0  0  0  0  0  0  0  0  0  0
    6.7502  -12.4366   25.7852 C   0  0  2  0  0  0  0  0  0  0  0  0
    5.7395  -11.9042   26.7668 C   0  0  0  0  0  0  0  0  0  0  0  0
    7.0804  -13.8654   25.9750 C   0  0  0  0  0  0  0  0  0  0  0  0
    8.0796  -14.4748   25.0535 C   0  0  2  0  0  0  0  0  0  0  0  0
    7.3559  -14.6212   23.7664 N   0  0  0  0  0  0  0  0  0  0  0  0
    8.5393  -15.8181   25.4272 C   0  0  0  0  0  0  0  0  0  0  0  0
    7.7034  -16.7176   25.6701 O   0  0  0  0  0  0  0  0  0  0  0  0
   12.4134  -16.8688   24.8091 O   0  0  0  0  0  0  0  0  0  0  0  0
   11.5212  -17.9196   24.9479 C   0  0  0  0  0  0  0  0  0  0  0  0
   10.3334  -17.5395   25.8081 C   0  0  2  0  0  0  0  0  0  0  0  0
    9.9054  -16.1737   25.5317 N   0  0  0  0  0  0  0  0  0  0  0  0
   10.7453  -17.6939   27.2278 C   0  0  0  0  0  0  0  0  0  0  0  0
   11.2037  -18.7680   27.6410 O   0  0  0  0  0  0  0  0  0  0  0  0
   10.6350  -16.6446   28.1509 O   0  0  0  0  0  0  0  0  0  0  0  0
  2  4  1  0
  2  1  1  6
  3  2  1  0
  4  6  1  0
  4  5  1  6
  6  7  2  0
  9  8  1  1
  9 10  1  0
  9 11  1  0
 12 11  1  1
 12 14  1  0
 13 12  1  0
 13  6  1  0
 14 19  1  0
 14 15  2  0
 16 17  1  0
 18 17  1  6
 18 20  1  0
 19 18  1  0
 20 21  2  0
 20 22  1  0
M  END
$$$$
