TLS.pdb
     RDKit          3D

 22 21  0  0  1  0  0  0  0  0999 V2000
    6.3791  -17.9230   22.4627 C   0  0  0  0  0  0  0  0  0  0  0  0
    7.1589  -17.1885   21.3944 C   0  0  1  0  0  0  0  0  0  0  0  0
    6.5349  -17.4356   20.1739 O   0  0  0  0  0  0  0  0  0  0  0  0
    7.0711  -15.7030   21.7310 C   0  0  2  0  0  0  0  0  0  0  0  0
    7.5521  -14.9843   20.5678 N   0  0  0  0  0  0  0  0  0  0  0  0
    7.9066  -15.3791   22.9252 C   0  0  0  0  0  0  0  0  0  0  0  0
    9.1596  -15.3719   22.8776 O   0  0  0  0  0  0  0  0  0  0  0  0
    8.0975  -11.8336   25.7285 C   0  0  0  0  0  0  0  0  0  0  0  0
    6.7745  -12.6306   25.7254 C   0  0  2  0  0  0  0  0  0  0  0  0
    5.8245  -11.8786   26.6201 C   0  0  0  0  0  0  0  0  0  0  0  0
    7.1133  -13.9860   26.2096 C   0  0  0  0  0  0  0  0  0  0  0  0
    8.0309  -14.8113   25.3753 C   0  0  2  0  0  0  0  0  0  0  0  0
    7.2650  -15.0751   24.1320 N   0  0  0  0  0  0  0  0  0  0  0  0
    8.3782  -16.1231   25.9358 C   0  0  0  0  0  0  0  0  0  0  0  0
    7.4729  -16.9430   26.2102 O   0  0  0  0  0  0  0  0  0  0  0  0
   12.1530  -17.6566   25.5921 O   0  0  0  0  0  0  0  0  0  0  0  0
   11.0996  -18.5202   25.8453 C   0  0  0  0  0  0  0  0  0  0  0  0
   10.0267  -17.8660   26.6918 C   0  0  2  0  0  0  0  0  0  0  0  0
    9.7082  -16.5343   26.1917 N   0  0  0  0  0  0  0  0  0  0  0  0
   10.5362  -17.8059   28.0866 C   0  0  0  0  0  0  0  0  0  0  0  0
   10.6641  -16.7195   28.6680 O   0  0  0  0  0  0  0  0  0  0  0  0
   10.8904  -18.9610   28.7977 O   0  0  0  0  0  0  0  0  0  0  0  0
  2  4  1  0
  2  1  1  1
  3  2  1  0
  4  6  1  0
  4  5  1  6
  6  7  2  0
  9  8  1  1
  9 10  1  0
  9 11  1  0
 12 11  1  1
 12 14  1  0
 13 12  1  0
 13  6  1  0
 14 19  1  0
 14 15  2  0
 16 17  1  0
 18 17  1  6
 18 20  1  0
 19 18  1  0
 20 21  2  0
 20 22  1  0
M  END
$$$$
