NPM.pdb
     RDKit          3D

 24 24  0  0  1  0  0  0  0  0999 V2000
   22.9386  -19.8546  -15.4535 N   0  0  0  0  0  0  0  0  0  0  0  0
   22.9885  -19.1662  -14.2308 C   0  0  0  0  0  0  0  0  0  0  0  0
   22.4289  -18.0495  -14.1359 O   0  0  0  0  0  0  0  0  0  0  0  0
   23.6797  -19.7219  -13.0675 C   0  0  0  0  0  0  0  0  0  0  0  0
   24.2514  -21.1004  -13.2492 C   0  0  2  0  0  0  0  0  0  0  0  0
   23.2396  -22.1085  -13.4619 N   0  0  0  0  0  0  0  0  0  0  0  0
   25.0983  -21.4830  -12.0824 C   0  0  0  0  0  0  0  0  0  0  0  0
   24.5306  -22.3758  -11.3389 O   0  0  0  0  0  0  0  0  0  0  0  0
   26.3666  -20.9776  -11.7627 N   0  0  0  0  0  0  0  0  0  0  0  0
   27.0583  -19.8718  -12.3065 C   0  0  0  0  0  0  0  0  0  0  0  0
   28.5170  -20.3065  -12.3121 C   0  0  0  0  0  0  0  0  0  0  0  0
   28.5694  -21.4666  -11.3539 C   0  0  0  0  0  0  0  0  0  0  0  0
   27.2048  -21.5361  -10.7193 C   0  0  1  0  0  0  0  0  0  0  0  0
   27.0713  -20.6496   -9.5236 C   0  0  0  0  0  0  0  0  0  0  0  0
   26.6809  -19.4354   -9.6287 O   0  0  0  0  0  0  0  0  0  0  0  0
   29.8709  -21.0317   -3.1269 C   0  0  0  0  0  0  0  0  0  0  0  0
   28.1301  -20.6063   -3.0886 S   0  0  0  0  0  0  0  0  0  0  0  0
   27.5428  -19.8487   -4.6249 C   0  0  0  0  0  0  0  0  0  0  0  0
   27.6019  -20.8130   -5.7706 C   0  0  0  0  0  0  0  0  0  0  0  0
   27.2115  -20.1739   -7.0819 C   0  0  2  0  0  0  0  0  0  0  0  0
   27.3640  -21.0771   -8.1941 N   0  0  0  0  0  0  0  0  0  0  0  0
   28.1368  -19.0086   -7.3021 C   0  0  0  0  0  0  0  0  0  0  0  0
   27.7611  -17.7791   -6.7960 O   0  0  0  0  0  0  0  0  0  0  0  0
   29.2102  -19.1245   -7.9160 O   0  0  0  0  0  0  0  0  0  0  0  0
  2  3  2  0
  2  1  1  0
  4  2  1  0
  5  7  1  0
  5  4  1  0
  5  6  1  1
  7  8  2  0
  9  7  1  0
 10  9  1  0
 11 12  1  0
 11 10  1  0
 12 13  1  0
 13  9  1  0
 13 14  1  1
 14 21  1  0
 15 14  2  0
 17 16  1  0
 18 19  1  0
 18 17  1  0
 20 19  1  1
 20 22  1  0
 21 20  1  0
 22 24  2  0
 22 23  1  0
M  END
$$$$
