NPM.pdb
     RDKit          3D

 24 24  0  0  1  0  0  0  0  0999 V2000
   29.2895  -19.3939  -16.3365 N   0  0  0  0  0  0  0  0  0  0  0  0
   27.9985  -18.8465  -16.2653 C   0  0  0  0  0  0  0  0  0  0  0  0
   27.7667  -17.7541  -16.8330 O   0  0  0  0  0  0  0  0  0  0  0  0
   26.9201  -19.5211  -15.5430 C   0  0  0  0  0  0  0  0  0  0  0  0
   27.2998  -20.8060  -14.8611 C   0  0  2  0  0  0  0  0  0  0  0  0
   27.8234  -21.7962  -15.7724 N   0  0  0  0  0  0  0  0  0  0  0  0
   26.1393  -21.3769  -14.1180 C   0  0  0  0  0  0  0  0  0  0  0  0
   25.6115  -22.3833  -14.7353 O   0  0  0  0  0  0  0  0  0  0  0  0
   25.6224  -20.9292  -12.8938 N   0  0  0  0  0  0  0  0  0  0  0  0
   25.9719  -19.7921  -12.1311 C   0  0  0  0  0  0  0  0  0  0  0  0
   25.8424  -20.2539  -10.6865 C   0  0  0  0  0  0  0  0  0  0  0  0
   24.9989  -21.4987  -10.7618 C   0  0  0  0  0  0  0  0  0  0  0  0
   24.5430  -21.5990  -12.1942 C   0  0  1  0  0  0  0  0  0  0  0  0
   23.2938  -20.8246  -12.4648 C   0  0  0  0  0  0  0  0  0  0  0  0
   23.3154  -19.5580  -12.6459 O   0  0  0  0  0  0  0  0  0  0  0  0
   18.6979  -24.0325  -15.6468 C   0  0  0  0  0  0  0  0  0  0  0  0
   18.2408  -22.3351  -15.9969 S   0  0  0  0  0  0  0  0  0  0  0  0
   19.1250  -21.1289  -14.9758 C   0  0  0  0  0  0  0  0  0  0  0  0
   20.2261  -21.7754  -14.1912 C   0  0  0  0  0  0  0  0  0  0  0  0
   20.9438  -20.7970  -13.2924 C   0  0  2  0  0  0  0  0  0  0  0  0
   22.0009  -21.4236  -12.5401 N   0  0  0  0  0  0  0  0  0  0  0  0
   19.9319  -20.2661  -12.3142 C   0  0  0  0  0  0  0  0  0  0  0  0
   19.0722  -19.2746  -12.7462 O   0  0  0  0  0  0  0  0  0  0  0  0
   19.8530  -20.6911  -11.1498 O   0  0  0  0  0  0  0  0  0  0  0  0
  2  3  2  0
  2  1  1  0
  4  2  1  0
  5  7  1  0
  5  4  1  0
  5  6  1  6
  7  8  2  0
  9  7  1  0
 10  9  1  0
 11 12  1  0
 11 10  1  0
 12 13  1  0
 13  9  1  0
 13 14  1  1
 14 21  1  0
 15 14  2  0
 17 16  1  0
 18 19  1  0
 18 17  1  0
 20 19  1  6
 20 22  1  0
 21 20  1  0
 22 24  2  0
 22 23  1  0
M  END
$$$$
