NPM.pdb
     RDKit          3D

 24 24  0  0  1  0  0  0  0  0999 V2000
   19.5523  -20.4187  -15.7725 N   0  0  0  0  0  0  0  0  0  0  0  0
   18.5812  -21.0566  -14.9842 C   0  0  0  0  0  0  0  0  0  0  0  0
   17.3875  -21.0521  -15.3640 O   0  0  0  0  0  0  0  0  0  0  0  0
   18.9311  -21.7237  -13.7303 C   0  0  0  0  0  0  0  0  0  0  0  0
   20.3896  -21.6995  -13.3668 C   0  0  2  0  0  0  0  0  0  0  0  0
   21.2210  -22.3981  -14.3185 N   0  0  0  0  0  0  0  0  0  0  0  0
   20.6077  -22.2661  -12.0043 C   0  0  0  0  0  0  0  0  0  0  0  0
   21.0990  -23.4616  -12.0456 O   0  0  0  0  0  0  0  0  0  0  0  0
   20.3350  -21.6396  -10.7798 N   0  0  0  0  0  0  0  0  0  0  0  0
   19.6634  -20.4237  -10.5207 C   0  0  0  0  0  0  0  0  0  0  0  0
   20.4024  -19.8325   -9.3285 C   0  0  0  0  0  0  0  0  0  0  0  0
   21.1603  -20.9929   -8.7404 C   0  0  0  0  0  0  0  0  0  0  0  0
   20.6972  -22.2107   -9.4969 C   0  0  1  0  0  0  0  0  0  0  0  0
   19.4609  -22.8209   -8.9201 C   0  0  0  0  0  0  0  0  0  0  0  0
   18.2944  -22.4783   -9.3196 O   0  0  0  0  0  0  0  0  0  0  0  0
   18.8301  -28.0994   -4.4294 C   0  0  0  0  0  0  0  0  0  0  0  0
   18.0267  -28.4195   -5.9994 S   0  0  0  0  0  0  0  0  0  0  0  0
   17.5635  -26.9118   -6.8889 C   0  0  0  0  0  0  0  0  0  0  0  0
   18.7317  -25.9865   -7.0474 C   0  0  0  0  0  0  0  0  0  0  0  0
   18.3438  -24.6729   -7.6832 C   0  0  2  0  0  0  0  0  0  0  0  0
   19.4813  -23.8146   -7.8964 N   0  0  0  0  0  0  0  0  0  0  0  0
   17.4104  -23.9761   -6.7314 C   0  0  0  0  0  0  0  0  0  0  0  0
   16.0774  -24.3388   -6.7500 O   0  0  0  0  0  0  0  0  0  0  0  0
   17.8035  -23.0995   -5.9442 O   0  0  0  0  0  0  0  0  0  0  0  0
  2  3  2  0
  2  1  1  0
  4  2  1  0
  5  7  1  0
  5  4  1  0
  5  6  1  6
  7  8  2  0
  9  7  1  0
 10  9  1  0
 11 12  1  0
 11 10  1  0
 12 13  1  0
 13  9  1  0
 13 14  1  1
 14 21  1  0
 15 14  2  0
 17 16  1  0
 18 19  1  0
 18 17  1  0
 20 19  1  1
 20 22  1  0
 21 20  1  0
 22 24  2  0
 22 23  1  0
M  END
$$$$
