NPM.pdb
     RDKit          3D

 24 24  0  0  1  0  0  0  0  0999 V2000
   19.4402  -20.6732  -15.7823 N   0  0  0  0  0  0  0  0  0  0  0  0
   18.5774  -21.5190  -15.0669 C   0  0  0  0  0  0  0  0  0  0  0  0
   17.4238  -21.7284  -15.5079 O   0  0  0  0  0  0  0  0  0  0  0  0
   18.9941  -22.1588  -13.8191 C   0  0  0  0  0  0  0  0  0  0  0  0
   20.4157  -21.9040  -13.4020 C   0  0  2  0  0  0  0  0  0  0  0  0
   21.3815  -22.5329  -14.2719 N   0  0  0  0  0  0  0  0  0  0  0  0
   20.6458  -22.3499  -11.9972 C   0  0  0  0  0  0  0  0  0  0  0  0
   21.2294  -23.5025  -11.9402 O   0  0  0  0  0  0  0  0  0  0  0  0
   20.2971  -21.6587  -10.8281 N   0  0  0  0  0  0  0  0  0  0  0  0
   19.5772  -20.4522  -10.6765 C   0  0  0  0  0  0  0  0  0  0  0  0
   20.2412  -19.7644   -9.4921 C   0  0  0  0  0  0  0  0  0  0  0  0
   21.0061  -20.8603   -8.7986 C   0  0  0  0  0  0  0  0  0  0  0  0
   20.6163  -22.1372   -9.4968 C   0  0  1  0  0  0  0  0  0  0  0  0
   19.3737  -22.7518   -8.9386 C   0  0  0  0  0  0  0  0  0  0  0  0
   18.2233  -22.5217   -9.4498 O   0  0  0  0  0  0  0  0  0  0  0  0
   18.7402  -27.0114   -3.6046 C   0  0  0  0  0  0  0  0  0  0  0  0
   17.8292  -27.6972   -4.9876 S   0  0  0  0  0  0  0  0  0  0  0  0
   17.4258  -26.4725   -6.2590 C   0  0  0  0  0  0  0  0  0  0  0  0
   18.5860  -25.5651   -6.5356 C   0  0  0  0  0  0  0  0  0  0  0  0
   18.2669  -24.5251   -7.5828 C   0  0  2  0  0  0  0  0  0  0  0  0
   19.3699  -23.6267   -7.8115 N   0  0  0  0  0  0  0  0  0  0  0  0
   17.1094  -23.7146   -7.0671 C   0  0  0  0  0  0  0  0  0  0  0  0
   15.8335  -24.2001   -7.2798 O   0  0  0  0  0  0  0  0  0  0  0  0
   17.2717  -22.6401   -6.4657 O   0  0  0  0  0  0  0  0  0  0  0  0
  2  3  2  0
  2  1  1  0
  4  2  1  0
  5  7  1  0
  5  4  1  0
  5  6  1  6
  7  8  2  0
  9  7  1  0
 10  9  1  0
 11 12  1  0
 11 10  1  0
 12 13  1  0
 13  9  1  0
 13 14  1  1
 14 21  1  0
 15 14  2  0
 17 16  1  0
 18 19  1  0
 18 17  1  0
 20 19  1  1
 20 22  1  0
 21 20  1  0
 22 24  2  0
 22 23  1  0
M  END
$$$$
