NPM.pdb
     RDKit          3D

 24 24  0  0  1  0  0  0  0  0999 V2000
   26.5468  -25.1591  -17.3747 N   0  0  0  0  0  0  0  0  0  0  0  0
   25.8679  -25.1581  -16.1456 C   0  0  0  0  0  0  0  0  0  0  0  0
   25.2989  -26.2061  -15.7618 O   0  0  0  0  0  0  0  0  0  0  0  0
   25.8087  -23.9623  -15.3052 C   0  0  0  0  0  0  0  0  0  0  0  0
   26.6069  -22.7855  -15.7932 C   0  0  2  0  0  0  0  0  0  0  0  0
   27.8946  -23.1591  -16.3292 N   0  0  0  0  0  0  0  0  0  0  0  0
   26.7920  -21.7809  -14.7062 C   0  0  0  0  0  0  0  0  0  0  0  0
   28.0374  -21.6202  -14.3969 O   0  0  0  0  0  0  0  0  0  0  0  0
   25.7859  -21.0588  -14.0485 N   0  0  0  0  0  0  0  0  0  0  0  0
   24.3830  -21.2211  -14.0975 C   0  0  0  0  0  0  0  0  0  0  0  0
   23.8372  -19.8027  -14.0134 C   0  0  0  0  0  0  0  0  0  0  0  0
   24.9842  -18.9874  -13.4782 C   0  0  0  0  0  0  0  0  0  0  0  0
   26.0601  -19.9793  -13.1198 C   0  0  1  0  0  0  0  0  0  0  0  0
   25.9067  -20.5337  -11.7404 C   0  0  0  0  0  0  0  0  0  0  0  0
   25.2712  -21.6228  -11.5219 O   0  0  0  0  0  0  0  0  0  0  0  0
   29.2845  -20.1651   -5.0592 C   0  0  0  0  0  0  0  0  0  0  0  0
   27.7459  -19.4074   -5.5801 S   0  0  0  0  0  0  0  0  0  0  0  0
   26.8723  -20.3574   -6.8502 C   0  0  0  0  0  0  0  0  0  0  0  0
   27.0200  -19.7311   -8.2037 C   0  0  0  0  0  0  0  0  0  0  0  0
   26.3527  -20.5415   -9.2891 C   0  0  2  0  0  0  0  0  0  0  0  0
   26.4450  -19.9047  -10.5783 N   0  0  0  0  0  0  0  0  0  0  0  0
   24.8959  -20.6515   -8.9308 C   0  0  0  0  0  0  0  0  0  0  0  0
   24.5140  -21.6695   -8.0783 O   0  0  0  0  0  0  0  0  0  0  0  0
   24.0453  -19.8629   -9.3749 O   0  0  0  0  0  0  0  0  0  0  0  0
  2  3  2  0
  2  1  1  0
  4  2  1  0
  5  7  1  0
  5  4  1  0
  5  6  1  1
  7  8  2  0
  9  7  1  0
 10  9  1  0
 11 12  1  0
 11 10  1  0
 12 13  1  0
 13  9  1  0
 13 14  1  1
 14 21  1  0
 15 14  2  0
 17 16  1  0
 18 19  1  0
 18 17  1  0
 20 19  1  1
 20 22  1  0
 21 20  1  0
 22 24  2  0
 22 23  1  0
M  END
$$$$
