NPM.pdb
     RDKit          3D

 24 24  0  0  1  0  0  0  0  0999 V2000
   15.4760  -12.9923  -15.6755 N   0  0  0  0  0  0  0  0  0  0  0  0
   16.1829  -12.1745  -14.7792 C   0  0  0  0  0  0  0  0  0  0  0  0
   15.8531  -12.1661  -13.5707 O   0  0  0  0  0  0  0  0  0  0  0  0
   17.2929  -11.3323  -15.2244 C   0  0  0  0  0  0  0  0  0  0  0  0
   17.6280  -11.4195  -16.6874 C   0  0  2  0  0  0  0  0  0  0  0  0
   18.0257  -12.7454  -17.0982 N   0  0  0  0  0  0  0  0  0  0  0  0
   18.6981  -10.4445  -17.0469 C   0  0  0  0  0  0  0  0  0  0  0  0
   19.7858  -11.0316  -17.4271 O   0  0  0  0  0  0  0  0  0  0  0  0
   18.6107   -9.0457  -17.0015 N   0  0  0  0  0  0  0  0  0  0  0  0
   17.5569   -8.2241  -16.5417 C   0  0  0  0  0  0  0  0  0  0  0  0
   17.5745   -7.0281  -17.4830 C   0  0  0  0  0  0  0  0  0  0  0  0
   18.9340   -7.0748  -18.1283 C   0  0  0  0  0  0  0  0  0  0  0  0
   19.6880   -8.1682  -17.4170 C   0  0  1  0  0  0  0  0  0  0  0  0
   20.3738   -7.6930  -16.1772 C   0  0  0  0  0  0  0  0  0  0  0  0
   19.7813   -7.6873  -15.0429 O   0  0  0  0  0  0  0  0  0  0  0  0
   26.4681  -10.1272  -14.4728 C   0  0  0  0  0  0  0  0  0  0  0  0
   25.7441   -9.3775  -15.9311 S   0  0  0  0  0  0  0  0  0  0  0  0
   24.0099   -8.9056  -15.7093 C   0  0  0  0  0  0  0  0  0  0  0  0
   23.8852   -7.5563  -15.0691 C   0  0  0  0  0  0  0  0  0  0  0  0
   22.4472   -7.1205  -14.9197 C   0  0  2  0  0  0  0  0  0  0  0  0
   21.7182   -7.2154  -16.1589 N   0  0  0  0  0  0  0  0  0  0  0  0
   22.4610   -5.6759  -14.5007 C   0  0  0  0  0  0  0  0  0  0  0  0
   21.9708   -4.7392  -15.3902 O   0  0  0  0  0  0  0  0  0  0  0  0
   22.8942   -5.3133  -13.3946 O   0  0  0  0  0  0  0  0  0  0  0  0
  2  3  2  0
  2  1  1  0
  4  2  1  0
  5  7  1  0
  5  4  1  0
  5  6  1  1
  7  8  2  0
  9  7  1  0
 10  9  1  0
 11 12  1  0
 11 10  1  0
 12 13  1  0
 13  9  1  0
 13 14  1  1
 14 21  1  0
 15 14  2  0
 17 16  1  0
 18 19  1  0
 18 17  1  0
 20 19  1  6
 20 22  1  0
 21 20  1  0
 22 24  2  0
 22 23  1  0
M  END
$$$$
