NPM.pdb
     RDKit          3D

 24 24  0  0  1  0  0  0  0  0999 V2000
   17.6262  -19.3657  -16.1510 N   0  0  0  0  0  0  0  0  0  0  0  0
   18.4751  -19.2829  -15.0357 C   0  0  0  0  0  0  0  0  0  0  0  0
   18.0507  -18.7510  -13.9839 O   0  0  0  0  0  0  0  0  0  0  0  0
   19.8424  -19.8013  -15.0746 C   0  0  0  0  0  0  0  0  0  0  0  0
   20.2374  -20.4959  -16.3480 C   0  0  2  0  0  0  0  0  0  0  0  0
   19.5280  -21.7358  -16.5592 N   0  0  0  0  0  0  0  0  0  0  0  0
   21.7068  -20.7507  -16.3810 C   0  0  0  0  0  0  0  0  0  0  0  0
   21.9945  -21.9836  -16.1174 O   0  0  0  0  0  0  0  0  0  0  0  0
   22.7161  -19.8165  -16.6547 N   0  0  0  0  0  0  0  0  0  0  0  0
   22.6259  -18.4157  -16.8174 C   0  0  0  0  0  0  0  0  0  0  0  0
   23.6509  -18.0957  -17.8963 C   0  0  0  0  0  0  0  0  0  0  0  0
   24.5475  -19.3045  -17.9363 C   0  0  0  0  0  0  0  0  0  0  0  0
   24.1157  -20.1735  -16.7837 C   0  0  1  0  0  0  0  0  0  0  0  0
   24.7843  -19.8113  -15.4972 C   0  0  0  0  0  0  0  0  0  0  0  0
   24.5810  -18.6823  -14.9299 O   0  0  0  0  0  0  0  0  0  0  0  0
   23.7826  -20.8584  -10.1531 C   0  0  0  0  0  0  0  0  0  0  0  0
   25.4674  -20.3454   -9.8199 S   0  0  0  0  0  0  0  0  0  0  0  0
   26.6214  -20.7641  -11.1510 C   0  0  0  0  0  0  0  0  0  0  0  0
   25.8974  -21.1252  -12.4125 C   0  0  0  0  0  0  0  0  0  0  0  0
   26.3116  -20.2633  -13.5812 C   0  0  2  0  0  0  0  0  0  0  0  0
   25.6869  -20.6780  -14.8116 N   0  0  0  0  0  0  0  0  0  0  0  0
   27.7991  -20.4173  -13.7428 C   0  0  0  0  0  0  0  0  0  0  0  0
   28.6202  -19.6921  -12.9009 O   0  0  0  0  0  0  0  0  0  0  0  0
   28.2962  -21.1674  -14.5989 O   0  0  0  0  0  0  0  0  0  0  0  0
  2  3  2  0
  2  1  1  0
  4  2  1  0
  5  7  1  0
  5  4  1  0
  5  6  1  1
  7  8  2  0
  9  7  1  0
 10  9  1  0
 11 12  1  0
 11 10  1  0
 12 13  1  0
 13  9  1  0
 13 14  1  1
 14 21  1  0
 15 14  2  0
 17 16  1  0
 18 19  1  0
 18 17  1  0
 20 19  1  1
 20 22  1  0
 21 20  1  0
 22 24  2  0
 22 23  1  0
M  END
$$$$
