NPM.pdb
     RDKit          3D

 24 24  0  0  1  0  0  0  0  0999 V2000
   21.4106  -19.5111  -14.8254 N   0  0  0  0  0  0  0  0  0  0  0  0
   21.3696  -19.3536  -13.4307 C   0  0  0  0  0  0  0  0  0  0  0  0
   20.5233  -18.5782  -12.9288 O   0  0  0  0  0  0  0  0  0  0  0  0
   22.2924  -20.0720  -12.5520 C   0  0  0  0  0  0  0  0  0  0  0  0
   23.2349  -21.0217  -13.2374 C   0  0  2  0  0  0  0  0  0  0  0  0
   22.5679  -22.1721  -13.8004 N   0  0  0  0  0  0  0  0  0  0  0  0
   24.3061  -21.4745  -12.3034 C   0  0  0  0  0  0  0  0  0  0  0  0
   23.9735  -22.5472  -11.6622 O   0  0  0  0  0  0  0  0  0  0  0  0
   25.5493  -20.8621  -12.0898 N   0  0  0  0  0  0  0  0  0  0  0  0
   26.0568  -19.6501  -12.6098 C   0  0  0  0  0  0  0  0  0  0  0  0
   27.5387  -19.9241  -12.8240 C   0  0  0  0  0  0  0  0  0  0  0  0
   27.8229  -21.1419  -11.9856 C   0  0  0  0  0  0  0  0  0  0  0  0
   26.5616  -21.4058  -11.2050 C   0  0  1  0  0  0  0  0  0  0  0  0
   26.4931  -20.6329   -9.9278 C   0  0  0  0  0  0  0  0  0  0  0  0
   25.9814  -19.4610   -9.8792 O   0  0  0  0  0  0  0  0  0  0  0  0
   29.4289  -22.1444   -3.9601 C   0  0  0  0  0  0  0  0  0  0  0  0
   29.1084  -20.3816   -4.0117 S   0  0  0  0  0  0  0  0  0  0  0  0
   27.8238  -19.9205   -5.2018 C   0  0  0  0  0  0  0  0  0  0  0  0
   27.8883  -20.7684   -6.4358 C   0  0  0  0  0  0  0  0  0  0  0  0
   26.8977  -20.3303   -7.4880 C   0  0  2  0  0  0  0  0  0  0  0  0
   26.9846  -21.1295   -8.6837 N   0  0  0  0  0  0  0  0  0  0  0  0
   27.2360  -18.9112   -7.8545 C   0  0  0  0  0  0  0  0  0  0  0  0
   28.1322  -18.7050   -8.8855 O   0  0  0  0  0  0  0  0  0  0  0  0
   26.7371  -17.9396   -7.2631 O   0  0  0  0  0  0  0  0  0  0  0  0
  2  3  2  0
  2  1  1  0
  4  2  1  0
  5  7  1  0
  5  4  1  0
  5  6  1  1
  7  8  2  0
  9  7  1  0
 10  9  1  0
 11 12  1  0
 11 10  1  0
 12 13  1  0
 13  9  1  0
 13 14  1  1
 14 21  1  0
 15 14  2  0
 17 16  1  0
 18 19  1  0
 18 17  1  0
 20 19  1  1
 20 22  1  0
 21 20  1  0
 22 24  2  0
 22 23  1  0
M  END
$$$$
