NPM.pdb
     RDKit          3D

 24 24  0  0  1  0  0  0  0  0999 V2000
   16.7525  -13.4192  -15.9678 N   0  0  0  0  0  0  0  0  0  0  0  0
   17.7876  -12.7992  -15.2497 C   0  0  0  0  0  0  0  0  0  0  0  0
   18.2919  -13.3943  -14.2695 O   0  0  0  0  0  0  0  0  0  0  0  0
   18.2885  -11.4753  -15.6188 C   0  0  0  0  0  0  0  0  0  0  0  0
   17.6101  -10.8288  -16.7943 C   0  0  2  0  0  0  0  0  0  0  0  0
   17.8620  -11.5146  -18.0398 N   0  0  0  0  0  0  0  0  0  0  0  0
   18.0154   -9.3990  -16.9220 C   0  0  0  0  0  0  0  0  0  0  0  0
   18.7473   -9.1905  -17.9676 O   0  0  0  0  0  0  0  0  0  0  0  0
   17.6841   -8.3503  -16.0520 N   0  0  0  0  0  0  0  0  0  0  0  0
   16.9500   -8.3801  -14.8450 C   0  0  0  0  0  0  0  0  0  0  0  0
   16.1715   -7.0721  -14.8460 C   0  0  0  0  0  0  0  0  0  0  0  0
   16.8792   -6.2118  -15.8588 C   0  0  0  0  0  0  0  0  0  0  0  0
   18.1115   -6.9802  -16.2598 C   0  0  1  0  0  0  0  0  0  0  0  0
   19.2725   -6.7370  -15.3508 C   0  0  0  0  0  0  0  0  0  0  0  0
   19.4318   -7.4067  -14.2719 O   0  0  0  0  0  0  0  0  0  0  0  0
   25.2638   -6.9931  -18.0134 C   0  0  0  0  0  0  0  0  0  0  0  0
   25.3360   -5.7154  -16.7584 S   0  0  0  0  0  0  0  0  0  0  0  0
   24.0534   -5.8814  -15.4910 C   0  0  0  0  0  0  0  0  0  0  0  0
   22.6808   -5.7465  -16.0773 C   0  0  0  0  0  0  0  0  0  0  0  0
   21.5943   -5.8886  -15.0384 C   0  0  2  0  0  0  0  0  0  0  0  0
   20.2770   -5.7566  -15.6070 N   0  0  0  0  0  0  0  0  0  0  0  0
   21.7819   -4.7766  -14.0429 C   0  0  0  0  0  0  0  0  0  0  0  0
   20.8901   -3.7219  -14.0748 O   0  0  0  0  0  0  0  0  0  0  0  0
   22.7022   -4.7854  -13.2089 O   0  0  0  0  0  0  0  0  0  0  0  0
  2  3  2  0
  2  1  1  0
  4  2  1  0
  5  7  1  0
  5  4  1  0
  5  6  1  6
  7  8  2  0
  9  7  1  0
 10  9  1  0
 11 12  1  0
 11 10  1  0
 12 13  1  0
 13  9  1  0
 13 14  1  1
 14 21  1  0
 15 14  2  0
 17 16  1  0
 18 19  1  0
 18 17  1  0
 20 19  1  6
 20 22  1  0
 21 20  1  0
 22 24  2  0
 22 23  1  0
M  END
$$$$
