NPM.pdb
     RDKit          3D

 24 24  0  0  1  0  0  0  0  0999 V2000
   19.2581  -10.5895    5.1797 N   0  0  0  0  0  0  0  0  0  0  0  0
   20.1442  -11.6747    5.2729 C   0  0  0  0  0  0  0  0  0  0  0  0
   21.3777  -11.4614    5.2228 O   0  0  0  0  0  0  0  0  0  0  0  0
   19.6605  -13.0467    5.4252 C   0  0  0  0  0  0  0  0  0  0  0  0
   18.1669  -13.2053    5.4889 C   0  0  2  0  0  0  0  0  0  0  0  0
   17.5718  -12.5108    6.6064 N   0  0  0  0  0  0  0  0  0  0  0  0
   17.7867  -14.6468    5.5384 C   0  0  0  0  0  0  0  0  0  0  0  0
   17.4641  -15.0259    6.7320 O   0  0  0  0  0  0  0  0  0  0  0  0
   17.7602  -15.5466    4.4633 N   0  0  0  0  0  0  0  0  0  0  0  0
   18.0849  -15.3352    3.1044 C   0  0  0  0  0  0  0  0  0  0  0  0
   17.0955  -16.2048    2.3417 C   0  0  0  0  0  0  0  0  0  0  0  0
   16.5786  -17.1781    3.3675 C   0  0  0  0  0  0  0  0  0  0  0  0
   17.4042  -16.9452    4.6061 C   0  0  1  0  0  0  0  0  0  0  0  0
   18.6780  -17.7267    4.6139 C   0  0  0  0  0  0  0  0  0  0  0  0
   19.6960  -17.3575    3.9319 O   0  0  0  0  0  0  0  0  0  0  0  0
   23.5173  -16.9800    9.8300 C   0  0  0  0  0  0  0  0  0  0  0  0
   22.0144  -16.7700    8.8762 S   0  0  0  0  0  0  0  0  0  0  0  0
   21.5719  -18.2317    7.9032 C   0  0  0  0  0  0  0  0  0  0  0  0
   20.3812  -17.9714    7.0311 C   0  0  0  0  0  0  0  0  0  0  0  0
   20.0613  -19.1398    6.1297 C   0  0  2  0  0  0  0  0  0  0  0  0
   18.8578  -18.9252    5.3670 N   0  0  0  0  0  0  0  0  0  0  0  0
   19.8415  -20.3370    7.0135 C   0  0  0  0  0  0  0  0  0  0  0  0
   20.7805  -21.3499    6.9768 O   0  0  0  0  0  0  0  0  0  0  0  0
   18.8546  -20.4333    7.7613 O   0  0  0  0  0  0  0  0  0  0  0  0
  2  3  2  0
  2  1  1  0
  4  2  1  0
  5  7  1  0
  5  4  1  0
  5  6  1  1
  7  8  2  0
  9  7  1  0
 10  9  1  0
 11 12  1  0
 11 10  1  0
 12 13  1  0
 13  9  1  0
 13 14  1  6
 14 21  1  0
 15 14  2  0
 17 16  1  0
 18 19  1  0
 18 17  1  0
 20 19  1  1
 20 22  1  0
 21 20  1  0
 22 24  2  0
 22 23  1  0
M  END
$$$$
