FNK.pdb
     RDKit          3D

 29 29  0  0  1  0  0  0  0  0999 V2000
    5.2428  -17.5166   24.1031 N   0  0  0  0  0  0  0  0  0  0  0  0
    5.9741  -16.3015   24.2654 C   0  0  1  0  0  0  0  0  0  0  0  0
    6.3272  -16.0362   25.7376 C   0  0  0  0  0  0  0  0  0  0  0  0
    6.7515  -14.6249   25.9022 C   0  0  0  0  0  0  0  0  0  0  0  0
    7.0861  -14.1808   27.1750 C   0  0  0  0  0  0  0  0  0  0  0  0
    7.4897  -12.8731   27.3901 C   0  0  0  0  0  0  0  0  0  0  0  0
    7.5652  -11.9901   26.3363 C   0  0  0  0  0  0  0  0  0  0  0  0
    7.2275  -12.4444   25.0625 C   0  0  0  0  0  0  0  0  0  0  0  0
    6.8231  -13.7564   24.8528 C   0  0  0  0  0  0  0  0  0  0  0  0
    7.2573  -16.2875   23.5201 C   0  0  0  0  0  0  0  0  0  0  0  0
    8.0767  -17.2348   23.5852 O   0  0  0  0  0  0  0  0  0  0  0  0
    7.3804  -12.8577   19.3845 N   0  0  0  0  0  0  0  0  0  0  0  0
    8.0322  -14.0340   19.8187 C   0  0  0  0  0  0  0  0  0  0  0  0
    7.8103  -15.1056   19.1992 O   0  0  0  0  0  0  0  0  0  0  0  0
    8.9640  -13.9799   20.9894 C   0  0  0  0  0  0  0  0  0  0  0  0
    8.7966  -15.2002   21.8507 C   0  0  2  0  0  0  0  0  0  0  0  0
    7.6493  -15.2020   22.6793 N   0  0  0  0  0  0  0  0  0  0  0  0
   10.0115  -15.3051   22.6929 C   0  0  0  0  0  0  0  0  0  0  0  0
   10.4324  -14.2918   23.3135 O   0  0  0  0  0  0  0  0  0  0  0  0
   10.7522  -16.5028   22.8507 N   0  0  0  0  0  0  0  0  0  0  0  0
   11.6985  -16.6538   23.9351 C   0  0  1  0  0  0  0  0  0  0  0  0
   11.4800  -17.9430   24.6972 C   0  0  0  0  0  0  0  0  0  0  0  0
   12.5205  -17.9887   25.8078 C   0  0  0  0  0  0  0  0  0  0  0  0
   12.3971  -19.2989   26.5640 C   0  0  0  0  0  0  0  0  0  0  0  0
   13.4114  -19.3352   27.6731 C   0  0  0  0  0  0  0  0  0  0  0  0
   13.2565  -20.5690   28.4321 N   0  0  0  0  0  0  0  0  0  0  0  0
   13.0631  -16.5986   23.3584 C   0  0  0  0  0  0  0  0  0  0  0  0
   13.3711  -17.2055   22.1304 O   0  0  0  0  0  0  0  0  0  0  0  0
   13.9810  -16.0089   23.9497 O   0  0  0  0  0  0  0  0  0  0  0  0
  2  1  1  1
  2  3  1  0
  2 10  1  0
  3  4  1  0
  4  9  2  0
  5  6  2  0
  5  4  1  0
  6  7  1  0
  7  8  2  0
  9  8  1  0
 10 17  1  0
 10 11  2  0
 13 15  1  0
 13 12  1  0
 14 13  2  0
 16 15  1  1
 16 18  1  0
 17 16  1  0
 18 19  2  0
 20 18  1  0
 20 21  1  0
 21 27  1  0
 21 22  1  6
 23 22  1  0
 24 23  1  0
 25 24  1  0
 26 25  1  0
 27 29  2  0
 27 28  1  0
M  END
$$$$
