FNK.pdb
     RDKit          3D

 29 29  0  0  1  0  0  0  0  0999 V2000
    9.0281  -17.3697   18.2883 N   0  0  0  0  0  0  0  0  0  0  0  0
    9.6494  -16.3373   19.0536 C   0  0  1  0  0  0  0  0  0  0  0  0
    8.8622  -16.0200   20.3352 C   0  0  0  0  0  0  0  0  0  0  0  0
    8.5147  -14.5788   20.3630 C   0  0  0  0  0  0  0  0  0  0  0  0
    7.7493  -14.1050   21.4209 C   0  0  0  0  0  0  0  0  0  0  0  0
    7.3937  -12.7684   21.5005 C   0  0  0  0  0  0  0  0  0  0  0  0
    7.7979  -11.8856   20.5243 C   0  0  0  0  0  0  0  0  0  0  0  0
    8.5656  -12.3697   19.4663 C   0  0  0  0  0  0  0  0  0  0  0  0
    8.9188  -13.7108   19.3914 C   0  0  0  0  0  0  0  0  0  0  0  0
   11.0278  -16.6781   19.4849 C   0  0  0  0  0  0  0  0  0  0  0  0
   11.3454  -17.8351   19.8501 O   0  0  0  0  0  0  0  0  0  0  0  0
   14.4474  -13.7121   17.3781 N   0  0  0  0  0  0  0  0  0  0  0  0
   14.6252  -14.9237   18.0835 C   0  0  0  0  0  0  0  0  0  0  0  0
   14.9497  -15.9519   17.4362 O   0  0  0  0  0  0  0  0  0  0  0  0
   14.4296  -14.9568   19.5675 C   0  0  0  0  0  0  0  0  0  0  0  0
   13.4077  -15.9942   19.9396 C   0  0  2  0  0  0  0  0  0  0  0  0
   12.0860  -15.7199   19.5143 N   0  0  0  0  0  0  0  0  0  0  0  0
   13.4334  -16.1165   21.4163 C   0  0  0  0  0  0  0  0  0  0  0  0
   13.3955  -15.0789   22.1312 O   0  0  0  0  0  0  0  0  0  0  0  0
   13.5004  -17.3577   22.0967 N   0  0  0  0  0  0  0  0  0  0  0  0
   13.5087  -17.4129   23.5427 C   0  0  1  0  0  0  0  0  0  0  0  0
   12.8483  -18.6718   24.0617 C   0  0  0  0  0  0  0  0  0  0  0  0
   12.9001  -18.6108   25.5822 C   0  0  0  0  0  0  0  0  0  0  0  0
   12.2608  -19.8595   26.1614 C   0  0  0  0  0  0  0  0  0  0  0  0
   12.3047  -19.7951   27.6628 C   0  0  0  0  0  0  0  0  0  0  0  0
   11.4919  -20.8688   28.2185 N   0  0  0  0  0  0  0  0  0  0  0  0
   14.9184  -17.3244   23.9927 C   0  0  0  0  0  0  0  0  0  0  0  0
   15.2849  -16.5935   25.1341 O   0  0  0  0  0  0  0  0  0  0  0  0
   15.8237  -17.8989   23.3680 O   0  0  0  0  0  0  0  0  0  0  0  0
  2  1  1  1
  2  3  1  0
  2 10  1  0
  3  4  1  0
  4  9  2  0
  5  6  2  0
  5  4  1  0
  6  7  1  0
  7  8  2  0
  9  8  1  0
 10 17  1  0
 10 11  2  0
 13 15  1  0
 13 12  1  0
 14 13  2  0
 16 15  1  1
 16 18  1  0
 17 16  1  0
 18 19  2  0
 20 18  1  0
 20 21  1  0
 21 27  1  0
 21 22  1  6
 23 22  1  0
 24 23  1  0
 25 24  1  0
 26 25  1  0
 27 29  2  0
 27 28  1  0
M  END
$$$$
