FNK.pdb
     RDKit          3D

 29 29  0  0  1  0  0  0  0  0999 V2000
    9.4634  -15.6444   15.7762 N   0  0  0  0  0  0  0  0  0  0  0  0
    9.4752  -15.0083   17.0540 C   0  0  1  0  0  0  0  0  0  0  0  0
    8.1009  -15.0718   17.7396 C   0  0  0  0  0  0  0  0  0  0  0  0
    8.1855  -14.4532   19.0846 C   0  0  0  0  0  0  0  0  0  0  0  0
    8.3823  -13.0807   19.1683 C   0  0  0  0  0  0  0  0  0  0  0  0
    8.4694  -12.4471   20.3972 C   0  0  0  0  0  0  0  0  0  0  0  0
    8.3608  -13.1757   21.5605 C   0  0  0  0  0  0  0  0  0  0  0  0
    8.1636  -14.5524   21.4670 C   0  0  0  0  0  0  0  0  0  0  0  0
    8.0775  -15.1824   20.2322 C   0  0  0  0  0  0  0  0  0  0  0  0
   10.4418  -15.6171   18.0012 C   0  0  0  0  0  0  0  0  0  0  0  0
   10.4745  -16.8517   18.2191 O   0  0  0  0  0  0  0  0  0  0  0  0
   14.2471  -13.1421   17.5746 N   0  0  0  0  0  0  0  0  0  0  0  0
   14.3818  -14.3395   18.3129 C   0  0  0  0  0  0  0  0  0  0  0  0
   15.1076  -15.2537   17.8451 O   0  0  0  0  0  0  0  0  0  0  0  0
   13.6696  -14.4915   19.6212 C   0  0  0  0  0  0  0  0  0  0  0  0
   12.4757  -15.3915   19.4678 C   0  0  2  0  0  0  0  0  0  0  0  0
   11.3995  -14.8464   18.7278 N   0  0  0  0  0  0  0  0  0  0  0  0
   12.0112  -15.7304   20.8337 C   0  0  0  0  0  0  0  0  0  0  0  0
   11.5100  -14.8341   21.5648 O   0  0  0  0  0  0  0  0  0  0  0  0
   12.0963  -17.0318   21.3879 N   0  0  0  0  0  0  0  0  0  0  0  0
   11.6551  -17.2935   22.7409 C   0  0  1  0  0  0  0  0  0  0  0  0
   11.3067  -18.7518   22.9471 C   0  0  0  0  0  0  0  0  0  0  0  0
   11.0477  -18.9446   24.4350 C   0  0  0  0  0  0  0  0  0  0  0  0
   10.6401  -20.3831   24.6961 C   0  0  0  0  0  0  0  0  0  0  0  0
   10.2731  -20.5453   26.1450 C   0  0  0  0  0  0  0  0  0  0  0  0
    9.9509  -21.9409   26.4106 N   0  0  0  0  0  0  0  0  0  0  0  0
   12.7356  -16.8669   23.6619 C   0  0  0  0  0  0  0  0  0  0  0  0
   12.4585  -16.3665   24.9441 O   0  0  0  0  0  0  0  0  0  0  0  0
   13.9272  -16.9402   23.3231 O   0  0  0  0  0  0  0  0  0  0  0  0
  2  1  1  6
  2  3  1  0
  2 10  1  0
  3  4  1  0
  4  9  2  0
  5  6  2  0
  5  4  1  0
  6  7  1  0
  7  8  2  0
  9  8  1  0
 10 17  1  0
 10 11  2  0
 13 15  1  0
 13 12  1  0
 14 13  2  0
 16 15  1  1
 16 18  1  0
 17 16  1  0
 18 19  2  0
 20 18  1  0
 20 21  1  0
 21 27  1  0
 21 22  1  6
 23 22  1  0
 24 23  1  0
 25 24  1  0
 26 25  1  0
 27 29  2  0
 27 28  1  0
M  END
$$$$
