FNK.pdb
     RDKit          3D

 29 29  0  0  1  0  0  0  0  0999 V2000
    6.2439  -16.4193   25.0417 N   0  0  0  0  0  0  0  0  0  0  0  0
    7.3202  -15.6882   24.4545 C   0  0  1  0  0  0  0  0  0  0  0  0
    7.9576  -14.7060   25.4503 C   0  0  0  0  0  0  0  0  0  0  0  0
    7.1653  -13.4532   25.4913 C   0  0  0  0  0  0  0  0  0  0  0  0
    6.2870  -13.2624   26.5503 C   0  0  0  0  0  0  0  0  0  0  0  0
    5.5207  -12.1119   26.6421 C   0  0  0  0  0  0  0  0  0  0  0  0
    5.6211  -11.1350   25.6770 C   0  0  0  0  0  0  0  0  0  0  0  0
    6.5049  -11.3349   24.6177 C   0  0  0  0  0  0  0  0  0  0  0  0
    7.2704  -12.4905   24.5307 C   0  0  0  0  0  0  0  0  0  0  0  0
    8.4190  -16.5574   23.9653 C   0  0  0  0  0  0  0  0  0  0  0  0
    8.7458  -17.6149   24.5551 O   0  0  0  0  0  0  0  0  0  0  0  0
    9.3328  -17.8720   19.4053 N   0  0  0  0  0  0  0  0  0  0  0  0
    9.7908  -16.6294   19.8982 C   0  0  0  0  0  0  0  0  0  0  0  0
    9.3130  -15.5760   19.4049 O   0  0  0  0  0  0  0  0  0  0  0  0
   10.8193  -16.5932   20.9858 C   0  0  0  0  0  0  0  0  0  0  0  0
   10.2259  -17.0596   22.2855 C   0  0  2  0  0  0  0  0  0  0  0  0
    9.1784  -16.2553   22.7944 N   0  0  0  0  0  0  0  0  0  0  0  0
   11.3306  -17.1099   23.2721 C   0  0  0  0  0  0  0  0  0  0  0  0
   11.7928  -16.0387   23.7494 O   0  0  0  0  0  0  0  0  0  0  0  0
   11.9185  -18.3166   23.7264 N   0  0  0  0  0  0  0  0  0  0  0  0
   12.5802  -18.3829   25.0116 C   0  0  1  0  0  0  0  0  0  0  0  0
   11.9832  -19.4550   25.8973 C   0  0  0  0  0  0  0  0  0  0  0  0
   12.8250  -19.5091   27.1649 C   0  0  0  0  0  0  0  0  0  0  0  0
   12.1824  -20.4583   28.1597 C   0  0  0  0  0  0  0  0  0  0  0  0
   12.9126  -20.3795   29.4715 C   0  0  0  0  0  0  0  0  0  0  0  0
   12.3567  -21.3589   30.3957 N   0  0  0  0  0  0  0  0  0  0  0  0
   14.0213  -18.6317   24.7685 C   0  0  0  0  0  0  0  0  0  0  0  0
   14.8084  -17.7423   24.0197 O   0  0  0  0  0  0  0  0  0  0  0  0
   14.5788  -19.6425   25.2240 O   0  0  0  0  0  0  0  0  0  0  0  0
  2  1  1  1
  2  3  1  0
  2 10  1  0
  3  4  1  0
  4  9  2  0
  5  6  2  0
  5  4  1  0
  6  7  1  0
  7  8  2  0
  9  8  1  0
 10 17  1  0
 10 11  2  0
 13 15  1  0
 13 12  1  0
 14 13  2  0
 16 15  1  6
 16 18  1  0
 17 16  1  0
 18 19  2  0
 20 18  1  0
 20 21  1  0
 21 27  1  0
 21 22  1  1
 23 22  1  0
 24 23  1  0
 25 24  1  0
 26 25  1  0
 27 29  2  0
 27 28  1  0
M  END
$$$$
