FNK.pdb
     RDKit          3D

 29 29  0  0  1  0  0  0  0  0999 V2000
    7.1334  -15.9964   21.8651 N   0  0  0  0  0  0  0  0  0  0  0  0
    7.4392  -15.3585   23.1050 C   0  0  1  0  0  0  0  0  0  0  0  0
    6.5955  -14.0923   23.3226 C   0  0  0  0  0  0  0  0  0  0  0  0
    6.9333  -13.4872   24.6335 C   0  0  0  0  0  0  0  0  0  0  0  0
    8.1116  -12.7595   24.7402 C   0  0  0  0  0  0  0  0  0  0  0  0
    8.4795  -12.1712   25.9393 C   0  0  0  0  0  0  0  0  0  0  0  0
    7.6752  -12.3011   27.0492 C   0  0  0  0  0  0  0  0  0  0  0  0
    6.4946  -13.0332   26.9331 C   0  0  0  0  0  0  0  0  0  0  0  0
    6.1310  -13.6212   25.7285 C   0  0  0  0  0  0  0  0  0  0  0  0
    7.1990  -16.2270   24.2840 C   0  0  0  0  0  0  0  0  0  0  0  0
    6.0470  -16.4410   24.7311 O   0  0  0  0  0  0  0  0  0  0  0  0
    6.2214  -19.8892   27.7033 N   0  0  0  0  0  0  0  0  0  0  0  0
    7.3931  -19.9853   26.9192 C   0  0  0  0  0  0  0  0  0  0  0  0
    8.2850  -20.7987   27.2716 O   0  0  0  0  0  0  0  0  0  0  0  0
    7.5448  -19.1303   25.6994 C   0  0  0  0  0  0  0  0  0  0  0  0
    8.0684  -17.7717   26.0720 C   0  0  2  0  0  0  0  0  0  0  0  0
    8.2554  -16.8788   24.9900 N   0  0  0  0  0  0  0  0  0  0  0  0
    9.3613  -17.9816   26.7651 C   0  0  0  0  0  0  0  0  0  0  0  0
    9.8708  -19.1340   26.8041 O   0  0  0  0  0  0  0  0  0  0  0  0
   10.0825  -16.9434   27.4055 N   0  0  0  0  0  0  0  0  0  0  0  0
   11.3510  -17.2079   28.0499 C   0  0  1  0  0  0  0  0  0  0  0  0
   12.4575  -16.3390   27.4921 C   0  0  0  0  0  0  0  0  0  0  0  0
   12.4446  -16.5131   25.9796 C   0  0  0  0  0  0  0  0  0  0  0  0
   13.4897  -15.6060   25.3563 C   0  0  0  0  0  0  0  0  0  0  0  0
   13.5705  -15.8750   23.8793 C   0  0  0  0  0  0  0  0  0  0  0  0
   14.5086  -14.9436   23.2672 N   0  0  0  0  0  0  0  0  0  0  0  0
   11.1770  -16.9833   29.5048 C   0  0  0  0  0  0  0  0  0  0  0  0
   10.0063  -16.4129   30.0294 O   0  0  0  0  0  0  0  0  0  0  0  0
   12.0693  -17.2958   30.3087 O   0  0  0  0  0  0  0  0  0  0  0  0
  2  1  1  6
  2  3  1  0
  2 10  1  0
  3  4  1  0
  4  9  2  0
  5  6  2  0
  5  4  1  0
  6  7  1  0
  7  8  2  0
  9  8  1  0
 10 17  1  0
 10 11  2  0
 13 15  1  0
 13 12  1  0
 14 13  2  0
 16 15  1  6
 16 18  1  0
 17 16  1  0
 18 19  2  0
 20 18  1  0
 20 21  1  0
 21 27  1  0
 21 22  1  6
 23 22  1  0
 24 23  1  0
 25 24  1  0
 26 25  1  0
 27 29  2  0
 27 28  1  0
M  END
$$$$
