FNK.pdb
     RDKit          3D

 29 29  0  0  1  0  0  0  0  0999 V2000
    5.4602  -17.6905   24.9937 N   0  0  0  0  0  0  0  0  0  0  0  0
    6.1036  -16.4192   24.9070 C   0  0  1  0  0  0  0  0  0  0  0  0
    6.5975  -15.9311   26.2783 C   0  0  0  0  0  0  0  0  0  0  0  0
    6.8556  -14.4719   26.2249 C   0  0  0  0  0  0  0  0  0  0  0  0
    8.1358  -14.0172   26.5141 C   0  0  0  0  0  0  0  0  0  0  0  0
    8.4364  -12.6653   26.4803 C   0  0  0  0  0  0  0  0  0  0  0  0
    7.4620  -11.7478   26.1567 C   0  0  0  0  0  0  0  0  0  0  0  0
    6.1801  -12.2129   25.8681 C   0  0  0  0  0  0  0  0  0  0  0  0
    5.8844  -13.5694   25.9040 C   0  0  0  0  0  0  0  0  0  0  0  0
    7.2892  -16.4236   24.0145 C   0  0  0  0  0  0  0  0  0  0  0  0
    8.1035  -17.3772   23.9920 O   0  0  0  0  0  0  0  0  0  0  0  0
    6.9201  -13.4674   19.6520 N   0  0  0  0  0  0  0  0  0  0  0  0
    7.8452  -14.4419   20.0893 C   0  0  0  0  0  0  0  0  0  0  0  0
    7.9155  -15.5274   19.4582 O   0  0  0  0  0  0  0  0  0  0  0  0
    8.7135  -14.1642   21.2771 C   0  0  0  0  0  0  0  0  0  0  0  0
    8.6860  -15.3255   22.2308 C   0  0  2  0  0  0  0  0  0  0  0  0
    7.5864  -15.3498   23.1214 N   0  0  0  0  0  0  0  0  0  0  0  0
    9.9470  -15.2770   23.0079 C   0  0  0  0  0  0  0  0  0  0  0  0
   10.2986  -14.2017   23.5639 O   0  0  0  0  0  0  0  0  0  0  0  0
   10.8079  -16.3907   23.1712 N   0  0  0  0  0  0  0  0  0  0  0  0
   12.0032  -16.2933   23.9810 C   0  0  1  0  0  0  0  0  0  0  0  0
   12.3099  -17.5945   24.6904 C   0  0  0  0  0  0  0  0  0  0  0  0
   11.4069  -17.6611   25.9145 C   0  0  0  0  0  0  0  0  0  0  0  0
   11.5276  -19.0298   26.5592 C   0  0  0  0  0  0  0  0  0  0  0  0
   10.4898  -19.1692   27.6381 C   0  0  0  0  0  0  0  0  0  0  0  0
   10.4945  -20.5360   28.1420 N   0  0  0  0  0  0  0  0  0  0  0  0
   13.1213  -15.8916   23.0943 C   0  0  0  0  0  0  0  0  0  0  0  0
   14.2676  -15.2532   23.5941 O   0  0  0  0  0  0  0  0  0  0  0  0
   13.0762  -16.1099   21.8735 O   0  0  0  0  0  0  0  0  0  0  0  0
  2  1  1  1
  2  3  1  0
  2 10  1  0
  3  4  1  0
  4  9  2  0
  5  6  2  0
  5  4  1  0
  6  7  1  0
  7  8  2  0
  9  8  1  0
 10 17  1  0
 10 11  2  0
 13 15  1  0
 13 12  1  0
 14 13  2  0
 16 15  1  6
 16 18  1  0
 17 16  1  0
 18 19  2  0
 20 18  1  0
 20 21  1  0
 21 27  1  0
 21 22  1  6
 23 22  1  0
 24 23  1  0
 25 24  1  0
 26 25  1  0
 27 29  2  0
 27 28  1  0
M  END
$$$$
