LCT.pdb
     RDKit          3D

 22 21  0  0  1  0  0  0  0  0999 V2000
   19.5799  -16.9614    0.2486 C   0  0  0  0  0  0  0  0  0  0  0  0
   20.0077  -15.8833    1.1900 C   0  0  2  0  0  0  0  0  0  0  0  0
   21.4711  -15.6092    0.9592 C   0  0  0  0  0  0  0  0  0  0  0  0
   19.6614  -16.1084    2.6137 C   0  0  0  0  0  0  0  0  0  0  0  0
   18.2127  -16.3485    2.9049 C   0  0  2  0  0  0  0  0  0  0  0  0
   17.3941  -15.1821    2.7895 N   0  0  0  0  0  0  0  0  0  0  0  0
   18.0008  -17.1217    4.1551 C   0  0  0  0  0  0  0  0  0  0  0  0
   18.4181  -16.5910    5.2197 O   0  0  0  0  0  0  0  0  0  0  0  0
   17.3696  -18.3923    4.2074 N   0  0  0  0  0  0  0  0  0  0  0  0
   17.2695  -19.0668    5.4561 C   0  0  1  0  0  0  0  0  0  0  0  0
   15.8077  -19.4189    5.6947 C   0  0  0  0  0  0  0  0  0  0  0  0
   14.7375  -17.9713    5.6333 S   0  0  0  0  0  0  0  0  0  0  0  0
   18.1340  -20.2638    5.5597 C   0  0  0  0  0  0  0  0  0  0  0  0
   18.3350  -21.0782    4.6358 O   0  0  0  0  0  0  0  0  0  0  0  0
   21.6439  -20.1895    7.2277 C   0  0  0  0  0  0  0  0  0  0  0  0
   20.8438  -21.2746    7.9223 C   0  0  1  0  0  0  0  0  0  0  0  0
   20.3547  -20.7007    9.1054 O   0  0  0  0  0  0  0  0  0  0  0  0
   19.6800  -21.6143    7.0368 C   0  0  2  0  0  0  0  0  0  0  0  0
   18.7930  -20.5232    6.7931 N   0  0  0  0  0  0  0  0  0  0  0  0
   18.9435  -22.7920    7.5030 C   0  0  0  0  0  0  0  0  0  0  0  0
   17.6236  -22.7699    7.9294 O   0  0  0  0  0  0  0  0  0  0  0  0
   19.5186  -23.9136    7.5306 O   0  0  0  0  0  0  0  0  0  0  0  0
  2  1  1  6
  2  4  1  0
  3  2  1  0
  4  5  1  0
  5  6  1  1
  5  7  1  0
  7  8  2  0
  9  7  1  0
  9 10  1  0
 10 11  1  6
 11 12  1  0
 13 10  1  0
 13 19  1  0
 14 13  2  0
 16 15  1  6
 16 17  1  0
 18 19  1  1
 18 16  1  0
 20 18  1  0
 20 21  1  0
 22 20  2  0
M  END
$$$$
