LCT.pdb
     RDKit          3D

 22 21  0  0  1  0  0  0  0  0999 V2000
   24.3970  -14.2798  -15.2831 C   0  0  0  0  0  0  0  0  0  0  0  0
   24.1533  -13.9437  -16.7180 C   0  0  2  0  0  0  0  0  0  0  0  0
   25.3542  -14.3814  -17.5154 C   0  0  0  0  0  0  0  0  0  0  0  0
   23.7411  -12.5443  -16.9819 C   0  0  0  0  0  0  0  0  0  0  0  0
   22.5306  -12.0678  -16.2413 C   0  0  2  0  0  0  0  0  0  0  0  0
   21.4048  -12.9436  -16.3401 N   0  0  0  0  0  0  0  0  0  0  0  0
   22.2194  -10.6409  -16.5112 C   0  0  0  0  0  0  0  0  0  0  0  0
   23.2036   -9.8563  -16.5807 O   0  0  0  0  0  0  0  0  0  0  0  0
   20.9057  -10.1330  -16.6894 N   0  0  0  0  0  0  0  0  0  0  0  0
   20.7318   -8.7646  -17.0374 C   0  0  1  0  0  0  0  0  0  0  0  0
   19.6450   -8.6747  -18.0998 C   0  0  0  0  0  0  0  0  0  0  0  0
   20.0906   -9.5517  -19.6088 S   0  0  0  0  0  0  0  0  0  0  0  0
   20.4286   -7.8884  -15.8836 C   0  0  0  0  0  0  0  0  0  0  0  0
   19.7500   -8.2267  -14.8925 O   0  0  0  0  0  0  0  0  0  0  0  0
   21.6261   -3.7392  -13.5249 C   0  0  0  0  0  0  0  0  0  0  0  0
   21.8596   -4.5714  -14.7710 C   0  0  1  0  0  0  0  0  0  0  0  0
   23.0999   -5.2019  -14.5914 O   0  0  0  0  0  0  0  0  0  0  0  0
   20.7892   -5.6230  -14.8188 C   0  0  2  0  0  0  0  0  0  0  0  0
   20.9380   -6.5605  -15.8845 N   0  0  0  0  0  0  0  0  0  0  0  0
   19.4396   -5.0527  -14.8098 C   0  0  0  0  0  0  0  0  0  0  0  0
   18.6834   -4.8527  -13.6640 O   0  0  0  0  0  0  0  0  0  0  0  0
   18.9021   -4.7112  -15.8979 O   0  0  0  0  0  0  0  0  0  0  0  0
  2  1  1  1
  2  4  1  0
  3  2  1  0
  4  5  1  0
  5  6  1  6
  5  7  1  0
  7  8  2  0
  9  7  1  0
  9 10  1  0
 10 11  1  6
 11 12  1  0
 13 10  1  0
 13 19  1  0
 14 13  2  0
 16 15  1  1
 16 17  1  0
 18 19  1  6
 18 16  1  0
 20 18  1  0
 20 21  1  0
 22 20  2  0
M  END
$$$$
