LCT.pdb
     RDKit          3D

 22 21  0  0  1  0  0  0  0  0999 V2000
   16.6258  -15.7238  -20.4543 C   0  0  0  0  0  0  0  0  0  0  0  0
   15.9522  -15.8774  -19.1299 C   0  0  2  0  0  0  0  0  0  0  0  0
   14.4649  -15.7633  -19.3412 C   0  0  0  0  0  0  0  0  0  0  0  0
   16.4688  -15.0042  -18.0490 C   0  0  0  0  0  0  0  0  0  0  0  0
   17.9493  -15.0394  -17.8303 C   0  0  2  0  0  0  0  0  0  0  0  0
   18.4388  -16.2971  -17.3583 N   0  0  0  0  0  0  0  0  0  0  0  0
   18.4428  -13.8662  -17.0650 C   0  0  0  0  0  0  0  0  0  0  0  0
   18.0559  -13.7747  -15.8686 O   0  0  0  0  0  0  0  0  0  0  0  0
   19.3037  -12.8722  -17.5999 N   0  0  0  0  0  0  0  0  0  0  0  0
   19.7371  -11.8060  -16.7635 C   0  0  1  0  0  0  0  0  0  0  0  0
   21.2585  -11.7617  -16.7931 C   0  0  0  0  0  0  0  0  0  0  0  0
   21.9995  -13.0927  -15.8318 S   0  0  0  0  0  0  0  0  0  0  0  0
   19.1546  -10.4926  -17.1196 C   0  0  0  0  0  0  0  0  0  0  0  0
   19.1406  -10.0090  -18.2699 O   0  0  0  0  0  0  0  0  0  0  0  0
   15.6603   -9.5079  -16.3256 C   0  0  0  0  0  0  0  0  0  0  0  0
   16.5035   -8.4349  -15.6640 C   0  0  1  0  0  0  0  0  0  0  0  0
   16.6192   -8.8067  -14.3161 O   0  0  0  0  0  0  0  0  0  0  0  0
   17.8661   -8.4797  -16.2928 C   0  0  2  0  0  0  0  0  0  0  0  0
   18.5628   -9.7087  -16.0910 N   0  0  0  0  0  0  0  0  0  0  0  0
   18.7001   -7.3376  -15.9099 C   0  0  0  0  0  0  0  0  0  0  0  0
   18.3847   -6.0141  -16.1805 O   0  0  0  0  0  0  0  0  0  0  0  0
   19.7814   -7.5371  -15.2930 O   0  0  0  0  0  0  0  0  0  0  0  0
  2  1  1  6
  2  4  1  0
  3  2  1  0
  4  5  1  0
  5  6  1  1
  5  7  1  0
  7  8  2  0
  9  7  1  0
  9 10  1  0
 10 11  1  6
 11 12  1  0
 13 10  1  0
 13 19  1  0
 14 13  2  0
 16 15  1  6
 16 17  1  0
 18 19  1  1
 18 16  1  0
 20 18  1  0
 20 21  1  0
 22 20  2  0
M  END
$$$$
