LCT.pdb
     RDKit          3D

 22 21  0  0  1  0  0  0  0  0999 V2000
   32.6070  -21.3063    3.9611 C   0  0  0  0  0  0  0  0  0  0  0  0
   31.4101  -21.2077    4.8493 C   0  0  2  0  0  0  0  0  0  0  0  0
   30.4069  -20.2977    4.1895 C   0  0  0  0  0  0  0  0  0  0  0  0
   31.6936  -20.8570    6.2615 C   0  0  0  0  0  0  0  0  0  0  0  0
   32.7687  -21.6552    6.9310 C   0  0  2  0  0  0  0  0  0  0  0  0
   32.4613  -23.0445    7.0711 N   0  0  0  0  0  0  0  0  0  0  0  0
   33.2694  -21.0126    8.1728 C   0  0  0  0  0  0  0  0  0  0  0  0
   33.7008  -19.8336    8.0589 O   0  0  0  0  0  0  0  0  0  0  0  0
   33.2853  -21.6436    9.4444 N   0  0  0  0  0  0  0  0  0  0  0  0
   33.8473  -20.9540   10.5546 C   0  0  1  0  0  0  0  0  0  0  0  0
   32.7245  -20.6099   11.5235 C   0  0  0  0  0  0  0  0  0  0  0  0
   33.3288  -19.7752   13.0009 S   0  0  0  0  0  0  0  0  0  0  0  0
   34.9327  -21.6976   11.2328 C   0  0  0  0  0  0  0  0  0  0  0  0
   34.9048  -22.9180   11.4920 O   0  0  0  0  0  0  0  0  0  0  0  0
   39.6016  -21.5211   12.8223 C   0  0  0  0  0  0  0  0  0  0  0  0
   38.4470  -20.6884   12.2992 C   0  0  1  0  0  0  0  0  0  0  0  0
   38.7745  -20.3566   10.9760 O   0  0  0  0  0  0  0  0  0  0  0  0
   37.2278  -21.5643   12.2867 C   0  0  2  0  0  0  0  0  0  0  0  0
   36.1013  -20.9887   11.6261 N   0  0  0  0  0  0  0  0  0  0  0  0
   36.8626  -22.0391   13.6239 C   0  0  0  0  0  0  0  0  0  0  0  0
   37.3264  -23.2185   14.1880 O   0  0  0  0  0  0  0  0  0  0  0  0
   36.0774  -21.3540   14.3334 O   0  0  0  0  0  0  0  0  0  0  0  0
  2  1  1  6
  2  4  1  0
  3  2  1  0
  4  5  1  0
  5  6  1  1
  5  7  1  0
  7  8  2  0
  9  7  1  0
  9 10  1  0
 10 11  1  1
 11 12  1  0
 13 10  1  0
 13 19  1  0
 14 13  2  0
 16 15  1  6
 16 17  1  0
 18 19  1  1
 18 16  1  0
 20 18  1  0
 20 21  1  0
 22 20  2  0
M  END
$$$$
