LCT.pdb
     RDKit          3D

 22 21  0  0  1  0  0  0  0  0999 V2000
   19.6482  -12.2802  -19.5467 C   0  0  0  0  0  0  0  0  0  0  0  0
   18.2421  -12.1194  -19.0687 C   0  0  2  0  0  0  0  0  0  0  0  0
   17.3500  -11.9617  -20.2724 C   0  0  0  0  0  0  0  0  0  0  0  0
   18.0374  -11.0766  -18.0351 C   0  0  0  0  0  0  0  0  0  0  0  0
   18.8845  -11.1973  -16.8067 C   0  0  2  0  0  0  0  0  0  0  0  0
   18.6768  -12.4062  -16.0722 N   0  0  0  0  0  0  0  0  0  0  0  0
   18.8655   -9.9670  -15.9752 C   0  0  0  0  0  0  0  0  0  0  0  0
   17.7823   -9.7062  -15.3852 O   0  0  0  0  0  0  0  0  0  0  0  0
   19.9754   -9.0959  -15.8175 N   0  0  0  0  0  0  0  0  0  0  0  0
   19.8501   -7.9578  -14.9731 C   0  0  1  0  0  0  0  0  0  0  0  0
   21.1182   -7.8379  -14.1392 C   0  0  0  0  0  0  0  0  0  0  0  0
   21.0701   -8.8779  -12.6693 S   0  0  0  0  0  0  0  0  0  0  0  0
   19.5660   -6.7013  -15.7021 C   0  0  0  0  0  0  0  0  0  0  0  0
   20.1857   -6.3089  -16.7117 O   0  0  0  0  0  0  0  0  0  0  0  0
   15.8711   -5.6278  -16.4720 C   0  0  0  0  0  0  0  0  0  0  0  0
   16.5623   -4.4717  -15.7751 C   0  0  1  0  0  0  0  0  0  0  0  0
   16.2037   -4.5624  -14.4218 O   0  0  0  0  0  0  0  0  0  0  0  0
   18.0425   -4.6919  -15.8952 C   0  0  2  0  0  0  0  0  0  0  0  0
   18.5142   -5.8657  -15.2346 N   0  0  0  0  0  0  0  0  0  0  0  0
   18.8204   -3.5176  -15.4922 C   0  0  0  0  0  0  0  0  0  0  0  0
   18.7647   -2.2869  -16.1299 O   0  0  0  0  0  0  0  0  0  0  0  0
   19.6007   -3.5981  -14.5052 O   0  0  0  0  0  0  0  0  0  0  0  0
  2  1  1  6
  2  4  1  0
  3  2  1  0
  4  5  1  0
  5  6  1  1
  5  7  1  0
  7  8  2  0
  9  7  1  0
  9 10  1  0
 10 11  1  6
 11 12  1  0
 13 10  1  0
 13 19  1  0
 14 13  2  0
 16 15  1  6
 16 17  1  0
 18 19  1  1
 18 16  1  0
 20 18  1  0
 20 21  1  0
 22 20  2  0
M  END
$$$$
