LCT.pdb
     RDKit          3D

 22 21  0  0  1  0  0  0  0  0999 V2000
   20.5890  -18.0178  -15.0173 C   0  0  0  0  0  0  0  0  0  0  0  0
   20.1227  -17.4104  -16.2999 C   0  0  2  0  0  0  0  0  0  0  0  0
   20.7081  -18.2050  -17.4382 C   0  0  0  0  0  0  0  0  0  0  0  0
   20.3331  -15.9482  -16.4243 C   0  0  0  0  0  0  0  0  0  0  0  0
   19.6587  -15.0997  -15.3918 C   0  0  2  0  0  0  0  0  0  0  0  0
   18.4707  -15.6793  -14.8467 N   0  0  0  0  0  0  0  0  0  0  0  0
   19.5061  -13.6867  -15.8228 C   0  0  0  0  0  0  0  0  0  0  0  0
   20.4903  -13.1741  -16.4211 O   0  0  0  0  0  0  0  0  0  0  0  0
   18.3400  -12.9084  -15.6000 N   0  0  0  0  0  0  0  0  0  0  0  0
   18.2648  -11.5978  -16.1485 C   0  0  1  0  0  0  0  0  0  0  0  0
   16.7966  -11.2333  -16.3193 C   0  0  0  0  0  0  0  0  0  0  0  0
   15.8177  -12.6130  -16.9382 S   0  0  0  0  0  0  0  0  0  0  0  0
   18.9830  -10.5757  -15.3545 C   0  0  0  0  0  0  0  0  0  0  0  0
   18.9333  -10.4762  -14.1115 O   0  0  0  0  0  0  0  0  0  0  0  0
   21.6738   -7.7705  -17.4203 C   0  0  0  0  0  0  0  0  0  0  0  0
   21.9454   -8.4387  -16.0863 C   0  0  1  0  0  0  0  0  0  0  0  0
   22.6913   -7.5184  -15.3346 O   0  0  0  0  0  0  0  0  0  0  0  0
   20.6221   -8.6506  -15.4096 C   0  0  2  0  0  0  0  0  0  0  0  0
   19.7942   -9.6284  -16.0382 N   0  0  0  0  0  0  0  0  0  0  0  0
   19.8885   -7.3990  -15.2046 C   0  0  0  0  0  0  0  0  0  0  0  0
   20.2907   -6.3897  -14.3421 O   0  0  0  0  0  0  0  0  0  0  0  0
   18.8179   -7.1955  -15.8386 O   0  0  0  0  0  0  0  0  0  0  0  0
  2  1  1  1
  2  4  1  0
  3  2  1  0
  4  5  1  0
  5  6  1  6
  5  7  1  0
  7  8  2  0
  9  7  1  0
  9 10  1  0
 10 11  1  1
 11 12  1  0
 13 10  1  0
 13 19  1  0
 14 13  2  0
 16 15  1  6
 16 17  1  0
 18 19  1  6
 18 16  1  0
 20 18  1  0
 20 21  1  0
 22 20  2  0
M  END
$$$$
