LCT.pdb
     RDKit          3D

 22 21  0  0  1  0  0  0  0  0999 V2000
   23.7516  -30.5204  -10.4159 C   0  0  0  0  0  0  0  0  0  0  0  0
   22.3315  -30.7976  -10.0449 C   0  0  2  0  0  0  0  0  0  0  0  0
   21.6992  -29.5043   -9.6005 C   0  0  0  0  0  0  0  0  0  0  0  0
   22.1298  -31.9167   -9.0937 C   0  0  0  0  0  0  0  0  0  0  0  0
   22.7678  -33.2178   -9.4692 C   0  0  2  0  0  0  0  0  0  0  0  0
   22.2272  -33.8119  -10.6520 N   0  0  0  0  0  0  0  0  0  0  0  0
   22.8882  -34.1492   -8.3187 C   0  0  0  0  0  0  0  0  0  0  0  0
   21.8795  -34.8623   -8.0672 O   0  0  0  0  0  0  0  0  0  0  0  0
   24.0501  -34.2715   -7.5122 N   0  0  0  0  0  0  0  0  0  0  0  0
   24.1030  -35.2906   -6.5209 C   0  0  1  0  0  0  0  0  0  0  0  0
   24.5122  -36.5933   -7.1942 C   0  0  0  0  0  0  0  0  0  0  0  0
   26.0711  -36.4420   -8.0840 S   0  0  0  0  0  0  0  0  0  0  0  0
   24.9940  -34.9715   -5.3828 C   0  0  0  0  0  0  0  0  0  0  0  0
   26.1452  -34.5020   -5.4905 O   0  0  0  0  0  0  0  0  0  0  0  0
   23.3051  -33.4990   -2.0995 C   0  0  0  0  0  0  0  0  0  0  0  0
   24.2898  -34.5798   -1.6967 C   0  0  1  0  0  0  0  0  0  0  0  0
   23.5284  -35.7370   -1.4746 O   0  0  0  0  0  0  0  0  0  0  0  0
   25.1992  -34.8208   -2.8666 C   0  0  2  0  0  0  0  0  0  0  0  0
   24.5233  -35.2095   -4.0619 N   0  0  0  0  0  0  0  0  0  0  0  0
   26.2839  -35.7545   -2.5529 C   0  0  0  0  0  0  0  0  0  0  0  0
   27.2587  -35.5256   -1.5928 O   0  0  0  0  0  0  0  0  0  0  0  0
   26.3645  -36.8460   -3.1786 O   0  0  0  0  0  0  0  0  0  0  0  0
  2  1  1  1
  2  4  1  0
  3  2  1  0
  4  5  1  0
  5  6  1  6
  5  7  1  0
  7  8  2  0
  9  7  1  0
  9 10  1  0
 10 11  1  6
 11 12  1  0
 13 10  1  0
 13 19  1  0
 14 13  2  0
 16 15  1  6
 16 17  1  0
 18 19  1  6
 18 16  1  0
 20 18  1  0
 20 21  1  0
 22 20  2  0
M  END
$$$$
