SCD.pdb
     RDKit          3D

 21 20  0  0  1  0  0  0  0  0999 V2000
   10.1506  -19.3340   17.6674 O   0  0  0  0  0  0  0  0  0  0  0  0
   10.8729  -18.2075   18.0470 C   0  0  0  0  0  0  0  0  0  0  0  0
    9.9662  -17.0671   18.4630 C   0  0  2  0  0  0  0  0  0  0  0  0
    9.9748  -16.1323   17.3372 N   0  0  0  0  0  0  0  0  0  0  0  0
   10.4207  -16.3832   19.6695 C   0  0  0  0  0  0  0  0  0  0  0  0
   11.2051  -15.3894   19.5709 O   0  0  0  0  0  0  0  0  0  0  0  0
   10.0554  -16.7357   20.9964 N   0  0  0  0  0  0  0  0  0  0  0  0
   10.5914  -16.0667   22.1651 C   0  0  1  0  0  0  0  0  0  0  0  0
    9.4395  -16.0783   23.1873 C   0  0  0  0  0  0  0  0  0  0  0  0
    9.9278  -15.2776   24.7257 S   0  0  0  0  0  0  0  0  0  0  0  0
   11.6795  -16.8304   22.8034 C   0  0  0  0  0  0  0  0  0  0  0  0
   11.5440  -18.0819   22.9009 O   0  0  0  0  0  0  0  0  0  0  0  0
   12.8568  -16.2516   23.3101 N   0  0  0  0  0  0  0  0  0  0  0  0
   13.9574  -16.9963   23.9275 C   0  0  1  0  0  0  0  0  0  0  0  0
   15.1503  -16.1329   24.1270 C   0  0  0  0  0  0  0  0  0  0  0  0
   15.7847  -15.8020   22.8415 C   0  0  0  0  0  0  0  0  0  0  0  0
   16.9333  -15.3187   22.6850 O   0  0  0  0  0  0  0  0  0  0  0  0
   13.4262  -17.3901   25.2846 C   0  0  0  0  0  0  0  0  0  0  0  0
   14.1572  -18.2914   26.0717 O   0  0  0  0  0  0  0  0  0  0  0  0
   15.1001  -16.0199   21.6184 O   0  0  0  0  0  0  0  0  0  0  0  0
   12.3489  -16.9100   25.6846 O   0  0  0  0  0  0  0  0  0  0  0  0
  2  1  1  0
  3  2  1  0
  3  5  1  0
  3  4  1  6
  5  6  2  0
  7  8  1  0
  7  5  1  0
  8  9  1  1
 10  9  1  0
 11  8  1  0
 11 13  1  0
 12 11  2  0
 14 13  1  0
 14 15  1  1
 15 16  1  0
 16 20  1  0
 17 16  2  0
 18 14  1  0
 19 18  1  0
 21 18  2  0
M  END
$$$$
