SCD.pdb
     RDKit          3D

 21 20  0  0  1  0  0  0  0  0999 V2000
    6.3063  -16.4933   21.3832 O   0  0  0  0  0  0  0  0  0  0  0  0
    6.8469  -15.7017   20.3752 C   0  0  0  0  0  0  0  0  0  0  0  0
    7.0148  -14.2615   20.8149 C   0  0  2  0  0  0  0  0  0  0  0  0
    7.6771  -13.5880   19.6972 N   0  0  0  0  0  0  0  0  0  0  0  0
    7.8254  -14.1201   22.0202 C   0  0  0  0  0  0  0  0  0  0  0  0
    9.0907  -14.1914   21.9387 O   0  0  0  0  0  0  0  0  0  0  0  0
    7.3154  -13.9011   23.3280 N   0  0  0  0  0  0  0  0  0  0  0  0
    8.1495  -13.9250   24.5131 C   0  0  1  0  0  0  0  0  0  0  0  0
    7.3268  -13.1896   25.5875 C   0  0  0  0  0  0  0  0  0  0  0  0
    5.7644  -14.0313   25.8986 S   0  0  0  0  0  0  0  0  0  0  0  0
    8.3406  -15.2884   25.0415 C   0  0  0  0  0  0  0  0  0  0  0  0
    7.4615  -16.1541   24.7733 O   0  0  0  0  0  0  0  0  0  0  0  0
    9.4395  -15.6832   25.8253 N   0  0  0  0  0  0  0  0  0  0  0  0
    9.9952  -17.0383   25.8658 C   0  0  1  0  0  0  0  0  0  0  0  0
   11.2535  -17.1309   25.0805 C   0  0  0  0  0  0  0  0  0  0  0  0
   11.8579  -18.4664   25.2052 C   0  0  0  0  0  0  0  0  0  0  0  0
   11.4617  -19.5147   24.6382 O   0  0  0  0  0  0  0  0  0  0  0  0
   10.3285  -17.2615   27.3211 C   0  0  0  0  0  0  0  0  0  0  0  0
   10.6428  -18.5550   27.7618 O   0  0  0  0  0  0  0  0  0  0  0  0
   12.9978  -18.6720   26.0240 O   0  0  0  0  0  0  0  0  0  0  0  0
   10.3195  -16.2958   28.1076 O   0  0  0  0  0  0  0  0  0  0  0  0
  2  1  1  0
  3  2  1  0
  3  5  1  0
  3  4  1  6
  5  6  2  0
  7  8  1  0
  7  5  1  0
  8  9  1  1
 10  9  1  0
 11  8  1  0
 11 13  1  0
 12 11  2  0
 14 13  1  0
 14 15  1  6
 15 16  1  0
 16 20  1  0
 17 16  2  0
 18 14  1  0
 19 18  1  0
 21 18  2  0
M  END
$$$$
