SCD.pdb
     RDKit          3D

 21 20  0  0  1  0  0  0  0  0999 V2000
    6.9205  -16.6219   22.1553 O   0  0  0  0  0  0  0  0  0  0  0  0
    7.2583  -15.7160   21.1553 C   0  0  0  0  0  0  0  0  0  0  0  0
    7.1636  -14.2819   21.6350 C   0  0  2  0  0  0  0  0  0  0  0  0
    7.6058  -13.4636   20.5052 N   0  0  0  0  0  0  0  0  0  0  0  0
    8.0051  -14.0081   22.7955 C   0  0  0  0  0  0  0  0  0  0  0  0
    9.2598  -13.8805   22.6462 O   0  0  0  0  0  0  0  0  0  0  0  0
    7.5374  -13.8642   24.1293 N   0  0  0  0  0  0  0  0  0  0  0  0
    8.4235  -13.6491   25.2559 C   0  0  1  0  0  0  0  0  0  0  0  0
    7.5646  -12.9040   26.2947 C   0  0  0  0  0  0  0  0  0  0  0  0
    5.9531  -13.6865   26.4868 S   0  0  0  0  0  0  0  0  0  0  0  0
    8.8158  -14.9090   25.9142 C   0  0  0  0  0  0  0  0  0  0  0  0
    7.9650  -15.8407   25.9606 O   0  0  0  0  0  0  0  0  0  0  0  0
   10.0771  -15.1364   26.4932 N   0  0  0  0  0  0  0  0  0  0  0  0
   10.4640  -16.3576   27.2045 C   0  0  1  0  0  0  0  0  0  0  0  0
   11.8466  -16.7736   26.8531 C   0  0  0  0  0  0  0  0  0  0  0  0
   11.9049  -17.3143   25.4861 C   0  0  0  0  0  0  0  0  0  0  0  0
   10.9223  -17.6522   24.7806 O   0  0  0  0  0  0  0  0  0  0  0  0
   10.4448  -15.9625   28.6614 C   0  0  0  0  0  0  0  0  0  0  0  0
   10.5967  -16.9530   29.6423 O   0  0  0  0  0  0  0  0  0  0  0  0
   13.1505  -17.5015   24.8336 O   0  0  0  0  0  0  0  0  0  0  0  0
   10.2947  -14.7653   28.9705 O   0  0  0  0  0  0  0  0  0  0  0  0
  2  1  1  0
  3  2  1  0
  3  5  1  0
  3  4  1  6
  5  6  2  0
  7  8  1  0
  7  5  1  0
  8  9  1  1
 10  9  1  0
 11  8  1  0
 11 13  1  0
 12 11  2  0
 14 13  1  0
 14 15  1  6
 15 16  1  0
 16 20  1  0
 17 16  2  0
 18 14  1  0
 19 18  1  0
 21 18  2  0
M  END
$$$$
