SCD.pdb
     RDKit          3D

 21 20  0  0  1  0  0  0  0  0999 V2000
    5.9562  -16.8242   20.9828 O   0  0  0  0  0  0  0  0  0  0  0  0
    6.9936  -16.1130   20.3888 C   0  0  0  0  0  0  0  0  0  0  0  0
    7.0211  -14.6674   20.8418 C   0  0  2  0  0  0  0  0  0  0  0  0
    7.5125  -13.9083   19.6912 N   0  0  0  0  0  0  0  0  0  0  0  0
    7.8974  -14.4413   21.9867 C   0  0  0  0  0  0  0  0  0  0  0  0
    9.1320  -14.2115   21.7977 O   0  0  0  0  0  0  0  0  0  0  0  0
    7.4862  -14.4533   23.3465 N   0  0  0  0  0  0  0  0  0  0  0  0
    8.4205  -14.3896   24.4528 C   0  0  1  0  0  0  0  0  0  0  0  0
    7.6759  -13.6085   25.5515 C   0  0  0  0  0  0  0  0  0  0  0  0
    6.0508  -14.3199   25.8667 S   0  0  0  0  0  0  0  0  0  0  0  0
    8.6915  -15.7150   25.0398 C   0  0  0  0  0  0  0  0  0  0  0  0
    7.7491  -16.5549   25.0616 O   0  0  0  0  0  0  0  0  0  0  0  0
    9.9328  -16.1003   25.5768 N   0  0  0  0  0  0  0  0  0  0  0  0
   10.2298  -17.4225   26.1340 C   0  0  1  0  0  0  0  0  0  0  0  0
   11.5958  -17.8730   25.7602 C   0  0  0  0  0  0  0  0  0  0  0  0
   11.7977  -17.7981   24.3049 C   0  0  0  0  0  0  0  0  0  0  0  0
   11.0224  -18.2483   23.4253 O   0  0  0  0  0  0  0  0  0  0  0  0
   10.1930  -17.2142   27.6288 C   0  0  0  0  0  0  0  0  0  0  0  0
   10.3236  -18.3218   28.4787 O   0  0  0  0  0  0  0  0  0  0  0  0
   12.9516  -17.1745   23.7648 O   0  0  0  0  0  0  0  0  0  0  0  0
   10.0475  -16.0643   28.0844 O   0  0  0  0  0  0  0  0  0  0  0  0
  2  1  1  0
  3  2  1  0
  3  5  1  0
  3  4  1  6
  5  6  2  0
  7  8  1  0
  7  5  1  0
  8  9  1  1
 10  9  1  0
 11  8  1  0
 11 13  1  0
 12 11  2  0
 14 13  1  0
 14 15  1  6
 15 16  1  0
 16 20  1  0
 17 16  2  0
 18 14  1  0
 19 18  1  0
 21 18  2  0
M  END
$$$$
