SCD.pdb
     RDKit          3D

 21 20  0  0  1  0  0  0  0  0999 V2000
    9.1777  -12.2721   18.5269 O   0  0  0  0  0  0  0  0  0  0  0  0
    8.7637  -12.5112   19.8332 C   0  0  0  0  0  0  0  0  0  0  0  0
    8.0585  -13.8454   19.9684 C   0  0  2  0  0  0  0  0  0  0  0  0
    6.7210  -13.6367   19.4124 N   0  0  0  0  0  0  0  0  0  0  0  0
    7.9476  -14.2985   21.3513 C   0  0  0  0  0  0  0  0  0  0  0  0
    7.1477  -13.7103   22.1432 O   0  0  0  0  0  0  0  0  0  0  0  0
    8.6766  -15.3773   21.9196 N   0  0  0  0  0  0  0  0  0  0  0  0
    8.5051  -15.8072   23.2931 C   0  0  1  0  0  0  0  0  0  0  0  0
    7.2840  -16.7451   23.2616 C   0  0  0  0  0  0  0  0  0  0  0  0
    6.6680  -17.0659   24.9242 S   0  0  0  0  0  0  0  0  0  0  0  0
    9.6221  -16.6460   23.7657 C   0  0  0  0  0  0  0  0  0  0  0  0
   10.3690  -17.1784   22.8980 O   0  0  0  0  0  0  0  0  0  0  0  0
    9.9059  -16.8900   25.1213 N   0  0  0  0  0  0  0  0  0  0  0  0
   10.9500  -17.7953   25.6084 C   0  0  1  0  0  0  0  0  0  0  0  0
   10.8082  -18.0508   27.0654 C   0  0  0  0  0  0  0  0  0  0  0  0
   11.1710  -16.8598   27.8491 C   0  0  0  0  0  0  0  0  0  0  0  0
   10.6973  -16.5355   28.9662 O   0  0  0  0  0  0  0  0  0  0  0  0
   10.6940  -19.0892   24.8741 C   0  0  0  0  0  0  0  0  0  0  0  0
    9.3736  -19.5257   24.6943 O   0  0  0  0  0  0  0  0  0  0  0  0
   12.1390  -15.9421   27.3663 O   0  0  0  0  0  0  0  0  0  0  0  0
   11.6570  -19.7489   24.4398 O   0  0  0  0  0  0  0  0  0  0  0  0
  2  1  1  0
  3  2  1  0
  3  5  1  0
  3  4  1  1
  5  6  2  0
  7  8  1  0
  7  5  1  0
  8  9  1  6
 10  9  1  0
 11  8  1  0
 11 13  1  0
 12 11  2  0
 14 13  1  0
 14 15  1  1
 15 16  1  0
 16 20  1  0
 17 16  2  0
 18 14  1  0
 19 18  1  0
 21 18  2  0
M  END
$$$$
