SCD.pdb
     RDKit          3D

 21 20  0  0  1  0  0  0  0  0999 V2000
    6.9842  -16.1519   20.3613 O   0  0  0  0  0  0  0  0  0  0  0  0
    6.1370  -15.0502   20.4193 C   0  0  0  0  0  0  0  0  0  0  0  0
    6.8668  -13.7972   20.8589 C   0  0  2  0  0  0  0  0  0  0  0  0
    7.7576  -13.4560   19.7491 N   0  0  0  0  0  0  0  0  0  0  0  0
    7.6515  -13.9868   22.0748 C   0  0  0  0  0  0  0  0  0  0  0  0
    8.9125  -14.1153   21.9955 O   0  0  0  0  0  0  0  0  0  0  0  0
    7.1198  -14.0433   23.3910 N   0  0  0  0  0  0  0  0  0  0  0  0
    7.9514  -14.1605   24.5723 C   0  0  1  0  0  0  0  0  0  0  0  0
    6.9791  -13.9960   25.7552 C   0  0  0  0  0  0  0  0  0  0  0  0
    6.8810  -12.2755   26.2813 S   0  0  0  0  0  0  0  0  0  0  0  0
    8.5224  -15.5112   24.7289 C   0  0  0  0  0  0  0  0  0  0  0  0
    7.7617  -16.4999   24.5340 O   0  0  0  0  0  0  0  0  0  0  0  0
    9.8597  -15.7656   25.0820 N   0  0  0  0  0  0  0  0  0  0  0  0
   10.4376  -17.0993   25.2669 C   0  0  1  0  0  0  0  0  0  0  0  0
   11.8889  -17.1091   24.9475 C   0  0  0  0  0  0  0  0  0  0  0  0
   12.1194  -17.4883   23.5449 C   0  0  0  0  0  0  0  0  0  0  0  0
   11.2358  -17.7850   22.7029 O   0  0  0  0  0  0  0  0  0  0  0  0
   10.2761  -17.3745   26.7423 C   0  0  0  0  0  0  0  0  0  0  0  0
    9.9455  -16.3192   27.6044 O   0  0  0  0  0  0  0  0  0  0  0  0
   13.4348  -17.5478   23.0172 O   0  0  0  0  0  0  0  0  0  0  0  0
   10.4384  -18.5324   27.1717 O   0  0  0  0  0  0  0  0  0  0  0  0
  2  1  1  0
  3  2  1  0
  3  5  1  0
  3  4  1  6
  5  6  2  0
  7  8  1  0
  7  5  1  0
  8  9  1  1
 10  9  1  0
 11  8  1  0
 11 13  1  0
 12 11  2  0
 14 13  1  0
 14 15  1  1
 15 16  1  0
 16 20  1  0
 17 16  2  0
 18 14  1  0
 19 18  1  0
 21 18  2  0
M  END
$$$$
