SCD.pdb
     RDKit          3D

 21 20  0  0  1  0  0  0  0  0999 V2000
    5.0727  -19.2913   23.0789 O   0  0  0  0  0  0  0  0  0  0  0  0
    4.1251  -18.3072   22.8169 C   0  0  0  0  0  0  0  0  0  0  0  0
    4.1207  -17.8998   21.3575 C   0  0  2  0  0  0  0  0  0  0  0  0
    3.8713  -19.1330   20.6100 N   0  0  0  0  0  0  0  0  0  0  0  0
    5.3831  -17.3112   20.9220 C   0  0  0  0  0  0  0  0  0  0  0  0
    6.2732  -18.0498   20.3976 O   0  0  0  0  0  0  0  0  0  0  0  0
    5.7259  -15.9369   21.0320 N   0  0  0  0  0  0  0  0  0  0  0  0
    7.0671  -15.4385   20.8002 C   0  0  1  0  0  0  0  0  0  0  0  0
    6.9343  -13.9058   20.8708 C   0  0  0  0  0  0  0  0  0  0  0  0
    8.5160  -13.1015   20.5586 S   0  0  0  0  0  0  0  0  0  0  0  0
    7.9973  -15.7943   21.8877 C   0  0  0  0  0  0  0  0  0  0  0  0
    7.5789  -15.7045   23.0756 O   0  0  0  0  0  0  0  0  0  0  0  0
    9.3201  -16.2261   21.6838 N   0  0  0  0  0  0  0  0  0  0  0  0
   10.2660  -16.5597   22.7519 C   0  0  1  0  0  0  0  0  0  0  0  0
   10.4268  -18.0304   22.8925 C   0  0  0  0  0  0  0  0  0  0  0  0
    9.8389  -18.5087   24.1534 C   0  0  0  0  0  0  0  0  0  0  0  0
    9.2448  -17.8051   25.0076 O   0  0  0  0  0  0  0  0  0  0  0  0
   11.5793  -15.9833   22.2808 C   0  0  0  0  0  0  0  0  0  0  0  0
   12.5408  -15.6041   23.2283 O   0  0  0  0  0  0  0  0  0  0  0  0
    9.9078  -19.8797   24.5108 O   0  0  0  0  0  0  0  0  0  0  0  0
   11.7892  -15.8530   21.0600 O   0  0  0  0  0  0  0  0  0  0  0  0
  2  1  1  0
  3  2  1  0
  3  5  1  0
  3  4  1  6
  5  6  2  0
  7  8  1  0
  7  5  1  0
  8  9  1  1
 10  9  1  0
 11  8  1  0
 11 13  1  0
 12 11  2  0
 14 13  1  0
 14 15  1  6
 15 16  1  0
 16 20  1  0
 17 16  2  0
 18 14  1  0
 19 18  1  0
 21 18  2  0
M  END
$$$$
