SCD.pdb
     RDKit          3D

 21 20  0  0  1  0  0  0  0  0999 V2000
    7.5524  -15.5540   20.0996 O   0  0  0  0  0  0  0  0  0  0  0  0
    6.5223  -14.6206   20.0489 C   0  0  0  0  0  0  0  0  0  0  0  0
    6.9421  -13.2824   20.6224 C   0  0  2  0  0  0  0  0  0  0  0  0
    7.8961  -12.7289   19.6605 N   0  0  0  0  0  0  0  0  0  0  0  0
    7.5768  -13.3928   21.9318 C   0  0  0  0  0  0  0  0  0  0  0  0
    8.8399  -13.4986   22.0112 O   0  0  0  0  0  0  0  0  0  0  0  0
    6.8909  -13.3927   23.1760 N   0  0  0  0  0  0  0  0  0  0  0  0
    7.5691  -13.5310   24.4495 C   0  0  1  0  0  0  0  0  0  0  0  0
    6.4653  -13.3359   25.5056 C   0  0  0  0  0  0  0  0  0  0  0  0
    7.1644  -13.2189   27.1621 S   0  0  0  0  0  0  0  0  0  0  0  0
    8.0776  -14.8971   24.6728 C   0  0  0  0  0  0  0  0  0  0  0  0
    7.3210  -15.8642   24.3788 O   0  0  0  0  0  0  0  0  0  0  0  0
    9.3512  -15.1888   25.1930 N   0  0  0  0  0  0  0  0  0  0  0  0
    9.8780  -16.5388   25.4097 C   0  0  1  0  0  0  0  0  0  0  0  0
   11.2474  -16.6817   24.8503 C   0  0  0  0  0  0  0  0  0  0  0  0
   11.4529  -18.0270   24.2917 C   0  0  0  0  0  0  0  0  0  0  0  0
   10.6537  -18.6517   23.5510 O   0  0  0  0  0  0  0  0  0  0  0  0
    9.9645  -16.6689   26.9112 C   0  0  0  0  0  0  0  0  0  0  0  0
   10.2668  -15.5366   27.6810 O   0  0  0  0  0  0  0  0  0  0  0  0
   12.6395  -18.7531   24.5691 O   0  0  0  0  0  0  0  0  0  0  0  0
    9.7666  -17.7775   27.4433 O   0  0  0  0  0  0  0  0  0  0  0  0
  2  1  1  0
  3  2  1  0
  3  5  1  0
  3  4  1  6
  5  6  2  0
  7  8  1  0
  7  5  1  0
  8  9  1  1
 10  9  1  0
 11  8  1  0
 11 13  1  0
 12 11  2  0
 14 13  1  0
 14 15  1  6
 15 16  1  0
 16 20  1  0
 17 16  2  0
 18 14  1  0
 19 18  1  0
 21 18  2  0
M  END
$$$$
