SCD.pdb
     RDKit          3D

 21 20  0  0  1  0  0  0  0  0999 V2000
    6.5384  -18.8656   20.3541 O   0  0  0  0  0  0  0  0  0  0  0  0
    6.2185  -17.8575   21.2576 C   0  0  0  0  0  0  0  0  0  0  0  0
    6.3450  -16.4807   20.6379 C   0  0  2  0  0  0  0  0  0  0  0  0
    6.7995  -16.7116   19.2661 N   0  0  0  0  0  0  0  0  0  0  0  0
    7.3016  -15.6245   21.3320 C   0  0  0  0  0  0  0  0  0  0  0  0
    8.4185  -15.3601   20.7883 O   0  0  0  0  0  0  0  0  0  0  0  0
    7.0956  -15.0343   22.6077 N   0  0  0  0  0  0  0  0  0  0  0  0
    8.1016  -14.2338   23.2771 C   0  0  1  0  0  0  0  0  0  0  0  0
    7.3784  -13.6339   24.4973 C   0  0  0  0  0  0  0  0  0  0  0  0
    6.5907  -14.9202   25.4830 S   0  0  0  0  0  0  0  0  0  0  0  0
    9.1914  -15.0522   23.8403 C   0  0  0  0  0  0  0  0  0  0  0  0
   10.1295  -14.4553   24.4385 O   0  0  0  0  0  0  0  0  0  0  0  0
    9.2507  -16.4545   23.7516 N   0  0  0  0  0  0  0  0  0  0  0  0
   10.3641  -17.2774   24.2315 C   0  0  1  0  0  0  0  0  0  0  0  0
    9.8793  -18.4211   25.0473 C   0  0  0  0  0  0  0  0  0  0  0  0
    9.9714  -18.1221   26.4848 C   0  0  0  0  0  0  0  0  0  0  0  0
    9.2740  -18.6357   27.3944 O   0  0  0  0  0  0  0  0  0  0  0  0
   10.9916  -17.8265   22.9731 C   0  0  0  0  0  0  0  0  0  0  0  0
   12.2363  -18.4674   23.0511 O   0  0  0  0  0  0  0  0  0  0  0  0
   10.9109  -17.1762   26.9693 O   0  0  0  0  0  0  0  0  0  0  0  0
   10.3961  -17.7025   21.8862 O   0  0  0  0  0  0  0  0  0  0  0  0
  2  1  1  0
  3  2  1  0
  3  5  1  0
  3  4  1  6
  5  6  2  0
  7  8  1  0
  7  5  1  0
  8  9  1  1
 10  9  1  0
 11  8  1  0
 11 13  1  0
 12 11  2  0
 14 13  1  0
 14 15  1  1
 15 16  1  0
 16 20  1  0
 17 16  2  0
 18 14  1  0
 19 18  1  0
 21 18  2  0
M  END
$$$$
