MLT.pdb
     RDKit          3D

 24 23  0  0  1  0  0  0  0  0999 V2000
    7.3779  -21.1705   22.1448 C   0  0  0  0  0  0  0  0  0  0  0  0
    6.3137  -20.5130   20.8367 S   0  0  0  0  0  0  0  0  0  0  0  0
    6.6239  -18.7460   20.5598 C   0  0  0  0  0  0  0  0  0  0  0  0
    7.2055  -18.0979   21.8114 C   0  0  0  0  0  0  0  0  0  0  0  0
    7.4122  -16.6151   21.6095 C   0  0  2  0  0  0  0  0  0  0  0  0
    8.2450  -16.3409   20.4576 N   0  0  0  0  0  0  0  0  0  0  0  0
    7.9591  -15.9621   22.8236 C   0  0  0  0  0  0  0  0  0  0  0  0
    9.2165  -15.8775   22.9483 O   0  0  0  0  0  0  0  0  0  0  0  0
    6.1812  -12.0725   27.0321 C   0  0  0  0  0  0  0  0  0  0  0  0
    7.3190  -12.8135   26.2714 C   0  0  2  0  0  0  0  0  0  0  0  0
    7.6354  -11.9130   25.1032 C   0  0  0  0  0  0  0  0  0  0  0  0
    6.7170  -14.1053   25.8256 C   0  0  0  0  0  0  0  0  0  0  0  0
    7.7148  -14.9919   25.1624 C   0  0  2  0  0  0  0  0  0  0  0  0
    7.1733  -15.4268   23.8529 N   0  0  0  0  0  0  0  0  0  0  0  0
    8.1185  -16.1943   25.9134 C   0  0  0  0  0  0  0  0  0  0  0  0
    7.2212  -17.0368   26.3143 O   0  0  0  0  0  0  0  0  0  0  0  0
    9.9582  -19.0835   24.8868 C   0  0  0  0  0  0  0  0  0  0  0  0
   10.6758  -18.6100   26.1048 C   0  0  1  0  0  0  0  0  0  0  0  0
   11.8382  -17.9529   25.7857 O   0  0  0  0  0  0  0  0  0  0  0  0
    9.7645  -17.7680   27.0030 C   0  0  2  0  0  0  0  0  0  0  0  0
    9.4306  -16.5660   26.2648 N   0  0  0  0  0  0  0  0  0  0  0  0
   10.3847  -17.5040   28.2914 C   0  0  0  0  0  0  0  0  0  0  0  0
   10.6924  -16.3340   28.6156 O   0  0  0  0  0  0  0  0  0  0  0  0
   10.6548  -18.5142   29.1936 O   0  0  0  0  0  0  0  0  0  0  0  0
  1  2  1  0
  2  3  1  0
  4  3  1  0
  5  4  1  0
  5  6  1  6
  7  5  1  0
  7  8  2  0
 10  9  1  1
 10 12  1  0
 10 11  1  0
 13 12  1  1
 13 14  1  0
 14  7  1  0
 15 13  1  0
 16 15  2  0
 18 17  1  6
 18 20  1  0
 19 18  1  0
 20 22  1  0
 20 21  1  6
 21 15  1  0
 22 24  1  0
 23 22  2  0
M  END
$$$$
