MLT.pdb
     RDKit          3D

 24 23  0  0  1  0  0  0  0  0999 V2000
    8.1918  -11.3698   19.6174 C   0  0  0  0  0  0  0  0  0  0  0  0
    7.7486  -12.7398   18.5206 S   0  0  0  0  0  0  0  0  0  0  0  0
    7.8302  -14.3322   19.3882 C   0  0  0  0  0  0  0  0  0  0  0  0
    8.2999  -14.1396   20.8260 C   0  0  0  0  0  0  0  0  0  0  0  0
    8.3852  -15.4620   21.5515 C   0  0  2  0  0  0  0  0  0  0  0  0
    7.1674  -16.2318   21.4098 N   0  0  0  0  0  0  0  0  0  0  0  0
    8.7354  -15.2869   22.9819 C   0  0  0  0  0  0  0  0  0  0  0  0
    9.9326  -15.0000   23.2788 O   0  0  0  0  0  0  0  0  0  0  0  0
    8.0853  -12.3208   26.1318 C   0  0  0  0  0  0  0  0  0  0  0  0
    6.8832  -13.1616   25.6119 C   0  0  2  0  0  0  0  0  0  0  0  0
    5.6722  -12.4952   26.2161 C   0  0  0  0  0  0  0  0  0  0  0  0
    7.0935  -14.5322   26.1661 C   0  0  0  0  0  0  0  0  0  0  0  0
    8.1899  -15.2600   25.4664 C   0  0  2  0  0  0  0  0  0  0  0  0
    7.8245  -15.4182   24.0386 N   0  0  0  0  0  0  0  0  0  0  0  0
    8.5342  -16.5896   26.0014 C   0  0  0  0  0  0  0  0  0  0  0  0
    7.5992  -17.3732   26.4345 O   0  0  0  0  0  0  0  0  0  0  0  0
   10.2421  -19.5295   24.4476 C   0  0  0  0  0  0  0  0  0  0  0  0
   10.9824  -19.2101   25.7016 C   0  0  1  0  0  0  0  0  0  0  0  0
   12.1623  -18.5580   25.4422 O   0  0  0  0  0  0  0  0  0  0  0  0
   10.1039  -18.4416   26.6935 C   0  0  2  0  0  0  0  0  0  0  0  0
    9.8228  -17.1487   26.1014 N   0  0  0  0  0  0  0  0  0  0  0  0
   10.7301  -18.3562   28.0030 C   0  0  0  0  0  0  0  0  0  0  0  0
   11.1091  -17.2493   28.4501 O   0  0  0  0  0  0  0  0  0  0  0  0
   10.9290  -19.4717   28.7926 O   0  0  0  0  0  0  0  0  0  0  0  0
  1  2  1  0
  2  3  1  0
  4  3  1  0
  5  4  1  0
  5  6  1  1
  7  5  1  0
  7  8  2  0
 10  9  1  1
 10 12  1  0
 10 11  1  0
 13 12  1  1
 13 14  1  0
 14  7  1  0
 15 13  1  0
 16 15  2  0
 18 17  1  6
 18 20  1  0
 19 18  1  0
 20 22  1  0
 20 21  1  6
 21 15  1  0
 22 24  1  0
 23 22  2  0
M  END
$$$$
