MLT.pdb
     RDKit          3D

 24 23  0  0  1  0  0  0  0  0999 V2000
    8.4543  -11.2948   19.8919 C   0  0  0  0  0  0  0  0  0  0  0  0
    8.1165  -12.5886   18.6720 S   0  0  0  0  0  0  0  0  0  0  0  0
    7.9135  -14.2079   19.4669 C   0  0  0  0  0  0  0  0  0  0  0  0
    8.4450  -14.1777   20.8957 C   0  0  0  0  0  0  0  0  0  0  0  0
    8.3642  -15.5444   21.5345 C   0  0  2  0  0  0  0  0  0  0  0  0
    7.0667  -16.1546   21.3349 N   0  0  0  0  0  0  0  0  0  0  0  0
    8.7121  -15.5033   22.9755 C   0  0  0  0  0  0  0  0  0  0  0  0
    9.9351  -15.5411   23.3019 O   0  0  0  0  0  0  0  0  0  0  0  0
    7.9618  -12.3969   26.2575 C   0  0  0  0  0  0  0  0  0  0  0  0
    6.7684  -13.2189   25.6895 C   0  0  2  0  0  0  0  0  0  0  0  0
    5.5514  -12.6074   26.3382 C   0  0  0  0  0  0  0  0  0  0  0  0
    6.9982  -14.6187   26.1559 C   0  0  0  0  0  0  0  0  0  0  0  0
    8.1321  -15.2709   25.4414 C   0  0  2  0  0  0  0  0  0  0  0  0
    7.7721  -15.4246   24.0117 N   0  0  0  0  0  0  0  0  0  0  0  0
    8.5526  -16.5880   25.9522 C   0  0  0  0  0  0  0  0  0  0  0  0
    7.6616  -17.4688   26.2779 O   0  0  0  0  0  0  0  0  0  0  0  0
   10.2457  -19.2371   24.2589 C   0  0  0  0  0  0  0  0  0  0  0  0
   11.0531  -19.0251   25.4941 C   0  0  1  0  0  0  0  0  0  0  0  0
   12.2107  -18.3354   25.2315 O   0  0  0  0  0  0  0  0  0  0  0  0
   10.2255  -18.3640   26.6006 C   0  0  2  0  0  0  0  0  0  0  0  0
    9.8749  -17.0365   26.1357 N   0  0  0  0  0  0  0  0  0  0  0  0
   10.9363  -18.3654   27.8691 C   0  0  0  0  0  0  0  0  0  0  0  0
   11.1333  -19.4405   28.4807 O   0  0  0  0  0  0  0  0  0  0  0  0
   11.4142  -17.2026   28.4407 O   0  0  0  0  0  0  0  0  0  0  0  0
  1  2  1  0
  2  3  1  0
  4  3  1  0
  5  4  1  0
  5  6  1  1
  7  5  1  0
  7  8  2  0
 10  9  1  1
 10 12  1  0
 10 11  1  0
 13 12  1  1
 13 14  1  0
 14  7  1  0
 15 13  1  0
 16 15  2  0
 18 17  1  6
 18 20  1  0
 19 18  1  0
 20 22  1  0
 20 21  1  6
 21 15  1  0
 22 24  1  0
 23 22  2  0
M  END
$$$$
