MLT.pdb
     RDKit          3D

 24 23  0  0  1  0  0  0  0  0999 V2000
    8.6641  -11.4368   19.2003 C   0  0  0  0  0  0  0  0  0  0  0  0
    7.5924  -12.6720   18.4244 S   0  0  0  0  0  0  0  0  0  0  0  0
    7.4600  -14.1660   19.4468 C   0  0  0  0  0  0  0  0  0  0  0  0
    8.8038  -14.5055   20.0823 C   0  0  0  0  0  0  0  0  0  0  0  0
    8.6804  -15.6869   21.0158 C   0  0  2  0  0  0  0  0  0  0  0  0
    7.3892  -16.3310   20.8992 N   0  0  0  0  0  0  0  0  0  0  0  0
    8.9576  -15.3113   22.4235 C   0  0  0  0  0  0  0  0  0  0  0  0
   10.1411  -14.9904   22.7400 O   0  0  0  0  0  0  0  0  0  0  0  0
    6.0967  -12.8509   27.1594 C   0  0  0  0  0  0  0  0  0  0  0  0
    7.4048  -13.5853   26.7448 C   0  0  2  0  0  0  0  0  0  0  0  0
    8.4680  -12.5167   26.8042 C   0  0  0  0  0  0  0  0  0  0  0  0
    7.1675  -14.0510   25.3460 C   0  0  0  0  0  0  0  0  0  0  0  0
    8.2791  -14.9061   24.8414 C   0  0  2  0  0  0  0  0  0  0  0  0
    7.9913  -15.2866   23.4379 N   0  0  0  0  0  0  0  0  0  0  0  0
    8.5505  -16.1382   25.6036 C   0  0  0  0  0  0  0  0  0  0  0  0
    7.5732  -16.9162   25.9428 O   0  0  0  0  0  0  0  0  0  0  0  0
   10.2020  -19.0453   24.5108 C   0  0  0  0  0  0  0  0  0  0  0  0
   10.8951  -18.7308   25.7928 C   0  0  1  0  0  0  0  0  0  0  0  0
   12.1300  -18.1709   25.5779 O   0  0  0  0  0  0  0  0  0  0  0  0
   10.0212  -17.8677   26.7079 C   0  0  2  0  0  0  0  0  0  0  0  0
    9.8095  -16.6048   26.0286 N   0  0  0  0  0  0  0  0  0  0  0  0
   10.6134  -17.7241   28.0281 C   0  0  0  0  0  0  0  0  0  0  0  0
   10.7365  -18.7210   28.7762 O   0  0  0  0  0  0  0  0  0  0  0  0
   11.0561  -16.5048   28.5021 O   0  0  0  0  0  0  0  0  0  0  0  0
  1  2  1  0
  2  3  1  0
  4  3  1  0
  5  4  1  0
  5  6  1  1
  7  5  1  0
  7  8  2  0
 10  9  1  6
 10 12  1  0
 10 11  1  0
 13 12  1  1
 13 14  1  0
 14  7  1  0
 15 13  1  0
 16 15  2  0
 18 17  1  6
 18 20  1  0
 19 18  1  0
 20 22  1  0
 20 21  1  6
 21 15  1  0
 22 24  1  0
 23 22  2  0
M  END
$$$$
