MLT.pdb
     RDKit          3D

 24 23  0  0  1  0  0  0  0  0999 V2000
    9.2665  -11.5965   19.3067 C   0  0  0  0  0  0  0  0  0  0  0  0
    7.8270  -12.5618   18.7847 S   0  0  0  0  0  0  0  0  0  0  0  0
    7.6753  -14.0931   19.7475 C   0  0  0  0  0  0  0  0  0  0  0  0
    8.3066  -13.9285   21.1256 C   0  0  0  0  0  0  0  0  0  0  0  0
    8.2025  -15.2050   21.9269 C   0  0  2  0  0  0  0  0  0  0  0  0
    6.8543  -15.7321   21.9245 N   0  0  0  0  0  0  0  0  0  0  0  0
    8.6983  -15.0300   23.3136 C   0  0  0  0  0  0  0  0  0  0  0  0
    9.9309  -14.7980   23.4885 O   0  0  0  0  0  0  0  0  0  0  0  0
    7.8890  -11.8288   25.9363 C   0  0  0  0  0  0  0  0  0  0  0  0
    6.7892  -12.9229   25.8102 C   0  0  2  0  0  0  0  0  0  0  0  0
    5.5799  -12.3155   26.4768 C   0  0  0  0  0  0  0  0  0  0  0  0
    7.3111  -14.0946   26.5749 C   0  0  0  0  0  0  0  0  0  0  0  0
    8.3740  -14.8255   25.8284 C   0  0  2  0  0  0  0  0  0  0  0  0
    7.8895  -15.1041   24.4555 N   0  0  0  0  0  0  0  0  0  0  0  0
    8.8292  -16.0963   26.4204 C   0  0  0  0  0  0  0  0  0  0  0  0
    9.0840  -16.1637   27.6877 O   0  0  0  0  0  0  0  0  0  0  0  0
    7.3876  -19.7747   26.1543 C   0  0  0  0  0  0  0  0  0  0  0  0
    8.8143  -19.7052   25.7275 C   0  0  1  0  0  0  0  0  0  0  0  0
    8.9354  -19.7034   24.3600 O   0  0  0  0  0  0  0  0  0  0  0  0
    9.5374  -18.5190   26.3727 C   0  0  2  0  0  0  0  0  0  0  0  0
    9.0277  -17.3160   25.7448 N   0  0  0  0  0  0  0  0  0  0  0  0
   10.9813  -18.6583   26.2728 C   0  0  0  0  0  0  0  0  0  0  0  0
   11.6521  -17.8248   25.6216 O   0  0  0  0  0  0  0  0  0  0  0  0
   11.6595  -19.6965   26.8808 O   0  0  0  0  0  0  0  0  0  0  0  0
  1  2  1  0
  2  3  1  0
  4  3  1  0
  5  4  1  0
  5  6  1  1
  7  5  1  0
  7  8  2  0
 10  9  1  1
 10 12  1  0
 10 11  1  0
 13 12  1  1
 13 14  1  0
 14  7  1  0
 15 13  1  0
 16 15  2  0
 18 17  1  6
 18 20  1  0
 19 18  1  0
 20 22  1  0
 20 21  1  6
 21 15  1  0
 22 24  1  0
 23 22  2  0
M  END
$$$$
