MLT.pdb
     RDKit          3D

 24 23  0  0  1  0  0  0  0  0999 V2000
    7.1984  -18.5962   28.5386 C   0  0  0  0  0  0  0  0  0  0  0  0
    7.4240  -20.3771   28.3073 S   0  0  0  0  0  0  0  0  0  0  0  0
    6.6649  -20.9426   26.7585 C   0  0  0  0  0  0  0  0  0  0  0  0
    7.1002  -20.0627   25.5918 C   0  0  0  0  0  0  0  0  0  0  0  0
    5.9277  -19.3029   25.0172 C   0  0  2  0  0  0  0  0  0  0  0  0
    5.3044  -20.0220   23.9262 N   0  0  0  0  0  0  0  0  0  0  0  0
    6.3085  -17.9327   24.5968 C   0  0  0  0  0  0  0  0  0  0  0  0
    6.5809  -17.7301   23.3767 O   0  0  0  0  0  0  0  0  0  0  0  0
    6.9453  -12.3215   27.0861 C   0  0  0  0  0  0  0  0  0  0  0  0
    7.3969  -13.2380   25.9120 C   0  0  2  0  0  0  0  0  0  0  0  0
    6.9386  -12.5103   24.6725 C   0  0  0  0  0  0  0  0  0  0  0  0
    6.6550  -14.5194   26.1060 C   0  0  0  0  0  0  0  0  0  0  0  0
    7.0647  -15.5613   25.1221 C   0  0  2  0  0  0  0  0  0  0  0  0
    6.3887  -16.8353   25.4645 N   0  0  0  0  0  0  0  0  0  0  0  0
    8.5111  -15.8242   25.0160 C   0  0  0  0  0  0  0  0  0  0  0  0
    9.1746  -16.2143   26.0569 O   0  0  0  0  0  0  0  0  0  0  0  0
    9.6564  -17.8698   21.9141 C   0  0  0  0  0  0  0  0  0  0  0  0
   10.6587  -16.8081   22.2157 C   0  0  1  0  0  0  0  0  0  0  0  0
   10.5540  -15.7500   21.3472 O   0  0  0  0  0  0  0  0  0  0  0  0
   10.5839  -16.3632   23.6794 C   0  0  2  0  0  0  0  0  0  0  0  0
    9.3060  -15.7031   23.8598 N   0  0  0  0  0  0  0  0  0  0  0  0
   11.7216  -15.5333   24.0418 C   0  0  0  0  0  0  0  0  0  0  0  0
   11.5558  -14.3253   24.3278 O   0  0  0  0  0  0  0  0  0  0  0  0
   13.0079  -16.0344   24.0843 O   0  0  0  0  0  0  0  0  0  0  0  0
  1  2  1  0
  2  3  1  0
  4  3  1  0
  5  4  1  0
  5  6  1  6
  7  5  1  0
  7  8  2  0
 10  9  1  1
 10 12  1  0
 10 11  1  0
 13 12  1  1
 13 14  1  0
 14  7  1  0
 15 13  1  0
 16 15  2  0
 18 17  1  6
 18 20  1  0
 19 18  1  0
 20 22  1  0
 20 21  1  6
 21 15  1  0
 22 24  1  0
 23 22  2  0
M  END
$$$$
