QCK.pdb
     RDKit          3D

 25 24  0  0  1  0  0  0  0  0999 V2000
   18.8864  -14.8774  -17.0389 N   0  0  0  0  0  0  0  0  0  0  0  0
   20.2215  -15.4007  -17.2175 C   0  0  0  0  0  0  0  0  0  0  0  0
   20.2614  -16.6247  -17.4788 O   0  0  0  0  0  0  0  0  0  0  0  0
   21.3902  -14.5323  -17.0957 C   0  0  0  0  0  0  0  0  0  0  0  0
   21.1735  -13.1304  -16.7129 C   0  0  0  0  0  0  0  0  0  0  0  0
   21.9393  -12.0548  -17.3555 C   0  0  2  0  0  0  0  0  0  0  0  0
   22.8488  -12.5341  -18.3329 N   0  0  0  0  0  0  0  0  0  0  0  0
   22.5229  -11.0598  -16.4418 C   0  0  0  0  0  0  0  0  0  0  0  0
   21.8544  -10.5580  -15.4957 O   0  0  0  0  0  0  0  0  0  0  0  0
   23.8612  -10.6221  -16.5867 N   0  0  0  0  0  0  0  0  0  0  0  0
   24.3366   -9.5109  -15.7500 C   0  0  1  0  0  0  0  0  0  0  0  0
   25.8452   -9.4317  -15.9179 C   0  0  0  0  0  0  0  0  0  0  0  0
   26.7026  -10.7575  -15.0551 S   0  0  0  0  0  0  0  0  0  0  0  0
   23.7911   -8.2149  -16.2512 C   0  0  0  0  0  0  0  0  0  0  0  0
   23.6051   -7.9876  -17.4607 O   0  0  0  0  0  0  0  0  0  0  0  0
   23.4794   -7.2213  -15.3120 N   0  0  0  0  0  0  0  0  0  0  0  0
   22.7486   -6.0074  -15.6173 C   0  0  1  0  0  0  0  0  0  0  0  0
   21.3972   -6.3751  -16.1463 C   0  0  0  0  0  0  0  0  0  0  0  0
   20.4880   -5.2453  -16.4421 C   0  0  0  0  0  0  0  0  0  0  0  0
   19.1506   -5.5785  -16.9929 C   0  0  0  0  0  0  0  0  0  0  0  0
   18.2840   -4.4238  -17.3614 C   0  0  0  0  0  0  0  0  0  0  0  0
   16.9459   -4.7662  -17.7726 N   0  0  0  0  0  0  0  0  0  0  0  0
   22.6973   -5.0860  -14.4683 C   0  0  0  0  0  0  0  0  0  0  0  0
   22.5331   -5.5120  -13.2974 O   0  0  0  0  0  0  0  0  0  0  0  0
   22.8252   -3.7013  -14.5991 O   0  0  0  0  0  0  0  0  0  0  0  0
  1  2  1  0
  2  4  1  0
  3  2  2  0
  4  5  1  0
  5  6  1  0
  6  7  1  1
  8  6  1  0
  8 10  1  0
  9  8  2  0
 11 10  1  0
 11 14  1  0
 11 12  1  6
 13 12  1  0
 14 15  2  0
 16 14  1  0
 16 17  1  0
 17 23  1  0
 17 18  1  1
 19 18  1  0
 20 19  1  0
 21 22  1  0
 21 20  1  0
 23 25  1  0
 24 23  2  0
M  END
$$$$
