QCK.pdb
     RDKit          3D

 25 24  0  0  1  0  0  0  0  0999 V2000
   25.3174  -15.3010  -20.9012 N   0  0  0  0  0  0  0  0  0  0  0  0
   26.5207  -15.3381  -20.1019 C   0  0  0  0  0  0  0  0  0  0  0  0
   27.4618  -15.9801  -20.6219 O   0  0  0  0  0  0  0  0  0  0  0  0
   26.5820  -14.6650  -18.8065 C   0  0  0  0  0  0  0  0  0  0  0  0
   25.3906  -13.9378  -18.3477 C   0  0  0  0  0  0  0  0  0  0  0  0
   24.5103  -14.5179  -17.3254 C   0  0  2  0  0  0  0  0  0  0  0  0
   24.4514  -13.7377  -16.1422 N   0  0  0  0  0  0  0  0  0  0  0  0
   24.6909  -15.9570  -17.0767 C   0  0  0  0  0  0  0  0  0  0  0  0
   24.0769  -16.8277  -17.7541 O   0  0  0  0  0  0  0  0  0  0  0  0
   25.5620  -16.4261  -16.0643 N   0  0  0  0  0  0  0  0  0  0  0  0
   25.6542  -17.8736  -15.8253 C   0  0  1  0  0  0  0  0  0  0  0  0
   26.9003  -18.1154  -14.9893 C   0  0  0  0  0  0  0  0  0  0  0  0
   26.7368  -17.4803  -13.3138 S   0  0  0  0  0  0  0  0  0  0  0  0
   24.5000  -18.3369  -14.9998 C   0  0  0  0  0  0  0  0  0  0  0  0
   24.1477  -17.7603  -13.9545 O   0  0  0  0  0  0  0  0  0  0  0  0
   23.7917  -19.4684  -15.4294 N   0  0  0  0  0  0  0  0  0  0  0  0
   22.5720  -19.9526  -14.8140 C   0  0  1  0  0  0  0  0  0  0  0  0
   21.5856  -18.8286  -14.7429 C   0  0  0  0  0  0  0  0  0  0  0  0
   20.2781  -19.1522  -14.1296 C   0  0  0  0  0  0  0  0  0  0  0  0
   19.1752  -19.5328  -15.0471 C   0  0  0  0  0  0  0  0  0  0  0  0
   17.8352  -19.7214  -14.4233 C   0  0  0  0  0  0  0  0  0  0  0  0
   16.7416  -19.8713  -15.3499 N   0  0  0  0  0  0  0  0  0  0  0  0
   22.0464  -21.1516  -15.4905 C   0  0  0  0  0  0  0  0  0  0  0  0
   22.0234  -21.2358  -16.7442 O   0  0  0  0  0  0  0  0  0  0  0  0
   21.5468  -22.2568  -14.7976 O   0  0  0  0  0  0  0  0  0  0  0  0
  1  2  1  0
  2  4  1  0
  3  2  2  0
  4  5  1  0
  5  6  1  0
  6  7  1  1
  8  6  1  0
  8 10  1  0
  9  8  2  0
 11 10  1  0
 11 14  1  0
 11 12  1  1
 13 12  1  0
 14 15  2  0
 16 14  1  0
 16 17  1  0
 17 23  1  0
 17 18  1  6
 19 18  1  0
 20 19  1  0
 21 22  1  0
 21 20  1  0
 23 25  1  0
 24 23  2  0
M  END
$$$$
