QCK.pdb
     RDKit          3D

 25 24  0  0  1  0  0  0  0  0999 V2000
   26.5006  -16.7323  -14.6948 N   0  0  0  0  0  0  0  0  0  0  0  0
   27.1956  -17.0398  -15.9238 C   0  0  0  0  0  0  0  0  0  0  0  0
   26.9420  -16.2550  -16.8661 O   0  0  0  0  0  0  0  0  0  0  0  0
   28.1075  -18.1785  -16.0053 C   0  0  0  0  0  0  0  0  0  0  0  0
   28.3412  -18.9661  -14.7872 C   0  0  0  0  0  0  0  0  0  0  0  0
   28.1208  -20.4179  -14.7839 C   0  0  2  0  0  0  0  0  0  0  0  0
   28.1222  -20.9783  -16.0871 N   0  0  0  0  0  0  0  0  0  0  0  0
   27.0117  -20.8883  -13.9388 C   0  0  0  0  0  0  0  0  0  0  0  0
   26.0494  -21.5502  -14.4182 O   0  0  0  0  0  0  0  0  0  0  0  0
   26.9771  -20.6165  -12.5501 N   0  0  0  0  0  0  0  0  0  0  0  0
   25.8360  -21.1041  -11.7621 C   0  0  1  0  0  0  0  0  0  0  0  0
   26.0857  -20.7128  -10.3148 C   0  0  0  0  0  0  0  0  0  0  0  0
   24.6859  -21.0920   -9.2498 S   0  0  0  0  0  0  0  0  0  0  0  0
   24.5842  -20.4036  -12.1751 C   0  0  0  0  0  0  0  0  0  0  0  0
   24.4898  -19.1631  -12.2117 O   0  0  0  0  0  0  0  0  0  0  0  0
   23.4766  -21.1853  -12.5339 N   0  0  0  0  0  0  0  0  0  0  0  0
   22.1906  -20.6481  -12.9319 C   0  0  1  0  0  0  0  0  0  0  0  0
   21.6864  -21.4205  -14.1111 C   0  0  0  0  0  0  0  0  0  0  0  0
   20.3332  -21.0609  -14.5904 C   0  0  0  0  0  0  0  0  0  0  0  0
   19.8059  -21.8122  -15.7569 C   0  0  0  0  0  0  0  0  0  0  0  0
   18.4820  -21.3718  -16.2799 C   0  0  0  0  0  0  0  0  0  0  0  0
   18.0189  -22.0743  -17.4499 N   0  0  0  0  0  0  0  0  0  0  0  0
   21.2363  -20.6025  -11.8099 C   0  0  0  0  0  0  0  0  0  0  0  0
   21.2788  -21.4497  -10.8826 O   0  0  0  0  0  0  0  0  0  0  0  0
   20.2372  -19.6323  -11.7018 O   0  0  0  0  0  0  0  0  0  0  0  0
  1  2  1  0
  2  4  1  0
  3  2  2  0
  4  5  1  0
  5  6  1  0
  6  7  1  6
  8  6  1  0
  8 10  1  0
  9  8  2  0
 11 10  1  0
 11 14  1  0
 11 12  1  1
 13 12  1  0
 14 15  2  0
 16 14  1  0
 16 17  1  0
 17 23  1  0
 17 18  1  6
 19 18  1  0
 20 19  1  0
 21 22  1  0
 21 20  1  0
 23 25  1  0
 24 23  2  0
M  END
$$$$
