QCK.pdb
     RDKit          3D

 25 24  0  0  1  0  0  0  0  0999 V2000
   13.5558   -9.8964  -13.0953 N   0  0  0  0  0  0  0  0  0  0  0  0
   13.9990  -10.5812  -14.2880 C   0  0  0  0  0  0  0  0  0  0  0  0
   13.0691  -11.0254  -14.9995 O   0  0  0  0  0  0  0  0  0  0  0  0
   15.4220  -10.7135  -14.5922 C   0  0  0  0  0  0  0  0  0  0  0  0
   16.3877  -10.1311  -13.6505 C   0  0  0  0  0  0  0  0  0  0  0  0
   17.3356   -9.1015  -14.0954 C   0  0  2  0  0  0  0  0  0  0  0  0
   18.4595   -9.6425  -14.7711 N   0  0  0  0  0  0  0  0  0  0  0  0
   17.6827   -8.0836  -13.0909 C   0  0  0  0  0  0  0  0  0  0  0  0
   18.8483   -7.9954  -12.6139 O   0  0  0  0  0  0  0  0  0  0  0  0
   16.7215   -7.1596  -12.6159 N   0  0  0  0  0  0  0  0  0  0  0  0
   17.1298   -6.1684  -11.6100 C   0  0  1  0  0  0  0  0  0  0  0  0
   18.2071   -5.3013  -12.2408 C   0  0  0  0  0  0  0  0  0  0  0  0
   17.7099   -4.6437  -13.8401 S   0  0  0  0  0  0  0  0  0  0  0  0
   15.9923   -5.2561  -11.2902 C   0  0  0  0  0  0  0  0  0  0  0  0
   15.2506   -4.7751  -12.1664 O   0  0  0  0  0  0  0  0  0  0  0  0
   15.7599   -4.9355   -9.9450 N   0  0  0  0  0  0  0  0  0  0  0  0
   14.6398   -4.1452   -9.4740 C   0  0  1  0  0  0  0  0  0  0  0  0
   14.3568   -4.5065   -8.0489 C   0  0  0  0  0  0  0  0  0  0  0  0
   13.2271   -3.7933   -7.4121 C   0  0  0  0  0  0  0  0  0  0  0  0
   12.9336   -4.1189   -5.9939 C   0  0  0  0  0  0  0  0  0  0  0  0
   11.8288   -3.3486   -5.3566 C   0  0  0  0  0  0  0  0  0  0  0  0
   11.5183   -3.7268   -4.0011 N   0  0  0  0  0  0  0  0  0  0  0  0
   14.8521   -2.7018   -9.6815 C   0  0  0  0  0  0  0  0  0  0  0  0
   13.8924   -1.9315   -9.9368 O   0  0  0  0  0  0  0  0  0  0  0  0
   16.1112   -2.1014   -9.6101 O   0  0  0  0  0  0  0  0  0  0  0  0
  1  2  1  0
  2  4  1  0
  3  2  2  0
  4  5  1  0
  5  6  1  0
  6  7  1  1
  8  6  1  0
  8 10  1  0
  9  8  2  0
 11 10  1  0
 11 14  1  0
 11 12  1  6
 13 12  1  0
 14 15  2  0
 16 14  1  0
 16 17  1  0
 17 23  1  0
 17 18  1  1
 19 18  1  0
 20 19  1  0
 21 22  1  0
 21 20  1  0
 23 25  1  0
 24 23  2  0
M  END
$$$$
