QCK.pdb
     RDKit          3D

 25 24  0  0  1  0  0  0  0  0999 V2000
   16.8832  -10.6824  -17.8195 N   0  0  0  0  0  0  0  0  0  0  0  0
   16.8639  -11.7549  -16.8512 C   0  0  0  0  0  0  0  0  0  0  0  0
   16.5110  -12.8615  -17.3192 O   0  0  0  0  0  0  0  0  0  0  0  0
   17.2364  -11.5154  -15.4589 C   0  0  0  0  0  0  0  0  0  0  0  0
   17.6616  -10.1612  -15.0796 C   0  0  0  0  0  0  0  0  0  0  0  0
   18.8138   -9.5299  -15.7357 C   0  0  2  0  0  0  0  0  0  0  0  0
   19.9206  -10.4070  -15.8690 N   0  0  0  0  0  0  0  0  0  0  0  0
   19.1745   -8.1941  -15.2346 C   0  0  0  0  0  0  0  0  0  0  0  0
   18.2944   -7.3560  -14.8925 O   0  0  0  0  0  0  0  0  0  0  0  0
   20.5265   -7.7920  -15.1161 N   0  0  0  0  0  0  0  0  0  0  0  0
   20.8228   -6.4573  -14.5760 C   0  0  1  0  0  0  0  0  0  0  0  0
   22.0873   -6.5778  -13.7412 C   0  0  0  0  0  0  0  0  0  0  0  0
   22.6969   -4.9793  -13.1841 S   0  0  0  0  0  0  0  0  0  0  0  0
   21.1417   -5.5093  -15.6842 C   0  0  0  0  0  0  0  0  0  0  0  0
   22.0703   -5.7054  -16.4893 O   0  0  0  0  0  0  0  0  0  0  0  0
   20.3563   -4.3547  -15.8130 N   0  0  0  0  0  0  0  0  0  0  0  0
   20.5908   -3.3105  -16.7906 C   0  0  1  0  0  0  0  0  0  0  0  0
   19.2915   -2.9591  -17.4459 C   0  0  0  0  0  0  0  0  0  0  0  0
   18.5991   -4.0645  -18.1454 C   0  0  0  0  0  0  0  0  0  0  0  0
   17.2921   -3.7534  -18.7765 C   0  0  0  0  0  0  0  0  0  0  0  0
   16.6160   -4.8795  -19.4799 C   0  0  0  0  0  0  0  0  0  0  0  0
   15.4200   -4.5241  -20.2012 N   0  0  0  0  0  0  0  0  0  0  0  0
   21.2858   -2.1493  -16.2073 C   0  0  0  0  0  0  0  0  0  0  0  0
   21.6234   -1.1677  -16.9158 O   0  0  0  0  0  0  0  0  0  0  0  0
   21.6112   -2.0612  -14.8518 O   0  0  0  0  0  0  0  0  0  0  0  0
  1  2  1  0
  2  4  1  0
  3  2  2  0
  4  5  1  0
  5  6  1  0
  6  7  1  1
  8  6  1  0
  8 10  1  0
  9  8  2  0
 11 10  1  0
 11 14  1  0
 11 12  1  1
 13 12  1  0
 14 15  2  0
 16 14  1  0
 16 17  1  0
 17 23  1  0
 17 18  1  1
 19 18  1  0
 20 19  1  0
 21 22  1  0
 21 20  1  0
 23 25  1  0
 24 23  2  0
M  END
$$$$
