QCK.pdb
     RDKit          3D

 25 24  0  0  1  0  0  0  0  0999 V2000
   24.2329  -22.0937  -18.9702 N   0  0  0  0  0  0  0  0  0  0  0  0
   24.9275  -20.8419  -19.1671 C   0  0  0  0  0  0  0  0  0  0  0  0
   25.3288  -20.6574  -20.3389 O   0  0  0  0  0  0  0  0  0  0  0  0
   25.1156  -19.9062  -18.0608 C   0  0  0  0  0  0  0  0  0  0  0  0
   24.5405  -20.2549  -16.7545 C   0  0  0  0  0  0  0  0  0  0  0  0
   23.1498  -19.9082  -16.4352 C   0  0  2  0  0  0  0  0  0  0  0  0
   22.9094  -18.5105  -16.4661 N   0  0  0  0  0  0  0  0  0  0  0  0
   22.5848  -20.5797  -15.2539 C   0  0  0  0  0  0  0  0  0  0  0  0
   22.7286  -21.8198  -15.0659 O   0  0  0  0  0  0  0  0  0  0  0  0
   21.8541  -19.8614  -14.2774 N   0  0  0  0  0  0  0  0  0  0  0  0
   21.2958  -20.5934  -13.1313 C   0  0  1  0  0  0  0  0  0  0  0  0
   21.1581  -19.6035  -11.9861 C   0  0  0  0  0  0  0  0  0  0  0  0
   20.3387  -20.3206  -10.5537 S   0  0  0  0  0  0  0  0  0  0  0  0
   19.9151  -21.0679  -13.4427 C   0  0  0  0  0  0  0  0  0  0  0  0
   19.0323  -20.3155  -13.8940 O   0  0  0  0  0  0  0  0  0  0  0  0
   19.6125  -22.4179  -13.2132 N   0  0  0  0  0  0  0  0  0  0  0  0
   18.3087  -23.0125  -13.4313 C   0  0  1  0  0  0  0  0  0  0  0  0
   18.4137  -24.4939  -13.2419 C   0  0  0  0  0  0  0  0  0  0  0  0
   17.1763  -25.2677  -13.4879 C   0  0  0  0  0  0  0  0  0  0  0  0
   17.2783  -26.7471  -13.4227 C   0  0  0  0  0  0  0  0  0  0  0  0
   16.0042  -27.5026  -13.5840 C   0  0  0  0  0  0  0  0  0  0  0  0
   16.1464  -28.9332  -13.6834 N   0  0  0  0  0  0  0  0  0  0  0  0
   17.2666  -22.3876  -12.5976 C   0  0  0  0  0  0  0  0  0  0  0  0
   16.1655  -22.0316  -13.0880 O   0  0  0  0  0  0  0  0  0  0  0  0
   17.4277  -22.1523  -11.2303 O   0  0  0  0  0  0  0  0  0  0  0  0
  1  2  1  0
  2  4  1  0
  3  2  2  0
  4  5  1  0
  5  6  1  0
  6  7  1  1
  8  6  1  0
  8 10  1  0
  9  8  2  0
 11 10  1  0
 11 14  1  0
 11 12  1  1
 13 12  1  0
 14 15  2  0
 16 14  1  0
 16 17  1  0
 17 23  1  0
 17 18  1  1
 19 18  1  0
 20 19  1  0
 21 22  1  0
 21 20  1  0
 23 25  1  0
 24 23  2  0
M  END
$$$$
