QCK.pdb
     RDKit          3D

 25 24  0  0  1  0  0  0  0  0999 V2000
   18.5687  -16.4316  -17.8841 N   0  0  0  0  0  0  0  0  0  0  0  0
   17.9224  -15.2849  -17.2877 C   0  0  0  0  0  0  0  0  0  0  0  0
   17.2625  -15.5475  -16.2563 O   0  0  0  0  0  0  0  0  0  0  0  0
   18.0617  -13.9548  -17.8761 C   0  0  0  0  0  0  0  0  0  0  0  0
   18.4911  -12.8538  -17.0031 C   0  0  0  0  0  0  0  0  0  0  0  0
   19.8392  -12.8455  -16.4210 C   0  0  2  0  0  0  0  0  0  0  0  0
   20.1256  -14.0195  -15.6780 N   0  0  0  0  0  0  0  0  0  0  0  0
   20.2253  -11.6022  -15.7349 C   0  0  0  0  0  0  0  0  0  0  0  0
   19.6665  -11.2371  -14.6632 O   0  0  0  0  0  0  0  0  0  0  0  0
   21.2409  -10.7615  -16.2498 N   0  0  0  0  0  0  0  0  0  0  0  0
   21.6073   -9.5527  -15.4978 C   0  0  1  0  0  0  0  0  0  0  0  0
   23.1247   -9.5107  -15.4207 C   0  0  0  0  0  0  0  0  0  0  0  0
   23.7731  -10.5347  -14.0910 S   0  0  0  0  0  0  0  0  0  0  0  0
   21.1924   -8.3305  -16.2478 C   0  0  0  0  0  0  0  0  0  0  0  0
   21.5150   -8.1279  -17.4327 O   0  0  0  0  0  0  0  0  0  0  0  0
   20.4077   -7.3794  -15.5798 N   0  0  0  0  0  0  0  0  0  0  0  0
   19.9031   -6.1634  -16.1863 C   0  0  1  0  0  0  0  0  0  0  0  0
   18.4963   -5.9395  -15.7256 C   0  0  0  0  0  0  0  0  0  0  0  0
   17.8280   -4.7278  -16.2506 C   0  0  0  0  0  0  0  0  0  0  0  0
   16.4305   -4.4824  -15.8147 C   0  0  0  0  0  0  0  0  0  0  0  0
   15.7581   -3.2887  -16.4006 C   0  0  0  0  0  0  0  0  0  0  0  0
   15.6892   -3.2668  -17.8399 N   0  0  0  0  0  0  0  0  0  0  0  0
   20.7898   -5.0118  -15.9428 C   0  0  0  0  0  0  0  0  0  0  0  0
   21.4187   -4.8900  -14.8615 O   0  0  0  0  0  0  0  0  0  0  0  0
   20.9885   -3.9951  -16.8797 O   0  0  0  0  0  0  0  0  0  0  0  0
  1  2  1  0
  2  4  1  0
  3  2  2  0
  4  5  1  0
  5  6  1  0
  6  7  1  1
  8  6  1  0
  8 10  1  0
  9  8  2  0
 11 10  1  0
 11 14  1  0
 11 12  1  6
 13 12  1  0
 14 15  2  0
 16 14  1  0
 16 17  1  0
 17 23  1  0
 17 18  1  1
 19 18  1  0
 20 19  1  0
 21 22  1  0
 21 20  1  0
 23 25  1  0
 24 23  2  0
M  END
$$$$
