QCK.pdb
     RDKit          3D

 25 24  0  0  1  0  0  0  0  0999 V2000
   17.9146  -12.0369  -14.5925 N   0  0  0  0  0  0  0  0  0  0  0  0
   18.5754  -12.1497  -15.8727 C   0  0  0  0  0  0  0  0  0  0  0  0
   18.6579  -13.3220  -16.3052 O   0  0  0  0  0  0  0  0  0  0  0  0
   19.0823  -10.9656  -16.5623 C   0  0  0  0  0  0  0  0  0  0  0  0
   18.8675   -9.6546  -15.9347 C   0  0  0  0  0  0  0  0  0  0  0  0
   19.9679   -8.6878  -15.8311 C   0  0  2  0  0  0  0  0  0  0  0  0
   21.1945   -9.2882  -15.4476 N   0  0  0  0  0  0  0  0  0  0  0  0
   19.6582   -7.4522  -15.0942 C   0  0  0  0  0  0  0  0  0  0  0  0
   18.5346   -7.2720  -14.5474 O   0  0  0  0  0  0  0  0  0  0  0  0
   20.6092   -6.4113  -14.9686 N   0  0  0  0  0  0  0  0  0  0  0  0
   20.2162   -5.1734  -14.2800 C   0  0  1  0  0  0  0  0  0  0  0  0
   21.2517   -4.9089  -13.1992 C   0  0  0  0  0  0  0  0  0  0  0  0
   22.9364   -5.1041  -13.8000 S   0  0  0  0  0  0  0  0  0  0  0  0
   20.2852   -4.0145  -15.2183 C   0  0  0  0  0  0  0  0  0  0  0  0
   21.0635   -3.9819  -16.1891 O   0  0  0  0  0  0  0  0  0  0  0  0
   19.4340   -2.9244  -14.9865 N   0  0  0  0  0  0  0  0  0  0  0  0
   19.3708   -1.7431  -15.8239 C   0  0  1  0  0  0  0  0  0  0  0  0
   17.9725   -1.5852  -16.3349 C   0  0  0  0  0  0  0  0  0  0  0  0
   17.7425   -0.4462  -17.2514 C   0  0  0  0  0  0  0  0  0  0  0  0
   16.3668   -0.2692  -17.7801 C   0  0  0  0  0  0  0  0  0  0  0  0
   16.1753    0.8368  -18.7599 C   0  0  0  0  0  0  0  0  0  0  0  0
   14.8123    1.0684  -19.1666 N   0  0  0  0  0  0  0  0  0  0  0  0
   19.8814   -0.5451  -15.1342 C   0  0  0  0  0  0  0  0  0  0  0  0
   19.7063   -0.3782  -13.9009 O   0  0  0  0  0  0  0  0  0  0  0  0
   20.5823    0.4687  -15.7915 O   0  0  0  0  0  0  0  0  0  0  0  0
  1  2  1  0
  2  4  1  0
  3  2  2  0
  4  5  1  0
  5  6  1  0
  6  7  1  1
  8  6  1  0
  8 10  1  0
  9  8  2  0
 11 10  1  0
 11 14  1  0
 11 12  1  1
 13 12  1  0
 14 15  2  0
 16 14  1  0
 16 17  1  0
 17 23  1  0
 17 18  1  1
 19 18  1  0
 20 19  1  0
 21 22  1  0
 21 20  1  0
 23 25  1  0
 24 23  2  0
M  END
$$$$
