QCK.pdb
     RDKit          3D

 25 24  0  0  1  0  0  0  0  0999 V2000
   25.9511  -21.3607  -14.6008 N   0  0  0  0  0  0  0  0  0  0  0  0
   24.6729  -22.0337  -14.5671 C   0  0  0  0  0  0  0  0  0  0  0  0
   24.7464  -23.2791  -14.6755 O   0  0  0  0  0  0  0  0  0  0  0  0
   23.4313  -21.2787  -14.4147 C   0  0  0  0  0  0  0  0  0  0  0  0
   23.5120  -19.8119  -14.3911 C   0  0  0  0  0  0  0  0  0  0  0  0
   23.4750  -19.0426  -15.6414 C   0  0  2  0  0  0  0  0  0  0  0  0
   24.3490  -19.5590  -16.6321 N   0  0  0  0  0  0  0  0  0  0  0  0
   23.5520  -17.5810  -15.4882 C   0  0  0  0  0  0  0  0  0  0  0  0
   22.7935  -16.9581  -14.6942 O   0  0  0  0  0  0  0  0  0  0  0  0
   24.4815  -16.8108  -16.2275 N   0  0  0  0  0  0  0  0  0  0  0  0
   24.5458  -15.3614  -15.9909 C   0  0  1  0  0  0  0  0  0  0  0  0
   25.9897  -14.9333  -16.1965 C   0  0  0  0  0  0  0  0  0  0  0  0
   27.1247  -15.7976  -15.1001 S   0  0  0  0  0  0  0  0  0  0  0  0
   23.7432  -14.6330  -17.0174 C   0  0  0  0  0  0  0  0  0  0  0  0
   23.6559  -15.0169  -18.1981 O   0  0  0  0  0  0  0  0  0  0  0  0
   23.0646  -13.4706  -16.6235 N   0  0  0  0  0  0  0  0  0  0  0  0
   22.2014  -12.6936  -17.4906 C   0  0  1  0  0  0  0  0  0  0  0  0
   20.7777  -12.9206  -17.0870 C   0  0  0  0  0  0  0  0  0  0  0  0
   19.7597  -12.1643  -17.8502 C   0  0  0  0  0  0  0  0  0  0  0  0
   18.3381  -12.3812  -17.4824 C   0  0  0  0  0  0  0  0  0  0  0  0
   17.3236  -11.7713  -18.3873 C   0  0  0  0  0  0  0  0  0  0  0  0
   15.9725  -11.7735  -17.8859 N   0  0  0  0  0  0  0  0  0  0  0  0
   22.5817  -11.2703  -17.5225 C   0  0  0  0  0  0  0  0  0  0  0  0
   23.0632  -10.7010  -16.5108 O   0  0  0  0  0  0  0  0  0  0  0  0
   22.4359  -10.4706  -18.6584 O   0  0  0  0  0  0  0  0  0  0  0  0
  1  2  1  0
  2  4  1  0
  3  2  2  0
  4  5  1  0
  5  6  1  0
  6  7  1  6
  8  6  1  0
  8 10  1  0
  9  8  2  0
 11 10  1  0
 11 14  1  0
 11 12  1  6
 13 12  1  0
 14 15  2  0
 16 14  1  0
 16 17  1  0
 17 23  1  0
 17 18  1  1
 19 18  1  0
 20 19  1  0
 21 22  1  0
 21 20  1  0
 23 25  1  0
 24 23  2  0
M  END
$$$$
