QCK.pdb
     RDKit          3D

 25 24  0  0  1  0  0  0  0  0999 V2000
   17.4943  -24.6865  -11.4672 N   0  0  0  0  0  0  0  0  0  0  0  0
   17.6844  -23.3872  -10.8641 C   0  0  0  0  0  0  0  0  0  0  0  0
   18.0194  -23.4260   -9.6581 O   0  0  0  0  0  0  0  0  0  0  0  0
   17.4922  -22.1644  -11.6404 C   0  0  0  0  0  0  0  0  0  0  0  0
   18.6518  -21.2857  -11.8454 C   0  0  0  0  0  0  0  0  0  0  0  0
   19.6668  -21.6132  -12.8548 C   0  0  2  0  0  0  0  0  0  0  0  0
   20.0367  -22.9826  -12.8399 N   0  0  0  0  0  0  0  0  0  0  0  0
   20.8121  -20.6918  -12.9235 C   0  0  0  0  0  0  0  0  0  0  0  0
   20.6525  -19.4403  -12.9700 O   0  0  0  0  0  0  0  0  0  0  0  0
   22.1437  -21.1717  -12.9415 N   0  0  0  0  0  0  0  0  0  0  0  0
   23.2415  -20.2063  -13.0952 C   0  0  1  0  0  0  0  0  0  0  0  0
   24.4403  -20.7611  -12.3432 C   0  0  0  0  0  0  0  0  0  0  0  0
   24.1472  -20.8738  -10.5716 S   0  0  0  0  0  0  0  0  0  0  0  0
   23.6524  -20.1128  -14.5272 C   0  0  0  0  0  0  0  0  0  0  0  0
   23.8622  -21.1167  -15.2325 O   0  0  0  0  0  0  0  0  0  0  0  0
   23.8049  -18.8372  -15.0895 N   0  0  0  0  0  0  0  0  0  0  0  0
   24.1652  -18.5900  -16.4715 C   0  0  1  0  0  0  0  0  0  0  0  0
   23.8137  -17.1768  -16.8188 C   0  0  0  0  0  0  0  0  0  0  0  0
   24.1063  -16.7594  -18.2083 C   0  0  0  0  0  0  0  0  0  0  0  0
   23.7118  -15.3829  -18.5993 C   0  0  0  0  0  0  0  0  0  0  0  0
   24.0614  -14.9669  -19.9868 C   0  0  0  0  0  0  0  0  0  0  0  0
   23.5750  -13.6686  -20.3800 N   0  0  0  0  0  0  0  0  0  0  0  0
   25.5725  -18.9287  -16.7479 C   0  0  0  0  0  0  0  0  0  0  0  0
   26.4825  -18.6570  -15.9248 O   0  0  0  0  0  0  0  0  0  0  0  0
   25.9842  -19.5634  -17.9220 O   0  0  0  0  0  0  0  0  0  0  0  0
  1  2  1  0
  2  4  1  0
  3  2  2  0
  4  5  1  0
  5  6  1  0
  6  7  1  1
  8  6  1  0
  8 10  1  0
  9  8  2  0
 11 10  1  0
 11 14  1  0
 11 12  1  1
 13 12  1  0
 14 15  2  0
 16 14  1  0
 16 17  1  0
 17 23  1  0
 17 18  1  1
 19 18  1  0
 20 19  1  0
 21 22  1  0
 21 20  1  0
 23 25  1  0
 24 23  2  0
M  END
$$$$
