TCW.pdb
     RDKit          3D

 28 29  0  0  1  0  0  0  0  0999 V2000
   26.0376  -16.3435  -14.4641 C   0  0  0  0  0  0  0  0  0  0  0  0
   26.3865  -17.6050  -13.7361 C   0  0  1  0  0  0  0  0  0  0  0  0
   25.3284  -18.2266  -13.1174 O   0  0  0  0  0  0  0  0  0  0  0  0
   26.9983  -18.5825  -14.7295 C   0  0  2  0  0  0  0  0  0  0  0  0
   26.0582  -18.8895  -15.7812 N   0  0  0  0  0  0  0  0  0  0  0  0
   27.4658  -19.8266  -14.0453 C   0  0  0  0  0  0  0  0  0  0  0  0
   26.8939  -20.9265  -14.2565 O   0  0  0  0  0  0  0  0  0  0  0  0
   28.5563  -19.8413  -13.1387 N   0  0  0  0  0  0  0  0  0  0  0  0
   28.8924  -21.0123  -12.3363 C   0  0  1  0  0  0  0  0  0  0  0  0
   30.0713  -20.6657  -11.4822 C   0  0  0  0  0  0  0  0  0  0  0  0
   30.5840  -22.0510  -10.4618 S   0  0  0  0  0  0  0  0  0  0  0  0
   27.7284  -21.5158  -11.6048 C   0  0  0  0  0  0  0  0  0  0  0  0
   27.6178  -22.7770  -11.4703 O   0  0  0  0  0  0  0  0  0  0  0  0
   26.7130  -20.6870  -11.0353 N   0  0  0  0  0  0  0  0  0  0  0  0
   25.7210  -21.2378  -10.1510 C   0  0  1  0  0  0  0  0  0  0  0  0
   26.1299  -21.4394   -8.7436 C   0  0  0  0  0  0  0  0  0  0  0  0
   26.5674  -20.2651   -7.9985 C   0  0  0  0  0  0  0  0  0  0  0  0
   26.4080  -18.9205   -8.3402 C   0  0  0  0  0  0  0  0  0  0  0  0
   26.9663  -18.1534   -7.3964 N   0  0  0  0  0  0  0  0  0  0  0  0
   27.5060  -18.9326   -6.4132 C   0  0  0  0  0  0  0  0  0  0  0  0
   28.1679  -18.6097   -5.2562 C   0  0  0  0  0  0  0  0  0  0  0  0
   28.6107  -19.5936   -4.4208 C   0  0  0  0  0  0  0  0  0  0  0  0
   28.3806  -20.9081   -4.7610 C   0  0  0  0  0  0  0  0  0  0  0  0
   27.7152  -21.2063   -5.9257 C   0  0  0  0  0  0  0  0  0  0  0  0
   27.2475  -20.2367   -6.8059 C   0  0  0  0  0  0  0  0  0  0  0  0
   24.4515  -20.4781  -10.2992 C   0  0  0  0  0  0  0  0  0  0  0  0
   23.2792  -20.9064   -9.6954 O   0  0  0  0  0  0  0  0  0  0  0  0
   24.4018  -19.4208  -10.9786 O   0  0  0  0  0  0  0  0  0  0  0  0
  2  1  1  6
  2  4  1  0
  3  2  1  0
  4  5  1  6
  6  4  1  0
  7  6  2  0
  8  6  1  0
  9 12  1  0
  9  8  1  0
  9 10  1  1
 11 10  1  0
 12 14  1  0
 13 12  2  0
 14 15  1  0
 15 26  1  0
 15 16  1  1
 17 25  1  0
 17 16  1  0
 18 17  2  0
 19 18  1  0
 19 20  1  0
 20 25  2  0
 21 20  1  0
 21 22  2  0
 22 23  1  0
 23 24  2  0
 25 24  1  0
 26 28  2  0
 26 27  1  0
M  END
$$$$
