TCW.pdb
     RDKit          3D

 28 29  0  0  1  0  0  0  0  0999 V2000
   17.4952   -9.5178  -18.5268 C   0  0  0  0  0  0  0  0  0  0  0  0
   16.0304   -9.3734  -18.8039 C   0  0  1  0  0  0  0  0  0  0  0  0
   15.5434  -10.2034  -19.7851 O   0  0  0  0  0  0  0  0  0  0  0  0
   15.2656   -9.6557  -17.5187 C   0  0  2  0  0  0  0  0  0  0  0  0
   13.8492   -9.4618  -17.7200 N   0  0  0  0  0  0  0  0  0  0  0  0
   15.7698   -8.8111  -16.3931 C   0  0  0  0  0  0  0  0  0  0  0  0
   15.4111   -7.6109  -16.2832 O   0  0  0  0  0  0  0  0  0  0  0  0
   16.6616   -9.3007  -15.4050 N   0  0  0  0  0  0  0  0  0  0  0  0
   17.2161   -8.4487  -14.3588 C   0  0  1  0  0  0  0  0  0  0  0  0
   16.8229   -9.0253  -13.0349 C   0  0  0  0  0  0  0  0  0  0  0  0
   17.6963   -8.2360  -11.6795 S   0  0  0  0  0  0  0  0  0  0  0  0
   18.6545   -8.2427  -14.5382 C   0  0  0  0  0  0  0  0  0  0  0  0
   19.3315   -9.2061  -15.0226 O   0  0  0  0  0  0  0  0  0  0  0  0
   19.3443   -7.0360  -14.2060 N   0  0  0  0  0  0  0  0  0  0  0  0
   20.7425   -6.8791  -14.5055 C   0  0  1  0  0  0  0  0  0  0  0  0
   21.1569   -7.1706  -15.8954 C   0  0  0  0  0  0  0  0  0  0  0  0
   22.5684   -7.0074  -16.2217 C   0  0  0  0  0  0  0  0  0  0  0  0
   23.5692   -7.9813  -16.2246 C   0  0  0  0  0  0  0  0  0  0  0  0
   24.7348   -7.4190  -16.5654 N   0  0  0  0  0  0  0  0  0  0  0  0
   24.5647   -6.0840  -16.7979 C   0  0  0  0  0  0  0  0  0  0  0  0
   25.4495   -5.1051  -17.1721 C   0  0  0  0  0  0  0  0  0  0  0  0
   25.0197   -3.8223  -17.3497 C   0  0  0  0  0  0  0  0  0  0  0  0
   23.6886   -3.5330  -17.1471 C   0  0  0  0  0  0  0  0  0  0  0  0
   22.8216   -4.5310  -16.7723 C   0  0  0  0  0  0  0  0  0  0  0  0
   23.2158   -5.8505  -16.5796 C   0  0  0  0  0  0  0  0  0  0  0  0
   21.2078   -5.5566  -14.0104 C   0  0  0  0  0  0  0  0  0  0  0  0
   20.4614   -4.4061  -14.2141 O   0  0  0  0  0  0  0  0  0  0  0  0
   22.2956   -5.4404  -13.3898 O   0  0  0  0  0  0  0  0  0  0  0  0
  2  1  1  1
  2  4  1  0
  3  2  1  0
  4  5  1  6
  6  4  1  0
  7  6  2  0
  8  6  1  0
  9 12  1  0
  9  8  1  0
  9 10  1  1
 11 10  1  0
 12 14  1  0
 13 12  2  0
 14 15  1  0
 15 26  1  0
 15 16  1  6
 17 25  1  0
 17 16  1  0
 18 17  2  0
 19 18  1  0
 19 20  1  0
 20 25  2  0
 21 20  1  0
 21 22  2  0
 22 23  1  0
 23 24  2  0
 25 24  1  0
 26 28  2  0
 26 27  1  0
M  END
$$$$
