TCW.pdb
     RDKit          3D

 28 29  0  0  1  0  0  0  0  0999 V2000
   28.8577  -23.1424  -17.1034 C   0  0  0  0  0  0  0  0  0  0  0  0
   28.4772  -22.4333  -15.8403 C   0  0  1  0  0  0  0  0  0  0  0  0
   29.5313  -21.9044  -15.1346 O   0  0  0  0  0  0  0  0  0  0  0  0
   27.5228  -21.3007  -16.1909 C   0  0  2  0  0  0  0  0  0  0  0  0
   28.0605  -20.5007  -17.2657 N   0  0  0  0  0  0  0  0  0  0  0  0
   27.2196  -20.4592  -14.9932 C   0  0  0  0  0  0  0  0  0  0  0  0
   27.5125  -19.2364  -14.9796 O   0  0  0  0  0  0  0  0  0  0  0  0
   26.5981  -20.9767  -13.8282 N   0  0  0  0  0  0  0  0  0  0  0  0
   25.9695  -20.1196  -12.8291 C   0  0  1  0  0  0  0  0  0  0  0  0
   24.9243  -19.2976  -13.5156 C   0  0  0  0  0  0  0  0  0  0  0  0
   23.7461  -18.6096  -12.3487 S   0  0  0  0  0  0  0  0  0  0  0  0
   25.4901  -20.8924  -11.6816 C   0  0  0  0  0  0  0  0  0  0  0  0
   24.6869  -21.8528  -11.9126 O   0  0  0  0  0  0  0  0  0  0  0  0
   25.8635  -20.6390  -10.3257 N   0  0  0  0  0  0  0  0  0  0  0  0
   25.4466  -21.5211   -9.2685 C   0  0  1  0  0  0  0  0  0  0  0  0
   26.3725  -21.6634   -8.1236 C   0  0  0  0  0  0  0  0  0  0  0  0
   26.8797  -20.4390   -7.5162 C   0  0  0  0  0  0  0  0  0  0  0  0
   26.5856  -19.1192   -7.8654 C   0  0  0  0  0  0  0  0  0  0  0  0
   27.2712  -18.2869   -7.0729 N   0  0  0  0  0  0  0  0  0  0  0  0
   28.0298  -18.9970   -6.1865 C   0  0  0  0  0  0  0  0  0  0  0  0
   28.8816  -18.5940   -5.1901 C   0  0  0  0  0  0  0  0  0  0  0  0
   29.5280  -19.5192   -4.4232 C   0  0  0  0  0  0  0  0  0  0  0  0
   29.3088  -20.8565   -4.6688 C   0  0  0  0  0  0  0  0  0  0  0  0
   28.4507  -21.2353   -5.6730 C   0  0  0  0  0  0  0  0  0  0  0  0
   27.7721  -20.3275   -6.4785 C   0  0  0  0  0  0  0  0  0  0  0  0
   24.0531  -21.1893   -8.8698 C   0  0  0  0  0  0  0  0  0  0  0  0
   23.3397  -21.9977   -7.9982 O   0  0  0  0  0  0  0  0  0  0  0  0
   23.4771  -20.1623   -9.3121 O   0  0  0  0  0  0  0  0  0  0  0  0
  2  1  1  6
  2  4  1  0
  3  2  1  0
  4  5  1  6
  6  4  1  0
  7  6  2  0
  8  6  1  0
  9 12  1  0
  9  8  1  0
  9 10  1  6
 11 10  1  0
 12 14  1  0
 13 12  2  0
 14 15  1  0
 15 26  1  0
 15 16  1  1
 17 25  1  0
 17 16  1  0
 18 17  2  0
 19 18  1  0
 19 20  1  0
 20 25  2  0
 21 20  1  0
 21 22  2  0
 22 23  1  0
 23 24  2  0
 25 24  1  0
 26 28  2  0
 26 27  1  0
M  END
$$$$
