TCW.pdb
     RDKit          3D

 28 29  0  0  1  0  0  0  0  0999 V2000
   28.4319  -19.9862  -14.6459 C   0  0  0  0  0  0  0  0  0  0  0  0
   27.5647  -20.9449  -15.4022 C   0  0  1  0  0  0  0  0  0  0  0  0
   27.3763  -22.1606  -14.7895 O   0  0  0  0  0  0  0  0  0  0  0  0
   26.2016  -20.3011  -15.6119 C   0  0  2  0  0  0  0  0  0  0  0  0
   26.3199  -19.1248  -16.4404 N   0  0  0  0  0  0  0  0  0  0  0  0
   25.5506  -19.9765  -14.3060 C   0  0  0  0  0  0  0  0  0  0  0  0
   25.6840  -18.8375  -13.7903 O   0  0  0  0  0  0  0  0  0  0  0  0
   24.7621  -20.9110  -13.5874 N   0  0  0  0  0  0  0  0  0  0  0  0
   24.1715  -20.6037  -12.2895 C   0  0  1  0  0  0  0  0  0  0  0  0
   22.7952  -21.1904  -12.2562 C   0  0  0  0  0  0  0  0  0  0  0  0
   21.5605  -20.0242  -12.8383 S   0  0  0  0  0  0  0  0  0  0  0  0
   25.0443  -21.0173  -11.1892 C   0  0  0  0  0  0  0  0  0  0  0  0
   26.1430  -21.5855  -11.4908 O   0  0  0  0  0  0  0  0  0  0  0  0
   24.7438  -20.8258   -9.8053 N   0  0  0  0  0  0  0  0  0  0  0  0
   25.7495  -21.0288   -8.7969 C   0  0  1  0  0  0  0  0  0  0  0  0
   26.9898  -20.2339   -8.9318 C   0  0  0  0  0  0  0  0  0  0  0  0
   28.0589  -20.4932   -7.9752 C   0  0  0  0  0  0  0  0  0  0  0  0
   29.1489  -21.3548   -8.1154 C   0  0  0  0  0  0  0  0  0  0  0  0
   29.8905  -21.3174   -7.0020 N   0  0  0  0  0  0  0  0  0  0  0  0
   29.3415  -20.4532   -6.0981 C   0  0  0  0  0  0  0  0  0  0  0  0
   29.7361  -20.0817   -4.8382 C   0  0  0  0  0  0  0  0  0  0  0  0
   29.0032  -19.1759   -4.1282 C   0  0  0  0  0  0  0  0  0  0  0  0
   27.8672  -18.6461   -4.6988 C   0  0  0  0  0  0  0  0  0  0  0  0
   27.4925  -19.0342   -5.9626 C   0  0  0  0  0  0  0  0  0  0  0  0
   28.2083  -19.9538   -6.7212 C   0  0  0  0  0  0  0  0  0  0  0  0
   25.1249  -20.9342   -7.4510 C   0  0  0  0  0  0  0  0  0  0  0  0
   25.5116  -21.7707   -6.4151 O   0  0  0  0  0  0  0  0  0  0  0  0
   24.2241  -20.0900   -7.2099 O   0  0  0  0  0  0  0  0  0  0  0  0
  2  1  1  1
  2  4  1  0
  3  2  1  0
  4  5  1  6
  6  4  1  0
  7  6  2  0
  8  6  1  0
  9 12  1  0
  9  8  1  0
  9 10  1  1
 11 10  1  0
 12 14  1  0
 13 12  2  0
 14 15  1  0
 15 26  1  0
 15 16  1  1
 17 25  1  0
 17 16  1  0
 18 17  2  0
 19 18  1  0
 19 20  1  0
 20 25  2  0
 21 20  1  0
 21 22  2  0
 22 23  1  0
 23 24  2  0
 25 24  1  0
 26 28  2  0
 26 27  1  0
M  END
$$$$
