TCW.pdb
     RDKit          3D

 28 29  0  0  1  0  0  0  0  0999 V2000
   28.5077  -16.1541  -16.4944 C   0  0  0  0  0  0  0  0  0  0  0  0
   27.6012  -17.2926  -16.1407 C   0  0  1  0  0  0  0  0  0  0  0  0
   26.2814  -16.9489  -15.9705 O   0  0  0  0  0  0  0  0  0  0  0  0
   27.6827  -18.3362  -17.2455 C   0  0  2  0  0  0  0  0  0  0  0  0
   27.2355  -17.7802  -18.5005 N   0  0  0  0  0  0  0  0  0  0  0  0
   26.9023  -19.5608  -16.8908 C   0  0  0  0  0  0  0  0  0  0  0  0
   25.7321  -19.7212  -17.3224 O   0  0  0  0  0  0  0  0  0  0  0  0
   27.4220  -20.5909  -16.0661 N   0  0  0  0  0  0  0  0  0  0  0  0
   26.6225  -21.7363  -15.6455 C   0  0  1  0  0  0  0  0  0  0  0  0
   27.3597  -22.9812  -16.0279 C   0  0  0  0  0  0  0  0  0  0  0  0
   29.0108  -23.0197  -15.3238 S   0  0  0  0  0  0  0  0  0  0  0  0
   26.2565  -21.6470  -14.2307 C   0  0  0  0  0  0  0  0  0  0  0  0
   27.1841  -21.7981  -13.3718 O   0  0  0  0  0  0  0  0  0  0  0  0
   24.9317  -21.4028  -13.7540 N   0  0  0  0  0  0  0  0  0  0  0  0
   24.6877  -21.1212  -12.3645 C   0  0  1  0  0  0  0  0  0  0  0  0
   25.4514  -20.0003  -11.7739 C   0  0  0  0  0  0  0  0  0  0  0  0
   26.7288  -20.3172  -11.1469 C   0  0  0  0  0  0  0  0  0  0  0  0
   27.9128  -20.7258  -11.7645 C   0  0  0  0  0  0  0  0  0  0  0  0
   28.8513  -20.9317  -10.8330 N   0  0  0  0  0  0  0  0  0  0  0  0
   28.3467  -20.6758   -9.5900 C   0  0  0  0  0  0  0  0  0  0  0  0
   28.9180  -20.7391   -8.3448 C   0  0  0  0  0  0  0  0  0  0  0  0
   28.1880  -20.4198   -7.2371 C   0  0  0  0  0  0  0  0  0  0  0  0
   26.8749  -20.0352   -7.3943 C   0  0  0  0  0  0  0  0  0  0  0  0
   26.3250  -19.9797   -8.6524 C   0  0  0  0  0  0  0  0  0  0  0  0
   27.0311  -20.2966   -9.8075 C   0  0  0  0  0  0  0  0  0  0  0  0
   23.2223  -21.0329  -12.1289 C   0  0  0  0  0  0  0  0  0  0  0  0
   22.7042  -20.8837  -10.8515 O   0  0  0  0  0  0  0  0  0  0  0  0
   22.4053  -21.0909  -13.0835 O   0  0  0  0  0  0  0  0  0  0  0  0
  2  1  1  6
  2  4  1  0
  3  2  1  0
  4  5  1  6
  6  4  1  0
  7  6  2  0
  8  6  1  0
  9 12  1  0
  9  8  1  0
  9 10  1  1
 11 10  1  0
 12 14  1  0
 13 12  2  0
 14 15  1  0
 15 26  1  0
 15 16  1  6
 17 25  1  0
 17 16  1  0
 18 17  2  0
 19 18  1  0
 19 20  1  0
 20 25  2  0
 21 20  1  0
 21 22  2  0
 22 23  1  0
 23 24  2  0
 25 24  1  0
 26 28  2  0
 26 27  1  0
M  END
$$$$
