TCW.pdb
     RDKit          3D

 28 29  0  0  1  0  0  0  0  0999 V2000
   26.4273  -18.4118  -14.7767 C   0  0  0  0  0  0  0  0  0  0  0  0
   26.8507  -19.4327  -15.7875 C   0  0  1  0  0  0  0  0  0  0  0  0
   27.6566  -18.9519  -16.7916 O   0  0  0  0  0  0  0  0  0  0  0  0
   27.5999  -20.5442  -15.0667 C   0  0  2  0  0  0  0  0  0  0  0  0
   28.0299  -21.5546  -16.0040 N   0  0  0  0  0  0  0  0  0  0  0  0
   26.7668  -21.1397  -13.9778 C   0  0  0  0  0  0  0  0  0  0  0  0
   25.9427  -22.0552  -14.2306 O   0  0  0  0  0  0  0  0  0  0  0  0
   26.8536  -20.7183  -12.6264 N   0  0  0  0  0  0  0  0  0  0  0  0
   25.9330  -21.1902  -11.5979 C   0  0  1  0  0  0  0  0  0  0  0  0
   26.6467  -21.1490  -10.2832 C   0  0  0  0  0  0  0  0  0  0  0  0
   25.5063  -21.2777   -8.9026 S   0  0  0  0  0  0  0  0  0  0  0  0
   24.6650  -20.4592  -11.6338 C   0  0  0  0  0  0  0  0  0  0  0  0
   24.7191  -19.1875  -11.6636 O   0  0  0  0  0  0  0  0  0  0  0  0
   23.3769  -21.0780  -11.6370 N   0  0  0  0  0  0  0  0  0  0  0  0
   22.1779  -20.2856  -11.6994 C   0  0  1  0  0  0  0  0  0  0  0  0
   22.0835  -19.3172  -12.8138 C   0  0  0  0  0  0  0  0  0  0  0  0
   21.6911  -19.8345  -14.1191 C   0  0  0  0  0  0  0  0  0  0  0  0
   20.4144  -20.1991  -14.5519 C   0  0  0  0  0  0  0  0  0  0  0  0
   20.4827  -20.6422  -15.8128 N   0  0  0  0  0  0  0  0  0  0  0  0
   21.7718  -20.5926  -16.2613 C   0  0  0  0  0  0  0  0  0  0  0  0
   22.3295  -20.9301  -17.4679 C   0  0  0  0  0  0  0  0  0  0  0  0
   23.6700  -20.7772  -17.6717 C   0  0  0  0  0  0  0  0  0  0  0  0
   24.4458  -20.2803  -16.6480 C   0  0  0  0  0  0  0  0  0  0  0  0
   23.8637  -19.9493  -15.4481 C   0  0  0  0  0  0  0  0  0  0  0  0
   22.5033  -20.0892  -15.1966 C   0  0  0  0  0  0  0  0  0  0  0  0
   20.9921  -21.1747  -11.5811 C   0  0  0  0  0  0  0  0  0  0  0  0
   19.7206  -20.6595  -11.3808 O   0  0  0  0  0  0  0  0  0  0  0  0
   21.1062  -22.4249  -11.6594 O   0  0  0  0  0  0  0  0  0  0  0  0
  2  1  1  1
  2  4  1  0
  3  2  1  0
  4  5  1  6
  6  4  1  0
  7  6  2  0
  8  6  1  0
  9 12  1  0
  9  8  1  0
  9 10  1  1
 11 10  1  0
 12 14  1  0
 13 12  2  0
 14 15  1  0
 15 26  1  0
 15 16  1  6
 17 25  1  0
 17 16  1  0
 18 17  2  0
 19 18  1  0
 19 20  1  0
 20 25  2  0
 21 20  1  0
 21 22  2  0
 22 23  1  0
 23 24  2  0
 25 24  1  0
 26 28  2  0
 26 27  1  0
M  END
$$$$
