TCW.pdb
     RDKit          3D

 28 29  0  0  1  0  0  0  0  0999 V2000
   25.5694  -20.5604   -8.8493 C   0  0  0  0  0  0  0  0  0  0  0  0
   25.2261  -20.5419  -10.3069 C   0  0  1  0  0  0  0  0  0  0  0  0
   25.4019  -19.3278  -10.9266 O   0  0  0  0  0  0  0  0  0  0  0  0
   26.0921  -21.5703  -11.0202 C   0  0  2  0  0  0  0  0  0  0  0  0
   27.4898  -21.2344  -10.8867 N   0  0  0  0  0  0  0  0  0  0  0  0
   25.7045  -21.6993  -12.4582 C   0  0  0  0  0  0  0  0  0  0  0  0
   26.5208  -22.1476  -13.3031 O   0  0  0  0  0  0  0  0  0  0  0  0
   24.4236  -21.3327  -12.9444 N   0  0  0  0  0  0  0  0  0  0  0  0
   24.0378  -21.5020  -14.3410 C   0  0  1  0  0  0  0  0  0  0  0  0
   23.8559  -22.9652  -14.5971 C   0  0  0  0  0  0  0  0  0  0  0  0
   22.5017  -23.6459  -13.6348 S   0  0  0  0  0  0  0  0  0  0  0  0
   22.8850  -20.6681  -14.6860 C   0  0  0  0  0  0  0  0  0  0  0  0
   22.0114  -20.4679  -13.7818 O   0  0  0  0  0  0  0  0  0  0  0  0
   22.6780  -20.0676  -15.9661 N   0  0  0  0  0  0  0  0  0  0  0  0
   21.5554  -19.1991  -16.2008 C   0  0  1  0  0  0  0  0  0  0  0  0
   21.6552  -18.2907  -17.3641 C   0  0  0  0  0  0  0  0  0  0  0  0
   20.5252  -17.4065  -17.6223 C   0  0  0  0  0  0  0  0  0  0  0  0
   20.2101  -16.2043  -16.9854 C   0  0  0  0  0  0  0  0  0  0  0  0
   19.0809  -15.7090  -17.5054 N   0  0  0  0  0  0  0  0  0  0  0  0
   18.6091  -16.5369  -18.4839 C   0  0  0  0  0  0  0  0  0  0  0  0
   17.5056  -16.4525  -19.2939 C   0  0  0  0  0  0  0  0  0  0  0  0
   17.2545  -17.4263  -20.2161 C   0  0  0  0  0  0  0  0  0  0  0  0
   18.1259  -18.4880  -20.3160 C   0  0  0  0  0  0  0  0  0  0  0  0
   19.2246  -18.5502  -19.4931 C   0  0  0  0  0  0  0  0  0  0  0  0
   19.5187  -17.5816  -18.5399 C   0  0  0  0  0  0  0  0  0  0  0  0
   20.3006  -19.9963  -16.1736 C   0  0  0  0  0  0  0  0  0  0  0  0
   19.1434  -19.5014  -15.5921 O   0  0  0  0  0  0  0  0  0  0  0  0
   20.2501  -21.1471  -16.6788 O   0  0  0  0  0  0  0  0  0  0  0  0
  2  1  1  1
  2  4  1  0
  3  2  1  0
  4  5  1  6
  6  4  1  0
  7  6  2  0
  8  6  1  0
  9 12  1  0
  9  8  1  0
  9 10  1  1
 11 10  1  0
 12 14  1  0
 13 12  2  0
 14 15  1  0
 15 26  1  0
 15 16  1  6
 17 25  1  0
 17 16  1  0
 18 17  2  0
 19 18  1  0
 19 20  1  0
 20 25  2  0
 21 20  1  0
 21 22  2  0
 22 23  1  0
 23 24  2  0
 25 24  1  0
 26 28  2  0
 26 27  1  0
M  END
$$$$
