TCW.pdb
     RDKit          3D

 28 29  0  0  1  0  0  0  0  0999 V2000
   31.2524  -23.4380  -17.5514 C   0  0  0  0  0  0  0  0  0  0  0  0
   31.9813  -24.0310  -18.7176 C   0  0  1  0  0  0  0  0  0  0  0  0
   33.3506  -24.0396  -18.5994 O   0  0  0  0  0  0  0  0  0  0  0  0
   31.5104  -25.4665  -18.9024 C   0  0  2  0  0  0  0  0  0  0  0  0
   32.1066  -26.0464  -20.0824 N   0  0  0  0  0  0  0  0  0  0  0  0
   30.0186  -25.5427  -18.9601 C   0  0  0  0  0  0  0  0  0  0  0  0
   29.4146  -25.4372  -20.0579 O   0  0  0  0  0  0  0  0  0  0  0  0
   29.2140  -25.7341  -17.8080 N   0  0  0  0  0  0  0  0  0  0  0  0
   27.7613  -25.8470  -17.8768 C   0  0  1  0  0  0  0  0  0  0  0  0
   27.4135  -27.2995  -17.9702 C   0  0  0  0  0  0  0  0  0  0  0  0
   27.8070  -28.1768  -16.4541 S   0  0  0  0  0  0  0  0  0  0  0  0
   27.1127  -25.1275  -16.7790 C   0  0  0  0  0  0  0  0  0  0  0  0
   27.7710  -24.9843  -15.6986 O   0  0  0  0  0  0  0  0  0  0  0  0
   25.7947  -24.5787  -16.8414 N   0  0  0  0  0  0  0  0  0  0  0  0
   25.2988  -23.7290  -15.7918 C   0  0  1  0  0  0  0  0  0  0  0  0
   26.1402  -22.5674  -15.4297 C   0  0  0  0  0  0  0  0  0  0  0  0
   26.0764  -21.3977  -16.2976 C   0  0  0  0  0  0  0  0  0  0  0  0
   24.9738  -20.5835  -16.5649 C   0  0  0  0  0  0  0  0  0  0  0  0
   25.3287  -19.6248  -17.4286 N   0  0  0  0  0  0  0  0  0  0  0  0
   26.6462  -19.7557  -17.7637 C   0  0  0  0  0  0  0  0  0  0  0  0
   27.4513  -19.0205  -18.5957 C   0  0  0  0  0  0  0  0  0  0  0  0
   28.7629  -19.3598  -18.7585 C   0  0  0  0  0  0  0  0  0  0  0  0
   29.2580  -20.4479  -18.0747 C   0  0  0  0  0  0  0  0  0  0  0  0
   28.4315  -21.1689  -17.2469 C   0  0  0  0  0  0  0  0  0  0  0  0
   27.0899  -20.8596  -17.0519 C   0  0  0  0  0  0  0  0  0  0  0  0
   23.8824  -23.3741  -16.0720 C   0  0  0  0  0  0  0  0  0  0  0  0
   23.0585  -22.8576  -15.0837 O   0  0  0  0  0  0  0  0  0  0  0  0
   23.3867  -23.5319  -17.2172 O   0  0  0  0  0  0  0  0  0  0  0  0
  2  1  1  1
  2  4  1  0
  3  2  1  0
  4  5  1  6
  6  4  1  0
  7  6  2  0
  8  6  1  0
  9 12  1  0
  9  8  1  0
  9 10  1  1
 11 10  1  0
 12 14  1  0
 13 12  2  0
 14 15  1  0
 15 26  1  0
 15 16  1  6
 17 25  1  0
 17 16  1  0
 18 17  2  0
 19 18  1  0
 19 20  1  0
 20 25  2  0
 21 20  1  0
 21 22  2  0
 22 23  1  0
 23 24  2  0
 25 24  1  0
 26 28  2  0
 26 27  1  0
M  END
$$$$
