TCW.pdb
     RDKit          3D

 28 29  0  0  1  0  0  0  0  0999 V2000
   26.4846  -20.2629   -7.0728 C   0  0  0  0  0  0  0  0  0  0  0  0
   25.9155  -20.2528   -8.4581 C   0  0  1  0  0  0  0  0  0  0  0  0
   26.1466  -19.0997   -9.1693 O   0  0  0  0  0  0  0  0  0  0  0  0
   26.5121  -21.4183   -9.2340 C   0  0  2  0  0  0  0  0  0  0  0  0
   27.9543  -21.3548   -9.2124 N   0  0  0  0  0  0  0  0  0  0  0  0
   25.9959  -21.4547  -10.6364 C   0  0  0  0  0  0  0  0  0  0  0  0
   26.7851  -21.3653  -11.6113 O   0  0  0  0  0  0  0  0  0  0  0  0
   24.6181  -21.5893  -10.9446 N   0  0  0  0  0  0  0  0  0  0  0  0
   24.1142  -21.5535  -12.3131 C   0  0  1  0  0  0  0  0  0  0  0  0
   22.6683  -21.9383  -12.2845 C   0  0  0  0  0  0  0  0  0  0  0  0
   21.7675  -21.0467  -11.0129 S   0  0  0  0  0  0  0  0  0  0  0  0
   24.3976  -20.2700  -12.9578 C   0  0  0  0  0  0  0  0  0  0  0  0
   24.2183  -19.2134  -12.2703 O   0  0  0  0  0  0  0  0  0  0  0  0
   24.8598  -20.1272  -14.3025 N   0  0  0  0  0  0  0  0  0  0  0  0
   25.2368  -18.8390  -14.8202 C   0  0  1  0  0  0  0  0  0  0  0  0
   26.5818  -18.3465  -14.4500 C   0  0  0  0  0  0  0  0  0  0  0  0
   27.0443  -17.1194  -15.0868 C   0  0  0  0  0  0  0  0  0  0  0  0
   26.6358  -15.8091  -14.8289 C   0  0  0  0  0  0  0  0  0  0  0  0
   27.2909  -14.9717  -15.6415 N   0  0  0  0  0  0  0  0  0  0  0  0
   28.1403  -15.6689  -16.4525 C   0  0  0  0  0  0  0  0  0  0  0  0
   29.0105  -15.2563  -17.4289 C   0  0  0  0  0  0  0  0  0  0  0  0
   29.7683  -16.1686  -18.1037 C   0  0  0  0  0  0  0  0  0  0  0  0
   29.6422  -17.5027  -17.7862 C   0  0  0  0  0  0  0  0  0  0  0  0
   28.7633  -17.8914  -16.8040 C   0  0  0  0  0  0  0  0  0  0  0  0
   27.9718  -16.9969  -16.0920 C   0  0  0  0  0  0  0  0  0  0  0  0
   24.9689  -18.7971  -16.2821 C   0  0  0  0  0  0  0  0  0  0  0  0
   24.5902  -17.6222  -16.9132 O   0  0  0  0  0  0  0  0  0  0  0  0
   25.0779  -19.8289  -16.9932 O   0  0  0  0  0  0  0  0  0  0  0  0
  2  1  1  1
  2  4  1  0
  3  2  1  0
  4  5  1  6
  6  4  1  0
  7  6  2  0
  8  6  1  0
  9 12  1  0
  9  8  1  0
  9 10  1  1
 11 10  1  0
 12 14  1  0
 13 12  2  0
 14 15  1  0
 15 26  1  0
 15 16  1  6
 17 25  1  0
 17 16  1  0
 18 17  2  0
 19 18  1  0
 19 20  1  0
 20 25  2  0
 21 20  1  0
 21 22  2  0
 22 23  1  0
 23 24  2  0
 25 24  1  0
 26 28  2  0
 26 27  1  0
M  END
$$$$
