CYT.pdb
     RDKit          3D

 26 26  0  0  1  0  0  0  0  0999 V2000
   28.4317  -23.2069  -16.9850 N   0  0  0  0  0  0  0  0  0  0  0  0
   27.8631  -21.9350  -16.5906 C   0  0  1  0  0  0  0  0  0  0  0  0
   27.0962  -21.3480  -17.7750 C   0  0  0  0  0  0  0  0  0  0  0  0
   28.3688  -20.7693  -18.9530 S   0  0  0  0  0  0  0  0  0  0  0  0
   26.9109  -22.1285  -15.4442 C   0  0  0  0  0  0  0  0  0  0  0  0
   26.3229  -23.2333  -15.3418 O   0  0  0  0  0  0  0  0  0  0  0  0
   23.1859  -20.7287   -7.4590 O   0  0  0  0  0  0  0  0  0  0  0  0
   23.9403  -20.6825   -8.6399 C   0  0  0  0  0  0  0  0  0  0  0  0
   23.4455  -20.0960   -9.7848 C   0  0  0  0  0  0  0  0  0  0  0  0
   24.1782  -20.0446  -10.9523 C   0  0  0  0  0  0  0  0  0  0  0  0
   25.4602  -20.5875  -11.0257 C   0  0  0  0  0  0  0  0  0  0  0  0
   26.2565  -20.5785  -12.2483 C   0  0  0  0  0  0  0  0  0  0  0  0
   25.7567  -21.4190  -13.3849 C   0  0  2  0  0  0  0  0  0  0  0  0
   26.6769  -21.1014  -14.5023 N   0  0  0  0  0  0  0  0  0  0  0  0
   24.4078  -21.0725  -13.8790 C   0  0  0  0  0  0  0  0  0  0  0  0
   24.1945  -19.9811  -14.5219 O   0  0  0  0  0  0  0  0  0  0  0  0
   25.9392  -21.1679   -9.8776 C   0  0  0  0  0  0  0  0  0  0  0  0
   25.2079  -21.2215   -8.7054 C   0  0  0  0  0  0  0  0  0  0  0  0
   22.4434  -22.2544  -16.4967 C   0  0  0  0  0  0  0  0  0  0  0  0
   21.4703  -22.3037  -15.3445 C   0  0  1  0  0  0  0  0  0  0  0  0
   21.3532  -23.6235  -14.9538 O   0  0  0  0  0  0  0  0  0  0  0  0
   21.9479  -21.4254  -14.1894 C   0  0  2  0  0  0  0  0  0  0  0  0
   23.2393  -21.8726  -13.7143 N   0  0  0  0  0  0  0  0  0  0  0  0
   20.9621  -21.3501  -13.1169 C   0  0  0  0  0  0  0  0  0  0  0  0
   21.1884  -21.7323  -11.9503 O   0  0  0  0  0  0  0  0  0  0  0  0
   19.6717  -20.8332  -13.3331 O   0  0  0  0  0  0  0  0  0  0  0  0
  2  1  1  6
  3  2  1  0
  3  4  1  0
  5  2  1  0
  5  6  2  0
  7  8  1  0
  8 18  2  0
  9  8  1  0
  9 10  2  0
 10 11  1  0
 11 17  2  0
 11 12  1  0
 13 12  1  1
 13 14  1  0
 14  5  1  0
 15 13  1  0
 16 15  2  0
 18 17  1  0
 20 21  1  0
 20 19  1  6
 22 23  1  1
 22 20  1  0
 23 15  1  0
 24 22  1  0
 25 24  2  0
 26 24  1  0
M  END
$$$$
