CYT.pdb
     RDKit          3D

 26 26  0  0  1  0  0  0  0  0999 V2000
   28.9300  -22.9361  -17.5349 N   0  0  0  0  0  0  0  0  0  0  0  0
   28.4342  -21.6571  -17.0715 C   0  0  1  0  0  0  0  0  0  0  0  0
   27.5639  -21.0389  -18.1651 C   0  0  0  0  0  0  0  0  0  0  0  0
   27.6185  -19.2336  -17.8822 S   0  0  0  0  0  0  0  0  0  0  0  0
   27.6000  -21.8439  -15.8355 C   0  0  0  0  0  0  0  0  0  0  0  0
   26.8699  -22.8628  -15.7612 O   0  0  0  0  0  0  0  0  0  0  0  0
   24.8012  -20.5090   -7.4247 O   0  0  0  0  0  0  0  0  0  0  0  0
   25.4411  -20.5102   -8.6722 C   0  0  0  0  0  0  0  0  0  0  0  0
   25.6664  -21.6822   -9.3618 C   0  0  0  0  0  0  0  0  0  0  0  0
   26.2948  -21.6959  -10.5896 C   0  0  0  0  0  0  0  0  0  0  0  0
   26.7327  -20.5167  -11.1908 C   0  0  0  0  0  0  0  0  0  0  0  0
   27.4259  -20.4908  -12.4743 C   0  0  0  0  0  0  0  0  0  0  0  0
   26.7457  -21.1748  -13.6221 C   0  0  2  0  0  0  0  0  0  0  0  0
   27.6296  -20.9042  -14.7805 N   0  0  0  0  0  0  0  0  0  0  0  0
   25.4292  -20.6179  -13.9967 C   0  0  0  0  0  0  0  0  0  0  0  0
   25.3257  -19.4520  -14.5257 O   0  0  0  0  0  0  0  0  0  0  0  0
   26.5013  -19.3580  -10.4919 C   0  0  0  0  0  0  0  0  0  0  0  0
   25.8717  -19.3400   -9.2610 C   0  0  0  0  0  0  0  0  0  0  0  0
   23.0408  -21.2011  -16.5495 C   0  0  0  0  0  0  0  0  0  0  0  0
   22.2169  -21.2930  -15.2887 C   0  0  1  0  0  0  0  0  0  0  0  0
   22.0013  -22.6324  -15.0282 O   0  0  0  0  0  0  0  0  0  0  0  0
   22.9279  -20.6101  -14.1217 C   0  0  2  0  0  0  0  0  0  0  0  0
   24.1771  -21.2789  -13.8293 N   0  0  0  0  0  0  0  0  0  0  0  0
   22.0707  -20.5051  -12.9461 C   0  0  0  0  0  0  0  0  0  0  0  0
   22.3508  -21.0231  -11.8455 O   0  0  0  0  0  0  0  0  0  0  0  0
   20.8531  -19.8013  -12.9789 O   0  0  0  0  0  0  0  0  0  0  0  0
  2  1  1  6
  3  2  1  0
  3  4  1  0
  5  2  1  0
  5  6  2  0
  7  8  1  0
  8 18  2  0
  9  8  1  0
  9 10  2  0
 10 11  1  0
 11 17  2  0
 11 12  1  0
 13 12  1  1
 13 14  1  0
 14  5  1  0
 15 13  1  0
 16 15  2  0
 18 17  1  0
 20 21  1  0
 20 19  1  6
 22 23  1  1
 22 20  1  0
 23 15  1  0
 24 22  1  0
 25 24  2  0
 26 24  1  0
M  END
$$$$
