CYT.pdb
     RDKit          3D

 26 26  0  0  1  0  0  0  0  0999 V2000
   28.5964  -23.2003  -17.1114 N   0  0  0  0  0  0  0  0  0  0  0  0
   28.1193  -21.8852  -16.7381 C   0  0  1  0  0  0  0  0  0  0  0  0
   27.3938  -21.2655  -17.9319 C   0  0  0  0  0  0  0  0  0  0  0  0
   28.7028  -20.7868  -19.1148 S   0  0  0  0  0  0  0  0  0  0  0  0
   27.1577  -21.9921  -15.5883 C   0  0  0  0  0  0  0  0  0  0  0  0
   26.4418  -23.0206  -15.5076 O   0  0  0  0  0  0  0  0  0  0  0  0
   24.1637  -20.5691   -7.2991 O   0  0  0  0  0  0  0  0  0  0  0  0
   24.8230  -20.5615   -8.5365 C   0  0  0  0  0  0  0  0  0  0  0  0
   26.0647  -21.1394   -8.6913 C   0  0  0  0  0  0  0  0  0  0  0  0
   26.7230  -21.1381   -9.9035 C   0  0  0  0  0  0  0  0  0  0  0  0
   26.1572  -20.5480  -11.0328 C   0  0  0  0  0  0  0  0  0  0  0  0
   26.8322  -20.5008  -12.3254 C   0  0  0  0  0  0  0  0  0  0  0  0
   26.1787  -21.2391  -13.4549 C   0  0  2  0  0  0  0  0  0  0  0  0
   27.0545  -20.9686  -14.6194 N   0  0  0  0  0  0  0  0  0  0  0  0
   24.8440  -20.7394  -13.8455 C   0  0  0  0  0  0  0  0  0  0  0  0
   24.6982  -19.5843  -14.3882 O   0  0  0  0  0  0  0  0  0  0  0  0
   24.9205  -19.9768  -10.8628 C   0  0  0  0  0  0  0  0  0  0  0  0
   24.2574  -19.9760   -9.6495 C   0  0  0  0  0  0  0  0  0  0  0  0
   22.7011  -21.3963  -16.4567 C   0  0  0  0  0  0  0  0  0  0  0  0
   21.7705  -21.5373  -15.2774 C   0  0  1  0  0  0  0  0  0  0  0  0
   21.5778  -22.8873  -15.0573 O   0  0  0  0  0  0  0  0  0  0  0  0
   22.3497  -20.8525  -14.0407 C   0  0  2  0  0  0  0  0  0  0  0  0
   23.6180  -21.4482  -13.6801 N   0  0  0  0  0  0  0  0  0  0  0  0
   21.4071  -20.8472  -12.9276 C   0  0  0  0  0  0  0  0  0  0  0  0
   21.6482  -21.3766  -11.8231 O   0  0  0  0  0  0  0  0  0  0  0  0
   20.1448  -20.2347  -13.0300 O   0  0  0  0  0  0  0  0  0  0  0  0
  2  1  1  6
  3  2  1  0
  3  4  1  0
  5  2  1  0
  5  6  2  0
  7  8  1  0
  8 18  2  0
  9  8  1  0
  9 10  2  0
 10 11  1  0
 11 17  2  0
 11 12  1  0
 13 12  1  1
 13 14  1  0
 14  5  1  0
 15 13  1  0
 16 15  2  0
 18 17  1  0
 20 21  1  0
 20 19  1  6
 22 23  1  1
 22 20  1  0
 23 15  1  0
 24 22  1  0
 25 24  2  0
 26 24  1  0
M  END
$$$$
