CYT.pdb
     RDKit          3D

 26 26  0  0  1  0  0  0  0  0999 V2000
   21.8901  -12.7447  -17.6272 N   0  0  0  0  0  0  0  0  0  0  0  0
   20.5640  -12.1689  -17.5473 C   0  0  1  0  0  0  0  0  0  0  0  0
   19.5663  -13.2725  -17.1981 C   0  0  0  0  0  0  0  0  0  0  0  0
   17.9393  -12.4488  -17.0694 S   0  0  0  0  0  0  0  0  0  0  0  0
   20.5212  -11.1186  -16.4734 C   0  0  0  0  0  0  0  0  0  0  0  0
   21.0072  -11.3991  -15.3500 O   0  0  0  0  0  0  0  0  0  0  0  0
   22.5007   -3.0731  -13.9430 O   0  0  0  0  0  0  0  0  0  0  0  0
   22.2307   -4.3904  -14.3402 C   0  0  0  0  0  0  0  0  0  0  0  0
   21.8884   -5.3604  -13.4227 C   0  0  0  0  0  0  0  0  0  0  0  0
   21.6206   -6.6595  -13.8014 C   0  0  0  0  0  0  0  0  0  0  0  0
   21.6850   -7.0507  -15.1380 C   0  0  0  0  0  0  0  0  0  0  0  0
   21.4365   -8.4199  -15.5764 C   0  0  0  0  0  0  0  0  0  0  0  0
   20.0074   -8.8729  -15.5963 C   0  0  2  0  0  0  0  0  0  0  0  0
   19.9517   -9.8474  -16.7114 N   0  0  0  0  0  0  0  0  0  0  0  0
   19.0202   -7.8285  -15.9404 C   0  0  0  0  0  0  0  0  0  0  0  0
   18.9378   -7.3574  -17.1326 O   0  0  0  0  0  0  0  0  0  0  0  0
   22.0271   -6.0737  -16.0396 C   0  0  0  0  0  0  0  0  0  0  0  0
   22.2962   -4.7705  -15.6641 C   0  0  0  0  0  0  0  0  0  0  0  0
   15.3283   -7.6581  -16.1238 C   0  0  0  0  0  0  0  0  0  0  0  0
   15.7517   -6.5360  -15.2082 C   0  0  1  0  0  0  0  0  0  0  0  0
   15.5422   -6.9563  -13.9091 O   0  0  0  0  0  0  0  0  0  0  0  0
   17.2155   -6.1656  -15.4404 C   0  0  2  0  0  0  0  0  0  0  0  0
   18.0822   -7.2510  -15.0352 N   0  0  0  0  0  0  0  0  0  0  0  0
   17.5694   -4.9070  -14.7937 C   0  0  0  0  0  0  0  0  0  0  0  0
   18.3819   -4.8267  -13.8494 O   0  0  0  0  0  0  0  0  0  0  0  0
   17.0080   -3.6829  -15.2003 O   0  0  0  0  0  0  0  0  0  0  0  0
  2  1  1  1
  3  2  1  0
  3  4  1  0
  5  2  1  0
  5  6  2  0
  7  8  1  0
  8 18  2  0
  9  8  1  0
  9 10  2  0
 10 11  1  0
 11 17  2  0
 11 12  1  0
 13 12  1  6
 13 14  1  0
 14  5  1  0
 15 13  1  0
 16 15  2  0
 18 17  1  0
 20 21  1  0
 20 19  1  6
 22 23  1  1
 22 20  1  0
 23 15  1  0
 24 22  1  0
 25 24  2  0
 26 24  1  0
M  END
$$$$
