CYT.pdb
     RDKit          3D

 26 26  0  0  1  0  0  0  0  0999 V2000
   25.5503  -13.5106  -16.8301 N   0  0  0  0  0  0  0  0  0  0  0  0
   24.2560  -13.0961  -17.3297 C   0  0  1  0  0  0  0  0  0  0  0  0
   23.3578  -14.3262  -17.4552 C   0  0  0  0  0  0  0  0  0  0  0  0
   24.2150  -15.4511  -18.6136 S   0  0  0  0  0  0  0  0  0  0  0  0
   23.6200  -12.1267  -16.3737 C   0  0  0  0  0  0  0  0  0  0  0  0
   23.9349  -12.1976  -15.1601 O   0  0  0  0  0  0  0  0  0  0  0  0
   22.3537   -4.0366  -13.6955 O   0  0  0  0  0  0  0  0  0  0  0  0
   22.5933   -5.3479  -14.1301 C   0  0  0  0  0  0  0  0  0  0  0  0
   22.3897   -6.4279  -13.2983 C   0  0  0  0  0  0  0  0  0  0  0  0
   22.6219   -7.7222  -13.7145 C   0  0  0  0  0  0  0  0  0  0  0  0
   23.0759   -7.9965  -15.0039 C   0  0  0  0  0  0  0  0  0  0  0  0
   23.3601   -9.3482  -15.4738 C   0  0  0  0  0  0  0  0  0  0  0  0
   22.1783  -10.2109  -15.8011 C   0  0  2  0  0  0  0  0  0  0  0  0
   22.6920  -11.1582  -16.8185 N   0  0  0  0  0  0  0  0  0  0  0  0
   21.0499   -9.5130  -16.4517 C   0  0  0  0  0  0  0  0  0  0  0  0
   21.1369   -9.0907  -17.6616 O   0  0  0  0  0  0  0  0  0  0  0  0
   23.2740   -6.9109  -15.8204 C   0  0  0  0  0  0  0  0  0  0  0  0
   23.0423   -5.6119  -15.4069 C   0  0  0  0  0  0  0  0  0  0  0  0
   17.4773  -10.6617  -17.0447 C   0  0  0  0  0  0  0  0  0  0  0  0
   17.4107   -9.2949  -16.4092 C   0  0  1  0  0  0  0  0  0  0  0  0
   17.0894   -9.4696  -15.0771 O   0  0  0  0  0  0  0  0  0  0  0  0
   18.7385   -8.5555  -16.5654 C   0  0  2  0  0  0  0  0  0  0  0  0
   19.7881   -9.2433  -15.8452 N   0  0  0  0  0  0  0  0  0  0  0  0
   18.6316   -7.1534  -16.1778 C   0  0  0  0  0  0  0  0  0  0  0  0
   19.2308   -6.6661  -15.1971 O   0  0  0  0  0  0  0  0  0  0  0  0
   17.8327   -6.2459  -16.8970 O   0  0  0  0  0  0  0  0  0  0  0  0
  2  1  1  1
  3  2  1  0
  3  4  1  0
  5  2  1  0
  5  6  2  0
  7  8  1  0
  8 18  2  0
  9  8  1  0
  9 10  2  0
 10 11  1  0
 11 17  2  0
 11 12  1  0
 13 12  1  6
 13 14  1  0
 14  5  1  0
 15 13  1  0
 16 15  2  0
 18 17  1  0
 20 21  1  0
 20 19  1  1
 22 23  1  1
 22 20  1  0
 23 15  1  0
 24 22  1  0
 25 24  2  0
 26 24  1  0
M  END
$$$$
