CYT.pdb
     RDKit          3D

 26 26  0  0  1  0  0  0  0  0999 V2000
   28.5262  -20.4236  -17.5368 N   0  0  0  0  0  0  0  0  0  0  0  0
   27.5075  -21.1736  -16.8322 C   0  0  1  0  0  0  0  0  0  0  0  0
   28.1629  -21.9370  -15.6819 C   0  0  0  0  0  0  0  0  0  0  0  0
   28.8251  -23.4734  -16.4189 S   0  0  0  0  0  0  0  0  0  0  0  0
   26.4756  -20.2382  -16.2678 C   0  0  0  0  0  0  0  0  0  0  0  0
   26.8161  -19.0530  -16.0306 O   0  0  0  0  0  0  0  0  0  0  0  0
   19.1547  -15.6008  -16.5121 O   0  0  0  0  0  0  0  0  0  0  0  0
   20.2693  -16.4481  -16.5859 C   0  0  0  0  0  0  0  0  0  0  0  0
   21.5497  -15.9653  -16.4209 C   0  0  0  0  0  0  0  0  0  0  0  0
   22.6538  -16.7891  -16.4914 C   0  0  0  0  0  0  0  0  0  0  0  0
   22.5218  -18.1556  -16.7341 C   0  0  0  0  0  0  0  0  0  0  0  0
   23.6649  -19.0557  -16.8436 C   0  0  0  0  0  0  0  0  0  0  0  0
   24.1904  -19.6372  -15.5655 C   0  0  2  0  0  0  0  0  0  0  0  0
   25.1558  -20.6710  -16.0078 N   0  0  0  0  0  0  0  0  0  0  0  0
   23.1948  -20.3578  -14.7451 C   0  0  0  0  0  0  0  0  0  0  0  0
   22.7399  -21.5040  -15.1049 O   0  0  0  0  0  0  0  0  0  0  0  0
   21.2407  -18.6214  -16.8961 C   0  0  0  0  0  0  0  0  0  0  0  0
   20.1314  -17.7990  -16.8262 C   0  0  0  0  0  0  0  0  0  0  0  0
   23.4062  -21.2410  -11.0614 C   0  0  0  0  0  0  0  0  0  0  0  0
   22.0212  -20.6871  -11.2886 C   0  0  1  0  0  0  0  0  0  0  0  0
   21.9884  -19.4138  -10.7540 O   0  0  0  0  0  0  0  0  0  0  0  0
   21.6777  -20.6708  -12.7772 C   0  0  2  0  0  0  0  0  0  0  0  0
   22.6507  -19.8922  -13.5123 N   0  0  0  0  0  0  0  0  0  0  0  0
   20.3128  -20.2162  -13.0177 C   0  0  0  0  0  0  0  0  0  0  0  0
   20.0394  -19.1573  -13.6195 O   0  0  0  0  0  0  0  0  0  0  0  0
   19.1988  -20.9550  -12.5791 O   0  0  0  0  0  0  0  0  0  0  0  0
  2  1  1  1
  3  2  1  0
  3  4  1  0
  5  2  1  0
  5  6  2  0
  7  8  1  0
  8 18  2  0
  9  8  1  0
  9 10  2  0
 10 11  1  0
 11 17  2  0
 11 12  1  0
 13 12  1  6
 13 14  1  0
 14  5  1  0
 15 13  1  0
 16 15  2  0
 18 17  1  0
 20 21  1  0
 20 19  1  6
 22 23  1  6
 22 20  1  0
 23 15  1  0
 24 22  1  0
 25 24  2  0
 26 24  1  0
M  END
$$$$
