FTP.pdb
     RDKit          3D

 26 27  0  0  1  0  0  0  0  0999 V2000
   19.4071  -12.4761  -19.1591 N   0  0  0  0  0  0  0  0  0  0  0  0
   20.1492  -11.9968  -18.0222 C   0  0  1  0  0  0  0  0  0  0  0  0
   21.4881  -12.6810  -17.9969 C   0  0  0  0  0  0  0  0  0  0  0  0
   21.2676  -14.1123  -17.6745 C   0  0  0  0  0  0  0  0  0  0  0  0
   21.1527  -14.5427  -16.3546 C   0  0  0  0  0  0  0  0  0  0  0  0
   20.9519  -15.8685  -16.0369 C   0  0  0  0  0  0  0  0  0  0  0  0
   20.8614  -16.7952  -17.0367 C   0  0  0  0  0  0  0  0  0  0  0  0
   20.9688  -16.4131  -18.3426 C   0  0  0  0  0  0  0  0  0  0  0  0
   21.1690  -15.0906  -18.6546 C   0  0  0  0  0  0  0  0  0  0  0  0
   20.2720  -10.5214  -18.0053 C   0  0  0  0  0  0  0  0  0  0  0  0
   20.6903   -9.9984  -19.0954 O   0  0  0  0  0  0  0  0  0  0  0  0
   17.9037   -8.2029  -18.3645 C   0  0  0  0  0  0  0  0  0  0  0  0
   18.5411   -7.7967  -17.0354 C   0  0  1  0  0  0  0  0  0  0  0  0
   17.7865   -8.1335  -15.9636 O   0  0  0  0  0  0  0  0  0  0  0  0
   19.9975   -8.2032  -17.0029 C   0  0  2  0  0  0  0  0  0  0  0  0
   19.9671   -9.6918  -16.9030 N   0  0  0  0  0  0  0  0  0  0  0  0
   20.7814   -7.6436  -15.9107 C   0  0  0  0  0  0  0  0  0  0  0  0
   20.4531   -8.0601  -14.7431 O   0  0  0  0  0  0  0  0  0  0  0  0
   21.8463   -6.7164  -15.9497 N   0  0  0  0  0  0  0  0  0  0  0  0
   22.3716   -6.2422  -17.2453 C   0  0  0  0  0  0  0  0  0  0  0  0
   22.8617   -4.8526  -16.9401 C   0  0  0  0  0  0  0  0  0  0  0  0
   23.5916   -5.1131  -15.6363 C   0  0  0  0  0  0  0  0  0  0  0  0
   22.5936   -6.0442  -14.9403 C   0  0  1  0  0  0  0  0  0  0  0  0
   21.7714   -5.1525  -14.0870 C   0  0  0  0  0  0  0  0  0  0  0  0
   22.2194   -4.7737  -12.8431 O   0  0  0  0  0  0  0  0  0  0  0  0
   20.6740   -4.7499  -14.5044 O   0  0  0  0  0  0  0  0  0  0  0  0
  2  1  1  6
  2 10  1  0
  3  2  1  0
  3  4  1  0
  4  5  2  0
  4  9  1  0
  5  6  1  0
  6  7  2  0
  8  7  1  0
  9  8  2  0
 10 11  2  0
 13 12  1  6
 13 15  1  0
 14 13  1  0
 15 17  1  0
 15 16  1  1
 16 10  1  0
 17 18  2  0
 19 17  1  0
 19 20  1  0
 20 21  1  0
 22 21  1  0
 23 19  1  0
 23 22  1  0
 23 24  1  1
 25 24  1  0
 26 24  2  0
M  END
$$$$
