FTP.pdb
     RDKit          3D

 26 27  0  0  1  0  0  0  0  0999 V2000
   19.6952  -17.4790  -16.2943 N   0  0  0  0  0  0  0  0  0  0  0  0
   21.1065  -17.2523  -16.1216 C   0  0  1  0  0  0  0  0  0  0  0  0
   21.3189  -15.8197  -15.7169 C   0  0  0  0  0  0  0  0  0  0  0  0
   22.7791  -15.5570  -15.7025 C   0  0  0  0  0  0  0  0  0  0  0  0
   23.4654  -15.3763  -14.5038 C   0  0  0  0  0  0  0  0  0  0  0  0
   24.8204  -15.1275  -14.4720 C   0  0  0  0  0  0  0  0  0  0  0  0
   25.5201  -15.0539  -15.6431 C   0  0  0  0  0  0  0  0  0  0  0  0
   24.8836  -15.2253  -16.8383 C   0  0  0  0  0  0  0  0  0  0  0  0
   23.5330  -15.4731  -16.8652 C   0  0  0  0  0  0  0  0  0  0  0  0
   21.7217  -18.2026  -15.1674 C   0  0  0  0  0  0  0  0  0  0  0  0
   21.1431  -18.2807  -14.0290 O   0  0  0  0  0  0  0  0  0  0  0  0
   21.6343  -21.6242  -14.6599 C   0  0  0  0  0  0  0  0  0  0  0  0
   23.1074  -21.3003  -14.9107 C   0  0  1  0  0  0  0  0  0  0  0  0
   23.5079  -21.6042  -16.1673 O   0  0  0  0  0  0  0  0  0  0  0  0
   23.4365  -19.9142  -14.4031 C   0  0  2  0  0  0  0  0  0  0  0  0
   22.8618  -18.9951  -15.4287 N   0  0  0  0  0  0  0  0  0  0  0  0
   24.8532  -19.6337  -14.2165 C   0  0  0  0  0  0  0  0  0  0  0  0
   25.4359  -19.1052  -15.2293 O   0  0  0  0  0  0  0  0  0  0  0  0
   25.6738  -19.8550  -13.0883 N   0  0  0  0  0  0  0  0  0  0  0  0
   25.0729  -20.2421  -11.7967 C   0  0  0  0  0  0  0  0  0  0  0  0
   26.1434  -21.0746  -11.1446 C   0  0  0  0  0  0  0  0  0  0  0  0
   27.3563  -20.2091  -11.4274 C   0  0  0  0  0  0  0  0  0  0  0  0
   27.0828  -19.8137  -12.8822 C   0  0  1  0  0  0  0  0  0  0  0  0
   27.8311  -20.8041  -13.6936 C   0  0  0  0  0  0  0  0  0  0  0  0
   29.1480  -20.5810  -14.0217 O   0  0  0  0  0  0  0  0  0  0  0  0
   27.2593  -21.8375  -14.0751 O   0  0  0  0  0  0  0  0  0  0  0  0
  2  1  1  1
  2 10  1  0
  3  2  1  0
  3  4  1  0
  4  5  2  0
  4  9  1  0
  5  6  1  0
  6  7  2  0
  8  7  1  0
  9  8  2  0
 10 11  2  0
 13 12  1  6
 13 15  1  0
 14 13  1  0
 15 17  1  0
 15 16  1  6
 16 10  1  0
 17 18  2  0
 19 17  1  0
 19 20  1  0
 20 21  1  0
 22 21  1  0
 23 19  1  0
 23 22  1  0
 23 24  1  6
 25 24  1  0
 26 24  2  0
M  END
$$$$
