FTP.pdb
     RDKit          3D

 26 27  0  0  1  0  0  0  0  0999 V2000
   26.1126  -22.3720  -11.4537 N   0  0  0  0  0  0  0  0  0  0  0  0
   25.6944  -20.9999  -11.5782 C   0  0  1  0  0  0  0  0  0  0  0  0
   25.9446  -20.2990  -10.2715 C   0  0  0  0  0  0  0  0  0  0  0  0
   24.9286  -20.7663   -9.2965 C   0  0  0  0  0  0  0  0  0  0  0  0
   25.2781  -21.0656   -7.9816 C   0  0  0  0  0  0  0  0  0  0  0  0
   24.3484  -21.5047   -7.0640 C   0  0  0  0  0  0  0  0  0  0  0  0
   23.0445  -21.6540   -7.4440 C   0  0  0  0  0  0  0  0  0  0  0  0
   22.6626  -21.3710   -8.7233 C   0  0  0  0  0  0  0  0  0  0  0  0
   23.5926  -20.9337   -9.6345 C   0  0  0  0  0  0  0  0  0  0  0  0
   26.3406  -20.3105  -12.7181 C   0  0  0  0  0  0  0  0  0  0  0  0
   27.6002  -20.1227  -12.5962 O   0  0  0  0  0  0  0  0  0  0  0  0
   27.1984  -21.4867  -15.7607 C   0  0  0  0  0  0  0  0  0  0  0  0
   26.3536  -20.2654  -16.1250 C   0  0  1  0  0  0  0  0  0  0  0  0
   25.1274  -20.5933  -16.5947 O   0  0  0  0  0  0  0  0  0  0  0  0
   26.4107  -19.2356  -15.0189 C   0  0  2  0  0  0  0  0  0  0  0  0
   25.6764  -19.8666  -13.8834 N   0  0  0  0  0  0  0  0  0  0  0  0
   25.8257  -17.9403  -15.3360 C   0  0  0  0  0  0  0  0  0  0  0  0
   24.5457  -17.8967  -15.2708 O   0  0  0  0  0  0  0  0  0  0  0  0
   26.4588  -16.7313  -15.7001 N   0  0  0  0  0  0  0  0  0  0  0  0
   27.9317  -16.6536  -15.7638 C   0  0  0  0  0  0  0  0  0  0  0  0
   28.1849  -15.6189  -16.8265 C   0  0  0  0  0  0  0  0  0  0  0  0
   27.1769  -14.5647  -16.4106 C   0  0  0  0  0  0  0  0  0  0  0  0
   25.9697  -15.4489  -16.0813 C   0  0  1  0  0  0  0  0  0  0  0  0
   25.1602  -15.4671  -17.3238 C   0  0  0  0  0  0  0  0  0  0  0  0
   24.2589  -14.4605  -17.5810 O   0  0  0  0  0  0  0  0  0  0  0  0
   25.3023  -16.3989  -18.1312 O   0  0  0  0  0  0  0  0  0  0  0  0
  2  1  1  1
  2 10  1  0
  3  2  1  0
  3  4  1  0
  4  5  2  0
  4  9  1  0
  5  6  1  0
  6  7  2  0
  8  7  1  0
  9  8  2  0
 10 11  2  0
 13 12  1  1
 13 15  1  0
 14 13  1  0
 15 17  1  0
 15 16  1  1
 16 10  1  0
 17 18  2  0
 19 17  1  0
 19 20  1  0
 20 21  1  0
 22 21  1  0
 23 19  1  0
 23 22  1  0
 23 24  1  6
 25 24  1  0
 26 24  2  0
M  END
$$$$
