FTP.pdb
     RDKit          3D

 26 27  0  0  1  0  0  0  0  0999 V2000
   25.4971  -21.1051   -6.9267 N   0  0  0  0  0  0  0  0  0  0  0  0
   26.2913  -20.4142   -7.9091 C   0  0  1  0  0  0  0  0  0  0  0  0
   27.7449  -20.6000   -7.5715 C   0  0  0  0  0  0  0  0  0  0  0  0
   28.0143  -19.8963   -6.2934 C   0  0  0  0  0  0  0  0  0  0  0  0
   28.0654  -18.5054   -6.2353 C   0  0  0  0  0  0  0  0  0  0  0  0
   28.3184  -17.8356   -5.0578 C   0  0  0  0  0  0  0  0  0  0  0  0
   28.5263  -18.5458   -3.9094 C   0  0  0  0  0  0  0  0  0  0  0  0
   28.4843  -19.9100   -3.9253 C   0  0  0  0  0  0  0  0  0  0  0  0
   28.2319  -20.5733   -5.1011 C   0  0  0  0  0  0  0  0  0  0  0  0
   25.9775  -20.8374   -9.2927 C   0  0  0  0  0  0  0  0  0  0  0  0
   26.1459  -22.0830   -9.5314 O   0  0  0  0  0  0  0  0  0  0  0  0
   23.3263  -20.8156  -13.2518 C   0  0  0  0  0  0  0  0  0  0  0  0
   23.7490  -20.4908  -11.8187 C   0  0  1  0  0  0  0  0  0  0  0  0
   23.0669  -21.2045  -10.8929 O   0  0  0  0  0  0  0  0  0  0  0  0
   25.2569  -20.4822  -11.7028 C   0  0  2  0  0  0  0  0  0  0  0  0
   25.5220  -19.9832  -10.3217 N   0  0  0  0  0  0  0  0  0  0  0  0
   25.9569  -19.6566  -12.6770 C   0  0  0  0  0  0  0  0  0  0  0  0
   25.6656  -18.4084  -12.6340 O   0  0  0  0  0  0  0  0  0  0  0  0
   26.9064  -20.0273  -13.6548 N   0  0  0  0  0  0  0  0  0  0  0  0
   27.3995  -21.4171  -13.7224 C   0  0  0  0  0  0  0  0  0  0  0  0
   27.7169  -21.6085  -15.1808 C   0  0  0  0  0  0  0  0  0  0  0  0
   28.4448  -20.3081  -15.4629 C   0  0  0  0  0  0  0  0  0  0  0  0
   27.5484  -19.3189  -14.7109 C   0  0  1  0  0  0  0  0  0  0  0  0
   26.6097  -18.8003  -15.7351 C   0  0  0  0  0  0  0  0  0  0  0  0
   26.9999  -17.7972  -16.5913 O   0  0  0  0  0  0  0  0  0  0  0  0
   25.4672  -19.2789  -15.8140 O   0  0  0  0  0  0  0  0  0  0  0  0
  2  1  1  1
  2 10  1  0
  3  2  1  0
  3  4  1  0
  4  5  2  0
  4  9  1  0
  5  6  1  0
  6  7  2  0
  8  7  1  0
  9  8  2  0
 10 11  2  0
 13 12  1  6
 13 15  1  0
 14 13  1  0
 15 17  1  0
 15 16  1  1
 16 10  1  0
 17 18  2  0
 19 17  1  0
 19 20  1  0
 20 21  1  0
 22 21  1  0
 23 19  1  0
 23 22  1  0
 23 24  1  6
 25 24  1  0
 26 24  2  0
M  END
$$$$
