FTP.pdb
     RDKit          3D

 26 27  0  0  1  0  0  0  0  0999 V2000
   25.4590  -21.0001   -7.1337 N   0  0  0  0  0  0  0  0  0  0  0  0
   26.2737  -20.3553   -8.1304 C   0  0  1  0  0  0  0  0  0  0  0  0
   27.7201  -20.5310   -7.7585 C   0  0  0  0  0  0  0  0  0  0  0  0
   27.9493  -19.8437   -6.4637 C   0  0  0  0  0  0  0  0  0  0  0  0
   27.8628  -18.4572   -6.3604 C   0  0  0  0  0  0  0  0  0  0  0  0
   28.0765  -17.8021   -5.1670 C   0  0  0  0  0  0  0  0  0  0  0  0
   28.3825  -18.5231   -4.0475 C   0  0  0  0  0  0  0  0  0  0  0  0
   28.4764  -19.8834   -4.1080 C   0  0  0  0  0  0  0  0  0  0  0  0
   28.2626  -20.5320   -5.2995 C   0  0  0  0  0  0  0  0  0  0  0  0
   25.9833  -20.8373   -9.4999 C   0  0  0  0  0  0  0  0  0  0  0  0
   26.1553  -22.0919   -9.6822 O   0  0  0  0  0  0  0  0  0  0  0  0
   23.1192  -21.6481  -11.1375 C   0  0  0  0  0  0  0  0  0  0  0  0
   23.7366  -20.5599  -12.0164 C   0  0  1  0  0  0  0  0  0  0  0  0
   23.1407  -19.3547  -11.8607 O   0  0  0  0  0  0  0  0  0  0  0  0
   25.2454  -20.5959  -11.9188 C   0  0  2  0  0  0  0  0  0  0  0  0
   25.5457  -20.0279  -10.5720 N   0  0  0  0  0  0  0  0  0  0  0  0
   25.9591  -19.8518  -12.9471 C   0  0  0  0  0  0  0  0  0  0  0  0
   25.7460  -18.5872  -12.9430 O   0  0  0  0  0  0  0  0  0  0  0  0
   26.8489  -20.3166  -13.9407 N   0  0  0  0  0  0  0  0  0  0  0  0
   27.3129  -21.7179  -13.9262 C   0  0  0  0  0  0  0  0  0  0  0  0
   27.5494  -22.0266  -15.3798 C   0  0  0  0  0  0  0  0  0  0  0  0
   28.2845  -20.7677  -15.7983 C   0  0  0  0  0  0  0  0  0  0  0  0
   27.4469  -19.7048  -15.0798 C   0  0  1  0  0  0  0  0  0  0  0  0
   26.4648  -19.2452  -16.0915 C   0  0  0  0  0  0  0  0  0  0  0  0
   26.8340  -18.3371  -17.0562 O   0  0  0  0  0  0  0  0  0  0  0  0
   25.3053  -19.6869  -16.0612 O   0  0  0  0  0  0  0  0  0  0  0  0
  2  1  1  1
  2 10  1  0
  3  2  1  0
  3  4  1  0
  4  5  2  0
  4  9  1  0
  5  6  1  0
  6  7  2  0
  8  7  1  0
  9  8  2  0
 10 11  2  0
 13 12  1  1
 13 15  1  0
 14 13  1  0
 15 17  1  0
 15 16  1  1
 16 10  1  0
 17 18  2  0
 19 17  1  0
 19 20  1  0
 20 21  1  0
 22 21  1  0
 23 19  1  0
 23 22  1  0
 23 24  1  6
 25 24  1  0
 26 24  2  0
M  END
$$$$
