FTP.pdb
     RDKit          3D

 26 27  0  0  1  0  0  0  0  0999 V2000
   18.7839  -20.8606  -16.0369 N   0  0  0  0  0  0  0  0  0  0  0  0
   19.8236  -19.9576  -15.6167 C   0  0  1  0  0  0  0  0  0  0  0  0
   19.2145  -18.8915  -14.7485 C   0  0  0  0  0  0  0  0  0  0  0  0
   18.5186  -17.9219  -15.6299 C   0  0  0  0  0  0  0  0  0  0  0  0
   17.1292  -17.9105  -15.7308 C   0  0  0  0  0  0  0  0  0  0  0  0
   16.4667  -17.0199  -16.5474 C   0  0  0  0  0  0  0  0  0  0  0  0
   17.1828  -16.1185  -17.2831 C   0  0  0  0  0  0  0  0  0  0  0  0
   18.5457  -16.0980  -17.2116 C   0  0  0  0  0  0  0  0  0  0  0  0
   19.2018  -16.9875  -16.3963 C   0  0  0  0  0  0  0  0  0  0  0  0
   20.9448  -20.6548  -14.9468 C   0  0  0  0  0  0  0  0  0  0  0  0
   20.6006  -21.5064  -14.0562 O   0  0  0  0  0  0  0  0  0  0  0  0
   22.9738  -23.3358  -15.7816 C   0  0  0  0  0  0  0  0  0  0  0  0
   23.9235  -22.1536  -15.5854 C   0  0  1  0  0  0  0  0  0  0  0  0
   24.3212  -21.5969  -16.7532 O   0  0  0  0  0  0  0  0  0  0  0  0
   23.3867  -21.2159  -14.5271 C   0  0  2  0  0  0  0  0  0  0  0  0
   22.3146  -20.4444  -15.2214 N   0  0  0  0  0  0  0  0  0  0  0  0
   24.3611  -20.3052  -13.9425 C   0  0  0  0  0  0  0  0  0  0  0  0
   24.6601  -19.2945  -14.6731 O   0  0  0  0  0  0  0  0  0  0  0  0
   25.0190  -20.3706  -12.6943 N   0  0  0  0  0  0  0  0  0  0  0  0
   24.6513  -21.4116  -11.7142 C   0  0  0  0  0  0  0  0  0  0  0  0
   25.9308  -21.6547  -10.9606 C   0  0  0  0  0  0  0  0  0  0  0  0
   26.3754  -20.2228  -10.7314 C   0  0  0  0  0  0  0  0  0  0  0  0
   26.0722  -19.6143  -12.1044 C   0  0  1  0  0  0  0  0  0  0  0  0
   27.3520  -19.6969  -12.8491 C   0  0  0  0  0  0  0  0  0  0  0  0
   28.3224  -18.7385  -12.6719 O   0  0  0  0  0  0  0  0  0  0  0  0
   27.5413  -20.6389  -13.6348 O   0  0  0  0  0  0  0  0  0  0  0  0
  2  1  1  1
  2 10  1  0
  3  2  1  0
  3  4  1  0
  4  5  2  0
  4  9  1  0
  5  6  1  0
  6  7  2  0
  8  7  1  0
  9  8  2  0
 10 11  2  0
 13 12  1  6
 13 15  1  0
 14 13  1  0
 15 17  1  0
 15 16  1  6
 16 10  1  0
 17 18  2  0
 19 17  1  0
 19 20  1  0
 20 21  1  0
 22 21  1  0
 23 19  1  0
 23 22  1  0
 23 24  1  6
 25 24  1  0
 26 24  2  0
M  END
$$$$
