FTP.pdb
     RDKit          3D

 26 27  0  0  1  0  0  0  0  0999 V2000
   15.3090  -13.0485    4.7551 N   0  0  0  0  0  0  0  0  0  0  0  0
   16.6589  -13.2102    5.2290 C   0  0  1  0  0  0  0  0  0  0  0  0
   17.1349  -11.8972    5.7866 C   0  0  0  0  0  0  0  0  0  0  0  0
   18.5527  -12.0567    6.1937 C   0  0  0  0  0  0  0  0  0  0  0  0
   18.8922  -12.3777    7.5061 C   0  0  0  0  0  0  0  0  0  0  0  0
   20.2037  -12.5256    7.9025 C   0  0  0  0  0  0  0  0  0  0  0  0
   21.2069  -12.3550    6.9909 C   0  0  0  0  0  0  0  0  0  0  0  0
   20.9149  -12.0400    5.6954 C   0  0  0  0  0  0  0  0  0  0  0  0
   19.6064  -11.8935    5.3047 C   0  0  0  0  0  0  0  0  0  0  0  0
   16.7894  -14.3154    6.2055 C   0  0  0  0  0  0  0  0  0  0  0  0
   15.9725  -14.2707    7.1892 O   0  0  0  0  0  0  0  0  0  0  0  0
   15.7551  -17.5640    6.0267 C   0  0  0  0  0  0  0  0  0  0  0  0
   17.2506  -17.6916    6.3181 C   0  0  1  0  0  0  0  0  0  0  0  0
   17.9718  -18.0472    5.2295 O   0  0  0  0  0  0  0  0  0  0  0  0
   17.7392  -16.4943    7.1024 C   0  0  2  0  0  0  0  0  0  0  0  0
   17.7230  -15.3722    6.1188 N   0  0  0  0  0  0  0  0  0  0  0  0
   19.0650  -16.6269    7.6898 C   0  0  0  0  0  0  0  0  0  0  0  0
   20.0343  -16.5624    6.8525 O   0  0  0  0  0  0  0  0  0  0  0  0
   19.4374  -16.8122    9.0396 N   0  0  0  0  0  0  0  0  0  0  0  0
   18.4174  -16.7609   10.1056 C   0  0  0  0  0  0  0  0  0  0  0  0
   18.9625  -17.6852   11.1606 C   0  0  0  0  0  0  0  0  0  0  0  0
   20.4097  -17.2320   11.1828 C   0  0  0  0  0  0  0  0  0  0  0  0
   20.6790  -17.0876    9.6815 C   0  0  1  0  0  0  0  0  0  0  0  0
   21.2833  -18.3799    9.2764 C   0  0  0  0  0  0  0  0  0  0  0  0
   22.6443  -18.5639    9.3494 O   0  0  0  0  0  0  0  0  0  0  0  0
   20.5506  -19.2957    8.8704 O   0  0  0  0  0  0  0  0  0  0  0  0
  2  1  1  1
  2 10  1  0
  3  2  1  0
  3  4  1  0
  4  5  2  0
  4  9  1  0
  5  6  1  0
  6  7  2  0
  8  7  1  0
  9  8  2  0
 10 11  2  0
 13 12  1  6
 13 15  1  0
 14 13  1  0
 15 17  1  0
 15 16  1  6
 16 10  1  0
 17 18  2  0
 19 17  1  0
 19 20  1  0
 20 21  1  0
 22 21  1  0
 23 19  1  0
 23 22  1  0
 23 24  1  6
 25 24  1  0
 26 24  2  0
M  END
$$$$
