FTP.pdb
     RDKit          3D

 26 27  0  0  1  0  0  0  0  0999 V2000
   26.9879  -22.5179  -10.7452 N   0  0  0  0  0  0  0  0  0  0  0  0
   26.1344  -21.3590  -10.7860 C   0  0  1  0  0  0  0  0  0  0  0  0
   26.9938  -20.1256  -10.7482 C   0  0  0  0  0  0  0  0  0  0  0  0
   27.4310  -19.9118   -9.3467 C   0  0  0  0  0  0  0  0  0  0  0  0
   26.6286  -19.2221   -8.4404 C   0  0  0  0  0  0  0  0  0  0  0  0
   27.0206  -19.0109   -7.1363 C   0  0  0  0  0  0  0  0  0  0  0  0
   28.2280  -19.4870   -6.7096 C   0  0  0  0  0  0  0  0  0  0  0  0
   29.0427  -20.1677   -7.5674 C   0  0  0  0  0  0  0  0  0  0  0  0
   28.6480  -20.3759   -8.8663 C   0  0  0  0  0  0  0  0  0  0  0  0
   25.2178  -21.3695  -11.9486 C   0  0  0  0  0  0  0  0  0  0  0  0
   25.7045  -21.8719  -13.0198 O   0  0  0  0  0  0  0  0  0  0  0  0
   21.5769  -22.7624  -11.9222 C   0  0  0  0  0  0  0  0  0  0  0  0
   21.6267  -21.3417  -12.4852 C   0  0  1  0  0  0  0  0  0  0  0  0
   21.1510  -20.4148  -11.6213 O   0  0  0  0  0  0  0  0  0  0  0  0
   22.9775  -21.0683  -13.1081 C   0  0  2  0  0  0  0  0  0  0  0  0
   23.8930  -20.8784  -11.9452 N   0  0  0  0  0  0  0  0  0  0  0  0
   23.0399  -19.9106  -13.9893 C   0  0  0  0  0  0  0  0  0  0  0  0
   22.9341  -18.7773  -13.3985 O   0  0  0  0  0  0  0  0  0  0  0  0
   23.2018  -19.8540  -15.3913 N   0  0  0  0  0  0  0  0  0  0  0  0
   23.4983  -21.0819  -16.1553 C   0  0  0  0  0  0  0  0  0  0  0  0
   22.8744  -20.8206  -17.4995 C   0  0  0  0  0  0  0  0  0  0  0  0
   23.3439  -19.3976  -17.7336 C   0  0  0  0  0  0  0  0  0  0  0  0
   23.1159  -18.7971  -16.3426 C   0  0  1  0  0  0  0  0  0  0  0  0
   21.7742  -18.1693  -16.4136 C   0  0  0  0  0  0  0  0  0  0  0  0
   21.6277  -16.8971  -16.9151 O   0  0  0  0  0  0  0  0  0  0  0  0
   20.7827  -18.8016  -16.0164 O   0  0  0  0  0  0  0  0  0  0  0  0
  2  1  1  6
  2 10  1  0
  3  2  1  0
  3  4  1  0
  4  5  2  0
  4  9  1  0
  5  6  1  0
  6  7  2  0
  8  7  1  0
  9  8  2  0
 10 11  2  0
 13 12  1  1
 13 15  1  0
 14 13  1  0
 15 17  1  0
 15 16  1  1
 16 10  1  0
 17 18  2  0
 19 17  1  0
 19 20  1  0
 20 21  1  0
 22 21  1  0
 23 19  1  0
 23 22  1  0
 23 24  1  6
 25 24  1  0
 26 24  2  0
M  END
$$$$
