LNT.pdb
     RDKit          3D

 24 23  0  0  1  0  0  0  0  0999 V2000
   16.7915  -13.8076  -17.6637 C   0  0  0  0  0  0  0  0  0  0  0  0
   18.1593  -14.0290  -17.0184 C   0  0  2  0  0  0  0  0  0  0  0  0
   18.1003  -15.3390  -16.2939 C   0  0  0  0  0  0  0  0  0  0  0  0
   18.4450  -12.8436  -16.1532 C   0  0  0  0  0  0  0  0  0  0  0  0
   18.4498  -11.5335  -16.8872 C   0  0  2  0  0  0  0  0  0  0  0  0
   19.4272  -11.5880  -17.9336 N   0  0  0  0  0  0  0  0  0  0  0  0
   18.7437  -10.4716  -15.8894 C   0  0  0  0  0  0  0  0  0  0  0  0
   18.1763  -10.4022  -14.7908 O   0  0  0  0  0  0  0  0  0  0  0  0
   21.1275  -10.2889  -13.5841 N   0  0  0  0  0  0  0  0  0  0  0  0
   21.9712   -9.3137  -14.1651 C   0  0  0  0  0  0  0  0  0  0  0  0
   23.1928   -9.3544  -13.8459 O   0  0  0  0  0  0  0  0  0  0  0  0
   21.4700   -8.3002  -15.0924 C   0  0  0  0  0  0  0  0  0  0  0  0
   20.0000   -8.3592  -15.3561 C   0  0  2  0  0  0  0  0  0  0  0  0
   19.7224   -9.4923  -16.2164 N   0  0  0  0  0  0  0  0  0  0  0  0
   19.4690   -7.1378  -15.9829 C   0  0  0  0  0  0  0  0  0  0  0  0
   19.8436   -6.7859  -17.1300 O   0  0  0  0  0  0  0  0  0  0  0  0
   15.6666   -6.0978  -16.1491 C   0  0  0  0  0  0  0  0  0  0  0  0
   16.4992   -4.9950  -15.5834 C   0  0  1  0  0  0  0  0  0  0  0  0
   16.3307   -4.9933  -14.2031 O   0  0  0  0  0  0  0  0  0  0  0  0
   17.9591   -5.1221  -15.9624 C   0  0  2  0  0  0  0  0  0  0  0  0
   18.5178   -6.3014  -15.3353 N   0  0  0  0  0  0  0  0  0  0  0  0
   18.7404   -3.9338  -15.5950 C   0  0  0  0  0  0  0  0  0  0  0  0
   18.4781   -2.8354  -16.1434 O   0  0  0  0  0  0  0  0  0  0  0  0
   19.7657   -3.9539  -14.6647 O   0  0  0  0  0  0  0  0  0  0  0  0
  2  1  1  1
  3  2  1  0
  4  2  1  0
  4  5  1  0
  5  7  1  0
  5  6  1  6
  7  8  2  0
  9 10  1  0
 10 12  1  0
 11 10  2  0
 13 12  1  6
 14 13  1  0
 14  7  1  0
 15 13  1  0
 16 15  2  0
 18 17  1  6
 19 18  1  0
 20 21  1  1
 20 18  1  0
 21 15  1  0
 22 24  1  0
 22 20  1  0
 23 22  2  0
M  END
$$$$
