LNT.pdb
     RDKit          3D

 24 23  0  0  1  0  0  0  0  0999 V2000
   27.2266  -18.6181   -6.0924 C   0  0  0  0  0  0  0  0  0  0  0  0
   27.3223  -20.1418   -6.1658 C   0  0  2  0  0  0  0  0  0  0  0  0
   28.5410  -20.5467   -5.3944 C   0  0  0  0  0  0  0  0  0  0  0  0
   27.3376  -20.5219   -7.6117 C   0  0  0  0  0  0  0  0  0  0  0  0
   26.1821  -19.9791   -8.4024 C   0  0  2  0  0  0  0  0  0  0  0  0
   24.9759  -20.6165   -7.9642 N   0  0  0  0  0  0  0  0  0  0  0  0
   26.4719  -20.2362   -9.8376 C   0  0  0  0  0  0  0  0  0  0  0  0
   27.6141  -20.1902  -10.3141 O   0  0  0  0  0  0  0  0  0  0  0  0
   26.6880  -22.9079  -14.3939 N   0  0  0  0  0  0  0  0  0  0  0  0
   25.4398  -22.6616  -13.7757 C   0  0  0  0  0  0  0  0  0  0  0  0
   24.4105  -22.8044  -14.4941 O   0  0  0  0  0  0  0  0  0  0  0  0
   25.3284  -22.2605  -12.3740 C   0  0  0  0  0  0  0  0  0  0  0  0
   25.5673  -20.8082  -12.1133 C   0  0  2  0  0  0  0  0  0  0  0  0
   25.3839  -20.5487  -10.6991 N   0  0  0  0  0  0  0  0  0  0  0  0
   24.6797  -19.9223  -12.8840 C   0  0  0  0  0  0  0  0  0  0  0  0
   23.5390  -19.6177  -12.4528 O   0  0  0  0  0  0  0  0  0  0  0  0
   24.2908  -16.7056  -16.6730 C   0  0  0  0  0  0  0  0  0  0  0  0
   25.0636  -17.7418  -15.9256 C   0  0  1  0  0  0  0  0  0  0  0  0
   26.1912  -17.1322  -15.3867 O   0  0  0  0  0  0  0  0  0  0  0  0
   24.2350  -18.4179  -14.8544 C   0  0  2  0  0  0  0  0  0  0  0  0
   25.0580  -19.3707  -14.1396 N   0  0  0  0  0  0  0  0  0  0  0  0
   23.0458  -19.0845  -15.4011 C   0  0  0  0  0  0  0  0  0  0  0  0
   21.9346  -18.5037  -15.3364 O   0  0  0  0  0  0  0  0  0  0  0  0
   23.0783  -20.3356  -15.9932 O   0  0  0  0  0  0  0  0  0  0  0  0
  2  1  1  6
  3  2  1  0
  4  2  1  0
  4  5  1  0
  5  7  1  0
  5  6  1  1
  7  8  2  0
  9 10  1  0
 10 12  1  0
 11 10  2  0
 13 12  1  1
 14 13  1  0
 14  7  1  0
 15 13  1  0
 16 15  2  0
 18 17  1  1
 19 18  1  0
 20 21  1  6
 20 18  1  0
 21 15  1  0
 22 24  1  0
 22 20  1  0
 23 22  2  0
M  END
$$$$
