LNT.pdb
     RDKit          3D

 24 23  0  0  1  0  0  0  0  0999 V2000
   19.4313  -10.4623  -19.7518 C   0  0  0  0  0  0  0  0  0  0  0  0
   18.7306  -11.1907  -18.6053 C   0  0  2  0  0  0  0  0  0  0  0  0
   17.3203  -11.4481  -19.0404 C   0  0  0  0  0  0  0  0  0  0  0  0
   18.8670  -10.3408  -17.3829 C   0  0  0  0  0  0  0  0  0  0  0  0
   20.2852  -10.1257  -16.9386 C   0  0  2  0  0  0  0  0  0  0  0  0
   20.8440  -11.3821  -16.5355 N   0  0  0  0  0  0  0  0  0  0  0  0
   20.2535   -9.1357  -15.8302 C   0  0  0  0  0  0  0  0  0  0  0  0
   19.8470   -9.4090  -14.6928 O   0  0  0  0  0  0  0  0  0  0  0  0
   22.6820   -4.0177  -14.0321 N   0  0  0  0  0  0  0  0  0  0  0  0
   22.0663   -5.2564  -13.7367 C   0  0  0  0  0  0  0  0  0  0  0  0
   21.5664   -5.3832  -12.5835 O   0  0  0  0  0  0  0  0  0  0  0  0
   22.0029   -6.3479  -14.7076 C   0  0  0  0  0  0  0  0  0  0  0  0
   20.6218   -6.7548  -15.1090 C   0  0  2  0  0  0  0  0  0  0  0  0
   20.7120   -7.8150  -16.0933 N   0  0  0  0  0  0  0  0  0  0  0  0
   19.8249   -5.6490  -15.6647 C   0  0  0  0  0  0  0  0  0  0  0  0
   20.1136   -5.1412  -16.7777 O   0  0  0  0  0  0  0  0  0  0  0  0
   15.6460   -3.0359  -15.6637 C   0  0  0  0  0  0  0  0  0  0  0  0
   16.5209   -4.0607  -15.0206 C   0  0  1  0  0  0  0  0  0  0  0  0
   15.9802   -5.3144  -15.2839 O   0  0  0  0  0  0  0  0  0  0  0  0
   17.9574   -3.9683  -15.4888 C   0  0  2  0  0  0  0  0  0  0  0  0
   18.7018   -5.1026  -14.9835 N   0  0  0  0  0  0  0  0  0  0  0  0
   18.6026   -2.7143  -15.0781 C   0  0  0  0  0  0  0  0  0  0  0  0
   19.0798   -2.6222  -13.9205 O   0  0  0  0  0  0  0  0  0  0  0  0
   18.7174   -1.6101  -15.9054 O   0  0  0  0  0  0  0  0  0  0  0  0
  2  1  1  6
  3  2  1  0
  4  2  1  0
  4  5  1  0
  5  7  1  0
  5  6  1  1
  7  8  2  0
  9 10  1  0
 10 12  1  0
 11 10  2  0
 13 12  1  6
 14 13  1  0
 14  7  1  0
 15 13  1  0
 16 15  2  0
 18 17  1  6
 19 18  1  0
 20 21  1  1
 20 18  1  0
 21 15  1  0
 22 24  1  0
 22 20  1  0
 23 22  2  0
M  END
$$$$
