LNT.pdb
     RDKit          3D

 24 23  0  0  1  0  0  0  0  0999 V2000
   23.8927  -19.1040   -9.1212 C   0  0  0  0  0  0  0  0  0  0  0  0
   23.8332  -20.6264   -9.2431 C   0  0  2  0  0  0  0  0  0  0  0  0
   25.0010  -21.1774   -8.4834 C   0  0  0  0  0  0  0  0  0  0  0  0
   23.8162  -20.9601  -10.7004 C   0  0  0  0  0  0  0  0  0  0  0  0
   22.6938  -20.3193  -11.4649 C   0  0  2  0  0  0  0  0  0  0  0  0
   21.4484  -20.6745  -10.8517 N   0  0  0  0  0  0  0  0  0  0  0  0
   22.7915  -20.7942  -12.8701 C   0  0  0  0  0  0  0  0  0  0  0  0
   22.3761  -21.9011  -13.2387 O   0  0  0  0  0  0  0  0  0  0  0  0
   21.0630  -20.6418  -17.9775 N   0  0  0  0  0  0  0  0  0  0  0  0
   21.5371  -21.1640  -16.7514 C   0  0  0  0  0  0  0  0  0  0  0  0
   21.7138  -22.4136  -16.6950 O   0  0  0  0  0  0  0  0  0  0  0  0
   21.8142  -20.3126  -15.5953 C   0  0  0  0  0  0  0  0  0  0  0  0
   23.2623  -20.1601  -15.2577 C   0  0  2  0  0  0  0  0  0  0  0  0
   23.3907  -19.9340  -13.8318 N   0  0  0  0  0  0  0  0  0  0  0  0
   23.9180  -19.0581  -15.9805 C   0  0  0  0  0  0  0  0  0  0  0  0
   23.5454  -17.8685  -15.8192 O   0  0  0  0  0  0  0  0  0  0  0  0
   27.9202  -17.5299  -18.4619 C   0  0  0  0  0  0  0  0  0  0  0  0
   27.0969  -18.6370  -17.8910 C   0  0  1  0  0  0  0  0  0  0  0  0
   27.7620  -19.1378  -16.7774 O   0  0  0  0  0  0  0  0  0  0  0  0
   25.6930  -18.1909  -17.5428 C   0  0  2  0  0  0  0  0  0  0  0  0
   24.9926  -19.2752  -16.8871 N   0  0  0  0  0  0  0  0  0  0  0  0
   24.9392  -17.7382  -18.7194 C   0  0  0  0  0  0  0  0  0  0  0  0
   24.3094  -18.5811  -19.4041 O   0  0  0  0  0  0  0  0  0  0  0  0
   24.8813  -16.4154  -19.1243 O   0  0  0  0  0  0  0  0  0  0  0  0
  2  1  1  6
  3  2  1  0
  4  2  1  0
  4  5  1  0
  5  7  1  0
  5  6  1  1
  7  8  2  0
  9 10  1  0
 10 12  1  0
 11 10  2  0
 13 12  1  6
 14 13  1  0
 14  7  1  0
 15 13  1  0
 16 15  2  0
 18 17  1  1
 19 18  1  0
 20 21  1  6
 20 18  1  0
 21 15  1  0
 22 24  1  0
 22 20  1  0
 23 22  2  0
M  END
$$$$
