LNT.pdb
     RDKit          3D

 24 23  0  0  1  0  0  0  0  0999 V2000
   25.0197  -19.6529   -8.1635 C   0  0  0  0  0  0  0  0  0  0  0  0
   26.0368  -20.6500   -8.7179 C   0  0  2  0  0  0  0  0  0  0  0  0
   27.1939  -20.6773   -7.7668 C   0  0  0  0  0  0  0  0  0  0  0  0
   26.3755  -20.2198  -10.1091 C   0  0  0  0  0  0  0  0  0  0  0  0
   25.2046  -20.2007  -11.0491 C   0  0  2  0  0  0  0  0  0  0  0  0
   24.4848  -21.4334  -10.9237 N   0  0  0  0  0  0  0  0  0  0  0  0
   25.7437  -19.9940  -12.4190 C   0  0  0  0  0  0  0  0  0  0  0  0
   26.5628  -19.1071  -12.6950 O   0  0  0  0  0  0  0  0  0  0  0  0
   28.6040  -22.0613  -16.7064 N   0  0  0  0  0  0  0  0  0  0  0  0
   27.2181  -21.8833  -16.4868 C   0  0  0  0  0  0  0  0  0  0  0  0
   26.4979  -21.7038  -17.5091 O   0  0  0  0  0  0  0  0  0  0  0  0
   26.6309  -21.9032  -15.1478 C   0  0  0  0  0  0  0  0  0  0  0  0
   25.7619  -20.7312  -14.8232 C   0  0  2  0  0  0  0  0  0  0  0  0
   25.2948  -20.8571  -13.4569 N   0  0  0  0  0  0  0  0  0  0  0  0
   24.6008  -20.5988  -15.7183 C   0  0  0  0  0  0  0  0  0  0  0  0
   23.6163  -21.3737  -15.6171 O   0  0  0  0  0  0  0  0  0  0  0  0
   22.0069  -18.1759  -15.9702 C   0  0  0  0  0  0  0  0  0  0  0  0
   22.6779  -18.1587  -17.3039 C   0  0  1  0  0  0  0  0  0  0  0  0
   23.5576  -17.0821  -17.3291 O   0  0  0  0  0  0  0  0  0  0  0  0
   23.3876  -19.4603  -17.6091 C   0  0  2  0  0  0  0  0  0  0  0  0
   24.5301  -19.6024  -16.7312 N   0  0  0  0  0  0  0  0  0  0  0  0
   23.8113  -19.5536  -19.0124 C   0  0  0  0  0  0  0  0  0  0  0  0
   25.0330  -19.4708  -19.2895 O   0  0  0  0  0  0  0  0  0  0  0  0
   22.9288  -19.7302  -20.0645 O   0  0  0  0  0  0  0  0  0  0  0  0
  2  1  1  1
  3  2  1  0
  4  2  1  0
  4  5  1  0
  5  7  1  0
  5  6  1  6
  7  8  2  0
  9 10  1  0
 10 12  1  0
 11 10  2  0
 13 12  1  6
 14 13  1  0
 14  7  1  0
 15 13  1  0
 16 15  2  0
 18 17  1  1
 19 18  1  0
 20 21  1  1
 20 18  1  0
 21 15  1  0
 22 24  1  0
 22 20  1  0
 23 22  2  0
M  END
$$$$
