LNT.pdb
     RDKit          3D

 24 23  0  0  1  0  0  0  0  0999 V2000
   18.5672  -12.1199  -17.1007 C   0  0  0  0  0  0  0  0  0  0  0  0
   18.2422  -12.6616  -15.7089 C   0  0  2  0  0  0  0  0  0  0  0  0
   17.5045  -13.9519  -15.8971 C   0  0  0  0  0  0  0  0  0  0  0  0
   17.4802  -11.6013  -14.9807 C   0  0  0  0  0  0  0  0  0  0  0  0
   18.2315  -10.3125  -14.8085 C   0  0  2  0  0  0  0  0  0  0  0  0
   19.4283  -10.5657  -14.0623 N   0  0  0  0  0  0  0  0  0  0  0  0
   17.3212   -9.3617  -14.1179 C   0  0  0  0  0  0  0  0  0  0  0  0
   16.1726   -9.1197  -14.5127 O   0  0  0  0  0  0  0  0  0  0  0  0
   15.7093   -5.9738  -10.3781 N   0  0  0  0  0  0  0  0  0  0  0  0
   16.6163   -6.9379   -9.8794 C   0  0  0  0  0  0  0  0  0  0  0  0
   16.7578   -6.9916   -8.6252 O   0  0  0  0  0  0  0  0  0  0  0  0
   17.3620   -7.8368  -10.7591 C   0  0  0  0  0  0  0  0  0  0  0  0
   16.9766   -7.7698  -12.2017 C   0  0  2  0  0  0  0  0  0  0  0  0
   17.7961   -8.7019  -12.9505 N   0  0  0  0  0  0  0  0  0  0  0  0
   17.1224   -6.4258  -12.7840 C   0  0  0  0  0  0  0  0  0  0  0  0
   18.2521   -5.8831  -12.8799 O   0  0  0  0  0  0  0  0  0  0  0  0
   15.1213   -2.8899  -15.6169 C   0  0  0  0  0  0  0  0  0  0  0  0
   15.0202   -4.1896  -14.8890 C   0  0  1  0  0  0  0  0  0  0  0  0
   14.9805   -5.2096  -15.8331 O   0  0  0  0  0  0  0  0  0  0  0  0
   16.1537   -4.3896  -13.9059 C   0  0  2  0  0  0  0  0  0  0  0  0
   16.0104   -5.6786  -13.2625 N   0  0  0  0  0  0  0  0  0  0  0  0
   16.2174   -3.3235  -12.8975 C   0  0  0  0  0  0  0  0  0  0  0  0
   15.4448   -3.3692  -11.9090 O   0  0  0  0  0  0  0  0  0  0  0  0
   17.0933   -2.2540  -12.9739 O   0  0  0  0  0  0  0  0  0  0  0  0
  2  1  1  6
  3  2  1  0
  4  2  1  0
  4  5  1  0
  5  7  1  0
  5  6  1  1
  7  8  2  0
  9 10  1  0
 10 12  1  0
 11 10  2  0
 13 12  1  1
 14 13  1  0
 14  7  1  0
 15 13  1  0
 16 15  2  0
 18 17  1  6
 19 18  1  0
 20 21  1  1
 20 18  1  0
 21 15  1  0
 22 24  1  0
 22 20  1  0
 23 22  2  0
M  END
$$$$
