LNT.pdb
     RDKit          3D

 24 23  0  0  1  0  0  0  0  0999 V2000
   23.0089  -13.2786  -14.4219 C   0  0  0  0  0  0  0  0  0  0  0  0
   23.3305  -12.9956  -15.8891 C   0  0  2  0  0  0  0  0  0  0  0  0
   24.8185  -12.8601  -15.9981 C   0  0  0  0  0  0  0  0  0  0  0  0
   22.5567  -11.7816  -16.2927 C   0  0  0  0  0  0  0  0  0  0  0  0
   21.0695  -11.9208  -16.1379 C   0  0  2  0  0  0  0  0  0  0  0  0
   20.6161  -13.0136  -16.9463 N   0  0  0  0  0  0  0  0  0  0  0  0
   20.4623  -10.6251  -16.5410 C   0  0  0  0  0  0  0  0  0  0  0  0
   20.3497  -10.2713  -17.7224 O   0  0  0  0  0  0  0  0  0  0  0  0
   17.6812   -6.2370  -16.3553 N   0  0  0  0  0  0  0  0  0  0  0  0
   17.0801   -7.4874  -16.0801 C   0  0  0  0  0  0  0  0  0  0  0  0
   15.8194   -7.5393  -16.1430 O   0  0  0  0  0  0  0  0  0  0  0  0
   17.8651   -8.6725  -15.7377 C   0  0  0  0  0  0  0  0  0  0  0  0
   19.3467   -8.4912  -15.8157 C   0  0  2  0  0  0  0  0  0  0  0  0
   19.9907   -9.7553  -15.5189 N   0  0  0  0  0  0  0  0  0  0  0  0
   19.8590   -7.4626  -14.8958 C   0  0  0  0  0  0  0  0  0  0  0  0
   19.8965   -7.6664  -13.6561 O   0  0  0  0  0  0  0  0  0  0  0  0
   22.7152   -4.8257  -16.1773 C   0  0  0  0  0  0  0  0  0  0  0  0
   22.4232   -5.1484  -14.7491 C   0  0  1  0  0  0  0  0  0  0  0  0
   23.0402   -4.1874  -13.9559 O   0  0  0  0  0  0  0  0  0  0  0  0
   20.9380   -5.2274  -14.4678 C   0  0  2  0  0  0  0  0  0  0  0  0
   20.3323   -6.2009  -15.3519 N   0  0  0  0  0  0  0  0  0  0  0  0
   20.2693   -3.9275  -14.6103 C   0  0  0  0  0  0  0  0  0  0  0  0
   20.5902   -2.9869  -13.8431 O   0  0  0  0  0  0  0  0  0  0  0  0
   19.2901   -3.6740  -15.5558 O   0  0  0  0  0  0  0  0  0  0  0  0
  2  1  1  1
  3  2  1  0
  4  2  1  0
  4  5  1  0
  5  7  1  0
  5  6  1  6
  7  8  2  0
  9 10  1  0
 10 12  1  0
 11 10  2  0
 13 12  1  1
 14 13  1  0
 14  7  1  0
 15 13  1  0
 16 15  2  0
 18 17  1  6
 19 18  1  0
 20 21  1  6
 20 18  1  0
 21 15  1  0
 22 24  1  0
 22 20  1  0
 23 22  2  0
M  END
$$$$
