LNT.pdb
     RDKit          3D

 24 23  0  0  1  0  0  0  0  0999 V2000
   27.0820  -14.1973  -17.9114 C   0  0  0  0  0  0  0  0  0  0  0  0
   25.5945  -14.3669  -18.2191 C   0  0  2  0  0  0  0  0  0  0  0  0
   25.4822  -15.3783  -19.3185 C   0  0  0  0  0  0  0  0  0  0  0  0
   25.0470  -13.0153  -18.5489 C   0  0  0  0  0  0  0  0  0  0  0  0
   25.1283  -12.0270  -17.4213 C   0  0  2  0  0  0  0  0  0  0  0  0
   24.7889  -12.6875  -16.1959 N   0  0  0  0  0  0  0  0  0  0  0  0
   24.1973  -10.9139  -17.7441 C   0  0  0  0  0  0  0  0  0  0  0  0
   24.3011  -10.2223  -18.7661 O   0  0  0  0  0  0  0  0  0  0  0  0
   19.2863   -8.6673  -18.7243 N   0  0  0  0  0  0  0  0  0  0  0  0
   19.7732   -9.1810  -17.4997 C   0  0  0  0  0  0  0  0  0  0  0  0
   19.2085   -8.7723  -16.4461 O   0  0  0  0  0  0  0  0  0  0  0  0
   20.8759  -10.1393  -17.4383 C   0  0  0  0  0  0  0  0  0  0  0  0
   22.1969   -9.5560  -17.0523 C   0  0  2  0  0  0  0  0  0  0  0  0
   23.1405  -10.6344  -16.8338 N   0  0  0  0  0  0  0  0  0  0  0  0
   22.1352   -8.7184  -15.8434 C   0  0  0  0  0  0  0  0  0  0  0  0
   22.1960   -9.2327  -14.6981 O   0  0  0  0  0  0  0  0  0  0  0  0
   22.2068   -4.4206  -16.1238 C   0  0  0  0  0  0  0  0  0  0  0  0
   22.7371   -5.1989  -14.9652 C   0  0  1  0  0  0  0  0  0  0  0  0
   22.7241   -4.3708  -13.8484 O   0  0  0  0  0  0  0  0  0  0  0  0
   21.9556   -6.4717  -14.7194 C   0  0  2  0  0  0  0  0  0  0  0  0
   22.0055   -7.3030  -15.9037 N   0  0  0  0  0  0  0  0  0  0  0  0
   20.5605   -6.2102  -14.3415 C   0  0  0  0  0  0  0  0  0  0  0  0
   19.6655   -6.2798  -15.2191 O   0  0  0  0  0  0  0  0  0  0  0  0
   20.1679   -5.8864  -13.0538 O   0  0  0  0  0  0  0  0  0  0  0  0
  2  1  1  6
  3  2  1  0
  4  2  1  0
  4  5  1  0
  5  7  1  0
  5  6  1  1
  7  8  2  0
  9 10  1  0
 10 12  1  0
 11 10  2  0
 13 12  1  1
 14 13  1  0
 14  7  1  0
 15 13  1  0
 16 15  2  0
 18 17  1  6
 19 18  1  0
 20 21  1  6
 20 18  1  0
 21 15  1  0
 22 24  1  0
 22 20  1  0
 23 22  2  0
M  END
$$$$
