LNT.pdb
     RDKit          3D

 24 23  0  0  1  0  0  0  0  0999 V2000
   27.0458  -10.0219  -15.6738 C   0  0  0  0  0  0  0  0  0  0  0  0
   25.9214  -11.0456  -15.8290 C   0  0  2  0  0  0  0  0  0  0  0  0
   26.5222  -12.2738  -16.4413 C   0  0  0  0  0  0  0  0  0  0  0  0
   24.8387  -10.4047  -16.6367 C   0  0  0  0  0  0  0  0  0  0  0  0
   24.2970   -9.1364  -16.0425 C   0  0  2  0  0  0  0  0  0  0  0  0
   23.6944   -9.4337  -14.7769 N   0  0  0  0  0  0  0  0  0  0  0  0
   23.3253   -8.5743  -17.0169 C   0  0  0  0  0  0  0  0  0  0  0  0
   23.6242   -8.3025  -18.1876 O   0  0  0  0  0  0  0  0  0  0  0  0
   20.4737  -10.3898  -18.6209 N   0  0  0  0  0  0  0  0  0  0  0  0
   19.4902   -9.8126  -17.7841 C   0  0  0  0  0  0  0  0  0  0  0  0
   18.4334  -10.4806  -17.6028 O   0  0  0  0  0  0  0  0  0  0  0  0
   19.6719   -8.5069  -17.1516 C   0  0  0  0  0  0  0  0  0  0  0  0
   20.9660   -7.8286  -17.4667 C   0  0  2  0  0  0  0  0  0  0  0  0
   21.9921   -8.3395  -16.5796 N   0  0  0  0  0  0  0  0  0  0  0  0
   20.9046   -6.3636  -17.3381 C   0  0  0  0  0  0  0  0  0  0  0  0
   20.9713   -5.8113  -16.2109 O   0  0  0  0  0  0  0  0  0  0  0  0
   20.9500   -1.9555  -19.6646 C   0  0  0  0  0  0  0  0  0  0  0  0
   20.8134   -3.4412  -19.7216 C   0  0  1  0  0  0  0  0  0  0  0  0
   21.9004   -3.9465  -20.4263 O   0  0  0  0  0  0  0  0  0  0  0  0
   20.7082   -4.0637  -18.3458 C   0  0  2  0  0  0  0  0  0  0  0  0
   20.7685   -5.5054  -18.4646 N   0  0  0  0  0  0  0  0  0  0  0  0
   19.4838   -3.6635  -17.6402 C   0  0  0  0  0  0  0  0  0  0  0  0
   18.3979   -4.2204  -17.9349 O   0  0  0  0  0  0  0  0  0  0  0  0
   19.4560   -2.6928  -16.6533 O   0  0  0  0  0  0  0  0  0  0  0  0
  2  1  1  6
  3  2  1  0
  4  2  1  0
  4  5  1  0
  5  7  1  0
  5  6  1  1
  7  8  2  0
  9 10  1  0
 10 12  1  0
 11 10  2  0
 13 12  1  1
 14 13  1  0
 14  7  1  0
 15 13  1  0
 16 15  2  0
 18 17  1  1
 19 18  1  0
 20 21  1  6
 20 18  1  0
 21 15  1  0
 22 24  1  0
 22 20  1  0
 23 22  2  0
M  END
$$$$
