LNT.pdb
     RDKit          3D

 24 23  0  0  1  0  0  0  0  0999 V2000
   21.5402  -16.9438  -19.5397 C   0  0  0  0  0  0  0  0  0  0  0  0
   20.1154  -16.5427  -19.1589 C   0  0  2  0  0  0  0  0  0  0  0  0
   19.1853  -17.4423  -19.9138 C   0  0  0  0  0  0  0  0  0  0  0  0
   19.9634  -15.0858  -19.4586 C   0  0  0  0  0  0  0  0  0  0  0  0
   20.8085  -14.1898  -18.5996 C   0  0  2  0  0  0  0  0  0  0  0  0
   21.0698  -14.8480  -17.3538 N   0  0  0  0  0  0  0  0  0  0  0  0
   20.0617  -12.9165  -18.4242 C   0  0  0  0  0  0  0  0  0  0  0  0
   19.6648  -12.2305  -19.3758 O   0  0  0  0  0  0  0  0  0  0  0  0
   17.6465   -8.9418  -15.9360 N   0  0  0  0  0  0  0  0  0  0  0  0
   17.2411  -10.2375  -15.5393 C   0  0  0  0  0  0  0  0  0  0  0  0
   16.1847  -10.3179  -14.8511 O   0  0  0  0  0  0  0  0  0  0  0  0
   17.9965  -11.4365  -15.8996 C   0  0  0  0  0  0  0  0  0  0  0  0
   19.1437  -11.2029  -16.8288 C   0  0  2  0  0  0  0  0  0  0  0  0
   19.7934  -12.4699  -17.1005 N   0  0  0  0  0  0  0  0  0  0  0  0
   20.1391  -10.2551  -16.3019 C   0  0  0  0  0  0  0  0  0  0  0  0
   20.9534  -10.6038  -15.4101 O   0  0  0  0  0  0  0  0  0  0  0  0
   22.5885   -6.0021  -17.0585 C   0  0  0  0  0  0  0  0  0  0  0  0
   21.5248   -6.9816  -17.4303 C   0  0  1  0  0  0  0  0  0  0  0  0
   21.8896   -7.5773  -18.6326 O   0  0  0  0  0  0  0  0  0  0  0  0
   21.2894   -8.0151  -16.3498 C   0  0  2  0  0  0  0  0  0  0  0  0
   20.2329   -8.9135  -16.7656 N   0  0  0  0  0  0  0  0  0  0  0  0
   20.9583   -7.4078  -15.0540 C   0  0  0  0  0  0  0  0  0  0  0  0
   19.7735   -7.0612  -14.8256 O   0  0  0  0  0  0  0  0  0  0  0  0
   21.8907   -7.1916  -14.0535 O   0  0  0  0  0  0  0  0  0  0  0  0
  2  1  1  6
  3  2  1  0
  4  2  1  0
  4  5  1  0
  5  7  1  0
  5  6  1  1
  7  8  2  0
  9 10  1  0
 10 12  1  0
 11 10  2  0
 13 12  1  1
 14 13  1  0
 14  7  1  0
 15 13  1  0
 16 15  2  0
 18 17  1  1
 19 18  1  0
 20 21  1  6
 20 18  1  0
 21 15  1  0
 22 24  1  0
 22 20  1  0
 23 22  2  0
M  END
$$$$
