SMG.pdb
     RDKit          3D

 19 18  0  0  1  0  0  0  0  0999 V2000
    7.4820  -17.5141   20.5740 O   0  0  0  0  0  0  0  0  0  0  0  0
    6.3585  -16.7506   20.2529 C   0  0  0  0  0  0  0  0  0  0  0  0
    6.8164  -15.3138   20.1101 C   0  0  2  0  0  0  0  0  0  0  0  0
    7.7022  -15.2706   18.9609 N   0  0  0  0  0  0  0  0  0  0  0  0
    7.5385  -14.8328   21.3009 C   0  0  0  0  0  0  0  0  0  0  0  0
    8.8043  -14.7601   21.2998 O   0  0  0  0  0  0  0  0  0  0  0  0
    6.9842  -11.4043   28.4642 C   0  0  0  0  0  0  0  0  0  0  0  0
    6.2308  -11.9184   26.9116 S   0  0  0  0  0  0  0  0  0  0  0  0
    7.3193  -12.9173   25.8977 C   0  0  0  0  0  0  0  0  0  0  0  0
    6.7160  -13.3265   24.5922 C   0  0  0  0  0  0  0  0  0  0  0  0
    7.6415  -14.1025   23.7047 C   0  0  2  0  0  0  0  0  0  0  0  0
    6.8776  -14.4316   22.4919 N   0  0  0  0  0  0  0  0  0  0  0  0
    8.2205  -15.2903   24.3223 C   0  0  0  0  0  0  0  0  0  0  0  0
    7.4711  -16.1809   24.7795 O   0  0  0  0  0  0  0  0  0  0  0  0
    9.6203  -15.4788   24.4266 N   0  0  0  0  0  0  0  0  0  0  0  0
   10.2059  -16.6175   25.1164 C   0  0  0  0  0  0  0  0  0  0  0  0
   11.6621  -16.6170   25.0784 C   0  0  0  0  0  0  0  0  0  0  0  0
   12.2793  -15.7643   24.4058 O   0  0  0  0  0  0  0  0  0  0  0  0
   12.3804  -17.5601   25.7861 O   0  0  0  0  0  0  0  0  0  0  0  0
  1  2  1  0
  2  3  1  0
  3  4  1  6
  5  3  1  0
  6  5  2  0
  7  8  1  0
  9 10  1  0
  9  8  1  0
 11 10  1  1
 11 13  1  0
 11 12  1  0
 12  5  1  0
 13 15  1  0
 14 13  2  0
 15 16  1  0
 17 19  1  0
 17 16  1  0
 18 17  2  0
M  END
$$$$
