SMG.pdb
     RDKit          3D

 19 18  0  0  1  0  0  0  0  0999 V2000
    7.2306  -17.7334   19.3014 O   0  0  0  0  0  0  0  0  0  0  0  0
    8.3780  -17.3691   20.0080 C   0  0  0  0  0  0  0  0  0  0  0  0
    8.3798  -15.8581   20.1153 C   0  0  2  0  0  0  0  0  0  0  0  0
    9.4045  -15.3767   19.2068 N   0  0  0  0  0  0  0  0  0  0  0  0
    8.6799  -15.3918   21.4803 C   0  0  0  0  0  0  0  0  0  0  0  0
    9.8620  -15.0672   21.8038 O   0  0  0  0  0  0  0  0  0  0  0  0
    7.7684  -11.6316   27.7291 C   0  0  0  0  0  0  0  0  0  0  0  0
    7.5815  -12.1765   26.0230 S   0  0  0  0  0  0  0  0  0  0  0  0
    6.9566  -13.8500   25.8828 C   0  0  0  0  0  0  0  0  0  0  0  0
    6.7923  -14.3131   24.4707 C   0  0  0  0  0  0  0  0  0  0  0  0
    8.0448  -14.8586   23.8540 C   0  0  2  0  0  0  0  0  0  0  0  0
    7.6887  -15.2803   22.4908 N   0  0  0  0  0  0  0  0  0  0  0  0
    8.6742  -15.9356   24.6099 C   0  0  0  0  0  0  0  0  0  0  0  0
    8.1195  -17.0543   24.6769 O   0  0  0  0  0  0  0  0  0  0  0  0
    9.9087  -15.7626   25.2821 N   0  0  0  0  0  0  0  0  0  0  0  0
   10.6004  -16.8598   25.9401 C   0  0  0  0  0  0  0  0  0  0  0  0
   10.1642  -17.0632   27.3149 C   0  0  0  0  0  0  0  0  0  0  0  0
    8.9892  -16.8071   27.6526 O   0  0  0  0  0  0  0  0  0  0  0  0
   11.0449  -17.5423   28.2643 O   0  0  0  0  0  0  0  0  0  0  0  0
  1  2  1  0
  2  3  1  0
  3  4  1  6
  5  3  1  0
  6  5  2  0
  7  8  1  0
  9 10  1  0
  9  8  1  0
 11 10  1  1
 11 13  1  0
 11 12  1  0
 12  5  1  0
 13 15  1  0
 14 13  2  0
 15 16  1  0
 17 19  1  0
 17 16  1  0
 18 17  2  0
M  END
$$$$
