SMG.pdb
     RDKit          3D

 19 18  0  0  1  0  0  0  0  0999 V2000
    9.0140  -17.8968   21.5413 O   0  0  0  0  0  0  0  0  0  0  0  0
    7.6867  -17.5989   21.2281 C   0  0  0  0  0  0  0  0  0  0  0  0
    7.6040  -16.1047   20.9936 C   0  0  2  0  0  0  0  0  0  0  0  0
    8.4749  -15.8100   19.8703 N   0  0  0  0  0  0  0  0  0  0  0  0
    8.0401  -15.3265   22.1662 C   0  0  0  0  0  0  0  0  0  0  0  0
    9.0642  -14.5820   22.0994 O   0  0  0  0  0  0  0  0  0  0  0  0
    7.0925  -10.5952   27.5323 C   0  0  0  0  0  0  0  0  0  0  0  0
    6.7539  -11.7054   26.1556 S   0  0  0  0  0  0  0  0  0  0  0  0
    6.8987  -13.4365   26.5950 C   0  0  0  0  0  0  0  0  0  0  0  0
    6.6493  -14.3686   25.4529 C   0  0  0  0  0  0  0  0  0  0  0  0
    7.8324  -14.5696   24.5550 C   0  0  2  0  0  0  0  0  0  0  0  0
    7.3575  -15.3620   23.4107 N   0  0  0  0  0  0  0  0  0  0  0  0
    8.9869  -15.1840   25.2007 C   0  0  0  0  0  0  0  0  0  0  0  0
    9.6511  -14.5327   26.0365 O   0  0  0  0  0  0  0  0  0  0  0  0
    9.3928  -16.5103   24.9147 N   0  0  0  0  0  0  0  0  0  0  0  0
   10.5511  -17.1256   25.5432 C   0  0  0  0  0  0  0  0  0  0  0  0
   10.2455  -17.7226   26.8363 C   0  0  0  0  0  0  0  0  0  0  0  0
    9.1159  -17.5803   27.3502 O   0  0  0  0  0  0  0  0  0  0  0  0
   11.2015  -18.4545   27.5121 O   0  0  0  0  0  0  0  0  0  0  0  0
  1  2  1  0
  2  3  1  0
  3  4  1  6
  5  3  1  0
  6  5  2  0
  7  8  1  0
  9 10  1  0
  9  8  1  0
 11 10  1  1
 11 13  1  0
 11 12  1  0
 12  5  1  0
 13 15  1  0
 14 13  2  0
 15 16  1  0
 17 19  1  0
 17 16  1  0
 18 17  2  0
M  END
$$$$
