SMG.pdb
     RDKit          3D

 19 18  0  0  1  0  0  0  0  0999 V2000
    8.1118  -17.7717   20.3589 O   0  0  0  0  0  0  0  0  0  0  0  0
    7.4888  -16.6837   19.7454 C   0  0  0  0  0  0  0  0  0  0  0  0
    8.3536  -15.4666   20.0015 C   0  0  2  0  0  0  0  0  0  0  0  0
    9.6390  -15.7303   19.3807 N   0  0  0  0  0  0  0  0  0  0  0  0
    8.5498  -15.2086   21.4388 C   0  0  0  0  0  0  0  0  0  0  0  0
    9.6853  -15.3843   21.9747 O   0  0  0  0  0  0  0  0  0  0  0  0
    7.6599  -11.6495   27.8202 C   0  0  0  0  0  0  0  0  0  0  0  0
    7.6348  -12.0801   26.0720 S   0  0  0  0  0  0  0  0  0  0  0  0
    6.6124  -13.5072   25.7130 C   0  0  0  0  0  0  0  0  0  0  0  0
    6.5354  -13.8396   24.2573 C   0  0  0  0  0  0  0  0  0  0  0  0
    7.7358  -14.5652   23.7291 C   0  0  2  0  0  0  0  0  0  0  0  0
    7.5057  -14.7590   22.2895 N   0  0  0  0  0  0  0  0  0  0  0  0
    8.0320  -15.8223   24.4070 C   0  0  0  0  0  0  0  0  0  0  0  0
    7.1497  -16.7042   24.4940 O   0  0  0  0  0  0  0  0  0  0  0  0
    9.2994  -16.0888   24.9800 N   0  0  0  0  0  0  0  0  0  0  0  0
    9.6079  -17.3454   25.6441 C   0  0  0  0  0  0  0  0  0  0  0  0
   10.9465  -17.3708   26.2179 C   0  0  0  0  0  0  0  0  0  0  0  0
   11.7342  -16.4190   26.0342 O   0  0  0  0  0  0  0  0  0  0  0  0
   11.3630  -18.4488   26.9736 O   0  0  0  0  0  0  0  0  0  0  0  0
  1  2  1  0
  2  3  1  0
  3  4  1  6
  5  3  1  0
  6  5  2  0
  7  8  1  0
  9 10  1  0
  9  8  1  0
 11 10  1  1
 11 13  1  0
 11 12  1  0
 12  5  1  0
 13 15  1  0
 14 13  2  0
 15 16  1  0
 17 19  1  0
 17 16  1  0
 18 17  2  0
M  END
$$$$
