SMG.pdb
     RDKit          3D

 19 18  0  0  1  0  0  0  0  0999 V2000
    8.3789  -15.2126   18.8164 O   0  0  0  0  0  0  0  0  0  0  0  0
    7.1483  -14.5577   18.8877 C   0  0  0  0  0  0  0  0  0  0  0  0
    7.3612  -13.2843   19.6800 C   0  0  2  0  0  0  0  0  0  0  0  0
    8.3153  -12.4838   18.9344 N   0  0  0  0  0  0  0  0  0  0  0  0
    7.8918  -13.5440   21.0298 C   0  0  0  0  0  0  0  0  0  0  0  0
    9.1406  -13.5138   21.2468 O   0  0  0  0  0  0  0  0  0  0  0  0
    7.4727  -11.4381   27.9614 C   0  0  0  0  0  0  0  0  0  0  0  0
    6.2990  -12.2930   26.8965 S   0  0  0  0  0  0  0  0  0  0  0  0
    7.0608  -13.5588   25.8826 C   0  0  0  0  0  0  0  0  0  0  0  0
    6.6066  -13.5409   24.4582 C   0  0  0  0  0  0  0  0  0  0  0  0
    7.6298  -14.0366   23.4815 C   0  0  2  0  0  0  0  0  0  0  0  0
    7.0581  -13.8364   22.1413 N   0  0  0  0  0  0  0  0  0  0  0  0
    8.0516  -15.4168   23.6926 C   0  0  0  0  0  0  0  0  0  0  0  0
    7.2487  -16.3515   23.4795 O   0  0  0  0  0  0  0  0  0  0  0  0
    9.3555  -15.7465   24.1363 N   0  0  0  0  0  0  0  0  0  0  0  0
    9.7896  -17.1207   24.3331 C   0  0  0  0  0  0  0  0  0  0  0  0
   11.1762  -17.2215   24.7679 C   0  0  0  0  0  0  0  0  0  0  0  0
   12.1100  -17.0671   23.9528 O   0  0  0  0  0  0  0  0  0  0  0  0
   11.4771  -17.4894   26.0885 O   0  0  0  0  0  0  0  0  0  0  0  0
  1  2  1  0
  2  3  1  0
  3  4  1  6
  5  3  1  0
  6  5  2  0
  7  8  1  0
  9 10  1  0
  9  8  1  0
 11 10  1  1
 11 13  1  0
 11 12  1  0
 12  5  1  0
 13 15  1  0
 14 13  2  0
 15 16  1  0
 17 19  1  0
 17 16  1  0
 18 17  2  0
M  END
$$$$
