SMG.pdb
     RDKit          3D

 19 18  0  0  1  0  0  0  0  0999 V2000
    8.0094  -18.0931   21.3145 O   0  0  0  0  0  0  0  0  0  0  0  0
    7.3215  -17.0435   20.7035 C   0  0  0  0  0  0  0  0  0  0  0  0
    8.2645  -15.8593   20.6476 C   0  0  2  0  0  0  0  0  0  0  0  0
    9.3875  -16.2592   19.8192 N   0  0  0  0  0  0  0  0  0  0  0  0
    8.7561  -15.4687   21.9804 C   0  0  0  0  0  0  0  0  0  0  0  0
    9.9565  -15.7004   22.3165 O   0  0  0  0  0  0  0  0  0  0  0  0
    5.3077  -11.6642   26.6673 C   0  0  0  0  0  0  0  0  0  0  0  0
    7.0747  -11.3263   26.5895 S   0  0  0  0  0  0  0  0  0  0  0  0
    8.0399  -12.7420   26.0653 C   0  0  0  0  0  0  0  0  0  0  0  0
    7.6401  -13.2795   24.7286 C   0  0  0  0  0  0  0  0  0  0  0  0
    8.4808  -14.4248   24.2512 C   0  0  2  0  0  0  0  0  0  0  0  0
    7.9366  -14.8252   22.9449 N   0  0  0  0  0  0  0  0  0  0  0  0
    8.5565  -15.5494   25.1771 C   0  0  0  0  0  0  0  0  0  0  0  0
    7.5891  -16.3349   25.2811 O   0  0  0  0  0  0  0  0  0  0  0  0
    9.7005  -15.7915   25.9761 N   0  0  0  0  0  0  0  0  0  0  0  0
    9.7574  -16.8674   26.9531 C   0  0  0  0  0  0  0  0  0  0  0  0
   10.7306  -17.8954   26.6098 C   0  0  0  0  0  0  0  0  0  0  0  0
   10.9901  -18.8173   27.4118 O   0  0  0  0  0  0  0  0  0  0  0  0
   11.3801  -17.8646   25.3917 O   0  0  0  0  0  0  0  0  0  0  0  0
  1  2  1  0
  2  3  1  0
  3  4  1  6
  5  3  1  0
  6  5  2  0
  7  8  1  0
  9 10  1  0
  9  8  1  0
 11 10  1  1
 11 13  1  0
 11 12  1  0
 12  5  1  0
 13 15  1  0
 14 13  2  0
 15 16  1  0
 17 19  1  0
 17 16  1  0
 18 17  2  0
M  END
$$$$
