SMG.pdb
     RDKit          3D

 19 18  0  0  1  0  0  0  0  0999 V2000
    6.8235  -20.7430   23.1944 O   0  0  0  0  0  0  0  0  0  0  0  0
    6.7786  -19.8391   24.2571 C   0  0  0  0  0  0  0  0  0  0  0  0
    5.7915  -18.7528   23.8826 C   0  0  2  0  0  0  0  0  0  0  0  0
    5.3701  -19.0238   22.5201 N   0  0  0  0  0  0  0  0  0  0  0  0
    6.3850  -17.4060   23.9509 C   0  0  0  0  0  0  0  0  0  0  0  0
    6.9864  -16.9165   22.9478 O   0  0  0  0  0  0  0  0  0  0  0  0
    6.8081  -11.2511   24.8728 C   0  0  0  0  0  0  0  0  0  0  0  0
    6.6776  -11.9022   26.5465 S   0  0  0  0  0  0  0  0  0  0  0  0
    7.5441  -13.4550   26.7675 C   0  0  0  0  0  0  0  0  0  0  0  0
    6.7182  -14.6560   26.4343 C   0  0  0  0  0  0  0  0  0  0  0  0
    7.2690  -15.4888   25.3165 C   0  0  2  0  0  0  0  0  0  0  0  0
    6.3211  -16.5949   25.1145 N   0  0  0  0  0  0  0  0  0  0  0  0
    8.6290  -15.9700   25.5316 C   0  0  0  0  0  0  0  0  0  0  0  0
    9.0321  -16.1951   26.6938 O   0  0  0  0  0  0  0  0  0  0  0  0
    9.5263  -16.1965   24.4595 N   0  0  0  0  0  0  0  0  0  0  0  0
   10.9309  -16.5103   24.6694 C   0  0  0  0  0  0  0  0  0  0  0  0
   11.7730  -16.1253   23.5449 C   0  0  0  0  0  0  0  0  0  0  0  0
   11.2624  -15.7754   22.4599 O   0  0  0  0  0  0  0  0  0  0  0  0
   13.1485  -16.1420   23.6634 O   0  0  0  0  0  0  0  0  0  0  0  0
  1  2  1  0
  2  3  1  0
  3  4  1  6
  5  3  1  0
  6  5  2  0
  7  8  1  0
  9 10  1  0
  9  8  1  0
 11 10  1  1
 11 13  1  0
 11 12  1  0
 12  5  1  0
 13 15  1  0
 14 13  2  0
 15 16  1  0
 17 19  1  0
 17 16  1  0
 18 17  2  0
M  END
$$$$
