SMG.pdb
     RDKit          3D

 19 18  0  0  1  0  0  0  0  0999 V2000
    7.2363  -15.0381   18.8593 O   0  0  0  0  0  0  0  0  0  0  0  0
    8.0265  -14.5519   19.9021 C   0  0  0  0  0  0  0  0  0  0  0  0
    8.3970  -15.7334   20.7748 C   0  0  2  0  0  0  0  0  0  0  0  0
    7.2069  -16.5565   20.8895 N   0  0  0  0  0  0  0  0  0  0  0  0
    8.8378  -15.3229   22.1194 C   0  0  0  0  0  0  0  0  0  0  0  0
    9.8777  -14.6127   22.2664 O   0  0  0  0  0  0  0  0  0  0  0  0
    6.1898  -11.0196   26.4463 C   0  0  0  0  0  0  0  0  0  0  0  0
    7.1353  -12.5453   26.5900 S   0  0  0  0  0  0  0  0  0  0  0  0
    6.7838  -13.7174   25.2811 C   0  0  0  0  0  0  0  0  0  0  0  0
    7.4293  -15.0512   25.4803 C   0  0  0  0  0  0  0  0  0  0  0  0
    8.6387  -15.2817   24.6255 C   0  0  2  0  0  0  0  0  0  0  0  0
    8.1425  -15.6883   23.3022 N   0  0  0  0  0  0  0  0  0  0  0  0
    9.5914  -16.2434   25.1686 C   0  0  0  0  0  0  0  0  0  0  0  0
   10.0392  -16.0888   26.3260 O   0  0  0  0  0  0  0  0  0  0  0  0
   10.0372  -17.3638   24.4258 N   0  0  0  0  0  0  0  0  0  0  0  0
   10.9000  -18.3863   24.9963 C   0  0  0  0  0  0  0  0  0  0  0  0
   12.3092  -18.0187   24.9716 C   0  0  0  0  0  0  0  0  0  0  0  0
   12.7988  -17.4466   23.9750 O   0  0  0  0  0  0  0  0  0  0  0  0
   13.1238  -18.2981   26.0509 O   0  0  0  0  0  0  0  0  0  0  0  0
  1  2  1  0
  2  3  1  0
  3  4  1  1
  5  3  1  0
  6  5  2  0
  7  8  1  0
  9 10  1  0
  9  8  1  0
 11 10  1  1
 11 13  1  0
 11 12  1  0
 12  5  1  0
 13 15  1  0
 14 13  2  0
 15 16  1  0
 17 19  1  0
 17 16  1  0
 18 17  2  0
M  END
$$$$
