FVM.pdb
     RDKit          3D

 27 27  0  0  1  0  0  0  0  0999 V2000
    7.0839  -17.7670   26.3310 N   0  0  0  0  0  0  0  0  0  0  0  0
    6.4098  -17.4062   25.1005 C   0  0  1  0  0  0  0  0  0  0  0  0
    5.4483  -16.2714   25.4313 C   0  0  0  0  0  0  0  0  0  0  0  0
    6.1708  -15.1023   25.9888 C   0  0  0  0  0  0  0  0  0  0  0  0
    6.3152  -13.9572   25.2317 C   0  0  0  0  0  0  0  0  0  0  0  0
    6.9721  -12.8393   25.6834 C   0  0  0  0  0  0  0  0  0  0  0  0
    7.5138  -12.8612   26.9544 C   0  0  0  0  0  0  0  0  0  0  0  0
    7.3856  -13.9915   27.7345 C   0  0  0  0  0  0  0  0  0  0  0  0
    6.7203  -15.0974   27.2522 C   0  0  0  0  0  0  0  0  0  0  0  0
    7.4523  -16.9525   24.1374 C   0  0  0  0  0  0  0  0  0  0  0  0
    8.5789  -17.5186   24.0535 O   0  0  0  0  0  0  0  0  0  0  0  0
    8.7875  -14.4023   20.1533 C   0  0  0  0  0  0  0  0  0  0  0  0
    7.7749  -14.4910   21.2726 C   0  0  2  0  0  0  0  0  0  0  0  0
    7.7285  -13.1236   21.9250 C   0  0  0  0  0  0  0  0  0  0  0  0
    8.1873  -15.5626   22.1995 C   0  0  2  0  0  0  0  0  0  0  0  0
    7.2566  -15.8619   23.2537 N   0  0  0  0  0  0  0  0  0  0  0  0
    9.5066  -15.2040   22.8047 C   0  0  0  0  0  0  0  0  0  0  0  0
    9.9296  -14.0297   22.9298 O   0  0  0  0  0  0  0  0  0  0  0  0
    9.7495  -14.0125   28.0015 C   0  0  0  0  0  0  0  0  0  0  0  0
   11.4985  -14.0551   27.7544 S   0  0  0  0  0  0  0  0  0  0  0  0
   12.1159  -14.9518   26.3457 C   0  0  0  0  0  0  0  0  0  0  0  0
   11.0990  -15.1881   25.2723 C   0  0  0  0  0  0  0  0  0  0  0  0
   11.5638  -15.9184   24.0660 C   0  0  2  0  0  0  0  0  0  0  0  0
   10.3695  -16.2353   23.2824 N   0  0  0  0  0  0  0  0  0  0  0  0
   12.2713  -17.1884   24.3997 C   0  0  0  0  0  0  0  0  0  0  0  0
   11.7373  -18.3815   24.0085 O   0  0  0  0  0  0  0  0  0  0  0  0
   13.3620  -17.1952   25.0384 O   0  0  0  0  0  0  0  0  0  0  0  0
  2  1  1  1
  3  2  1  0
  4  5  2  0
  4  3  1  0
  6  5  1  0
  7  6  2  0
  8  7  1  0
  8  9  2  0
  9  4  1  0
 10 11  2  0
 10  2  1  0
 13 15  1  0
 13 12  1  6
 14 13  1  0
 15 16  1  1
 16 10  1  0
 17 15  1  0
 18 17  2  0
 19 20  1  0
 20 21  1  0
 23 22  1  1
 22 21  1  0
 23 24  1  0
 24 17  1  0
 25 26  1  0
 25 23  1  0
 27 25  2  0
M  END
$$$$
