FVM.pdb
     RDKit          3D

 27 27  0  0  1  0  0  0  0  0999 V2000
    6.9578  -18.1434   25.3785 N   0  0  0  0  0  0  0  0  0  0  0  0
    6.4324  -16.7933   25.3899 C   0  0  1  0  0  0  0  0  0  0  0  0
    7.0805  -16.0692   26.5635 C   0  0  0  0  0  0  0  0  0  0  0  0
    6.8699  -14.6040   26.4714 C   0  0  0  0  0  0  0  0  0  0  0  0
    5.6108  -14.0755   26.6729 C   0  0  0  0  0  0  0  0  0  0  0  0
    5.3435  -12.7306   26.6019 C   0  0  0  0  0  0  0  0  0  0  0  0
    6.3826  -11.8660   26.3156 C   0  0  0  0  0  0  0  0  0  0  0  0
    7.6519  -12.3648   26.1094 C   0  0  0  0  0  0  0  0  0  0  0  0
    7.8877  -13.7200   26.1875 C   0  0  0  0  0  0  0  0  0  0  0  0
    6.8140  -16.1553   24.0987 C   0  0  0  0  0  0  0  0  0  0  0  0
    6.2377  -15.1161   23.6686 O   0  0  0  0  0  0  0  0  0  0  0  0
    6.6641  -14.7163   21.3578 C   0  0  0  0  0  0  0  0  0  0  0  0
    7.9700  -14.5032   22.0893 C   0  0  2  0  0  0  0  0  0  0  0  0
    8.8275  -13.6255   21.1995 C   0  0  0  0  0  0  0  0  0  0  0  0
    8.5776  -15.8194   22.3653 C   0  0  2  0  0  0  0  0  0  0  0  0
    7.8422  -16.6643   23.2667 N   0  0  0  0  0  0  0  0  0  0  0  0
    9.9565  -15.6168   22.9067 C   0  0  0  0  0  0  0  0  0  0  0  0
   10.8836  -15.0483   22.2814 O   0  0  0  0  0  0  0  0  0  0  0  0
   10.4852  -14.6622   29.2635 C   0  0  0  0  0  0  0  0  0  0  0  0
   10.7292  -13.5570   27.9066 S   0  0  0  0  0  0  0  0  0  0  0  0
   10.7087  -14.2429   26.2637 C   0  0  0  0  0  0  0  0  0  0  0  0
   11.5704  -15.4554   26.0919 C   0  0  0  0  0  0  0  0  0  0  0  0
   11.6496  -16.0255   24.7233 C   0  0  2  0  0  0  0  0  0  0  0  0
   10.2788  -16.0863   24.2152 N   0  0  0  0  0  0  0  0  0  0  0  0
   12.2307  -17.3991   24.7052 C   0  0  0  0  0  0  0  0  0  0  0  0
   11.4668  -18.4498   24.2880 O   0  0  0  0  0  0  0  0  0  0  0  0
   13.4212  -17.6235   25.0661 O   0  0  0  0  0  0  0  0  0  0  0  0
  2  1  1  6
  3  2  1  0
  4  5  2  0
  4  3  1  0
  6  5  1  0
  7  6  2  0
  8  7  1  0
  8  9  2  0
  9  4  1  0
 10 11  2  0
 10  2  1  0
 13 15  1  0
 13 12  1  6
 14 13  1  0
 15 16  1  1
 16 10  1  0
 17 15  1  0
 18 17  2  0
 19 20  1  0
 20 21  1  0
 23 22  1  1
 22 21  1  0
 23 24  1  0
 24 17  1  0
 25 26  1  0
 25 23  1  0
 27 25  2  0
M  END
$$$$
