FVM.pdb
     RDKit          3D

 27 27  0  0  1  0  0  0  0  0999 V2000
    5.6303  -18.1714   25.2392 N   0  0  0  0  0  0  0  0  0  0  0  0
    6.1645  -16.8266   25.1693 C   0  0  1  0  0  0  0  0  0  0  0  0
    6.7981  -16.5243   26.5217 C   0  0  0  0  0  0  0  0  0  0  0  0
    7.2520  -15.1144   26.5975 C   0  0  0  0  0  0  0  0  0  0  0  0
    8.5696  -14.8001   26.3318 C   0  0  0  0  0  0  0  0  0  0  0  0
    9.0584  -13.5182   26.3841 C   0  0  0  0  0  0  0  0  0  0  0  0
    8.1917  -12.4951   26.7181 C   0  0  0  0  0  0  0  0  0  0  0  0
    6.8693  -12.7784   26.9890 C   0  0  0  0  0  0  0  0  0  0  0  0
    6.4094  -14.0757   26.9280 C   0  0  0  0  0  0  0  0  0  0  0  0
    7.1904  -16.8098   24.0889 C   0  0  0  0  0  0  0  0  0  0  0  0
    7.9593  -17.7905   23.8796 O   0  0  0  0  0  0  0  0  0  0  0  0
    8.0871  -13.3798   21.5077 C   0  0  0  0  0  0  0  0  0  0  0  0
    8.1916  -14.8238   21.0719 C   0  0  2  0  0  0  0  0  0  0  0  0
    6.8910  -15.1604   20.3700 C   0  0  0  0  0  0  0  0  0  0  0  0
    8.4423  -15.6598   22.2618 C   0  0  2  0  0  0  0  0  0  0  0  0
    7.3761  -15.7013   23.2255 N   0  0  0  0  0  0  0  0  0  0  0  0
    9.6889  -15.1859   22.9378 C   0  0  0  0  0  0  0  0  0  0  0  0
    9.9888  -13.9786   23.0989 O   0  0  0  0  0  0  0  0  0  0  0  0
    9.1571  -14.7235   28.3905 C   0  0  0  0  0  0  0  0  0  0  0  0
   10.2810  -13.5424   27.7093 S   0  0  0  0  0  0  0  0  0  0  0  0
   11.0368  -13.9236   26.1430 C   0  0  0  0  0  0  0  0  0  0  0  0
   10.7788  -15.3164   25.6576 C   0  0  0  0  0  0  0  0  0  0  0  0
   11.5785  -15.7727   24.4929 C   0  0  2  0  0  0  0  0  0  0  0  0
   10.6233  -16.1371   23.4461 N   0  0  0  0  0  0  0  0  0  0  0  0
   12.4250  -16.9602   24.8062 C   0  0  0  0  0  0  0  0  0  0  0  0
   11.9668  -18.2118   24.5145 O   0  0  0  0  0  0  0  0  0  0  0  0
   13.5661  -16.8432   25.3374 O   0  0  0  0  0  0  0  0  0  0  0  0
  2  1  1  1
  3  2  1  0
  4  5  2  0
  4  3  1  0
  6  5  1  0
  7  6  2  0
  8  7  1  0
  8  9  2  0
  9  4  1  0
 10 11  2  0
 10  2  1  0
 13 15  1  0
 13 12  1  1
 14 13  1  0
 15 16  1  1
 16 10  1  0
 17 15  1  0
 18 17  2  0
 19 20  1  0
 20 21  1  0
 23 22  1  1
 22 21  1  0
 23 24  1  0
 24 17  1  0
 25 26  1  0
 25 23  1  0
 27 25  2  0
M  END
$$$$
