FVM.pdb
     RDKit          3D

 27 27  0  0  1  0  0  0  0  0999 V2000
    7.9022  -17.2375   20.0607 N   0  0  0  0  0  0  0  0  0  0  0  0
    8.8253  -16.4389   20.8410 C   0  0  1  0  0  0  0  0  0  0  0  0
    8.0695  -15.1974   21.2982 C   0  0  0  0  0  0  0  0  0  0  0  0
    7.8901  -14.2380   20.1817 C   0  0  0  0  0  0  0  0  0  0  0  0
    8.9080  -13.3654   19.8534 C   0  0  0  0  0  0  0  0  0  0  0  0
    8.8104  -12.4512   18.8337 C   0  0  0  0  0  0  0  0  0  0  0  0
    7.6392  -12.4019   18.1021 C   0  0  0  0  0  0  0  0  0  0  0  0
    6.6044  -13.2614   18.4068 C   0  0  0  0  0  0  0  0  0  0  0  0
    6.7335  -14.1677   19.4364 C   0  0  0  0  0  0  0  0  0  0  0  0
    9.2485  -17.2609   22.0095 C   0  0  0  0  0  0  0  0  0  0  0  0
    8.4234  -17.9363   22.6877 O   0  0  0  0  0  0  0  0  0  0  0  0
   12.2254  -19.6991   22.8896 C   0  0  0  0  0  0  0  0  0  0  0  0
   12.2402  -18.5267   23.8441 C   0  0  2  0  0  0  0  0  0  0  0  0
   12.5119  -19.0934   25.2234 C   0  0  0  0  0  0  0  0  0  0  0  0
   10.9459  -17.8240   23.7500 C   0  0  2  0  0  0  0  0  0  0  0  0
   10.5959  -17.3432   22.4410 N   0  0  0  0  0  0  0  0  0  0  0  0
   10.9440  -16.6740   24.7056 C   0  0  0  0  0  0  0  0  0  0  0  0
   11.7565  -15.7192   24.6622 O   0  0  0  0  0  0  0  0  0  0  0  0
    6.5811  -11.3086   28.0216 C   0  0  0  0  0  0  0  0  0  0  0  0
    6.9631  -12.6934   26.9928 S   0  0  0  0  0  0  0  0  0  0  0  0
    8.2637  -13.7874   27.5233 C   0  0  0  0  0  0  0  0  0  0  0  0
    8.6084  -14.8586   26.5354 C   0  0  0  0  0  0  0  0  0  0  0  0
    9.9352  -15.5059   26.6933 C   0  0  2  0  0  0  0  0  0  0  0  0
    9.9714  -16.6225   25.7484 N   0  0  0  0  0  0  0  0  0  0  0  0
   10.1574  -16.0337   28.0706 C   0  0  0  0  0  0  0  0  0  0  0  0
   10.5746  -15.1895   29.0580 O   0  0  0  0  0  0  0  0  0  0  0  0
    9.9681  -17.2504   28.3561 O   0  0  0  0  0  0  0  0  0  0  0  0
  2  1  1  6
  3  2  1  0
  4  5  2  0
  4  3  1  0
  6  5  1  0
  7  6  2  0
  8  7  1  0
  8  9  2  0
  9  4  1  0
 10 11  2  0
 10  2  1  0
 13 15  1  0
 13 12  1  6
 14 13  1  0
 15 16  1  6
 16 10  1  0
 17 15  1  0
 18 17  2  0
 19 20  1  0
 20 21  1  0
 23 22  1  1
 22 21  1  0
 23 24  1  0
 24 17  1  0
 25 26  1  0
 25 23  1  0
 27 25  2  0
M  END
$$$$
