FVM.pdb
     RDKit          3D

 27 27  0  0  1  0  0  0  0  0999 V2000
    6.1054  -18.5007   25.0425 N   0  0  0  0  0  0  0  0  0  0  0  0
    6.2856  -17.0669   24.9406 C   0  0  1  0  0  0  0  0  0  0  0  0
    6.5790  -16.5503   26.3437 C   0  0  0  0  0  0  0  0  0  0  0  0
    6.3006  -15.0974   26.4489 C   0  0  0  0  0  0  0  0  0  0  0  0
    4.9986  -14.6411   26.4057 C   0  0  0  0  0  0  0  0  0  0  0  0
    4.6681  -13.3115   26.4961 C   0  0  0  0  0  0  0  0  0  0  0  0
    5.6856  -12.3873   26.6369 C   0  0  0  0  0  0  0  0  0  0  0  0
    6.9967  -12.8133   26.6832 C   0  0  0  0  0  0  0  0  0  0  0  0
    7.2955  -14.1550   26.5898 C   0  0  0  0  0  0  0  0  0  0  0  0
    7.4442  -16.8262   24.0352 C   0  0  0  0  0  0  0  0  0  0  0  0
    8.3606  -17.6819   23.8777 O   0  0  0  0  0  0  0  0  0  0  0  0
    8.5478  -13.0780   22.1011 C   0  0  0  0  0  0  0  0  0  0  0  0
    8.4039  -14.3713   21.3313 C   0  0  2  0  0  0  0  0  0  0  0  0
    7.0270  -14.3484   20.6981 C   0  0  0  0  0  0  0  0  0  0  0  0
    8.5958  -15.4997   22.2626 C   0  0  2  0  0  0  0  0  0  0  0  0
    7.6005  -15.6296   23.2920 N   0  0  0  0  0  0  0  0  0  0  0  0
    9.9422  -15.3816   22.9021 C   0  0  0  0  0  0  0  0  0  0  0  0
   10.5701  -14.3032   23.0304 O   0  0  0  0  0  0  0  0  0  0  0  0
   11.3573  -12.7169   27.3671 C   0  0  0  0  0  0  0  0  0  0  0  0
   11.9536  -14.3230   27.7992 S   0  0  0  0  0  0  0  0  0  0  0  0
   12.4411  -15.4107   26.4766 C   0  0  0  0  0  0  0  0  0  0  0  0
   11.4122  -15.5712   25.4006 C   0  0  0  0  0  0  0  0  0  0  0  0
   11.7783  -16.4437   24.2564 C   0  0  2  0  0  0  0  0  0  0  0  0
   10.5881  -16.5475   23.4116 N   0  0  0  0  0  0  0  0  0  0  0  0
   12.1853  -17.8133   24.6846 C   0  0  0  0  0  0  0  0  0  0  0  0
   13.4054  -18.0046   25.2646 O   0  0  0  0  0  0  0  0  0  0  0  0
   11.4277  -18.8129   24.5276 O   0  0  0  0  0  0  0  0  0  0  0  0
  2  1  1  1
  3  2  1  0
  4  5  2  0
  4  3  1  0
  6  5  1  0
  7  6  2  0
  8  7  1  0
  8  9  2  0
  9  4  1  0
 10 11  2  0
 10  2  1  0
 13 15  1  0
 13 12  1  1
 14 13  1  0
 15 16  1  1
 16 10  1  0
 17 15  1  0
 18 17  2  0
 19 20  1  0
 20 21  1  0
 23 22  1  1
 22 21  1  0
 23 24  1  0
 24 17  1  0
 25 26  1  0
 25 23  1  0
 27 25  2  0
M  END
$$$$
