GMM.pdb
     RDKit          3D

 21 20  0  0  1  0  0  0  0  0999 V2000
   10.0581  -15.2559   19.8894 N   0  0  0  0  0  0  0  0  0  0  0  0
    9.1975  -16.1461   20.6409 C   0  0  0  0  0  0  0  0  0  0  0  0
    9.2831  -15.7944   22.0710 C   0  0  0  0  0  0  0  0  0  0  0  0
   10.2310  -15.0961   22.4963 O   0  0  0  0  0  0  0  0  0  0  0  0
    6.1444  -11.8590   25.9654 C   0  0  0  0  0  0  0  0  0  0  0  0
    6.9902  -13.4475   26.0756 S   0  0  0  0  0  0  0  0  0  0  0  0
    6.3108  -14.6533   24.8881 C   0  0  0  0  0  0  0  0  0  0  0  0
    7.0515  -15.9421   25.0051 C   0  0  0  0  0  0  0  0  0  0  0  0
    8.4435  -15.9231   24.4561 C   0  0  2  0  0  0  0  0  0  0  0  0
    8.3301  -16.2073   23.0380 N   0  0  0  0  0  0  0  0  0  0  0  0
    9.3851  -16.8108   25.1158 C   0  0  0  0  0  0  0  0  0  0  0  0
    9.4727  -18.0137   24.7994 O   0  0  0  0  0  0  0  0  0  0  0  0
   10.1365  -13.5492   29.8809 C   0  0  0  0  0  0  0  0  0  0  0  0
   10.6231  -14.0102   28.2284 S   0  0  0  0  0  0  0  0  0  0  0  0
   11.9527  -15.1805   28.0772 C   0  0  0  0  0  0  0  0  0  0  0  0
   11.6022  -16.6160   28.1366 C   0  0  0  0  0  0  0  0  0  0  0  0
   11.1809  -17.2347   26.8511 C   0  0  2  0  0  0  0  0  0  0  0  0
   10.2366  -16.3429   26.1406 N   0  0  0  0  0  0  0  0  0  0  0  0
   10.4081  -18.4803   27.1605 C   0  0  0  0  0  0  0  0  0  0  0  0
   11.0510  -19.5336   27.4244 O   0  0  0  0  0  0  0  0  0  0  0  0
    9.0363  -18.5367   27.1715 O   0  0  0  0  0  0  0  0  0  0  0  0
  1  2  1  0
  2  3  1  0
  3  4  2  0
  6  5  1  0
  7  6  1  0
  8  7  1  0
  9  8  1  1
  9 11  1  0
 10  9  1  0
 10  3  1  0
 11 12  2  0
 13 14  1  0
 15 14  1  0
 16 15  1  0
 17 16  1  1
 18 11  1  0
 18 17  1  0
 19 17  1  0
 19 21  1  0
 20 19  2  0
M  END
$$$$
