GMM.pdb
     RDKit          3D

 21 20  0  0  1  0  0  0  0  0999 V2000
    8.9418  -16.3440   19.0200 N   0  0  0  0  0  0  0  0  0  0  0  0
    8.5632  -17.1551   20.1586 C   0  0  0  0  0  0  0  0  0  0  0  0
    8.6976  -16.3453   21.3844 C   0  0  0  0  0  0  0  0  0  0  0  0
    9.5760  -15.4570   21.4640 O   0  0  0  0  0  0  0  0  0  0  0  0
    7.4210  -11.9565   24.6597 C   0  0  0  0  0  0  0  0  0  0  0  0
    6.3516  -13.2139   25.3849 S   0  0  0  0  0  0  0  0  0  0  0  0
    5.9010  -14.4950   24.1676 C   0  0  0  0  0  0  0  0  0  0  0  0
    6.6985  -15.7290   24.4220 C   0  0  0  0  0  0  0  0  0  0  0  0
    8.0395  -15.7626   23.7588 C   0  0  2  0  0  0  0  0  0  0  0  0
    7.8698  -16.5076   22.5256 N   0  0  0  0  0  0  0  0  0  0  0  0
    9.1221  -16.2917   24.5699 C   0  0  0  0  0  0  0  0  0  0  0  0
    9.5499  -17.4511   24.4035 O   0  0  0  0  0  0  0  0  0  0  0  0
   11.0983  -13.2429   30.4217 C   0  0  0  0  0  0  0  0  0  0  0  0
   11.6531  -14.9365   30.3607 S   0  0  0  0  0  0  0  0  0  0  0  0
   11.7965  -15.6796   28.7521 C   0  0  0  0  0  0  0  0  0  0  0  0
   10.8856  -15.1893   27.6952 C   0  0  0  0  0  0  0  0  0  0  0  0
   10.7444  -16.0663   26.5020 C   0  0  2  0  0  0  0  0  0  0  0  0
    9.7302  -15.5111   25.5775 N   0  0  0  0  0  0  0  0  0  0  0  0
   10.2026  -17.3884   26.9525 C   0  0  0  0  0  0  0  0  0  0  0  0
    8.9666  -17.4789   27.1908 O   0  0  0  0  0  0  0  0  0  0  0  0
   10.9801  -18.5075   27.1204 O   0  0  0  0  0  0  0  0  0  0  0  0
  1  2  1  0
  2  3  1  0
  3  4  2  0
  6  5  1  0
  7  6  1  0
  8  7  1  0
  9  8  1  1
  9 11  1  0
 10  9  1  0
 10  3  1  0
 11 12  2  0
 13 14  1  0
 15 14  1  0
 16 15  1  0
 17 16  1  1
 18 11  1  0
 18 17  1  0
 19 17  1  0
 19 21  1  0
 20 19  2  0
M  END
$$$$
