GMM.pdb
     RDKit          3D

 21 20  0  0  1  0  0  0  0  0999 V2000
    9.2467  -16.8437   19.2690 N   0  0  0  0  0  0  0  0  0  0  0  0
    8.2787  -16.9869   20.3367 C   0  0  0  0  0  0  0  0  0  0  0  0
    8.7348  -16.2025   21.4998 C   0  0  0  0  0  0  0  0  0  0  0  0
    9.9155  -15.7914   21.5634 O   0  0  0  0  0  0  0  0  0  0  0  0
    6.1078  -11.5733   27.3398 C   0  0  0  0  0  0  0  0  0  0  0  0
    5.8371  -12.7691   26.0179 S   0  0  0  0  0  0  0  0  0  0  0  0
    7.4066  -13.4930   25.4359 C   0  0  0  0  0  0  0  0  0  0  0  0
    7.1374  -14.4278   24.3059 C   0  0  0  0  0  0  0  0  0  0  0  0
    8.3459  -15.1161   23.7534 C   0  0  2  0  0  0  0  0  0  0  0  0
    7.8981  -15.8672   22.5959 N   0  0  0  0  0  0  0  0  0  0  0  0
    9.0728  -15.9494   24.6953 C   0  0  0  0  0  0  0  0  0  0  0  0
    8.8072  -17.1604   24.8286 O   0  0  0  0  0  0  0  0  0  0  0  0
   10.8635  -15.1752   30.5215 C   0  0  0  0  0  0  0  0  0  0  0  0
   10.8209  -13.8184   29.3651 S   0  0  0  0  0  0  0  0  0  0  0  0
   11.0817  -14.2124   27.6513 C   0  0  0  0  0  0  0  0  0  0  0  0
   11.6891  -15.5249   27.3422 C   0  0  0  0  0  0  0  0  0  0  0  0
   11.0669  -16.2800   26.2217 C   0  0  2  0  0  0  0  0  0  0  0  0
   10.1080  -15.4173   25.4951 N   0  0  0  0  0  0  0  0  0  0  0  0
   10.2511  -17.3944   26.8023 C   0  0  0  0  0  0  0  0  0  0  0  0
   10.8481  -18.3005   27.4466 O   0  0  0  0  0  0  0  0  0  0  0  0
    8.8873  -17.4825   26.6699 O   0  0  0  0  0  0  0  0  0  0  0  0
  1  2  1  0
  2  3  1  0
  3  4  2  0
  6  5  1  0
  7  6  1  0
  8  7  1  0
  9  8  1  1
  9 11  1  0
 10  9  1  0
 10  3  1  0
 11 12  2  0
 13 14  1  0
 15 14  1  0
 16 15  1  0
 17 16  1  1
 18 11  1  0
 18 17  1  0
 19 17  1  0
 19 21  1  0
 20 19  2  0
M  END
$$$$
