GMM.pdb
     RDKit          3D

 21 20  0  0  1  0  0  0  0  0999 V2000
    8.2549  -18.0805   19.2919 N   0  0  0  0  0  0  0  0  0  0  0  0
    7.7741  -18.1506   20.6563 C   0  0  0  0  0  0  0  0  0  0  0  0
    8.3077  -16.9987   21.4078 C   0  0  0  0  0  0  0  0  0  0  0  0
    9.4337  -16.5276   21.1302 O   0  0  0  0  0  0  0  0  0  0  0  0
    6.8258  -11.6960   27.0689 C   0  0  0  0  0  0  0  0  0  0  0  0
    6.4296  -13.1780   26.1218 S   0  0  0  0  0  0  0  0  0  0  0  0
    7.4891  -13.3343   24.6457 C   0  0  0  0  0  0  0  0  0  0  0  0
    7.0745  -14.5299   23.8570 C   0  0  0  0  0  0  0  0  0  0  0  0
    8.2014  -15.3700   23.3432 C   0  0  2  0  0  0  0  0  0  0  0  0
    7.6084  -16.3609   22.4651 N   0  0  0  0  0  0  0  0  0  0  0  0
    9.0398  -15.9774   24.3621 C   0  0  0  0  0  0  0  0  0  0  0  0
    8.5718  -16.7825   25.1914 O   0  0  0  0  0  0  0  0  0  0  0  0
    9.5290  -13.2532   29.2938 C   0  0  0  0  0  0  0  0  0  0  0  0
   10.9479  -14.3252   29.4261 S   0  0  0  0  0  0  0  0  0  0  0  0
   11.1372  -15.5694   28.1706 C   0  0  0  0  0  0  0  0  0  0  0  0
   10.5229  -15.3012   26.8524 C   0  0  0  0  0  0  0  0  0  0  0  0
   11.2006  -15.9215   25.6824 C   0  0  2  0  0  0  0  0  0  0  0  0
   10.4170  -15.6777   24.4502 N   0  0  0  0  0  0  0  0  0  0  0  0
   11.2032  -17.4072   25.8745 C   0  0  0  0  0  0  0  0  0  0  0  0
   10.4389  -18.1054   25.1528 O   0  0  0  0  0  0  0  0  0  0  0  0
   11.9933  -18.0500   26.7953 O   0  0  0  0  0  0  0  0  0  0  0  0
  1  2  1  0
  2  3  1  0
  3  4  2  0
  6  5  1  0
  7  6  1  0
  8  7  1  0
  9  8  1  1
  9 11  1  0
 10  9  1  0
 10  3  1  0
 11 12  2  0
 13 14  1  0
 15 14  1  0
 16 15  1  0
 17 16  1  1
 18 11  1  0
 18 17  1  0
 19 17  1  0
 19 21  1  0
 20 19  2  0
M  END
$$$$
