GMM.pdb
     RDKit          3D

 21 20  0  0  1  0  0  0  0  0999 V2000
    5.8397  -19.2385   21.1461 N   0  0  0  0  0  0  0  0  0  0  0  0
    5.8217  -18.9554   22.5664 C   0  0  0  0  0  0  0  0  0  0  0  0
    6.6001  -17.7273   22.8158 C   0  0  0  0  0  0  0  0  0  0  0  0
    7.4625  -17.3454   21.9927 O   0  0  0  0  0  0  0  0  0  0  0  0
    6.0692  -11.1259   25.6442 C   0  0  0  0  0  0  0  0  0  0  0  0
    6.2883  -12.6196   26.6297 S   0  0  0  0  0  0  0  0  0  0  0  0
    7.3985  -13.8097   25.8068 C   0  0  0  0  0  0  0  0  0  0  0  0
    6.5948  -14.9220   25.2233 C   0  0  0  0  0  0  0  0  0  0  0  0
    7.3640  -15.8722   24.3603 C   0  0  2  0  0  0  0  0  0  0  0  0
    6.4351  -16.9151   23.9678 N   0  0  0  0  0  0  0  0  0  0  0  0
    8.5724  -16.4153   24.9558 C   0  0  0  0  0  0  0  0  0  0  0  0
    8.5208  -17.2644   25.8675 O   0  0  0  0  0  0  0  0  0  0  0  0
   10.5238  -13.0596   29.2418 C   0  0  0  0  0  0  0  0  0  0  0  0
   11.4105  -14.6057   29.2985 S   0  0  0  0  0  0  0  0  0  0  0  0
   11.7612  -15.3906   27.7424 C   0  0  0  0  0  0  0  0  0  0  0  0
   10.6823  -15.4027   26.7310 C   0  0  0  0  0  0  0  0  0  0  0  0
   11.0297  -16.0118   25.4190 C   0  0  2  0  0  0  0  0  0  0  0  0
    9.8512  -16.0007   24.5231 N   0  0  0  0  0  0  0  0  0  0  0  0
   11.3554  -17.4567   25.6436 C   0  0  0  0  0  0  0  0  0  0  0  0
   10.4246  -18.2322   25.9965 O   0  0  0  0  0  0  0  0  0  0  0  0
   12.6141  -17.9821   25.4861 O   0  0  0  0  0  0  0  0  0  0  0  0
  1  2  1  0
  2  3  1  0
  3  4  2  0
  6  5  1  0
  7  6  1  0
  8  7  1  0
  9  8  1  1
  9 11  1  0
 10  9  1  0
 10  3  1  0
 11 12  2  0
 13 14  1  0
 15 14  1  0
 16 15  1  0
 17 16  1  1
 18 11  1  0
 18 17  1  0
 19 17  1  0
 19 21  1  0
 20 19  2  0
M  END
$$$$
