GMM.pdb
     RDKit          3D

 21 20  0  0  1  0  0  0  0  0999 V2000
    7.7542  -17.1011   19.3663 N   0  0  0  0  0  0  0  0  0  0  0  0
    7.0304  -16.6980   20.5543 C   0  0  0  0  0  0  0  0  0  0  0  0
    7.9423  -15.9398   21.4317 C   0  0  0  0  0  0  0  0  0  0  0  0
    9.1571  -15.8383   21.1470 O   0  0  0  0  0  0  0  0  0  0  0  0
    6.9340  -10.9984   25.9488 C   0  0  0  0  0  0  0  0  0  0  0  0
    5.8327  -12.4247   25.8921 S   0  0  0  0  0  0  0  0  0  0  0  0
    6.6579  -13.8815   25.1692 C   0  0  0  0  0  0  0  0  0  0  0  0
    7.5911  -13.4440   24.0916 C   0  0  0  0  0  0  0  0  0  0  0  0
    8.4142  -14.5372   23.4860 C   0  0  2  0  0  0  0  0  0  0  0  0
    7.5249  -15.2915   22.6231 N   0  0  0  0  0  0  0  0  0  0  0  0
    9.1079  -15.3921   24.4336 C   0  0  0  0  0  0  0  0  0  0  0  0
    8.5310  -16.3498   24.9857 O   0  0  0  0  0  0  0  0  0  0  0  0
   10.0928  -13.5109   29.8684 C   0  0  0  0  0  0  0  0  0  0  0  0
   10.8216  -14.7070   28.7647 S   0  0  0  0  0  0  0  0  0  0  0  0
    9.7254  -15.5333   27.6351 C   0  0  0  0  0  0  0  0  0  0  0  0
   10.3127  -16.5645   26.7527 C   0  0  0  0  0  0  0  0  0  0  0  0
   11.2100  -16.0635   25.6771 C   0  0  2  0  0  0  0  0  0  0  0  0
   10.4626  -15.1691   24.7643 N   0  0  0  0  0  0  0  0  0  0  0  0
   11.6382  -17.2307   24.8412 C   0  0  0  0  0  0  0  0  0  0  0  0
   11.2483  -17.2832   23.6421 O   0  0  0  0  0  0  0  0  0  0  0  0
   12.4325  -18.2472   25.3111 O   0  0  0  0  0  0  0  0  0  0  0  0
  1  2  1  0
  2  3  1  0
  3  4  2  0
  6  5  1  0
  7  6  1  0
  8  7  1  0
  9  8  1  1
  9 11  1  0
 10  9  1  0
 10  3  1  0
 11 12  2  0
 13 14  1  0
 15 14  1  0
 16 15  1  0
 17 16  1  1
 18 11  1  0
 18 17  1  0
 19 17  1  0
 19 21  1  0
 20 19  2  0
M  END
$$$$
