GMM.pdb
     RDKit          3D

 21 20  0  0  1  0  0  0  0  0999 V2000
    8.8520  -15.8406   19.2184 N   0  0  0  0  0  0  0  0  0  0  0  0
    8.2997  -16.5626   20.3459 C   0  0  0  0  0  0  0  0  0  0  0  0
    8.7647  -15.9249   21.5923 C   0  0  0  0  0  0  0  0  0  0  0  0
    9.9825  -15.6971   21.7715 O   0  0  0  0  0  0  0  0  0  0  0  0
    6.8413  -11.0088   25.6456 C   0  0  0  0  0  0  0  0  0  0  0  0
    6.2696  -12.5665   26.3506 S   0  0  0  0  0  0  0  0  0  0  0  0
    7.4227  -13.9315   25.9858 C   0  0  0  0  0  0  0  0  0  0  0  0
    7.1698  -14.4452   24.6090 C   0  0  0  0  0  0  0  0  0  0  0  0
    8.3550  -15.0655   23.9383 C   0  0  2  0  0  0  0  0  0  0  0  0
    7.8961  -15.5356   22.6448 N   0  0  0  0  0  0  0  0  0  0  0  0
    9.0203  -16.1128   24.6935 C   0  0  0  0  0  0  0  0  0  0  0  0
    8.7537  -17.3163   24.5063 O   0  0  0  0  0  0  0  0  0  0  0  0
    9.7442  -13.9247   30.0691 C   0  0  0  0  0  0  0  0  0  0  0  0
   10.3848  -14.3505   28.4603 S   0  0  0  0  0  0  0  0  0  0  0  0
   11.3919  -15.8117   28.3552 C   0  0  0  0  0  0  0  0  0  0  0  0
   11.9793  -16.1368   27.0376 C   0  0  0  0  0  0  0  0  0  0  0  0
   11.0568  -16.7624   26.0524 C   0  0  2  0  0  0  0  0  0  0  0  0
    9.9946  -15.8052   25.6685 N   0  0  0  0  0  0  0  0  0  0  0  0
   10.3533  -17.9011   26.7252 C   0  0  0  0  0  0  0  0  0  0  0  0
   11.0292  -18.9182   27.0434 O   0  0  0  0  0  0  0  0  0  0  0  0
    9.0109  -17.8970   27.0138 O   0  0  0  0  0  0  0  0  0  0  0  0
  1  2  1  0
  2  3  1  0
  3  4  2  0
  6  5  1  0
  7  6  1  0
  8  7  1  0
  9  8  1  1
  9 11  1  0
 10  9  1  0
 10  3  1  0
 11 12  2  0
 13 14  1  0
 15 14  1  0
 16 15  1  0
 17 16  1  1
 18 11  1  0
 18 17  1  0
 19 17  1  0
 19 21  1  0
 20 19  2  0
M  END
$$$$
