GMM.pdb
     RDKit          3D

 21 20  0  0  1  0  0  0  0  0999 V2000
    8.0233  -20.2734   20.6021 N   0  0  0  0  0  0  0  0  0  0  0  0
    7.4218  -19.1731   21.3269 C   0  0  0  0  0  0  0  0  0  0  0  0
    8.4010  -18.0736   21.4195 C   0  0  0  0  0  0  0  0  0  0  0  0
    9.6226  -18.2979   21.2628 O   0  0  0  0  0  0  0  0  0  0  0  0
    8.2983  -11.5572   19.5050 C   0  0  0  0  0  0  0  0  0  0  0  0
    7.0600  -12.8670   19.5427 S   0  0  0  0  0  0  0  0  0  0  0  0
    7.7962  -14.4739   19.9923 C   0  0  0  0  0  0  0  0  0  0  0  0
    8.3412  -14.4038   21.3785 C   0  0  0  0  0  0  0  0  0  0  0  0
    9.0061  -15.6549   21.8601 C   0  0  2  0  0  0  0  0  0  0  0  0
    8.0436  -16.7260   21.6842 N   0  0  0  0  0  0  0  0  0  0  0  0
    9.5213  -15.6033   23.2172 C   0  0  0  0  0  0  0  0  0  0  0  0
   10.7469  -15.5766   23.4448 O   0  0  0  0  0  0  0  0  0  0  0  0
    5.5853  -11.4140   26.7341 C   0  0  0  0  0  0  0  0  0  0  0  0
    6.6528  -12.7150   27.3238 S   0  0  0  0  0  0  0  0  0  0  0  0
    7.2017  -13.9106   26.1281 C   0  0  0  0  0  0  0  0  0  0  0  0
    8.0434  -15.0231   26.6190 C   0  0  0  0  0  0  0  0  0  0  0  0
    9.1480  -15.4476   25.7177 C   0  0  2  0  0  0  0  0  0  0  0  0
    8.6513  -15.5814   24.3295 N   0  0  0  0  0  0  0  0  0  0  0  0
    9.5861  -16.8207   26.1262 C   0  0  0  0  0  0  0  0  0  0  0  0
   10.1666  -16.9576   27.2384 O   0  0  0  0  0  0  0  0  0  0  0  0
    9.3898  -17.9388   25.3540 O   0  0  0  0  0  0  0  0  0  0  0  0
  1  2  1  0
  2  3  1  0
  3  4  2  0
  6  5  1  0
  7  6  1  0
  8  7  1  0
  9  8  1  1
  9 11  1  0
 10  9  1  0
 10  3  1  0
 11 12  2  0
 13 14  1  0
 15 14  1  0
 16 15  1  0
 17 16  1  1
 18 11  1  0
 18 17  1  0
 19 17  1  0
 19 21  1  0
 20 19  2  0
M  END
$$$$
