MQC.pdb
     RDKit          3D

 24 23  0  0  1  0  0  0  0  0999 V2000
    8.6862  -11.4983   20.0217 C   0  0  0  0  0  0  0  0  0  0  0  0
    7.6978  -12.4765   18.8347 S   0  0  0  0  0  0  0  0  0  0  0  0
    7.9934  -14.2256   19.2341 C   0  0  0  0  0  0  0  0  0  0  0  0
    7.7226  -14.4547   20.7254 C   0  0  0  0  0  0  0  0  0  0  0  0
    7.8902  -15.9561   20.9360 C   0  0  2  0  0  0  0  0  0  0  0  0
    6.7851  -16.6829   20.3386 N   0  0  0  0  0  0  0  0  0  0  0  0
    7.9024  -16.2224   22.4001 C   0  0  0  0  0  0  0  0  0  0  0  0
    6.8124  -16.2010   23.0638 O   0  0  0  0  0  0  0  0  0  0  0  0
   11.9126  -19.5016   25.5839 N   0  0  0  0  0  0  0  0  0  0  0  0
   11.2312  -18.9277   26.6777 C   0  0  0  0  0  0  0  0  0  0  0  0
   11.4793  -19.2062   27.8583 O   0  0  0  0  0  0  0  0  0  0  0  0
   10.1516  -17.9288   26.3813 C   0  0  0  0  0  0  0  0  0  0  0  0
   10.0401  -17.7102   24.9110 C   0  0  0  0  0  0  0  0  0  0  0  0
    9.0393  -16.6520   24.5897 C   0  0  2  0  0  0  0  0  0  0  0  0
    9.0768  -16.5061   23.1257 N   0  0  0  0  0  0  0  0  0  0  0  0
    9.2031  -15.3641   25.2543 C   0  0  0  0  0  0  0  0  0  0  0  0
   10.1859  -14.6298   25.0150 O   0  0  0  0  0  0  0  0  0  0  0  0
    8.2673  -14.8537   26.2132 N   0  0  0  0  0  0  0  0  0  0  0  0
    8.5324  -13.6182   26.9204 C   0  0  1  0  0  0  0  0  0  0  0  0
    7.2616  -12.8834   27.2774 C   0  0  0  0  0  0  0  0  0  0  0  0
    6.1704  -12.6357   25.8764 S   0  0  0  0  0  0  0  0  0  0  0  0
    9.2511  -13.8791   28.1824 C   0  0  0  0  0  0  0  0  0  0  0  0
    9.6559  -12.8604   29.0133 O   0  0  0  0  0  0  0  0  0  0  0  0
    9.4987  -15.0561   28.5049 O   0  0  0  0  0  0  0  0  0  0  0  0
  1  2  1  0
  3  2  1  0
  4  3  1  0
  5  6  1  6
  5  7  1  0
  5  4  1  0
  7  8  2  0
  7 15  1  0
 10  9  1  0
 11 10  2  0
 12 10  1  0
 13 12  1  0
 14 13  1  1
 15 14  1  0
 16 14  1  0
 17 16  2  0
 18 16  1  0
 19 22  1  0
 19 18  1  0
 20 21  1  0
 19 20  1  1
 22 23  1  0
 24 22  2  0
M  END
$$$$
