MQC.pdb
     RDKit          3D

 24 23  0  0  1  0  0  0  0  0999 V2000
    5.4715  -12.4331   25.9687 C   0  0  0  0  0  0  0  0  0  0  0  0
    6.5806  -13.4800   26.9768 S   0  0  0  0  0  0  0  0  0  0  0  0
    6.4766  -15.1584   26.2852 C   0  0  0  0  0  0  0  0  0  0  0  0
    5.9147  -15.0827   24.8610 C   0  0  0  0  0  0  0  0  0  0  0  0
    5.8335  -16.5299   24.3859 C   0  0  2  0  0  0  0  0  0  0  0  0
    5.4649  -17.4079   25.4811 N   0  0  0  0  0  0  0  0  0  0  0  0
    7.1752  -16.9305   23.8820 C   0  0  0  0  0  0  0  0  0  0  0  0
    7.2776  -17.8117   22.9643 O   0  0  0  0  0  0  0  0  0  0  0  0
    8.6412  -12.5330   20.1366 N   0  0  0  0  0  0  0  0  0  0  0  0
    8.8052  -13.9282   20.2652 C   0  0  0  0  0  0  0  0  0  0  0  0
    8.3437  -14.7466   19.4588 O   0  0  0  0  0  0  0  0  0  0  0  0
    9.5816  -14.4339   21.4453 C   0  0  0  0  0  0  0  0  0  0  0  0
    8.6601  -15.0402   22.4479 C   0  0  0  0  0  0  0  0  0  0  0  0
    9.4014  -15.8727   23.4390 C   0  0  2  0  0  0  0  0  0  0  0  0
    8.3797  -16.3828   24.3673 N   0  0  0  0  0  0  0  0  0  0  0  0
   10.4945  -15.2276   24.1575 C   0  0  0  0  0  0  0  0  0  0  0  0
   11.5478  -14.8931   23.5734 O   0  0  0  0  0  0  0  0  0  0  0  0
   10.4438  -14.9344   25.5599 N   0  0  0  0  0  0  0  0  0  0  0  0
   11.5777  -15.2148   26.4159 C   0  0  1  0  0  0  0  0  0  0  0  0
   11.5185  -14.4387   27.7107 C   0  0  0  0  0  0  0  0  0  0  0  0
    9.9450  -13.6205   27.9736 S   0  0  0  0  0  0  0  0  0  0  0  0
   11.6270  -16.6461   26.7705 C   0  0  0  0  0  0  0  0  0  0  0  0
   12.6631  -17.1796   27.5014 O   0  0  0  0  0  0  0  0  0  0  0  0
   10.7037  -17.3937   26.3971 O   0  0  0  0  0  0  0  0  0  0  0  0
  1  2  1  0
  3  2  1  0
  4  3  1  0
  5  6  1  1
  5  7  1  0
  5  4  1  0
  7  8  2  0
  7 15  1  0
 10  9  1  0
 11 10  2  0
 12 10  1  0
 13 12  1  0
 14 13  1  6
 15 14  1  0
 16 14  1  0
 17 16  2  0
 18 16  1  0
 19 22  1  0
 19 18  1  0
 20 21  1  0
 19 20  1  1
 22 23  1  0
 24 22  2  0
M  END
$$$$
