MQC.pdb
     RDKit          3D

 24 23  0  0  1  0  0  0  0  0999 V2000
    7.8725  -11.0978   27.0048 C   0  0  0  0  0  0  0  0  0  0  0  0
    6.1413  -11.5937   26.6889 S   0  0  0  0  0  0  0  0  0  0  0  0
    6.2027  -12.9258   25.4527 C   0  0  0  0  0  0  0  0  0  0  0  0
    7.2961  -13.9265   25.8441 C   0  0  0  0  0  0  0  0  0  0  0  0
    7.7336  -14.5732   24.5337 C   0  0  2  0  0  0  0  0  0  0  0  0
    6.5948  -15.1481   23.8418 N   0  0  0  0  0  0  0  0  0  0  0  0
    8.6996  -15.6599   24.8507 C   0  0  0  0  0  0  0  0  0  0  0  0
    9.7684  -15.3980   25.4973 O   0  0  0  0  0  0  0  0  0  0  0  0
    7.4114  -21.6525   25.0933 N   0  0  0  0  0  0  0  0  0  0  0  0
    7.3692  -20.8589   26.2588 C   0  0  0  0  0  0  0  0  0  0  0  0
    6.7877  -21.2016   27.2969 O   0  0  0  0  0  0  0  0  0  0  0  0
    8.0695  -19.5324   26.2258 C   0  0  0  0  0  0  0  0  0  0  0  0
    8.7025  -19.3159   24.8938 C   0  0  0  0  0  0  0  0  0  0  0  0
    9.4756  -18.0408   24.8563 C   0  0  2  0  0  0  0  0  0  0  0  0
    8.5054  -17.0033   24.4715 N   0  0  0  0  0  0  0  0  0  0  0  0
   10.6542  -18.0080   23.9978 C   0  0  0  0  0  0  0  0  0  0  0  0
   10.5505  -17.9867   22.7523 O   0  0  0  0  0  0  0  0  0  0  0  0
   11.9940  -17.9976   24.5081 N   0  0  0  0  0  0  0  0  0  0  0  0
   13.1138  -17.6969   23.6407 C   0  0  1  0  0  0  0  0  0  0  0  0
   12.9336  -16.3851   22.9133 C   0  0  0  0  0  0  0  0  0  0  0  0
   14.3633  -15.9141   21.9393 S   0  0  0  0  0  0  0  0  0  0  0  0
   14.3655  -17.5946   24.4151 C   0  0  0  0  0  0  0  0  0  0  0  0
   15.5994  -17.5921   23.8070 O   0  0  0  0  0  0  0  0  0  0  0  0
   14.3035  -17.5080   25.6558 O   0  0  0  0  0  0  0  0  0  0  0  0
  1  2  1  0
  3  2  1  0
  4  3  1  0
  5  6  1  1
  5  7  1  0
  5  4  1  0
  7  8  2  0
  7 15  1  0
 10  9  1  0
 11 10  2  0
 12 10  1  0
 13 12  1  0
 14 13  1  6
 15 14  1  0
 16 14  1  0
 17 16  2  0
 18 16  1  0
 19 22  1  0
 19 18  1  0
 20 21  1  0
 19 20  1  1
 22 23  1  0
 24 22  2  0
M  END
$$$$
