MQC.pdb
     RDKit          3D

 24 23  0  0  1  0  0  0  0  0999 V2000
    8.7115  -11.7526   20.4988 C   0  0  0  0  0  0  0  0  0  0  0  0
    7.3965  -12.4935   19.4670 S   0  0  0  0  0  0  0  0  0  0  0  0
    7.7087  -14.2845   19.4397 C   0  0  0  0  0  0  0  0  0  0  0  0
    7.7638  -14.8086   20.8792 C   0  0  0  0  0  0  0  0  0  0  0  0
    8.1507  -16.2788   20.7549 C   0  0  2  0  0  0  0  0  0  0  0  0
    7.0141  -17.0722   20.3248 N   0  0  0  0  0  0  0  0  0  0  0  0
    8.5909  -16.7591   22.0929 C   0  0  0  0  0  0  0  0  0  0  0  0
    7.7268  -17.1290   22.9564 O   0  0  0  0  0  0  0  0  0  0  0  0
   13.2345  -18.7496   21.6065 N   0  0  0  0  0  0  0  0  0  0  0  0
   12.2022  -19.6896   21.8082 C   0  0  0  0  0  0  0  0  0  0  0  0
   12.0458  -20.6934   21.1005 O   0  0  0  0  0  0  0  0  0  0  0  0
   11.2508  -19.4488   22.9431 C   0  0  0  0  0  0  0  0  0  0  0  0
   11.5527  -18.1464   23.6023 C   0  0  0  0  0  0  0  0  0  0  0  0
   10.3156  -17.3402   23.8130 C   0  0  2  0  0  0  0  0  0  0  0  0
    9.9433  -16.8351   22.4817 N   0  0  0  0  0  0  0  0  0  0  0  0
   10.3903  -16.2580   24.7879 C   0  0  0  0  0  0  0  0  0  0  0  0
   10.6955  -15.0952   24.4457 O   0  0  0  0  0  0  0  0  0  0  0  0
   10.1246  -16.4432   26.1845 N   0  0  0  0  0  0  0  0  0  0  0  0
   10.2093  -15.3308   27.1077 C   0  0  1  0  0  0  0  0  0  0  0  0
    8.9412  -14.5100   27.1271 C   0  0  0  0  0  0  0  0  0  0  0  0
    8.9508  -13.2227   28.3751 S   0  0  0  0  0  0  0  0  0  0  0  0
   10.4381  -15.8075   28.4852 C   0  0  0  0  0  0  0  0  0  0  0  0
   10.8413  -14.9602   29.4910 O   0  0  0  0  0  0  0  0  0  0  0  0
   10.2610  -17.0124   28.7452 O   0  0  0  0  0  0  0  0  0  0  0  0
  1  2  1  0
  3  2  1  0
  4  3  1  0
  5  6  1  1
  5  7  1  0
  5  4  1  0
  7  8  2  0
  7 15  1  0
 10  9  1  0
 11 10  2  0
 12 10  1  0
 13 12  1  0
 14 13  1  6
 15 14  1  0
 16 14  1  0
 17 16  2  0
 18 16  1  0
 19 22  1  0
 19 18  1  0
 20 21  1  0
 19 20  1  1
 22 23  1  0
 24 22  2  0
M  END
$$$$
