MQC.pdb
     RDKit          3D

 24 23  0  0  1  0  0  0  0  0999 V2000
    6.9312  -10.7925   26.5965 C   0  0  0  0  0  0  0  0  0  0  0  0
    5.6757  -12.0342   27.0705 S   0  0  0  0  0  0  0  0  0  0  0  0
    6.4113  -13.6642   26.7419 C   0  0  0  0  0  0  0  0  0  0  0  0
    6.5032  -13.8795   25.2269 C   0  0  0  0  0  0  0  0  0  0  0  0
    7.2237  -15.2130   25.0556 C   0  0  2  0  0  0  0  0  0  0  0  0
    8.4345  -15.2466   25.8549 N   0  0  0  0  0  0  0  0  0  0  0  0
    7.5926  -15.3620   23.6216 C   0  0  0  0  0  0  0  0  0  0  0  0
    6.9839  -16.2116   22.8889 O   0  0  0  0  0  0  0  0  0  0  0  0
    7.8331  -14.2157   18.6558 N   0  0  0  0  0  0  0  0  0  0  0  0
    7.0233  -13.4598   19.5291 C   0  0  0  0  0  0  0  0  0  0  0  0
    5.8284  -13.2176   19.3135 O   0  0  0  0  0  0  0  0  0  0  0  0
    7.6552  -12.9271   20.7815 C   0  0  0  0  0  0  0  0  0  0  0  0
    9.0202  -13.5004   20.9550 C   0  0  0  0  0  0  0  0  0  0  0  0
    8.9707  -14.8466   21.5952 C   0  0  2  0  0  0  0  0  0  0  0  0
    8.6028  -14.6018   22.9990 N   0  0  0  0  0  0  0  0  0  0  0  0
   10.1717  -15.6686   21.4985 C   0  0  0  0  0  0  0  0  0  0  0  0
   10.8213  -15.7469   20.4335 O   0  0  0  0  0  0  0  0  0  0  0  0
   10.6870  -16.4334   22.5962 N   0  0  0  0  0  0  0  0  0  0  0  0
   11.8579  -17.2691   22.4305 C   0  0  1  0  0  0  0  0  0  0  0  0
   13.0631  -16.7085   23.1485 C   0  0  0  0  0  0  0  0  0  0  0  0
   14.4301  -17.8647   23.2453 S   0  0  0  0  0  0  0  0  0  0  0  0
   11.6200  -18.6203   22.9734 C   0  0  0  0  0  0  0  0  0  0  0  0
   12.5078  -19.6518   22.7732 O   0  0  0  0  0  0  0  0  0  0  0  0
   10.5849  -18.8336   23.6321 O   0  0  0  0  0  0  0  0  0  0  0  0
  1  2  1  0
  3  2  1  0
  4  3  1  0
  5  6  1  1
  5  7  1  0
  5  4  1  0
  7  8  2  0
  7 15  1  0
 10  9  1  0
 11 10  2  0
 12 10  1  0
 13 12  1  0
 14 13  1  1
 15 14  1  0
 16 14  1  0
 17 16  2  0
 18 16  1  0
 19 22  1  0
 19 18  1  0
 20 21  1  0
 19 20  1  1
 22 23  1  0
 24 22  2  0
M  END
$$$$
