MQC.pdb
     RDKit          3D

 24 23  0  0  1  0  0  0  0  0999 V2000
    7.3568  -11.7156   20.2978 C   0  0  0  0  0  0  0  0  0  0  0  0
    8.3503  -12.4859   18.9702 S   0  0  0  0  0  0  0  0  0  0  0  0
    8.3074  -14.2793   19.2670 C   0  0  0  0  0  0  0  0  0  0  0  0
    8.5058  -14.5474   20.7632 C   0  0  0  0  0  0  0  0  0  0  0  0
    8.4362  -16.0640   20.9102 C   0  0  2  0  0  0  0  0  0  0  0  0
    7.1266  -16.5558   20.5238 N   0  0  0  0  0  0  0  0  0  0  0  0
    8.6728  -16.4046   22.3394 C   0  0  0  0  0  0  0  0  0  0  0  0
    7.7016  -16.4010   23.1676 O   0  0  0  0  0  0  0  0  0  0  0  0
   13.0463  -20.0247   24.5476 N   0  0  0  0  0  0  0  0  0  0  0  0
   12.6874  -19.4102   25.7656 C   0  0  0  0  0  0  0  0  0  0  0  0
   13.2522  -19.6471   26.8417 O   0  0  0  0  0  0  0  0  0  0  0  0
   11.5606  -18.4196   25.7423 C   0  0  0  0  0  0  0  0  0  0  0  0
   11.2208  -18.0575   24.3368 C   0  0  0  0  0  0  0  0  0  0  0  0
   10.1099  -17.0637   24.2814 C   0  0  2  0  0  0  0  0  0  0  0  0
    9.9401  -16.7421   22.8554 N   0  0  0  0  0  0  0  0  0  0  0  0
   10.2649  -15.8544   25.0820 C   0  0  0  0  0  0  0  0  0  0  0  0
   11.1542  -15.0145   24.8248 O   0  0  0  0  0  0  0  0  0  0  0  0
    9.4252  -15.5444   26.2019 N   0  0  0  0  0  0  0  0  0  0  0  0
    9.7054  -14.3986   27.0420 C   0  0  1  0  0  0  0  0  0  0  0  0
    8.4699  -13.5696   27.3038 C   0  0  0  0  0  0  0  0  0  0  0  0
    7.4647  -13.3165   25.8409 S   0  0  0  0  0  0  0  0  0  0  0  0
   10.2275  -14.8247   28.3545 C   0  0  0  0  0  0  0  0  0  0  0  0
   10.5970  -13.9175   29.3202 O   0  0  0  0  0  0  0  0  0  0  0  0
   10.3372  -16.0416   28.5955 O   0  0  0  0  0  0  0  0  0  0  0  0
  1  2  1  0
  3  2  1  0
  4  3  1  0
  5  6  1  1
  5  7  1  0
  5  4  1  0
  7  8  2  0
  7 15  1  0
 10  9  1  0
 11 10  2  0
 12 10  1  0
 13 12  1  0
 14 13  1  6
 15 14  1  0
 16 14  1  0
 17 16  2  0
 18 16  1  0
 19 22  1  0
 19 18  1  0
 20 21  1  0
 19 20  1  1
 22 23  1  0
 24 22  2  0
M  END
$$$$
