MQC.pdb
     RDKit          3D

 24 23  0  0  1  0  0  0  0  0999 V2000
    8.0714  -11.6995   21.0457 C   0  0  0  0  0  0  0  0  0  0  0  0
    7.6345  -12.5105   19.4664 S   0  0  0  0  0  0  0  0  0  0  0  0
    8.0708  -14.2662   19.6492 C   0  0  0  0  0  0  0  0  0  0  0  0
    8.2418  -14.5907   21.1376 C   0  0  0  0  0  0  0  0  0  0  0  0
    8.5074  -16.0918   21.1915 C   0  0  2  0  0  0  0  0  0  0  0  0
    7.3295  -16.8346   20.7829 N   0  0  0  0  0  0  0  0  0  0  0  0
    8.8396  -16.4557   22.5957 C   0  0  0  0  0  0  0  0  0  0  0  0
    7.9063  -16.6551   23.4432 O   0  0  0  0  0  0  0  0  0  0  0  0
   14.7554  -18.2342   25.0438 N   0  0  0  0  0  0  0  0  0  0  0  0
   14.0224  -18.0304   23.8560 C   0  0  0  0  0  0  0  0  0  0  0  0
   14.3159  -18.5565   22.7743 O   0  0  0  0  0  0  0  0  0  0  0  0
   12.8265  -17.1264   23.9201 C   0  0  0  0  0  0  0  0  0  0  0  0
   11.6316  -17.8838   24.3895 C   0  0  0  0  0  0  0  0  0  0  0  0
   10.4226  -17.0127   24.4544 C   0  0  2  0  0  0  0  0  0  0  0  0
   10.1601  -16.5994   23.0665 N   0  0  0  0  0  0  0  0  0  0  0  0
   10.4856  -15.8607   25.3468 C   0  0  0  0  0  0  0  0  0  0  0  0
   11.1507  -14.8448   25.0503 O   0  0  0  0  0  0  0  0  0  0  0  0
    9.8026  -15.8082   26.6063 N   0  0  0  0  0  0  0  0  0  0  0  0
   10.0633  -14.7371   27.5452 C   0  0  1  0  0  0  0  0  0  0  0  0
    8.7990  -14.0174   27.9524 C   0  0  0  0  0  0  0  0  0  0  0  0
    7.7561  -13.5779   26.5617 S   0  0  0  0  0  0  0  0  0  0  0  0
   10.6814  -15.2590   28.7792 C   0  0  0  0  0  0  0  0  0  0  0  0
   11.0644  -14.4303   29.8081 O   0  0  0  0  0  0  0  0  0  0  0  0
   10.8617  -16.4860   28.8928 O   0  0  0  0  0  0  0  0  0  0  0  0
  1  2  1  0
  3  2  1  0
  4  3  1  0
  5  6  1  1
  5  7  1  0
  5  4  1  0
  7  8  2  0
  7 15  1  0
 10  9  1  0
 11 10  2  0
 12 10  1  0
 13 12  1  0
 14 13  1  6
 15 14  1  0
 16 14  1  0
 17 16  2  0
 18 16  1  0
 19 22  1  0
 19 18  1  0
 20 21  1  0
 19 20  1  1
 22 23  1  0
 24 22  2  0
M  END
$$$$
