MQC.pdb
     RDKit          3D

 24 23  0  0  1  0  0  0  0  0999 V2000
    6.8073  -11.1507   27.0465 C   0  0  0  0  0  0  0  0  0  0  0  0
    5.6071  -11.3938   25.6889 S   0  0  0  0  0  0  0  0  0  0  0  0
    6.5076  -12.2254   24.3459 C   0  0  0  0  0  0  0  0  0  0  0  0
    7.3196  -13.3881   24.9280 C   0  0  0  0  0  0  0  0  0  0  0  0
    7.7570  -14.2134   23.7220 C   0  0  2  0  0  0  0  0  0  0  0  0
    6.6030  -14.7424   23.0186 N   0  0  0  0  0  0  0  0  0  0  0  0
    8.5823  -15.3511   24.2111 C   0  0  0  0  0  0  0  0  0  0  0  0
    8.3371  -15.8780   25.3474 O   0  0  0  0  0  0  0  0  0  0  0  0
   12.7865  -18.4622   20.8876 N   0  0  0  0  0  0  0  0  0  0  0  0
   12.9776  -19.1064   22.1279 C   0  0  0  0  0  0  0  0  0  0  0  0
   13.7701  -20.0429   22.2952 O   0  0  0  0  0  0  0  0  0  0  0  0
   12.1724  -18.6219   23.2976 C   0  0  0  0  0  0  0  0  0  0  0  0
   11.2898  -17.4939   22.8848 C   0  0  0  0  0  0  0  0  0  0  0  0
   10.4167  -17.0436   24.0072 C   0  0  2  0  0  0  0  0  0  0  0  0
    9.6518  -15.9031   23.4779 N   0  0  0  0  0  0  0  0  0  0  0  0
   11.0774  -16.7013   25.2616 C   0  0  0  0  0  0  0  0  0  0  0  0
   11.9501  -15.8080   25.3137 O   0  0  0  0  0  0  0  0  0  0  0  0
   10.7810  -17.3511   26.5048 N   0  0  0  0  0  0  0  0  0  0  0  0
   11.5845  -17.0970   27.6824 C   0  0  1  0  0  0  0  0  0  0  0  0
   10.8326  -16.3005   28.7229 C   0  0  0  0  0  0  0  0  0  0  0  0
   10.2747  -14.7048   28.1254 S   0  0  0  0  0  0  0  0  0  0  0  0
   11.9972  -18.3620   28.3198 C   0  0  0  0  0  0  0  0  0  0  0  0
   12.8265  -18.3875   29.4170 O   0  0  0  0  0  0  0  0  0  0  0  0
   11.5827  -19.4387   27.8509 O   0  0  0  0  0  0  0  0  0  0  0  0
  1  2  1  0
  3  2  1  0
  4  3  1  0
  5  6  1  1
  5  7  1  0
  5  4  1  0
  7  8  2  0
  7 15  1  0
 10  9  1  0
 11 10  2  0
 12 10  1  0
 13 12  1  0
 14 13  1  6
 15 14  1  0
 16 14  1  0
 17 16  2  0
 18 16  1  0
 19 22  1  0
 19 18  1  0
 20 21  1  0
 19 20  1  1
 22 23  1  0
 24 22  2  0
M  END
$$$$
