MQC.pdb
     RDKit          3D

 24 23  0  0  1  0  0  0  0  0999 V2000
    8.2982  -11.7411   20.1777 C   0  0  0  0  0  0  0  0  0  0  0  0
    8.1506  -12.6837   18.6181 S   0  0  0  0  0  0  0  0  0  0  0  0
    8.2152  -14.4437   19.0699 C   0  0  0  0  0  0  0  0  0  0  0  0
    8.2984  -14.5697   20.5954 C   0  0  0  0  0  0  0  0  0  0  0  0
    8.4076  -16.0666   20.8675 C   0  0  2  0  0  0  0  0  0  0  0  0
    7.2876  -16.7767   20.2779 N   0  0  0  0  0  0  0  0  0  0  0  0
    8.3843  -16.2749   22.3408 C   0  0  0  0  0  0  0  0  0  0  0  0
    7.2836  -16.1928   22.9816 O   0  0  0  0  0  0  0  0  0  0  0  0
   12.2416  -19.6117   25.6496 N   0  0  0  0  0  0  0  0  0  0  0  0
   11.5974  -18.9627   26.7238 C   0  0  0  0  0  0  0  0  0  0  0  0
   11.8553  -19.1920   27.9129 O   0  0  0  0  0  0  0  0  0  0  0  0
   10.5468  -17.9434   26.3946 C   0  0  0  0  0  0  0  0  0  0  0  0
   10.4577  -17.7519   24.9190 C   0  0  0  0  0  0  0  0  0  0  0  0
    9.4560  -16.7058   24.5627 C   0  0  2  0  0  0  0  0  0  0  0  0
    9.5354  -16.5667   23.0998 N   0  0  0  0  0  0  0  0  0  0  0  0
    9.5867  -15.4131   25.2253 C   0  0  0  0  0  0  0  0  0  0  0  0
   10.5744  -14.6749   25.0204 O   0  0  0  0  0  0  0  0  0  0  0  0
    8.6111  -14.9019   26.1432 N   0  0  0  0  0  0  0  0  0  0  0  0
    8.8678  -13.6936   26.8987 C   0  0  1  0  0  0  0  0  0  0  0  0
    7.5970  -12.9415   27.2177 C   0  0  0  0  0  0  0  0  0  0  0  0
    6.4190  -12.9378   25.8660 S   0  0  0  0  0  0  0  0  0  0  0  0
    9.5204  -14.0066   28.1845 C   0  0  0  0  0  0  0  0  0  0  0  0
    9.9361  -13.0205   29.0488 O   0  0  0  0  0  0  0  0  0  0  0  0
    9.7004  -15.1986   28.4967 O   0  0  0  0  0  0  0  0  0  0  0  0
  1  2  1  0
  3  2  1  0
  4  3  1  0
  5  6  1  6
  5  7  1  0
  5  4  1  0
  7  8  2  0
  7 15  1  0
 10  9  1  0
 11 10  2  0
 12 10  1  0
 13 12  1  0
 14 13  1  1
 15 14  1  0
 16 14  1  0
 17 16  2  0
 18 16  1  0
 19 22  1  0
 19 18  1  0
 20 21  1  0
 19 20  1  1
 22 23  1  0
 24 22  2  0
M  END
$$$$
