VAR.pdb
     RDKit          3D

 24 23  0  0  1  0  0  0  0  0999 V2000
   36.5872  -11.1742  -16.8979 C   0  0  0  0  0  0  0  0  0  0  0  0
   36.4930  -11.7273  -18.3047 C   0  0  2  0  0  0  0  0  0  0  0  0
   37.8984  -11.7305  -18.8826 C   0  0  0  0  0  0  0  0  0  0  0  0
   35.5553  -10.8443  -19.0958 C   0  0  2  0  0  0  0  0  0  0  0  0
   36.2039   -9.5470  -19.1822 N   0  0  0  0  0  0  0  0  0  0  0  0
   34.2620  -10.7554  -18.3786 C   0  0  0  0  0  0  0  0  0  0  0  0
   33.5052  -11.7425  -18.2048 O   0  0  0  0  0  0  0  0  0  0  0  0
   32.3915   -8.0335  -16.4622 C   0  0  0  0  0  0  0  0  0  0  0  0
   32.5341   -9.3453  -17.1947 C   0  0  2  0  0  0  0  0  0  0  0  0
   33.7979   -9.5210  -17.8362 N   0  0  0  0  0  0  0  0  0  0  0  0
   31.3772   -9.5437  -18.0583 C   0  0  0  0  0  0  0  0  0  0  0  0
   31.3057   -9.1571  -19.2740 O   0  0  0  0  0  0  0  0  0  0  0  0
   25.5666  -15.8377  -17.5633 N   0  0  0  0  0  0  0  0  0  0  0  0
   26.0492  -15.0645  -16.4797 C   0  0  0  0  0  0  0  0  0  0  0  0
   26.1016  -15.5973  -15.3222 N   0  0  0  0  0  0  0  0  0  0  0  0
   26.4724  -13.7027  -16.6936 N   0  0  0  0  0  0  0  0  0  0  0  0
   26.3837  -13.1335  -17.9825 C   0  0  0  0  0  0  0  0  0  0  0  0
   26.8566  -11.7392  -18.2049 C   0  0  0  0  0  0  0  0  0  0  0  0
   28.1581  -11.3321  -17.6549 C   0  0  0  0  0  0  0  0  0  0  0  0
   29.0154  -10.3707  -18.4082 C   0  0  2  0  0  0  0  0  0  0  0  0
   30.2325  -10.2079  -17.5548 N   0  0  0  0  0  0  0  0  0  0  0  0
   28.3224   -9.0524  -18.4682 C   0  0  0  0  0  0  0  0  0  0  0  0
   28.3874   -8.2680  -17.5183 O   0  0  0  0  0  0  0  0  0  0  0  0
   27.6109   -8.7668  -19.6393 O   0  0  0  0  0  0  0  0  0  0  0  0
  2  1  1  1
  3  2  1  0
  4  2  1  0
  4  5  1  1
  6  4  1  0
  6  7  2  0
  9  8  1  6
  9 10  1  0
 10  6  1  0
 11  9  1  0
 11 12  2  0
 13 14  1  0
 14 15  2  0
 16 14  1  0
 16 17  1  0
 18 17  1  0
 19 18  1  0
 20 21  1  0
 20 19  1  1
 21 11  1  0
 22 20  1  0
 23 22  2  0
 24 22  1  0
M  END
$$$$
