VAR.pdb
     RDKit          3D

 24 23  0  0  1  0  0  0  0  0999 V2000
   25.2605  -19.9878  -16.1349 C   0  0  0  0  0  0  0  0  0  0  0  0
   24.3068  -19.3167  -17.1013 C   0  0  2  0  0  0  0  0  0  0  0  0
   24.0612  -17.9081  -16.5869 C   0  0  0  0  0  0  0  0  0  0  0  0
   23.0356  -20.1330  -17.1512 C   0  0  2  0  0  0  0  0  0  0  0  0
   22.2251  -19.5484  -18.2059 N   0  0  0  0  0  0  0  0  0  0  0  0
   22.3579  -20.0450  -15.8367 C   0  0  0  0  0  0  0  0  0  0  0  0
   22.7960  -20.6036  -14.8007 O   0  0  0  0  0  0  0  0  0  0  0  0
   19.6503  -17.9605  -14.2521 C   0  0  0  0  0  0  0  0  0  0  0  0
   20.3886  -19.2595  -14.4656 C   0  0  2  0  0  0  0  0  0  0  0  0
   21.1489  -19.3069  -15.6736 N   0  0  0  0  0  0  0  0  0  0  0  0
   19.4683  -20.3737  -14.2781 C   0  0  0  0  0  0  0  0  0  0  0  0
   18.8463  -20.9667  -15.2236 O   0  0  0  0  0  0  0  0  0  0  0  0
   19.3680  -25.3303   -7.5967 N   0  0  0  0  0  0  0  0  0  0  0  0
   18.1298  -24.6794   -7.3773 C   0  0  0  0  0  0  0  0  0  0  0  0
   17.4693  -24.9584   -6.3227 N   0  0  0  0  0  0  0  0  0  0  0  0
   17.6366  -23.7198   -8.3340 N   0  0  0  0  0  0  0  0  0  0  0  0
   17.6557  -24.0276   -9.7117 C   0  0  0  0  0  0  0  0  0  0  0  0
   17.1506  -23.0301  -10.6952 C   0  0  0  0  0  0  0  0  0  0  0  0
   18.0938  -22.0652  -11.2795 C   0  0  0  0  0  0  0  0  0  0  0  0
   18.2634  -21.9952  -12.7604 C   0  0  2  0  0  0  0  0  0  0  0  0
   19.2190  -20.8650  -12.9737 N   0  0  0  0  0  0  0  0  0  0  0  0
   16.9614  -21.6122  -13.3766 C   0  0  0  0  0  0  0  0  0  0  0  0
   16.5354  -20.4591  -13.2726 O   0  0  0  0  0  0  0  0  0  0  0  0
   16.2691  -22.6165  -14.0632 O   0  0  0  0  0  0  0  0  0  0  0  0
  2  1  1  1
  3  2  1  0
  4  2  1  0
  4  5  1  6
  6  4  1  0
  6  7  2  0
  9  8  1  6
  9 10  1  0
 10  6  1  0
 11  9  1  0
 11 12  2  0
 13 14  1  0
 14 15  2  0
 16 14  1  0
 16 17  1  0
 18 17  1  0
 19 18  1  0
 20 21  1  0
 20 19  1  1
 21 11  1  0
 22 20  1  0
 23 22  2  0
 24 22  1  0
M  END
$$$$
