VAR.pdb
     RDKit          3D

 24 23  0  0  1  0  0  0  0  0999 V2000
   17.8090  -26.3035   -9.2382 C   0  0  0  0  0  0  0  0  0  0  0  0
   18.0993  -25.5669  -10.5293 C   0  0  2  0  0  0  0  0  0  0  0  0
   18.6977  -26.5734  -11.4976 C   0  0  0  0  0  0  0  0  0  0  0  0
   19.0549  -24.4368  -10.2217 C   0  0  2  0  0  0  0  0  0  0  0  0
   18.3878  -23.6055   -9.2344 N   0  0  0  0  0  0  0  0  0  0  0  0
   19.3240  -23.6843  -11.4691 C   0  0  0  0  0  0  0  0  0  0  0  0
   20.0200  -24.1417  -12.4092 O   0  0  0  0  0  0  0  0  0  0  0  0
   17.9987  -20.5652  -13.1456 C   0  0  0  0  0  0  0  0  0  0  0  0
   19.0850  -21.5573  -12.8087 C   0  0  2  0  0  0  0  0  0  0  0  0
   18.7970  -22.3752  -11.6740 N   0  0  0  0  0  0  0  0  0  0  0  0
   20.3680  -20.8684  -12.7560 C   0  0  0  0  0  0  0  0  0  0  0  0
   20.8538  -20.3207  -11.7089 O   0  0  0  0  0  0  0  0  0  0  0  0
   28.3954  -21.2644  -13.6412 N   0  0  0  0  0  0  0  0  0  0  0  0
   28.1343  -21.1137  -12.2578 C   0  0  0  0  0  0  0  0  0  0  0  0
   29.1165  -20.9288  -11.4655 N   0  0  0  0  0  0  0  0  0  0  0  0
   26.7798  -21.1680  -11.7662 N   0  0  0  0  0  0  0  0  0  0  0  0
   25.7175  -21.4241  -12.6602 C   0  0  0  0  0  0  0  0  0  0  0  0
   24.3154  -21.4122  -12.1591 C   0  0  0  0  0  0  0  0  0  0  0  0
   23.2160  -21.6192  -13.1134 C   0  0  0  0  0  0  0  0  0  0  0  0
   22.6193  -20.4509  -13.8245 C   0  0  2  0  0  0  0  0  0  0  0  0
   21.1636  -20.7781  -13.9239 N   0  0  0  0  0  0  0  0  0  0  0  0
   23.1690  -20.3979  -15.2090 C   0  0  0  0  0  0  0  0  0  0  0  0
   22.6192  -21.0160  -16.1242 O   0  0  0  0  0  0  0  0  0  0  0  0
   24.3188  -19.6233  -15.4017 O   0  0  0  0  0  0  0  0  0  0  0  0
  2  1  1  1
  3  2  1  0
  4  2  1  0
  4  5  1  1
  6  4  1  0
  6  7  2  0
  9  8  1  1
  9 10  1  0
 10  6  1  0
 11  9  1  0
 11 12  2  0
 13 14  1  0
 14 15  2  0
 16 14  1  0
 16 17  1  0
 18 17  1  0
 19 18  1  0
 20 21  1  0
 20 19  1  1
 21 11  1  0
 22 20  1  0
 23 22  2  0
 24 22  1  0
M  END
$$$$
