VAR.pdb
     RDKit          3D

 24 23  0  0  1  0  0  0  0  0999 V2000
   27.8742  -22.2692  -14.2094 C   0  0  0  0  0  0  0  0  0  0  0  0
   27.1928  -21.9348  -15.5200 C   0  0  2  0  0  0  0  0  0  0  0  0
   28.2647  -21.4219  -16.4671 C   0  0  0  0  0  0  0  0  0  0  0  0
   26.1311  -20.8943  -15.2464 C   0  0  2  0  0  0  0  0  0  0  0  0
   26.8416  -19.6948  -14.8371 N   0  0  0  0  0  0  0  0  0  0  0  0
   25.2414  -21.3894  -14.1702 C   0  0  0  0  0  0  0  0  0  0  0  0
   24.5063  -22.3996  -14.2988 O   0  0  0  0  0  0  0  0  0  0  0  0
   24.6674  -20.5670  -10.4981 C   0  0  0  0  0  0  0  0  0  0  0  0
   24.2769  -21.1014  -11.8545 C   0  0  2  0  0  0  0  0  0  0  0  0
   25.1705  -20.7335  -12.9060 N   0  0  0  0  0  0  0  0  0  0  0  0
   22.8751  -20.7952  -12.1082 C   0  0  0  0  0  0  0  0  0  0  0  0
   22.4604  -19.7547  -12.7229 O   0  0  0  0  0  0  0  0  0  0  0  0
   16.9727  -26.6599  -14.2177 N   0  0  0  0  0  0  0  0  0  0  0  0
   16.0893  -25.5675  -14.0410 C   0  0  0  0  0  0  0  0  0  0  0  0
   14.8651  -25.7104  -14.3686 N   0  0  0  0  0  0  0  0  0  0  0  0
   16.5757  -24.3233  -13.4982 N   0  0  0  0  0  0  0  0  0  0  0  0
   17.9448  -24.1808  -13.1846 C   0  0  0  0  0  0  0  0  0  0  0  0
   18.4587  -22.8646  -12.7151 C   0  0  0  0  0  0  0  0  0  0  0  0
   19.8985  -22.7123  -12.4585 C   0  0  0  0  0  0  0  0  0  0  0  0
   20.4300  -21.4130  -11.9524 C   0  0  2  0  0  0  0  0  0  0  0  0
   21.8706  -21.6872  -11.6604 N   0  0  0  0  0  0  0  0  0  0  0  0
   19.7583  -21.0879  -10.6621 C   0  0  0  0  0  0  0  0  0  0  0  0
   20.2945  -21.3740   -9.5885 O   0  0  0  0  0  0  0  0  0  0  0  0
   18.5128  -20.4542  -10.7417 O   0  0  0  0  0  0  0  0  0  0  0  0
  2  1  1  1
  3  2  1  0
  4  2  1  0
  4  5  1  1
  6  4  1  0
  6  7  2  0
  9  8  1  1
  9 10  1  0
 10  6  1  0
 11  9  1  0
 11 12  2  0
 13 14  1  0
 14 15  2  0
 16 14  1  0
 16 17  1  0
 18 17  1  0
 19 18  1  0
 20 21  1  0
 20 19  1  1
 21 11  1  0
 22 20  1  0
 23 22  2  0
 24 22  1  0
M  END
$$$$
