VAR.pdb
     RDKit          3D

 24 23  0  0  1  0  0  0  0  0999 V2000
   22.7276  -14.5238  -21.2769 C   0  0  0  0  0  0  0  0  0  0  0  0
   22.1877  -13.8475  -20.0340 C   0  0  2  0  0  0  0  0  0  0  0  0
   20.7694  -13.3994  -20.3448 C   0  0  0  0  0  0  0  0  0  0  0  0
   23.0918  -12.6826  -19.7017 C   0  0  2  0  0  0  0  0  0  0  0  0
   24.4327  -13.2325  -19.5992 N   0  0  0  0  0  0  0  0  0  0  0  0
   22.6525  -12.0863  -18.4185 C   0  0  0  0  0  0  0  0  0  0  0  0
   21.5083  -11.5983  -18.2454 O   0  0  0  0  0  0  0  0  0  0  0  0
   24.3323  -11.3808  -15.0542 C   0  0  0  0  0  0  0  0  0  0  0  0
   23.2009  -11.3942  -16.0530 C   0  0  2  0  0  0  0  0  0  0  0  0
   23.5214  -12.0335  -17.2892 N   0  0  0  0  0  0  0  0  0  0  0  0
   22.6567  -10.0488  -16.1835 C   0  0  0  0  0  0  0  0  0  0  0  0
   23.1020   -9.1619  -16.9883 O   0  0  0  0  0  0  0  0  0  0  0  0
   14.3528   -8.1161  -16.4062 N   0  0  0  0  0  0  0  0  0  0  0  0
   14.8291   -6.7927  -16.2434 C   0  0  0  0  0  0  0  0  0  0  0  0
   13.9969   -5.8289  -16.3145 N   0  0  0  0  0  0  0  0  0  0  0  0
   16.2299   -6.5519  -16.0002 N   0  0  0  0  0  0  0  0  0  0  0  0
   17.1260   -7.6397  -15.9180 C   0  0  0  0  0  0  0  0  0  0  0  0
   18.5838   -7.3812  -15.7590 C   0  0  0  0  0  0  0  0  0  0  0  0
   19.5033   -8.5244  -15.6600 C   0  0  0  0  0  0  0  0  0  0  0  0
   20.9701   -8.2883  -15.5197 C   0  0  2  0  0  0  0  0  0  0  0  0
   21.5570   -9.6568  -15.3823 N   0  0  0  0  0  0  0  0  0  0  0  0
   21.2203   -7.5563  -14.2457 C   0  0  0  0  0  0  0  0  0  0  0  0
   21.5463   -8.1691  -13.2259 O   0  0  0  0  0  0  0  0  0  0  0  0
   21.0660   -6.1654  -14.2769 O   0  0  0  0  0  0  0  0  0  0  0  0
  2  1  1  6
  3  2  1  0
  4  2  1  0
  4  5  1  1
  6  4  1  0
  6  7  2  0
  9  8  1  1
  9 10  1  0
 10  6  1  0
 11  9  1  0
 11 12  2  0
 13 14  1  0
 14 15  2  0
 16 14  1  0
 16 17  1  0
 18 17  1  0
 19 18  1  0
 20 21  1  0
 20 19  1  1
 21 11  1  0
 22 20  1  0
 23 22  2  0
 24 22  1  0
M  END
$$$$
