VAR.pdb
     RDKit          3D

 24 23  0  0  1  0  0  0  0  0999 V2000
   21.0317  -16.0119  -15.6591 C   0  0  0  0  0  0  0  0  0  0  0  0
   20.3907  -15.6889  -16.9927 C   0  0  2  0  0  0  0  0  0  0  0  0
   20.3593  -16.9753  -17.8009 C   0  0  0  0  0  0  0  0  0  0  0  0
   21.2168  -14.6159  -17.6643 C   0  0  2  0  0  0  0  0  0  0  0  0
   22.4856  -15.2388  -18.0007 N   0  0  0  0  0  0  0  0  0  0  0  0
   21.4009  -13.4907  -16.7183 C   0  0  0  0  0  0  0  0  0  0  0  0
   20.4436  -12.8321  -16.2417 O   0  0  0  0  0  0  0  0  0  0  0  0
   24.4182  -11.7582  -15.1238 C   0  0  0  0  0  0  0  0  0  0  0  0
   22.9607  -11.9507  -15.4650 C   0  0  2  0  0  0  0  0  0  0  0  0
   22.6995  -13.0874  -16.2890 N   0  0  0  0  0  0  0  0  0  0  0  0
   22.4120  -10.6957  -15.9626 C   0  0  0  0  0  0  0  0  0  0  0  0
   22.6120  -10.2323  -17.1363 O   0  0  0  0  0  0  0  0  0  0  0  0
   14.5423   -7.5949  -14.5420 N   0  0  0  0  0  0  0  0  0  0  0  0
   15.0753   -6.4916  -15.2515 C   0  0  0  0  0  0  0  0  0  0  0  0
   14.2822   -5.5706  -15.6379 N   0  0  0  0  0  0  0  0  0  0  0  0
   16.4895   -6.4205  -15.5240 N   0  0  0  0  0  0  0  0  0  0  0  0
   17.3120   -7.5384  -15.2653 C   0  0  0  0  0  0  0  0  0  0  0  0
   18.7747   -7.4523  -15.5301 C   0  0  0  0  0  0  0  0  0  0  0  0
   19.6055   -8.6501  -15.3367 C   0  0  0  0  0  0  0  0  0  0  0  0
   21.0745   -8.5845  -15.5905 C   0  0  2  0  0  0  0  0  0  0  0  0
   21.5941   -9.9051  -15.1194 N   0  0  0  0  0  0  0  0  0  0  0  0
   21.6664   -7.5272  -14.7226 C   0  0  0  0  0  0  0  0  0  0  0  0
   21.6920   -6.3522  -15.0976 O   0  0  0  0  0  0  0  0  0  0  0  0
   22.1788   -7.9394  -13.4870 O   0  0  0  0  0  0  0  0  0  0  0  0
  2  1  1  1
  3  2  1  0
  4  2  1  0
  4  5  1  1
  6  4  1  0
  6  7  2  0
  9  8  1  6
  9 10  1  0
 10  6  1  0
 11  9  1  0
 11 12  2  0
 13 14  1  0
 14 15  2  0
 16 14  1  0
 16 17  1  0
 18 17  1  0
 19 18  1  0
 20 21  1  0
 20 19  1  1
 21 11  1  0
 22 20  1  0
 23 22  2  0
 24 22  1  0
M  END
$$$$
