VAR.pdb
     RDKit          3D

 24 23  0  0  1  0  0  0  0  0999 V2000
   29.3296  -17.4443  -19.3651 C   0  0  0  0  0  0  0  0  0  0  0  0
   27.9698  -17.2891  -18.7165 C   0  0  2  0  0  0  0  0  0  0  0  0
   28.0891  -16.1862  -17.6780 C   0  0  0  0  0  0  0  0  0  0  0  0
   27.5900  -18.6145  -18.0968 C   0  0  2  0  0  0  0  0  0  0  0  0
   27.9360  -19.6292  -19.0774 N   0  0  0  0  0  0  0  0  0  0  0  0
   26.1360  -18.6109  -17.8123 C   0  0  0  0  0  0  0  0  0  0  0  0
   25.6114  -17.8846  -16.9322 O   0  0  0  0  0  0  0  0  0  0  0  0
   23.0501  -20.2653  -19.3298 C   0  0  0  0  0  0  0  0  0  0  0  0
   23.8445  -19.5788  -18.2456 C   0  0  2  0  0  0  0  0  0  0  0  0
   25.2366  -19.4476  -18.5364 N   0  0  0  0  0  0  0  0  0  0  0  0
   23.5438  -20.1985  -16.9615 C   0  0  0  0  0  0  0  0  0  0  0  0
   24.0700  -21.2837  -16.5397 O   0  0  0  0  0  0  0  0  0  0  0  0
   25.4191  -20.8831   -9.4174 N   0  0  0  0  0  0  0  0  0  0  0  0
   24.0162  -21.0413   -9.3092 C   0  0  0  0  0  0  0  0  0  0  0  0
   23.4782  -20.9645   -8.1554 N   0  0  0  0  0  0  0  0  0  0  0  0
   23.2214  -21.2818  -10.4880 N   0  0  0  0  0  0  0  0  0  0  0  0
   23.6351  -20.7602  -11.7330 C   0  0  0  0  0  0  0  0  0  0  0  0
   22.8895  -19.6221  -12.3379 C   0  0  0  0  0  0  0  0  0  0  0  0
   23.0341  -19.3605  -13.7776 C   0  0  0  0  0  0  0  0  0  0  0  0
   22.2969  -20.2035  -14.7639 C   0  0  2  0  0  0  0  0  0  0  0  0
   22.6103  -19.5872  -16.0897 N   0  0  0  0  0  0  0  0  0  0  0  0
   20.8331  -20.0527  -14.5270 C   0  0  0  0  0  0  0  0  0  0  0  0
   20.1669  -19.2687  -15.2077 O   0  0  0  0  0  0  0  0  0  0  0  0
   20.2750  -20.8357  -13.5098 O   0  0  0  0  0  0  0  0  0  0  0  0
  2  1  1  1
  3  2  1  0
  4  2  1  0
  4  5  1  6
  6  4  1  0
  6  7  2  0
  9  8  1  6
  9 10  1  0
 10  6  1  0
 11  9  1  0
 11 12  2  0
 13 14  1  0
 14 15  2  0
 16 14  1  0
 16 17  1  0
 18 17  1  0
 19 18  1  0
 20 21  1  0
 20 19  1  1
 21 11  1  0
 22 20  1  0
 23 22  2  0
 24 22  1  0
M  END
$$$$
