VAR.pdb
     RDKit          3D

 24 23  0  0  1  0  0  0  0  0999 V2000
   28.1019  -11.0336  -16.0105 C   0  0  0  0  0  0  0  0  0  0  0  0
   27.0287  -12.1022  -16.0164 C   0  0  2  0  0  0  0  0  0  0  0  0
   27.6938  -13.4066  -16.4228 C   0  0  0  0  0  0  0  0  0  0  0  0
   25.9536  -11.6840  -16.9933 C   0  0  2  0  0  0  0  0  0  0  0  0
   26.6102  -11.5616  -18.2836 N   0  0  0  0  0  0  0  0  0  0  0  0
   25.3827  -10.3900  -16.5522 C   0  0  0  0  0  0  0  0  0  0  0  0
   24.6969  -10.2637  -15.5077 O   0  0  0  0  0  0  0  0  0  0  0  0
   25.5962   -6.7629  -17.7063 C   0  0  0  0  0  0  0  0  0  0  0  0
   24.9598   -7.9442  -17.0155 C   0  0  2  0  0  0  0  0  0  0  0  0
   25.5853   -9.1953  -17.3037 N   0  0  0  0  0  0  0  0  0  0  0  0
   23.5199   -7.9149  -17.2380 C   0  0  0  0  0  0  0  0  0  0  0  0
   22.9219   -8.5169  -18.1932 O   0  0  0  0  0  0  0  0  0  0  0  0
   18.3026  -12.7391  -14.1209 N   0  0  0  0  0  0  0  0  0  0  0  0
   17.3376  -11.9725  -14.8181 C   0  0  0  0  0  0  0  0  0  0  0  0
   16.1592  -12.4424  -14.9481 N   0  0  0  0  0  0  0  0  0  0  0  0
   17.6918  -10.6858  -15.3643 N   0  0  0  0  0  0  0  0  0  0  0  0
   19.0479  -10.2982  -15.4270 C   0  0  0  0  0  0  0  0  0  0  0  0
   19.4017   -8.9358  -15.9126 C   0  0  0  0  0  0  0  0  0  0  0  0
   20.8171   -8.6025  -16.1311 C   0  0  0  0  0  0  0  0  0  0  0  0
   21.2028   -7.2131  -16.5150 C   0  0  2  0  0  0  0  0  0  0  0  0
   22.6894   -7.1811  -16.3567 N   0  0  0  0  0  0  0  0  0  0  0  0
   20.6197   -6.2612  -15.5273 C   0  0  0  0  0  0  0  0  0  0  0  0
   19.4720   -5.8333  -15.6736 O   0  0  0  0  0  0  0  0  0  0  0  0
   21.4345   -5.8918  -14.4507 O   0  0  0  0  0  0  0  0  0  0  0  0
  2  1  1  6
  3  2  1  0
  4  2  1  0
  4  5  1  6
  6  4  1  0
  6  7  2  0
  9  8  1  6
  9 10  1  0
 10  6  1  0
 11  9  1  0
 11 12  2  0
 13 14  1  0
 14 15  2  0
 16 14  1  0
 16 17  1  0
 18 17  1  0
 19 18  1  0
 20 21  1  0
 20 19  1  1
 21 11  1  0
 22 20  1  0
 23 22  2  0
 24 22  1  0
M  END
$$$$
