VAR.pdb
     RDKit          3D

 24 23  0  0  1  0  0  0  0  0999 V2000
   13.6820  -14.5670  -16.3805 C   0  0  0  0  0  0  0  0  0  0  0  0
   14.7518  -13.5494  -16.7178 C   0  0  2  0  0  0  0  0  0  0  0  0
   15.8833  -14.2958  -17.4044 C   0  0  0  0  0  0  0  0  0  0  0  0
   15.2010  -12.8948  -15.4315 C   0  0  2  0  0  0  0  0  0  0  0  0
   14.0160  -12.2774  -14.8610 N   0  0  0  0  0  0  0  0  0  0  0  0
   16.2390  -11.8852  -15.7450 C   0  0  0  0  0  0  0  0  0  0  0  0
   17.4104  -12.1880  -16.0818 O   0  0  0  0  0  0  0  0  0  0  0  0
   16.3049   -8.0880  -16.1234 C   0  0  0  0  0  0  0  0  0  0  0  0
   16.9104   -9.4604  -15.9571 C   0  0  2  0  0  0  0  0  0  0  0  0
   15.9586  -10.4886  -15.6807 N   0  0  0  0  0  0  0  0  0  0  0  0
   18.0213   -9.3867  -15.0170 C   0  0  0  0  0  0  0  0  0  0  0  0
   17.9448   -9.6945  -13.7793 O   0  0  0  0  0  0  0  0  0  0  0  0
   26.0110  -11.9462  -16.3670 N   0  0  0  0  0  0  0  0  0  0  0  0
   24.6539  -12.2540  -16.6287 C   0  0  0  0  0  0  0  0  0  0  0  0
   24.3856  -13.1779  -17.4659 N   0  0  0  0  0  0  0  0  0  0  0  0
   23.6042  -11.5314  -15.9538 N   0  0  0  0  0  0  0  0  0  0  0  0
   23.9297  -10.4645  -15.0884 C   0  0  0  0  0  0  0  0  0  0  0  0
   22.8395   -9.6769  -14.4496 C   0  0  0  0  0  0  0  0  0  0  0  0
   21.5109   -9.6583  -15.0793 C   0  0  0  0  0  0  0  0  0  0  0  0
   20.4270   -8.8098  -14.5030 C   0  0  2  0  0  0  0  0  0  0  0  0
   19.2914   -8.9501  -15.4656 N   0  0  0  0  0  0  0  0  0  0  0  0
   20.8676   -7.3861  -14.5238 C   0  0  0  0  0  0  0  0  0  0  0  0
   20.5606   -6.6502  -15.4651 O   0  0  0  0  0  0  0  0  0  0  0  0
   21.6323   -6.9467  -13.4368 O   0  0  0  0  0  0  0  0  0  0  0  0
  2  1  1  1
  3  2  1  0
  4  2  1  0
  4  5  1  6
  6  4  1  0
  6  7  2  0
  9  8  1  1
  9 10  1  0
 10  6  1  0
 11  9  1  0
 11 12  2  0
 13 14  1  0
 14 15  2  0
 16 14  1  0
 16 17  1  0
 18 17  1  0
 19 18  1  0
 20 21  1  0
 20 19  1  6
 21 11  1  0
 22 20  1  0
 23 22  2  0
 24 22  1  0
M  END
$$$$
