VAR.pdb
     RDKit          3D

 24 23  0  0  1  0  0  0  0  0999 V2000
   29.4616  -12.6215  -20.8144 C   0  0  0  0  0  0  0  0  0  0  0  0
   28.2995  -11.7569  -20.3723 C   0  0  2  0  0  0  0  0  0  0  0  0
   28.2495  -10.5580  -21.3045 C   0  0  0  0  0  0  0  0  0  0  0  0
   28.5354  -11.3501  -18.9357 C   0  0  2  0  0  0  0  0  0  0  0  0
   27.3287  -10.6612  -18.5110 N   0  0  0  0  0  0  0  0  0  0  0  0
   29.7163  -10.4574  -18.8785 C   0  0  0  0  0  0  0  0  0  0  0  0
   30.8897  -10.8592  -19.0757 O   0  0  0  0  0  0  0  0  0  0  0  0
   30.2957   -6.7073  -18.6101 C   0  0  0  0  0  0  0  0  0  0  0  0
   30.6771   -8.1599  -18.4613 C   0  0  2  0  0  0  0  0  0  0  0  0
   29.5819   -9.0671  -18.5913 N   0  0  0  0  0  0  0  0  0  0  0  0
   31.4705   -8.3287  -17.2506 C   0  0  0  0  0  0  0  0  0  0  0  0
   30.9823   -8.5017  -16.0827 O   0  0  0  0  0  0  0  0  0  0  0  0
   38.4966  -13.0598  -16.2138 N   0  0  0  0  0  0  0  0  0  0  0  0
   38.6214  -12.3026  -15.0239 C   0  0  0  0  0  0  0  0  0  0  0  0
   39.5729  -12.5767  -14.2202 N   0  0  0  0  0  0  0  0  0  0  0  0
   37.6861  -11.2429  -14.7383 N   0  0  0  0  0  0  0  0  0  0  0  0
   36.6831  -10.9188  -15.6775 C   0  0  0  0  0  0  0  0  0  0  0  0
   35.7296   -9.8136  -15.3835 C   0  0  0  0  0  0  0  0  0  0  0  0
   34.6848   -9.4933  -16.3674 C   0  0  0  0  0  0  0  0  0  0  0  0
   33.7135   -8.3952  -16.0893 C   0  0  2  0  0  0  0  0  0  0  0  0
   32.8841   -8.3073  -17.3303 N   0  0  0  0  0  0  0  0  0  0  0  0
   34.4621   -7.1138  -15.9510 C   0  0  0  0  0  0  0  0  0  0  0  0
   34.6908   -6.4132  -16.9403 O   0  0  0  0  0  0  0  0  0  0  0  0
   34.8796   -6.7634  -14.6617 O   0  0  0  0  0  0  0  0  0  0  0  0
  2  1  1  6
  3  2  1  0
  4  2  1  0
  4  5  1  6
  6  4  1  0
  6  7  2  0
  9  8  1  1
  9 10  1  0
 10  6  1  0
 11  9  1  0
 11 12  2  0
 13 14  1  0
 14 15  2  0
 16 14  1  0
 16 17  1  0
 18 17  1  0
 19 18  1  0
 20 21  1  0
 20 19  1  6
 21 11  1  0
 22 20  1  0
 23 22  2  0
 24 22  1  0
M  END
$$$$
