WMC.pdb
     RDKit          3D

 29 30  0  0  1  0  0  0  0  0999 V2000
    6.3499  -18.6180   24.1157 N   0  0  0  0  0  0  0  0  0  0  0  0
    6.7964  -17.2759   23.9149 C   0  0  1  0  0  0  0  0  0  0  0  0
    7.4282  -16.6191   25.0970 C   0  0  0  0  0  0  0  0  0  0  0  0
    6.7182  -15.4099   25.5826 C   0  0  0  0  0  0  0  0  0  0  0  0
    5.3723  -15.2770   25.8958 C   0  0  0  0  0  0  0  0  0  0  0  0
    5.0872  -14.0352   26.3182 N   0  0  0  0  0  0  0  0  0  0  0  0
    6.2375  -13.3415   26.2872 C   0  0  0  0  0  0  0  0  0  0  0  0
    6.5124  -12.0306   26.6118 C   0  0  0  0  0  0  0  0  0  0  0  0
    7.7966  -11.5063   26.4991 C   0  0  0  0  0  0  0  0  0  0  0  0
    8.8219  -12.3097   26.0534 C   0  0  0  0  0  0  0  0  0  0  0  0
    8.5280  -13.6139   25.7348 C   0  0  0  0  0  0  0  0  0  0  0  0
    7.2702  -14.1622   25.8357 C   0  0  0  0  0  0  0  0  0  0  0  0
    7.8473  -17.2875   22.8317 C   0  0  0  0  0  0  0  0  0  0  0  0
    8.4285  -18.3632   22.5172 O   0  0  0  0  0  0  0  0  0  0  0  0
    8.6847  -12.0166   19.0736 C   0  0  0  0  0  0  0  0  0  0  0  0
    7.3237  -13.1457   18.7800 S   0  0  0  0  0  0  0  0  0  0  0  0
    7.4012  -14.6161   19.8645 C   0  0  0  0  0  0  0  0  0  0  0  0
    8.8419  -14.8152   20.2232 C   0  0  0  0  0  0  0  0  0  0  0  0
    9.0691  -16.0288   21.1039 C   0  0  2  0  0  0  0  0  0  0  0  0
    8.1354  -16.0502   22.2036 N   0  0  0  0  0  0  0  0  0  0  0  0
   10.4838  -16.0703   21.5923 C   0  0  0  0  0  0  0  0  0  0  0  0
   11.4211  -16.0479   20.7560 O   0  0  0  0  0  0  0  0  0  0  0  0
   10.8149  -16.1344   22.9726 N   0  0  0  0  0  0  0  0  0  0  0  0
   12.1520  -16.1568   23.4999 C   0  0  1  0  0  0  0  0  0  0  0  0
   12.1796  -15.9344   24.9990 C   0  0  0  0  0  0  0  0  0  0  0  0
   11.1232  -14.4921   25.3478 S   0  0  0  0  0  0  0  0  0  0  0  0
   12.7855  -17.4536   23.2169 C   0  0  0  0  0  0  0  0  0  0  0  0
   13.9953  -17.7029   23.4361 O   0  0  0  0  0  0  0  0  0  0  0  0
   12.0047  -18.4676   22.6745 O   0  0  0  0  0  0  0  0  0  0  0  0
  2  1  1  1
  2 13  1  0
  3  2  1  0
  4  3  1  0
  4 12  1  0
  5  6  1  0
  5  4  2  0
  6  7  1  0
  7 12  2  0
  7  8  1  0
  8  9  2  0
  9 10  1  0
 11 10  2  0
 12 11  1  0
 13 14  2  0
 16 15  1  0
 17 18  1  0
 17 16  1  0
 19 18  1  1
 19 21  1  0
 20 19  1  0
 20 13  1  0
 21 22  2  0
 23 21  1  0
 23 24  1  0
 24 27  1  0
 24 25  1  1
 26 25  1  0
 27 28  2  0
 27 29  1  0
M  END
$$$$
