WMC.pdb
     RDKit          3D

 29 30  0  0  1  0  0  0  0  0999 V2000
    5.2940  -17.1545   24.0026 N   0  0  0  0  0  0  0  0  0  0  0  0
    6.5785  -17.5385   23.5090 C   0  0  1  0  0  0  0  0  0  0  0  0
    6.7555  -17.4563   22.0292 C   0  0  0  0  0  0  0  0  0  0  0  0
    6.5207  -16.1085   21.4545 C   0  0  0  0  0  0  0  0  0  0  0  0
    5.3365  -15.3845   21.4291 C   0  0  0  0  0  0  0  0  0  0  0  0
    5.5032  -14.1918   20.8363 N   0  0  0  0  0  0  0  0  0  0  0  0
    6.7930  -14.1193   20.4670 C   0  0  0  0  0  0  0  0  0  0  0  0
    7.4947  -13.1241   19.8217 C   0  0  0  0  0  0  0  0  0  0  0  0
    8.8481  -13.2606   19.5272 C   0  0  0  0  0  0  0  0  0  0  0  0
    9.5085  -14.4141   19.8856 C   0  0  0  0  0  0  0  0  0  0  0  0
    8.7917  -15.3949   20.5285 C   0  0  0  0  0  0  0  0  0  0  0  0
    7.4544  -15.2905   20.8342 C   0  0  0  0  0  0  0  0  0  0  0  0
    7.6079  -16.6100   24.1056 C   0  0  0  0  0  0  0  0  0  0  0  0
    7.3793  -15.3710   24.1874 O   0  0  0  0  0  0  0  0  0  0  0  0
   10.0004  -13.1555   29.3784 C   0  0  0  0  0  0  0  0  0  0  0  0
   10.2535  -14.7736   28.6497 S   0  0  0  0  0  0  0  0  0  0  0  0
    9.9722  -14.7680   26.8428 C   0  0  0  0  0  0  0  0  0  0  0  0
   10.0822  -16.1891   26.3822 C   0  0  0  0  0  0  0  0  0  0  0  0
    9.9289  -16.3370   24.8806 C   0  0  2  0  0  0  0  0  0  0  0  0
    8.8161  -17.1966   24.5578 N   0  0  0  0  0  0  0  0  0  0  0  0
   11.1986  -16.8393   24.2664 C   0  0  0  0  0  0  0  0  0  0  0  0
   11.3659  -18.0771   24.1321 O   0  0  0  0  0  0  0  0  0  0  0  0
   12.2314  -15.9688   23.8251 N   0  0  0  0  0  0  0  0  0  0  0  0
   13.4714  -16.3931   23.2345 C   0  0  1  0  0  0  0  0  0  0  0  0
   14.0357  -15.3572   22.2827 C   0  0  0  0  0  0  0  0  0  0  0  0
   15.6038  -16.0199   21.6352 S   0  0  0  0  0  0  0  0  0  0  0  0
   14.4710  -16.6449   24.2835 C   0  0  0  0  0  0  0  0  0  0  0  0
   14.3213  -16.3157   25.4848 O   0  0  0  0  0  0  0  0  0  0  0  0
   15.6538  -17.2844   23.9313 O   0  0  0  0  0  0  0  0  0  0  0  0
  2  1  1  6
  2 13  1  0
  3  2  1  0
  4  3  1  0
  4 12  1  0
  5  6  1  0
  5  4  2  0
  6  7  1  0
  7 12  2  0
  7  8  1  0
  8  9  2  0
  9 10  1  0
 11 10  2  0
 12 11  1  0
 13 14  2  0
 16 15  1  0
 17 18  1  0
 17 16  1  0
 19 18  1  1
 19 21  1  0
 20 19  1  0
 20 13  1  0
 21 22  2  0
 23 21  1  0
 23 24  1  0
 24 27  1  0
 24 25  1  6
 26 25  1  0
 27 28  2  0
 27 29  1  0
M  END
$$$$
