WMC.pdb
     RDKit          3D

 29 30  0  0  1  0  0  0  0  0999 V2000
    6.5795  -17.2627   25.4970 N   0  0  0  0  0  0  0  0  0  0  0  0
    7.1651  -16.1721   24.7839 C   0  0  1  0  0  0  0  0  0  0  0  0
    8.3828  -15.5713   25.4037 C   0  0  0  0  0  0  0  0  0  0  0  0
    8.1110  -14.6860   26.5632 C   0  0  0  0  0  0  0  0  0  0  0  0
    8.5414  -14.8381   27.8743 C   0  0  0  0  0  0  0  0  0  0  0  0
    8.1118  -13.8316   28.6515 N   0  0  0  0  0  0  0  0  0  0  0  0
    7.3975  -13.0107   27.8633 C   0  0  0  0  0  0  0  0  0  0  0  0
    6.7327  -11.8371   28.1460 C   0  0  0  0  0  0  0  0  0  0  0  0
    6.0391  -11.1379   27.1626 C   0  0  0  0  0  0  0  0  0  0  0  0
    6.0117  -11.6237   25.8749 C   0  0  0  0  0  0  0  0  0  0  0  0
    6.6808  -12.7952   25.6127 C   0  0  0  0  0  0  0  0  0  0  0  0
    7.3754  -13.5093   26.5615 C   0  0  0  0  0  0  0  0  0  0  0  0
    7.5913  -16.6736   23.4257 C   0  0  0  0  0  0  0  0  0  0  0  0
    7.9073  -17.8850   23.2625 O   0  0  0  0  0  0  0  0  0  0  0  0
    8.6578  -12.0312   18.7168 C   0  0  0  0  0  0  0  0  0  0  0  0
    7.0684  -12.7534   19.1240 S   0  0  0  0  0  0  0  0  0  0  0  0
    7.1833  -13.9332   20.5165 C   0  0  0  0  0  0  0  0  0  0  0  0
    8.2110  -14.9545   20.1360 C   0  0  0  0  0  0  0  0  0  0  0  0
    8.4439  -15.9902   21.2193 C   0  0  2  0  0  0  0  0  0  0  0  0
    7.6148  -15.7279   22.3705 N   0  0  0  0  0  0  0  0  0  0  0  0
    9.8921  -16.0459   21.5949 C   0  0  0  0  0  0  0  0  0  0  0  0
   10.2870  -15.4142   22.6065 O   0  0  0  0  0  0  0  0  0  0  0  0
   10.8474  -16.7888   20.8502 N   0  0  0  0  0  0  0  0  0  0  0  0
   12.0622  -17.3405   21.3853 C   0  0  1  0  0  0  0  0  0  0  0  0
   11.7955  -18.4387   22.3955 C   0  0  0  0  0  0  0  0  0  0  0  0
   11.7261  -17.6532   24.0373 S   0  0  0  0  0  0  0  0  0  0  0  0
   12.8822  -17.9033   20.3017 C   0  0  0  0  0  0  0  0  0  0  0  0
   12.4067  -18.4432   19.2740 O   0  0  0  0  0  0  0  0  0  0  0  0
   14.2658  -17.8372   20.4157 O   0  0  0  0  0  0  0  0  0  0  0  0
  2  1  1  1
  2 13  1  0
  3  2  1  0
  4  3  1  0
  4 12  1  0
  5  6  1  0
  5  4  2  0
  6  7  1  0
  7 12  2  0
  7  8  1  0
  8  9  2  0
  9 10  1  0
 11 10  2  0
 12 11  1  0
 13 14  2  0
 16 15  1  0
 17 18  1  0
 17 16  1  0
 19 18  1  6
 19 21  1  0
 20 19  1  0
 20 13  1  0
 21 22  2  0
 23 21  1  0
 23 24  1  0
 24 27  1  0
 24 25  1  1
 26 25  1  0
 27 28  2  0
 27 29  1  0
M  END
$$$$
