WMC.pdb
     RDKit          3D

 29 30  0  0  1  0  0  0  0  0999 V2000
    6.7323  -18.5198   23.8630 N   0  0  0  0  0  0  0  0  0  0  0  0
    7.1500  -17.1783   23.6044 C   0  0  1  0  0  0  0  0  0  0  0  0
    7.8452  -16.4873   24.7301 C   0  0  0  0  0  0  0  0  0  0  0  0
    6.9895  -15.5516   25.5010 C   0  0  0  0  0  0  0  0  0  0  0  0
    5.8122  -15.8328   26.1809 C   0  0  0  0  0  0  0  0  0  0  0  0
    5.3171  -14.7374   26.7783 N   0  0  0  0  0  0  0  0  0  0  0  0
    6.1597  -13.7289   26.4987 C   0  0  0  0  0  0  0  0  0  0  0  0
    6.1281  -12.3983   26.8559 C   0  0  0  0  0  0  0  0  0  0  0  0
    7.1182  -11.5103   26.4458 C   0  0  0  0  0  0  0  0  0  0  0  0
    8.1568  -11.9642   25.6645 C   0  0  0  0  0  0  0  0  0  0  0  0
    8.1709  -13.2944   25.3189 C   0  0  0  0  0  0  0  0  0  0  0  0
    7.2085  -14.1970   25.7083 C   0  0  0  0  0  0  0  0  0  0  0  0
    8.1328  -17.2048   22.4593 C   0  0  0  0  0  0  0  0  0  0  0  0
    8.5618  -18.3043   22.0111 O   0  0  0  0  0  0  0  0  0  0  0  0
    6.4402  -11.5772   19.2155 C   0  0  0  0  0  0  0  0  0  0  0  0
    7.9533  -12.5256   19.0594 S   0  0  0  0  0  0  0  0  0  0  0  0
    7.9231  -14.0449   20.0767 C   0  0  0  0  0  0  0  0  0  0  0  0
    9.3059  -14.6197   20.0393 C   0  0  0  0  0  0  0  0  0  0  0  0
    9.4207  -15.9320   20.7909 C   0  0  2  0  0  0  0  0  0  0  0  0
    8.5352  -15.9533   21.9297 N   0  0  0  0  0  0  0  0  0  0  0  0
   10.8384  -16.1841   21.2010 C   0  0  0  0  0  0  0  0  0  0  0  0
   11.7420  -16.1580   20.3286 O   0  0  0  0  0  0  0  0  0  0  0  0
   11.2091  -16.4539   22.5460 N   0  0  0  0  0  0  0  0  0  0  0  0
   12.5210  -16.8553   22.9752 C   0  0  1  0  0  0  0  0  0  0  0  0
   12.6547  -16.8523   24.4851 C   0  0  0  0  0  0  0  0  0  0  0  0
   12.0518  -15.2378   25.0747 S   0  0  0  0  0  0  0  0  0  0  0  0
   12.8183  -18.2119   22.4912 C   0  0  0  0  0  0  0  0  0  0  0  0
   12.0177  -18.9049   21.8184 O   0  0  0  0  0  0  0  0  0  0  0  0
   14.0569  -18.7659   22.7929 O   0  0  0  0  0  0  0  0  0  0  0  0
  2  1  1  1
  2 13  1  0
  3  2  1  0
  4  3  1  0
  4 12  1  0
  5  6  1  0
  5  4  2  0
  6  7  1  0
  7 12  2  0
  7  8  1  0
  8  9  2  0
  9 10  1  0
 11 10  2  0
 12 11  1  0
 13 14  2  0
 16 15  1  0
 17 18  1  0
 17 16  1  0
 19 18  1  1
 19 21  1  0
 20 19  1  0
 20 13  1  0
 21 22  2  0
 23 21  1  0
 23 24  1  0
 24 27  1  0
 24 25  1  1
 26 25  1  0
 27 28  2  0
 27 29  1  0
M  END
$$$$
