WMC.pdb
     RDKit          3D

 29 30  0  0  1  0  0  0  0  0999 V2000
    6.5012  -18.8125   24.9095 N   0  0  0  0  0  0  0  0  0  0  0  0
    6.7075  -17.4083   24.7464 C   0  0  1  0  0  0  0  0  0  0  0  0
    7.4059  -16.7205   25.8721 C   0  0  0  0  0  0  0  0  0  0  0  0
    6.7638  -15.4586   26.3163 C   0  0  0  0  0  0  0  0  0  0  0  0
    5.4790  -15.2814   26.8115 C   0  0  0  0  0  0  0  0  0  0  0  0
    5.2472  -13.9972   27.1258 N   0  0  0  0  0  0  0  0  0  0  0  0
    6.3719  -13.3194   26.8418 C   0  0  0  0  0  0  0  0  0  0  0  0
    6.6781  -11.9816   26.9678 C   0  0  0  0  0  0  0  0  0  0  0  0
    7.9249  -11.4823   26.6028 C   0  0  0  0  0  0  0  0  0  0  0  0
    8.8801  -12.3386   26.1034 C   0  0  0  0  0  0  0  0  0  0  0  0
    8.5560  -13.6690   25.9855 C   0  0  0  0  0  0  0  0  0  0  0  0
    7.3339  -14.1936   26.3375 C   0  0  0  0  0  0  0  0  0  0  0  0
    7.5724  -17.1990   23.5274 C   0  0  0  0  0  0  0  0  0  0  0  0
    8.4342  -18.0616   23.2001 O   0  0  0  0  0  0  0  0  0  0  0  0
    8.8067  -12.1473   17.5137 C   0  0  0  0  0  0  0  0  0  0  0  0
    7.8763  -12.6793   18.9507 S   0  0  0  0  0  0  0  0  0  0  0  0
    8.6033  -14.1643   19.7320 C   0  0  0  0  0  0  0  0  0  0  0  0
    7.7614  -14.4804   20.9300 C   0  0  0  0  0  0  0  0  0  0  0  0
    8.2120  -15.7344   21.6544 C   0  0  2  0  0  0  0  0  0  0  0  0
    7.3647  -16.0068   22.7899 N   0  0  0  0  0  0  0  0  0  0  0  0
    9.6479  -15.6217   22.0634 C   0  0  0  0  0  0  0  0  0  0  0  0
    9.9837  -14.7271   22.8790 O   0  0  0  0  0  0  0  0  0  0  0  0
   10.6557  -16.4903   21.5646 N   0  0  0  0  0  0  0  0  0  0  0  0
   12.0579  -16.3835   21.8624 C   0  0  1  0  0  0  0  0  0  0  0  0
   12.5781  -17.5957   22.6092 C   0  0  0  0  0  0  0  0  0  0  0  0
   11.8307  -17.5652   24.2699 S   0  0  0  0  0  0  0  0  0  0  0  0
   12.8299  -16.2452   20.6182 C   0  0  0  0  0  0  0  0  0  0  0  0
   12.3913  -16.5582   19.4853 O   0  0  0  0  0  0  0  0  0  0  0  0
   14.1223  -15.7391   20.6936 O   0  0  0  0  0  0  0  0  0  0  0  0
  2  1  1  1
  2 13  1  0
  3  2  1  0
  4  3  1  0
  4 12  1  0
  5  6  1  0
  5  4  2  0
  6  7  1  0
  7 12  2  0
  7  8  1  0
  8  9  2  0
  9 10  1  0
 11 10  2  0
 12 11  1  0
 13 14  2  0
 16 15  1  0
 17 18  1  0
 17 16  1  0
 19 18  1  1
 19 21  1  0
 20 19  1  0
 20 13  1  0
 21 22  2  0
 23 21  1  0
 23 24  1  0
 24 27  1  0
 24 25  1  6
 26 25  1  0
 27 28  2  0
 27 29  1  0
M  END
$$$$
