WMC.pdb
     RDKit          3D

 29 30  0  0  1  0  0  0  0  0999 V2000
    6.4722  -17.5269   24.4423 N   0  0  0  0  0  0  0  0  0  0  0  0
    7.0617  -16.2376   24.2657 C   0  0  1  0  0  0  0  0  0  0  0  0
    8.1443  -15.8821   25.2298 C   0  0  0  0  0  0  0  0  0  0  0  0
    7.6891  -15.1021   26.4072 C   0  0  0  0  0  0  0  0  0  0  0  0
    7.5009  -15.5492   27.7079 C   0  0  0  0  0  0  0  0  0  0  0  0
    7.0935  -14.5560   28.5139 N   0  0  0  0  0  0  0  0  0  0  0  0
    7.0098  -13.4504   27.7550 C   0  0  0  0  0  0  0  0  0  0  0  0
    6.6400  -12.1613   28.0723 C   0  0  0  0  0  0  0  0  0  0  0  0
    6.6186  -11.1528   27.1134 C   0  0  0  0  0  0  0  0  0  0  0  0
    6.9736  -11.4420   25.8151 C   0  0  0  0  0  0  0  0  0  0  0  0
    7.3396  -12.7331   25.5184 C   0  0  0  0  0  0  0  0  0  0  0  0
    7.3716  -13.7516   26.4427 C   0  0  0  0  0  0  0  0  0  0  0  0
    7.6912  -16.1926   22.8947 C   0  0  0  0  0  0  0  0  0  0  0  0
    7.7977  -17.2454   22.2060 O   0  0  0  0  0  0  0  0  0  0  0  0
    6.0266  -12.9015   18.1268 C   0  0  0  0  0  0  0  0  0  0  0  0
    7.5685  -13.5406   18.7809 S   0  0  0  0  0  0  0  0  0  0  0  0
    8.0054  -12.7791   20.3851 C   0  0  0  0  0  0  0  0  0  0  0  0
    9.2606  -13.4479   20.8553 C   0  0  0  0  0  0  0  0  0  0  0  0
    9.0350  -14.8791   21.3039 C   0  0  2  0  0  0  0  0  0  0  0  0
    8.1439  -14.9300   22.4373 N   0  0  0  0  0  0  0  0  0  0  0  0
   10.3387  -15.5495   21.6081 C   0  0  0  0  0  0  0  0  0  0  0  0
   11.2127  -14.9226   22.2572 O   0  0  0  0  0  0  0  0  0  0  0  0
   10.6326  -16.8756   21.1906 N   0  0  0  0  0  0  0  0  0  0  0  0
   11.9125  -17.5168   21.3212 C   0  0  1  0  0  0  0  0  0  0  0  0
   11.8000  -18.8986   21.9341 C   0  0  0  0  0  0  0  0  0  0  0  0
   11.1065  -18.6904   23.6054 S   0  0  0  0  0  0  0  0  0  0  0  0
   12.5480  -17.6507   20.0016 C   0  0  0  0  0  0  0  0  0  0  0  0
   11.9955  -17.3242   18.9237 O   0  0  0  0  0  0  0  0  0  0  0  0
   13.8362  -18.1687   19.9366 O   0  0  0  0  0  0  0  0  0  0  0  0
  2  1  1  1
  2 13  1  0
  3  2  1  0
  4  3  1  0
  4 12  1  0
  5  6  1  0
  5  4  2  0
  6  7  1  0
  7 12  2  0
  7  8  1  0
  8  9  2  0
  9 10  1  0
 11 10  2  0
 12 11  1  0
 13 14  2  0
 16 15  1  0
 17 18  1  0
 17 16  1  0
 19 18  1  1
 19 21  1  0
 20 19  1  0
 20 13  1  0
 21 22  2  0
 23 21  1  0
 23 24  1  0
 24 27  1  0
 24 25  1  6
 26 25  1  0
 27 28  2  0
 27 29  1  0
M  END
$$$$
