WMC.pdb
     RDKit          3D

 29 30  0  0  1  0  0  0  0  0999 V2000
    6.4896  -18.9416   24.5103 N   0  0  0  0  0  0  0  0  0  0  0  0
    6.6171  -17.5215   24.6013 C   0  0  1  0  0  0  0  0  0  0  0  0
    6.9511  -16.9859   25.9539 C   0  0  0  0  0  0  0  0  0  0  0  0
    6.6720  -15.5391   26.1298 C   0  0  0  0  0  0  0  0  0  0  0  0
    5.4939  -14.8567   25.8585 C   0  0  0  0  0  0  0  0  0  0  0  0
    5.6035  -13.5520   26.1543 N   0  0  0  0  0  0  0  0  0  0  0  0
    6.8493  -13.3635   26.6209 C   0  0  0  0  0  0  0  0  0  0  0  0
    7.4873  -12.2245   27.0622 C   0  0  0  0  0  0  0  0  0  0  0  0
    8.8061  -12.2539   27.5061 C   0  0  0  0  0  0  0  0  0  0  0  0
    9.4962  -13.4451   27.5073 C   0  0  0  0  0  0  0  0  0  0  0  0
    8.8427  -14.5700   27.0639 C   0  0  0  0  0  0  0  0  0  0  0  0
    7.5407  -14.5742   26.6196 C   0  0  0  0  0  0  0  0  0  0  0  0
    7.7421  -17.0917   23.6918 C   0  0  0  0  0  0  0  0  0  0  0  0
    8.5633  -17.9408   23.2463 O   0  0  0  0  0  0  0  0  0  0  0  0
    6.9481  -13.4154   18.6308 C   0  0  0  0  0  0  0  0  0  0  0  0
    8.1975  -13.8635   19.8358 S   0  0  0  0  0  0  0  0  0  0  0  0
    7.7474  -13.3314   21.5265 C   0  0  0  0  0  0  0  0  0  0  0  0
    8.8783  -13.7325   22.4231 C   0  0  0  0  0  0  0  0  0  0  0  0
    8.9613  -15.2320   22.6345 C   0  0  2  0  0  0  0  0  0  0  0  0
    7.8200  -15.7125   23.3748 N   0  0  0  0  0  0  0  0  0  0  0  0
   10.2434  -15.6000   23.3147 C   0  0  0  0  0  0  0  0  0  0  0  0
   11.3101  -15.6011   22.6511 O   0  0  0  0  0  0  0  0  0  0  0  0
   10.3061  -15.9508   24.6902 N   0  0  0  0  0  0  0  0  0  0  0  0
   11.5066  -15.9776   25.4806 C   0  0  1  0  0  0  0  0  0  0  0  0
   11.2234  -15.7873   26.9575 C   0  0  0  0  0  0  0  0  0  0  0  0
   12.8045  -15.9909   27.8384 S   0  0  0  0  0  0  0  0  0  0  0  0
   12.1969  -17.2647   25.3081 C   0  0  0  0  0  0  0  0  0  0  0  0
   13.3140  -17.5315   25.8127 O   0  0  0  0  0  0  0  0  0  0  0  0
   11.5822  -18.2484   24.5424 O   0  0  0  0  0  0  0  0  0  0  0  0
  2  1  1  1
  2 13  1  0
  3  2  1  0
  4  3  1  0
  4 12  1  0
  5  6  1  0
  5  4  2  0
  6  7  1  0
  7 12  2  0
  7  8  1  0
  8  9  2  0
  9 10  1  0
 11 10  2  0
 12 11  1  0
 13 14  2  0
 16 15  1  0
 17 18  1  0
 17 16  1  0
 19 18  1  1
 19 21  1  0
 20 19  1  0
 20 13  1  0
 21 22  2  0
 23 21  1  0
 23 24  1  0
 24 27  1  0
 24 25  1  1
 26 25  1  0
 27 28  2  0
 27 29  1  0
M  END
$$$$
