WMC.pdb
     RDKit          3D

 29 30  0  0  1  0  0  0  0  0999 V2000
    6.2270  -18.1614   24.4359 N   0  0  0  0  0  0  0  0  0  0  0  0
    6.7865  -16.8719   24.1809 C   0  0  1  0  0  0  0  0  0  0  0  0
    7.4661  -16.2195   25.3388 C   0  0  0  0  0  0  0  0  0  0  0  0
    6.7279  -15.0703   25.9187 C   0  0  0  0  0  0  0  0  0  0  0  0
    5.4707  -15.0712   26.5075 C   0  0  0  0  0  0  0  0  0  0  0  0
    5.1277  -13.8454   26.9336 N   0  0  0  0  0  0  0  0  0  0  0  0
    6.1510  -13.0292   26.6308 C   0  0  0  0  0  0  0  0  0  0  0  0
    6.3223  -11.6777   26.8390 C   0  0  0  0  0  0  0  0  0  0  0  0
    7.4797  -11.0193   26.4341 C   0  0  0  0  0  0  0  0  0  0  0  0
    8.4816  -11.7279   25.8101 C   0  0  0  0  0  0  0  0  0  0  0  0
    8.2922  -13.0747   25.6117 C   0  0  0  0  0  0  0  0  0  0  0  0
    7.1610  -13.7544   26.0002 C   0  0  0  0  0  0  0  0  0  0  0  0
    7.8376  -17.0196   23.1081 C   0  0  0  0  0  0  0  0  0  0  0  0
    8.4600  -18.1093   22.9694 O   0  0  0  0  0  0  0  0  0  0  0  0
    8.3348  -11.7444   19.5711 C   0  0  0  0  0  0  0  0  0  0  0  0
    7.6553  -13.1454   18.6828 S   0  0  0  0  0  0  0  0  0  0  0  0
    7.6244  -14.6612   19.7053 C   0  0  0  0  0  0  0  0  0  0  0  0
    8.9916  -14.8125   20.2982 C   0  0  0  0  0  0  0  0  0  0  0  0
    9.0916  -15.9791   21.2623 C   0  0  2  0  0  0  0  0  0  0  0  0
    8.0784  -15.8910   22.2855 N   0  0  0  0  0  0  0  0  0  0  0  0
   10.4620  -16.0545   21.8606 C   0  0  0  0  0  0  0  0  0  0  0  0
   10.8989  -15.0754   22.5154 O   0  0  0  0  0  0  0  0  0  0  0  0
   11.2969  -17.1955   21.7186 N   0  0  0  0  0  0  0  0  0  0  0  0
   12.6497  -17.2921   22.1950 C   0  0  1  0  0  0  0  0  0  0  0  0
   12.8221  -18.4092   23.2050 C   0  0  0  0  0  0  0  0  0  0  0  0
   11.8256  -17.9716   24.6655 S   0  0  0  0  0  0  0  0  0  0  0  0
   13.5646  -17.5444   21.0715 C   0  0  0  0  0  0  0  0  0  0  0  0
   14.8100  -17.6368   21.1917 O   0  0  0  0  0  0  0  0  0  0  0  0
   13.0257  -17.6901   19.7986 O   0  0  0  0  0  0  0  0  0  0  0  0
  2  1  1  1
  2 13  1  0
  3  2  1  0
  4  3  1  0
  4 12  1  0
  5  6  1  0
  5  4  2  0
  6  7  1  0
  7 12  2  0
  7  8  1  0
  8  9  2  0
  9 10  1  0
 11 10  2  0
 12 11  1  0
 13 14  2  0
 16 15  1  0
 17 18  1  0
 17 16  1  0
 19 18  1  6
 19 21  1  0
 20 19  1  0
 20 13  1  0
 21 22  2  0
 23 21  1  0
 23 24  1  0
 24 27  1  0
 24 25  1  1
 26 25  1  0
 27 28  2  0
 27 29  1  0
M  END
$$$$
