WMC.pdb
     RDKit          3D

 29 30  0  0  1  0  0  0  0  0999 V2000
    6.6754  -18.8123   25.1455 N   0  0  0  0  0  0  0  0  0  0  0  0
    6.7790  -17.4263   24.8151 C   0  0  1  0  0  0  0  0  0  0  0  0
    7.4070  -16.5574   25.8536 C   0  0  0  0  0  0  0  0  0  0  0  0
    6.6672  -15.3025   26.1365 C   0  0  0  0  0  0  0  0  0  0  0  0
    5.2978  -15.1336   26.2901 C   0  0  0  0  0  0  0  0  0  0  0  0
    4.9877  -13.8542   26.5523 N   0  0  0  0  0  0  0  0  0  0  0  0
    6.1446  -13.1713   26.5735 C   0  0  0  0  0  0  0  0  0  0  0  0
    6.4026  -11.8352   26.7914 C   0  0  0  0  0  0  0  0  0  0  0  0
    7.6989  -11.3296   26.7631 C   0  0  0  0  0  0  0  0  0  0  0  0
    8.7538  -12.1778   26.5121 C   0  0  0  0  0  0  0  0  0  0  0  0
    8.4764  -13.5067   26.2976 C   0  0  0  0  0  0  0  0  0  0  0  0
    7.2073  -14.0374   26.3194 C   0  0  0  0  0  0  0  0  0  0  0  0
    7.6444  -17.3000   23.5851 C   0  0  0  0  0  0  0  0  0  0  0  0
    8.6138  -18.0880   23.4025 O   0  0  0  0  0  0  0  0  0  0  0  0
    8.0342  -11.6426   19.9697 C   0  0  0  0  0  0  0  0  0  0  0  0
    7.9815  -13.0024   18.8028 S   0  0  0  0  0  0  0  0  0  0  0  0
    8.5719  -14.5679   19.5410 C   0  0  0  0  0  0  0  0  0  0  0  0
    7.7661  -14.7926   20.7836 C   0  0  0  0  0  0  0  0  0  0  0  0
    8.1683  -16.0507   21.5291 C   0  0  2  0  0  0  0  0  0  0  0  0
    7.3124  -16.2705   22.6695 N   0  0  0  0  0  0  0  0  0  0  0  0
    9.6080  -15.9870   21.9354 C   0  0  0  0  0  0  0  0  0  0  0  0
    9.9767  -15.1007   22.7459 O   0  0  0  0  0  0  0  0  0  0  0  0
   10.5834  -16.8935   21.4396 N   0  0  0  0  0  0  0  0  0  0  0  0
   12.0026  -16.7611   21.6261 C   0  0  1  0  0  0  0  0  0  0  0  0
   12.5951  -17.9437   22.3665 C   0  0  0  0  0  0  0  0  0  0  0  0
   11.9674  -17.8772   24.0750 S   0  0  0  0  0  0  0  0  0  0  0  0
   12.6758  -16.6518   20.3230 C   0  0  0  0  0  0  0  0  0  0  0  0
   12.0856  -16.7547   19.2209 O   0  0  0  0  0  0  0  0  0  0  0  0
   14.0463  -16.4211   20.3031 O   0  0  0  0  0  0  0  0  0  0  0  0
  2  1  1  1
  2 13  1  0
  3  2  1  0
  4  3  1  0
  4 12  1  0
  5  6  1  0
  5  4  2  0
  6  7  1  0
  7 12  2  0
  7  8  1  0
  8  9  2  0
  9 10  1  0
 11 10  2  0
 12 11  1  0
 13 14  2  0
 16 15  1  0
 17 18  1  0
 17 16  1  0
 19 18  1  1
 19 21  1  0
 20 19  1  0
 20 13  1  0
 21 22  2  0
 23 21  1  0
 23 24  1  0
 24 27  1  0
 24 25  1  6
 26 25  1  0
 27 28  2  0
 27 29  1  0
M  END
$$$$
