WWW.pdb
     RDKit          3D

 43 48  0  0  1  0  0  0  0  0999 V2000
    8.9814  -16.3233   20.9547 N   0  0  0  0  0  0  0  0  0  0  0  0
    9.2895  -14.9327   21.1614 C   0  0  1  0  0  0  0  0  0  0  0  0
    8.4160  -14.0241   20.3269 C   0  0  0  0  0  0  0  0  0  0  0  0
    8.9498  -14.1447   18.9248 C   0  0  0  0  0  0  0  0  0  0  0  0
    8.2093  -14.4221   17.8062 C   0  0  0  0  0  0  0  0  0  0  0  0
    9.0087  -14.4642   16.7445 N   0  0  0  0  0  0  0  0  0  0  0  0
   10.2948  -14.2172   17.1246 C   0  0  0  0  0  0  0  0  0  0  0  0
   11.4648  -14.1574   16.4026 C   0  0  0  0  0  0  0  0  0  0  0  0
   12.6309  -13.8818   17.1093 C   0  0  0  0  0  0  0  0  0  0  0  0
   12.5774  -13.6828   18.4750 C   0  0  0  0  0  0  0  0  0  0  0  0
   11.4000  -13.7454   19.1903 C   0  0  0  0  0  0  0  0  0  0  0  0
   10.2515  -14.0173   18.4948 C   0  0  0  0  0  0  0  0  0  0  0  0
    9.2779  -14.5692   22.6164 C   0  0  0  0  0  0  0  0  0  0  0  0
    9.3154  -13.3577   22.9296 O   0  0  0  0  0  0  0  0  0  0  0  0
    9.2255  -15.5913   23.5945 N   0  0  0  0  0  0  0  0  0  0  0  0
    9.2661  -15.4260   25.0194 C   0  0  1  0  0  0  0  0  0  0  0  0
    8.0355  -15.9785   25.7482 C   0  0  0  0  0  0  0  0  0  0  0  0
    6.8354  -15.1512   25.5803 C   0  0  0  0  0  0  0  0  0  0  0  0
    5.6081  -15.4617   25.0827 C   0  0  0  0  0  0  0  0  0  0  0  0
    4.8520  -14.3462   25.1545 N   0  0  0  0  0  0  0  0  0  0  0  0
    5.5641  -13.3391   25.6835 C   0  0  0  0  0  0  0  0  0  0  0  0
    5.2452  -12.0196   25.9662 C   0  0  0  0  0  0  0  0  0  0  0  0
    6.1988  -11.2045   26.5264 C   0  0  0  0  0  0  0  0  0  0  0  0
    7.4661  -11.6961   26.8059 C   0  0  0  0  0  0  0  0  0  0  0  0
    7.7974  -13.0052   26.5298 C   0  0  0  0  0  0  0  0  0  0  0  0
    6.8130  -13.8088   25.9626 C   0  0  0  0  0  0  0  0  0  0  0  0
   10.4833  -16.0068   25.5906 C   0  0  0  0  0  0  0  0  0  0  0  0
   10.7443  -15.7875   26.7953 O   0  0  0  0  0  0  0  0  0  0  0  0
   11.3442  -16.7917   24.8181 N   0  0  0  0  0  0  0  0  0  0  0  0
   12.7820  -16.6761   24.7382 C   0  0  1  0  0  0  0  0  0  0  0  0
   13.4102  -16.3610   26.0642 C   0  0  0  0  0  0  0  0  0  0  0  0
   12.6148  -16.8738   27.1813 C   0  0  0  0  0  0  0  0  0  0  0  0
   12.3208  -18.1836   27.4079 C   0  0  0  0  0  0  0  0  0  0  0  0
   11.5410  -18.2424   28.4985 N   0  0  0  0  0  0  0  0  0  0  0  0
   11.3408  -17.0048   28.9611 C   0  0  0  0  0  0  0  0  0  0  0  0
   10.6089  -16.6044   30.0818 C   0  0  0  0  0  0  0  0  0  0  0  0
   10.5636  -15.2617   30.3739 C   0  0  0  0  0  0  0  0  0  0  0  0
   11.2234  -14.3542   29.5780 C   0  0  0  0  0  0  0  0  0  0  0  0
   11.9346  -14.7718   28.4825 C   0  0  0  0  0  0  0  0  0  0  0  0
   12.0056  -16.1250   28.1504 C   0  0  0  0  0  0  0  0  0  0  0  0
   13.4101  -17.7397   23.9757 C   0  0  0  0  0  0  0  0  0  0  0  0
   12.7898  -18.8340   23.4056 O   0  0  0  0  0  0  0  0  0  0  0  0
   14.6791  -17.6606   23.8169 O   0  0  0  0  0  0  0  0  0  0  0  0
  2  1  1  1
  3  2  1  0
  4  5  2  0
  4  3  1  0
  6  5  1  0
  7 12  2  0
  7  6  1  0
  8  7  1  0
  9 10  1  0
  9  8  2  0
 10 11  2  0
 11 12  1  0
 12  4  1  0
 13 15  1  0
 13  2  1  0
 14 13  2  0
 16 27  1  0
 16 15  1  0
 16 17  1  1
 18 26  1  0
 18 17  1  0
 19 18  2  0
 20 19  1  0
 20 21  1  0
 21 22  1  0
 21 26  2  0
 22 23  2  0
 23 24  1  0
 25 24  2  0
 26 25  1  0
 27 28  2  0
 29 30  1  0
 29 27  1  0
 30 41  1  0
 30 31  1  1
 32 31  1  0
 33 32  2  0
 34 35  1  0
 34 33  1  0
 35 40  2  0
 36 37  2  0
 36 35  1  0
 37 38  1  0
 38 39  2  0
 40 39  1  0
 40 32  1  0
 41 42  1  0
 43 41  2  0
M  END
$$$$
