WWW.pdb
     RDKit          3D

 43 48  0  0  1  0  0  0  0  0999 V2000
    6.0267  -18.1651   23.6043 N   0  0  0  0  0  0  0  0  0  0  0  0
    7.2376  -17.3938   23.7067 C   0  0  1  0  0  0  0  0  0  0  0  0
    7.8339  -17.4489   25.0947 C   0  0  0  0  0  0  0  0  0  0  0  0
    7.2672  -16.2543   25.8137 C   0  0  0  0  0  0  0  0  0  0  0  0
    6.1080  -16.2332   26.5432 C   0  0  0  0  0  0  0  0  0  0  0  0
    5.9103  -15.0102   27.0263 N   0  0  0  0  0  0  0  0  0  0  0  0
    6.9260  -14.1891   26.6345 C   0  0  0  0  0  0  0  0  0  0  0  0
    7.1653  -12.8551   26.8730 C   0  0  0  0  0  0  0  0  0  0  0  0
    8.3155  -12.3087   26.3131 C   0  0  0  0  0  0  0  0  0  0  0  0
    9.1564  -13.1014   25.5568 C   0  0  0  0  0  0  0  0  0  0  0  0
    8.9079  -14.4376   25.3225 C   0  0  0  0  0  0  0  0  0  0  0  0
    7.7750  -14.9759   25.8734 C   0  0  0  0  0  0  0  0  0  0  0  0
    8.2244  -17.7606   22.6386 C   0  0  0  0  0  0  0  0  0  0  0  0
    8.5853  -18.9556   22.5438 O   0  0  0  0  0  0  0  0  0  0  0  0
    8.7221  -16.7600   21.7696 N   0  0  0  0  0  0  0  0  0  0  0  0
    9.5706  -15.6568   22.1189 C   0  0  1  0  0  0  0  0  0  0  0  0
    8.8806  -14.2895   22.0455 C   0  0  0  0  0  0  0  0  0  0  0  0
    7.9421  -14.1670   20.9243 C   0  0  0  0  0  0  0  0  0  0  0  0
    6.5882  -14.2922   20.8848 C   0  0  0  0  0  0  0  0  0  0  0  0
    6.2023  -14.0766   19.6097 N   0  0  0  0  0  0  0  0  0  0  0  0
    7.2717  -13.8177   18.8412 C   0  0  0  0  0  0  0  0  0  0  0  0
    7.4019  -13.5301   17.4911 C   0  0  0  0  0  0  0  0  0  0  0  0
    8.6527  -13.2970   16.9727 C   0  0  0  0  0  0  0  0  0  0  0  0
    9.7724  -13.3490   17.7909 C   0  0  0  0  0  0  0  0  0  0  0  0
    9.6582  -13.6341   19.1345 C   0  0  0  0  0  0  0  0  0  0  0  0
    8.3800  -13.8662   19.6334 C   0  0  0  0  0  0  0  0  0  0  0  0
   10.1684  -15.8403   23.4434 C   0  0  0  0  0  0  0  0  0  0  0  0
    9.8577  -15.0433   24.3574 O   0  0  0  0  0  0  0  0  0  0  0  0
   11.0682  -16.8800   23.6952 N   0  0  0  0  0  0  0  0  0  0  0  0
   12.4496  -16.7496   24.0971 C   0  0  1  0  0  0  0  0  0  0  0  0
   12.6392  -15.7422   25.1933 C   0  0  0  0  0  0  0  0  0  0  0  0
   11.7449  -15.9918   26.3253 C   0  0  0  0  0  0  0  0  0  0  0  0
   11.3934  -17.2180   26.8009 C   0  0  0  0  0  0  0  0  0  0  0  0
   10.5310  -17.0300   27.8117 N   0  0  0  0  0  0  0  0  0  0  0  0
   10.3348  -15.7193   27.9823 C   0  0  0  0  0  0  0  0  0  0  0  0
    9.5322  -15.0771   28.9284 C   0  0  0  0  0  0  0  0  0  0  0  0
    9.5068  -13.7025   28.9233 C   0  0  0  0  0  0  0  0  0  0  0  0
   10.2537  -12.9967   28.0088 C   0  0  0  0  0  0  0  0  0  0  0  0
   11.0333  -13.6499   27.0891 C   0  0  0  0  0  0  0  0  0  0  0  0
   11.0871  -15.0437   27.0597 C   0  0  0  0  0  0  0  0  0  0  0  0
   13.1251  -18.0213   24.2809 C   0  0  0  0  0  0  0  0  0  0  0  0
   14.4521  -18.2200   24.6076 O   0  0  0  0  0  0  0  0  0  0  0  0
   12.4170  -19.0768   24.1177 O   0  0  0  0  0  0  0  0  0  0  0  0
  2  1  1  1
  3  2  1  0
  4  5  2  0
  4  3  1  0
  6  5  1  0
  7 12  2  0
  7  6  1  0
  8  7  1  0
  9 10  1  0
  9  8  2  0
 10 11  2  0
 11 12  1  0
 12  4  1  0
 13 15  1  0
 13  2  1  0
 14 13  2  0
 16 27  1  0
 16 15  1  0
 16 17  1  1
 18 26  1  0
 18 17  1  0
 19 18  2  0
 20 19  1  0
 20 21  1  0
 21 22  1  0
 21 26  2  0
 22 23  2  0
 23 24  1  0
 25 24  2  0
 26 25  1  0
 27 28  2  0
 29 30  1  0
 29 27  1  0
 30 41  1  0
 30 31  1  1
 32 31  1  0
 33 32  2  0
 34 35  1  0
 34 33  1  0
 35 40  2  0
 36 37  2  0
 36 35  1  0
 37 38  1  0
 38 39  2  0
 40 39  1  0
 40 32  1  0
 41 42  1  0
 43 41  2  0
M  END
$$$$
