WWW.pdb
     RDKit          3D

 43 48  0  0  1  0  0  0  0  0999 V2000
    8.6854  -17.9389   18.7007 N   0  0  0  0  0  0  0  0  0  0  0  0
    9.6142  -16.8442   18.8033 C   0  0  1  0  0  0  0  0  0  0  0  0
    9.5067  -15.8927   17.6336 C   0  0  0  0  0  0  0  0  0  0  0  0
    9.7194  -16.7458   16.4121 C   0  0  0  0  0  0  0  0  0  0  0  0
    8.7460  -17.1504   15.5373 C   0  0  0  0  0  0  0  0  0  0  0  0
    9.2906  -17.9001   14.5836 N   0  0  0  0  0  0  0  0  0  0  0  0
   10.6328  -18.0142   14.7959 C   0  0  0  0  0  0  0  0  0  0  0  0
   11.6143  -18.6797   14.0976 C   0  0  0  0  0  0  0  0  0  0  0  0
   12.9111  -18.5963   14.5941 C   0  0  0  0  0  0  0  0  0  0  0  0
   13.1639  -17.8681   15.7400 C   0  0  0  0  0  0  0  0  0  0  0  0
   12.1735  -17.2048   16.4337 C   0  0  0  0  0  0  0  0  0  0  0  0
   10.8962  -17.2872   15.9454 C   0  0  0  0  0  0  0  0  0  0  0  0
    9.5104  -16.1470   20.1271 C   0  0  0  0  0  0  0  0  0  0  0  0
   10.1730  -15.0997   20.3040 O   0  0  0  0  0  0  0  0  0  0  0  0
    8.6751  -16.6810   21.1377 N   0  0  0  0  0  0  0  0  0  0  0  0
    8.6895  -16.3503   22.5340 C   0  0  1  0  0  0  0  0  0  0  0  0
    7.5696  -17.0129   23.3450 C   0  0  0  0  0  0  0  0  0  0  0  0
    6.8997  -16.0967   24.2750 C   0  0  0  0  0  0  0  0  0  0  0  0
    6.0215  -16.3443   25.2838 C   0  0  0  0  0  0  0  0  0  0  0  0
    5.7083  -15.1570   25.8436 N   0  0  0  0  0  0  0  0  0  0  0  0
    6.3628  -14.1654   25.2196 C   0  0  0  0  0  0  0  0  0  0  0  0
    6.3849  -12.7932   25.4180 C   0  0  0  0  0  0  0  0  0  0  0  0
    7.1742  -12.0114   24.6097 C   0  0  0  0  0  0  0  0  0  0  0  0
    7.9402  -12.5884   23.6067 C   0  0  0  0  0  0  0  0  0  0  0  0
    7.9279  -13.9507   23.3976 C   0  0  0  0  0  0  0  0  0  0  0  0
    7.1197  -14.7189   24.2302 C   0  0  0  0  0  0  0  0  0  0  0  0
    9.9874  -16.6523   23.1417 C   0  0  0  0  0  0  0  0  0  0  0  0
   10.6420  -17.6261   22.7054 O   0  0  0  0  0  0  0  0  0  0  0  0
   10.4965  -15.8770   24.1876 N   0  0  0  0  0  0  0  0  0  0  0  0
   11.7498  -16.0733   24.8787 C   0  0  1  0  0  0  0  0  0  0  0  0
   11.9792  -15.0561   25.9581 C   0  0  0  0  0  0  0  0  0  0  0  0
   11.1203  -15.2900   27.1206 C   0  0  0  0  0  0  0  0  0  0  0  0
   11.2700  -16.2959   28.0256 C   0  0  0  0  0  0  0  0  0  0  0  0
   10.2673  -16.1976   28.9121 N   0  0  0  0  0  0  0  0  0  0  0  0
    9.4955  -15.1563   28.5869 C   0  0  0  0  0  0  0  0  0  0  0  0
    8.3578  -14.6800   29.2432 C   0  0  0  0  0  0  0  0  0  0  0  0
    7.7367  -13.5672   28.7276 C   0  0  0  0  0  0  0  0  0  0  0  0
    8.2324  -12.9538   27.6004 C   0  0  0  0  0  0  0  0  0  0  0  0
    9.3504  -13.4407   26.9733 C   0  0  0  0  0  0  0  0  0  0  0  0
   10.0103  -14.5680   27.4635 C   0  0  0  0  0  0  0  0  0  0  0  0
   12.0023  -17.4550   25.2454 C   0  0  0  0  0  0  0  0  0  0  0  0
   13.2091  -18.0087   25.6255 O   0  0  0  0  0  0  0  0  0  0  0  0
   10.9993  -18.2517   25.2085 O   0  0  0  0  0  0  0  0  0  0  0  0
  2  1  1  6
  3  2  1  0
  4  5  2  0
  4  3  1  0
  6  5  1  0
  7 12  2  0
  7  6  1  0
  8  7  1  0
  9 10  1  0
  9  8  2  0
 10 11  2  0
 11 12  1  0
 12  4  1  0
 13 15  1  0
 13  2  1  0
 14 13  2  0
 16 27  1  0
 16 15  1  0
 16 17  1  1
 18 26  1  0
 18 17  1  0
 19 18  2  0
 20 19  1  0
 20 21  1  0
 21 22  1  0
 21 26  2  0
 22 23  2  0
 23 24  1  0
 25 24  2  0
 26 25  1  0
 27 28  2  0
 29 30  1  0
 29 27  1  0
 30 41  1  0
 30 31  1  1
 32 31  1  0
 33 32  2  0
 34 35  1  0
 34 33  1  0
 35 40  2  0
 36 37  2  0
 36 35  1  0
 37 38  1  0
 38 39  2  0
 40 39  1  0
 40 32  1  0
 41 42  1  0
 43 41  2  0
M  END
$$$$
