WWW.pdb
     RDKit          3D

 43 48  0  0  1  0  0  0  0  0999 V2000
   10.2945  -18.4620   19.1701 N   0  0  0  0  0  0  0  0  0  0  0  0
   11.3904  -17.6743   19.6704 C   0  0  1  0  0  0  0  0  0  0  0  0
   12.1252  -16.9511   18.5649 C   0  0  0  0  0  0  0  0  0  0  0  0
   12.4936  -18.0209   17.5724 C   0  0  0  0  0  0  0  0  0  0  0  0
   11.9703  -18.1619   16.3144 C   0  0  0  0  0  0  0  0  0  0  0  0
   12.5165  -19.2203   15.7230 N   0  0  0  0  0  0  0  0  0  0  0  0
   13.4128  -19.8088   16.5655 C   0  0  0  0  0  0  0  0  0  0  0  0
   14.2160  -20.9161   16.4153 C   0  0  0  0  0  0  0  0  0  0  0  0
   15.0293  -21.2581   17.4908 C   0  0  0  0  0  0  0  0  0  0  0  0
   15.0046  -20.4960   18.6423 C   0  0  0  0  0  0  0  0  0  0  0  0
   14.1957  -19.3881   18.7839 C   0  0  0  0  0  0  0  0  0  0  0  0
   13.3941  -19.0512   17.7252 C   0  0  0  0  0  0  0  0  0  0  0  0
   10.9585  -16.7559   20.7746 C   0  0  0  0  0  0  0  0  0  0  0  0
   11.7815  -15.9205   21.2128 O   0  0  0  0  0  0  0  0  0  0  0  0
    9.6445  -16.8512   21.2929 N   0  0  0  0  0  0  0  0  0  0  0  0
    9.2220  -16.5624   22.6335 C   0  0  1  0  0  0  0  0  0  0  0  0
    7.7284  -16.8025   22.8836 C   0  0  0  0  0  0  0  0  0  0  0  0
    7.2532  -16.2548   24.1592 C   0  0  0  0  0  0  0  0  0  0  0  0
    6.7786  -16.8804   25.2699 C   0  0  0  0  0  0  0  0  0  0  0  0
    6.4832  -15.9234   26.1743 N   0  0  0  0  0  0  0  0  0  0  0  0
    6.7576  -14.7106   25.6693 C   0  0  0  0  0  0  0  0  0  0  0  0
    6.6375  -13.4329   26.1946 C   0  0  0  0  0  0  0  0  0  0  0  0
    7.0122  -12.3552   25.4292 C   0  0  0  0  0  0  0  0  0  0  0  0
    7.5050  -12.5435   24.1456 C   0  0  0  0  0  0  0  0  0  0  0  0
    7.6294  -13.8074   23.6103 C   0  0  0  0  0  0  0  0  0  0  0  0
    7.2426  -14.8810   24.4068 C   0  0  0  0  0  0  0  0  0  0  0  0
   10.0151  -17.3048   23.6158 C   0  0  0  0  0  0  0  0  0  0  0  0
   10.2144  -18.5261   23.4263 O   0  0  0  0  0  0  0  0  0  0  0  0
   10.5448  -16.6748   24.7456 N   0  0  0  0  0  0  0  0  0  0  0  0
   11.4914  -17.2334   25.6832 C   0  0  1  0  0  0  0  0  0  0  0  0
   12.0243  -16.2108   26.6437 C   0  0  0  0  0  0  0  0  0  0  0  0
   11.0710  -15.9195   27.7162 C   0  0  0  0  0  0  0  0  0  0  0  0
   10.8322  -16.7093   28.7989 C   0  0  0  0  0  0  0  0  0  0  0  0
    9.8675  -16.1233   29.5247 N   0  0  0  0  0  0  0  0  0  0  0  0
    9.4976  -14.9873   28.9259 C   0  0  0  0  0  0  0  0  0  0  0  0
    8.5420  -14.0572   29.3423 C   0  0  0  0  0  0  0  0  0  0  0  0
    8.3485  -12.9412   28.5631 C   0  0  0  0  0  0  0  0  0  0  0  0
    9.0810  -12.7610   27.4126 C   0  0  0  0  0  0  0  0  0  0  0  0
   10.0129  -13.6889   27.0241 C   0  0  0  0  0  0  0  0  0  0  0  0
   10.2397  -14.8356   27.7858 C   0  0  0  0  0  0  0  0  0  0  0  0
   11.0584  -18.4889   26.2693 C   0  0  0  0  0  0  0  0  0  0  0  0
    9.8107  -19.0713   26.1628 O   0  0  0  0  0  0  0  0  0  0  0  0
   11.9242  -19.1263   26.9665 O   0  0  0  0  0  0  0  0  0  0  0  0
  2  1  1  6
  3  2  1  0
  4  5  2  0
  4  3  1  0
  6  5  1  0
  7 12  2  0
  7  6  1  0
  8  7  1  0
  9 10  1  0
  9  8  2  0
 10 11  2  0
 11 12  1  0
 12  4  1  0
 13 15  1  0
 13  2  1  0
 14 13  2  0
 16 27  1  0
 16 15  1  0
 16 17  1  6
 18 26  1  0
 18 17  1  0
 19 18  2  0
 20 19  1  0
 20 21  1  0
 21 22  1  0
 21 26  2  0
 22 23  2  0
 23 24  1  0
 25 24  2  0
 26 25  1  0
 27 28  2  0
 29 30  1  0
 29 27  1  0
 30 41  1  0
 30 31  1  1
 32 31  1  0
 33 32  2  0
 34 35  1  0
 34 33  1  0
 35 40  2  0
 36 37  2  0
 36 35  1  0
 37 38  1  0
 38 39  2  0
 40 39  1  0
 40 32  1  0
 41 42  1  0
 43 41  2  0
M  END
$$$$
