WWW.pdb
     RDKit          3D

 43 48  0  0  1  0  0  0  0  0999 V2000
   10.4128  -18.9536   21.1334 N   0  0  0  0  0  0  0  0  0  0  0  0
   11.0768  -17.7618   20.6747 C   0  0  1  0  0  0  0  0  0  0  0  0
   11.0504  -17.6372   19.1685 C   0  0  0  0  0  0  0  0  0  0  0  0
   11.7281  -18.8808   18.6592 C   0  0  0  0  0  0  0  0  0  0  0  0
   11.1358  -19.8720   17.9222 C   0  0  0  0  0  0  0  0  0  0  0  0
   12.0286  -20.8212   17.6573 N   0  0  0  0  0  0  0  0  0  0  0  0
   13.2318  -20.4900   18.2068 C   0  0  0  0  0  0  0  0  0  0  0  0
   14.4441  -21.1412   18.2106 C   0  0  0  0  0  0  0  0  0  0  0  0
   15.4936  -20.5203   18.8800 C   0  0  0  0  0  0  0  0  0  0  0  0
   15.2900  -19.3041   19.5018 C   0  0  0  0  0  0  0  0  0  0  0  0
   14.0710  -18.6591   19.4933 C   0  0  0  0  0  0  0  0  0  0  0  0
   13.0370  -19.2704   18.8345 C   0  0  0  0  0  0  0  0  0  0  0  0
   10.5603  -16.5348   21.3654 C   0  0  0  0  0  0  0  0  0  0  0  0
   10.9682  -15.4159   20.9795 O   0  0  0  0  0  0  0  0  0  0  0  0
    9.6331  -16.6653   22.4272 N   0  0  0  0  0  0  0  0  0  0  0  0
    8.9433  -15.6060   23.1064 C   0  0  1  0  0  0  0  0  0  0  0  0
    7.4515  -15.5117   22.7652 C   0  0  0  0  0  0  0  0  0  0  0  0
    7.1913  -15.2545   21.3442 C   0  0  0  0  0  0  0  0  0  0  0  0
    6.6690  -16.0590   20.3797 C   0  0  0  0  0  0  0  0  0  0  0  0
    6.6297  -15.3420   19.2371 N   0  0  0  0  0  0  0  0  0  0  0  0
    7.1108  -14.1073   19.4500 C   0  0  0  0  0  0  0  0  0  0  0  0
    7.2731  -13.0129   18.6141 C   0  0  0  0  0  0  0  0  0  0  0  0
    7.7978  -11.8506   19.1254 C   0  0  0  0  0  0  0  0  0  0  0  0
    8.1610  -11.7732   20.4626 C   0  0  0  0  0  0  0  0  0  0  0  0
    8.0058  -12.8529   21.3050 C   0  0  0  0  0  0  0  0  0  0  0  0
    7.4723  -14.0176   20.7613 C   0  0  0  0  0  0  0  0  0  0  0  0
    9.1153  -15.7002   24.5579 C   0  0  0  0  0  0  0  0  0  0  0  0
    8.4095  -14.9739   25.2939 O   0  0  0  0  0  0  0  0  0  0  0  0
   10.0441  -16.5790   25.1227 N   0  0  0  0  0  0  0  0  0  0  0  0
   10.4100  -16.6713   26.5172 C   0  0  1  0  0  0  0  0  0  0  0  0
    9.2165  -16.6952   27.4267 C   0  0  0  0  0  0  0  0  0  0  0  0
    8.1615  -15.7898   26.9676 C   0  0  0  0  0  0  0  0  0  0  0  0
    7.0409  -16.1599   26.2889 C   0  0  0  0  0  0  0  0  0  0  0  0
    6.3469  -15.0452   26.0116 N   0  0  0  0  0  0  0  0  0  0  0  0
    7.0024  -13.9881   26.5001 C   0  0  0  0  0  0  0  0  0  0  0  0
    6.6345  -12.6412   26.4547 C   0  0  0  0  0  0  0  0  0  0  0  0
    7.4689  -11.7262   27.0520 C   0  0  0  0  0  0  0  0  0  0  0  0
    8.6258  -12.1403   27.6705 C   0  0  0  0  0  0  0  0  0  0  0  0
    8.9659  -13.4683   27.7011 C   0  0  0  0  0  0  0  0  0  0  0  0
    8.1474  -14.4291   27.1065 C   0  0  0  0  0  0  0  0  0  0  0  0
   11.4323  -17.6662   26.7862 C   0  0  0  0  0  0  0  0  0  0  0  0
   11.9925  -18.5496   25.8844 O   0  0  0  0  0  0  0  0  0  0  0  0
   11.8599  -17.7391   27.9919 O   0  0  0  0  0  0  0  0  0  0  0  0
  2  1  1  6
  3  2  1  0
  4  5  2  0
  4  3  1  0
  6  5  1  0
  7 12  2  0
  7  6  1  0
  8  7  1  0
  9 10  1  0
  9  8  2  0
 10 11  2  0
 11 12  1  0
 12  4  1  0
 13 15  1  0
 13  2  1  0
 14 13  2  0
 16 27  1  0
 16 15  1  0
 16 17  1  1
 18 26  1  0
 18 17  1  0
 19 18  2  0
 20 19  1  0
 20 21  1  0
 21 22  1  0
 21 26  2  0
 22 23  2  0
 23 24  1  0
 25 24  2  0
 26 25  1  0
 27 28  2  0
 29 30  1  0
 29 27  1  0
 30 41  1  0
 30 31  1  1
 32 31  1  0
 33 32  2  0
 34 35  1  0
 34 33  1  0
 35 40  2  0
 36 37  2  0
 36 35  1  0
 37 38  1  0
 38 39  2  0
 40 39  1  0
 40 32  1  0
 41 42  1  0
 43 41  2  0
M  END
$$$$
