WWW.pdb
     RDKit          3D

 43 48  0  0  1  0  0  0  0  0999 V2000
    6.5340  -20.3071   23.1557 N   0  0  0  0  0  0  0  0  0  0  0  0
    7.4430  -19.2104   23.3623 C   0  0  1  0  0  0  0  0  0  0  0  0
    8.5743  -19.5748   24.2964 C   0  0  0  0  0  0  0  0  0  0  0  0
    7.9222  -19.8026   25.6336 C   0  0  0  0  0  0  0  0  0  0  0  0
    6.9589  -19.0111   26.2010 C   0  0  0  0  0  0  0  0  0  0  0  0
    6.6219  -19.5053   27.3886 N   0  0  0  0  0  0  0  0  0  0  0  0
    7.3466  -20.6321   27.6425 C   0  0  0  0  0  0  0  0  0  0  0  0
    7.3603  -21.4848   28.7225 C   0  0  0  0  0  0  0  0  0  0  0  0
    8.2387  -22.5621   28.6669 C   0  0  0  0  0  0  0  0  0  0  0  0
    9.0460  -22.7356   27.5598 C   0  0  0  0  0  0  0  0  0  0  0  0
    9.0258  -21.8752   26.4822 C   0  0  0  0  0  0  0  0  0  0  0  0
    8.1613  -20.8138   26.5368 C   0  0  0  0  0  0  0  0  0  0  0  0
    7.9271  -18.6353   22.0647 C   0  0  0  0  0  0  0  0  0  0  0  0
    8.5844  -19.3707   21.2938 O   0  0  0  0  0  0  0  0  0  0  0  0
    7.6346  -17.2883   21.7417 N   0  0  0  0  0  0  0  0  0  0  0  0
    7.6244  -16.1679   22.6381 C   0  0  1  0  0  0  0  0  0  0  0  0
    7.2537  -16.5259   24.0822 C   0  0  0  0  0  0  0  0  0  0  0  0
    6.7877  -15.3780   24.8685 C   0  0  0  0  0  0  0  0  0  0  0  0
    6.1940  -15.3245   26.0912 C   0  0  0  0  0  0  0  0  0  0  0  0
    5.9707  -14.0236   26.3722 N   0  0  0  0  0  0  0  0  0  0  0  0
    6.4063  -13.2521   25.3641 C   0  0  0  0  0  0  0  0  0  0  0  0
    6.4112  -11.8783   25.1763 C   0  0  0  0  0  0  0  0  0  0  0  0
    6.9424  -11.3616   24.0193 C   0  0  0  0  0  0  0  0  0  0  0  0
    7.4677  -12.2048   23.0504 C   0  0  0  0  0  0  0  0  0  0  0  0
    7.4692  -13.5722   23.2232 C   0  0  0  0  0  0  0  0  0  0  0  0
    6.9250  -14.0689   24.4038 C   0  0  0  0  0  0  0  0  0  0  0  0
    8.9031  -15.4540   22.6166 C   0  0  0  0  0  0  0  0  0  0  0  0
    8.8921  -14.2071   22.5042 O   0  0  0  0  0  0  0  0  0  0  0  0
   10.1176  -16.1383   22.7188 N   0  0  0  0  0  0  0  0  0  0  0  0
   10.9148  -16.3115   23.9111 C   0  0  1  0  0  0  0  0  0  0  0  0
   10.0899  -16.6863   25.1076 C   0  0  0  0  0  0  0  0  0  0  0  0
    9.9217  -15.5612   26.0293 C   0  0  0  0  0  0  0  0  0  0  0  0
    9.2409  -14.4133   25.7610 C   0  0  0  0  0  0  0  0  0  0  0  0
    9.3499  -13.6157   26.8347 N   0  0  0  0  0  0  0  0  0  0  0  0
   10.0792  -14.2345   27.7680 C   0  0  0  0  0  0  0  0  0  0  0  0
   10.4253  -13.7796   29.0427 C   0  0  0  0  0  0  0  0  0  0  0  0
   11.1733  -14.6120   29.8414 C   0  0  0  0  0  0  0  0  0  0  0  0
   11.5605  -15.8505   29.3847 C   0  0  0  0  0  0  0  0  0  0  0  0
   11.2090  -16.2744   28.1290 C   0  0  0  0  0  0  0  0  0  0  0  0
   10.4513  -15.4604   27.2864 C   0  0  0  0  0  0  0  0  0  0  0  0
   12.1171  -17.0968   23.6986 C   0  0  0  0  0  0  0  0  0  0  0  0
   13.2179  -17.1756   24.5289 O   0  0  0  0  0  0  0  0  0  0  0  0
   12.1680  -17.7894   22.6218 O   0  0  0  0  0  0  0  0  0  0  0  0
  2  1  1  6
  3  2  1  0
  4  5  2  0
  4  3  1  0
  6  5  1  0
  7 12  2  0
  7  6  1  0
  8  7  1  0
  9 10  1  0
  9  8  2  0
 10 11  2  0
 11 12  1  0
 12  4  1  0
 13 15  1  0
 13  2  1  0
 14 13  2  0
 16 27  1  0
 16 15  1  0
 16 17  1  1
 18 26  1  0
 18 17  1  0
 19 18  2  0
 20 19  1  0
 20 21  1  0
 21 22  1  0
 21 26  2  0
 22 23  2  0
 23 24  1  0
 25 24  2  0
 26 25  1  0
 27 28  2  0
 29 30  1  0
 29 27  1  0
 30 41  1  0
 30 31  1  1
 32 31  1  0
 33 32  2  0
 34 35  1  0
 34 33  1  0
 35 40  2  0
 36 37  2  0
 36 35  1  0
 37 38  1  0
 38 39  2  0
 40 39  1  0
 40 32  1  0
 41 42  1  0
 43 41  2  0
M  END
$$$$
