WWW.pdb
     RDKit          3D

 43 48  0  0  1  0  0  0  0  0999 V2000
   10.8450  -17.7440   18.3741 N   0  0  0  0  0  0  0  0  0  0  0  0
   11.0942  -18.2020   19.7157 C   0  0  1  0  0  0  0  0  0  0  0  0
   12.5069  -18.7099   19.8925 C   0  0  0  0  0  0  0  0  0  0  0  0
   12.6736  -19.7801   18.8474 C   0  0  0  0  0  0  0  0  0  0  0  0
   12.0675  -21.0086   18.8542 C   0  0  0  0  0  0  0  0  0  0  0  0
   12.4520  -21.6986   17.7845 N   0  0  0  0  0  0  0  0  0  0  0  0
   13.3186  -20.9531   17.0409 C   0  0  0  0  0  0  0  0  0  0  0  0
   13.9826  -21.2258   15.8669 C   0  0  0  0  0  0  0  0  0  0  0  0
   14.8132  -20.2297   15.3638 C   0  0  0  0  0  0  0  0  0  0  0  0
   14.9405  -19.0327   16.0406 C   0  0  0  0  0  0  0  0  0  0  0  0
   14.2714  -18.7685   17.2173 C   0  0  0  0  0  0  0  0  0  0  0  0
   13.4538  -19.7494   17.7134 C   0  0  0  0  0  0  0  0  0  0  0  0
   10.7193  -17.1690   20.7363 C   0  0  0  0  0  0  0  0  0  0  0  0
   11.5699  -16.3071   21.0539 O   0  0  0  0  0  0  0  0  0  0  0  0
    9.4265  -17.1893   21.3129 N   0  0  0  0  0  0  0  0  0  0  0  0
    9.0441  -16.6679   22.5939 C   0  0  1  0  0  0  0  0  0  0  0  0
    7.5769  -16.9220   22.9598 C   0  0  0  0  0  0  0  0  0  0  0  0
    7.1585  -16.2552   24.1980 C   0  0  0  0  0  0  0  0  0  0  0  0
    6.7442  -16.7722   25.3860 C   0  0  0  0  0  0  0  0  0  0  0  0
    6.4835  -15.7332   26.2067 N   0  0  0  0  0  0  0  0  0  0  0  0
    6.7212  -14.5739   25.5737 C   0  0  0  0  0  0  0  0  0  0  0  0
    6.6141  -13.2519   25.9779 C   0  0  0  0  0  0  0  0  0  0  0  0
    6.9407  -12.2519   25.0942 C   0  0  0  0  0  0  0  0  0  0  0  0
    7.3727  -12.5616   23.8123 C   0  0  0  0  0  0  0  0  0  0  0  0
    7.4836  -13.8710   23.3966 C   0  0  0  0  0  0  0  0  0  0  0  0
    7.1463  -14.8639   24.3114 C   0  0  0  0  0  0  0  0  0  0  0  0
    9.9152  -17.1717   23.6581 C   0  0  0  0  0  0  0  0  0  0  0  0
   10.0233  -18.4098   23.8090 O   0  0  0  0  0  0  0  0  0  0  0  0
   10.6172  -16.2993   24.4948 N   0  0  0  0  0  0  0  0  0  0  0  0
   11.5804  -16.6613   25.5088 C   0  0  1  0  0  0  0  0  0  0  0  0
   11.9568  -15.5038   26.3868 C   0  0  0  0  0  0  0  0  0  0  0  0
   10.8849  -15.1558   27.3214 C   0  0  0  0  0  0  0  0  0  0  0  0
   10.4350  -15.9418   28.3379 C   0  0  0  0  0  0  0  0  0  0  0  0
    9.4235  -15.2936   28.9358 N   0  0  0  0  0  0  0  0  0  0  0  0
    9.2297  -14.1226   28.3218 C   0  0  0  0  0  0  0  0  0  0  0  0
    8.2972  -13.1272   28.6243 C   0  0  0  0  0  0  0  0  0  0  0  0
    8.3017  -11.9871   27.8560 C   0  0  0  0  0  0  0  0  0  0  0  0
    9.2024  -11.8465   26.8257 C   0  0  0  0  0  0  0  0  0  0  0  0
   10.1076  -12.8382   26.5477 C   0  0  0  0  0  0  0  0  0  0  0  0
   10.1362  -14.0113   27.3024 C   0  0  0  0  0  0  0  0  0  0  0  0
   11.2655  -17.9013   26.1946 C   0  0  0  0  0  0  0  0  0  0  0  0
   10.0653  -18.5843   26.1714 O   0  0  0  0  0  0  0  0  0  0  0  0
   12.1988  -18.4185   26.9042 O   0  0  0  0  0  0  0  0  0  0  0  0
  2  1  1  6
  3  2  1  0
  4  5  2  0
  4  3  1  0
  6  5  1  0
  7 12  2  0
  7  6  1  0
  8  7  1  0
  9 10  1  0
  9  8  2  0
 10 11  2  0
 11 12  1  0
 12  4  1  0
 13 15  1  0
 13  2  1  0
 14 13  2  0
 16 27  1  0
 16 15  1  0
 16 17  1  1
 18 26  1  0
 18 17  1  0
 19 18  2  0
 20 19  1  0
 20 21  1  0
 21 22  1  0
 21 26  2  0
 22 23  2  0
 23 24  1  0
 25 24  2  0
 26 25  1  0
 27 28  2  0
 29 30  1  0
 29 27  1  0
 30 41  1  0
 30 31  1  1
 32 31  1  0
 33 32  2  0
 34 35  1  0
 34 33  1  0
 35 40  2  0
 36 37  2  0
 36 35  1  0
 37 38  1  0
 38 39  2  0
 40 39  1  0
 40 32  1  0
 41 42  1  0
 43 41  2  0
M  END
$$$$
