WWW.pdb
     RDKit          3D

 43 48  0  0  1  0  0  0  0  0999 V2000
   10.1346  -17.9542   17.9731 N   0  0  0  0  0  0  0  0  0  0  0  0
   11.0075  -18.0337   19.1148 C   0  0  1  0  0  0  0  0  0  0  0  0
   12.4319  -17.6618   18.7715 C   0  0  0  0  0  0  0  0  0  0  0  0
   12.7749  -18.4923   17.5641 C   0  0  0  0  0  0  0  0  0  0  0  0
   12.9096  -18.0268   16.2829 C   0  0  0  0  0  0  0  0  0  0  0  0
   13.2052  -19.0386   15.4722 N   0  0  0  0  0  0  0  0  0  0  0  0
   13.2751  -20.1978   16.1870 C   0  0  0  0  0  0  0  0  0  0  0  0
   13.5424  -21.4921   15.8036 C   0  0  0  0  0  0  0  0  0  0  0  0
   13.5328  -22.4620   16.8008 C   0  0  0  0  0  0  0  0  0  0  0  0
   13.2628  -22.1038   18.1070 C   0  0  0  0  0  0  0  0  0  0  0  0
   12.9953  -20.8038   18.4817 C   0  0  0  0  0  0  0  0  0  0  0  0
   13.0041  -19.8484   17.5000 C   0  0  0  0  0  0  0  0  0  0  0  0
   10.4724  -17.2574   20.2810 C   0  0  0  0  0  0  0  0  0  0  0  0
   11.1143  -16.2591   20.6791 O   0  0  0  0  0  0  0  0  0  0  0  0
    9.2664  -17.6645   20.9009 N   0  0  0  0  0  0  0  0  0  0  0  0
    8.8586  -17.4030   22.2516 C   0  0  1  0  0  0  0  0  0  0  0  0
    7.3463  -17.5100   22.4800 C   0  0  0  0  0  0  0  0  0  0  0  0
    6.8557  -16.6502   23.5631 C   0  0  0  0  0  0  0  0  0  0  0  0
    6.2951  -16.9678   24.7611 C   0  0  0  0  0  0  0  0  0  0  0  0
    6.0262  -15.8089   25.3981 N   0  0  0  0  0  0  0  0  0  0  0  0
    6.4007  -14.7673   24.6392 C   0  0  0  0  0  0  0  0  0  0  0  0
    6.3434  -13.3969   24.8429 C   0  0  0  0  0  0  0  0  0  0  0  0
    6.8197  -12.5536   23.8684 C   0  0  0  0  0  0  0  0  0  0  0  0
    7.3519  -13.0675   22.6943 C   0  0  0  0  0  0  0  0  0  0  0  0
    7.4148  -14.4272   22.4779 C   0  0  0  0  0  0  0  0  0  0  0  0
    6.9254  -15.2585   23.4809 C   0  0  0  0  0  0  0  0  0  0  0  0
    9.5659  -18.2661   23.2003 C   0  0  0  0  0  0  0  0  0  0  0  0
   10.2201  -19.2366   22.7558 O   0  0  0  0  0  0  0  0  0  0  0  0
    9.5201  -18.0224   24.5760 N   0  0  0  0  0  0  0  0  0  0  0  0
   10.6412  -17.7377   25.4415 C   0  0  1  0  0  0  0  0  0  0  0  0
   10.8872  -16.2659   25.6020 C   0  0  0  0  0  0  0  0  0  0  0  0
   10.0169  -15.6743   26.6200 C   0  0  0  0  0  0  0  0  0  0  0  0
    8.9680  -16.2977   27.2238 C   0  0  0  0  0  0  0  0  0  0  0  0
    8.3983  -15.4165   28.0603 N   0  0  0  0  0  0  0  0  0  0  0  0
    9.0637  -14.2593   27.9973 C   0  0  0  0  0  0  0  0  0  0  0  0
    8.8261  -13.0809   28.7092 C   0  0  0  0  0  0  0  0  0  0  0  0
    9.6671  -12.0159   28.4888 C   0  0  0  0  0  0  0  0  0  0  0  0
   10.7050  -12.1234   27.5924 C   0  0  0  0  0  0  0  0  0  0  0  0
   10.9174  -13.2906   26.9048 C   0  0  0  0  0  0  0  0  0  0  0  0
   10.0869  -14.3948   27.0984 C   0  0  0  0  0  0  0  0  0  0  0  0
   10.6448  -18.5184   26.6654 C   0  0  0  0  0  0  0  0  0  0  0  0
   11.7010  -18.6951   27.5374 O   0  0  0  0  0  0  0  0  0  0  0  0
    9.5520  -19.1142   26.9700 O   0  0  0  0  0  0  0  0  0  0  0  0
  2  1  1  6
  3  2  1  0
  4  5  2  0
  4  3  1  0
  6  5  1  0
  7 12  2  0
  7  6  1  0
  8  7  1  0
  9 10  1  0
  9  8  2  0
 10 11  2  0
 11 12  1  0
 12  4  1  0
 13 15  1  0
 13  2  1  0
 14 13  2  0
 16 27  1  0
 16 15  1  0
 16 17  1  6
 18 26  1  0
 18 17  1  0
 19 18  2  0
 20 19  1  0
 20 21  1  0
 21 22  1  0
 21 26  2  0
 22 23  2  0
 23 24  1  0
 25 24  2  0
 26 25  1  0
 27 28  2  0
 29 30  1  0
 29 27  1  0
 30 41  1  0
 30 31  1  1
 32 31  1  0
 33 32  2  0
 34 35  1  0
 34 33  1  0
 35 40  2  0
 36 37  2  0
 36 35  1  0
 37 38  1  0
 38 39  2  0
 40 39  1  0
 40 32  1  0
 41 42  1  0
 43 41  2  0
M  END
$$$$
