WWW.pdb
     RDKit          3D

 43 48  0  0  1  0  0  0  0  0999 V2000
   12.1248  -16.5281   19.7413 N   0  0  0  0  0  0  0  0  0  0  0  0
   12.2601  -15.1993   20.2777 C   0  0  1  0  0  0  0  0  0  0  0  0
   12.1537  -14.1377   19.2068 C   0  0  0  0  0  0  0  0  0  0  0  0
   13.2658  -14.4423   18.2395 C   0  0  0  0  0  0  0  0  0  0  0  0
   13.1136  -14.9588   16.9799 C   0  0  0  0  0  0  0  0  0  0  0  0
   14.3080  -15.1087   16.4149 N   0  0  0  0  0  0  0  0  0  0  0  0
   15.2815  -14.6985   17.2771 C   0  0  0  0  0  0  0  0  0  0  0  0
   16.6519  -14.6623   17.1565 C   0  0  0  0  0  0  0  0  0  0  0  0
   17.3703  -14.1803   18.2459 C   0  0  0  0  0  0  0  0  0  0  0  0
   16.7028  -13.7653   19.3815 C   0  0  0  0  0  0  0  0  0  0  0  0
   15.3288  -13.8060   19.4935 C   0  0  0  0  0  0  0  0  0  0  0  0
   14.6210  -14.2811   18.4211 C   0  0  0  0  0  0  0  0  0  0  0  0
   11.3209  -14.9617   21.4225 C   0  0  0  0  0  0  0  0  0  0  0  0
   11.4197  -13.8911   22.0638 O   0  0  0  0  0  0  0  0  0  0  0  0
   10.3531  -15.9414   21.7510 N   0  0  0  0  0  0  0  0  0  0  0  0
    9.3666  -15.8663   22.7904 C   0  0  1  0  0  0  0  0  0  0  0  0
    7.9255  -16.0472   22.2989 C   0  0  0  0  0  0  0  0  0  0  0  0
    7.7240  -15.6244   20.9083 C   0  0  0  0  0  0  0  0  0  0  0  0
    7.4888  -16.3554   19.7856 C   0  0  0  0  0  0  0  0  0  0  0  0
    7.3682  -15.4872   18.7595 N   0  0  0  0  0  0  0  0  0  0  0  0
    7.5192  -14.2284   19.1996 C   0  0  0  0  0  0  0  0  0  0  0  0
    7.4784  -13.0030   18.5519 C   0  0  0  0  0  0  0  0  0  0  0  0
    7.6654  -11.8531   19.2802 C   0  0  0  0  0  0  0  0  0  0  0  0
    7.8925  -11.9175   20.6477 C   0  0  0  0  0  0  0  0  0  0  0  0
    7.9362  -13.1283   21.3047 C   0  0  0  0  0  0  0  0  0  0  0  0
    7.7438  -14.2772   20.5433 C   0  0  0  0  0  0  0  0  0  0  0  0
    9.6479  -16.8213   23.8647 C   0  0  0  0  0  0  0  0  0  0  0  0
   10.3505  -17.8248   23.6064 O   0  0  0  0  0  0  0  0  0  0  0  0
    9.1489  -16.6279   25.1560 N   0  0  0  0  0  0  0  0  0  0  0  0
    9.9077  -16.6290   26.3853 C   0  0  1  0  0  0  0  0  0  0  0  0
    9.3525  -15.6802   27.4071 C   0  0  0  0  0  0  0  0  0  0  0  0
    8.0737  -15.1073   26.9827 C   0  0  0  0  0  0  0  0  0  0  0  0
    6.9668  -15.8169   26.6299 C   0  0  0  0  0  0  0  0  0  0  0  0
    6.0201  -14.9386   26.2650 N   0  0  0  0  0  0  0  0  0  0  0  0
    6.5045  -13.6987   26.3818 C   0  0  0  0  0  0  0  0  0  0  0  0
    5.8588  -12.4864   26.1262 C   0  0  0  0  0  0  0  0  0  0  0  0
    6.5624  -11.3251   26.3422 C   0  0  0  0  0  0  0  0  0  0  0  0
    7.8603  -11.3726   26.7956 C   0  0  0  0  0  0  0  0  0  0  0  0
    8.4728  -12.5752   27.0384 C   0  0  0  0  0  0  0  0  0  0  0  0
    7.7947  -13.7768   26.8316 C   0  0  0  0  0  0  0  0  0  0  0  0
   10.2345  -17.9590   26.8667 C   0  0  0  0  0  0  0  0  0  0  0  0
    9.7509  -19.1604   26.3870 O   0  0  0  0  0  0  0  0  0  0  0  0
   11.0569  -18.0293   27.8468 O   0  0  0  0  0  0  0  0  0  0  0  0
  2  1  1  6
  3  2  1  0
  4  5  2  0
  4  3  1  0
  6  5  1  0
  7 12  2  0
  7  6  1  0
  8  7  1  0
  9 10  1  0
  9  8  2  0
 10 11  2  0
 11 12  1  0
 12  4  1  0
 13 15  1  0
 13  2  1  0
 14 13  2  0
 16 27  1  0
 16 15  1  0
 16 17  1  6
 18 26  1  0
 18 17  1  0
 19 18  2  0
 20 19  1  0
 20 21  1  0
 21 22  1  0
 21 26  2  0
 22 23  2  0
 23 24  1  0
 25 24  2  0
 26 25  1  0
 27 28  2  0
 29 30  1  0
 29 27  1  0
 30 41  1  0
 30 31  1  1
 32 31  1  0
 33 32  2  0
 34 35  1  0
 34 33  1  0
 35 40  2  0
 36 37  2  0
 36 35  1  0
 37 38  1  0
 38 39  2  0
 40 39  1  0
 40 32  1  0
 41 42  1  0
 43 41  2  0
M  END
$$$$
