WWW.pdb
     RDKit          3D

 43 48  0  0  1  0  0  0  0  0999 V2000
    9.0468  -20.4090   27.4169 N   0  0  0  0  0  0  0  0  0  0  0  0
    9.2086  -19.0335   27.0252 C   0  0  1  0  0  0  0  0  0  0  0  0
   10.5878  -18.5061   27.3486 C   0  0  0  0  0  0  0  0  0  0  0  0
   10.3612  -17.3901   28.3327 C   0  0  0  0  0  0  0  0  0  0  0  0
   10.1279  -17.5393   29.6742 C   0  0  0  0  0  0  0  0  0  0  0  0
    9.9620  -16.3432   30.2311 N   0  0  0  0  0  0  0  0  0  0  0  0
   10.0799  -15.3714   29.2818 C   0  0  0  0  0  0  0  0  0  0  0  0
    9.9864  -14.0007   29.3618 C   0  0  0  0  0  0  0  0  0  0  0  0
   10.1571  -13.2851   28.1812 C   0  0  0  0  0  0  0  0  0  0  0  0
   10.4078  -13.9553   27.0000 C   0  0  0  0  0  0  0  0  0  0  0  0
   10.4991  -15.3296   26.9294 C   0  0  0  0  0  0  0  0  0  0  0  0
   10.3305  -16.0349   28.0918 C   0  0  0  0  0  0  0  0  0  0  0  0
    8.8270  -18.8134   25.5916 C   0  0  0  0  0  0  0  0  0  0  0  0
    8.9833  -19.7543   24.7808 O   0  0  0  0  0  0  0  0  0  0  0  0
    8.3042  -17.5609   25.1890 N   0  0  0  0  0  0  0  0  0  0  0  0
    7.9632  -17.1557   23.8554 C   0  0  1  0  0  0  0  0  0  0  0  0
    7.0905  -15.8968   23.7882 C   0  0  0  0  0  0  0  0  0  0  0  0
    6.8073  -15.4534   22.4185 C   0  0  0  0  0  0  0  0  0  0  0  0
    6.1115  -16.0577   21.4180 C   0  0  0  0  0  0  0  0  0  0  0  0
    6.1361  -15.2278   20.3541 N   0  0  0  0  0  0  0  0  0  0  0  0
    6.8261  -14.1159   20.6518 C   0  0  0  0  0  0  0  0  0  0  0  0
    7.1273  -12.9803   19.9153 C   0  0  0  0  0  0  0  0  0  0  0  0
    7.8629  -11.9777   20.4996 C   0  0  0  0  0  0  0  0  0  0  0  0
    8.2992  -12.1004   21.8112 C   0  0  0  0  0  0  0  0  0  0  0  0
    8.0078  -13.2235   22.5551 C   0  0  0  0  0  0  0  0  0  0  0  0
    7.2616  -14.2236   21.9390 C   0  0  0  0  0  0  0  0  0  0  0  0
    9.1589  -16.9752   23.0291 C   0  0  0  0  0  0  0  0  0  0  0  0
    9.0164  -16.8029   21.7973 O   0  0  0  0  0  0  0  0  0  0  0  0
   10.4385  -16.9925   23.5914 N   0  0  0  0  0  0  0  0  0  0  0  0
   11.6184  -16.3372   23.0761 C   0  0  1  0  0  0  0  0  0  0  0  0
   11.3022  -15.0522   22.3682 C   0  0  0  0  0  0  0  0  0  0  0  0
   11.3989  -15.1915   20.9139 C   0  0  0  0  0  0  0  0  0  0  0  0
   10.3874  -15.5729   20.0864 C   0  0  0  0  0  0  0  0  0  0  0  0
   10.8793  -15.6215   18.8388 N   0  0  0  0  0  0  0  0  0  0  0  0
   12.1708  -15.2792   18.8635 C   0  0  0  0  0  0  0  0  0  0  0  0
   13.0633  -15.1791   17.7933 C   0  0  0  0  0  0  0  0  0  0  0  0
   14.3514  -14.7828   18.0653 C   0  0  0  0  0  0  0  0  0  0  0  0
   14.7334  -14.4977   19.3557 C   0  0  0  0  0  0  0  0  0  0  0  0
   13.8391  -14.6043   20.3897 C   0  0  0  0  0  0  0  0  0  0  0  0
   12.5227  -15.0037   20.1571 C   0  0  0  0  0  0  0  0  0  0  0  0
   12.7165  -16.2853   24.0242 C   0  0  0  0  0  0  0  0  0  0  0  0
   12.7096  -16.7299   25.3317 O   0  0  0  0  0  0  0  0  0  0  0  0
   13.8113  -15.7662   23.6074 O   0  0  0  0  0  0  0  0  0  0  0  0
  2  1  1  6
  3  2  1  0
  4  5  2  0
  4  3  1  0
  6  5  1  0
  7 12  2  0
  7  6  1  0
  8  7  1  0
  9 10  1  0
  9  8  2  0
 10 11  2  0
 11 12  1  0
 12  4  1  0
 13 15  1  0
 13  2  1  0
 14 13  2  0
 16 27  1  0
 16 15  1  0
 16 17  1  1
 18 26  1  0
 18 17  1  0
 19 18  2  0
 20 19  1  0
 20 21  1  0
 21 22  1  0
 21 26  2  0
 22 23  2  0
 23 24  1  0
 25 24  2  0
 26 25  1  0
 27 28  2  0
 29 30  1  0
 29 27  1  0
 30 41  1  0
 30 31  1  1
 32 31  1  0
 33 32  2  0
 34 35  1  0
 34 33  1  0
 35 40  2  0
 36 37  2  0
 36 35  1  0
 37 38  1  0
 38 39  2  0
 40 39  1  0
 40 32  1  0
 41 42  1  0
 43 41  2  0
M  END
$$$$
