WWW.pdb
     RDKit          3D

 43 48  0  0  1  0  0  0  0  0999 V2000
    9.7740  -17.6316   18.0050 N   0  0  0  0  0  0  0  0  0  0  0  0
   10.5283  -18.1198   19.1294 C   0  0  1  0  0  0  0  0  0  0  0  0
   11.9900  -18.3127   18.7959 C   0  0  0  0  0  0  0  0  0  0  0  0
   12.0413  -19.5655   17.9633 C   0  0  0  0  0  0  0  0  0  0  0  0
   11.8972  -19.6301   16.6026 C   0  0  0  0  0  0  0  0  0  0  0  0
   11.9867  -20.8965   16.2069 N   0  0  0  0  0  0  0  0  0  0  0  0
   12.1917  -21.7042   17.2863 C   0  0  0  0  0  0  0  0  0  0  0  0
   12.3431  -23.0680   17.3905 C   0  0  0  0  0  0  0  0  0  0  0  0
   12.5367  -23.5874   18.6664 C   0  0  0  0  0  0  0  0  0  0  0  0
   12.5698  -22.7403   19.7567 C   0  0  0  0  0  0  0  0  0  0  0  0
   12.4164  -21.3745   19.6426 C   0  0  0  0  0  0  0  0  0  0  0  0
   12.2252  -20.8627   18.3863 C   0  0  0  0  0  0  0  0  0  0  0  0
   10.3207  -17.2734   20.3499 C   0  0  0  0  0  0  0  0  0  0  0  0
   11.1322  -16.3485   20.5804 O   0  0  0  0  0  0  0  0  0  0  0  0
    9.2243  -17.5346   21.2066 N   0  0  0  0  0  0  0  0  0  0  0  0
    8.9188  -16.8750   22.4439 C   0  0  1  0  0  0  0  0  0  0  0  0
    7.4373  -16.9334   22.8344 C   0  0  0  0  0  0  0  0  0  0  0  0
    7.1281  -16.2021   24.0683 C   0  0  0  0  0  0  0  0  0  0  0  0
    6.8291  -16.6556   25.3154 C   0  0  0  0  0  0  0  0  0  0  0  0
    6.6351  -15.5747   26.0997 N   0  0  0  0  0  0  0  0  0  0  0  0
    6.8033  -14.4505   25.3863 C   0  0  0  0  0  0  0  0  0  0  0  0
    6.7216  -13.1089   25.7271 C   0  0  0  0  0  0  0  0  0  0  0  0
    6.9567  -12.1570   24.7646 C   0  0  0  0  0  0  0  0  0  0  0  0
    7.2723  -12.5341   23.4669 C   0  0  0  0  0  0  0  0  0  0  0  0
    7.3566  -13.8636   23.1136 C   0  0  0  0  0  0  0  0  0  0  0  0
    7.1136  -14.8068   24.1076 C   0  0  0  0  0  0  0  0  0  0  0  0
    9.7418  -17.3887   23.5411 C   0  0  0  0  0  0  0  0  0  0  0  0
    9.7967  -18.6265   23.7211 O   0  0  0  0  0  0  0  0  0  0  0  0
   10.4564  -16.5260   24.3773 N   0  0  0  0  0  0  0  0  0  0  0  0
   11.4086  -16.9017   25.3966 C   0  0  1  0  0  0  0  0  0  0  0  0
   11.9334  -15.7207   26.1596 C   0  0  0  0  0  0  0  0  0  0  0  0
   11.0539  -15.3537   27.2712 C   0  0  0  0  0  0  0  0  0  0  0  0
   10.8559  -16.0889   28.3997 C   0  0  0  0  0  0  0  0  0  0  0  0
    9.9533  -15.4420   29.1531 N   0  0  0  0  0  0  0  0  0  0  0  0
    9.5827  -14.3211   28.5270 C   0  0  0  0  0  0  0  0  0  0  0  0
    8.6811  -13.3440   28.9563 C   0  0  0  0  0  0  0  0  0  0  0  0
    8.4753  -12.2564   28.1410 C   0  0  0  0  0  0  0  0  0  0  0  0
    9.1438  -12.1487   26.9435 C   0  0  0  0  0  0  0  0  0  0  0  0
   10.0233  -13.1216   26.5434 C   0  0  0  0  0  0  0  0  0  0  0  0
   10.2605  -14.2417   27.3406 C   0  0  0  0  0  0  0  0  0  0  0  0
   10.9873  -18.0372   26.1968 C   0  0  0  0  0  0  0  0  0  0  0  0
    9.7313  -18.6105   26.2329 O   0  0  0  0  0  0  0  0  0  0  0  0
   11.8734  -18.5642   26.9578 O   0  0  0  0  0  0  0  0  0  0  0  0
  2  1  1  6
  3  2  1  0
  4  5  2  0
  4  3  1  0
  6  5  1  0
  7 12  2  0
  7  6  1  0
  8  7  1  0
  9 10  1  0
  9  8  2  0
 10 11  2  0
 11 12  1  0
 12  4  1  0
 13 15  1  0
 13  2  1  0
 14 13  2  0
 16 27  1  0
 16 15  1  0
 16 17  1  1
 18 26  1  0
 18 17  1  0
 19 18  2  0
 20 19  1  0
 20 21  1  0
 21 22  1  0
 21 26  2  0
 22 23  2  0
 23 24  1  0
 25 24  2  0
 26 25  1  0
 27 28  2  0
 29 30  1  0
 29 27  1  0
 30 41  1  0
 30 31  1  1
 32 31  1  0
 33 32  2  0
 34 35  1  0
 34 33  1  0
 35 40  2  0
 36 37  2  0
 36 35  1  0
 37 38  1  0
 38 39  2  0
 40 39  1  0
 40 32  1  0
 41 42  1  0
 43 41  2  0
M  END
$$$$
