VQG.pdb
     RDKit          3D

 21 20  0  0  1  0  0  0  0  0999 V2000
   16.9712  -13.6293  -15.9422 C   0  0  0  0  0  0  0  0  0  0  0  0
   17.3715  -12.3442  -16.6309 C   0  0  2  0  0  0  0  0  0  0  0  0
   18.2763  -12.7009  -17.8064 C   0  0  0  0  0  0  0  0  0  0  0  0
   18.1926  -11.5254  -15.6621 C   0  0  2  0  0  0  0  0  0  0  0  0
   17.4316  -11.1813  -14.4824 N   0  0  0  0  0  0  0  0  0  0  0  0
   18.7920  -10.3336  -16.2694 C   0  0  0  0  0  0  0  0  0  0  0  0
   19.5512  -10.3337  -17.2571 O   0  0  0  0  0  0  0  0  0  0  0  0
   16.5177   -5.1259  -18.0602 N   0  0  0  0  0  0  0  0  0  0  0  0
   17.8577   -4.7378  -17.8230 C   0  0  0  0  0  0  0  0  0  0  0  0
   18.2669   -3.6616  -18.3084 O   0  0  0  0  0  0  0  0  0  0  0  0
   18.7611   -5.5719  -17.0250 C   0  0  0  0  0  0  0  0  0  0  0  0
   18.1318   -6.8255  -16.5201 C   0  0  0  0  0  0  0  0  0  0  0  0
   19.1730   -7.8534  -16.1399 C   0  0  2  0  0  0  0  0  0  0  0  0
   18.4933   -9.0552  -15.6956 N   0  0  0  0  0  0  0  0  0  0  0  0
   19.9944   -7.3066  -15.0196 C   0  0  0  0  0  0  0  0  0  0  0  0
   19.4923   -7.2222  -13.8596 O   0  0  0  0  0  0  0  0  0  0  0  0
   21.3214   -6.8698  -15.1781 N   0  0  0  0  0  0  0  0  0  0  0  0
   22.0715   -6.3562  -14.0509 C   0  0  0  0  0  0  0  0  0  0  0  0
   21.7630   -4.9366  -13.8196 C   0  0  0  0  0  0  0  0  0  0  0  0
   20.9309   -4.3322  -14.5406 O   0  0  0  0  0  0  0  0  0  0  0  0
   22.3990   -4.2534  -12.7907 O   0  0  0  0  0  0  0  0  0  0  0  0
  2  1  1  1
  2  3  1  0
  4  2  1  0
  4  5  1  1
  6  4  1  0
  7  6  2  0
  8  9  1  0
  9 11  1  0
 10  9  2  0
 11 12  1  0
 13 12  1  1
 13 14  1  0
 13 15  1  0
 14  6  1  0
 15 16  2  0
 15 17  1  0
 17 18  1  0
 18 19  1  0
 19 21  1  0
 20 19  2  0
M  END
$$$$
