VQG.pdb
     RDKit          3D

 21 20  0  0  1  0  0  0  0  0999 V2000
   20.6838  -13.3218  -18.8580 C   0  0  0  0  0  0  0  0  0  0  0  0
   21.6813  -12.7843  -19.8590 C   0  0  2  0  0  0  0  0  0  0  0  0
   21.5488  -13.6000  -21.1416 C   0  0  0  0  0  0  0  0  0  0  0  0
   23.0708  -13.0219  -19.3150 C   0  0  2  0  0  0  0  0  0  0  0  0
   23.3457  -14.4328  -19.1633 N   0  0  0  0  0  0  0  0  0  0  0  0
   23.3411  -12.2951  -18.0711 C   0  0  0  0  0  0  0  0  0  0  0  0
   23.4023  -12.8073  -16.9372 O   0  0  0  0  0  0  0  0  0  0  0  0
   26.5947  -10.1823  -14.9019 N   0  0  0  0  0  0  0  0  0  0  0  0
   27.0240  -10.7355  -16.1316 C   0  0  0  0  0  0  0  0  0  0  0  0
   27.9975  -11.5187  -16.1314 O   0  0  0  0  0  0  0  0  0  0  0  0
   26.3494  -10.4056  -17.3905 C   0  0  0  0  0  0  0  0  0  0  0  0
   25.2391   -9.4227  -17.2371 C   0  0  0  0  0  0  0  0  0  0  0  0
   23.9216  -10.1134  -16.9682 C   0  0  2  0  0  0  0  0  0  0  0  0
   23.5552  -10.8803  -18.1435 N   0  0  0  0  0  0  0  0  0  0  0  0
   22.8823   -9.0726  -16.7126 C   0  0  0  0  0  0  0  0  0  0  0  0
   22.3499   -8.4675  -17.6900 O   0  0  0  0  0  0  0  0  0  0  0  0
   22.4492   -8.7155  -15.4235 N   0  0  0  0  0  0  0  0  0  0  0  0
   21.3693   -7.7682  -15.2412 C   0  0  0  0  0  0  0  0  0  0  0  0
   21.8298   -6.3940  -15.4933 C   0  0  0  0  0  0  0  0  0  0  0  0
   22.9922   -6.1709  -15.9138 O   0  0  0  0  0  0  0  0  0  0  0  0
   20.9697   -5.3275  -15.2640 O   0  0  0  0  0  0  0  0  0  0  0  0
  2  1  1  1
  2  3  1  0
  4  2  1  0
  4  5  1  1
  6  4  1  0
  7  6  2  0
  8  9  1  0
  9 11  1  0
 10  9  2  0
 11 12  1  0
 13 12  1  6
 13 14  1  0
 13 15  1  0
 14  6  1  0
 15 16  2  0
 15 17  1  0
 17 18  1  0
 18 19  1  0
 19 21  1  0
 20 19  2  0
M  END
$$$$
