VQG.pdb
     RDKit          3D

 21 20  0  0  1  0  0  0  0  0999 V2000
   18.5357  -11.3214  -18.0948 C   0  0  0  0  0  0  0  0  0  0  0  0
   19.2840  -12.3214  -17.2427 C   0  0  2  0  0  0  0  0  0  0  0  0
   18.2735  -13.3257  -16.6967 C   0  0  0  0  0  0  0  0  0  0  0  0
   19.8735  -11.5871  -16.0611 C   0  0  2  0  0  0  0  0  0  0  0  0
   18.8417  -11.0626  -15.1953 N   0  0  0  0  0  0  0  0  0  0  0  0
   20.8250  -10.5392  -16.4424 C   0  0  0  0  0  0  0  0  0  0  0  0
   21.8741  -10.7206  -17.0892 O   0  0  0  0  0  0  0  0  0  0  0  0
   20.8424   -6.1389  -20.0461 N   0  0  0  0  0  0  0  0  0  0  0  0
   21.9598   -5.7923  -19.2499 C   0  0  0  0  0  0  0  0  0  0  0  0
   22.7479   -4.9175  -19.6681 O   0  0  0  0  0  0  0  0  0  0  0  0
   22.2017   -6.4384  -17.9566 C   0  0  0  0  0  0  0  0  0  0  0  0
   21.1848   -7.4687  -17.6006 C   0  0  0  0  0  0  0  0  0  0  0  0
   21.5021   -8.1253  -16.2764 C   0  0  2  0  0  0  0  0  0  0  0  0
   20.5442   -9.1905  -16.0491 N   0  0  0  0  0  0  0  0  0  0  0  0
   21.3719   -7.1037  -15.1956 C   0  0  0  0  0  0  0  0  0  0  0  0
   20.2214   -6.6965  -14.8556 O   0  0  0  0  0  0  0  0  0  0  0  0
   22.4739   -6.5541  -14.5171 N   0  0  0  0  0  0  0  0  0  0  0  0
   22.2827   -5.5937  -13.4504 C   0  0  0  0  0  0  0  0  0  0  0  0
   21.9986   -4.2566  -13.9940 C   0  0  0  0  0  0  0  0  0  0  0  0
   21.9045   -4.0713  -15.2328 O   0  0  0  0  0  0  0  0  0  0  0  0
   21.8317   -3.1833  -13.1280 O   0  0  0  0  0  0  0  0  0  0  0  0
  2  1  1  6
  2  3  1  0
  4  2  1  0
  4  5  1  6
  6  4  1  0
  7  6  2  0
  8  9  1  0
  9 11  1  0
 10  9  2  0
 11 12  1  0
 13 12  1  6
 13 14  1  0
 13 15  1  0
 14  6  1  0
 15 16  2  0
 15 17  1  0
 17 18  1  0
 18 19  1  0
 19 21  1  0
 20 19  2  0
M  END
$$$$
