VQG.pdb
     RDKit          3D

 21 20  0  0  1  0  0  0  0  0999 V2000
   18.9741  -13.0179  -18.2400 C   0  0  0  0  0  0  0  0  0  0  0  0
   19.6027  -12.1863  -17.1448 C   0  0  2  0  0  0  0  0  0  0  0  0
   19.4836  -10.7175  -17.5404 C   0  0  0  0  0  0  0  0  0  0  0  0
   21.0753  -12.5194  -17.0854 C   0  0  2  0  0  0  0  0  0  0  0  0
   21.2900  -13.9302  -16.8557 N   0  0  0  0  0  0  0  0  0  0  0  0
   21.8170  -11.7082  -16.1156 C   0  0  0  0  0  0  0  0  0  0  0  0
   21.7856  -11.8573  -14.8792 O   0  0  0  0  0  0  0  0  0  0  0  0
   27.5876  -10.0593  -16.3228 N   0  0  0  0  0  0  0  0  0  0  0  0
   26.8819  -11.1231  -15.7123 C   0  0  0  0  0  0  0  0  0  0  0  0
   27.5192  -12.1302  -15.3367 O   0  0  0  0  0  0  0  0  0  0  0  0
   25.4305  -11.0598  -15.5172 C   0  0  0  0  0  0  0  0  0  0  0  0
   24.8139   -9.7930  -16.0045 C   0  0  0  0  0  0  0  0  0  0  0  0
   23.3329   -9.7470  -15.7045 C   0  0  2  0  0  0  0  0  0  0  0  0
   22.6514  -10.6532  -16.6091 N   0  0  0  0  0  0  0  0  0  0  0  0
   22.8437   -8.3557  -15.9362 C   0  0  0  0  0  0  0  0  0  0  0  0
   22.5715   -7.9767  -17.1140 O   0  0  0  0  0  0  0  0  0  0  0  0
   22.6627   -7.4199  -14.9027 N   0  0  0  0  0  0  0  0  0  0  0  0
   22.1990   -6.0787  -15.1911 C   0  0  0  0  0  0  0  0  0  0  0  0
   22.1075   -5.2798  -13.9592 C   0  0  0  0  0  0  0  0  0  0  0  0
   22.3516   -5.7928  -12.8389 O   0  0  0  0  0  0  0  0  0  0  0  0
   21.7467   -3.9404  -14.0334 O   0  0  0  0  0  0  0  0  0  0  0  0
  2  1  1  6
  2  3  1  0
  4  2  1  0
  4  5  1  1
  6  4  1  0
  7  6  2  0
  8  9  1  0
  9 11  1  0
 10  9  2  0
 11 12  1  0
 13 12  1  6
 13 14  1  0
 13 15  1  0
 14  6  1  0
 15 16  2  0
 15 17  1  0
 17 18  1  0
 18 19  1  0
 19 21  1  0
 20 19  2  0
M  END
$$$$
