VQG.pdb
     RDKit          3D

 21 20  0  0  1  0  0  0  0  0999 V2000
   18.4132  -13.8347  -17.6922 C   0  0  0  0  0  0  0  0  0  0  0  0
   18.4373  -12.7030  -16.6898 C   0  0  2  0  0  0  0  0  0  0  0  0
   17.1603  -12.7820  -15.8585 C   0  0  0  0  0  0  0  0  0  0  0  0
   18.4003  -11.3979  -17.4503 C   0  0  2  0  0  0  0  0  0  0  0  0
   19.5604  -11.2469  -18.2992 N   0  0  0  0  0  0  0  0  0  0  0  0
   18.2217  -10.2263  -16.5877 C   0  0  0  0  0  0  0  0  0  0  0  0
   17.2978  -10.0714  -15.7666 O   0  0  0  0  0  0  0  0  0  0  0  0
   22.9936   -6.8579  -14.3354 N   0  0  0  0  0  0  0  0  0  0  0  0
   21.8348   -6.1982  -13.8617 C   0  0  0  0  0  0  0  0  0  0  0  0
   21.9650   -5.2851  -13.0187 O   0  0  0  0  0  0  0  0  0  0  0  0
   20.4998   -6.5676  -14.3414 C   0  0  0  0  0  0  0  0  0  0  0  0
   20.5067   -7.6652  -15.3501 C   0  0  0  0  0  0  0  0  0  0  0  0
   19.1062   -8.0091  -15.8036 C   0  0  2  0  0  0  0  0  0  0  0  0
   19.1762   -9.1619  -16.6811 N   0  0  0  0  0  0  0  0  0  0  0  0
   18.5514   -6.8462  -16.5576 C   0  0  0  0  0  0  0  0  0  0  0  0
   18.8596   -6.6867  -17.7761 O   0  0  0  0  0  0  0  0  0  0  0  0
   17.6883   -5.8962  -15.9840 N   0  0  0  0  0  0  0  0  0  0  0  0
   17.1331   -4.8229  -16.7821 C   0  0  0  0  0  0  0  0  0  0  0  0
   18.1278   -3.7605  -16.9957 C   0  0  0  0  0  0  0  0  0  0  0  0
   19.2980   -3.8749  -16.5537 O   0  0  0  0  0  0  0  0  0  0  0  0
   17.7708   -2.6146  -17.6952 O   0  0  0  0  0  0  0  0  0  0  0  0
  2  1  1  6
  2  3  1  0
  4  2  1  0
  4  5  1  1
  6  4  1  0
  7  6  2  0
  8  9  1  0
  9 11  1  0
 10  9  2  0
 11 12  1  0
 13 12  1  6
 13 14  1  0
 13 15  1  0
 14  6  1  0
 15 16  2  0
 15 17  1  0
 17 18  1  0
 18 19  1  0
 19 21  1  0
 20 19  2  0
M  END
$$$$
