VQG.pdb
     RDKit          3D

 21 20  0  0  1  0  0  0  0  0999 V2000
   20.5758  -12.0360  -15.9265 C   0  0  0  0  0  0  0  0  0  0  0  0
   19.0853  -11.9188  -16.1517 C   0  0  2  0  0  0  0  0  0  0  0  0
   18.6532  -13.0681  -17.0575 C   0  0  0  0  0  0  0  0  0  0  0  0
   18.8204  -10.6322  -16.8982 C   0  0  2  0  0  0  0  0  0  0  0  0
   19.4422  -10.6396  -18.2030 N   0  0  0  0  0  0  0  0  0  0  0  0
   19.1942   -9.4331  -16.1426 C   0  0  0  0  0  0  0  0  0  0  0  0
   18.7150   -9.0970  -15.0429 O   0  0  0  0  0  0  0  0  0  0  0  0
   21.6308   -7.2908  -13.0152 N   0  0  0  0  0  0  0  0  0  0  0  0
   22.2585   -6.1745  -13.6172 C   0  0  0  0  0  0  0  0  0  0  0  0
   22.6033   -5.2159  -12.8937 O   0  0  0  0  0  0  0  0  0  0  0  0
   22.5065   -6.1288  -15.0612 C   0  0  0  0  0  0  0  0  0  0  0  0
   22.0558   -7.3506  -15.7868 C   0  0  0  0  0  0  0  0  0  0  0  0
   20.5643   -7.3298  -16.0325 C   0  0  2  0  0  0  0  0  0  0  0  0
   20.1896   -8.5639  -16.6962 N   0  0  0  0  0  0  0  0  0  0  0  0
   20.2447   -6.1733  -16.9209 C   0  0  0  0  0  0  0  0  0  0  0  0
   20.5213   -6.2383  -18.1556 O   0  0  0  0  0  0  0  0  0  0  0  0
   19.6416   -4.9901  -16.4595 N   0  0  0  0  0  0  0  0  0  0  0  0
   19.3949   -3.8843  -17.3614 C   0  0  0  0  0  0  0  0  0  0  0  0
   18.6708   -2.8019  -16.6773 C   0  0  0  0  0  0  0  0  0  0  0  0
   18.3174   -2.9207  -15.4778 O   0  0  0  0  0  0  0  0  0  0  0  0
   18.3727   -1.6322  -17.3648 O   0  0  0  0  0  0  0  0  0  0  0  0
  2  1  1  6
  2  3  1  0
  4  2  1  0
  4  5  1  6
  6  4  1  0
  7  6  2  0
  8  9  1  0
  9 11  1  0
 10  9  2  0
 11 12  1  0
 13 12  1  6
 13 14  1  0
 13 15  1  0
 14  6  1  0
 15 16  2  0
 15 17  1  0
 17 18  1  0
 18 19  1  0
 19 21  1  0
 20 19  2  0
M  END
$$$$
