VQG.pdb
     RDKit          3D

 21 20  0  0  1  0  0  0  0  0999 V2000
   18.3081  -12.1801  -17.3286 C   0  0  0  0  0  0  0  0  0  0  0  0
   17.9785  -12.1144  -15.8544 C   0  0  2  0  0  0  0  0  0  0  0  0
   16.5115  -12.4969  -15.6815 C   0  0  0  0  0  0  0  0  0  0  0  0
   18.1272  -10.6808  -15.4009 C   0  0  2  0  0  0  0  0  0  0  0  0
   17.2683   -9.7955  -16.1544 N   0  0  0  0  0  0  0  0  0  0  0  0
   19.5143  -10.2071  -15.4135 C   0  0  0  0  0  0  0  0  0  0  0  0
   20.4487  -10.6990  -14.7527 O   0  0  0  0  0  0  0  0  0  0  0  0
   23.9620   -9.0704  -19.3224 N   0  0  0  0  0  0  0  0  0  0  0  0
   23.3745  -10.2073  -18.7184 C   0  0  0  0  0  0  0  0  0  0  0  0
   23.8462  -11.3356  -18.9745 O   0  0  0  0  0  0  0  0  0  0  0  0
   22.2334  -10.0799  -17.8071 C   0  0  0  0  0  0  0  0  0  0  0  0
   21.7961   -8.6719  -17.5858 C   0  0  0  0  0  0  0  0  0  0  0  0
   21.1663   -8.4957  -16.2228 C   0  0  2  0  0  0  0  0  0  0  0  0
   19.8429   -9.0888  -16.2467 N   0  0  0  0  0  0  0  0  0  0  0  0
   21.0488   -7.0348  -15.9385 C   0  0  0  0  0  0  0  0  0  0  0  0
   20.5000   -6.2743  -16.7902 O   0  0  0  0  0  0  0  0  0  0  0  0
   21.5212   -6.4390  -14.7559 N   0  0  0  0  0  0  0  0  0  0  0  0
   21.4490   -5.0048  -14.5694 C   0  0  0  0  0  0  0  0  0  0  0  0
   21.9370   -4.6249  -13.2347 C   0  0  0  0  0  0  0  0  0  0  0  0
   22.2313   -5.5000  -12.3830 O   0  0  0  0  0  0  0  0  0  0  0  0
   22.0752   -3.2814  -12.9096 O   0  0  0  0  0  0  0  0  0  0  0  0
  2  1  1  6
  2  3  1  0
  4  2  1  0
  4  5  1  6
  6  4  1  0
  7  6  2  0
  8  9  1  0
  9 11  1  0
 10  9  2  0
 11 12  1  0
 13 12  1  6
 13 14  1  0
 13 15  1  0
 14  6  1  0
 15 16  2  0
 15 17  1  0
 17 18  1  0
 18 19  1  0
 19 21  1  0
 20 19  2  0
M  END
$$$$
