VQG.pdb
     RDKit          3D

 21 20  0  0  1  0  0  0  0  0999 V2000
   18.4412  -13.0541  -16.2525 C   0  0  0  0  0  0  0  0  0  0  0  0
   19.2759  -12.7156  -17.4669 C   0  0  2  0  0  0  0  0  0  0  0  0
   20.0319  -13.9732  -17.8851 C   0  0  0  0  0  0  0  0  0  0  0  0
   20.3039  -11.6855  -17.0610 C   0  0  2  0  0  0  0  0  0  0  0  0
   21.2496  -12.2270  -16.1116 N   0  0  0  0  0  0  0  0  0  0  0  0
   19.7142  -10.4384  -16.5653 C   0  0  0  0  0  0  0  0  0  0  0  0
   18.9779   -9.6791  -17.2235 O   0  0  0  0  0  0  0  0  0  0  0  0
   17.2666   -9.6111  -10.9983 N   0  0  0  0  0  0  0  0  0  0  0  0
   17.2536   -8.3159  -11.5681 C   0  0  0  0  0  0  0  0  0  0  0  0
   16.5732   -7.4238  -11.0180 O   0  0  0  0  0  0  0  0  0  0  0  0
   18.0188   -8.0109  -12.7806 C   0  0  0  0  0  0  0  0  0  0  0  0
   18.6779   -9.2011  -13.3899 C   0  0  0  0  0  0  0  0  0  0  0  0
   19.4237   -8.8349  -14.6528 C   0  0  2  0  0  0  0  0  0  0  0  0
   19.9949  -10.0428  -15.2172 N   0  0  0  0  0  0  0  0  0  0  0  0
   20.5214   -7.8868  -14.2991 C   0  0  0  0  0  0  0  0  0  0  0  0
   21.4272   -8.2522  -13.4922 O   0  0  0  0  0  0  0  0  0  0  0  0
   20.6123   -6.5838  -14.8192 N   0  0  0  0  0  0  0  0  0  0  0  0
   21.6821   -5.6969  -14.4117 C   0  0  0  0  0  0  0  0  0  0  0  0
   21.2083   -4.7310  -13.4085 C   0  0  0  0  0  0  0  0  0  0  0  0
   20.0255   -4.7674  -12.9872 O   0  0  0  0  0  0  0  0  0  0  0  0
   22.0785   -3.7651  -12.9191 O   0  0  0  0  0  0  0  0  0  0  0  0
  2  1  1  1
  2  3  1  0
  4  2  1  0
  4  5  1  1
  6  4  1  0
  7  6  2  0
  8  9  1  0
  9 11  1  0
 10  9  2  0
 11 12  1  0
 13 12  1  1
 13 14  1  0
 13 15  1  0
 14  6  1  0
 15 16  2  0
 15 17  1  0
 17 18  1  0
 18 19  1  0
 19 21  1  0
 20 19  2  0
M  END
$$$$
