VQG.pdb
     RDKit          3D

 21 20  0  0  1  0  0  0  0  0999 V2000
   22.8021  -12.8406  -16.6221 C   0  0  0  0  0  0  0  0  0  0  0  0
   24.1734  -12.3253  -16.9963 C   0  0  2  0  0  0  0  0  0  0  0  0
   25.1989  -13.3844  -16.6030 C   0  0  0  0  0  0  0  0  0  0  0  0
   24.4570  -11.0937  -16.1683 C   0  0  2  0  0  0  0  0  0  0  0  0
   24.5193  -11.4064  -14.7585 N   0  0  0  0  0  0  0  0  0  0  0  0
   23.5234   -9.9928  -16.4237 C   0  0  0  0  0  0  0  0  0  0  0  0
   23.3530   -9.4345  -17.5241 O   0  0  0  0  0  0  0  0  0  0  0  0
   17.7076   -9.8002  -15.0885 N   0  0  0  0  0  0  0  0  0  0  0  0
   17.9693   -8.4784  -15.5206 C   0  0  0  0  0  0  0  0  0  0  0  0
   17.0054   -7.7417  -15.8201 O   0  0  0  0  0  0  0  0  0  0  0  0
   19.3399   -7.9682  -15.6203 C   0  0  0  0  0  0  0  0  0  0  0  0
   20.3842   -8.9928  -15.3335 C   0  0  0  0  0  0  0  0  0  0  0  0
   21.7757   -8.4314  -15.5178 C   0  0  2  0  0  0  0  0  0  0  0  0
   22.7336   -9.5047  -15.3325 N   0  0  0  0  0  0  0  0  0  0  0  0
   22.0050   -7.3795  -14.4836 C   0  0  0  0  0  0  0  0  0  0  0  0
   22.4305   -7.7118  -13.3374 O   0  0  0  0  0  0  0  0  0  0  0  0
   21.7719   -6.0116  -14.7101 N   0  0  0  0  0  0  0  0  0  0  0  0
   22.0177   -5.0362  -13.6684 C   0  0  0  0  0  0  0  0  0  0  0  0
   21.7040   -3.6779  -14.1381 C   0  0  0  0  0  0  0  0  0  0  0  0
   21.3701   -3.4696  -15.3309 O   0  0  0  0  0  0  0  0  0  0  0  0
   21.7772   -2.6100  -13.2527 O   0  0  0  0  0  0  0  0  0  0  0  0
  2  1  1  1
  2  3  1  0
  4  2  1  0
  4  5  1  1
  6  4  1  0
  7  6  2  0
  8  9  1  0
  9 11  1  0
 10  9  2  0
 11 12  1  0
 13 12  1  1
 13 14  1  0
 13 15  1  0
 14  6  1  0
 15 16  2  0
 15 17  1  0
 17 18  1  0
 18 19  1  0
 19 21  1  0
 20 19  2  0
M  END
$$$$
