RFN.pdb
     RDKit          3D

 31 31  0  0  1  0  0  0  0  0999 V2000
   32.1650  -22.3207  -11.5711 N   0  0  0  0  0  0  0  0  0  0  0  0
   31.6972  -22.4400  -10.2441 C   0  0  0  0  0  0  0  0  0  0  0  0
   32.1262  -23.4098   -9.4940 N   0  0  0  0  0  0  0  0  0  0  0  0
   30.7546  -21.5358   -9.6583 N   0  0  0  0  0  0  0  0  0  0  0  0
   30.1993  -20.4215  -10.3648 C   0  0  0  0  0  0  0  0  0  0  0  0
   29.2632  -20.9405  -11.4255 C   0  0  0  0  0  0  0  0  0  0  0  0
   27.9358  -20.2077  -11.4257 C   0  0  0  0  0  0  0  0  0  0  0  0
   26.8693  -21.2060  -11.8038 C   0  0  2  0  0  0  0  0  0  0  0  0
   27.3020  -22.0356  -12.9068 N   0  0  0  0  0  0  0  0  0  0  0  0
   25.6095  -20.5184  -12.2215 C   0  0  0  0  0  0  0  0  0  0  0  0
   25.0309  -19.7309  -11.4382 O   0  0  0  0  0  0  0  0  0  0  0  0
   31.7639  -23.5540   -8.5219 N   0  0  0  0  0  0  0  0  0  0  0  0
   25.0388  -20.7370  -13.5052 C   0  0  1  0  0  0  0  0  0  0  0  0
   23.9684  -19.9890  -14.0978 C   0  0  0  0  0  0  0  0  0  0  0  0
   24.2566  -19.4251  -15.4379 C   0  0  0  0  0  0  0  0  0  0  0  0
   25.4460  -18.5567  -15.4795 C   0  0  0  0  0  0  0  0  0  0  0  0
   25.3494  -17.2350  -15.0683 C   0  0  0  0  0  0  0  0  0  0  0  0
   26.4750  -16.4423  -15.1209 C   0  0  0  0  0  0  0  0  0  0  0  0
   27.6644  -16.9881  -15.5815 C   0  0  0  0  0  0  0  0  0  0  0  0
   27.7730  -18.2991  -15.9928 C   0  0  0  0  0  0  0  0  0  0  0  0
   26.6439  -19.0756  -15.9344 C   0  0  0  0  0  0  0  0  0  0  0  0
   22.6428  -20.6472  -13.9718 O   0  0  0  0  0  0  0  0  0  0  0  0
   22.5759  -21.8858  -14.1163 N   0  0  0  0  0  0  0  0  0  0  0  0
   17.6587  -21.4148  -11.2419 C   0  0  0  0  0  0  0  0  0  0  0  0
   18.7640  -21.8972  -11.9674 O   0  0  0  0  0  0  0  0  0  0  0  0
   18.6928  -23.0173  -12.5309 C   0  0  0  0  0  0  0  0  0  0  0  0
   20.0146  -21.1222  -12.0882 C   0  0  2  0  0  0  0  0  0  0  0  0
   20.2069  -20.7102  -13.5234 N   0  0  0  0  0  0  0  0  0  0  0  0
   21.4505  -19.9445  -13.6974 C   0  0  0  0  0  0  0  0  0  0  0  0
   19.0500  -19.9361  -14.0233 O   0  0  0  0  0  0  0  0  0  0  0  0
   18.0613  -20.5903  -14.7272 O   0  0  0  0  0  0  0  0  0  0  0  0
  2  3  2  0
  2  1  1  0
  4  2  1  0
  5  4  1  0
  6  5  1  0
  7  6  1  0
  8  7  1  0
  8  9  1  6
 10 12  1  0
 10  8  1  0
 11 10  2  0
 13 12  1  0
 13 14  1  1
 15 20  2  0
 15 14  1  0
 16 15  1  0
 17 18  1  0
 17 16  2  0
 18 19  2  0
 19 20  1  0
 21 13  1  0
 21 22  2  0
 24 26  1  0
 24 23  1  0
 25 24  2  0
 27 28  1  0
 27 26  1  6
 28 21  1  0
 29 27  1  0
 30 29  1  0
 31 29  2  0
M  END
$$$$
