RFN.pdb
     RDKit          3D

 31 31  0  0  1  0  0  0  0  0999 V2000
   30.8244  -18.2631  -15.6148 N   0  0  0  0  0  0  0  0  0  0  0  0
   30.5242  -17.4847  -16.7540 C   0  0  0  0  0  0  0  0  0  0  0  0
   31.4018  -16.6419  -17.2086 N   0  0  0  0  0  0  0  0  0  0  0  0
   29.2803  -17.5680  -17.4577 N   0  0  0  0  0  0  0  0  0  0  0  0
   28.4516  -18.7351  -17.4424 C   0  0  0  0  0  0  0  0  0  0  0  0
   27.0740  -18.3428  -16.9746 C   0  0  0  0  0  0  0  0  0  0  0  0
   26.8325  -18.7198  -15.5260 C   0  0  0  0  0  0  0  0  0  0  0  0
   27.0947  -20.2001  -15.3951 C   0  0  2  0  0  0  0  0  0  0  0  0
   26.9953  -20.8605  -16.6780 N   0  0  0  0  0  0  0  0  0  0  0  0
   26.1073  -20.8444  -14.4764 C   0  0  0  0  0  0  0  0  0  0  0  0
   24.9835  -21.1952  -14.9036 O   0  0  0  0  0  0  0  0  0  0  0  0
   31.2126  -16.0547  -18.0550 N   0  0  0  0  0  0  0  0  0  0  0  0
   26.4125  -21.0742  -13.1070 C   0  0  2  0  0  0  0  0  0  0  0  0
   25.5348  -21.6398  -12.1241 C   0  0  0  0  0  0  0  0  0  0  0  0
   26.2035  -22.1994  -10.9255 C   0  0  0  0  0  0  0  0  0  0  0  0
   26.7881  -21.1813  -10.0354 C   0  0  0  0  0  0  0  0  0  0  0  0
   25.9613  -20.4212   -9.2206 C   0  0  0  0  0  0  0  0  0  0  0  0
   26.5320  -19.4727   -8.4005 C   0  0  0  0  0  0  0  0  0  0  0  0
   27.9095  -19.3081   -8.4152 C   0  0  0  0  0  0  0  0  0  0  0  0
   28.7412  -20.0565   -9.2198 C   0  0  0  0  0  0  0  0  0  0  0  0
   28.1582  -20.9968  -10.0305 C   0  0  0  0  0  0  0  0  0  0  0  0
   24.3442  -20.7992  -11.8367 O   0  0  0  0  0  0  0  0  0  0  0  0
   24.4969  -19.5639  -11.7358 N   0  0  0  0  0  0  0  0  0  0  0  0
   20.8645  -18.4814  -14.5707 C   0  0  0  0  0  0  0  0  0  0  0  0
   20.8857  -19.8731  -14.3629 O   0  0  0  0  0  0  0  0  0  0  0  0
   19.8816  -20.5603  -14.6739 C   0  0  0  0  0  0  0  0  0  0  0  0
   22.0603  -20.5566  -13.7863 C   0  0  1  0  0  0  0  0  0  0  0  0
   21.9152  -20.6153  -12.2888 N   0  0  0  0  0  0  0  0  0  0  0  0
   23.0455  -21.3244  -11.6701 C   0  0  0  0  0  0  0  0  0  0  0  0
   20.6347  -21.2413  -11.8939 O   0  0  0  0  0  0  0  0  0  0  0  0
   19.5343  -20.4377  -11.6833 O   0  0  0  0  0  0  0  0  0  0  0  0
  2  3  2  0
  2  1  1  0
  4  2  1  0
  5  4  1  0
  6  5  1  0
  7  6  1  0
  8  7  1  0
  8  9  1  6
 10 12  1  0
 10  8  1  0
 11 10  2  0
 13 12  1  0
 13 14  1  6
 15 20  2  0
 15 14  1  0
 16 15  1  0
 17 18  1  0
 17 16  2  0
 18 19  2  0
 19 20  1  0
 21 13  1  0
 21 22  2  0
 24 26  1  0
 24 23  1  0
 25 24  2  0
 27 28  1  0
 27 26  1  1
 28 21  1  0
 29 27  1  0
 30 29  1  0
 31 29  2  0
M  END
$$$$
