RFN.pdb
     RDKit          3D

 31 31  0  0  1  0  0  0  0  0999 V2000
   26.7159  -24.5682  -21.0305 N   0  0  0  0  0  0  0  0  0  0  0  0
   27.0378  -23.2911  -21.5398 C   0  0  0  0  0  0  0  0  0  0  0  0
   27.7779  -23.1886  -22.6024 N   0  0  0  0  0  0  0  0  0  0  0  0
   26.5883  -22.0702  -20.9427 N   0  0  0  0  0  0  0  0  0  0  0  0
   26.5196  -21.8731  -19.5266 C   0  0  0  0  0  0  0  0  0  0  0  0
   27.7765  -22.4208  -18.9014 C   0  0  0  0  0  0  0  0  0  0  0  0
   27.6165  -22.6641  -17.4134 C   0  0  0  0  0  0  0  0  0  0  0  0
   27.4730  -21.3169  -16.7487 C   0  0  2  0  0  0  0  0  0  0  0  0
   28.7672  -20.7298  -16.4803 N   0  0  0  0  0  0  0  0  0  0  0  0
   26.7489  -21.4317  -15.4462 C   0  0  0  0  0  0  0  0  0  0  0  0
   26.0371  -22.4338  -15.2060 O   0  0  0  0  0  0  0  0  0  0  0  0
   27.9671  -22.2621  -23.0528 N   0  0  0  0  0  0  0  0  0  0  0  0
   26.8465  -20.4177  -14.4544 C   0  0  1  0  0  0  0  0  0  0  0  0
   26.1341  -20.3741  -13.2106 C   0  0  0  0  0  0  0  0  0  0  0  0
   26.8367  -19.6846  -12.1027 C   0  0  0  0  0  0  0  0  0  0  0  0
   28.0097  -20.4144  -11.5907 C   0  0  0  0  0  0  0  0  0  0  0  0
   29.2074  -20.3714  -12.2897 C   0  0  0  0  0  0  0  0  0  0  0  0
   30.2884  -21.0659  -11.7924 C   0  0  0  0  0  0  0  0  0  0  0  0
   30.1458  -21.7833  -10.6136 C   0  0  0  0  0  0  0  0  0  0  0  0
   28.9616  -21.8338   -9.9102 C   0  0  0  0  0  0  0  0  0  0  0  0
   27.8947  -21.1372  -10.4179 C   0  0  0  0  0  0  0  0  0  0  0  0
   24.7010  -20.0126  -13.3591 O   0  0  0  0  0  0  0  0  0  0  0  0
   24.4035  -19.0398  -14.0835 N   0  0  0  0  0  0  0  0  0  0  0  0
   20.3154  -20.9436  -15.9236 C   0  0  0  0  0  0  0  0  0  0  0  0
   20.6250  -21.6181  -14.7279 O   0  0  0  0  0  0  0  0  0  0  0  0
   19.7014  -22.1375  -14.0538 C   0  0  0  0  0  0  0  0  0  0  0  0
   22.0121  -21.7355  -14.2366 C   0  0  1  0  0  0  0  0  0  0  0  0
   22.2974  -20.6083  -13.2802 N   0  0  0  0  0  0  0  0  0  0  0  0
   23.6543  -20.7118  -12.7221 C   0  0  0  0  0  0  0  0  0  0  0  0
   21.2953  -20.5545  -12.1938 O   0  0  0  0  0  0  0  0  0  0  0  0
   21.2295  -21.5957  -11.2923 O   0  0  0  0  0  0  0  0  0  0  0  0
  2  3  2  0
  2  1  1  0
  4  2  1  0
  5  4  1  0
  6  5  1  0
  7  6  1  0
  8  7  1  0
  8  9  1  1
 10 12  1  0
 10  8  1  0
 11 10  2  0
 13 12  1  0
 13 14  1  1
 15 20  2  0
 15 14  1  0
 16 15  1  0
 17 18  1  0
 17 16  2  0
 18 19  2  0
 19 20  1  0
 21 13  1  0
 21 22  2  0
 24 26  1  0
 24 23  1  0
 25 24  2  0
 27 28  1  0
 27 26  1  6
 28 21  1  0
 29 27  1  0
 30 29  1  0
 31 29  2  0
M  END
$$$$
