RFN.pdb
     RDKit          3D

 31 31  0  0  1  0  0  0  0  0999 V2000
   25.8407  -37.7232  -13.0229 N   0  0  0  0  0  0  0  0  0  0  0  0
   24.8905  -38.6977  -13.3992 C   0  0  0  0  0  0  0  0  0  0  0  0
   25.0635  -39.3788  -14.4916 N   0  0  0  0  0  0  0  0  0  0  0  0
   23.7174  -38.9894  -12.6323 N   0  0  0  0  0  0  0  0  0  0  0  0
   23.0739  -38.0248  -11.7930 C   0  0  0  0  0  0  0  0  0  0  0  0
   23.7613  -38.0166  -10.4520 C   0  0  0  0  0  0  0  0  0  0  0  0
   22.8031  -37.7035   -9.3195 C   0  0  0  0  0  0  0  0  0  0  0  0
   22.9933  -36.2514   -8.9558 C   0  0  2  0  0  0  0  0  0  0  0  0
   23.3088  -35.4603  -10.1248 N   0  0  0  0  0  0  0  0  0  0  0  0
   24.1116  -36.0813   -7.9787 C   0  0  0  0  0  0  0  0  0  0  0  0
   25.2344  -36.5854   -8.2106 O   0  0  0  0  0  0  0  0  0  0  0  0
   24.4022  -40.1399  -14.7749 N   0  0  0  0  0  0  0  0  0  0  0  0
   23.9340  -35.3511   -6.7718 C   0  0  1  0  0  0  0  0  0  0  0  0
   24.9624  -34.9799   -5.8440 C   0  0  0  0  0  0  0  0  0  0  0  0
   25.2607  -33.5297   -5.7766 C   0  0  0  0  0  0  0  0  0  0  0  0
   25.8387  -32.9786   -7.0147 C   0  0  0  0  0  0  0  0  0  0  0  0
   27.2049  -33.0715   -7.2386 C   0  0  0  0  0  0  0  0  0  0  0  0
   27.7214  -32.5446   -8.4021 C   0  0  0  0  0  0  0  0  0  0  0  0
   26.8630  -31.9402   -9.3091 C   0  0  0  0  0  0  0  0  0  0  0  0
   25.5046  -31.8417   -9.0981 C   0  0  0  0  0  0  0  0  0  0  0  0
   25.0055  -32.3710   -7.9354 C   0  0  0  0  0  0  0  0  0  0  0  0
   24.8435  -35.6525   -4.5249 O   0  0  0  0  0  0  0  0  0  0  0  0
   23.7166  -36.0422   -4.1538 N   0  0  0  0  0  0  0  0  0  0  0  0
   26.2305  -39.5582   -0.7339 C   0  0  0  0  0  0  0  0  0  0  0  0
   25.2807  -38.6546   -1.2456 O   0  0  0  0  0  0  0  0  0  0  0  0
   24.2613  -38.3781   -0.5662 C   0  0  0  0  0  0  0  0  0  0  0  0
   25.4458  -38.0161   -2.5663 C   0  0  2  0  0  0  0  0  0  0  0  0
   25.7004  -36.5442   -2.3780 N   0  0  0  0  0  0  0  0  0  0  0  0
   25.9400  -35.8745   -3.6654 C   0  0  0  0  0  0  0  0  0  0  0  0
   26.8299  -36.3049   -1.4537 O   0  0  0  0  0  0  0  0  0  0  0  0
   26.7486  -36.7787   -0.1614 O   0  0  0  0  0  0  0  0  0  0  0  0
  2  3  2  0
  2  1  1  0
  4  2  1  0
  5  4  1  0
  6  5  1  0
  7  6  1  0
  8  7  1  0
  8  9  1  6
 10 12  1  0
 10  8  1  0
 11 10  2  0
 13 12  1  0
 13 14  1  1
 15 20  2  0
 15 14  1  0
 16 15  1  0
 17 18  1  0
 17 16  2  0
 18 19  2  0
 19 20  1  0
 21 13  1  0
 21 22  2  0
 24 26  1  0
 24 23  1  0
 25 24  2  0
 27 28  1  0
 27 26  1  6
 28 21  1  0
 29 27  1  0
 30 29  1  0
 31 29  2  0
M  END
$$$$
