RFN.pdb
     RDKit          3D

 31 31  0  0  1  0  0  0  0  0999 V2000
   28.6503  -28.4057  -16.0804 N   0  0  0  0  0  0  0  0  0  0  0  0
   28.3070  -28.7290  -17.4114 C   0  0  0  0  0  0  0  0  0  0  0  0
   28.1995  -29.9742  -17.7652 N   0  0  0  0  0  0  0  0  0  0  0  0
   28.0639  -27.7447  -18.4221 N   0  0  0  0  0  0  0  0  0  0  0  0
   27.6619  -26.4034  -18.1246 C   0  0  0  0  0  0  0  0  0  0  0  0
   26.1896  -26.4007  -17.8039 C   0  0  0  0  0  0  0  0  0  0  0  0
   25.8652  -25.5224  -16.6113 C   0  0  0  0  0  0  0  0  0  0  0  0
   26.5232  -24.1844  -16.8440 C   0  0  2  0  0  0  0  0  0  0  0  0
   27.9084  -24.2077  -16.4286 N   0  0  0  0  0  0  0  0  0  0  0  0
   25.8372  -23.1036  -16.0723 C   0  0  0  0  0  0  0  0  0  0  0  0
   25.8687  -23.1048  -14.8203 O   0  0  0  0  0  0  0  0  0  0  0  0
   27.9324  -30.2471  -18.7405 N   0  0  0  0  0  0  0  0  0  0  0  0
   25.1370  -22.0558  -16.7306 C   0  0  1  0  0  0  0  0  0  0  0  0
   24.5704  -20.8928  -16.1120 C   0  0  0  0  0  0  0  0  0  0  0  0
   25.2710  -19.6186  -16.3989 C   0  0  0  0  0  0  0  0  0  0  0  0
   26.5791  -19.4909  -15.7331 C   0  0  0  0  0  0  0  0  0  0  0  0
   26.6601  -18.9014  -14.4797 C   0  0  0  0  0  0  0  0  0  0  0  0
   27.8955  -18.7899  -13.8802 C   0  0  0  0  0  0  0  0  0  0  0  0
   29.0148  -19.2682  -14.5458 C   0  0  0  0  0  0  0  0  0  0  0  0
   28.9474  -19.8555  -15.7909 C   0  0  0  0  0  0  0  0  0  0  0  0
   27.7105  -19.9594  -16.3746 C   0  0  0  0  0  0  0  0  0  0  0  0
   23.0902  -20.8260  -16.2161 O   0  0  0  0  0  0  0  0  0  0  0  0
   22.5615  -21.0207  -17.3306 N   0  0  0  0  0  0  0  0  0  0  0  0
   21.7421  -21.2324  -12.3174 C   0  0  0  0  0  0  0  0  0  0  0  0
   20.9214  -20.2667  -12.9292 O   0  0  0  0  0  0  0  0  0  0  0  0
   20.9410  -19.0830  -12.5100 C   0  0  0  0  0  0  0  0  0  0  0  0
   20.0309  -20.6034  -14.0575 C   0  0  1  0  0  0  0  0  0  0  0  0
   20.7958  -20.4782  -15.3483 N   0  0  0  0  0  0  0  0  0  0  0  0
   22.2466  -20.5522  -15.1189 C   0  0  0  0  0  0  0  0  0  0  0  0
   20.4492  -19.2306  -16.0632 O   0  0  0  0  0  0  0  0  0  0  0  0
   19.5673  -19.2890  -17.1214 O   0  0  0  0  0  0  0  0  0  0  0  0
  2  3  2  0
  2  1  1  0
  4  2  1  0
  5  4  1  0
  6  5  1  0
  7  6  1  0
  8  7  1  0
  8  9  1  1
 10 12  1  0
 10  8  1  0
 11 10  2  0
 13 12  1  0
 13 14  1  1
 15 20  2  0
 15 14  1  0
 16 15  1  0
 17 18  1  0
 17 16  2  0
 18 19  2  0
 19 20  1  0
 21 13  1  0
 21 22  2  0
 24 26  1  0
 24 23  1  0
 25 24  2  0
 27 28  1  0
 27 26  1  6
 28 21  1  0
 29 27  1  0
 30 29  1  0
 31 29  2  0
M  END
$$$$
