RFN.pdb
     RDKit          3D

 31 31  0  0  1  0  0  0  0  0999 V2000
   26.9680  -27.7289  -17.6882 N   0  0  0  0  0  0  0  0  0  0  0  0
   27.8432  -27.6395  -18.7928 C   0  0  0  0  0  0  0  0  0  0  0  0
   27.6634  -28.4113  -19.8219 N   0  0  0  0  0  0  0  0  0  0  0  0
   28.9454  -26.7279  -18.8509 N   0  0  0  0  0  0  0  0  0  0  0  0
   29.1993  -25.7450  -17.8416 C   0  0  0  0  0  0  0  0  0  0  0  0
   28.1490  -24.6690  -17.9406 C   0  0  0  0  0  0  0  0  0  0  0  0
   27.3900  -24.4888  -16.6405 C   0  0  0  0  0  0  0  0  0  0  0  0
   27.7300  -23.1193  -16.1055 C   0  0  2  0  0  0  0  0  0  0  0  0
   29.1134  -23.0535  -15.6886 N   0  0  0  0  0  0  0  0  0  0  0  0
   26.8837  -22.7762  -14.9223 C   0  0  0  0  0  0  0  0  0  0  0  0
   26.6527  -23.6357  -14.0411 O   0  0  0  0  0  0  0  0  0  0  0  0
   28.2755  -28.3482  -20.6695 N   0  0  0  0  0  0  0  0  0  0  0  0
   26.3230  -21.4791  -14.7657 C   0  0  1  0  0  0  0  0  0  0  0  0
   25.6188  -20.9908  -13.6159 C   0  0  0  0  0  0  0  0  0  0  0  0
   26.2483  -19.8370  -12.9310 C   0  0  0  0  0  0  0  0  0  0  0  0
   27.3705  -20.2029  -12.0493 C   0  0  0  0  0  0  0  0  0  0  0  0
   28.6679  -20.1835  -12.5406 C   0  0  0  0  0  0  0  0  0  0  0  0
   29.6995  -20.5341  -11.6973 C   0  0  0  0  0  0  0  0  0  0  0  0
   29.4097  -20.8941  -10.3892 C   0  0  0  0  0  0  0  0  0  0  0  0
   28.1254  -20.9173   -9.8895 C   0  0  0  0  0  0  0  0  0  0  0  0
   27.1093  -20.5657  -10.7411 C   0  0  0  0  0  0  0  0  0  0  0  0
   24.1535  -20.8662  -13.8254 O   0  0  0  0  0  0  0  0  0  0  0  0
   23.7449  -20.3305  -14.8769 N   0  0  0  0  0  0  0  0  0  0  0  0
   18.7126  -22.4109  -13.3825 C   0  0  0  0  0  0  0  0  0  0  0  0
   19.4783  -21.5897  -12.5341 O   0  0  0  0  0  0  0  0  0  0  0  0
   18.9496  -20.5781  -12.0101 C   0  0  0  0  0  0  0  0  0  0  0  0
   20.8947  -21.8817  -12.2378 C   0  0  1  0  0  0  0  0  0  0  0  0
   21.7700  -21.1237  -13.2001 N   0  0  0  0  0  0  0  0  0  0  0  0
   23.1952  -21.3217  -12.8956 C   0  0  0  0  0  0  0  0  0  0  0  0
   21.4399  -19.6820  -13.2103 O   0  0  0  0  0  0  0  0  0  0  0  0
   20.6519  -19.1834  -14.2259 O   0  0  0  0  0  0  0  0  0  0  0  0
  2  3  2  0
  2  1  1  0
  4  2  1  0
  5  4  1  0
  6  5  1  0
  7  6  1  0
  8  7  1  0
  8  9  1  1
 10 12  1  0
 10  8  1  0
 11 10  2  0
 13 12  1  0
 13 14  1  1
 15 20  2  0
 15 14  1  0
 16 15  1  0
 17 18  1  0
 17 16  2  0
 18 19  2  0
 19 20  1  0
 21 13  1  0
 21 22  2  0
 24 26  1  0
 24 23  1  0
 25 24  2  0
 27 28  1  0
 27 26  1  6
 28 21  1  0
 29 27  1  0
 30 29  1  0
 31 29  2  0
M  END
$$$$
