RFN.pdb
     RDKit          3D

 31 31  0  0  1  0  0  0  0  0999 V2000
   33.4252  -22.9577  -11.0637 N   0  0  0  0  0  0  0  0  0  0  0  0
   33.4613  -23.2279  -12.4493 C   0  0  0  0  0  0  0  0  0  0  0  0
   34.2569  -24.1472  -12.9063 N   0  0  0  0  0  0  0  0  0  0  0  0
   32.6550  -22.5336  -13.4070 N   0  0  0  0  0  0  0  0  0  0  0  0
   31.5029  -21.7646  -13.0462 C   0  0  0  0  0  0  0  0  0  0  0  0
   30.2772  -22.4408  -13.6039 C   0  0  0  0  0  0  0  0  0  0  0  0
   29.0051  -21.6867  -13.2690 C   0  0  0  0  0  0  0  0  0  0  0  0
   29.0705  -21.3183  -11.8071 C   0  0  2  0  0  0  0  0  0  0  0  0
   29.9783  -22.1883  -11.0924 N   0  0  0  0  0  0  0  0  0  0  0  0
   27.7281  -21.4347  -11.1602 C   0  0  0  0  0  0  0  0  0  0  0  0
   27.0403  -22.4697  -11.3157 O   0  0  0  0  0  0  0  0  0  0  0  0
   34.3766  -24.3088  -13.9342 N   0  0  0  0  0  0  0  0  0  0  0  0
   27.2000  -20.3854  -10.3593 C   0  0  1  0  0  0  0  0  0  0  0  0
   25.9081  -20.3588   -9.7375 C   0  0  0  0  0  0  0  0  0  0  0  0
   25.7765  -19.4285   -8.5912 C   0  0  0  0  0  0  0  0  0  0  0  0
   26.7295  -19.6865   -7.4976 C   0  0  0  0  0  0  0  0  0  0  0  0
   27.6943  -18.7392   -7.1862 C   0  0  0  0  0  0  0  0  0  0  0  0
   28.5766  -19.0062   -6.1622 C   0  0  0  0  0  0  0  0  0  0  0  0
   28.4729  -20.2085   -5.4778 C   0  0  0  0  0  0  0  0  0  0  0  0
   27.5193  -21.1572   -5.7777 C   0  0  0  0  0  0  0  0  0  0  0  0
   26.6482  -20.8769   -6.7995 C   0  0  0  0  0  0  0  0  0  0  0  0
   24.7831  -20.3151  -10.7064 O   0  0  0  0  0  0  0  0  0  0  0  0
   24.8166  -19.4656  -11.6212 N   0  0  0  0  0  0  0  0  0  0  0  0
   21.4846  -21.6134  -14.5738 C   0  0  0  0  0  0  0  0  0  0  0  0
   21.2589  -22.2101  -13.3194 O   0  0  0  0  0  0  0  0  0  0  0  0
   20.1062  -22.6115  -13.0238 C   0  0  0  0  0  0  0  0  0  0  0  0
   22.3429  -22.3807  -12.3319 C   0  0  1  0  0  0  0  0  0  0  0  0
   22.6250  -21.0579  -11.6706 N   0  0  0  0  0  0  0  0  0  0  0  0
   23.6739  -21.1850  -10.6475 C   0  0  0  0  0  0  0  0  0  0  0  0
   21.3992  -20.4748  -11.0833 O   0  0  0  0  0  0  0  0  0  0  0  0
   20.4429  -21.3177  -10.5580 O   0  0  0  0  0  0  0  0  0  0  0  0
  2  3  2  0
  2  1  1  0
  4  2  1  0
  5  4  1  0
  6  5  1  0
  7  6  1  0
  8  7  1  0
  8  9  1  1
 10 12  1  0
 10  8  1  0
 11 10  2  0
 13 12  1  0
 13 14  1  6
 15 20  2  0
 15 14  1  0
 16 15  1  0
 17 18  1  0
 17 16  2  0
 18 19  2  0
 19 20  1  0
 21 13  1  0
 21 22  2  0
 24 26  1  0
 24 23  1  0
 25 24  2  0
 27 28  1  0
 27 26  1  6
 28 21  1  0
 29 27  1  0
 30 29  1  0
 31 29  2  0
M  END
$$$$
