RFN.pdb
     RDKit          3D

 31 31  0  0  1  0  0  0  0  0999 V2000
   29.0389  -20.3085  -18.8704 N   0  0  0  0  0  0  0  0  0  0  0  0
   29.0969  -18.8981  -18.8317 C   0  0  0  0  0  0  0  0  0  0  0  0
   29.6908  -18.2508  -19.7884 N   0  0  0  0  0  0  0  0  0  0  0  0
   28.5276  -18.1164  -17.7762 N   0  0  0  0  0  0  0  0  0  0  0  0
   27.7753  -18.6874  -16.7005 C   0  0  0  0  0  0  0  0  0  0  0  0
   26.5680  -19.3844  -17.2726 C   0  0  0  0  0  0  0  0  0  0  0  0
   25.7809  -20.1289  -16.2119 C   0  0  0  0  0  0  0  0  0  0  0  0
   26.7721  -20.8880  -15.3641 C   0  0  2  0  0  0  0  0  0  0  0  0
   27.2932  -22.0344  -16.0754 N   0  0  0  0  0  0  0  0  0  0  0  0
   26.1370  -21.3860  -14.1060 C   0  0  0  0  0  0  0  0  0  0  0  0
   25.5789  -22.5069  -14.0817 O   0  0  0  0  0  0  0  0  0  0  0  0
   29.8367  -17.2146  -19.7427 N   0  0  0  0  0  0  0  0  0  0  0  0
   26.1481  -20.6097  -12.9149 C   0  0  2  0  0  0  0  0  0  0  0  0
   25.4936  -20.9364  -11.6815 C   0  0  0  0  0  0  0  0  0  0  0  0
   26.1298  -20.3846  -10.4619 C   0  0  0  0  0  0  0  0  0  0  0  0
   27.5690  -20.6794  -10.3511 C   0  0  0  0  0  0  0  0  0  0  0  0
   28.0963  -21.0943   -9.1366 C   0  0  0  0  0  0  0  0  0  0  0  0
   29.4459  -21.3595   -9.0578 C   0  0  0  0  0  0  0  0  0  0  0  0
   30.2319  -21.2040  -10.1904 C   0  0  0  0  0  0  0  0  0  0  0  0
   29.7202  -20.7926  -11.4022 C   0  0  0  0  0  0  0  0  0  0  0  0
   28.3749  -20.5325  -11.4647 C   0  0  0  0  0  0  0  0  0  0  0  0
   24.0167  -20.7866  -11.7349 O   0  0  0  0  0  0  0  0  0  0  0  0
   23.3597  -20.9791  -10.6905 N   0  0  0  0  0  0  0  0  0  0  0  0
   19.1896  -18.4765  -14.3974 C   0  0  0  0  0  0  0  0  0  0  0  0
   20.0288  -18.6811  -13.2864 O   0  0  0  0  0  0  0  0  0  0  0  0
   19.5351  -18.6904  -12.1317 C   0  0  0  0  0  0  0  0  0  0  0  0
   21.4830  -18.8867  -13.4363 C   0  0  2  0  0  0  0  0  0  0  0  0
   21.8648  -20.2044  -12.8159 N   0  0  0  0  0  0  0  0  0  0  0  0
   23.3139  -20.4380  -12.9075 C   0  0  0  0  0  0  0  0  0  0  0  0
   21.1213  -21.3262  -13.4293 O   0  0  0  0  0  0  0  0  0  0  0  0
   19.9636  -21.7705  -12.8265 O   0  0  0  0  0  0  0  0  0  0  0  0
  2  3  2  0
  2  1  1  0
  4  2  1  0
  5  4  1  0
  6  5  1  0
  7  6  1  0
  8  7  1  0
  8  9  1  6
 10 12  1  0
 10  8  1  0
 11 10  2  0
 13 12  1  0
 13 14  1  6
 15 20  2  0
 15 14  1  0
 16 15  1  0
 17 18  1  0
 17 16  2  0
 18 19  2  0
 19 20  1  0
 21 13  1  0
 21 22  2  0
 24 26  1  0
 24 23  1  0
 25 24  2  0
 27 28  1  0
 27 26  1  1
 28 21  1  0
 29 27  1  0
 30 29  1  0
 31 29  2  0
M  END
$$$$
