RFN.pdb
     RDKit          3D

 31 31  0  0  1  0  0  0  0  0999 V2000
   24.8261  -19.5154  -16.9173 N   0  0  0  0  0  0  0  0  0  0  0  0
   25.7138  -18.7843  -17.7369 C   0  0  0  0  0  0  0  0  0  0  0  0
   25.2424  -17.9577  -18.6209 N   0  0  0  0  0  0  0  0  0  0  0  0
   27.1381  -18.9006  -17.6527 N   0  0  0  0  0  0  0  0  0  0  0  0
   27.8035  -19.5860  -16.5866 C   0  0  0  0  0  0  0  0  0  0  0  0
   28.1422  -18.5890  -15.5088 C   0  0  0  0  0  0  0  0  0  0  0  0
   27.3477  -18.8262  -14.2394 C   0  0  0  0  0  0  0  0  0  0  0  0
   27.8677  -20.0965  -13.6123 C   0  0  2  0  0  0  0  0  0  0  0  0
   28.3175  -21.0282  -14.6229 N   0  0  0  0  0  0  0  0  0  0  0  0
   26.8058  -20.7767  -12.8098 C   0  0  0  0  0  0  0  0  0  0  0  0
   26.4198  -21.9269  -13.1202 O   0  0  0  0  0  0  0  0  0  0  0  0
   25.8709  -17.4433  -19.2823 N   0  0  0  0  0  0  0  0  0  0  0  0
   26.2105  -20.1439  -11.6844 C   0  0  2  0  0  0  0  0  0  0  0  0
   25.2110  -20.7062  -10.8234 C   0  0  0  0  0  0  0  0  0  0  0  0
   25.2378  -20.2229   -9.4225 C   0  0  0  0  0  0  0  0  0  0  0  0
   26.5740  -20.2554   -8.8028 C   0  0  0  0  0  0  0  0  0  0  0  0
   27.4479  -21.2906   -9.1025 C   0  0  0  0  0  0  0  0  0  0  0  0
   28.6900  -21.3007   -8.5066 C   0  0  0  0  0  0  0  0  0  0  0  0
   29.0263  -20.2800   -7.6293 C   0  0  0  0  0  0  0  0  0  0  0  0
   28.1673  -19.2465   -7.3235 C   0  0  0  0  0  0  0  0  0  0  0  0
   26.9345  -19.2504   -7.9248 C   0  0  0  0  0  0  0  0  0  0  0  0
   23.8595  -20.7592  -11.4375 O   0  0  0  0  0  0  0  0  0  0  0  0
   23.5531  -19.8902  -12.2805 N   0  0  0  0  0  0  0  0  0  0  0  0
   19.1181  -21.7378  -12.9346 C   0  0  0  0  0  0  0  0  0  0  0  0
   19.1812  -21.6428  -11.5319 O   0  0  0  0  0  0  0  0  0  0  0  0
   18.1175  -21.6325  -10.8643 C   0  0  0  0  0  0  0  0  0  0  0  0
   20.4682  -21.5543  -10.8143 C   0  0  2  0  0  0  0  0  0  0  0  0
   21.5972  -21.7024  -11.7993 N   0  0  0  0  0  0  0  0  0  0  0  0
   22.8996  -21.7422  -11.1171 C   0  0  0  0  0  0  0  0  0  0  0  0
   21.5772  -20.6234  -12.8108 O   0  0  0  0  0  0  0  0  0  0  0  0
   21.5538  -20.9601  -14.1476 O   0  0  0  0  0  0  0  0  0  0  0  0
  2  3  2  0
  2  1  1  0
  4  2  1  0
  5  4  1  0
  6  5  1  0
  7  6  1  0
  8  7  1  0
  8  9  1  6
 10 12  1  0
 10  8  1  0
 11 10  2  0
 13 12  1  0
 13 14  1  6
 15 20  2  0
 15 14  1  0
 16 15  1  0
 17 18  1  0
 17 16  2  0
 18 19  2  0
 19 20  1  0
 21 13  1  0
 21 22  2  0
 24 26  1  0
 24 23  1  0
 25 24  2  0
 27 28  1  0
 27 26  1  1
 28 21  1  0
 29 27  1  0
 30 29  1  0
 31 29  2  0
M  END
$$$$
