EGS.pdb
     RDKit          3D

 20 19  0  0  1  0  0  0  0  0999 V2000
   18.2103  -18.3563   20.5940 N   0  0  0  0  0  0  0  0  0  0  0  0
   18.1504  -16.8963   20.4199 C   0  0  1  0  0  0  0  0  0  0  0  0
   18.7263  -16.5068   19.0994 C   0  0  0  0  0  0  0  0  0  0  0  0
   18.9660  -17.6950   18.2362 C   0  0  0  0  0  0  0  0  0  0  0  0
   19.5825  -17.2690   16.9391 C   0  0  0  0  0  0  0  0  0  0  0  0
   18.8517  -17.1580   15.9410 O   0  0  0  0  0  0  0  0  0  0  0  0
   16.7662  -16.4546   20.5509 C   0  0  0  0  0  0  0  0  0  0  0  0
   16.4310  -15.2634   20.4615 O   0  0  0  0  0  0  0  0  0  0  0  0
   20.9222  -17.0130   16.8779 O   0  0  0  0  0  0  0  0  0  0  0  0
   15.7314  -17.4105   20.7926 N   0  0  0  0  0  0  0  0  0  0  0  0
   14.3816  -16.9660   20.9147 C   0  0  0  0  0  0  0  0  0  0  0  0
   14.0402  -16.6263   22.3429 C   0  0  0  0  0  0  0  0  0  0  0  0
   14.9228  -16.2871   23.1608 O   0  0  0  0  0  0  0  0  0  0  0  0
   10.0351  -16.7907   23.6476 O   0  0  0  0  0  0  0  0  0  0  0  0
   10.9086  -15.8461   24.1320 C   0  0  0  0  0  0  0  0  0  0  0  0
   12.3479  -16.3475   24.1683 C   0  0  2  0  0  0  0  0  0  0  0  0
   12.6969  -16.6825   22.8028 N   0  0  0  0  0  0  0  0  0  0  0  0
   12.4710  -17.5123   25.0731 C   0  0  0  0  0  0  0  0  0  0  0  0
   12.3339  -17.3111   26.4328 O   0  0  0  0  0  0  0  0  0  0  0  0
   12.6938  -18.6663   24.6494 O   0  0  0  0  0  0  0  0  0  0  0  0
  2  1  1  6
  3  4  1  0
  3  2  1  0
  4  5  1  0
  5  9  1  0
  5  6  2  0
  7  2  1  0
  8  7  2  0
 10  7  1  0
 11 10  1  0
 11 12  1  0
 12 13  2  0
 16 15  1  6
 15 14  1  0
 17 12  1  0
 17 16  1  0
 18 16  1  0
 18 19  1  0
 20 18  2  0
M  END
$$$$
