EGS.pdb
     RDKit          3D

 20 19  0  0  1  0  0  0  0  0999 V2000
    8.9332  -18.7358   19.0837 N   0  0  0  0  0  0  0  0  0  0  0  0
    9.9844  -18.6437   18.0579 C   0  0  1  0  0  0  0  0  0  0  0  0
    9.4481  -18.0039   16.8209 C   0  0  0  0  0  0  0  0  0  0  0  0
    8.3034  -18.7723   16.2608 C   0  0  0  0  0  0  0  0  0  0  0  0
    7.8707  -18.1698   14.9594 C   0  0  0  0  0  0  0  0  0  0  0  0
    6.8588  -18.6241   14.4005 O   0  0  0  0  0  0  0  0  0  0  0  0
   11.1166  -17.8988   18.5976 C   0  0  0  0  0  0  0  0  0  0  0  0
   12.1413  -17.6653   17.9384 O   0  0  0  0  0  0  0  0  0  0  0  0
    8.5886  -17.1431   14.4167 O   0  0  0  0  0  0  0  0  0  0  0  0
   11.0726  -17.4048   19.9382 N   0  0  0  0  0  0  0  0  0  0  0  0
   12.1427  -16.5952   20.4219 C   0  0  0  0  0  0  0  0  0  0  0  0
   11.8679  -16.0941   21.8166 C   0  0  0  0  0  0  0  0  0  0  0  0
   12.7069  -15.4079   22.4395 O   0  0  0  0  0  0  0  0  0  0  0  0
    8.6133  -14.6514   22.7921 O   0  0  0  0  0  0  0  0  0  0  0  0
    8.9160  -15.4892   23.8391 C   0  0  0  0  0  0  0  0  0  0  0  0
   10.3707  -15.9450   23.8190 C   0  0  2  0  0  0  0  0  0  0  0  0
   10.6394  -16.3896   22.4667 N   0  0  0  0  0  0  0  0  0  0  0  0
   10.5931  -17.0212   24.8105 C   0  0  0  0  0  0  0  0  0  0  0  0
   10.4201  -16.7325   26.1501 O   0  0  0  0  0  0  0  0  0  0  0  0
   10.9306  -18.1769   24.4770 O   0  0  0  0  0  0  0  0  0  0  0  0
  2  1  1  1
  3  4  1  0
  3  2  1  0
  4  5  1  0
  5  9  1  0
  5  6  2  0
  7  2  1  0
  8  7  2  0
 10  7  1  0
 11 10  1  0
 11 12  1  0
 12 13  2  0
 16 15  1  6
 15 14  1  0
 17 12  1  0
 17 16  1  0
 18 16  1  0
 18 19  1  0
 20 18  2  0
M  END
$$$$
