EGS.pdb
     RDKit          3D

 20 19  0  0  1  0  0  0  0  0999 V2000
   10.7556  -17.0341   19.8710 N   0  0  0  0  0  0  0  0  0  0  0  0
    9.8960  -17.4852   20.9770 C   0  0  1  0  0  0  0  0  0  0  0  0
   10.3663  -18.8030   21.4959 C   0  0  0  0  0  0  0  0  0  0  0  0
   11.7258  -18.7014   22.0925 C   0  0  0  0  0  0  0  0  0  0  0  0
   12.2011  -20.0573   22.5162 C   0  0  0  0  0  0  0  0  0  0  0  0
   11.4644  -21.0365   22.3130 O   0  0  0  0  0  0  0  0  0  0  0  0
    9.8899  -16.4694   22.0240 C   0  0  0  0  0  0  0  0  0  0  0  0
   10.6430  -15.4837   22.0065 O   0  0  0  0  0  0  0  0  0  0  0  0
   13.4223  -20.1912   23.1117 O   0  0  0  0  0  0  0  0  0  0  0  0
    8.9901  -16.5877   23.1283 N   0  0  0  0  0  0  0  0  0  0  0  0
    8.8597  -15.5026   24.0450 C   0  0  0  0  0  0  0  0  0  0  0  0
    9.6925  -15.7228   25.2818 C   0  0  0  0  0  0  0  0  0  0  0  0
   10.4439  -16.7158   25.3932 O   0  0  0  0  0  0  0  0  0  0  0  0
   10.7848  -13.9036   29.6818 O   0  0  0  0  0  0  0  0  0  0  0  0
   10.1214  -13.8242   28.4803 C   0  0  0  0  0  0  0  0  0  0  0  0
   10.4163  -15.0126   27.5721 C   0  0  2  0  0  0  0  0  0  0  0  0
    9.6467  -14.8019   26.3630 N   0  0  0  0  0  0  0  0  0  0  0  0
   10.0577  -16.2824   28.2427 C   0  0  0  0  0  0  0  0  0  0  0  0
   10.9582  -16.8392   29.1298 O   0  0  0  0  0  0  0  0  0  0  0  0
    8.9722  -16.8644   28.0337 O   0  0  0  0  0  0  0  0  0  0  0  0
  2  1  1  6
  3  4  1  0
  3  2  1  0
  4  5  1  0
  5  9  1  0
  5  6  2  0
  7  2  1  0
  8  7  2  0
 10  7  1  0
 11 10  1  0
 11 12  1  0
 12 13  2  0
 16 15  1  1
 15 14  1  0
 17 12  1  0
 17 16  1  0
 18 16  1  0
 18 19  1  0
 20 18  2  0
M  END
$$$$
