EGS.pdb
     RDKit          3D

 20 19  0  0  1  0  0  0  0  0999 V2000
    8.0769  -13.2897   17.5787 N   0  0  0  0  0  0  0  0  0  0  0  0
    7.3474  -14.5500   17.3667 C   0  0  1  0  0  0  0  0  0  0  0  0
    7.6516  -15.1052   16.0154 C   0  0  0  0  0  0  0  0  0  0  0  0
    7.9767  -14.0271   15.0425 C   0  0  0  0  0  0  0  0  0  0  0  0
    8.2068  -14.6159   13.6844 C   0  0  0  0  0  0  0  0  0  0  0  0
    8.3991  -15.8395   13.5911 O   0  0  0  0  0  0  0  0  0  0  0  0
    7.7004  -15.4916   18.4236 C   0  0  0  0  0  0  0  0  0  0  0  0
    7.4620  -16.7066   18.3466 O   0  0  0  0  0  0  0  0  0  0  0  0
    8.2009  -13.8059   12.5854 O   0  0  0  0  0  0  0  0  0  0  0  0
    8.3487  -15.0245   19.6088 N   0  0  0  0  0  0  0  0  0  0  0  0
    8.6518  -15.9487   20.6522 C   0  0  0  0  0  0  0  0  0  0  0  0
    9.3553  -15.2721   21.8007 C   0  0  0  0  0  0  0  0  0  0  0  0
    9.7020  -14.0726   21.7368 O   0  0  0  0  0  0  0  0  0  0  0  0
    7.7098  -15.4561   25.1091 O   0  0  0  0  0  0  0  0  0  0  0  0
    8.6702  -14.5835   24.6552 C   0  0  0  0  0  0  0  0  0  0  0  0
    9.9511  -15.2944   24.2334 C   0  0  2  0  0  0  0  0  0  0  0  0
    9.6460  -15.9833   22.9960 N   0  0  0  0  0  0  0  0  0  0  0  0
   10.4011  -16.2276   25.2904 C   0  0  0  0  0  0  0  0  0  0  0  0
   10.3990  -17.5825   25.0215 O   0  0  0  0  0  0  0  0  0  0  0  0
   10.7811  -15.8319   26.4129 O   0  0  0  0  0  0  0  0  0  0  0  0
  2  1  1  1
  3  4  1  0
  3  2  1  0
  4  5  1  0
  5  9  1  0
  5  6  2  0
  7  2  1  0
  8  7  2  0
 10  7  1  0
 11 10  1  0
 11 12  1  0
 12 13  2  0
 16 15  1  1
 15 14  1  0
 17 12  1  0
 17 16  1  0
 18 16  1  0
 18 19  1  0
 20 18  2  0
M  END
$$$$
