EGS.pdb
     RDKit          3D

 20 19  0  0  1  0  0  0  0  0999 V2000
   11.0076  -14.9000   20.0898 N   0  0  0  0  0  0  0  0  0  0  0  0
    9.6754  -15.2365   19.5629 C   0  0  1  0  0  0  0  0  0  0  0  0
    9.7079  -16.5613   18.8766 C   0  0  0  0  0  0  0  0  0  0  0  0
   10.5265  -16.5132   17.6348 C   0  0  0  0  0  0  0  0  0  0  0  0
   10.9502  -17.8968   17.2474 C   0  0  0  0  0  0  0  0  0  0  0  0
   12.1579  -18.1189   17.0607 O   0  0  0  0  0  0  0  0  0  0  0  0
    8.7104  -15.2245   20.6568 C   0  0  0  0  0  0  0  0  0  0  0  0
    7.4841  -15.2347   20.4695 O   0  0  0  0  0  0  0  0  0  0  0  0
   10.0115  -18.8783   17.1081 O   0  0  0  0  0  0  0  0  0  0  0  0
    9.1666  -15.1999   22.0112 N   0  0  0  0  0  0  0  0  0  0  0  0
    8.2186  -15.3059   23.0717 C   0  0  0  0  0  0  0  0  0  0  0  0
    8.3973  -14.2027   24.0830 C   0  0  0  0  0  0  0  0  0  0  0  0
    9.3983  -13.4540   24.0606 O   0  0  0  0  0  0  0  0  0  0  0  0
    5.2802  -13.2087   26.7256 O   0  0  0  0  0  0  0  0  0  0  0  0
    6.2165  -12.3068   26.2785 C   0  0  0  0  0  0  0  0  0  0  0  0
    7.5909  -12.9389   26.0896 C   0  0  2  0  0  0  0  0  0  0  0  0
    7.4267  -13.9812   25.0970 N   0  0  0  0  0  0  0  0  0  0  0  0
    8.1000  -13.4717   27.3732 C   0  0  0  0  0  0  0  0  0  0  0  0
    8.3950  -12.5823   28.3880 O   0  0  0  0  0  0  0  0  0  0  0  0
    8.2710  -14.6938   27.5679 O   0  0  0  0  0  0  0  0  0  0  0  0
  2  1  1  1
  3  4  1  0
  3  2  1  0
  4  5  1  0
  5  9  1  0
  5  6  2  0
  7  2  1  0
  8  7  2  0
 10  7  1  0
 11 10  1  0
 11 12  1  0
 12 13  2  0
 16 15  1  1
 15 14  1  0
 17 12  1  0
 17 16  1  0
 18 16  1  0
 18 19  1  0
 20 18  2  0
M  END
$$$$
