EGS.pdb
     RDKit          3D

 20 19  0  0  1  0  0  0  0  0999 V2000
   15.7493  -18.6152   20.4599 N   0  0  0  0  0  0  0  0  0  0  0  0
   14.6091  -19.3970   19.9557 C   0  0  1  0  0  0  0  0  0  0  0  0
   15.0498  -20.3121   18.8624 C   0  0  0  0  0  0  0  0  0  0  0  0
   15.9661  -19.6257   17.9118 C   0  0  0  0  0  0  0  0  0  0  0  0
   16.4596  -20.5980   16.8846 C   0  0  0  0  0  0  0  0  0  0  0  0
   15.6612  -21.0182   16.0309 O   0  0  0  0  0  0  0  0  0  0  0  0
   14.0081  -20.1352   21.0613 C   0  0  0  0  0  0  0  0  0  0  0  0
   12.8458  -20.5674   21.0258 O   0  0  0  0  0  0  0  0  0  0  0  0
   17.7640  -21.0006   16.9050 O   0  0  0  0  0  0  0  0  0  0  0  0
   14.7652  -20.3864   22.2473 N   0  0  0  0  0  0  0  0  0  0  0  0
   14.2097  -21.2087   23.2720 C   0  0  0  0  0  0  0  0  0  0  0  0
   13.9194  -20.4142   24.5195 C   0  0  0  0  0  0  0  0  0  0  0  0
   14.5370  -19.3584   24.7782 O   0  0  0  0  0  0  0  0  0  0  0  0
   10.3167  -20.3694   26.3129 O   0  0  0  0  0  0  0  0  0  0  0  0
   11.3280  -19.4655   26.5362 C   0  0  0  0  0  0  0  0  0  0  0  0
   12.6885  -20.1376   26.6833 C   0  0  2  0  0  0  0  0  0  0  0  0
   12.9291  -20.8457   25.4427 N   0  0  0  0  0  0  0  0  0  0  0  0
   12.6965  -21.0472   27.8509 C   0  0  0  0  0  0  0  0  0  0  0  0
   12.6496  -20.4981   29.1175 O   0  0  0  0  0  0  0  0  0  0  0  0
   12.7442  -22.2896   27.7289 O   0  0  0  0  0  0  0  0  0  0  0  0
  2  1  1  1
  3  4  1  0
  3  2  1  0
  4  5  1  0
  5  9  1  0
  5  6  2  0
  7  2  1  0
  8  7  2  0
 10  7  1  0
 11 10  1  0
 11 12  1  0
 12 13  2  0
 16 15  1  6
 15 14  1  0
 17 12  1  0
 17 16  1  0
 18 16  1  0
 18 19  1  0
 20 18  2  0
M  END
$$$$
