EGS.pdb
     RDKit          3D

 20 19  0  0  1  0  0  0  0  0999 V2000
   11.2476  -20.2055   16.7498 N   0  0  0  0  0  0  0  0  0  0  0  0
   12.5824  -19.8120   17.2283 C   0  0  1  0  0  0  0  0  0  0  0  0
   13.2553  -18.9345   16.2262 C   0  0  0  0  0  0  0  0  0  0  0  0
   14.5850  -18.4732   16.7095 C   0  0  0  0  0  0  0  0  0  0  0  0
   15.2236  -17.5884   15.6833 C   0  0  0  0  0  0  0  0  0  0  0  0
   14.9537  -17.7755   14.4854 O   0  0  0  0  0  0  0  0  0  0  0  0
   12.4515  -19.1463   18.5197 C   0  0  0  0  0  0  0  0  0  0  0  0
   11.7945  -18.1053   18.6741 O   0  0  0  0  0  0  0  0  0  0  0  0
   16.0817  -16.6028   16.0786 O   0  0  0  0  0  0  0  0  0  0  0  0
   13.0953  -19.6924   19.6731 N   0  0  0  0  0  0  0  0  0  0  0  0
   12.9785  -19.0192   20.9252 C   0  0  0  0  0  0  0  0  0  0  0  0
   12.6357  -19.9779   22.0366 C   0  0  0  0  0  0  0  0  0  0  0  0
   12.1347  -21.0985   21.7991 O   0  0  0  0  0  0  0  0  0  0  0  0
   15.0015  -20.3181   24.4263 O   0  0  0  0  0  0  0  0  0  0  0  0
   13.9513  -20.8970   25.0986 C   0  0  0  0  0  0  0  0  0  0  0  0
   12.6025  -20.5619   24.4720 C   0  0  2  0  0  0  0  0  0  0  0  0
   12.8738  -19.6328   23.3943 N   0  0  0  0  0  0  0  0  0  0  0  0
   11.6874  -19.9860   25.4828 C   0  0  0  0  0  0  0  0  0  0  0  0
   11.2800  -18.6744   25.3352 O   0  0  0  0  0  0  0  0  0  0  0  0
   11.2733  -20.6442   26.4605 O   0  0  0  0  0  0  0  0  0  0  0  0
  2  1  1  6
  3  4  1  0
  3  2  1  0
  4  5  1  0
  5  9  1  0
  5  6  2  0
  7  2  1  0
  8  7  2  0
 10  7  1  0
 11 10  1  0
 11 12  1  0
 12 13  2  0
 16 15  1  1
 15 14  1  0
 17 12  1  0
 17 16  1  0
 18 16  1  0
 18 19  1  0
 20 18  2  0
M  END
$$$$
