AKP.pdb
     RDKit          3D

 22 22  0  0  1  0  0  0  0  0999 V2000
   27.6271  -15.7728  -16.0931 C   0  0  0  0  0  0  0  0  0  0  0  0
   26.4181  -16.4872  -16.7049 C   0  0  2  0  0  0  0  0  0  0  0  0
   25.5548  -15.4797  -17.2522 N   0  0  0  0  0  0  0  0  0  0  0  0
   25.7095  -17.1911  -15.5791 C   0  0  0  0  0  0  0  0  0  0  0  0
   25.8375  -16.8115  -14.3922 O   0  0  0  0  0  0  0  0  0  0  0  0
   24.8810  -18.3034  -15.8563 N   0  0  0  0  0  0  0  0  0  0  0  0
   24.1744  -19.0714  -14.8379 C   0  0  1  0  0  0  0  0  0  0  0  0
   22.8241  -19.3458  -15.4379 C   0  0  0  0  0  0  0  0  0  0  0  0
   21.9401  -20.2359  -14.6559 C   0  0  0  0  0  0  0  0  0  0  0  0
   20.6388  -20.4430  -15.4544 C   0  0  0  0  0  0  0  0  0  0  0  0
   19.6841  -21.2567  -14.6318 C   0  0  0  0  0  0  0  0  0  0  0  0
   18.4029  -21.3628  -15.3445 N   0  0  0  0  0  0  0  0  0  0  0  0
   24.8530  -20.3006  -14.4158 C   0  0  0  0  0  0  0  0  0  0  0  0
   25.4819  -20.9245  -15.3703 O   0  0  0  0  0  0  0  0  0  0  0  0
   24.9351  -20.9104  -13.1688 N   0  0  0  0  0  0  0  0  0  0  0  0
   24.2924  -20.6077  -11.9314 C   0  0  0  0  0  0  0  0  0  0  0  0
   25.5148  -20.7209  -10.9902 C   0  0  0  0  0  0  0  0  0  0  0  0
   26.0129  -22.0884  -11.4024 C   0  0  0  0  0  0  0  0  0  0  0  0
   25.7525  -22.1043  -12.8810 C   0  0  1  0  0  0  0  0  0  0  0  0
   25.0197  -23.3392  -13.2256 C   0  0  0  0  0  0  0  0  0  0  0  0
   25.7480  -24.5199  -13.2501 O   0  0  0  0  0  0  0  0  0  0  0  0
   23.7993  -23.3830  -13.4929 O   0  0  0  0  0  0  0  0  0  0  0  0
  2  1  1  1
  2  4  1  0
  3  2  1  0
  4  5  2  0
  6  4  1  0
  6  7  1  0
  7 13  1  0
  7  8  1  6
  9 10  1  0
  9  8  1  0
 10 11  1  0
 11 12  1  0
 13 14  2  0
 13 15  1  0
 15 19  1  0
 15 16  1  0
 17 16  1  0
 18 17  1  0
 18 19  1  0
 19 20  1  1
 20 21  1  0
 22 20  2  0
M  END
$$$$
