AKP.pdb
     RDKit          3D

 22 22  0  0  1  0  0  0  0  0999 V2000
   22.6737  -19.8804  -10.3480 C   0  0  0  0  0  0  0  0  0  0  0  0
   23.1942  -21.0668  -11.1652 C   0  0  2  0  0  0  0  0  0  0  0  0
   24.0828  -21.8136  -10.3212 N   0  0  0  0  0  0  0  0  0  0  0  0
   23.9697  -20.4955  -12.3216 C   0  0  0  0  0  0  0  0  0  0  0  0
   25.1146  -20.0130  -12.1614 O   0  0  0  0  0  0  0  0  0  0  0  0
   23.4035  -20.4987  -13.6176 N   0  0  0  0  0  0  0  0  0  0  0  0
   24.0897  -20.0190  -14.8115 C   0  0  1  0  0  0  0  0  0  0  0  0
   23.3671  -20.6751  -15.9543 C   0  0  0  0  0  0  0  0  0  0  0  0
   23.8263  -20.2990  -17.3083 C   0  0  0  0  0  0  0  0  0  0  0  0
   25.1453  -21.0431  -17.5922 C   0  0  0  0  0  0  0  0  0  0  0  0
   25.6664  -20.6204  -18.9339 C   0  0  0  0  0  0  0  0  0  0  0  0
   26.9039  -21.3585  -19.2247 N   0  0  0  0  0  0  0  0  0  0  0  0
   24.1341  -18.5600  -14.9489 C   0  0  0  0  0  0  0  0  0  0  0  0
   23.0474  -17.9494  -14.5720 O   0  0  0  0  0  0  0  0  0  0  0  0
   25.1409  -17.7219  -15.4154 N   0  0  0  0  0  0  0  0  0  0  0  0
   26.4542  -18.0079  -15.8940 C   0  0  0  0  0  0  0  0  0  0  0  0
   27.2347  -16.9154  -15.1257 C   0  0  0  0  0  0  0  0  0  0  0  0
   26.4089  -15.7089  -15.5137 C   0  0  0  0  0  0  0  0  0  0  0  0
   25.0114  -16.2574  -15.5375 C   0  0  1  0  0  0  0  0  0  0  0  0
   24.3740  -15.8905  -16.8181 C   0  0  0  0  0  0  0  0  0  0  0  0
   23.9701  -14.5715  -16.9675 O   0  0  0  0  0  0  0  0  0  0  0  0
   24.1795  -16.6867  -17.7619 O   0  0  0  0  0  0  0  0  0  0  0  0
  2  1  1  1
  2  4  1  0
  3  2  1  0
  4  5  2  0
  6  4  1  0
  6  7  1  0
  7 13  1  0
  7  8  1  6
  9 10  1  0
  9  8  1  0
 10 11  1  0
 11 12  1  0
 13 14  2  0
 13 15  1  0
 15 19  1  0
 15 16  1  0
 17 16  1  0
 18 17  1  0
 18 19  1  0
 19 20  1  6
 20 21  1  0
 22 20  2  0
M  END
$$$$
