AKP.pdb
     RDKit          3D

 22 22  0  0  1  0  0  0  0  0999 V2000
   12.3897   -8.8034   -8.8198 C   0  0  0  0  0  0  0  0  0  0  0  0
   11.7962   -9.6855   -9.9225 C   0  0  2  0  0  0  0  0  0  0  0  0
   11.1819  -10.8153   -9.2855 N   0  0  0  0  0  0  0  0  0  0  0  0
   12.9456  -10.1577  -10.7717 C   0  0  0  0  0  0  0  0  0  0  0  0
   13.7992  -10.9576  -10.3235 O   0  0  0  0  0  0  0  0  0  0  0  0
   13.0730   -9.6954  -12.1022 N   0  0  0  0  0  0  0  0  0  0  0  0
   14.1019  -10.1482  -13.0309 C   0  0  1  0  0  0  0  0  0  0  0  0
   13.3467  -10.5589  -14.2636 C   0  0  0  0  0  0  0  0  0  0  0  0
   12.7582  -11.9147  -14.2373 C   0  0  0  0  0  0  0  0  0  0  0  0
   12.0785  -12.1699  -15.5962 C   0  0  0  0  0  0  0  0  0  0  0  0
   11.3466  -13.4781  -15.5392 C   0  0  0  0  0  0  0  0  0  0  0  0
   10.8422  -13.8072  -16.8801 N   0  0  0  0  0  0  0  0  0  0  0  0
   15.1430   -9.1582  -13.3233 C   0  0  0  0  0  0  0  0  0  0  0  0
   14.7418   -7.9206  -13.2658 O   0  0  0  0  0  0  0  0  0  0  0  0
   16.4841   -9.3207  -13.6527 N   0  0  0  0  0  0  0  0  0  0  0  0
   17.2666  -10.4974  -13.8503 C   0  0  0  0  0  0  0  0  0  0  0  0
   18.5173  -10.0960  -13.0333 C   0  0  0  0  0  0  0  0  0  0  0  0
   18.7954   -8.7483  -13.6614 C   0  0  0  0  0  0  0  0  0  0  0  0
   17.4169   -8.2067  -13.9081 C   0  0  1  0  0  0  0  0  0  0  0  0
   17.3236   -7.7533  -15.3104 C   0  0  0  0  0  0  0  0  0  0  0  0
   17.9635   -6.5656  -15.6341 O   0  0  0  0  0  0  0  0  0  0  0  0
   16.7109   -8.3677  -16.2103 O   0  0  0  0  0  0  0  0  0  0  0  0
  2  1  1  1
  2  4  1  0
  3  2  1  0
  4  5  2  0
  6  4  1  0
  6  7  1  0
  7 13  1  0
  7  8  1  6
  9 10  1  0
  9  8  1  0
 10 11  1  0
 11 12  1  0
 13 14  2  0
 13 15  1  0
 15 19  1  0
 15 16  1  0
 17 16  1  0
 18 17  1  0
 18 19  1  0
 19 20  1  6
 20 21  1  0
 22 20  2  0
M  END
$$$$
