AKP.pdb
     RDKit          3D

 22 22  0  0  1  0  0  0  0  0999 V2000
   15.8161  -12.9417  -15.2259 C   0  0  0  0  0  0  0  0  0  0  0  0
   16.7395  -13.5769  -16.2700 C   0  0  2  0  0  0  0  0  0  0  0  0
   16.8529  -14.9718  -15.9521 N   0  0  0  0  0  0  0  0  0  0  0  0
   18.0861  -12.9217  -16.1201 C   0  0  0  0  0  0  0  0  0  0  0  0
   18.8727  -13.2549  -15.2039 O   0  0  0  0  0  0  0  0  0  0  0  0
   18.4800  -11.9095  -17.0260 N   0  0  0  0  0  0  0  0  0  0  0  0
   19.7915  -11.2720  -17.0209 C   0  0  1  0  0  0  0  0  0  0  0  0
   19.9841  -10.7884  -18.4308 C   0  0  0  0  0  0  0  0  0  0  0  0
   20.2893  -11.8307  -19.4337 C   0  0  0  0  0  0  0  0  0  0  0  0
   20.4366  -11.1477  -20.8069 C   0  0  0  0  0  0  0  0  0  0  0  0
   20.6160  -12.2005  -21.8603 C   0  0  0  0  0  0  0  0  0  0  0  0
   20.7469  -11.5518  -23.1728 N   0  0  0  0  0  0  0  0  0  0  0  0
   19.9455  -10.1937  -16.0396 C   0  0  0  0  0  0  0  0  0  0  0  0
   18.8439   -9.5585  -15.7588 O   0  0  0  0  0  0  0  0  0  0  0  0
   21.0702   -9.7363  -15.3618 N   0  0  0  0  0  0  0  0  0  0  0  0
   22.4269  -10.1771  -15.3892 C   0  0  0  0  0  0  0  0  0  0  0  0
   22.7085  -10.1874  -13.8681 C   0  0  0  0  0  0  0  0  0  0  0  0
   22.2539   -8.7854  -13.5275 C   0  0  0  0  0  0  0  0  0  0  0  0
   21.0696   -8.5924  -14.4301 C   0  0  1  0  0  0  0  0  0  0  0  0
   21.2260   -7.3187  -15.1607 C   0  0  0  0  0  0  0  0  0  0  0  0
   21.0142   -6.1495  -14.4443 O   0  0  0  0  0  0  0  0  0  0  0  0
   21.5334   -7.2328  -16.3693 O   0  0  0  0  0  0  0  0  0  0  0  0
  2  1  1  1
  2  4  1  0
  3  2  1  0
  4  5  2  0
  6  4  1  0
  6  7  1  0
  7 13  1  0
  7  8  1  6
  9 10  1  0
  9  8  1  0
 10 11  1  0
 11 12  1  0
 13 14  2  0
 13 15  1  0
 15 19  1  0
 15 16  1  0
 17 16  1  0
 18 17  1  0
 18 19  1  0
 19 20  1  6
 20 21  1  0
 22 20  2  0
M  END
$$$$
