AKP.pdb
     RDKit          3D

 22 22  0  0  1  0  0  0  0  0999 V2000
   15.7532  -10.7125  -18.4992 C   0  0  0  0  0  0  0  0  0  0  0  0
   16.7550  -11.8292  -18.8085 C   0  0  2  0  0  0  0  0  0  0  0  0
   16.1176  -13.0770  -18.4983 N   0  0  0  0  0  0  0  0  0  0  0  0
   17.9306  -11.6295  -17.8902 C   0  0  0  0  0  0  0  0  0  0  0  0
   17.8425  -11.8600  -16.6621 O   0  0  0  0  0  0  0  0  0  0  0  0
   19.1624  -11.1733  -18.4143 N   0  0  0  0  0  0  0  0  0  0  0  0
   20.3301  -10.8550  -17.6010 C   0  0  1  0  0  0  0  0  0  0  0  0
   21.4968  -11.0050  -18.5363 C   0  0  0  0  0  0  0  0  0  0  0  0
   22.0793  -12.3606  -18.6280 C   0  0  0  0  0  0  0  0  0  0  0  0
   23.1750  -12.3405  -19.7111 C   0  0  0  0  0  0  0  0  0  0  0  0
   23.6325  -13.7453  -19.9704 C   0  0  0  0  0  0  0  0  0  0  0  0
   24.5950  -13.7415  -21.0814 N   0  0  0  0  0  0  0  0  0  0  0  0
   20.2945   -9.5333  -16.9675 C   0  0  0  0  0  0  0  0  0  0  0  0
   19.6929   -8.6153  -17.6683 O   0  0  0  0  0  0  0  0  0  0  0  0
   20.7968   -9.0976  -15.7462 N   0  0  0  0  0  0  0  0  0  0  0  0
   21.4671   -9.8014  -14.7017 C   0  0  0  0  0  0  0  0  0  0  0  0
   20.6962   -9.2270  -13.4898 C   0  0  0  0  0  0  0  0  0  0  0  0
   20.8474   -7.7508  -13.7832 C   0  0  0  0  0  0  0  0  0  0  0  0
   20.7485   -7.6986  -15.2805 C   0  0  1  0  0  0  0  0  0  0  0  0
   21.8916   -6.9281  -15.8101 C   0  0  0  0  0  0  0  0  0  0  0  0
   21.8582   -5.5514  -15.6403 O   0  0  0  0  0  0  0  0  0  0  0  0
   22.8735   -7.4356  -16.3939 O   0  0  0  0  0  0  0  0  0  0  0  0
  2  1  1  1
  2  4  1  0
  3  2  1  0
  4  5  2  0
  6  4  1  0
  6  7  1  0
  7 13  1  0
  7  8  1  6
  9 10  1  0
  9  8  1  0
 10 11  1  0
 11 12  1  0
 13 14  2  0
 13 15  1  0
 15 19  1  0
 15 16  1  0
 17 16  1  0
 18 17  1  0
 18 19  1  0
 19 20  1  6
 20 21  1  0
 22 20  2  0
M  END
$$$$
