AKP.pdb
     RDKit          3D

 22 22  0  0  1  0  0  0  0  0999 V2000
   28.8299  -19.6664  -13.6510 C   0  0  0  0  0  0  0  0  0  0  0  0
   28.0856  -20.7372  -12.8474 C   0  0  2  0  0  0  0  0  0  0  0  0
   27.0106  -21.2199  -13.6666 N   0  0  0  0  0  0  0  0  0  0  0  0
   27.5170  -20.0561  -11.6317 C   0  0  0  0  0  0  0  0  0  0  0  0
   27.1935  -18.8461  -11.6562 O   0  0  0  0  0  0  0  0  0  0  0  0
   27.3408  -20.7875  -10.4341 N   0  0  0  0  0  0  0  0  0  0  0  0
   26.7236  -20.2473   -9.2285 C   0  0  1  0  0  0  0  0  0  0  0  0
   25.3387  -20.8308   -9.2166 C   0  0  0  0  0  0  0  0  0  0  0  0
   24.4376  -20.3745  -10.2961 C   0  0  0  0  0  0  0  0  0  0  0  0
   23.0613  -21.0337  -10.0838 C   0  0  0  0  0  0  0  0  0  0  0  0
   22.1679  -20.6831  -11.2367 C   0  0  0  0  0  0  0  0  0  0  0  0
   20.8419  -21.2786  -11.0175 N   0  0  0  0  0  0  0  0  0  0  0  0
   27.4531  -20.5268   -7.9879 C   0  0  0  0  0  0  0  0  0  0  0  0
   27.9404  -21.7319   -7.9085 O   0  0  0  0  0  0  0  0  0  0  0  0
   27.7090  -19.7215   -6.8836 N   0  0  0  0  0  0  0  0  0  0  0  0
   27.3251  -18.3787   -6.5915 C   0  0  0  0  0  0  0  0  0  0  0  0
   28.6838  -17.8449   -6.0795 C   0  0  0  0  0  0  0  0  0  0  0  0
   28.9895  -18.9083   -5.0481 C   0  0  0  0  0  0  0  0  0  0  0  0
   28.4673  -20.1582   -5.6958 C   0  0  1  0  0  0  0  0  0  0  0  0
   27.5888  -20.8625   -4.7404 C   0  0  0  0  0  0  0  0  0  0  0  0
   28.1990  -21.4789   -3.6574 O   0  0  0  0  0  0  0  0  0  0  0  0
   26.3455  -20.9351   -4.8480 O   0  0  0  0  0  0  0  0  0  0  0  0
  2  1  1  6
  2  4  1  0
  3  2  1  0
  4  5  2  0
  6  4  1  0
  6  7  1  0
  7 13  1  0
  7  8  1  1
  9 10  1  0
  9  8  1  0
 10 11  1  0
 11 12  1  0
 13 14  2  0
 13 15  1  0
 15 19  1  0
 15 16  1  0
 17 16  1  0
 18 17  1  0
 18 19  1  0
 19 20  1  1
 20 21  1  0
 22 20  2  0
M  END
$$$$
