AKP.pdb
     RDKit          3D

 22 22  0  0  1  0  0  0  0  0999 V2000
   27.2051  -16.0432  -14.5791 C   0  0  0  0  0  0  0  0  0  0  0  0
   26.4272  -17.2815  -15.0349 C   0  0  2  0  0  0  0  0  0  0  0  0
   27.3877  -18.2676  -15.4406 N   0  0  0  0  0  0  0  0  0  0  0  0
   25.6053  -16.8684  -16.2261 C   0  0  0  0  0  0  0  0  0  0  0  0
   26.0842  -16.8851  -17.3835 O   0  0  0  0  0  0  0  0  0  0  0  0
   24.2658  -16.4520  -16.0456 N   0  0  0  0  0  0  0  0  0  0  0  0
   23.3750  -16.0663  -17.1337 C   0  0  1  0  0  0  0  0  0  0  0  0
   22.0522  -16.6853  -16.7792 C   0  0  0  0  0  0  0  0  0  0  0  0
   21.8328  -18.0625  -17.2697 C   0  0  0  0  0  0  0  0  0  0  0  0
   20.3848  -18.4673  -16.9335 C   0  0  0  0  0  0  0  0  0  0  0  0
   20.1774  -19.9035  -17.3135 C   0  0  0  0  0  0  0  0  0  0  0  0
   18.8213  -20.3147  -16.9226 N   0  0  0  0  0  0  0  0  0  0  0  0
   23.2684  -14.6211  -17.3562 C   0  0  0  0  0  0  0  0  0  0  0  0
   23.3045  -13.9041  -16.2698 O   0  0  0  0  0  0  0  0  0  0  0  0
   23.1336  -13.8906  -18.5317 N   0  0  0  0  0  0  0  0  0  0  0  0
   23.0679  -14.3082  -19.8944 C   0  0  0  0  0  0  0  0  0  0  0  0
   24.0457  -13.2795  -20.5098 C   0  0  0  0  0  0  0  0  0  0  0  0
   23.4402  -12.0082  -19.9572 C   0  0  0  0  0  0  0  0  0  0  0  0
   22.9930  -12.4231  -18.5853 C   0  0  1  0  0  0  0  0  0  0  0  0
   21.5840  -12.0223  -18.3985 C   0  0  0  0  0  0  0  0  0  0  0  0
   20.6331  -13.0327  -18.4100 O   0  0  0  0  0  0  0  0  0  0  0  0
   21.2027  -10.8434  -18.2330 O   0  0  0  0  0  0  0  0  0  0  0  0
  2  1  1  6
  2  4  1  0
  3  2  1  0
  4  5  2  0
  6  4  1  0
  6  7  1  0
  7 13  1  0
  7  8  1  1
  9 10  1  0
  9  8  1  0
 10 11  1  0
 11 12  1  0
 13 14  2  0
 13 15  1  0
 15 19  1  0
 15 16  1  0
 17 16  1  0
 18 17  1  0
 18 19  1  0
 19 20  1  6
 20 21  1  0
 22 20  2  0
M  END
$$$$
