AKP.pdb
     RDKit          3D

 22 22  0  0  1  0  0  0  0  0999 V2000
   28.7526  -16.4269  -17.6049 C   0  0  0  0  0  0  0  0  0  0  0  0
   27.6823  -17.5109  -17.7657 C   0  0  2  0  0  0  0  0  0  0  0  0
   26.7310  -17.0364  -18.7298 N   0  0  0  0  0  0  0  0  0  0  0  0
   27.0047  -17.6589  -16.4300 C   0  0  0  0  0  0  0  0  0  0  0  0
   27.2278  -16.8551  -15.4954 O   0  0  0  0  0  0  0  0  0  0  0  0
   26.0973  -18.7224  -16.2161 N   0  0  0  0  0  0  0  0  0  0  0  0
   25.3237  -18.9047  -14.9935 C   0  0  1  0  0  0  0  0  0  0  0  0
   23.8924  -18.9342  -15.4505 C   0  0  0  0  0  0  0  0  0  0  0  0
   23.3682  -17.6701  -16.0098 C   0  0  0  0  0  0  0  0  0  0  0  0
   22.1495  -18.0038  -16.8915 C   0  0  0  0  0  0  0  0  0  0  0  0
   21.7376  -16.7727  -17.6431 C   0  0  0  0  0  0  0  0  0  0  0  0
   21.0576  -15.8505  -16.7222 N   0  0  0  0  0  0  0  0  0  0  0  0
   25.6807  -20.0937  -14.2134 C   0  0  0  0  0  0  0  0  0  0  0  0
   26.1709  -21.0735  -14.9174 O   0  0  0  0  0  0  0  0  0  0  0  0
   25.5814  -20.3490  -12.8502 N   0  0  0  0  0  0  0  0  0  0  0  0
   25.0396  -19.5686  -11.7857 C   0  0  0  0  0  0  0  0  0  0  0  0
   26.1758  -19.7487  -10.7515 C   0  0  0  0  0  0  0  0  0  0  0  0
   26.2770  -21.2579  -10.7622 C   0  0  0  0  0  0  0  0  0  0  0  0
   26.0327  -21.5963  -12.2044 C   0  0  1  0  0  0  0  0  0  0  0  0
   24.9880  -22.6371  -12.2825 C   0  0  0  0  0  0  0  0  0  0  0  0
   25.3536  -23.9271  -11.9256 O   0  0  0  0  0  0  0  0  0  0  0  0
   23.8104  -22.4276  -12.6460 O   0  0  0  0  0  0  0  0  0  0  0  0
  2  1  1  1
  2  4  1  0
  3  2  1  0
  4  5  2  0
  6  4  1  0
  6  7  1  0
  7 13  1  0
  7  8  1  6
  9 10  1  0
  9  8  1  0
 10 11  1  0
 11 12  1  0
 13 14  2  0
 13 15  1  0
 15 19  1  0
 15 16  1  0
 17 16  1  0
 18 17  1  0
 18 19  1  0
 19 20  1  1
 20 21  1  0
 22 20  2  0
M  END
$$$$
