AKP.pdb
     RDKit          3D

 22 22  0  0  1  0  0  0  0  0999 V2000
   21.4425  -20.1251  -13.9969 C   0  0  0  0  0  0  0  0  0  0  0  0
   22.2454  -19.9335  -15.2872 C   0  0  2  0  0  0  0  0  0  0  0  0
   22.9256  -21.1679  -15.5579 N   0  0  0  0  0  0  0  0  0  0  0  0
   23.2603  -18.8558  -15.0155 C   0  0  0  0  0  0  0  0  0  0  0  0
   22.9147  -17.7306  -14.5869 O   0  0  0  0  0  0  0  0  0  0  0  0
   24.6327  -19.1087  -15.2452 N   0  0  0  0  0  0  0  0  0  0  0  0
   25.6891  -18.1207  -15.0601 C   0  0  1  0  0  0  0  0  0  0  0  0
   26.9171  -18.9306  -14.7530 C   0  0  0  0  0  0  0  0  0  0  0  0
   27.0805  -19.3445  -13.3432 C   0  0  0  0  0  0  0  0  0  0  0  0
   26.5835  -20.7966  -13.2081 C   0  0  0  0  0  0  0  0  0  0  0  0
   26.5993  -21.1864  -11.7596 C   0  0  0  0  0  0  0  0  0  0  0  0
   26.1663  -22.5853  -11.6321 N   0  0  0  0  0  0  0  0  0  0  0  0
   25.8910  -17.2182  -16.1977 C   0  0  0  0  0  0  0  0  0  0  0  0
   25.5906  -17.7338  -17.3552 O   0  0  0  0  0  0  0  0  0  0  0  0
   26.3506  -15.9067  -16.2462 N   0  0  0  0  0  0  0  0  0  0  0  0
   26.8641  -15.0532  -15.2246 C   0  0  0  0  0  0  0  0  0  0  0  0
   26.0773  -13.7661  -15.5668 C   0  0  0  0  0  0  0  0  0  0  0  0
   26.4102  -13.6621  -17.0387 C   0  0  0  0  0  0  0  0  0  0  0  0
   26.4236  -15.0978  -17.4778 C   0  0  1  0  0  0  0  0  0  0  0  0
   27.6789  -15.3642  -18.2086 C   0  0  0  0  0  0  0  0  0  0  0  0
   27.8327  -14.7516  -19.4440 O   0  0  0  0  0  0  0  0  0  0  0  0
   28.5980  -16.0985  -17.7860 O   0  0  0  0  0  0  0  0  0  0  0  0
  2  1  1  1
  2  4  1  0
  3  2  1  0
  4  5  2  0
  6  4  1  0
  6  7  1  0
  7 13  1  0
  7  8  1  6
  9 10  1  0
  9  8  1  0
 10 11  1  0
 11 12  1  0
 13 14  2  0
 13 15  1  0
 15 19  1  0
 15 16  1  0
 17 16  1  0
 18 17  1  0
 18 19  1  0
 19 20  1  1
 20 21  1  0
 22 20  2  0
M  END
$$$$
