VIC.pdb
     RDKit          3D

 22 21  0  0  1  0  0  0  0  0999 V2000
    7.1294  -18.6187   20.5577 C   0  0  0  0  0  0  0  0  0  0  0  0
    7.8132  -17.9101   21.7019 C   0  0  2  0  0  0  0  0  0  0  0  0
    7.1684  -18.3208   23.0073 C   0  0  0  0  0  0  0  0  0  0  0  0
    7.7384  -16.4283   21.6083 C   0  0  2  0  0  0  0  0  0  0  0  0
    8.2975  -15.8838   20.3978 N   0  0  0  0  0  0  0  0  0  0  0  0
    8.3009  -15.7104   22.7801 C   0  0  0  0  0  0  0  0  0  0  0  0
    9.5500  -15.5681   22.9399 O   0  0  0  0  0  0  0  0  0  0  0  0
    7.0135  -11.2709   26.9046 C   0  0  0  0  0  0  0  0  0  0  0  0
    7.8498  -12.4672   26.5068 C   0  0  0  0  0  0  0  0  0  0  0  0
    7.1815  -13.2622   25.3706 C   0  0  2  0  0  0  0  0  0  0  0  0
    5.7517  -13.5396   25.7710 C   0  0  0  0  0  0  0  0  0  0  0  0
    7.9728  -14.4213   24.9516 C   0  0  2  0  0  0  0  0  0  0  0  0
    7.4820  -15.1410   23.7969 N   0  0  0  0  0  0  0  0  0  0  0  0
    8.5604  -15.2945   25.9794 C   0  0  0  0  0  0  0  0  0  0  0  0
    7.9871  -16.2165   26.5966 O   0  0  0  0  0  0  0  0  0  0  0  0
    9.9413  -15.1110   26.3620 N   0  0  0  0  0  0  0  0  0  0  0  0
   10.6042  -15.9214   27.3342 C   0  0  1  0  0  0  0  0  0  0  0  0
   11.9318  -16.4751   26.9464 C   0  0  0  0  0  0  0  0  0  0  0  0
   12.5842  -17.7315   28.0292 S   0  0  0  0  0  0  0  0  0  0  0  0
   10.5872  -15.3450   28.7052 C   0  0  0  0  0  0  0  0  0  0  0  0
   10.2839  -14.1875   29.0201 O   0  0  0  0  0  0  0  0  0  0  0  0
   10.9498  -16.1978   29.7414 O   0  0  0  0  0  0  0  0  0  0  0  0
  2  1  1  6
  2  3  1  0
  4  2  1  0
  4  6  1  0
  4  5  1  6
  6 13  1  0
  6  7  2  0
  8  9  1  0
  9 10  1  0
 10 12  1  0
 10 11  1  1
 12 14  1  0
 12 13  1  6
 14 15  2  0
 16 14  1  0
 16 17  1  0
 17 20  1  0
 17 18  1  6
 19 18  1  0
 20 22  1  0
 21 20  2  0
M  END
$$$$
