VIC.pdb
     RDKit          3D

 22 21  0  0  1  0  0  0  0  0999 V2000
    7.0968  -13.2752   20.5493 C   0  0  0  0  0  0  0  0  0  0  0  0
    7.7075  -14.6298   20.2831 C   0  0  2  0  0  0  0  0  0  0  0  0
    7.0062  -15.2778   19.1097 C   0  0  0  0  0  0  0  0  0  0  0  0
    7.6077  -15.5602   21.4382 C   0  0  2  0  0  0  0  0  0  0  0  0
    6.2685  -16.0077   21.7224 N   0  0  0  0  0  0  0  0  0  0  0  0
    8.2374  -15.0590   22.6860 C   0  0  0  0  0  0  0  0  0  0  0  0
    9.4382  -14.6548   22.7126 O   0  0  0  0  0  0  0  0  0  0  0  0
    5.7069  -11.6571   25.8819 C   0  0  0  0  0  0  0  0  0  0  0  0
    6.6520  -12.5212   25.0763 C   0  0  0  0  0  0  0  0  0  0  0  0
    7.2958  -13.6108   25.9525 C   0  0  2  0  0  0  0  0  0  0  0  0
    7.9819  -12.9326   27.1148 C   0  0  0  0  0  0  0  0  0  0  0  0
    8.1110  -14.5492   25.1778 C   0  0  2  0  0  0  0  0  0  0  0  0
    7.5419  -15.0023   23.9276 N   0  0  0  0  0  0  0  0  0  0  0  0
    8.8696  -15.5910   25.8872 C   0  0  0  0  0  0  0  0  0  0  0  0
    8.4266  -16.3962   26.7328 O   0  0  0  0  0  0  0  0  0  0  0  0
   10.2819  -15.7441   25.6243 N   0  0  0  0  0  0  0  0  0  0  0  0
   10.9499  -17.0070   25.6170 C   0  0  1  0  0  0  0  0  0  0  0  0
   10.2832  -18.1089   24.8684 C   0  0  0  0  0  0  0  0  0  0  0  0
    9.1651  -19.1170   25.8225 S   0  0  0  0  0  0  0  0  0  0  0  0
   12.4086  -16.9105   25.3424 C   0  0  0  0  0  0  0  0  0  0  0  0
   13.2379  -17.8265   25.4050 O   0  0  0  0  0  0  0  0  0  0  0  0
   12.8894  -15.6586   24.9759 O   0  0  0  0  0  0  0  0  0  0  0  0
  2  1  1  1
  2  3  1  0
  4  2  1  0
  4  6  1  0
  4  5  1  1
  6 13  1  0
  6  7  2  0
  8  9  1  0
  9 10  1  0
 10 12  1  0
 10 11  1  1
 12 14  1  0
 12 13  1  6
 14 15  2  0
 16 14  1  0
 16 17  1  0
 17 20  1  0
 17 18  1  6
 19 18  1  0
 20 22  1  0
 21 20  2  0
M  END
$$$$
