VIC.pdb
     RDKit          3D

 22 21  0  0  1  0  0  0  0  0999 V2000
    5.1247  -19.2948   22.1961 C   0  0  0  0  0  0  0  0  0  0  0  0
    6.2159  -18.5542   22.9307 C   0  0  2  0  0  0  0  0  0  0  0  0
    6.1514  -18.8918   24.4040 C   0  0  0  0  0  0  0  0  0  0  0  0
    6.1171  -17.0765   22.8017 C   0  0  2  0  0  0  0  0  0  0  0  0
    6.0671  -16.6042   21.4420 N   0  0  0  0  0  0  0  0  0  0  0  0
    7.1568  -16.3245   23.5491 C   0  0  0  0  0  0  0  0  0  0  0  0
    8.3359  -16.1932   23.1039 O   0  0  0  0  0  0  0  0  0  0  0  0
    5.8304  -12.0338   26.4898 C   0  0  0  0  0  0  0  0  0  0  0  0
    6.7328  -12.8845   25.6234 C   0  0  0  0  0  0  0  0  0  0  0  0
    7.4579  -13.9565   26.4569 C   0  0  2  0  0  0  0  0  0  0  0  0
    8.5169  -13.2685   27.2856 C   0  0  0  0  0  0  0  0  0  0  0  0
    7.9058  -15.0926   25.6482 C   0  0  2  0  0  0  0  0  0  0  0  0
    6.9024  -15.7082   24.8077 N   0  0  0  0  0  0  0  0  0  0  0  0
    8.8518  -16.0561   26.2317 C   0  0  0  0  0  0  0  0  0  0  0  0
    8.6097  -16.9006   27.1194 O   0  0  0  0  0  0  0  0  0  0  0  0
   10.2221  -16.0717   25.7742 N   0  0  0  0  0  0  0  0  0  0  0  0
   11.1912  -17.0223   26.2200 C   0  0  1  0  0  0  0  0  0  0  0  0
   12.3549  -17.2588   25.3207 C   0  0  0  0  0  0  0  0  0  0  0  0
   13.5286  -18.4736   25.8894 S   0  0  0  0  0  0  0  0  0  0  0  0
   11.5769  -16.8586   27.6472 C   0  0  0  0  0  0  0  0  0  0  0  0
   11.3287  -15.8907   28.3769 O   0  0  0  0  0  0  0  0  0  0  0  0
   12.2908  -17.9044   28.2208 O   0  0  0  0  0  0  0  0  0  0  0  0
  2  1  1  6
  2  3  1  0
  4  2  1  0
  4  6  1  0
  4  5  1  6
  6 13  1  0
  6  7  2  0
  8  9  1  0
  9 10  1  0
 10 12  1  0
 10 11  1  6
 12 14  1  0
 12 13  1  1
 14 15  2  0
 16 14  1  0
 16 17  1  0
 17 20  1  0
 17 18  1  6
 19 18  1  0
 20 22  1  0
 21 20  2  0
M  END
$$$$
