VIC.pdb
     RDKit          3D

 22 21  0  0  1  0  0  0  0  0999 V2000
    6.7454  -16.4450   19.2908 C   0  0  0  0  0  0  0  0  0  0  0  0
    7.4078  -16.2750   20.6366 C   0  0  2  0  0  0  0  0  0  0  0  0
    6.7091  -17.1467   21.6567 C   0  0  0  0  0  0  0  0  0  0  0  0
    7.3737  -14.8764   21.1394 C   0  0  2  0  0  0  0  0  0  0  0  0
    7.8661  -13.8997   20.2025 N   0  0  0  0  0  0  0  0  0  0  0  0
    8.0371  -14.6804   22.4533 C   0  0  0  0  0  0  0  0  0  0  0  0
    9.2985  -14.6320   22.5642 O   0  0  0  0  0  0  0  0  0  0  0  0
    5.9083  -11.4094   26.1497 C   0  0  0  0  0  0  0  0  0  0  0  0
    6.9159  -12.1674   25.3136 C   0  0  0  0  0  0  0  0  0  0  0  0
    7.2268  -13.5446   25.9270 C   0  0  2  0  0  0  0  0  0  0  0  0
    7.9234  -13.3222   27.2487 C   0  0  0  0  0  0  0  0  0  0  0  0
    7.8976  -14.4434   24.9850 C   0  0  2  0  0  0  0  0  0  0  0  0
    7.3070  -14.5384   23.6680 N   0  0  0  0  0  0  0  0  0  0  0  0
    8.4387  -15.7196   25.4773 C   0  0  0  0  0  0  0  0  0  0  0  0
    7.7859  -16.7232   25.8329 O   0  0  0  0  0  0  0  0  0  0  0  0
    9.8692  -15.8886   25.5886 N   0  0  0  0  0  0  0  0  0  0  0  0
   10.4884  -17.1015   26.0208 C   0  0  1  0  0  0  0  0  0  0  0  0
   11.7418  -17.4963   25.3193 C   0  0  0  0  0  0  0  0  0  0  0  0
   12.2850  -19.1698   25.6039 S   0  0  0  0  0  0  0  0  0  0  0  0
   10.5778  -17.2334   27.4997 C   0  0  0  0  0  0  0  0  0  0  0  0
   10.3628  -16.3492   28.3380 O   0  0  0  0  0  0  0  0  0  0  0  0
   10.9403  -18.4825   27.9904 O   0  0  0  0  0  0  0  0  0  0  0  0
  2  1  1  6
  2  3  1  0
  4  2  1  0
  4  6  1  0
  4  5  1  6
  6 13  1  0
  6  7  2  0
  8  9  1  0
  9 10  1  0
 10 12  1  0
 10 11  1  1
 12 14  1  0
 12 13  1  6
 14 15  2  0
 16 14  1  0
 16 17  1  0
 17 20  1  0
 17 18  1  6
 19 18  1  0
 20 22  1  0
 21 20  2  0
M  END
$$$$
