MNV.pdb
     RDKit          3D

 24 23  0  0  1  0  0  0  0  0999 V2000
    8.6789  -11.6672   21.0960 C   0  0  0  0  0  0  0  0  0  0  0  0
    8.0108  -12.2405   19.5474 S   0  0  0  0  0  0  0  0  0  0  0  0
    8.2175  -14.0098   19.3476 C   0  0  0  0  0  0  0  0  0  0  0  0
    8.5060  -14.7074   20.6229 C   0  0  0  0  0  0  0  0  0  0  0  0
    8.8845  -16.1376   20.5599 C   0  0  2  0  0  0  0  0  0  0  0  0
    7.8823  -16.9677   19.9070 N   0  0  0  0  0  0  0  0  0  0  0  0
    9.0052  -16.6077   21.9923 C   0  0  0  0  0  0  0  0  0  0  0  0
    7.9894  -17.0504   22.5862 O   0  0  0  0  0  0  0  0  0  0  0  0
   13.3258  -18.0994   22.6635 N   0  0  0  0  0  0  0  0  0  0  0  0
   11.9270  -18.3781   22.8305 C   0  0  0  0  0  0  0  0  0  0  0  0
   11.2315  -18.8173   21.8858 O   0  0  0  0  0  0  0  0  0  0  0  0
   11.3244  -18.1301   24.1596 C   0  0  0  0  0  0  0  0  0  0  0  0
   10.2766  -17.0529   24.0591 C   0  0  2  0  0  0  0  0  0  0  0  0
   10.2271  -16.5678   22.6942 N   0  0  0  0  0  0  0  0  0  0  0  0
   10.6150  -15.9190   25.0010 C   0  0  0  0  0  0  0  0  0  0  0  0
   11.5124  -15.1697   24.5936 O   0  0  0  0  0  0  0  0  0  0  0  0
    7.7672  -14.7992   28.0728 C   0  0  0  0  0  0  0  0  0  0  0  0
    8.9805  -14.0076   27.6644 C   0  0  2  0  0  0  0  0  0  0  0  0
    8.6085  -13.0920   26.5179 C   0  0  0  0  0  0  0  0  0  0  0  0
   10.1825  -14.8693   27.3018 C   0  0  2  0  0  0  0  0  0  0  0  0
    9.9339  -15.7882   26.2099 N   0  0  0  0  0  0  0  0  0  0  0  0
   10.5805  -15.7181   28.4335 C   0  0  0  0  0  0  0  0  0  0  0  0
   10.2832  -16.9369   28.4247 O   0  0  0  0  0  0  0  0  0  0  0  0
   11.2745  -15.2249   29.5154 O   0  0  0  0  0  0  0  0  0  0  0  0
  1  2  1  0
  3  2  1  0
  4  3  1  0
  5  4  1  0
  5  6  1  6
  7  5  1  0
  8  7  2  0
  9 10  1  0
 10 12  1  0
 11 10  2  0
 13 12  1  6
 13 14  1  0
 14  7  1  0
 15 21  1  0
 15 13  1  0
 16 15  2  0
 18 17  1  6
 18 20  1  0
 19 18  1  0
 20 22  1  0
 20 21  1  6
 22 24  1  0
 23 22  2  0
M  END
$$$$
