MNV.pdb
     RDKit          3D

 24 23  0  0  1  0  0  0  0  0999 V2000
    8.6692  -11.6508   20.9655 C   0  0  0  0  0  0  0  0  0  0  0  0
    7.8399  -12.2149   19.4933 S   0  0  0  0  0  0  0  0  0  0  0  0
    8.0401  -13.9797   19.2515 C   0  0  0  0  0  0  0  0  0  0  0  0
    8.2971  -14.7123   20.5138 C   0  0  0  0  0  0  0  0  0  0  0  0
    8.6828  -16.1390   20.4204 C   0  0  2  0  0  0  0  0  0  0  0  0
    7.7058  -16.9518   19.7102 N   0  0  0  0  0  0  0  0  0  0  0  0
    8.7581  -16.6517   21.8413 C   0  0  0  0  0  0  0  0  0  0  0  0
    7.6971  -16.9260   22.4574 O   0  0  0  0  0  0  0  0  0  0  0  0
   10.1408  -20.3359   22.8761 N   0  0  0  0  0  0  0  0  0  0  0  0
   11.0212  -19.2021   22.9150 C   0  0  0  0  0  0  0  0  0  0  0  0
   11.8042  -18.9509   21.9702 O   0  0  0  0  0  0  0  0  0  0  0  0
   10.9782  -18.3314   24.1115 C   0  0  0  0  0  0  0  0  0  0  0  0
    9.9836  -17.2194   23.9058 C   0  0  2  0  0  0  0  0  0  0  0  0
    9.9864  -16.8353   22.5082 N   0  0  0  0  0  0  0  0  0  0  0  0
   10.3530  -16.0346   24.7703 C   0  0  0  0  0  0  0  0  0  0  0  0
   11.4178  -15.4871   24.4551 O   0  0  0  0  0  0  0  0  0  0  0  0
    7.6967  -13.2804   25.8641 C   0  0  0  0  0  0  0  0  0  0  0  0
    8.4004  -13.8173   27.0814 C   0  0  2  0  0  0  0  0  0  0  0  0
    8.6606  -12.6777   28.0430 C   0  0  0  0  0  0  0  0  0  0  0  0
    9.6888  -14.5652   26.7659 C   0  0  2  0  0  0  0  0  0  0  0  0
    9.5187  -15.6465   25.8171 N   0  0  0  0  0  0  0  0  0  0  0  0
   10.2378  -15.1980   27.9733 C   0  0  0  0  0  0  0  0  0  0  0  0
    9.9085  -16.3750   28.2566 O   0  0  0  0  0  0  0  0  0  0  0  0
   11.1087  -14.5446   28.8159 O   0  0  0  0  0  0  0  0  0  0  0  0
  1  2  1  0
  3  2  1  0
  4  3  1  0
  5  4  1  0
  5  6  1  6
  7  5  1  0
  8  7  2  0
  9 10  1  0
 10 12  1  0
 11 10  2  0
 13 12  1  6
 13 14  1  0
 14  7  1  0
 15 21  1  0
 15 13  1  0
 16 15  2  0
 18 17  1  6
 18 20  1  0
 19 18  1  0
 20 22  1  0
 20 21  1  6
 22 24  1  0
 23 22  2  0
M  END
$$$$
