MNV.pdb
     RDKit          3D

 24 23  0  0  1  0  0  0  0  0999 V2000
    8.6160  -11.4926   20.4463 C   0  0  0  0  0  0  0  0  0  0  0  0
    7.6783  -12.3590   19.2040 S   0  0  0  0  0  0  0  0  0  0  0  0
    8.1503  -14.0849   19.0972 C   0  0  0  0  0  0  0  0  0  0  0  0
    8.1010  -14.7814   20.4044 C   0  0  0  0  0  0  0  0  0  0  0  0
    8.5551  -16.1899   20.4563 C   0  0  2  0  0  0  0  0  0  0  0  0
    7.7066  -17.0944   19.6937 N   0  0  0  0  0  0  0  0  0  0  0  0
    8.4792  -16.6066   21.9083 C   0  0  0  0  0  0  0  0  0  0  0  0
    7.4202  -17.1201   22.3503 O   0  0  0  0  0  0  0  0  0  0  0  0
   12.4042  -18.3386   24.9136 N   0  0  0  0  0  0  0  0  0  0  0  0
   11.3710  -18.2521   23.9200 C   0  0  0  0  0  0  0  0  0  0  0  0
   11.6419  -18.2205   22.6975 O   0  0  0  0  0  0  0  0  0  0  0  0
    9.9659  -18.2009   24.3832 C   0  0  0  0  0  0  0  0  0  0  0  0
    9.4065  -16.8167   24.1847 C   0  0  2  0  0  0  0  0  0  0  0  0
    9.5628  -16.4388   22.7942 N   0  0  0  0  0  0  0  0  0  0  0  0
   10.1372  -15.8358   25.0743 C   0  0  0  0  0  0  0  0  0  0  0  0
   11.1989  -15.4115   24.5994 O   0  0  0  0  0  0  0  0  0  0  0  0
    7.7393  -13.7787   27.9432 C   0  0  0  0  0  0  0  0  0  0  0  0
    9.1039  -13.3434   27.4809 C   0  0  2  0  0  0  0  0  0  0  0  0
    8.9570  -12.5157   26.2222 C   0  0  0  0  0  0  0  0  0  0  0  0
   10.0745  -14.4961   27.2615 C   0  0  2  0  0  0  0  0  0  0  0  0
    9.6029  -15.4836   26.3125 N   0  0  0  0  0  0  0  0  0  0  0  0
   10.2973  -15.2398   28.5092 C   0  0  0  0  0  0  0  0  0  0  0  0
    9.7907  -16.3793   28.6467 O   0  0  0  0  0  0  0  0  0  0  0  0
   11.0478  -14.7314   29.5454 O   0  0  0  0  0  0  0  0  0  0  0  0
  1  2  1  0
  3  2  1  0
  4  3  1  0
  5  4  1  0
  5  6  1  6
  7  5  1  0
  8  7  2  0
  9 10  1  0
 10 12  1  0
 11 10  2  0
 13 12  1  6
 13 14  1  0
 14  7  1  0
 15 21  1  0
 15 13  1  0
 16 15  2  0
 18 17  1  6
 18 20  1  0
 19 18  1  0
 20 22  1  0
 20 21  1  6
 22 24  1  0
 23 22  2  0
M  END
$$$$
