MNV.pdb
     RDKit          3D

 24 23  0  0  1  0  0  0  0  0999 V2000
    9.2586  -12.0950   20.3559 C   0  0  0  0  0  0  0  0  0  0  0  0
    7.8559  -12.2729   19.2724 S   0  0  0  0  0  0  0  0  0  0  0  0
    7.1357  -13.9109   19.3795 C   0  0  0  0  0  0  0  0  0  0  0  0
    7.9673  -14.8601   20.1567 C   0  0  0  0  0  0  0  0  0  0  0  0
    7.4907  -16.2565   20.2819 C   0  0  2  0  0  0  0  0  0  0  0  0
    6.0409  -16.3625   20.3631 N   0  0  0  0  0  0  0  0  0  0  0  0
    8.0613  -16.7845   21.5793 C   0  0  0  0  0  0  0  0  0  0  0  0
    8.1101  -18.0255   21.7743 O   0  0  0  0  0  0  0  0  0  0  0  0
   10.6152  -16.6674   21.7664 N   0  0  0  0  0  0  0  0  0  0  0  0
   10.8516  -17.2800   23.0435 C   0  0  0  0  0  0  0  0  0  0  0  0
   12.0124  -17.5268   23.4443 O   0  0  0  0  0  0  0  0  0  0  0  0
    9.6772  -17.6149   23.8802 C   0  0  0  0  0  0  0  0  0  0  0  0
    8.7283  -16.4463   23.9302 C   0  0  2  0  0  0  0  0  0  0  0  0
    8.5457  -15.9282   22.5889 N   0  0  0  0  0  0  0  0  0  0  0  0
    9.2892  -15.3686   24.8310 C   0  0  0  0  0  0  0  0  0  0  0  0
   10.3965  -14.9389   24.4817 O   0  0  0  0  0  0  0  0  0  0  0  0
    6.4373  -13.5133   27.5296 C   0  0  0  0  0  0  0  0  0  0  0  0
    7.7097  -12.8774   27.0377 C   0  0  2  0  0  0  0  0  0  0  0  0
    7.4259  -12.1431   25.7449 C   0  0  0  0  0  0  0  0  0  0  0  0
    8.8592  -13.8605   26.8616 C   0  0  2  0  0  0  0  0  0  0  0  0
    8.5666  -14.9424   25.9440 N   0  0  0  0  0  0  0  0  0  0  0  0
    9.1888  -14.5165   28.1346 C   0  0  0  0  0  0  0  0  0  0  0  0
    8.8667  -15.7161   28.3116 O   0  0  0  0  0  0  0  0  0  0  0  0
    9.8443  -13.8612   29.1525 O   0  0  0  0  0  0  0  0  0  0  0  0
  1  2  1  0
  3  2  1  0
  4  3  1  0
  5  4  1  0
  5  6  1  1
  7  5  1  0
  8  7  2  0
  9 10  1  0
 10 12  1  0
 11 10  2  0
 13 12  1  6
 13 14  1  0
 14  7  1  0
 15 21  1  0
 15 13  1  0
 16 15  2  0
 18 17  1  6
 18 20  1  0
 19 18  1  0
 20 22  1  0
 20 21  1  6
 22 24  1  0
 23 22  2  0
M  END
$$$$
