MNV.pdb
     RDKit          3D

 24 23  0  0  1  0  0  0  0  0999 V2000
    9.1425  -12.0364   19.7939 C   0  0  0  0  0  0  0  0  0  0  0  0
    8.6870  -12.7014   18.2053 S   0  0  0  0  0  0  0  0  0  0  0  0
    8.6552  -14.4936   18.2184 C   0  0  0  0  0  0  0  0  0  0  0  0
    8.2065  -15.0559   19.5140 C   0  0  0  0  0  0  0  0  0  0  0  0
    8.1894  -16.5294   19.6608 C   0  0  2  0  0  0  0  0  0  0  0  0
    7.3058  -17.1900   18.7109 N   0  0  0  0  0  0  0  0  0  0  0  0
    7.6607  -16.8110   21.0496 C   0  0  0  0  0  0  0  0  0  0  0  0
    6.6859  -17.5916   21.1943 O   0  0  0  0  0  0  0  0  0  0  0  0
    8.7618  -19.3704   25.8025 N   0  0  0  0  0  0  0  0  0  0  0  0
    7.8509  -18.5041   25.1083 C   0  0  0  0  0  0  0  0  0  0  0  0
    6.7845  -18.1176   25.6396 O   0  0  0  0  0  0  0  0  0  0  0  0
    8.2090  -18.0769   23.7370 C   0  0  0  0  0  0  0  0  0  0  0  0
    7.7736  -16.6532   23.5090 C   0  0  2  0  0  0  0  0  0  0  0  0
    8.2258  -16.2246   22.2003 N   0  0  0  0  0  0  0  0  0  0  0  0
    8.3604  -15.7599   24.5791 C   0  0  0  0  0  0  0  0  0  0  0  0
    9.5972  -15.7044   24.5737 O   0  0  0  0  0  0  0  0  0  0  0  0
    5.5175  -12.9068   26.0270 C   0  0  0  0  0  0  0  0  0  0  0  0
    6.5854  -13.3548   26.9884 C   0  0  2  0  0  0  0  0  0  0  0  0
    6.9691  -12.1905   27.8763 C   0  0  0  0  0  0  0  0  0  0  0  0
    7.8134  -13.9467   26.3098 C   0  0  2  0  0  0  0  0  0  0  0  0
    7.5208  -15.0854   25.4637 N   0  0  0  0  0  0  0  0  0  0  0  0
    8.7738  -14.4451   27.3042 C   0  0  0  0  0  0  0  0  0  0  0  0
    8.6504  -15.6113   27.7501 O   0  0  0  0  0  0  0  0  0  0  0  0
    9.8155  -13.6759   27.7717 O   0  0  0  0  0  0  0  0  0  0  0  0
  1  2  1  0
  3  2  1  0
  4  3  1  0
  5  4  1  0
  5  6  1  6
  7  5  1  0
  8  7  2  0
  9 10  1  0
 10 12  1  0
 11 10  2  0
 13 12  1  1
 13 14  1  0
 14  7  1  0
 15 21  1  0
 15 13  1  0
 16 15  2  0
 18 17  1  6
 18 20  1  0
 19 18  1  0
 20 22  1  0
 20 21  1  6
 22 24  1  0
 23 22  2  0
M  END
$$$$
