MNV.pdb
     RDKit          3D

 24 23  0  0  1  0  0  0  0  0999 V2000
    8.7938  -11.4156   19.8082 C   0  0  0  0  0  0  0  0  0  0  0  0
    7.9316  -12.2239   18.4754 S   0  0  0  0  0  0  0  0  0  0  0  0
    8.2257  -13.9921   18.4681 C   0  0  0  0  0  0  0  0  0  0  0  0
    8.0373  -14.6166   19.7988 C   0  0  0  0  0  0  0  0  0  0  0  0
    8.3232  -16.0635   19.9317 C   0  0  2  0  0  0  0  0  0  0  0  0
    7.3649  -16.9043   19.2285 N   0  0  0  0  0  0  0  0  0  0  0  0
    8.2166  -16.3831   21.4061 C   0  0  0  0  0  0  0  0  0  0  0  0
    7.0890  -16.6236   21.9074 O   0  0  0  0  0  0  0  0  0  0  0  0
   10.9601  -19.3589   22.2404 N   0  0  0  0  0  0  0  0  0  0  0  0
    9.9585  -19.0227   23.2130 C   0  0  0  0  0  0  0  0  0  0  0  0
    8.9356  -19.7289   23.3675 O   0  0  0  0  0  0  0  0  0  0  0  0
   10.1692  -17.8094   24.0345 C   0  0  0  0  0  0  0  0  0  0  0  0
    9.1738  -16.7463   23.6507 C   0  0  2  0  0  0  0  0  0  0  0  0
    9.3461  -16.4217   22.2487 N   0  0  0  0  0  0  0  0  0  0  0  0
    9.3882  -15.5128   24.4992 C   0  0  0  0  0  0  0  0  0  0  0  0
   10.5001  -14.9863   24.3597 O   0  0  0  0  0  0  0  0  0  0  0  0
    6.1644  -13.0391   25.5010 C   0  0  0  0  0  0  0  0  0  0  0  0
    7.0104  -13.4601   26.6725 C   0  0  2  0  0  0  0  0  0  0  0  0
    7.1073  -12.3081   27.6496 C   0  0  0  0  0  0  0  0  0  0  0  0
    8.3955  -13.9578   26.2822 C   0  0  2  0  0  0  0  0  0  0  0  0
    8.3763  -15.0622   25.3451 N   0  0  0  0  0  0  0  0  0  0  0  0
    9.1216  -14.4637   27.4555 C   0  0  0  0  0  0  0  0  0  0  0  0
    8.9886  -15.6650   27.7921 O   0  0  0  0  0  0  0  0  0  0  0  0
    9.9514  -13.6643   28.2089 O   0  0  0  0  0  0  0  0  0  0  0  0
  1  2  1  0
  3  2  1  0
  4  3  1  0
  5  4  1  0
  5  6  1  6
  7  5  1  0
  8  7  2  0
  9 10  1  0
 10 12  1  0
 11 10  2  0
 13 12  1  1
 13 14  1  0
 14  7  1  0
 15 21  1  0
 15 13  1  0
 16 15  2  0
 18 17  1  6
 18 20  1  0
 19 18  1  0
 20 22  1  0
 20 21  1  6
 22 24  1  0
 23 22  2  0
M  END
$$$$
