MNV.pdb
     RDKit          3D

 24 23  0  0  1  0  0  0  0  0999 V2000
    8.7791  -11.7944   20.0922 C   0  0  0  0  0  0  0  0  0  0  0  0
    7.7206  -13.2092   19.8660 S   0  0  0  0  0  0  0  0  0  0  0  0
    7.6640  -14.2391   21.3321 C   0  0  0  0  0  0  0  0  0  0  0  0
    6.6535  -15.3194   21.2430 C   0  0  0  0  0  0  0  0  0  0  0  0
    6.4969  -16.2193   22.4086 C   0  0  2  0  0  0  0  0  0  0  0  0
    6.2057  -15.5095   23.6459 N   0  0  0  0  0  0  0  0  0  0  0  0
    7.8256  -16.9198   22.5849 C   0  0  0  0  0  0  0  0  0  0  0  0
    7.9432  -18.1213   22.2341 O   0  0  0  0  0  0  0  0  0  0  0  0
   10.3151  -15.9936   21.6819 N   0  0  0  0  0  0  0  0  0  0  0  0
   11.1446  -17.0884   22.1010 C   0  0  0  0  0  0  0  0  0  0  0  0
   12.0922  -17.4982   21.3918 O   0  0  0  0  0  0  0  0  0  0  0  0
   10.8470  -17.7247   23.4041 C   0  0  0  0  0  0  0  0  0  0  0  0
    9.7602  -16.9622   24.1153 C   0  0  2  0  0  0  0  0  0  0  0  0
    8.9493  -16.2693   23.1339 N   0  0  0  0  0  0  0  0  0  0  0  0
   10.3750  -15.9685   25.0754 C   0  0  0  0  0  0  0  0  0  0  0  0
   11.0411  -15.0790   24.5297 O   0  0  0  0  0  0  0  0  0  0  0  0
    8.1012  -14.7537   28.1863 C   0  0  0  0  0  0  0  0  0  0  0  0
    9.4274  -14.1527   27.8049 C   0  0  2  0  0  0  0  0  0  0  0  0
    9.2289  -13.2327   26.6194 C   0  0  0  0  0  0  0  0  0  0  0  0
   10.5087  -15.1849   27.5148 C   0  0  2  0  0  0  0  0  0  0  0  0
   10.1681  -16.1027   26.4472 N   0  0  0  0  0  0  0  0  0  0  0  0
   10.7510  -16.0355   28.6884 C   0  0  0  0  0  0  0  0  0  0  0  0
   10.3593  -17.2274   28.6775 O   0  0  0  0  0  0  0  0  0  0  0  0
   11.3978  -15.5728   29.8122 O   0  0  0  0  0  0  0  0  0  0  0  0
  1  2  1  0
  3  2  1  0
  4  3  1  0
  5  4  1  0
  5  6  1  1
  7  5  1  0
  8  7  2  0
  9 10  1  0
 10 12  1  0
 11 10  2  0
 13 12  1  6
 13 14  1  0
 14  7  1  0
 15 21  1  0
 15 13  1  0
 16 15  2  0
 18 17  1  6
 18 20  1  0
 19 18  1  0
 20 22  1  0
 20 21  1  6
 22 24  1  0
 23 22  2  0
M  END
$$$$
