LSC.pdb
     RDKit          3D

 21 20  0  0  1  0  0  0  0  0999 V2000
    6.0040  -11.9556   24.5189 C   0  0  0  0  0  0  0  0  0  0  0  0
    5.9831  -12.5957   25.9024 C   0  0  2  0  0  0  0  0  0  0  0  0
    6.3164  -11.5060   26.9134 C   0  0  0  0  0  0  0  0  0  0  0  0
    7.0832  -13.6203   25.9345 C   0  0  0  0  0  0  0  0  0  0  0  0
    6.8057  -14.8306   25.1583 C   0  0  2  0  0  0  0  0  0  0  0  0
    5.5667  -15.4568   25.5570 N   0  0  0  0  0  0  0  0  0  0  0  0
    7.8892  -15.8316   25.1147 C   0  0  0  0  0  0  0  0  0  0  0  0
    7.8692  -16.7170   26.0280 O   0  0  0  0  0  0  0  0  0  0  0  0
   11.2741  -15.3934   22.7135 O   0  0  0  0  0  0  0  0  0  0  0  0
   10.7572  -16.6509   22.8877 C   0  0  0  0  0  0  0  0  0  0  0  0
   10.0328  -16.8211   24.2310 C   0  0  2  0  0  0  0  0  0  0  0  0
    8.9208  -15.8951   24.1754 N   0  0  0  0  0  0  0  0  0  0  0  0
   10.9995  -16.4828   25.2870 C   0  0  0  0  0  0  0  0  0  0  0  0
   11.4720  -15.3334   25.3690 O   0  0  0  0  0  0  0  0  0  0  0  0
   11.3938  -17.4680   26.2139 N   0  0  0  0  0  0  0  0  0  0  0  0
   11.9782  -17.0509   27.4670 C   0  0  1  0  0  0  0  0  0  0  0  0
   10.9373  -16.3932   28.3642 C   0  0  0  0  0  0  0  0  0  0  0  0
   10.8496  -14.6087   28.0375 S   0  0  0  0  0  0  0  0  0  0  0  0
   12.4682  -18.2526   28.1784 C   0  0  0  0  0  0  0  0  0  0  0  0
   12.2305  -19.5433   27.7269 O   0  0  0  0  0  0  0  0  0  0  0  0
   13.1289  -18.1258   29.2370 O   0  0  0  0  0  0  0  0  0  0  0  0
  2  4  1  0
  2  3  1  1
  2  1  1  0
  5  7  1  0
  5  4  1  0
  5  6  1  1
  7  8  2  0
  9 10  1  0
 11 10  1  6
 12 11  1  0
 12  7  1  0
 13 14  2  0
 13 11  1  0
 15 13  1  0
 16 15  1  0
 16 19  1  0
 17 18  1  0
 16 17  1  1
 19 20  1  0
 21 19  2  0
M  END
$$$$
