LSC.pdb
     RDKit          3D

 21 20  0  0  1  0  0  0  0  0999 V2000
    8.6424  -13.7047   20.4439 C   0  0  0  0  0  0  0  0  0  0  0  0
    8.5632  -13.2530   18.9901 C   0  0  2  0  0  0  0  0  0  0  0  0
    7.5947  -12.0787   18.9301 C   0  0  0  0  0  0  0  0  0  0  0  0
    7.9736  -14.3905   18.2029 C   0  0  0  0  0  0  0  0  0  0  0  0
    8.7659  -15.6216   18.2324 C   0  0  2  0  0  0  0  0  0  0  0  0
    8.3447  -16.5604   17.2187 N   0  0  0  0  0  0  0  0  0  0  0  0
    8.8607  -16.2967   19.5412 C   0  0  0  0  0  0  0  0  0  0  0  0
    7.7562  -16.6017   20.0942 O   0  0  0  0  0  0  0  0  0  0  0  0
   12.4657  -17.6909   21.0036 O   0  0  0  0  0  0  0  0  0  0  0  0
   11.2903  -18.3560   21.2385 C   0  0  0  0  0  0  0  0  0  0  0  0
   10.0954  -17.4118   21.4352 C   0  0  2  0  0  0  0  0  0  0  0  0
   10.0359  -16.6269   20.2196 N   0  0  0  0  0  0  0  0  0  0  0  0
   10.3841  -16.5945   22.6238 C   0  0  0  0  0  0  0  0  0  0  0  0
   11.1006  -15.5797   22.5362 O   0  0  0  0  0  0  0  0  0  0  0  0
    9.8445  -16.9632   23.8721 N   0  0  0  0  0  0  0  0  0  0  0  0
   10.2460  -16.2282   25.0486 C   0  0  1  0  0  0  0  0  0  0  0  0
    9.1157  -15.3380   25.5500 C   0  0  0  0  0  0  0  0  0  0  0  0
    7.5099  -16.1546   25.3182 S   0  0  0  0  0  0  0  0  0  0  0  0
   10.5469  -17.1968   26.1262 C   0  0  0  0  0  0  0  0  0  0  0  0
   11.0970  -16.8208   27.3438 O   0  0  0  0  0  0  0  0  0  0  0  0
   10.3036  -18.4155   25.9565 O   0  0  0  0  0  0  0  0  0  0  0  0
  2  4  1  0
  2  3  1  1
  2  1  1  0
  5  7  1  0
  5  4  1  0
  5  6  1  6
  7  8  2  0
  9 10  1  0
 11 10  1  6
 12 11  1  0
 12  7  1  0
 13 14  2  0
 13 11  1  0
 15 13  1  0
 16 15  1  0
 16 19  1  0
 17 18  1  0
 16 17  1  1
 19 20  1  0
 21 19  2  0
M  END
$$$$
