LSC.pdb
     RDKit          3D

 21 20  0  0  1  0  0  0  0  0999 V2000
    9.5353  -13.3939   18.9138 C   0  0  0  0  0  0  0  0  0  0  0  0
    8.1197  -13.5728   19.4504 C   0  0  2  0  0  0  0  0  0  0  0  0
    7.5243  -12.1830   19.6368 C   0  0  0  0  0  0  0  0  0  0  0  0
    8.2355  -14.2207   20.8023 C   0  0  0  0  0  0  0  0  0  0  0  0
    8.6825  -15.6148   20.7690 C   0  0  2  0  0  0  0  0  0  0  0  0
    7.8081  -16.4444   19.9731 N   0  0  0  0  0  0  0  0  0  0  0  0
    8.9256  -16.2459   22.0806 C   0  0  0  0  0  0  0  0  0  0  0  0
    7.8908  -16.5401   22.7597 O   0  0  0  0  0  0  0  0  0  0  0  0
   12.7673  -17.1176   23.5703 O   0  0  0  0  0  0  0  0  0  0  0  0
   11.6896  -17.9294   23.8121 C   0  0  0  0  0  0  0  0  0  0  0  0
   10.3701  -17.1539   23.9364 C   0  0  2  0  0  0  0  0  0  0  0  0
   10.1709  -16.5455   22.6375 N   0  0  0  0  0  0  0  0  0  0  0  0
   10.5542  -16.1600   25.0053 C   0  0  0  0  0  0  0  0  0  0  0  0
   10.6842  -14.9520   24.7318 O   0  0  0  0  0  0  0  0  0  0  0  0
   10.5834  -16.5789   26.3502 N   0  0  0  0  0  0  0  0  0  0  0  0
   10.6633  -15.5791   27.3894 C   0  0  1  0  0  0  0  0  0  0  0  0
    9.3791  -14.7626   27.4631 C   0  0  0  0  0  0  0  0  0  0  0  0
    9.4108  -13.6523   28.9001 S   0  0  0  0  0  0  0  0  0  0  0  0
   10.8163  -16.2670   28.6907 C   0  0  0  0  0  0  0  0  0  0  0  0
   11.3201  -15.6369   29.8201 O   0  0  0  0  0  0  0  0  0  0  0  0
   10.4835  -17.4711   28.8037 O   0  0  0  0  0  0  0  0  0  0  0  0
  2  4  1  0
  2  3  1  1
  2  1  1  0
  5  7  1  0
  5  4  1  0
  5  6  1  1
  7  8  2  0
  9 10  1  0
 11 10  1  6
 12 11  1  0
 12  7  1  0
 13 14  2  0
 13 11  1  0
 15 13  1  0
 16 15  1  0
 16 19  1  0
 17 18  1  0
 16 17  1  1
 19 20  1  0
 21 19  2  0
M  END
$$$$
