LSC.pdb
     RDKit          3D

 21 20  0  0  1  0  0  0  0  0999 V2000
    9.6070  -13.1838   19.2399 C   0  0  0  0  0  0  0  0  0  0  0  0
    8.1408  -13.4860   18.9519 C   0  0  2  0  0  0  0  0  0  0  0  0
    7.4416  -12.1552   18.7049 C   0  0  0  0  0  0  0  0  0  0  0  0
    7.5607  -14.0988   20.1964 C   0  0  0  0  0  0  0  0  0  0  0  0
    8.1394  -15.3941   20.5594 C   0  0  2  0  0  0  0  0  0  0  0  0
    7.7574  -16.4356   19.6346 N   0  0  0  0  0  0  0  0  0  0  0  0
    7.9075  -15.8380   21.9476 C   0  0  0  0  0  0  0  0  0  0  0  0
    6.7264  -16.2237   22.2212 O   0  0  0  0  0  0  0  0  0  0  0  0
   10.7846  -17.0888   24.5421 O   0  0  0  0  0  0  0  0  0  0  0  0
    9.4511  -17.3454   24.7286 C   0  0  0  0  0  0  0  0  0  0  0  0
    8.5539  -16.1538   24.3637 C   0  0  2  0  0  0  0  0  0  0  0  0
    8.8530  -15.8728   22.9749 N   0  0  0  0  0  0  0  0  0  0  0  0
    8.9247  -15.0463   25.2583 C   0  0  0  0  0  0  0  0  0  0  0  0
    9.9196  -14.3389   25.0123 O   0  0  0  0  0  0  0  0  0  0  0  0
    8.1467  -14.7839   26.4034 N   0  0  0  0  0  0  0  0  0  0  0  0
    8.5731  -13.7453   27.3118 C   0  0  1  0  0  0  0  0  0  0  0  0
    7.3807  -12.9600   27.8437 C   0  0  0  0  0  0  0  0  0  0  0  0
    6.1951  -12.6195   26.5106 S   0  0  0  0  0  0  0  0  0  0  0  0
    9.2289  -14.3813   28.4760 C   0  0  0  0  0  0  0  0  0  0  0  0
    9.3242  -15.7577   28.6267 O   0  0  0  0  0  0  0  0  0  0  0  0
    9.7277  -13.6677   29.3789 O   0  0  0  0  0  0  0  0  0  0  0  0
  2  4  1  0
  2  3  1  1
  2  1  1  0
  5  7  1  0
  5  4  1  0
  5  6  1  6
  7  8  2  0
  9 10  1  0
 11 10  1  1
 12 11  1  0
 12  7  1  0
 13 14  2  0
 13 11  1  0
 15 13  1  0
 16 15  1  0
 16 19  1  0
 17 18  1  0
 16 17  1  1
 19 20  1  0
 21 19  2  0
M  END
$$$$
