LSC.pdb
     RDKit          3D

 21 20  0  0  1  0  0  0  0  0999 V2000
    5.3445  -11.8623   25.7505 C   0  0  0  0  0  0  0  0  0  0  0  0
    6.1878  -12.7022   26.7032 C   0  0  2  0  0  0  0  0  0  0  0  0
    7.0099  -11.7407   27.5519 C   0  0  0  0  0  0  0  0  0  0  0  0
    7.1332  -13.5140   25.8617 C   0  0  0  0  0  0  0  0  0  0  0  0
    6.4999  -14.6108   25.1269 C   0  0  2  0  0  0  0  0  0  0  0  0
    5.6018  -15.3740   25.9620 N   0  0  0  0  0  0  0  0  0  0  0  0
    7.4144  -15.5166   24.4050 C   0  0  0  0  0  0  0  0  0  0  0  0
    7.7576  -16.5740   25.0237 O   0  0  0  0  0  0  0  0  0  0  0  0
    9.3609  -14.3406   20.9498 O   0  0  0  0  0  0  0  0  0  0  0  0
    9.0217  -15.6650   21.0499 C   0  0  0  0  0  0  0  0  0  0  0  0
    8.9403  -16.1554   22.5028 C   0  0  2  0  0  0  0  0  0  0  0  0
    7.9310  -15.3219   23.1221 N   0  0  0  0  0  0  0  0  0  0  0  0
   10.2733  -15.9664   23.0959 C   0  0  0  0  0  0  0  0  0  0  0  0
   10.6571  -14.8339   23.4440 O   0  0  0  0  0  0  0  0  0  0  0  0
   11.1226  -17.0767   23.2720 N   0  0  0  0  0  0  0  0  0  0  0  0
   12.4336  -16.8672   23.8404 C   0  0  1  0  0  0  0  0  0  0  0  0
   12.7952  -17.9861   24.8093 C   0  0  0  0  0  0  0  0  0  0  0  0
   11.6582  -17.9958   26.2256 S   0  0  0  0  0  0  0  0  0  0  0  0
   13.4295  -16.9011   22.7463 C   0  0  0  0  0  0  0  0  0  0  0  0
   14.7874  -16.7073   22.9586 O   0  0  0  0  0  0  0  0  0  0  0  0
   13.0557  -17.1121   21.5677 O   0  0  0  0  0  0  0  0  0  0  0  0
  2  4  1  0
  2  3  1  1
  2  1  1  0
  5  7  1  0
  5  4  1  0
  5  6  1  1
  7  8  2  0
  9 10  1  0
 11 10  1  6
 12 11  1  0
 12  7  1  0
 13 14  2  0
 13 11  1  0
 15 13  1  0
 16 15  1  0
 16 19  1  0
 17 18  1  0
 16 17  1  1
 19 20  1  0
 21 19  2  0
M  END
$$$$
