LSC.pdb
     RDKit          3D

 21 20  0  0  1  0  0  0  0  0999 V2000
    9.4891  -13.6349   19.6457 C   0  0  0  0  0  0  0  0  0  0  0  0
    8.0381  -13.7485   19.1923 C   0  0  2  0  0  0  0  0  0  0  0  0
    7.5592  -12.3453   18.8422 C   0  0  0  0  0  0  0  0  0  0  0  0
    7.2416  -14.2377   20.3701 C   0  0  0  0  0  0  0  0  0  0  0  0
    7.7723  -15.4493   20.9983 C   0  0  2  0  0  0  0  0  0  0  0  0
    7.4166  -16.6404   20.2627 N   0  0  0  0  0  0  0  0  0  0  0  0
    7.4587  -15.6244   22.4297 C   0  0  0  0  0  0  0  0  0  0  0  0
    6.3524  -15.1347   22.8235 O   0  0  0  0  0  0  0  0  0  0  0  0
    9.4022  -18.2947   24.8526 O   0  0  0  0  0  0  0  0  0  0  0  0
    8.1470  -17.8327   25.1527 C   0  0  0  0  0  0  0  0  0  0  0  0
    7.9502  -16.3530   24.7924 C   0  0  2  0  0  0  0  0  0  0  0  0
    8.2544  -16.2694   23.3790 N   0  0  0  0  0  0  0  0  0  0  0  0
    8.8887  -15.5800   25.6207 C   0  0  0  0  0  0  0  0  0  0  0  0
   10.0840  -15.4700   25.2890 O   0  0  0  0  0  0  0  0  0  0  0  0
    8.4305  -14.9586   26.7993 N   0  0  0  0  0  0  0  0  0  0  0  0
    9.3680  -14.2051   27.5987 C   0  0  1  0  0  0  0  0  0  0  0  0
    8.6465  -13.1914   28.4780 C   0  0  0  0  0  0  0  0  0  0  0  0
    7.4295  -12.2563   27.5068 S   0  0  0  0  0  0  0  0  0  0  0  0
   10.0716  -15.1418   28.5029 C   0  0  0  0  0  0  0  0  0  0  0  0
   11.1484  -14.7606   29.2914 O   0  0  0  0  0  0  0  0  0  0  0  0
    9.6981  -16.3368   28.5779 O   0  0  0  0  0  0  0  0  0  0  0  0
  2  4  1  0
  2  3  1  1
  2  1  1  0
  5  7  1  0
  5  4  1  0
  5  6  1  6
  7  8  2  0
  9 10  1  0
 11 10  1  1
 12 11  1  0
 12  7  1  0
 13 14  2  0
 13 11  1  0
 15 13  1  0
 16 15  1  0
 16 19  1  0
 17 18  1  0
 16 17  1  1
 19 20  1  0
 21 19  2  0
M  END
$$$$
