LSC.pdb
     RDKit          3D

 21 20  0  0  1  0  0  0  0  0999 V2000
    9.2209  -13.5021   18.9297 C   0  0  0  0  0  0  0  0  0  0  0  0
    7.8221  -13.5976   19.5282 C   0  0  2  0  0  0  0  0  0  0  0  0
    7.3170  -12.1753   19.7349 C   0  0  0  0  0  0  0  0  0  0  0  0
    7.9593  -14.2492   20.8764 C   0  0  0  0  0  0  0  0  0  0  0  0
    8.3628  -15.6561   20.8304 C   0  0  2  0  0  0  0  0  0  0  0  0
    7.4132  -16.4678   20.1053 N   0  0  0  0  0  0  0  0  0  0  0  0
    8.6755  -16.2804   22.1305 C   0  0  0  0  0  0  0  0  0  0  0  0
    7.6774  -16.5967   22.8532 O   0  0  0  0  0  0  0  0  0  0  0  0
   12.6166  -17.0502   23.5801 O   0  0  0  0  0  0  0  0  0  0  0  0
   11.5434  -17.8812   23.7716 C   0  0  0  0  0  0  0  0  0  0  0  0
   10.2188  -17.1222   23.9373 C   0  0  2  0  0  0  0  0  0  0  0  0
    9.9497  -16.5521   22.6336 N   0  0  0  0  0  0  0  0  0  0  0  0
   10.4366  -16.0973   24.9699 C   0  0  0  0  0  0  0  0  0  0  0  0
   10.5753  -14.9004   24.6553 O   0  0  0  0  0  0  0  0  0  0  0  0
   10.4881  -16.4737   26.3267 N   0  0  0  0  0  0  0  0  0  0  0  0
   10.5929  -15.4420   27.3319 C   0  0  1  0  0  0  0  0  0  0  0  0
    9.3105  -14.6233   27.4117 C   0  0  0  0  0  0  0  0  0  0  0  0
    9.4250  -13.3858   28.7363 S   0  0  0  0  0  0  0  0  0  0  0  0
   10.7780  -16.0891   28.6499 C   0  0  0  0  0  0  0  0  0  0  0  0
   11.2110  -15.3982   29.7731 O   0  0  0  0  0  0  0  0  0  0  0  0
   10.5402  -17.3134   28.7836 O   0  0  0  0  0  0  0  0  0  0  0  0
  2  4  1  0
  2  3  1  1
  2  1  1  0
  5  7  1  0
  5  4  1  0
  5  6  1  1
  7  8  2  0
  9 10  1  0
 11 10  1  6
 12 11  1  0
 12  7  1  0
 13 14  2  0
 13 11  1  0
 15 13  1  0
 16 15  1  0
 16 19  1  0
 17 18  1  0
 16 17  1  1
 19 20  1  0
 21 19  2  0
M  END
$$$$
