VYH.pdb
     RDKit          3D

 30 31  0  0  1  0  0  0  0  0999 V2000
   20.1391  -11.1398    5.1014 C   0  0  0  0  0  0  0  0  0  0  0  0
   19.5367  -12.1653    6.0751 C   0  0  2  0  0  0  0  0  0  0  0  0
   20.6997  -12.9330    6.6389 C   0  0  0  0  0  0  0  0  0  0  0  0
   18.6230  -13.0229    5.2243 C   0  0  2  0  0  0  0  0  0  0  0  0
   17.4961  -12.1331    4.8786 N   0  0  0  0  0  0  0  0  0  0  0  0
   18.0529  -14.1746    5.9454 C   0  0  0  0  0  0  0  0  0  0  0  0
   17.2427  -13.9660    6.8723 O   0  0  0  0  0  0  0  0  0  0  0  0
   16.8920  -19.4233    0.7024 O   0  0  0  0  0  0  0  0  0  0  0  0
   16.8379  -18.9099    1.9871 C   0  0  0  0  0  0  0  0  0  0  0  0
   17.1011  -19.6874    3.0930 C   0  0  0  0  0  0  0  0  0  0  0  0
   17.0483  -19.1823    4.3677 C   0  0  0  0  0  0  0  0  0  0  0  0
   16.7214  -17.8401    4.6094 C   0  0  0  0  0  0  0  0  0  0  0  0
   16.6896  -17.3389    6.0171 C   0  0  0  0  0  0  0  0  0  0  0  0
   17.9953  -16.6738    6.4234 C   0  0  2  0  0  0  0  0  0  0  0  0
   18.3635  -15.5347    5.6567 N   0  0  0  0  0  0  0  0  0  0  0  0
   19.0759  -17.6295    6.7087 C   0  0  0  0  0  0  0  0  0  0  0  0
   19.8978  -17.9610    5.8153 O   0  0  0  0  0  0  0  0  0  0  0  0
   16.4617  -17.0762    3.5011 C   0  0  0  0  0  0  0  0  0  0  0  0
   16.5162  -17.5936    2.2040 C   0  0  0  0  0  0  0  0  0  0  0  0
   19.2687  -18.2358    7.9836 N   0  0  0  0  0  0  0  0  0  0  0  0
   20.1852  -19.3264    8.2088 C   0  0  1  0  0  0  0  0  0  0  0  0
   21.5936  -18.8441    7.9042 C   0  0  0  0  0  0  0  0  0  0  0  0
   21.9017  -17.6231    8.6991 C   0  0  0  0  0  0  0  0  0  0  0  0
   21.0338  -16.9171    9.5084 C   0  0  0  0  0  0  0  0  0  0  0  0
   21.7275  -15.8904   10.0315 N   0  0  0  0  0  0  0  0  0  0  0  0
   23.0038  -15.9349    9.5720 C   0  0  0  0  0  0  0  0  0  0  0  0
   23.0945  -16.9931    8.7635 N   0  0  0  0  0  0  0  0  0  0  0  0
   20.1215  -19.8345    9.5867 C   0  0  0  0  0  0  0  0  0  0  0  0
   20.9031  -20.7473    9.9540 O   0  0  0  0  0  0  0  0  0  0  0  0
   19.2250  -19.3457   10.5144 O   0  0  0  0  0  0  0  0  0  0  0  0
  2  4  1  0
  2  3  1  6
  2  1  1  0
  4  5  1  1
  6  4  1  0
  6  7  2  0
  8  9  1  0
  9 19  2  0
  9 10  1  0
 10 11  2  0
 11 12  1  0
 12 13  1  0
 14 13  1  6
 14 15  1  0
 15  6  1  0
 16 14  1  0
 16 20  1  0
 17 16  2  0
 18 12  2  0
 19 18  1  0
 21 20  1  0
 21 28  1  0
 22 23  1  0
 21 22  1  1
 23 27  1  0
 24 25  1  0
 24 23  2  0
 25 26  1  0
 26 27  2  0
 28 29  2  0
 28 30  1  0
M  END
$$$$
