VYH.pdb
     RDKit          3D

 30 31  0  0  1  0  0  0  0  0999 V2000
   19.3463  -14.5577  -17.6884 C   0  0  0  0  0  0  0  0  0  0  0  0
   18.0674  -14.8138  -18.5016 C   0  0  2  0  0  0  0  0  0  0  0  0
   17.9824  -16.3039  -18.6806 C   0  0  0  0  0  0  0  0  0  0  0  0
   18.2797  -14.0760  -19.8074 C   0  0  2  0  0  0  0  0  0  0  0  0
   19.5023  -14.6770  -20.3776 N   0  0  0  0  0  0  0  0  0  0  0  0
   18.5501  -12.6377  -19.6361 C   0  0  0  0  0  0  0  0  0  0  0  0
   19.7216  -12.2651  -19.4170 O   0  0  0  0  0  0  0  0  0  0  0  0
   17.7499   -3.7658  -19.3530 O   0  0  0  0  0  0  0  0  0  0  0  0
   17.5208   -5.1136  -19.5715 C   0  0  0  0  0  0  0  0  0  0  0  0
   16.4974   -5.7887  -18.9441 C   0  0  0  0  0  0  0  0  0  0  0  0
   16.2672   -7.1245  -19.1579 C   0  0  0  0  0  0  0  0  0  0  0  0
   17.0681   -7.8737  -20.0320 C   0  0  0  0  0  0  0  0  0  0  0  0
   16.7662   -9.3230  -20.2372 C   0  0  0  0  0  0  0  0  0  0  0  0
   17.7452  -10.2267  -19.5045 C   0  0  2  0  0  0  0  0  0  0  0  0
   17.5542  -11.6212  -19.7042 N   0  0  0  0  0  0  0  0  0  0  0  0
   18.0044   -9.8085  -18.1186 C   0  0  0  0  0  0  0  0  0  0  0  0
   17.3327  -10.2805  -17.1650 O   0  0  0  0  0  0  0  0  0  0  0  0
   18.0831   -7.1909  -20.6508 C   0  0  0  0  0  0  0  0  0  0  0  0
   18.3151   -5.8304  -20.4308 C   0  0  0  0  0  0  0  0  0  0  0  0
   19.0084   -8.8629  -17.7609 N   0  0  0  0  0  0  0  0  0  0  0  0
   19.2963   -8.4950  -16.3964 C   0  0  1  0  0  0  0  0  0  0  0  0
   20.0683   -9.6292  -15.7433 C   0  0  0  0  0  0  0  0  0  0  0  0
   20.4425   -9.2605  -14.3499 C   0  0  0  0  0  0  0  0  0  0  0  0
   19.6236   -9.2735  -13.2381 C   0  0  0  0  0  0  0  0  0  0  0  0
   20.3684   -8.8695  -12.1935 N   0  0  0  0  0  0  0  0  0  0  0  0
   21.6290   -8.6046  -12.6211 C   0  0  0  0  0  0  0  0  0  0  0  0
   21.6587   -8.8468  -13.9334 N   0  0  0  0  0  0  0  0  0  0  0  0
   20.0715   -7.2495  -16.3050 C   0  0  0  0  0  0  0  0  0  0  0  0
   20.1195   -6.6203  -15.2183 O   0  0  0  0  0  0  0  0  0  0  0  0
   20.7631   -6.7284  -17.3790 O   0  0  0  0  0  0  0  0  0  0  0  0
  2  4  1  0
  2  3  1  6
  2  1  1  0
  4  5  1  1
  6  4  1  0
  6  7  2  0
  8  9  1  0
  9 19  2  0
  9 10  1  0
 10 11  2  0
 11 12  1  0
 12 13  1  0
 14 13  1  1
 14 15  1  0
 15  6  1  0
 16 14  1  0
 16 20  1  0
 17 16  2  0
 18 12  2  0
 19 18  1  0
 21 20  1  0
 21 28  1  0
 22 23  1  0
 21 22  1  6
 23 27  1  0
 24 25  1  0
 24 23  2  0
 25 26  1  0
 26 27  2  0
 28 29  2  0
 28 30  1  0
M  END
$$$$
