VYH.pdb
     RDKit          3D

 30 31  0  0  1  0  0  0  0  0999 V2000
   26.9583  -35.8217   -3.7843 C   0  0  0  0  0  0  0  0  0  0  0  0
   25.4385  -35.6495   -3.6316 C   0  0  2  0  0  0  0  0  0  0  0  0
   24.8135  -36.6186   -4.5958 C   0  0  0  0  0  0  0  0  0  0  0  0
   25.1703  -34.2035   -3.9944 C   0  0  2  0  0  0  0  0  0  0  0  0
   25.6676  -34.0708   -5.3787 N   0  0  0  0  0  0  0  0  0  0  0  0
   25.9245  -33.2389   -3.1747 C   0  0  0  0  0  0  0  0  0  0  0  0
   26.5023  -32.2874   -3.7402 O   0  0  0  0  0  0  0  0  0  0  0  0
   20.5649  -30.2824    0.5625 O   0  0  0  0  0  0  0  0  0  0  0  0
   21.8801  -30.4340    0.1577 C   0  0  0  0  0  0  0  0  0  0  0  0
   22.2134  -30.6812   -1.1555 C   0  0  0  0  0  0  0  0  0  0  0  0
   23.5157  -30.8321   -1.5606 C   0  0  0  0  0  0  0  0  0  0  0  0
   24.5794  -30.7415   -0.6512 C   0  0  0  0  0  0  0  0  0  0  0  0
   25.9799  -30.9024   -1.1478 C   0  0  0  0  0  0  0  0  0  0  0  0
   26.5283  -32.2967   -0.8887 C   0  0  2  0  0  0  0  0  0  0  0  0
   26.0446  -33.3131   -1.7570 N   0  0  0  0  0  0  0  0  0  0  0  0
   26.5858  -32.6483    0.5381 C   0  0  0  0  0  0  0  0  0  0  0  0
   25.8242  -33.5275    1.0181 O   0  0  0  0  0  0  0  0  0  0  0  0
   24.2355  -30.4949    0.6528 C   0  0  0  0  0  0  0  0  0  0  0  0
   22.9080  -30.3418    1.0622 C   0  0  0  0  0  0  0  0  0  0  0  0
   27.4839  -32.0365    1.4597 N   0  0  0  0  0  0  0  0  0  0  0  0
   27.5373  -32.3832    2.8586 C   0  0  1  0  0  0  0  0  0  0  0  0
   26.2787  -33.1578    3.2123 C   0  0  0  0  0  0  0  0  0  0  0  0
   26.2744  -33.4965    4.6623 C   0  0  0  0  0  0  0  0  0  0  0  0
   26.6581  -32.6802    5.7079 C   0  0  0  0  0  0  0  0  0  0  0  0
   26.4940  -33.3856    6.8413 N   0  0  0  0  0  0  0  0  0  0  0  0
   26.0188  -34.6191    6.5335 C   0  0  0  0  0  0  0  0  0  0  0  0
   25.8905  -34.6717    5.2059 N   0  0  0  0  0  0  0  0  0  0  0  0
   28.7236  -33.1850    3.1908 C   0  0  0  0  0  0  0  0  0  0  0  0
   29.2046  -33.9739    2.3392 O   0  0  0  0  0  0  0  0  0  0  0  0
   29.3463  -33.1101    4.4196 O   0  0  0  0  0  0  0  0  0  0  0  0
  2  4  1  0
  2  3  1  6
  2  1  1  0
  4  5  1  6
  6  4  1  0
  6  7  2  0
  8  9  1  0
  9 19  2  0
  9 10  1  0
 10 11  2  0
 11 12  1  0
 12 13  1  0
 14 13  1  1
 14 15  1  0
 15  6  1  0
 16 14  1  0
 16 20  1  0
 17 16  2  0
 18 12  2  0
 19 18  1  0
 21 20  1  0
 21 28  1  0
 22 23  1  0
 21 22  1  6
 23 27  1  0
 24 25  1  0
 24 23  2  0
 25 26  1  0
 26 27  2  0
 28 29  2  0
 28 30  1  0
M  END
$$$$
