VYH.pdb
     RDKit          3D

 30 31  0  0  1  0  0  0  0  0999 V2000
   21.8460  -11.0052  -21.7075 C   0  0  0  0  0  0  0  0  0  0  0  0
   21.4131  -10.7519  -20.2546 C   0  0  2  0  0  0  0  0  0  0  0  0
   20.3845   -9.6574  -20.3143 C   0  0  0  0  0  0  0  0  0  0  0  0
   22.6789  -10.3307  -19.5370 C   0  0  2  0  0  0  0  0  0  0  0  0
   23.5222  -11.5431  -19.5315 N   0  0  0  0  0  0  0  0  0  0  0  0
   22.4624   -9.9539  -18.1291 C   0  0  0  0  0  0  0  0  0  0  0  0
   22.3621  -10.8554  -17.2710 O   0  0  0  0  0  0  0  0  0  0  0  0
   27.8228  -10.9730  -15.4531 O   0  0  0  0  0  0  0  0  0  0  0  0
   26.7153  -10.1434  -15.4960 C   0  0  0  0  0  0  0  0  0  0  0  0
   25.6790  -10.2661  -14.5972 C   0  0  0  0  0  0  0  0  0  0  0  0
   24.5797   -9.4459  -14.6365 C   0  0  0  0  0  0  0  0  0  0  0  0
   24.4558   -8.4349  -15.6005 C   0  0  0  0  0  0  0  0  0  0  0  0
   23.2426   -7.5621  -15.5909 C   0  0  0  0  0  0  0  0  0  0  0  0
   22.0752   -8.1870  -16.3385 C   0  0  2  0  0  0  0  0  0  0  0  0
   22.3580   -8.6107  -17.6657 N   0  0  0  0  0  0  0  0  0  0  0  0
   20.8072   -7.4654  -16.1539 C   0  0  0  0  0  0  0  0  0  0  0  0
   20.6096   -6.3537  -16.7093 O   0  0  0  0  0  0  0  0  0  0  0  0
   25.4934   -8.3222  -16.4893 C   0  0  0  0  0  0  0  0  0  0  0  0
   26.6117   -9.1593  -16.4468 C   0  0  0  0  0  0  0  0  0  0  0  0
   19.7357   -7.9573  -15.3538 N   0  0  0  0  0  0  0  0  0  0  0  0
   18.4558   -7.2995  -15.2573 C   0  0  1  0  0  0  0  0  0  0  0  0
   17.5506   -8.1332  -14.3660 C   0  0  0  0  0  0  0  0  0  0  0  0
   17.1027   -9.3558  -15.0885 C   0  0  0  0  0  0  0  0  0  0  0  0
   17.4134   -9.7161  -16.3848 C   0  0  0  0  0  0  0  0  0  0  0  0
   16.8001  -10.8883  -16.6274 N   0  0  0  0  0  0  0  0  0  0  0  0
   16.1153  -11.2705  -15.5196 C   0  0  0  0  0  0  0  0  0  0  0  0
   16.3087  -10.3294  -14.5930 N   0  0  0  0  0  0  0  0  0  0  0  0
   18.5669   -5.9371  -14.7167 C   0  0  0  0  0  0  0  0  0  0  0  0
   19.3262   -5.7106  -13.7414 O   0  0  0  0  0  0  0  0  0  0  0  0
   17.8617   -4.8737  -15.2412 O   0  0  0  0  0  0  0  0  0  0  0  0
  2  4  1  0
  2  3  1  6
  2  1  1  0
  4  5  1  1
  6  4  1  0
  6  7  2  0
  8  9  1  0
  9 19  2  0
  9 10  1  0
 10 11  2  0
 11 12  1  0
 12 13  1  0
 14 13  1  6
 14 15  1  0
 15  6  1  0
 16 14  1  0
 16 20  1  0
 17 16  2  0
 18 12  2  0
 19 18  1  0
 21 20  1  0
 21 28  1  0
 22 23  1  0
 21 22  1  1
 23 27  1  0
 24 25  1  0
 24 23  2  0
 25 26  1  0
 26 27  2  0
 28 29  2  0
 28 30  1  0
M  END
$$$$
