VYH.pdb
     RDKit          3D

 30 31  0  0  1  0  0  0  0  0999 V2000
   30.2970  -24.0186  -19.6274 C   0  0  0  0  0  0  0  0  0  0  0  0
   28.9232  -23.7677  -18.9852 C   0  0  2  0  0  0  0  0  0  0  0  0
   28.5363  -22.3670  -19.3699 C   0  0  0  0  0  0  0  0  0  0  0  0
   29.1524  -23.9266  -17.4964 C   0  0  2  0  0  0  0  0  0  0  0  0
   29.3862  -25.3729  -17.3101 N   0  0  0  0  0  0  0  0  0  0  0  0
   27.9796  -23.5738  -16.6771 C   0  0  0  0  0  0  0  0  0  0  0  0
   27.0456  -24.3960  -16.5737 O   0  0  0  0  0  0  0  0  0  0  0  0
   22.5274  -20.1359  -10.6279 O   0  0  0  0  0  0  0  0  0  0  0  0
   23.6329  -20.4010  -11.4181 C   0  0  0  0  0  0  0  0  0  0  0  0
   23.9859  -19.5876  -12.4719 C   0  0  0  0  0  0  0  0  0  0  0  0
   25.0807  -19.8471  -13.2574 C   0  0  0  0  0  0  0  0  0  0  0  0
   25.9001  -20.9611  -13.0246 C   0  0  0  0  0  0  0  0  0  0  0  0
   27.0870  -21.1905  -13.9035 C   0  0  0  0  0  0  0  0  0  0  0  0
   26.7282  -21.9452  -15.1738 C   0  0  2  0  0  0  0  0  0  0  0  0
   27.8305  -22.3403  -15.9800 N   0  0  0  0  0  0  0  0  0  0  0  0
   25.5827  -21.3694  -15.8941 C   0  0  0  0  0  0  0  0  0  0  0  0
   25.5857  -20.1636  -16.2540 O   0  0  0  0  0  0  0  0  0  0  0  0
   25.5389  -21.7631  -11.9730 C   0  0  0  0  0  0  0  0  0  0  0  0
   24.4232  -21.4962  -11.1749 C   0  0  0  0  0  0  0  0  0  0  0  0
   24.4147  -22.1132  -16.2298 N   0  0  0  0  0  0  0  0  0  0  0  0
   23.1961  -21.5005  -16.6985 C   0  0  1  0  0  0  0  0  0  0  0  0
   22.4499  -20.9335  -15.5024 C   0  0  0  0  0  0  0  0  0  0  0  0
   21.8802  -22.0377  -14.6816 C   0  0  0  0  0  0  0  0  0  0  0  0
   22.0332  -23.3938  -14.8916 C   0  0  0  0  0  0  0  0  0  0  0  0
   21.3538  -24.0242  -13.9170 N   0  0  0  0  0  0  0  0  0  0  0  0
   20.7808  -23.1005  -13.1041 C   0  0  0  0  0  0  0  0  0  0  0  0
   21.1096  -21.8981  -13.5814 N   0  0  0  0  0  0  0  0  0  0  0  0
   23.4476  -20.4338  -17.6781 C   0  0  0  0  0  0  0  0  0  0  0  0
   24.6280  -20.1302  -17.9837 O   0  0  0  0  0  0  0  0  0  0  0  0
   22.4268  -19.7361  -18.2900 O   0  0  0  0  0  0  0  0  0  0  0  0
  2  4  1  0
  2  3  1  1
  2  1  1  0
  4  5  1  6
  6  4  1  0
  6  7  2  0
  8  9  1  0
  9 19  2  0
  9 10  1  0
 10 11  2  0
 11 12  1  0
 12 13  1  0
 14 13  1  1
 14 15  1  0
 15  6  1  0
 16 14  1  0
 16 20  1  0
 17 16  2  0
 18 12  2  0
 19 18  1  0
 21 20  1  0
 21 28  1  0
 22 23  1  0
 21 22  1  1
 23 27  1  0
 24 25  1  0
 24 23  2  0
 25 26  1  0
 26 27  2  0
 28 29  2  0
 28 30  1  0
M  END
$$$$
