VYH.pdb
     RDKit          3D

 30 31  0  0  1  0  0  0  0  0999 V2000
   27.6078  -10.7977  -18.2466 C   0  0  0  0  0  0  0  0  0  0  0  0
   28.1951  -11.0900  -16.8566 C   0  0  2  0  0  0  0  0  0  0  0  0
   29.6197  -11.5096  -17.0893 C   0  0  0  0  0  0  0  0  0  0  0  0
   27.3376  -12.2059  -16.2962 C   0  0  2  0  0  0  0  0  0  0  0  0
   27.6206  -13.3637  -17.1684 N   0  0  0  0  0  0  0  0  0  0  0  0
   25.8908  -11.9432  -16.3900 C   0  0  0  0  0  0  0  0  0  0  0  0
   25.3065  -12.1595  -17.4722 O   0  0  0  0  0  0  0  0  0  0  0  0
   17.3057  -10.9406  -15.8931 O   0  0  0  0  0  0  0  0  0  0  0  0
   18.6290  -11.2429  -15.6203 C   0  0  0  0  0  0  0  0  0  0  0  0
   19.4684  -11.7658  -16.5788 C   0  0  0  0  0  0  0  0  0  0  0  0
   20.7803  -12.0668  -16.3123 C   0  0  0  0  0  0  0  0  0  0  0  0
   21.3355  -11.8554  -15.0419 C   0  0  0  0  0  0  0  0  0  0  0  0
   22.7734  -12.1899  -14.8089 C   0  0  0  0  0  0  0  0  0  0  0  0
   23.7106  -11.1273  -15.3608 C   0  0  2  0  0  0  0  0  0  0  0  0
   25.0940  -11.4520  -15.3160 N   0  0  0  0  0  0  0  0  0  0  0  0
   23.3601   -9.7619  -14.9421 C   0  0  0  0  0  0  0  0  0  0  0  0
   23.7071   -9.3226  -13.8151 O   0  0  0  0  0  0  0  0  0  0  0  0
   20.4906  -11.3343  -14.0963 C   0  0  0  0  0  0  0  0  0  0  0  0
   19.1547  -11.0289  -14.3709 C   0  0  0  0  0  0  0  0  0  0  0  0
   22.6213   -8.8578  -15.7588 N   0  0  0  0  0  0  0  0  0  0  0  0
   22.2407   -7.5351  -15.3279 C   0  0  1  0  0  0  0  0  0  0  0  0
   22.0085   -6.6746  -16.5585 C   0  0  0  0  0  0  0  0  0  0  0  0
   21.8278   -5.2504  -16.1630 C   0  0  0  0  0  0  0  0  0  0  0  0
   22.1066   -4.6874  -14.9334 C   0  0  0  0  0  0  0  0  0  0  0  0
   21.7954   -3.3815  -15.0165 N   0  0  0  0  0  0  0  0  0  0  0  0
   21.3302   -3.1129  -16.2630 C   0  0  0  0  0  0  0  0  0  0  0  0
   21.3558   -4.2581  -16.9481 N   0  0  0  0  0  0  0  0  0  0  0  0
   21.0304   -7.5457  -14.4938 C   0  0  0  0  0  0  0  0  0  0  0  0
   21.0495   -7.0123  -13.3561 O   0  0  0  0  0  0  0  0  0  0  0  0
   19.8502   -8.1259  -14.9105 O   0  0  0  0  0  0  0  0  0  0  0  0
  2  4  1  0
  2  3  1  6
  2  1  1  0
  4  5  1  6
  6  4  1  0
  6  7  2  0
  8  9  1  0
  9 19  2  0
  9 10  1  0
 10 11  2  0
 11 12  1  0
 12 13  1  0
 14 13  1  1
 14 15  1  0
 15  6  1  0
 16 14  1  0
 16 20  1  0
 17 16  2  0
 18 12  2  0
 19 18  1  0
 21 20  1  0
 21 28  1  0
 22 23  1  0
 21 22  1  6
 23 27  1  0
 24 25  1  0
 24 23  2  0
 25 26  1  0
 26 27  2  0
 28 29  2  0
 28 30  1  0
M  END
$$$$
