TFT.pdb
     RDKit          3D

 26 26  0  0  1  0  0  0  0  0999 V2000
   28.7509  -20.7352  -19.0028 C   0  0  0  0  0  0  0  0  0  0  0  0
   27.7825  -20.8070  -17.8445 C   0  0  1  0  0  0  0  0  0  0  0  0
   26.4958  -20.8902  -18.3308 O   0  0  0  0  0  0  0  0  0  0  0  0
   28.1680  -21.9510  -16.9637 C   0  0  2  0  0  0  0  0  0  0  0  0
   28.0823  -23.2171  -17.6170 N   0  0  0  0  0  0  0  0  0  0  0  0
   27.3375  -21.9743  -15.7199 C   0  0  0  0  0  0  0  0  0  0  0  0
   26.4805  -22.8609  -15.5166 O   0  0  0  0  0  0  0  0  0  0  0  0
   27.4748  -20.9953  -14.7044 N   0  0  0  0  0  0  0  0  0  0  0  0
   26.7310  -21.0326  -13.4814 C   0  0  1  0  0  0  0  0  0  0  0  0
   27.3722  -20.4365  -12.3053 C   0  0  0  0  0  0  0  0  0  0  0  0
   26.6456  -20.4926  -11.0350 C   0  0  0  0  0  0  0  0  0  0  0  0
   26.5544  -21.6275  -10.2463 C   0  0  0  0  0  0  0  0  0  0  0  0
   25.8537  -21.6452   -9.0739 C   0  0  0  0  0  0  0  0  0  0  0  0
   25.2076  -20.5130   -8.6378 C   0  0  0  0  0  0  0  0  0  0  0  0
   25.2719  -19.3634   -9.3908 C   0  0  0  0  0  0  0  0  0  0  0  0
   25.9872  -19.3734  -10.5722 C   0  0  0  0  0  0  0  0  0  0  0  0
   25.4013  -20.4054  -13.7422 C   0  0  0  0  0  0  0  0  0  0  0  0
   25.3509  -19.1961  -14.1662 O   0  0  0  0  0  0  0  0  0  0  0  0
   22.9539  -20.9377  -16.2019 C   0  0  0  0  0  0  0  0  0  0  0  0
   22.1040  -21.0601  -14.9392 C   0  0  1  0  0  0  0  0  0  0  0  0
   21.7678  -22.4264  -14.8387 O   0  0  0  0  0  0  0  0  0  0  0  0
   22.8407  -20.5906  -13.7289 C   0  0  2  0  0  0  0  0  0  0  0  0
   24.1632  -21.0591  -13.5572 N   0  0  0  0  0  0  0  0  0  0  0  0
   21.9733  -20.5334  -12.5208 C   0  0  0  0  0  0  0  0  0  0  0  0
   22.4004  -21.1880  -11.3333 O   0  0  0  0  0  0  0  0  0  0  0  0
   20.8765  -19.9676  -12.3978 O   0  0  0  0  0  0  0  0  0  0  0  0
  2  1  1  6
  2  3  1  0
  2  4  1  0
  4  6  1  0
  4  5  1  6
  6  7  2  0
  8  9  1  0
  8  6  1  0
  9 10  1  1
 10 11  1  0
 11 16  2  0
 12 11  1  0
 12 13  2  0
 13 14  1  0
 14 15  2  0
 16 15  1  0
 17 18  2  0
 17  9  1  0
 20 19  1  6
 20 22  1  0
 21 20  1  0
 22 24  1  0
 22 23  1  1
 23 17  1  0
 24 25  1  0
 26 24  2  0
M  END
$$$$
