TFT.pdb
     RDKit          3D

 26 26  0  0  1  0  0  0  0  0999 V2000
   16.1624  -13.0764  -22.1160 C   0  0  0  0  0  0  0  0  0  0  0  0
   16.2596  -12.5423  -20.7055 C   0  0  1  0  0  0  0  0  0  0  0  0
   14.9922  -12.4056  -20.1817 O   0  0  0  0  0  0  0  0  0  0  0  0
   17.1461  -13.4434  -19.9084 C   0  0  2  0  0  0  0  0  0  0  0  0
   16.6256  -14.7651  -19.7701 N   0  0  0  0  0  0  0  0  0  0  0  0
   17.4164  -12.8695  -18.5538 C   0  0  0  0  0  0  0  0  0  0  0  0
   16.7640  -13.2208  -17.5474 O   0  0  0  0  0  0  0  0  0  0  0  0
   18.4245  -11.8976  -18.3354 N   0  0  0  0  0  0  0  0  0  0  0  0
   18.8003  -11.4458  -17.0296 C   0  0  1  0  0  0  0  0  0  0  0  0
   20.1110  -11.8805  -16.5371 C   0  0  0  0  0  0  0  0  0  0  0  0
   20.3494  -13.3210  -16.4230 C   0  0  0  0  0  0  0  0  0  0  0  0
   20.9507  -14.0853  -17.4092 C   0  0  0  0  0  0  0  0  0  0  0  0
   21.1420  -15.4308  -17.2725 C   0  0  0  0  0  0  0  0  0  0  0  0
   20.7339  -16.0741  -16.1283 C   0  0  0  0  0  0  0  0  0  0  0  0
   20.1318  -15.3530  -15.1233 C   0  0  0  0  0  0  0  0  0  0  0  0
   19.9505  -13.9938  -15.2878 C   0  0  0  0  0  0  0  0  0  0  0  0
   18.6905   -9.9567  -17.0180 C   0  0  0  0  0  0  0  0  0  0  0  0
   19.4298   -9.2675  -17.8074 O   0  0  0  0  0  0  0  0  0  0  0  0
   15.1149   -8.1805  -16.7998 C   0  0  0  0  0  0  0  0  0  0  0  0
   16.0914   -7.4718  -15.8639 C   0  0  1  0  0  0  0  0  0  0  0  0
   15.7118   -7.8529  -14.5598 O   0  0  0  0  0  0  0  0  0  0  0  0
   17.5064   -7.8502  -16.1512 C   0  0  2  0  0  0  0  0  0  0  0  0
   17.8101   -9.2302  -16.1865 N   0  0  0  0  0  0  0  0  0  0  0  0
   18.4839   -6.9519  -15.4783 C   0  0  0  0  0  0  0  0  0  0  0  0
   18.3446   -5.5451  -15.6282 O   0  0  0  0  0  0  0  0  0  0  0  0
   19.4505   -7.2732  -14.7706 O   0  0  0  0  0  0  0  0  0  0  0  0
  2  1  1  6
  2  3  1  0
  2  4  1  0
  4  6  1  0
  4  5  1  1
  6  7  2  0
  8  9  1  0
  8  6  1  0
  9 10  1  6
 10 11  1  0
 11 16  2  0
 12 11  1  0
 12 13  2  0
 13 14  1  0
 14 15  2  0
 16 15  1  0
 17 18  2  0
 17  9  1  0
 20 19  1  6
 20 22  1  0
 21 20  1  0
 22 24  1  0
 22 23  1  1
 23 17  1  0
 24 25  1  0
 26 24  2  0
M  END
$$$$
