TFT.pdb
     RDKit          3D

 26 26  0  0  1  0  0  0  0  0999 V2000
   28.5712  -18.0959  -18.0604 C   0  0  0  0  0  0  0  0  0  0  0  0
   27.5770  -18.8031  -17.1682 C   0  0  1  0  0  0  0  0  0  0  0  0
   26.5365  -19.2813  -17.9349 O   0  0  0  0  0  0  0  0  0  0  0  0
   28.2917  -19.8636  -16.3951 C   0  0  2  0  0  0  0  0  0  0  0  0
   28.8560  -20.8794  -17.2238 N   0  0  0  0  0  0  0  0  0  0  0  0
   27.3872  -20.4914  -15.3826 C   0  0  0  0  0  0  0  0  0  0  0  0
   27.0290  -21.6855  -15.4698 O   0  0  0  0  0  0  0  0  0  0  0  0
   26.8866  -19.7698  -14.2702 N   0  0  0  0  0  0  0  0  0  0  0  0
   26.2003  -20.3965  -13.1808 C   0  0  1  0  0  0  0  0  0  0  0  0
   26.6315  -20.0208  -11.8309 C   0  0  0  0  0  0  0  0  0  0  0  0
   27.9085  -20.5555  -11.3531 C   0  0  0  0  0  0  0  0  0  0  0  0
   28.0515  -21.2880  -10.1863 C   0  0  0  0  0  0  0  0  0  0  0  0
   29.2631  -21.7573   -9.7650 C   0  0  0  0  0  0  0  0  0  0  0  0
   30.3952  -21.5093  -10.5040 C   0  0  0  0  0  0  0  0  0  0  0  0
   30.2985  -20.7853  -11.6698 C   0  0  0  0  0  0  0  0  0  0  0  0
   29.0611  -20.3225  -12.0724 C   0  0  0  0  0  0  0  0  0  0  0  0
   24.7394  -20.1486  -13.3650 C   0  0  0  0  0  0  0  0  0  0  0  0
   24.3137  -18.9415  -13.4460 O   0  0  0  0  0  0  0  0  0  0  0  0
   21.7392  -23.4900  -13.9030 C   0  0  0  0  0  0  0  0  0  0  0  0
   21.7152  -22.0890  -14.5098 C   0  0  1  0  0  0  0  0  0  0  0  0
   20.3528  -21.7885  -14.7181 O   0  0  0  0  0  0  0  0  0  0  0  0
   22.3625  -21.0866  -13.6130 C   0  0  2  0  0  0  0  0  0  0  0  0
   23.7658  -21.1668  -13.4634 N   0  0  0  0  0  0  0  0  0  0  0  0
   21.5589  -20.8138  -12.3902 C   0  0  0  0  0  0  0  0  0  0  0  0
   20.1728  -20.5282  -12.5252 O   0  0  0  0  0  0  0  0  0  0  0  0
   21.9470  -20.7996  -11.2123 O   0  0  0  0  0  0  0  0  0  0  0  0
  2  1  1  6
  2  3  1  0
  2  4  1  0
  4  6  1  0
  4  5  1  6
  6  7  2  0
  8  9  1  0
  8  6  1  0
  9 10  1  1
 10 11  1  0
 11 16  2  0
 12 11  1  0
 12 13  2  0
 13 14  1  0
 14 15  2  0
 16 15  1  0
 17 18  2  0
 17  9  1  0
 20 19  1  1
 20 22  1  0
 21 20  1  0
 22 24  1  0
 22 23  1  1
 23 17  1  0
 24 25  1  0
 26 24  2  0
M  END
$$$$
