TFT.pdb
     RDKit          3D

 26 26  0  0  1  0  0  0  0  0999 V2000
   20.2487   -8.1990  -19.4771 C   0  0  0  0  0  0  0  0  0  0  0  0
   19.7389   -9.6132  -19.3208 C   0  0  1  0  0  0  0  0  0  0  0  0
   19.9689  -10.3118  -20.4863 O   0  0  0  0  0  0  0  0  0  0  0  0
   20.3769  -10.2257  -18.1163 C   0  0  2  0  0  0  0  0  0  0  0  0
   20.0482  -11.6041  -17.9457 N   0  0  0  0  0  0  0  0  0  0  0  0
   20.0180   -9.4703  -16.8761 C   0  0  0  0  0  0  0  0  0  0  0  0
   18.9230   -9.6365  -16.2972 O   0  0  0  0  0  0  0  0  0  0  0  0
   20.8968   -8.5260  -16.2890 N   0  0  0  0  0  0  0  0  0  0  0  0
   20.5661   -7.7826  -15.1106 C   0  0  1  0  0  0  0  0  0  0  0  0
   21.2014   -8.2154  -13.8622 C   0  0  0  0  0  0  0  0  0  0  0  0
   20.8578   -7.4882  -12.6384 C   0  0  0  0  0  0  0  0  0  0  0  0
   19.8232   -7.8477  -11.7905 C   0  0  0  0  0  0  0  0  0  0  0  0
   19.5229   -7.1345  -10.6650 C   0  0  0  0  0  0  0  0  0  0  0  0
   20.2554   -6.0182  -10.3382 C   0  0  0  0  0  0  0  0  0  0  0  0
   21.2920   -5.6253  -11.1530 C   0  0  0  0  0  0  0  0  0  0  0  0
   21.5739   -6.3645  -12.2850 C   0  0  0  0  0  0  0  0  0  0  0  0
   20.8550   -6.3442  -15.3882 C   0  0  0  0  0  0  0  0  0  0  0  0
   22.0507   -5.9918  -15.6896 O   0  0  0  0  0  0  0  0  0  0  0  0
   19.6367   -3.9443  -18.0035 C   0  0  0  0  0  0  0  0  0  0  0  0
   19.2620   -3.3108  -16.6656 C   0  0  1  0  0  0  0  0  0  0  0  0
   17.8734   -3.5147  -16.5245 O   0  0  0  0  0  0  0  0  0  0  0  0
   20.0194   -3.9211  -15.5333 C   0  0  2  0  0  0  0  0  0  0  0  0
   19.8877   -5.3161  -15.3474 N   0  0  0  0  0  0  0  0  0  0  0  0
   20.0110   -3.0651  -14.3157 C   0  0  0  0  0  0  0  0  0  0  0  0
   19.5124   -3.6030  -13.0978 O   0  0  0  0  0  0  0  0  0  0  0  0
   20.3963   -1.8911  -14.2083 O   0  0  0  0  0  0  0  0  0  0  0  0
  2  1  1  6
  2  3  1  0
  2  4  1  0
  4  6  1  0
  4  5  1  1
  6  7  2  0
  8  9  1  0
  8  6  1  0
  9 10  1  1
 10 11  1  0
 11 16  2  0
 12 11  1  0
 12 13  2  0
 13 14  1  0
 14 15  2  0
 16 15  1  0
 17 18  2  0
 17  9  1  0
 20 19  1  6
 20 22  1  0
 21 20  1  0
 22 24  1  0
 22 23  1  1
 23 17  1  0
 24 25  1  0
 26 24  2  0
M  END
$$$$
