TFT.pdb
     RDKit          3D

 26 26  0  0  1  0  0  0  0  0999 V2000
   26.5464  -19.3077  -17.0616 C   0  0  0  0  0  0  0  0  0  0  0  0
   26.7645  -20.6727  -17.6728 C   0  0  1  0  0  0  0  0  0  0  0  0
   27.4405  -20.5350  -18.8659 O   0  0  0  0  0  0  0  0  0  0  0  0
   27.4680  -21.5394  -16.6792 C   0  0  2  0  0  0  0  0  0  0  0  0
   27.7164  -22.8596  -17.1613 N   0  0  0  0  0  0  0  0  0  0  0  0
   26.7043  -21.6127  -15.3952 C   0  0  0  0  0  0  0  0  0  0  0  0
   25.6752  -22.3123  -15.2798 O   0  0  0  0  0  0  0  0  0  0  0  0
   27.1032  -20.8951  -14.2400 N   0  0  0  0  0  0  0  0  0  0  0  0
   26.3988  -20.9696  -12.9955 C   0  0  1  0  0  0  0  0  0  0  0  0
   27.0904  -20.4372  -11.8174 C   0  0  0  0  0  0  0  0  0  0  0  0
   26.4136  -20.5521  -10.5238 C   0  0  0  0  0  0  0  0  0  0  0  0
   25.8570  -21.7264  -10.0444 C   0  0  0  0  0  0  0  0  0  0  0  0
   25.2194  -21.7906   -8.8382 C   0  0  0  0  0  0  0  0  0  0  0  0
   25.1117  -20.6677   -8.0527 C   0  0  0  0  0  0  0  0  0  0  0  0
   25.6504  -19.4800   -8.4907 C   0  0  0  0  0  0  0  0  0  0  0  0
   26.2895  -19.4431   -9.7144 C   0  0  0  0  0  0  0  0  0  0  0  0
   25.0751  -20.3053  -13.1853 C   0  0  0  0  0  0  0  0  0  0  0  0
   25.0208  -19.1794  -13.7969 O   0  0  0  0  0  0  0  0  0  0  0  0
   23.0868  -19.8868  -15.3046 C   0  0  0  0  0  0  0  0  0  0  0  0
   22.0070  -20.3274  -14.3190 C   0  0  1  0  0  0  0  0  0  0  0  0
   21.5890  -21.6011  -14.7579 O   0  0  0  0  0  0  0  0  0  0  0  0
   22.5226  -20.3764  -12.9191 C   0  0  2  0  0  0  0  0  0  0  0  0
   23.8464  -20.8367  -12.7356 N   0  0  0  0  0  0  0  0  0  0  0  0
   21.4950  -20.8452  -11.9498 C   0  0  0  0  0  0  0  0  0  0  0  0
   20.1957  -20.2697  -11.9897 O   0  0  0  0  0  0  0  0  0  0  0  0
   21.6184  -21.7095  -11.0688 O   0  0  0  0  0  0  0  0  0  0  0  0
  2  1  1  1
  2  3  1  0
  2  4  1  0
  4  6  1  0
  4  5  1  6
  6  7  2  0
  8  9  1  0
  8  6  1  0
  9 10  1  1
 10 11  1  0
 11 16  2  0
 12 11  1  0
 12 13  2  0
 13 14  1  0
 14 15  2  0
 16 15  1  0
 17 18  2  0
 17  9  1  0
 20 19  1  6
 20 22  1  0
 21 20  1  0
 22 24  1  0
 22 23  1  6
 23 17  1  0
 24 25  1  0
 26 24  2  0
M  END
$$$$
