TFT.pdb
     RDKit          3D

 26 26  0  0  1  0  0  0  0  0999 V2000
   21.6679   -9.5014  -20.4977 C   0  0  0  0  0  0  0  0  0  0  0  0
   21.8597  -10.9309  -20.0457 C   0  0  1  0  0  0  0  0  0  0  0  0
   21.9318  -11.7522  -21.1500 O   0  0  0  0  0  0  0  0  0  0  0  0
   23.0645  -11.0006  -19.1642 C   0  0  2  0  0  0  0  0  0  0  0  0
   23.3706  -12.3268  -18.7347 N   0  0  0  0  0  0  0  0  0  0  0  0
   22.9081  -10.1132  -17.9703 C   0  0  0  0  0  0  0  0  0  0  0  0
   22.3762  -10.5176  -16.9142 O   0  0  0  0  0  0  0  0  0  0  0  0
   23.3530   -8.7676  -17.9690 N   0  0  0  0  0  0  0  0  0  0  0  0
   23.3918   -7.9617  -16.7859 C   0  0  1  0  0  0  0  0  0  0  0  0
   24.7081   -7.4651  -16.3735 C   0  0  0  0  0  0  0  0  0  0  0  0
   25.7611   -8.4538  -16.1315 C   0  0  0  0  0  0  0  0  0  0  0  0
   26.8605   -8.6293  -16.9555 C   0  0  0  0  0  0  0  0  0  0  0  0
   27.8149   -9.5737  -16.7050 C   0  0  0  0  0  0  0  0  0  0  0  0
   27.7062  -10.3914  -15.6054 C   0  0  0  0  0  0  0  0  0  0  0  0
   26.6296  -10.2513  -14.7604 C   0  0  0  0  0  0  0  0  0  0  0  0
   25.6791   -9.2884  -15.0374 C   0  0  0  0  0  0  0  0  0  0  0  0
   22.4294   -6.8358  -16.9747 C   0  0  0  0  0  0  0  0  0  0  0  0
   22.7080   -5.9071  -17.8140 O   0  0  0  0  0  0  0  0  0  0  0  0
   18.6401   -7.3475  -17.6023 C   0  0  0  0  0  0  0  0  0  0  0  0
   18.7708   -6.2850  -16.5134 C   0  0  1  0  0  0  0  0  0  0  0  0
   18.3730   -6.9169  -15.3165 O   0  0  0  0  0  0  0  0  0  0  0  0
   20.1654   -5.7623  -16.4152 C   0  0  2  0  0  0  0  0  0  0  0  0
   21.2027   -6.7136  -16.2856 N   0  0  0  0  0  0  0  0  0  0  0  0
   20.2556   -4.5340  -15.5794 C   0  0  0  0  0  0  0  0  0  0  0  0
   19.4052   -3.4340  -15.8758 O   0  0  0  0  0  0  0  0  0  0  0  0
   21.0049   -4.3244  -14.6135 O   0  0  0  0  0  0  0  0  0  0  0  0
  2  1  1  6
  2  3  1  0
  2  4  1  0
  4  6  1  0
  4  5  1  1
  6  7  2  0
  8  9  1  0
  8  6  1  0
  9 10  1  6
 10 11  1  0
 11 16  2  0
 12 11  1  0
 12 13  2  0
 13 14  1  0
 14 15  2  0
 16 15  1  0
 17 18  2  0
 17  9  1  0
 20 19  1  6
 20 22  1  0
 21 20  1  0
 22 24  1  0
 22 23  1  1
 23 17  1  0
 24 25  1  0
 26 24  2  0
M  END
$$$$
