TFT.pdb
     RDKit          3D

 26 26  0  0  1  0  0  0  0  0999 V2000
   28.4541  -20.5993  -18.4164 C   0  0  0  0  0  0  0  0  0  0  0  0
   27.5065  -20.7185  -17.2449 C   0  0  1  0  0  0  0  0  0  0  0  0
   26.2157  -20.8362  -17.7132 O   0  0  0  0  0  0  0  0  0  0  0  0
   27.9418  -21.8618  -16.3866 C   0  0  2  0  0  0  0  0  0  0  0  0
   27.8570  -23.1243  -17.0468 N   0  0  0  0  0  0  0  0  0  0  0  0
   27.1539  -21.9095  -15.1160 C   0  0  0  0  0  0  0  0  0  0  0  0
   26.1896  -22.6905  -14.9678 O   0  0  0  0  0  0  0  0  0  0  0  0
   27.4552  -21.0742  -14.0115 N   0  0  0  0  0  0  0  0  0  0  0  0
   26.6984  -21.0877  -12.7960 C   0  0  1  0  0  0  0  0  0  0  0  0
   27.3429  -20.5041  -11.6155 C   0  0  0  0  0  0  0  0  0  0  0  0
   26.5954  -20.5214  -10.3562 C   0  0  0  0  0  0  0  0  0  0  0  0
   26.1185  -21.6751   -9.7563 C   0  0  0  0  0  0  0  0  0  0  0  0
   25.4111  -21.6495   -8.5882 C   0  0  0  0  0  0  0  0  0  0  0  0
   25.1489  -20.4526   -7.9651 C   0  0  0  0  0  0  0  0  0  0  0  0
   25.6039  -19.2821   -8.5268 C   0  0  0  0  0  0  0  0  0  0  0  0
   26.3166  -19.3368   -9.7086 C   0  0  0  0  0  0  0  0  0  0  0  0
   25.3881  -20.4271  -13.0725 C   0  0  0  0  0  0  0  0  0  0  0  0
   25.3728  -19.2121  -13.4824 O   0  0  0  0  0  0  0  0  0  0  0  0
   23.0037  -20.7739  -15.5784 C   0  0  0  0  0  0  0  0  0  0  0  0
   22.1114  -20.9335  -14.3495 C   0  0  1  0  0  0  0  0  0  0  0  0
   21.7307  -22.2916  -14.3304 O   0  0  0  0  0  0  0  0  0  0  0  0
   22.8239  -20.5504  -13.0951 C   0  0  2  0  0  0  0  0  0  0  0  0
   24.1324  -21.0545  -12.9174 N   0  0  0  0  0  0  0  0  0  0  0  0
   21.9255  -20.5466  -11.9084 C   0  0  0  0  0  0  0  0  0  0  0  0
   20.6944  -19.8391  -11.9774 O   0  0  0  0  0  0  0  0  0  0  0  0
   22.1084  -21.1008  -10.8140 O   0  0  0  0  0  0  0  0  0  0  0  0
  2  1  1  6
  2  3  1  0
  2  4  1  0
  4  6  1  0
  4  5  1  6
  6  7  2  0
  8  9  1  0
  8  6  1  0
  9 10  1  1
 10 11  1  0
 11 16  2  0
 12 11  1  0
 12 13  2  0
 13 14  1  0
 14 15  2  0
 16 15  1  0
 17 18  2  0
 17  9  1  0
 20 19  1  6
 20 22  1  0
 21 20  1  0
 22 24  1  0
 22 23  1  1
 23 17  1  0
 24 25  1  0
 26 24  2  0
M  END
$$$$
