EAS.pdb
     RDKit          3D

 21 20  0  0  1  0  0  0  0  0999 V2000
   18.3036  -12.9178  -15.8631 N   0  0  0  0  0  0  0  0  0  0  0  0
   17.8332  -11.5996  -16.1338 C   0  0  1  0  0  0  0  0  0  0  0  0
   16.7605  -11.1542  -15.2054 C   0  0  0  0  0  0  0  0  0  0  0  0
   15.4657  -11.8724  -15.2602 C   0  0  0  0  0  0  0  0  0  0  0  0
   14.3621  -11.3609  -14.4527 C   0  0  0  0  0  0  0  0  0  0  0  0
   14.3864  -10.3251  -13.7666 O   0  0  0  0  0  0  0  0  0  0  0  0
   18.9516  -10.6310  -16.0285 C   0  0  0  0  0  0  0  0  0  0  0  0
   19.6876  -10.7109  -15.0137 O   0  0  0  0  0  0  0  0  0  0  0  0
   13.1544  -12.0832  -14.4311 O   0  0  0  0  0  0  0  0  0  0  0  0
   20.5022   -8.0963  -18.3005 C   0  0  0  0  0  0  0  0  0  0  0  0
   20.3541   -8.7514  -16.9264 C   0  0  2  0  0  0  0  0  0  0  0  0
   19.2132   -9.6551  -16.9898 N   0  0  0  0  0  0  0  0  0  0  0  0
   20.1896   -7.7232  -15.8701 C   0  0  0  0  0  0  0  0  0  0  0  0
   19.0232   -7.3754  -15.5551 O   0  0  0  0  0  0  0  0  0  0  0  0
   22.3718   -5.0858  -12.4044 O   0  0  0  0  0  0  0  0  0  0  0  0
   22.4624   -6.0338  -13.3980 C   0  0  0  0  0  0  0  0  0  0  0  0
   21.2088   -6.0944  -14.2540 C   0  0  2  0  0  0  0  0  0  0  0  0
   21.3159   -7.1427  -15.2272 N   0  0  0  0  0  0  0  0  0  0  0  0
   20.8315   -4.7922  -14.8059 C   0  0  0  0  0  0  0  0  0  0  0  0
   21.2815   -4.4818  -15.9404 O   0  0  0  0  0  0  0  0  0  0  0  0
   20.0162   -3.8617  -14.1864 O   0  0  0  0  0  0  0  0  0  0  0  0
  2  1  1  1
  3  2  1  0
  4  3  1  0
  4  5  1  0
  5  6  2  0
  7  2  1  0
  8  7  2  0
  9  5  1  0
 11 10  1  6
 11 13  1  0
 11 12  1  0
 12  7  1  0
 13 18  1  0
 14 13  2  0
 16 15  1  0
 17 16  1  6
 18 17  1  0
 19 21  1  0
 19 17  1  0
 20 19  2  0
M  END
$$$$
