EAS.pdb
     RDKit          3D

 21 20  0  0  1  0  0  0  0  0999 V2000
   19.5203  -12.6633  -15.6033 N   0  0  0  0  0  0  0  0  0  0  0  0
   19.6691  -11.5228  -16.4455 C   0  0  1  0  0  0  0  0  0  0  0  0
   18.5855  -11.3900  -17.4550 C   0  0  0  0  0  0  0  0  0  0  0  0
   17.2340  -11.8640  -17.0753 C   0  0  0  0  0  0  0  0  0  0  0  0
   16.1795  -11.8113  -18.0836 C   0  0  0  0  0  0  0  0  0  0  0  0
   16.3093  -11.3907  -19.2457 O   0  0  0  0  0  0  0  0  0  0  0  0
   19.6768  -10.2860  -15.6269 C   0  0  0  0  0  0  0  0  0  0  0  0
   18.7602  -10.1524  -14.7785 O   0  0  0  0  0  0  0  0  0  0  0  0
   14.8949  -12.2701  -17.7369 O   0  0  0  0  0  0  0  0  0  0  0  0
   22.0832   -7.6069  -14.8063 C   0  0  0  0  0  0  0  0  0  0  0  0
   20.6312   -8.0555  -14.9785 C   0  0  2  0  0  0  0  0  0  0  0  0
   20.6398   -9.2857  -15.7587 N   0  0  0  0  0  0  0  0  0  0  0  0
   19.8272   -6.9919  -15.6284 C   0  0  0  0  0  0  0  0  0  0  0  0
   19.7573   -6.9822  -16.8837 O   0  0  0  0  0  0  0  0  0  0  0  0
   16.5431   -3.4570  -14.9438 O   0  0  0  0  0  0  0  0  0  0  0  0
   17.3922   -4.3975  -14.4064 C   0  0  0  0  0  0  0  0  0  0  0  0
   18.3413   -4.9767  -15.4417 C   0  0  2  0  0  0  0  0  0  0  0  0
   19.1514   -6.0070  -14.8588 N   0  0  0  0  0  0  0  0  0  0  0  0
   19.0945   -3.9495  -16.1628 C   0  0  0  0  0  0  0  0  0  0  0  0
   20.2572   -3.6814  -15.7599 O   0  0  0  0  0  0  0  0  0  0  0  0
   18.6390   -3.2390  -17.2592 O   0  0  0  0  0  0  0  0  0  0  0  0
  2  1  1  1
  3  2  1  0
  4  3  1  0
  4  5  1  0
  5  6  2  0
  7  2  1  0
  8  7  2  0
  9  5  1  0
 11 10  1  6
 11 13  1  0
 11 12  1  0
 12  7  1  0
 13 18  1  0
 14 13  2  0
 16 15  1  0
 17 16  1  1
 18 17  1  0
 19 21  1  0
 19 17  1  0
 20 19  2  0
M  END
$$$$
