EAS.pdb
     RDKit          3D

 21 20  0  0  1  0  0  0  0  0999 V2000
   19.6154  -12.5026  -17.8264 N   0  0  0  0  0  0  0  0  0  0  0  0
   20.6550  -11.5571  -18.0663 C   0  0  1  0  0  0  0  0  0  0  0  0
   20.3486  -10.6120  -19.1725 C   0  0  0  0  0  0  0  0  0  0  0  0
   20.2264  -11.1730  -20.5385 C   0  0  0  0  0  0  0  0  0  0  0  0
   20.0053  -10.2457  -21.6443 C   0  0  0  0  0  0  0  0  0  0  0  0
   20.8894   -9.6139  -22.2472 O   0  0  0  0  0  0  0  0  0  0  0  0
   20.9025  -10.7550  -16.8435 C   0  0  0  0  0  0  0  0  0  0  0  0
   19.8985  -10.2972  -16.2433 O   0  0  0  0  0  0  0  0  0  0  0  0
   18.6867  -10.0296  -22.0864 O   0  0  0  0  0  0  0  0  0  0  0  0
   23.8685   -9.9378  -14.7182 C   0  0  0  0  0  0  0  0  0  0  0  0
   22.4249   -9.6861  -15.1565 C   0  0  2  0  0  0  0  0  0  0  0  0
   22.1781  -10.4933  -16.3439 N   0  0  0  0  0  0  0  0  0  0  0  0
   22.1978   -8.2424  -15.4098 C   0  0  0  0  0  0  0  0  0  0  0  0
   22.5526   -7.7702  -16.5198 O   0  0  0  0  0  0  0  0  0  0  0  0
   19.1436   -6.2794  -15.5319 O   0  0  0  0  0  0  0  0  0  0  0  0
   19.8740   -5.7014  -14.5187 C   0  0  0  0  0  0  0  0  0  0  0  0
   21.3576   -6.0091  -14.6286 C   0  0  2  0  0  0  0  0  0  0  0  0
   21.5958   -7.4095  -14.4287 N   0  0  0  0  0  0  0  0  0  0  0  0
   22.1853   -5.1300  -13.8012 C   0  0  0  0  0  0  0  0  0  0  0  0
   22.7215   -5.6229  -12.7738 O   0  0  0  0  0  0  0  0  0  0  0  0
   22.4343   -3.7918  -14.0491 O   0  0  0  0  0  0  0  0  0  0  0  0
  2  1  1  1
  3  2  1  0
  4  3  1  0
  4  5  1  0
  5  6  2  0
  7  2  1  0
  8  7  2  0
  9  5  1  0
 11 10  1  6
 11 13  1  0
 11 12  1  0
 12  7  1  0
 13 18  1  0
 14 13  2  0
 16 15  1  0
 17 16  1  1
 18 17  1  0
 19 21  1  0
 19 17  1  0
 20 19  2  0
M  END
$$$$
