EAS.pdb
     RDKit          3D

 21 20  0  0  1  0  0  0  0  0999 V2000
   13.8186   -9.2310  -12.9144 N   0  0  0  0  0  0  0  0  0  0  0  0
   14.9788   -9.4831  -12.1254 C   0  0  1  0  0  0  0  0  0  0  0  0
   15.8264  -10.5825  -12.6581 C   0  0  0  0  0  0  0  0  0  0  0  0
   15.2370  -11.9412  -12.7034 C   0  0  0  0  0  0  0  0  0  0  0  0
   16.0577  -13.0285  -13.2285 C   0  0  0  0  0  0  0  0  0  0  0  0
   16.2661  -13.2627  -14.4310 O   0  0  0  0  0  0  0  0  0  0  0  0
   15.8174   -8.2618  -12.0529 C   0  0  0  0  0  0  0  0  0  0  0  0
   15.9312   -7.5795  -13.1014 O   0  0  0  0  0  0  0  0  0  0  0  0
   16.6785  -13.9023  -12.3164 O   0  0  0  0  0  0  0  0  0  0  0  0
   17.3221   -6.2111   -9.3425 C   0  0  0  0  0  0  0  0  0  0  0  0
   17.2733   -6.6356  -10.8111 C   0  0  2  0  0  0  0  0  0  0  0  0
   16.4717   -7.8494  -10.8923 N   0  0  0  0  0  0  0  0  0  0  0  0
   18.6424   -6.8381  -11.3444 C   0  0  0  0  0  0  0  0  0  0  0  0
   19.2893   -7.8439  -10.9560 O   0  0  0  0  0  0  0  0  0  0  0  0
   19.7342   -7.1566  -14.8217 O   0  0  0  0  0  0  0  0  0  0  0  0
   20.4721   -6.1006  -14.3375 C   0  0  0  0  0  0  0  0  0  0  0  0
   20.5290   -6.0841  -12.8195 C   0  0  2  0  0  0  0  0  0  0  0  0
   19.2138   -5.9238  -12.2698 N   0  0  0  0  0  0  0  0  0  0  0  0
   21.5226   -5.1453  -12.2961 C   0  0  0  0  0  0  0  0  0  0  0  0
   21.1134   -4.0329  -11.8703 O   0  0  0  0  0  0  0  0  0  0  0  0
   22.8857   -5.3725  -12.2263 O   0  0  0  0  0  0  0  0  0  0  0  0
  2  1  1  6
  3  2  1  0
  4  3  1  0
  4  5  1  0
  5  6  2  0
  7  2  1  0
  8  7  2  0
  9  5  1  0
 11 10  1  1
 11 13  1  0
 11 12  1  0
 12  7  1  0
 13 18  1  0
 14 13  2  0
 16 15  1  0
 17 16  1  6
 18 17  1  0
 19 21  1  0
 19 17  1  0
 20 19  2  0
M  END
$$$$
