EAS.pdb
     RDKit          3D

 21 20  0  0  1  0  0  0  0  0999 V2000
   17.1190   -8.3087  -15.2682 N   0  0  0  0  0  0  0  0  0  0  0  0
   18.4991   -8.0875  -15.5488 C   0  0  1  0  0  0  0  0  0  0  0  0
   18.7889   -7.9365  -16.9993 C   0  0  0  0  0  0  0  0  0  0  0  0
   18.5516   -9.1109  -17.8711 C   0  0  0  0  0  0  0  0  0  0  0  0
   18.7656   -8.9546  -19.3068 C   0  0  0  0  0  0  0  0  0  0  0  0
   17.8988   -9.0900  -20.1870 O   0  0  0  0  0  0  0  0  0  0  0  0
   18.9641   -6.8560  -14.8654 C   0  0  0  0  0  0  0  0  0  0  0  0
   18.1210   -5.9409  -14.6931 O   0  0  0  0  0  0  0  0  0  0  0  0
   20.0554   -8.6222  -19.7615 O   0  0  0  0  0  0  0  0  0  0  0  0
   22.1094   -5.7204  -13.1833 C   0  0  0  0  0  0  0  0  0  0  0  0
   20.7584   -5.4301  -13.8390 C   0  0  2  0  0  0  0  0  0  0  0  0
   20.2722   -6.6761  -14.4164 N   0  0  0  0  0  0  0  0  0  0  0  0
   20.8889   -4.3601  -14.8577 C   0  0  0  0  0  0  0  0  0  0  0  0
   20.8120   -4.6812  -16.0709 O   0  0  0  0  0  0  0  0  0  0  0  0
   19.5088   -0.9071  -17.0084 O   0  0  0  0  0  0  0  0  0  0  0  0
   19.6665   -1.9650  -16.1424 C   0  0  0  0  0  0  0  0  0  0  0  0
   20.9909   -1.9107  -15.4000 C   0  0  2  0  0  0  0  0  0  0  0  0
   21.0954   -3.0060  -14.4797 N   0  0  0  0  0  0  0  0  0  0  0  0
   21.2617   -0.5979  -14.8120 C   0  0  0  0  0  0  0  0  0  0  0  0
   20.7023   -0.3163  -13.7194 O   0  0  0  0  0  0  0  0  0  0  0  0
   22.0860    0.3720  -15.3546 O   0  0  0  0  0  0  0  0  0  0  0  0
  2  1  1  6
  3  2  1  0
  4  3  1  0
  4  5  1  0
  5  6  2  0
  7  2  1  0
  8  7  2  0
  9  5  1  0
 11 10  1  6
 11 13  1  0
 11 12  1  0
 12  7  1  0
 13 18  1  0
 14 13  2  0
 16 15  1  0
 17 16  1  1
 18 17  1  0
 19 21  1  0
 19 17  1  0
 20 19  2  0
M  END
$$$$
