EAS.pdb
     RDKit          3D

 21 20  0  0  1  0  0  0  0  0999 V2000
   12.5999  -10.5999  -11.1981 N   0  0  0  0  0  0  0  0  0  0  0  0
   13.9756  -10.4632  -10.8502 C   0  0  1  0  0  0  0  0  0  0  0  0
   14.9002  -11.0262  -11.8695 C   0  0  0  0  0  0  0  0  0  0  0  0
   14.9270  -12.4988  -12.0309 C   0  0  0  0  0  0  0  0  0  0  0  0
   15.8987  -13.2576  -11.2488 C   0  0  0  0  0  0  0  0  0  0  0  0
   15.6306  -14.0263  -10.3100 O   0  0  0  0  0  0  0  0  0  0  0  0
   14.3144   -9.0297  -10.6768 C   0  0  0  0  0  0  0  0  0  0  0  0
   13.9205   -8.2343  -11.5657 O   0  0  0  0  0  0  0  0  0  0  0  0
   17.2641  -13.1261  -11.5636 O   0  0  0  0  0  0  0  0  0  0  0  0
   15.7973   -6.9025   -7.9921 C   0  0  0  0  0  0  0  0  0  0  0  0
   15.4470   -7.1470   -9.4607 C   0  0  2  0  0  0  0  0  0  0  0  0
   15.0380   -8.5392   -9.5901 N   0  0  0  0  0  0  0  0  0  0  0  0
   16.6000   -6.8237  -10.3358 C   0  0  0  0  0  0  0  0  0  0  0  0
   17.3607   -7.7608  -10.6879 O   0  0  0  0  0  0  0  0  0  0  0  0
   17.1648   -5.6493  -14.4006 O   0  0  0  0  0  0  0  0  0  0  0  0
   16.6779   -5.9437  -13.1475 C   0  0  0  0  0  0  0  0  0  0  0  0
   17.3987   -5.1753  -12.0530 C   0  0  2  0  0  0  0  0  0  0  0  0
   16.8442   -5.4925  -10.7687 N   0  0  0  0  0  0  0  0  0  0  0  0
   17.4973   -3.7419  -12.3326 C   0  0  0  0  0  0  0  0  0  0  0  0
   16.5321   -3.0085  -11.9910 O   0  0  0  0  0  0  0  0  0  0  0  0
   18.5670   -3.1135  -12.9450 O   0  0  0  0  0  0  0  0  0  0  0  0
  2  1  1  6
  3  2  1  0
  4  3  1  0
  4  5  1  0
  5  6  2  0
  7  2  1  0
  8  7  2  0
  9  5  1  0
 11 10  1  1
 11 13  1  0
 11 12  1  0
 12  7  1  0
 13 18  1  0
 14 13  2  0
 16 15  1  0
 17 16  1  6
 18 17  1  0
 19 21  1  0
 19 17  1  0
 20 19  2  0
M  END
$$$$
