EAS.pdb
     RDKit          3D

 21 20  0  0  1  0  0  0  0  0999 V2000
   19.0455   -9.9162  -16.8076 N   0  0  0  0  0  0  0  0  0  0  0  0
   20.1245   -9.3415  -17.5409 C   0  0  1  0  0  0  0  0  0  0  0  0
   19.7336   -8.8773  -18.8983 C   0  0  0  0  0  0  0  0  0  0  0  0
   19.0974   -9.8637  -19.8027 C   0  0  0  0  0  0  0  0  0  0  0  0
   18.7747   -9.4405  -21.1622 C   0  0  0  0  0  0  0  0  0  0  0  0
   18.3075  -10.1676  -22.0551 O   0  0  0  0  0  0  0  0  0  0  0  0
   20.6724   -8.1755  -16.8060 C   0  0  0  0  0  0  0  0  0  0  0  0
   19.8559   -7.4561  -16.1785 O   0  0  0  0  0  0  0  0  0  0  0  0
   19.0022   -8.0985  -21.5198 O   0  0  0  0  0  0  0  0  0  0  0  0
   24.0863   -6.8656  -16.0078 C   0  0  0  0  0  0  0  0  0  0  0  0
   22.5675   -6.6987  -16.0753 C   0  0  2  0  0  0  0  0  0  0  0  0
   22.0287   -7.8516  -16.7845 N   0  0  0  0  0  0  0  0  0  0  0  0
   22.2092   -5.4217  -16.7392 C   0  0  0  0  0  0  0  0  0  0  0  0
   21.9012   -5.4508  -17.9579 O   0  0  0  0  0  0  0  0  0  0  0  0
   19.6303   -2.0153  -17.4012 O   0  0  0  0  0  0  0  0  0  0  0  0
   20.2171   -3.1804  -16.9627 C   0  0  0  0  0  0  0  0  0  0  0  0
   21.6654   -2.9778  -16.5510 C   0  0  2  0  0  0  0  0  0  0  0  0
   22.2118   -4.1945  -16.0230 N   0  0  0  0  0  0  0  0  0  0  0  0
   21.8563   -1.8065  -15.6941 C   0  0  0  0  0  0  0  0  0  0  0  0
   21.9423   -1.9945  -14.4519 O   0  0  0  0  0  0  0  0  0  0  0  0
   21.9517   -0.4972  -16.1311 O   0  0  0  0  0  0  0  0  0  0  0  0
  2  1  1  1
  3  2  1  0
  4  3  1  0
  4  5  1  0
  5  6  2  0
  7  2  1  0
  8  7  2  0
  9  5  1  0
 11 10  1  6
 11 13  1  0
 11 12  1  0
 12  7  1  0
 13 18  1  0
 14 13  2  0
 16 15  1  0
 17 16  1  1
 18 17  1  0
 19 21  1  0
 19 17  1  0
 20 19  2  0
M  END
$$$$
