WPT.pdb
     RDKit          3D

 29 31  0  0  1  0  0  0  0  0999 V2000
    6.0515  -18.2416   24.6972 N   0  0  0  0  0  0  0  0  0  0  0  0
    6.5431  -17.0229   24.2025 C   0  0  1  0  0  0  0  0  0  0  0  0
    7.3076  -16.3063   25.2779 C   0  0  0  0  0  0  0  0  0  0  0  0
    6.6153  -15.1357   25.8448 C   0  0  0  0  0  0  0  0  0  0  0  0
    5.2959  -14.9769   26.1984 C   0  0  0  0  0  0  0  0  0  0  0  0
    5.1066  -13.7454   26.6741 N   0  0  0  0  0  0  0  0  0  0  0  0
    6.2689  -13.0803   26.6457 C   0  0  0  0  0  0  0  0  0  0  0  0
    6.6024  -11.7760   27.0291 C   0  0  0  0  0  0  0  0  0  0  0  0
    7.8984  -11.3444   26.8887 C   0  0  0  0  0  0  0  0  0  0  0  0
    8.8739  -12.1704   26.3782 C   0  0  0  0  0  0  0  0  0  0  0  0
    8.5066  -13.4559   26.0090 C   0  0  0  0  0  0  0  0  0  0  0  0
    7.2188  -13.9328   26.1316 C   0  0  0  0  0  0  0  0  0  0  0  0
    7.2380  -17.0606   22.8973 C   0  0  0  0  0  0  0  0  0  0  0  0
    7.1713  -18.1655   22.2957 O   0  0  0  0  0  0  0  0  0  0  0  0
    7.9418  -16.0122   22.2893 N   0  0  0  0  0  0  0  0  0  0  0  0
    8.2081  -14.6623   22.7446 C   0  0  0  0  0  0  0  0  0  0  0  0
    8.4895  -13.8286   21.4988 C   0  0  0  0  0  0  0  0  0  0  0  0
    8.1120  -14.7940   20.3743 C   0  0  0  0  0  0  0  0  0  0  0  0
    8.5831  -16.0926   20.9930 C   0  0  1  0  0  0  0  0  0  0  0  0
   10.0650  -16.0358   21.1061 C   0  0  0  0  0  0  0  0  0  0  0  0
   10.6860  -15.2418   21.8578 O   0  0  0  0  0  0  0  0  0  0  0  0
   11.0629  -19.6755   21.7178 C   0  0  0  0  0  0  0  0  0  0  0  0
   12.0018  -19.0553   20.7539 C   0  0  1  0  0  0  0  0  0  0  0  0
   11.6516  -19.4952   19.4772 O   0  0  0  0  0  0  0  0  0  0  0  0
   12.0676  -17.5604   20.8027 C   0  0  2  0  0  0  0  0  0  0  0  0
   10.8580  -16.9231   20.3278 N   0  0  0  0  0  0  0  0  0  0  0  0
   13.2510  -16.9708   20.1939 C   0  0  0  0  0  0  0  0  0  0  0  0
   14.3895  -17.2345   20.7001 O   0  0  0  0  0  0  0  0  0  0  0  0
   13.2718  -16.1335   19.0962 O   0  0  0  0  0  0  0  0  0  0  0  0
  2  1  1  1
  2 13  1  0
  3  2  1  0
  4  3  1  0
  4 12  1  0
  5  6  1  0
  5  4  2  0
  6  7  1  0
  7  8  2  0
  7 12  1  0
  8  9  1  0
  9 10  2  0
 11 10  1  0
 12 11  2  0
 13 15  1  0
 13 14  2  0
 15 16  1  0
 17 16  1  0
 18 17  1  0
 19 20  1  1
 19 18  1  0
 19 15  1  0
 20 21  2  0
 23 22  1  1
 23 25  1  0
 24 23  1  0
 25 26  1  6
 25 27  1  0
 26 20  1  0
 27 28  2  0
 27 29  1  0
M  END
$$$$
