WPT.pdb
     RDKit          3D

 29 31  0  0  1  0  0  0  0  0999 V2000
    6.5445  -17.6163   24.3207 N   0  0  0  0  0  0  0  0  0  0  0  0
    6.9694  -16.4300   23.7011 C   0  0  1  0  0  0  0  0  0  0  0  0
    7.7607  -15.6019   24.6719 C   0  0  0  0  0  0  0  0  0  0  0  0
    6.9445  -14.8169   25.6145 C   0  0  0  0  0  0  0  0  0  0  0  0
    5.8028  -15.1672   26.2965 C   0  0  0  0  0  0  0  0  0  0  0  0
    5.3979  -14.1406   27.0454 N   0  0  0  0  0  0  0  0  0  0  0  0
    6.2430  -13.1150   26.8784 C   0  0  0  0  0  0  0  0  0  0  0  0
    6.2634  -11.8288   27.4304 C   0  0  0  0  0  0  0  0  0  0  0  0
    7.2677  -10.9613   27.0774 C   0  0  0  0  0  0  0  0  0  0  0  0
    8.2532  -11.3337   26.1915 C   0  0  0  0  0  0  0  0  0  0  0  0
    8.2006  -12.6157   25.6649 C   0  0  0  0  0  0  0  0  0  0  0  0
    7.2122  -13.5205   25.9898 C   0  0  0  0  0  0  0  0  0  0  0  0
    7.6003  -16.5581   22.3695 C   0  0  0  0  0  0  0  0  0  0  0  0
    7.6608  -17.7354   21.9252 O   0  0  0  0  0  0  0  0  0  0  0  0
    8.1207  -15.5214   21.5829 N   0  0  0  0  0  0  0  0  0  0  0  0
    8.2153  -14.0976   21.8364 C   0  0  0  0  0  0  0  0  0  0  0  0
    8.3186  -13.4175   20.4751 C   0  0  0  0  0  0  0  0  0  0  0  0
    8.0292  -14.5730   19.5159 C   0  0  0  0  0  0  0  0  0  0  0  0
    8.7064  -15.6973   20.2698 C   0  0  1  0  0  0  0  0  0  0  0  0
   10.1692  -15.4287   20.2775 C   0  0  0  0  0  0  0  0  0  0  0  0
   10.7397  -14.6490   21.0823 O   0  0  0  0  0  0  0  0  0  0  0  0
   11.4385  -17.2489   22.0471 C   0  0  0  0  0  0  0  0  0  0  0  0
   11.9106  -17.8444   20.7752 C   0  0  1  0  0  0  0  0  0  0  0  0
   10.9751  -18.8014   20.3815 O   0  0  0  0  0  0  0  0  0  0  0  0
   12.1679  -16.8656   19.6720 C   0  0  2  0  0  0  0  0  0  0  0  0
   11.0026  -16.0797   19.3270 N   0  0  0  0  0  0  0  0  0  0  0  0
   12.8028  -17.4204   18.4854 C   0  0  0  0  0  0  0  0  0  0  0  0
   12.0868  -17.6211   17.4515 O   0  0  0  0  0  0  0  0  0  0  0  0
   14.1347  -17.7614   18.3574 O   0  0  0  0  0  0  0  0  0  0  0  0
  2  1  1  1
  2 13  1  0
  3  2  1  0
  4  3  1  0
  4 12  1  0
  5  6  1  0
  5  4  2  0
  6  7  1  0
  7  8  2  0
  7 12  1  0
  8  9  1  0
  9 10  2  0
 11 10  1  0
 12 11  2  0
 13 15  1  0
 13 14  2  0
 15 16  1  0
 17 16  1  0
 18 17  1  0
 19 20  1  1
 19 18  1  0
 19 15  1  0
 20 21  2  0
 23 22  1  1
 23 25  1  0
 24 23  1  0
 25 26  1  6
 25 27  1  0
 26 20  1  0
 27 28  2  0
 27 29  1  0
M  END
$$$$
