WPT.pdb
     RDKit          3D

 29 31  0  0  1  0  0  0  0  0999 V2000
    5.6125  -18.0175   24.3160 N   0  0  0  0  0  0  0  0  0  0  0  0
    6.3227  -16.8798   23.9003 C   0  0  1  0  0  0  0  0  0  0  0  0
    7.1640  -16.3617   25.0308 C   0  0  0  0  0  0  0  0  0  0  0  0
    6.5877  -15.2086   25.7445 C   0  0  0  0  0  0  0  0  0  0  0  0
    5.3152  -15.0179   26.2299 C   0  0  0  0  0  0  0  0  0  0  0  0
    5.2343  -13.8201   26.8107 N   0  0  0  0  0  0  0  0  0  0  0  0
    6.4228  -13.2086   26.7238 C   0  0  0  0  0  0  0  0  0  0  0  0
    6.8574  -11.9551   27.1699 C   0  0  0  0  0  0  0  0  0  0  0  0
    8.1567  -11.5735   26.9419 C   0  0  0  0  0  0  0  0  0  0  0  0
    9.0380  -12.4008   26.2834 C   0  0  0  0  0  0  0  0  0  0  0  0
    8.5720  -13.6352   25.8559 C   0  0  0  0  0  0  0  0  0  0  0  0
    7.2769  -14.0608   26.0621 C   0  0  0  0  0  0  0  0  0  0  0  0
    7.0425  -16.9726   22.6115 C   0  0  0  0  0  0  0  0  0  0  0  0
    6.9906  -18.1032   22.0583 O   0  0  0  0  0  0  0  0  0  0  0  0
    7.7548  -15.9495   21.9711 N   0  0  0  0  0  0  0  0  0  0  0  0
    8.0091  -14.5800   22.3715 C   0  0  0  0  0  0  0  0  0  0  0  0
    8.3114  -13.8008   21.0957 C   0  0  0  0  0  0  0  0  0  0  0  0
    7.9575  -14.8160   20.0079 C   0  0  0  0  0  0  0  0  0  0  0  0
    8.4204  -16.0845   20.6917 C   0  0  1  0  0  0  0  0  0  0  0  0
    9.8998  -16.0177   20.8296 C   0  0  0  0  0  0  0  0  0  0  0  0
   10.5014  -15.2444   21.6177 O   0  0  0  0  0  0  0  0  0  0  0  0
   10.9933  -19.6674   21.2791 C   0  0  0  0  0  0  0  0  0  0  0  0
   11.9404  -18.9704   20.3777 C   0  0  1  0  0  0  0  0  0  0  0  0
   11.6539  -19.3679   19.0716 O   0  0  0  0  0  0  0  0  0  0  0  0
   11.9445  -17.4776   20.4914 C   0  0  2  0  0  0  0  0  0  0  0  0
   10.7133  -16.8700   20.0335 N   0  0  0  0  0  0  0  0  0  0  0  0
   13.1071  -16.8146   19.9190 C   0  0  0  0  0  0  0  0  0  0  0  0
   12.9402  -16.0685   18.9004 O   0  0  0  0  0  0  0  0  0  0  0  0
   14.4069  -16.9106   20.3748 O   0  0  0  0  0  0  0  0  0  0  0  0
  2  1  1  1
  2 13  1  0
  3  2  1  0
  4  3  1  0
  4 12  1  0
  5  6  1  0
  5  4  2  0
  6  7  1  0
  7  8  2  0
  7 12  1  0
  8  9  1  0
  9 10  2  0
 11 10  1  0
 12 11  2  0
 13 15  1  0
 13 14  2  0
 15 16  1  0
 17 16  1  0
 18 17  1  0
 19 20  1  1
 19 18  1  0
 19 15  1  0
 20 21  2  0
 23 22  1  1
 23 25  1  0
 24 23  1  0
 25 26  1  6
 25 27  1  0
 26 20  1  0
 27 28  2  0
 27 29  1  0
M  END
$$$$
