WPT.pdb
     RDKit          3D

 29 31  0  0  1  0  0  0  0  0999 V2000
    5.7842  -17.8871   24.7166 N   0  0  0  0  0  0  0  0  0  0  0  0
    6.4016  -16.7745   24.1228 C   0  0  1  0  0  0  0  0  0  0  0  0
    7.2752  -16.0790   25.1265 C   0  0  0  0  0  0  0  0  0  0  0  0
    6.6501  -14.9161   25.7806 C   0  0  0  0  0  0  0  0  0  0  0  0
    5.3557  -14.7348   26.2083 C   0  0  0  0  0  0  0  0  0  0  0  0
    5.2302  -13.5219   26.7485 N   0  0  0  0  0  0  0  0  0  0  0  0
    6.4103  -12.8911   26.6907 C   0  0  0  0  0  0  0  0  0  0  0  0
    6.8044  -11.6168   27.1152 C   0  0  0  0  0  0  0  0  0  0  0  0
    8.1050  -11.2179   26.9282 C   0  0  0  0  0  0  0  0  0  0  0  0
    9.0268  -12.0479   26.3314 C   0  0  0  0  0  0  0  0  0  0  0  0
    8.6003  -13.3031   25.9235 C   0  0  0  0  0  0  0  0  0  0  0  0
    7.3055  -13.7466   26.0904 C   0  0  0  0  0  0  0  0  0  0  0  0
    7.0499  -16.9886   22.8107 C   0  0  0  0  0  0  0  0  0  0  0  0
    6.9809  -18.1683   22.3741 O   0  0  0  0  0  0  0  0  0  0  0  0
    7.7133  -16.0286   22.0345 N   0  0  0  0  0  0  0  0  0  0  0  0
    7.9220  -14.6117   22.2570 C   0  0  0  0  0  0  0  0  0  0  0  0
    8.1753  -13.9873   20.8887 C   0  0  0  0  0  0  0  0  0  0  0  0
    7.8433  -15.1419   19.9423 C   0  0  0  0  0  0  0  0  0  0  0  0
    8.3639  -16.2981   20.7687 C   0  0  1  0  0  0  0  0  0  0  0  0
    9.8417  -16.1624   20.8679 C   0  0  0  0  0  0  0  0  0  0  0  0
   10.4257  -15.2585   21.5182 O   0  0  0  0  0  0  0  0  0  0  0  0
   11.5186  -19.2034   22.2666 C   0  0  0  0  0  0  0  0  0  0  0  0
   12.2160  -18.8279   21.0144 C   0  0  1  0  0  0  0  0  0  0  0  0
   11.7936  -19.7038   20.0142 O   0  0  0  0  0  0  0  0  0  0  0  0
   12.0338  -17.4045   20.5877 C   0  0  2  0  0  0  0  0  0  0  0  0
   10.6744  -17.0988   20.1960 N   0  0  0  0  0  0  0  0  0  0  0  0
   12.9900  -16.9251   19.6005 C   0  0  0  0  0  0  0  0  0  0  0  0
   12.5708  -16.6625   18.4269 O   0  0  0  0  0  0  0  0  0  0  0  0
   14.3397  -16.7187   19.8060 O   0  0  0  0  0  0  0  0  0  0  0  0
  2  1  1  1
  2 13  1  0
  3  2  1  0
  4  3  1  0
  4 12  1  0
  5  6  1  0
  5  4  2  0
  6  7  1  0
  7  8  2  0
  7 12  1  0
  8  9  1  0
  9 10  2  0
 11 10  1  0
 12 11  2  0
 13 15  1  0
 13 14  2  0
 15 16  1  0
 17 16  1  0
 18 17  1  0
 19 20  1  1
 19 18  1  0
 19 15  1  0
 20 21  2  0
 23 22  1  1
 23 25  1  0
 24 23  1  0
 25 26  1  6
 25 27  1  0
 26 20  1  0
 27 28  2  0
 27 29  1  0
M  END
$$$$
