WPT.pdb
     RDKit          3D

 29 31  0  0  1  0  0  0  0  0999 V2000
    6.1036  -16.9501   24.3143 N   0  0  0  0  0  0  0  0  0  0  0  0
    6.5983  -15.8682   23.5684 C   0  0  1  0  0  0  0  0  0  0  0  0
    7.7874  -15.2701   24.2631 C   0  0  0  0  0  0  0  0  0  0  0  0
    7.5040  -14.7252   25.6024 C   0  0  0  0  0  0  0  0  0  0  0  0
    7.2860  -15.3788   26.7926 C   0  0  0  0  0  0  0  0  0  0  0  0
    7.0677  -14.4855   27.7586 N   0  0  0  0  0  0  0  0  0  0  0  0
    7.1352  -13.2525   27.2399 C   0  0  0  0  0  0  0  0  0  0  0  0
    6.9824  -11.9895   27.8236 C   0  0  0  0  0  0  0  0  0  0  0  0
    7.1058  -10.8677   27.0413 C   0  0  0  0  0  0  0  0  0  0  0  0
    7.3768  -10.9631   25.6951 C   0  0  0  0  0  0  0  0  0  0  0  0
    7.5217  -12.2309   25.1515 C   0  0  0  0  0  0  0  0  0  0  0  0
    7.4064  -13.3848   25.8973 C   0  0  0  0  0  0  0  0  0  0  0  0
    6.7993  -16.0889   22.1197 C   0  0  0  0  0  0  0  0  0  0  0  0
    6.2941  -17.1529   21.6729 O   0  0  0  0  0  0  0  0  0  0  0  0
    7.4796  -15.2485   21.2280 N   0  0  0  0  0  0  0  0  0  0  0  0
    8.0991  -13.9544   21.4333 C   0  0  0  0  0  0  0  0  0  0  0  0
    8.1639  -13.2795   20.0671 C   0  0  0  0  0  0  0  0  0  0  0  0
    7.3206  -14.2193   19.2042 C   0  0  0  0  0  0  0  0  0  0  0  0
    7.7069  -15.5431   19.8281 C   0  0  1  0  0  0  0  0  0  0  0  0
    9.1465  -15.7828   19.5414 C   0  0  0  0  0  0  0  0  0  0  0  0
   10.0854  -15.0953   20.0177 O   0  0  0  0  0  0  0  0  0  0  0  0
   10.1872  -19.4936   20.1112 C   0  0  0  0  0  0  0  0  0  0  0  0
   10.7071  -18.9946   18.8166 C   0  0  1  0  0  0  0  0  0  0  0  0
    9.8995  -19.5159   17.8056 O   0  0  0  0  0  0  0  0  0  0  0  0
   10.8072  -17.5051   18.7035 C   0  0  2  0  0  0  0  0  0  0  0  0
    9.5170  -16.8497   18.6776 N   0  0  0  0  0  0  0  0  0  0  0  0
   11.6691  -17.0202   17.6354 C   0  0  0  0  0  0  0  0  0  0  0  0
   11.1373  -16.3895   16.6652 O   0  0  0  0  0  0  0  0  0  0  0  0
   13.0391  -17.1750   17.5597 O   0  0  0  0  0  0  0  0  0  0  0  0
  2  1  1  1
  2 13  1  0
  3  2  1  0
  4  3  1  0
  4 12  1  0
  5  6  1  0
  5  4  2  0
  6  7  1  0
  7  8  2  0
  7 12  1  0
  8  9  1  0
  9 10  2  0
 11 10  1  0
 12 11  2  0
 13 15  1  0
 13 14  2  0
 15 16  1  0
 17 16  1  0
 18 17  1  0
 19 20  1  1
 19 18  1  0
 19 15  1  0
 20 21  2  0
 23 22  1  1
 23 25  1  0
 24 23  1  0
 25 26  1  6
 25 27  1  0
 26 20  1  0
 27 28  2  0
 27 29  1  0
M  END
$$$$
