WPT.pdb
     RDKit          3D

 29 31  0  0  1  0  0  0  0  0999 V2000
    6.1138  -17.8897   24.4473 N   0  0  0  0  0  0  0  0  0  0  0  0
    6.7294  -16.7544   23.8960 C   0  0  1  0  0  0  0  0  0  0  0  0
    7.5279  -16.0437   24.9503 C   0  0  0  0  0  0  0  0  0  0  0  0
    6.7696  -15.0440   25.7225 C   0  0  0  0  0  0  0  0  0  0  0  0
    5.5164  -15.1271   26.2827 C   0  0  0  0  0  0  0  0  0  0  0  0
    5.2248  -13.9792   26.8958 N   0  0  0  0  0  0  0  0  0  0  0  0
    6.2542  -13.1335   26.7574 C   0  0  0  0  0  0  0  0  0  0  0  0
    6.4466  -11.8225   27.2085 C   0  0  0  0  0  0  0  0  0  0  0  0
    7.6232  -11.1770   26.9176 C   0  0  0  0  0  0  0  0  0  0  0  0
    8.6154  -11.7955   26.1912 C   0  0  0  0  0  0  0  0  0  0  0  0
    8.3895  -13.0946   25.7608 C   0  0  0  0  0  0  0  0  0  0  0  0
    7.2247  -13.7820   26.0287 C   0  0  0  0  0  0  0  0  0  0  0  0
    7.4524  -16.9376   22.6187 C   0  0  0  0  0  0  0  0  0  0  0  0
    7.4564  -18.1182   22.1791 O   0  0  0  0  0  0  0  0  0  0  0  0
    8.1129  -15.9484   21.8775 N   0  0  0  0  0  0  0  0  0  0  0  0
    8.3583  -14.5508   22.1726 C   0  0  0  0  0  0  0  0  0  0  0  0
    8.5843  -13.8549   20.8343 C   0  0  0  0  0  0  0  0  0  0  0  0
    8.1999  -14.9472   19.8353 C   0  0  0  0  0  0  0  0  0  0  0  0
    8.7199  -16.1585   20.5792 C   0  0  1  0  0  0  0  0  0  0  0  0
   10.2025  -16.0576   20.6405 C   0  0  0  0  0  0  0  0  0  0  0  0
   10.8246  -15.1976   21.3147 O   0  0  0  0  0  0  0  0  0  0  0  0
   11.5345  -19.2210   22.0021 C   0  0  0  0  0  0  0  0  0  0  0  0
   12.2352  -18.9301   20.7294 C   0  0  1  0  0  0  0  0  0  0  0  0
   11.6334  -19.6942   19.7293 O   0  0  0  0  0  0  0  0  0  0  0  0
   12.2768  -17.4844   20.3427 C   0  0  2  0  0  0  0  0  0  0  0  0
   10.9950  -16.9778   19.9008 N   0  0  0  0  0  0  0  0  0  0  0  0
   13.3384  -17.1199   19.4160 C   0  0  0  0  0  0  0  0  0  0  0  0
   13.0189  -16.7721   18.2333 O   0  0  0  0  0  0  0  0  0  0  0  0
   14.6918  -17.1103   19.6898 O   0  0  0  0  0  0  0  0  0  0  0  0
  2  1  1  1
  2 13  1  0
  3  2  1  0
  4  3  1  0
  4 12  1  0
  5  6  1  0
  5  4  2  0
  6  7  1  0
  7  8  2  0
  7 12  1  0
  8  9  1  0
  9 10  2  0
 11 10  1  0
 12 11  2  0
 13 15  1  0
 13 14  2  0
 15 16  1  0
 17 16  1  0
 18 17  1  0
 19 20  1  1
 19 18  1  0
 19 15  1  0
 20 21  2  0
 23 22  1  1
 23 25  1  0
 24 23  1  0
 25 26  1  6
 25 27  1  0
 26 20  1  0
 27 28  2  0
 27 29  1  0
M  END
$$$$
