WPT.pdb
     RDKit          3D

 29 31  0  0  1  0  0  0  0  0999 V2000
    6.1658  -17.3083   24.0671 N   0  0  0  0  0  0  0  0  0  0  0  0
    6.6997  -16.1602   23.4601 C   0  0  1  0  0  0  0  0  0  0  0  0
    7.5520  -15.4117   24.4438 C   0  0  0  0  0  0  0  0  0  0  0  0
    6.7986  -14.7167   25.5023 C   0  0  0  0  0  0  0  0  0  0  0  0
    5.7902  -15.1783   26.3156 C   0  0  0  0  0  0  0  0  0  0  0  0
    5.3966  -14.2028   27.1354 N   0  0  0  0  0  0  0  0  0  0  0  0
    6.1190  -13.1025   26.8875 C   0  0  0  0  0  0  0  0  0  0  0  0
    6.0970  -11.8272   27.4642 C   0  0  0  0  0  0  0  0  0  0  0  0
    6.9666  -10.8675   27.0074 C   0  0  0  0  0  0  0  0  0  0  0  0
    7.8582  -11.1370   25.9940 C   0  0  0  0  0  0  0  0  0  0  0  0
    7.8513  -12.4114   25.4466 C   0  0  0  0  0  0  0  0  0  0  0  0
    6.9971  -13.4064   25.8725 C   0  0  0  0  0  0  0  0  0  0  0  0
    7.3292  -16.3347   22.1331 C   0  0  0  0  0  0  0  0  0  0  0  0
    7.2082  -17.4872   21.6390 O   0  0  0  0  0  0  0  0  0  0  0  0
    8.0265  -15.3651   21.3997 N   0  0  0  0  0  0  0  0  0  0  0  0
    8.3891  -14.0031   21.7372 C   0  0  0  0  0  0  0  0  0  0  0  0
    8.6037  -13.2684   20.4179 C   0  0  0  0  0  0  0  0  0  0  0  0
    8.0924  -14.2858   19.3969 C   0  0  0  0  0  0  0  0  0  0  0  0
    8.5547  -15.5626   20.0654 C   0  0  1  0  0  0  0  0  0  0  0  0
   10.0419  -15.5726   20.0567 C   0  0  0  0  0  0  0  0  0  0  0  0
   10.7539  -14.5525   19.8737 O   0  0  0  0  0  0  0  0  0  0  0  0
   11.2844  -16.8364   23.3327 C   0  0  0  0  0  0  0  0  0  0  0  0
   11.9369  -17.6069   22.2483 C   0  0  1  0  0  0  0  0  0  0  0  0
   11.2624  -18.8219   22.1257 O   0  0  0  0  0  0  0  0  0  0  0  0
   12.0145  -16.9053   20.9281 C   0  0  2  0  0  0  0  0  0  0  0  0
   10.7321  -16.7981   20.2658 N   0  0  0  0  0  0  0  0  0  0  0  0
   13.0392  -17.4011   20.0209 C   0  0  0  0  0  0  0  0  0  0  0  0
   14.2515  -17.0780   20.2396 O   0  0  0  0  0  0  0  0  0  0  0  0
   12.8317  -18.2065   18.9186 O   0  0  0  0  0  0  0  0  0  0  0  0
  2  1  1  1
  2 13  1  0
  3  2  1  0
  4  3  1  0
  4 12  1  0
  5  6  1  0
  5  4  2  0
  6  7  1  0
  7  8  2  0
  7 12  1  0
  8  9  1  0
  9 10  2  0
 11 10  1  0
 12 11  2  0
 13 15  1  0
 13 14  2  0
 15 16  1  0
 17 16  1  0
 18 17  1  0
 19 20  1  1
 19 18  1  0
 19 15  1  0
 20 21  2  0
 23 22  1  1
 23 25  1  0
 24 23  1  0
 25 26  1  6
 25 27  1  0
 26 20  1  0
 27 28  2  0
 27 29  1  0
M  END
$$$$
