WPT.pdb
     RDKit          3D

 29 31  0  0  1  0  0  0  0  0999 V2000
    6.1833  -17.5635   24.0967 N   0  0  0  0  0  0  0  0  0  0  0  0
    6.7302  -16.3929   23.5470 C   0  0  1  0  0  0  0  0  0  0  0  0
    7.5294  -15.6646   24.5887 C   0  0  0  0  0  0  0  0  0  0  0  0
    6.7328  -14.8040   25.4808 C   0  0  0  0  0  0  0  0  0  0  0  0
    5.5052  -15.0290   26.0586 C   0  0  0  0  0  0  0  0  0  0  0  0
    5.1597  -13.9736   26.7971 N   0  0  0  0  0  0  0  0  0  0  0  0
    6.1282  -13.0511   26.7250 C   0  0  0  0  0  0  0  0  0  0  0  0
    6.2499  -11.7846   27.3084 C   0  0  0  0  0  0  0  0  0  0  0  0
    7.3733  -11.0350   27.0599 C   0  0  0  0  0  0  0  0  0  0  0  0
    8.3803  -11.5064   26.2485 C   0  0  0  0  0  0  0  0  0  0  0  0
    8.2250  -12.7654   25.6878 C   0  0  0  0  0  0  0  0  0  0  0  0
    7.1154  -13.5535   25.9086 C   0  0  0  0  0  0  0  0  0  0  0  0
    7.4199  -16.5223   22.2450 C   0  0  0  0  0  0  0  0  0  0  0  0
    7.4500  -17.6918   21.7777 O   0  0  0  0  0  0  0  0  0  0  0  0
    8.0240  -15.4946   21.5081 N   0  0  0  0  0  0  0  0  0  0  0  0
    8.1942  -14.0875   21.8108 C   0  0  0  0  0  0  0  0  0  0  0  0
    8.3787  -13.3727   20.4761 C   0  0  0  0  0  0  0  0  0  0  0  0
    8.0513  -14.4785   19.4716 C   0  0  0  0  0  0  0  0  0  0  0  0
    8.6381  -15.6641   20.2072 C   0  0  1  0  0  0  0  0  0  0  0  0
   10.1132  -15.4836   20.2656 C   0  0  0  0  0  0  0  0  0  0  0  0
   10.7079  -14.8094   21.1447 O   0  0  0  0  0  0  0  0  0  0  0  0
   11.0427  -17.7620   21.7765 C   0  0  0  0  0  0  0  0  0  0  0  0
   11.5809  -18.1575   20.4539 C   0  0  1  0  0  0  0  0  0  0  0  0
   10.6163  -18.9410   19.8201 O   0  0  0  0  0  0  0  0  0  0  0  0
   12.0061  -17.0222   19.5754 C   0  0  2  0  0  0  0  0  0  0  0  0
   10.9306  -16.1001   19.2789 N   0  0  0  0  0  0  0  0  0  0  0  0
   12.7225  -17.4062   18.3678 C   0  0  0  0  0  0  0  0  0  0  0  0
   12.1093  -17.3464   17.2532 O   0  0  0  0  0  0  0  0  0  0  0  0
   14.0316  -17.8399   18.2998 O   0  0  0  0  0  0  0  0  0  0  0  0
  2  1  1  1
  2 13  1  0
  3  2  1  0
  4  3  1  0
  4 12  1  0
  5  6  1  0
  5  4  2  0
  6  7  1  0
  7  8  2  0
  7 12  1  0
  8  9  1  0
  9 10  2  0
 11 10  1  0
 12 11  2  0
 13 15  1  0
 13 14  2  0
 15 16  1  0
 17 16  1  0
 18 17  1  0
 19 20  1  1
 19 18  1  0
 19 15  1  0
 20 21  2  0
 23 22  1  1
 23 25  1  0
 24 23  1  0
 25 26  1  6
 25 27  1  0
 26 20  1  0
 27 28  2  0
 27 29  1  0
M  END
$$$$
