WPT.pdb
     RDKit          3D

 29 31  0  0  1  0  0  0  0  0999 V2000
    6.7664  -16.8161   25.7406 N   0  0  0  0  0  0  0  0  0  0  0  0
    7.2251  -15.9254   24.7568 C   0  0  1  0  0  0  0  0  0  0  0  0
    8.4804  -15.2484   25.2262 C   0  0  0  0  0  0  0  0  0  0  0  0
    8.3037  -14.3782   26.4020 C   0  0  0  0  0  0  0  0  0  0  0  0
    8.8569  -14.4691   27.6578 C   0  0  0  0  0  0  0  0  0  0  0  0
    8.4180  -13.4611   28.4127 N   0  0  0  0  0  0  0  0  0  0  0  0
    7.5856  -12.7009   27.6893 C   0  0  0  0  0  0  0  0  0  0  0  0
    6.8694  -11.5421   28.0112 C   0  0  0  0  0  0  0  0  0  0  0  0
    6.0742  -10.9562   27.0571 C   0  0  0  0  0  0  0  0  0  0  0  0
    5.9692  -11.4876   25.7917 C   0  0  0  0  0  0  0  0  0  0  0  0
    6.6932  -12.6363   25.5090 C   0  0  0  0  0  0  0  0  0  0  0  0
    7.5039  -13.2591   26.4342 C   0  0  0  0  0  0  0  0  0  0  0  0
    7.3032  -16.4385   23.3718 C   0  0  0  0  0  0  0  0  0  0  0  0
    6.9144  -17.6280   23.2270 O   0  0  0  0  0  0  0  0  0  0  0  0
    7.7567  -15.7435   22.2424 N   0  0  0  0  0  0  0  0  0  0  0  0
    8.1041  -14.3474   22.0670 C   0  0  0  0  0  0  0  0  0  0  0  0
    7.9697  -14.0476   20.5776 C   0  0  0  0  0  0  0  0  0  0  0  0
    7.3022  -15.3196   20.0528 C   0  0  0  0  0  0  0  0  0  0  0  0
    7.9796  -16.3405   20.9416 C   0  0  1  0  0  0  0  0  0  0  0  0
    9.4240  -16.3699   20.5882 C   0  0  0  0  0  0  0  0  0  0  0  0
   10.3146  -15.7297   21.2030 O   0  0  0  0  0  0  0  0  0  0  0  0
   10.9623  -18.2839   22.0176 C   0  0  0  0  0  0  0  0  0  0  0  0
   11.0425  -18.9466   20.6948 C   0  0  1  0  0  0  0  0  0  0  0  0
    9.9992  -19.8694   20.6183 O   0  0  0  0  0  0  0  0  0  0  0  0
   11.0224  -18.0212   19.5180 C   0  0  2  0  0  0  0  0  0  0  0  0
    9.8571  -17.1631   19.4905 N   0  0  0  0  0  0  0  0  0  0  0  0
   11.2444  -18.6545   18.2263 C   0  0  0  0  0  0  0  0  0  0  0  0
   10.2493  -18.8081   17.4465 O   0  0  0  0  0  0  0  0  0  0  0  0
   12.4515  -19.1191   17.7430 O   0  0  0  0  0  0  0  0  0  0  0  0
  2  1  1  1
  2 13  1  0
  3  2  1  0
  4  3  1  0
  4 12  1  0
  5  6  1  0
  5  4  2  0
  6  7  1  0
  7  8  2  0
  7 12  1  0
  8  9  1  0
  9 10  2  0
 11 10  1  0
 12 11  2  0
 13 15  1  0
 13 14  2  0
 15 16  1  0
 17 16  1  0
 18 17  1  0
 19 20  1  6
 19 18  1  0
 19 15  1  0
 20 21  2  0
 23 22  1  1
 23 25  1  0
 24 23  1  0
 25 26  1  6
 25 27  1  0
 26 20  1  0
 27 28  2  0
 27 29  1  0
M  END
$$$$
