CAI.pdb
     RDKit          3D

 20 19  0  0  1  0  0  0  0  0999 V2000
   19.5809  -12.7495  -20.9324 N   0  0  0  0  0  0  0  0  0  0  0  0
   18.6511  -12.1303  -20.0420 C   0  0  1  0  0  0  0  0  0  0  0  0
   18.3703  -13.1084  -18.9104 C   0  0  0  0  0  0  0  0  0  0  0  0
   17.4086  -14.5236  -19.4685 S   0  0  0  0  0  0  0  0  0  0  0  0
   19.2788  -10.9191  -19.4346 C   0  0  0  0  0  0  0  0  0  0  0  0
   20.4879  -10.8905  -19.0793 O   0  0  0  0  0  0  0  0  0  0  0  0
   18.1613   -7.3212  -18.8558 C   0  0  0  0  0  0  0  0  0  0  0  0
   19.1149   -8.4895  -18.7502 C   0  0  2  0  0  0  0  0  0  0  0  0
   18.5334   -9.7210  -19.2239 N   0  0  0  0  0  0  0  0  0  0  0  0
   19.6079   -8.6824  -17.3662 C   0  0  0  0  0  0  0  0  0  0  0  0
   18.9386   -9.3466  -16.5090 O   0  0  0  0  0  0  0  0  0  0  0  0
   23.7749  -10.7643  -13.9264 C   0  0  0  0  0  0  0  0  0  0  0  0
   22.7811   -9.6357  -14.0381 C   0  0  0  0  0  0  0  0  0  0  0  0
   22.4097   -9.3751  -15.4662 C   0  0  2  0  0  0  0  0  0  0  0  0
   23.6368   -9.0121  -16.2665 C   0  0  0  0  0  0  0  0  0  0  0  0
   21.3350   -8.3484  -15.5340 C   0  0  2  0  0  0  0  0  0  0  0  0
   20.8400   -8.1516  -16.9002 N   0  0  0  0  0  0  0  0  0  0  0  0
   21.6343   -7.0659  -14.8889 C   0  0  0  0  0  0  0  0  0  0  0  0
   21.7461   -7.0396  -13.6150 O   0  0  0  0  0  0  0  0  0  0  0  0
   21.8111   -5.8614  -15.5285 O   0  0  0  0  0  0  0  0  0  0  0  0
  2  1  1  6
  3  4  1  0
  3  2  1  0
  5  2  1  0
  6  5  2  0
  8  9  1  0
  8  7  1  1
  9  5  1  0
 10  8  1  0
 11 10  2  0
 12 13  1  0
 13 14  1  0
 14 15  1  6
 14 16  1  0
 16 18  1  0
 16 17  1  6
 17 10  1  0
 18 20  1  0
 19 18  2  0
M  END
$$$$
