CAI.pdb
     RDKit          3D

 20 19  0  0  1  0  0  0  0  0999 V2000
   16.1559  -12.6244  -14.0294 N   0  0  0  0  0  0  0  0  0  0  0  0
   16.0350  -11.2237  -14.2826 C   0  0  1  0  0  0  0  0  0  0  0  0
   14.5835  -10.9407  -14.6422 C   0  0  0  0  0  0  0  0  0  0  0  0
   14.1547  -11.5885  -16.2656 S   0  0  0  0  0  0  0  0  0  0  0  0
   16.3368  -10.4666  -13.0314 C   0  0  0  0  0  0  0  0  0  0  0  0
   15.8347  -10.7751  -11.9170 O   0  0  0  0  0  0  0  0  0  0  0  0
   18.8001   -7.7488  -12.0432 C   0  0  0  0  0  0  0  0  0  0  0  0
   17.5598   -8.5919  -11.8532 C   0  0  2  0  0  0  0  0  0  0  0  0
   17.2178   -9.3445  -13.0346 N   0  0  0  0  0  0  0  0  0  0  0  0
   16.3927   -7.7794  -11.4365 C   0  0  0  0  0  0  0  0  0  0  0  0
   15.6032   -7.2624  -12.2928 O   0  0  0  0  0  0  0  0  0  0  0  0
   12.0081   -6.7670   -8.4042 C   0  0  0  0  0  0  0  0  0  0  0  0
   13.2867   -6.0753   -8.0037 C   0  0  0  0  0  0  0  0  0  0  0  0
   14.4840   -6.9240   -8.3060 C   0  0  2  0  0  0  0  0  0  0  0  0
   15.5176   -6.7752   -7.2162 C   0  0  0  0  0  0  0  0  0  0  0  0
   15.0055   -6.6049   -9.6624 C   0  0  2  0  0  0  0  0  0  0  0  0
   16.0727   -7.5210  -10.0771 N   0  0  0  0  0  0  0  0  0  0  0  0
   15.3894   -5.2076   -9.8875 C   0  0  0  0  0  0  0  0  0  0  0  0
   16.6073   -4.8734   -9.6847 O   0  0  0  0  0  0  0  0  0  0  0  0
   14.5546   -4.1972  -10.3039 O   0  0  0  0  0  0  0  0  0  0  0  0
  2  1  1  1
  3  4  1  0
  3  2  1  0
  5  2  1  0
  6  5  2  0
  8  9  1  0
  8  7  1  6
  9  5  1  0
 10  8  1  0
 11 10  2  0
 12 13  1  0
 13 14  1  0
 14 15  1  1
 14 16  1  0
 16 18  1  0
 16 17  1  1
 17 10  1  0
 18 20  1  0
 19 18  2  0
M  END
$$$$
