CAI.pdb
     RDKit          3D

 20 19  0  0  1  0  0  0  0  0999 V2000
   14.4348  -19.0546    2.1715 N   0  0  0  0  0  0  0  0  0  0  0  0
   15.4974  -19.3749    3.0710 C   0  0  1  0  0  0  0  0  0  0  0  0
   16.7935  -19.3852    2.2734 C   0  0  0  0  0  0  0  0  0  0  0  0
   16.9035  -20.8169    1.1884 S   0  0  0  0  0  0  0  0  0  0  0  0
   15.6182  -18.2976    4.0980 C   0  0  0  0  0  0  0  0  0  0  0  0
   15.4907  -17.0759    3.8143 O   0  0  0  0  0  0  0  0  0  0  0  0
   15.6496  -18.2116    7.8797 C   0  0  0  0  0  0  0  0  0  0  0  0
   15.9054  -17.6119    6.5158 C   0  0  2  0  0  0  0  0  0  0  0  0
   15.8869  -18.6002    5.4660 N   0  0  0  0  0  0  0  0  0  0  0  0
   17.1870  -16.8696    6.4655 C   0  0  0  0  0  0  0  0  0  0  0  0
   18.2660  -17.4317    6.0863 O   0  0  0  0  0  0  0  0  0  0  0  0
   19.5125  -11.4858    5.0158 C   0  0  0  0  0  0  0  0  0  0  0  0
   19.6786  -12.7863    5.7609 C   0  0  0  0  0  0  0  0  0  0  0  0
   18.3540  -13.4310    6.0350 C   0  0  2  0  0  0  0  0  0  0  0  0
   17.4665  -12.4898    6.8125 C   0  0  0  0  0  0  0  0  0  0  0  0
   18.5553  -14.7433    6.7065 C   0  0  2  0  0  0  0  0  0  0  0  0
   17.3065  -15.5020    6.8293 N   0  0  0  0  0  0  0  0  0  0  0  0
   19.2795  -14.7050    7.9811 C   0  0  0  0  0  0  0  0  0  0  0  0
   20.5431  -14.5087    7.9546 O   0  0  0  0  0  0  0  0  0  0  0  0
   18.7260  -14.8620    9.2301 O   0  0  0  0  0  0  0  0  0  0  0  0
  2  1  1  6
  3  4  1  0
  3  2  1  0
  5  2  1  0
  6  5  2  0
  8  9  1  0
  8  7  1  1
  9  5  1  0
 10  8  1  0
 11 10  2  0
 12 13  1  0
 13 14  1  0
 14 15  1  1
 14 16  1  0
 16 18  1  0
 16 17  1  1
 17 10  1  0
 18 20  1  0
 19 18  2  0
M  END
$$$$
