CAI.pdb
     RDKit          3D

 20 19  0  0  1  0  0  0  0  0999 V2000
   13.6254  -11.5861  -10.1648 N   0  0  0  0  0  0  0  0  0  0  0  0
   13.9353  -10.4375  -10.9556 C   0  0  1  0  0  0  0  0  0  0  0  0
   12.6304   -9.9017  -11.5270 C   0  0  0  0  0  0  0  0  0  0  0  0
   12.0269  -10.9133  -12.8875 S   0  0  0  0  0  0  0  0  0  0  0  0
   14.5052   -9.3718  -10.0786 C   0  0  0  0  0  0  0  0  0  0  0  0
   13.8834   -8.9108   -9.0837 O   0  0  0  0  0  0  0  0  0  0  0  0
   17.8571   -7.5869   -9.8032 C   0  0  0  0  0  0  0  0  0  0  0  0
   16.3817   -7.7674   -9.5280 C   0  0  2  0  0  0  0  0  0  0  0  0
   15.7958   -8.8160  -10.3256 N   0  0  0  0  0  0  0  0  0  0  0  0
   15.6195   -6.5133   -9.7335 C   0  0  0  0  0  0  0  0  0  0  0  0
   15.1600   -6.1951  -10.8787 O   0  0  0  0  0  0  0  0  0  0  0  0
   12.5497   -4.4194   -5.7412 C   0  0  0  0  0  0  0  0  0  0  0  0
   13.1260   -4.8653   -7.0614 C   0  0  0  0  0  0  0  0  0  0  0  0
   14.0128   -3.8124   -7.6531 C   0  0  2  0  0  0  0  0  0  0  0  0
   13.2404   -2.5310   -7.8519 C   0  0  0  0  0  0  0  0  0  0  0  0
   14.6452   -4.3206   -8.9003 C   0  0  2  0  0  0  0  0  0  0  0  0
   15.3491   -5.5895   -8.6892 N   0  0  0  0  0  0  0  0  0  0  0  0
   15.4850   -3.3633   -9.6274 C   0  0  0  0  0  0  0  0  0  0  0  0
   16.7104   -3.2461   -9.2802 O   0  0  0  0  0  0  0  0  0  0  0  0
   15.0802   -2.5608  -10.6682 O   0  0  0  0  0  0  0  0  0  0  0  0
  2  1  1  1
  3  4  1  0
  3  2  1  0
  5  2  1  0
  6  5  2  0
  8  9  1  0
  8  7  1  6
  9  5  1  0
 10  8  1  0
 11 10  2  0
 12 13  1  0
 13 14  1  0
 14 15  1  6
 14 16  1  0
 16 18  1  0
 16 17  1  1
 17 10  1  0
 18 20  1  0
 19 18  2  0
M  END
$$$$
