CAI.pdb
     RDKit          3D

 20 19  0  0  1  0  0  0  0  0999 V2000
   14.8735  -12.6354  -17.0841 N   0  0  0  0  0  0  0  0  0  0  0  0
   14.9683  -11.4857  -16.2417 C   0  0  1  0  0  0  0  0  0  0  0  0
   15.1786  -11.9718  -14.8149 C   0  0  0  0  0  0  0  0  0  0  0  0
   13.6747  -12.6688  -14.1139 S   0  0  0  0  0  0  0  0  0  0  0  0
   16.1749  -10.6920  -16.6212 C   0  0  0  0  0  0  0  0  0  0  0  0
   17.2821  -11.2317  -16.8895 O   0  0  0  0  0  0  0  0  0  0  0  0
   16.8743   -7.0410  -17.4252 C   0  0  0  0  0  0  0  0  0  0  0  0
   17.2688   -8.4538  -17.0596 C   0  0  2  0  0  0  0  0  0  0  0  0
   16.1345   -9.2681  -16.7001 N   0  0  0  0  0  0  0  0  0  0  0  0
   18.2625   -8.4876  -15.9608 C   0  0  0  0  0  0  0  0  0  0  0  0
   17.9023   -8.5761  -14.7416 O   0  0  0  0  0  0  0  0  0  0  0  0
   23.1864  -10.9815  -13.8630 C   0  0  0  0  0  0  0  0  0  0  0  0
   22.3518   -9.7259  -13.8919 C   0  0  0  0  0  0  0  0  0  0  0  0
   21.4896   -9.6718  -15.1162 C   0  0  2  0  0  0  0  0  0  0  0  0
   22.3386   -9.7950  -16.3581 C   0  0  0  0  0  0  0  0  0  0  0  0
   20.6497   -8.4440  -15.0942 C   0  0  2  0  0  0  0  0  0  0  0  0
   19.6643   -8.4253  -16.1799 N   0  0  0  0  0  0  0  0  0  0  0  0
   21.3770   -7.1730  -15.0166 C   0  0  0  0  0  0  0  0  0  0  0  0
   21.5727   -6.5196  -16.0987 O   0  0  0  0  0  0  0  0  0  0  0  0
   21.8813   -6.5989  -13.8733 O   0  0  0  0  0  0  0  0  0  0  0  0
  2  1  1  6
  3  4  1  0
  3  2  1  0
  5  2  1  0
  6  5  2  0
  8  9  1  0
  8  7  1  1
  9  5  1  0
 10  8  1  0
 11 10  2  0
 12 13  1  0
 13 14  1  0
 14 15  1  6
 14 16  1  0
 16 18  1  0
 16 17  1  6
 17 10  1  0
 18 20  1  0
 19 18  2  0
M  END
$$$$
