NVI.pdb
     RDKit          3D

 24 23  0  0  1  0  0  0  0  0999 V2000
   11.6441  -19.6958   18.3690 N   0  0  0  0  0  0  0  0  0  0  0  0
   10.9388  -20.0727   19.5435 C   0  0  0  0  0  0  0  0  0  0  0  0
   10.6821  -21.2879   19.7191 O   0  0  0  0  0  0  0  0  0  0  0  0
   10.5363  -19.0222   20.5097 C   0  0  0  0  0  0  0  0  0  0  0  0
   10.7855  -17.6451   20.0038 C   0  0  2  0  0  0  0  0  0  0  0  0
   12.0873  -17.4625   19.3726 N   0  0  0  0  0  0  0  0  0  0  0  0
   10.5436  -16.5995   21.0229 C   0  0  0  0  0  0  0  0  0  0  0  0
   11.4861  -16.0910   21.6673 O   0  0  0  0  0  0  0  0  0  0  0  0
    6.4863  -15.2998   22.2265 C   0  0  0  0  0  0  0  0  0  0  0  0
    7.7062  -14.3864   22.1940 C   0  0  1  0  0  0  0  0  0  0  0  0
    7.5174  -13.3119   23.2239 C   0  0  0  0  0  0  0  0  0  0  0  0
    8.9116  -15.2166   22.3910 C   0  0  2  0  0  0  0  0  0  0  0  0
    9.2356  -16.1132   21.3280 N   0  0  0  0  0  0  0  0  0  0  0  0
    8.9875  -15.9073   23.7252 C   0  0  0  0  0  0  0  0  0  0  0  0
    8.9274  -17.1428   23.7421 O   0  0  0  0  0  0  0  0  0  0  0  0
   10.4033  -12.8441   28.3187 C   0  0  0  0  0  0  0  0  0  0  0  0
   10.6161  -14.1201   27.4865 C   0  0  0  0  0  0  0  0  0  0  0  0
    9.2963  -14.7888   27.2843 C   0  0  2  0  0  0  0  0  0  0  0  0
    8.8645  -15.3624   28.6413 C   0  0  0  0  0  0  0  0  0  0  0  0
    9.2797  -15.8787   26.2521 C   0  0  2  0  0  0  0  0  0  0  0  0
    9.1269  -15.2118   24.9450 N   0  0  0  0  0  0  0  0  0  0  0  0
    8.2967  -16.9301   26.4658 C   0  0  0  0  0  0  0  0  0  0  0  0
    8.6671  -17.9131   27.1909 O   0  0  0  0  0  0  0  0  0  0  0  0
    7.0163  -16.9897   25.9797 O   0  0  0  0  0  0  0  0  0  0  0  0
  2  1  1  0
  3  2  2  0
  4  2  1  0
  5  4  1  0
  5  6  1  1
  7  5  1  0
  7  8  2  0
 10  9  1  1
 10 12  1  0
 10 11  1  0
 12 13  1  6
 13  7  1  0
 14 12  1  0
 15 14  2  0
 17 16  1  0
 18 17  1  0
 18 19  1  1
 20 18  1  0
 20 21  1  6
 21 14  1  0
 22 20  1  0
 23 22  2  0
 24 22  1  0
M  END
$$$$
