NVI.pdb
     RDKit          3D

 24 23  0  0  1  0  0  0  0  0999 V2000
    8.4861  -21.1689   20.0754 N   0  0  0  0  0  0  0  0  0  0  0  0
    9.3520  -20.5243   19.1516 C   0  0  0  0  0  0  0  0  0  0  0  0
    9.9307  -21.2271   18.2886 O   0  0  0  0  0  0  0  0  0  0  0  0
    9.5370  -19.0558   19.2425 C   0  0  0  0  0  0  0  0  0  0  0  0
    8.7605  -18.4429   20.3542 C   0  0  2  0  0  0  0  0  0  0  0  0
    7.3135  -18.5480   20.2068 N   0  0  0  0  0  0  0  0  0  0  0  0
    9.1600  -17.0470   20.6411 C   0  0  0  0  0  0  0  0  0  0  0  0
   10.3605  -16.7338   20.7926 O   0  0  0  0  0  0  0  0  0  0  0  0
    6.2181  -13.8689   21.1794 C   0  0  0  0  0  0  0  0  0  0  0  0
    7.5575  -13.6255   20.4937 C   0  0  1  0  0  0  0  0  0  0  0  0
    7.9508  -12.1959   20.7228 C   0  0  0  0  0  0  0  0  0  0  0  0
    8.5264  -14.6153   21.0058 C   0  0  2  0  0  0  0  0  0  0  0  0
    8.2110  -15.9862   20.7601 N   0  0  0  0  0  0  0  0  0  0  0  0
    8.9457  -14.4030   22.4348 C   0  0  0  0  0  0  0  0  0  0  0  0
   10.0329  -13.8509   22.6435 O   0  0  0  0  0  0  0  0  0  0  0  0
    5.9337  -11.7928   25.6174 C   0  0  0  0  0  0  0  0  0  0  0  0
    7.1862  -12.4099   24.9719 C   0  0  0  0  0  0  0  0  0  0  0  0
    7.4046  -13.7699   25.5487 C   0  0  2  0  0  0  0  0  0  0  0  0
    7.6582  -13.5909   27.0521 C   0  0  0  0  0  0  0  0  0  0  0  0
    8.5323  -14.5521   24.9405 C   0  0  2  0  0  0  0  0  0  0  0  0
    8.1568  -14.7998   23.5354 N   0  0  0  0  0  0  0  0  0  0  0  0
    8.9040  -15.7690   25.6465 C   0  0  0  0  0  0  0  0  0  0  0  0
    8.2293  -16.8155   25.3657 O   0  0  0  0  0  0  0  0  0  0  0  0
    9.8961  -15.9250   26.5796 O   0  0  0  0  0  0  0  0  0  0  0  0
  2  1  1  0
  3  2  2  0
  4  2  1  0
  5  4  1  0
  5  6  1  6
  7  5  1  0
  7  8  2  0
 10  9  1  1
 10 12  1  0
 10 11  1  0
 12 13  1  1
 13  7  1  0
 14 12  1  0
 15 14  2  0
 17 16  1  0
 18 17  1  0
 18 19  1  1
 20 18  1  0
 20 21  1  6
 21 14  1  0
 22 20  1  0
 23 22  2  0
 24 22  1  0
M  END
$$$$
