NVI.pdb
     RDKit          3D

 24 23  0  0  1  0  0  0  0  0999 V2000
    9.5542  -14.3391   17.1560 N   0  0  0  0  0  0  0  0  0  0  0  0
    8.1335  -14.3423   17.1741 C   0  0  0  0  0  0  0  0  0  0  0  0
    7.5246  -13.9534   16.1486 O   0  0  0  0  0  0  0  0  0  0  0  0
    7.4301  -14.8020   18.3959 C   0  0  0  0  0  0  0  0  0  0  0  0
    8.3626  -15.1805   19.4921 C   0  0  2  0  0  0  0  0  0  0  0  0
    9.1766  -16.3571   19.2100 N   0  0  0  0  0  0  0  0  0  0  0  0
    7.6935  -15.3065   20.8062 C   0  0  0  0  0  0  0  0  0  0  0  0
    6.9804  -14.3867   21.2621 O   0  0  0  0  0  0  0  0  0  0  0  0
    5.8160  -18.4608   22.1623 C   0  0  0  0  0  0  0  0  0  0  0  0
    6.7837  -18.0061   23.2488 C   0  0  1  0  0  0  0  0  0  0  0  0
    7.8823  -19.0222   23.3560 C   0  0  0  0  0  0  0  0  0  0  0  0
    7.2431  -16.6421   22.9183 C   0  0  2  0  0  0  0  0  0  0  0  0
    7.8193  -16.4716   21.6229 N   0  0  0  0  0  0  0  0  0  0  0  0
    8.0885  -15.9898   23.9780 C   0  0  0  0  0  0  0  0  0  0  0  0
    9.3147  -15.9779   23.8147 O   0  0  0  0  0  0  0  0  0  0  0  0
    6.0991  -11.5975   26.1305 C   0  0  0  0  0  0  0  0  0  0  0  0
    7.0853  -12.6146   25.5312 C   0  0  0  0  0  0  0  0  0  0  0  0
    7.5558  -13.5260   26.6165 C   0  0  2  0  0  0  0  0  0  0  0  0
    8.3939  -12.6825   27.5874 C   0  0  0  0  0  0  0  0  0  0  0  0
    8.3593  -14.7086   26.1590 C   0  0  2  0  0  0  0  0  0  0  0  0
    7.5462  -15.3939   25.1363 N   0  0  0  0  0  0  0  0  0  0  0  0
    8.8114  -15.6052   27.2121 C   0  0  0  0  0  0  0  0  0  0  0  0
    8.0218  -16.5591   27.5217 O   0  0  0  0  0  0  0  0  0  0  0  0
    9.9883  -15.5468   27.9127 O   0  0  0  0  0  0  0  0  0  0  0  0
  2  1  1  0
  3  2  2  0
  4  2  1  0
  5  4  1  0
  5  6  1  6
  7  5  1  0
  7  8  2  0
 10  9  1  6
 10 12  1  0
 10 11  1  0
 12 13  1  6
 13  7  1  0
 14 12  1  0
 15 14  2  0
 17 16  1  0
 18 17  1  0
 18 19  1  1
 20 18  1  0
 20 21  1  6
 21 14  1  0
 22 20  1  0
 23 22  2  0
 24 22  1  0
M  END
$$$$
