NVI.pdb
     RDKit          3D

 24 23  0  0  1  0  0  0  0  0999 V2000
   14.2161  -17.2650   20.5209 N   0  0  0  0  0  0  0  0  0  0  0  0
   13.1567  -17.3780   19.5808 C   0  0  0  0  0  0  0  0  0  0  0  0
   13.2736  -18.2107   18.6500 O   0  0  0  0  0  0  0  0  0  0  0  0
   11.9620  -16.5132   19.7352 C   0  0  0  0  0  0  0  0  0  0  0  0
   10.6995  -17.2896   19.8685 C   0  0  2  0  0  0  0  0  0  0  0  0
   10.1670  -17.7932   18.6078 N   0  0  0  0  0  0  0  0  0  0  0  0
    9.6543  -16.5719   20.6319 C   0  0  0  0  0  0  0  0  0  0  0  0
    9.1635  -15.5019   20.2120 O   0  0  0  0  0  0  0  0  0  0  0  0
    6.2876  -17.4332   21.3966 C   0  0  0  0  0  0  0  0  0  0  0  0
    6.8637  -17.2006   22.7886 C   0  0  1  0  0  0  0  0  0  0  0  0
    7.0231  -18.5325   23.4607 C   0  0  0  0  0  0  0  0  0  0  0  0
    8.1175  -16.4330   22.6485 C   0  0  2  0  0  0  0  0  0  0  0  0
    9.1485  -17.0520   21.8785 N   0  0  0  0  0  0  0  0  0  0  0  0
    8.6616  -15.8777   23.9364 C   0  0  0  0  0  0  0  0  0  0  0  0
    9.7056  -16.3681   24.3832 O   0  0  0  0  0  0  0  0  0  0  0  0
    5.6897  -11.9251   26.9623 C   0  0  0  0  0  0  0  0  0  0  0  0
    6.2665  -13.2374   26.4042 C   0  0  0  0  0  0  0  0  0  0  0  0
    7.7430  -13.0838   26.2419 C   0  0  2  0  0  0  0  0  0  0  0  0
    7.9735  -12.0931   25.0922 C   0  0  0  0  0  0  0  0  0  0  0  0
    8.4946  -14.3538   25.9665 C   0  0  2  0  0  0  0  0  0  0  0  0
    8.0390  -14.8291   24.6462 N   0  0  0  0  0  0  0  0  0  0  0  0
    8.3972  -15.3764   26.9970 C   0  0  0  0  0  0  0  0  0  0  0  0
    8.9945  -15.1301   28.0979 O   0  0  0  0  0  0  0  0  0  0  0  0
    7.7376  -16.5760   26.9257 O   0  0  0  0  0  0  0  0  0  0  0  0
  2  1  1  0
  3  2  2  0
  4  2  1  0
  5  4  1  0
  5  6  1  6
  7  5  1  0
  7  8  2  0
 10  9  1  6
 10 12  1  0
 10 11  1  0
 12 13  1  1
 13  7  1  0
 14 12  1  0
 15 14  2  0
 17 16  1  0
 18 17  1  0
 18 19  1  6
 20 18  1  0
 20 21  1  6
 21 14  1  0
 22 20  1  0
 23 22  2  0
 24 22  1  0
M  END
$$$$
