NVI.pdb
     RDKit          3D

 24 23  0  0  1  0  0  0  0  0999 V2000
    8.4535  -20.4907   19.3197 N   0  0  0  0  0  0  0  0  0  0  0  0
    8.7388  -20.3726   20.7066 C   0  0  0  0  0  0  0  0  0  0  0  0
    8.6705  -21.4035   21.4180 O   0  0  0  0  0  0  0  0  0  0  0  0
    9.1037  -19.0444   21.2559 C   0  0  0  0  0  0  0  0  0  0  0  0
    9.0222  -17.9574   20.2428 C   0  0  2  0  0  0  0  0  0  0  0  0
    9.7085  -18.2501   18.9899 N   0  0  0  0  0  0  0  0  0  0  0  0
    9.4335  -16.6380   20.7723 C   0  0  0  0  0  0  0  0  0  0  0  0
   10.5574  -16.4693   21.2926 O   0  0  0  0  0  0  0  0  0  0  0  0
    7.8314  -13.1767   19.3289 C   0  0  0  0  0  0  0  0  0  0  0  0
    8.0097  -13.0983   20.8407 C   0  0  1  0  0  0  0  0  0  0  0  0
    6.6507  -13.1113   21.4763 C   0  0  0  0  0  0  0  0  0  0  0  0
    8.8913  -14.2060   21.2610 C   0  0  2  0  0  0  0  0  0  0  0  0
    8.5831  -15.4916   20.7213 N   0  0  0  0  0  0  0  0  0  0  0  0
    9.1383  -14.2849   22.7428 C   0  0  0  0  0  0  0  0  0  0  0  0
   10.1667  -13.7604   23.1873 O   0  0  0  0  0  0  0  0  0  0  0  0
    6.5653  -11.9420   26.7389 C   0  0  0  0  0  0  0  0  0  0  0  0
    7.7749  -12.8464   26.4471 C   0  0  0  0  0  0  0  0  0  0  0  0
    7.3191  -14.0120   25.6324 C   0  0  2  0  0  0  0  0  0  0  0  0
    6.3744  -14.8411   26.5137 C   0  0  0  0  0  0  0  0  0  0  0  0
    8.4133  -14.8935   25.1040 C   0  0  2  0  0  0  0  0  0  0  0  0
    8.2530  -14.9223   23.6377 N   0  0  0  0  0  0  0  0  0  0  0  0
    8.4842  -16.2241   25.6886 C   0  0  0  0  0  0  0  0  0  0  0  0
    8.7808  -16.2830   26.9287 O   0  0  0  0  0  0  0  0  0  0  0  0
    8.2689  -17.4251   25.0637 O   0  0  0  0  0  0  0  0  0  0  0  0
  2  1  1  0
  3  2  2  0
  4  2  1  0
  5  4  1  0
  5  6  1  6
  7  5  1  0
  7  8  2  0
 10  9  1  6
 10 12  1  0
 10 11  1  0
 12 13  1  1
 13  7  1  0
 14 12  1  0
 15 14  2  0
 17 16  1  0
 18 17  1  0
 18 19  1  1
 20 18  1  0
 20 21  1  6
 21 14  1  0
 22 20  1  0
 23 22  2  0
 24 22  1  0
M  END
$$$$
