NVI.pdb
     RDKit          3D

 24 23  0  0  1  0  0  0  0  0999 V2000
   15.0156  -14.2634   17.8328 N   0  0  0  0  0  0  0  0  0  0  0  0
   14.6815  -14.4417   19.2023 C   0  0  0  0  0  0  0  0  0  0  0  0
   15.5281  -14.9790   19.9561 O   0  0  0  0  0  0  0  0  0  0  0  0
   13.3543  -13.9890   19.6844 C   0  0  0  0  0  0  0  0  0  0  0  0
   12.6004  -15.0592   20.3922 C   0  0  2  0  0  0  0  0  0  0  0  0
   12.2536  -16.2035   19.5575 N   0  0  0  0  0  0  0  0  0  0  0  0
   11.4101  -14.5525   21.1112 C   0  0  0  0  0  0  0  0  0  0  0  0
   11.5128  -13.6868   22.0070 O   0  0  0  0  0  0  0  0  0  0  0  0
    6.4837  -14.1844   21.4878 C   0  0  0  0  0  0  0  0  0  0  0  0
    7.6432  -14.7533   20.6782 C   0  0  1  0  0  0  0  0  0  0  0  0
    7.6179  -14.1266   19.3153 C   0  0  0  0  0  0  0  0  0  0  0  0
    8.8916  -14.5238   21.4331 C   0  0  2  0  0  0  0  0  0  0  0  0
   10.0885  -15.0151   20.8291 N   0  0  0  0  0  0  0  0  0  0  0  0
    8.8243  -14.9002   22.8880 C   0  0  0  0  0  0  0  0  0  0  0  0
    9.4707  -15.8866   23.2616 O   0  0  0  0  0  0  0  0  0  0  0  0
    6.3824  -11.2075   26.2864 C   0  0  0  0  0  0  0  0  0  0  0  0
    7.5113  -12.1265   25.7892 C   0  0  0  0  0  0  0  0  0  0  0  0
    7.0611  -13.5460   25.9011 C   0  0  2  0  0  0  0  0  0  0  0  0
    6.9218  -13.8623   27.3969 C   0  0  0  0  0  0  0  0  0  0  0  0
    7.9630  -14.5586   25.2572 C   0  0  2  0  0  0  0  0  0  0  0  0
    8.0656  -14.1801   23.8350 N   0  0  0  0  0  0  0  0  0  0  0  0
    7.5780  -15.9495   25.4430 C   0  0  0  0  0  0  0  0  0  0  0  0
    8.2114  -16.5975   26.3420 O   0  0  0  0  0  0  0  0  0  0  0  0
    6.6125  -16.6480   24.7654 O   0  0  0  0  0  0  0  0  0  0  0  0
  2  1  1  0
  3  2  2  0
  4  2  1  0
  5  4  1  0
  5  6  1  6
  7  5  1  0
  7  8  2  0
 10  9  1  1
 10 12  1  0
 10 11  1  0
 12 13  1  6
 13  7  1  0
 14 12  1  0
 15 14  2  0
 17 16  1  0
 18 17  1  0
 18 19  1  1
 20 18  1  0
 20 21  1  6
 21 14  1  0
 22 20  1  0
 23 22  2  0
 24 22  1  0
M  END
$$$$
