NVI.pdb
     RDKit          3D

 24 23  0  0  1  0  0  0  0  0999 V2000
   12.8351  -20.1278   21.1720 N   0  0  0  0  0  0  0  0  0  0  0  0
   13.1197  -18.9535   20.4246 C   0  0  0  0  0  0  0  0  0  0  0  0
   13.8669  -19.0530   19.4219 O   0  0  0  0  0  0  0  0  0  0  0  0
   12.5268  -17.6644   20.8555 C   0  0  0  0  0  0  0  0  0  0  0  0
   11.3246  -17.2875   20.0636 C   0  0  2  0  0  0  0  0  0  0  0  0
   11.6096  -16.8897   18.6899 N   0  0  0  0  0  0  0  0  0  0  0  0
   10.4775  -16.2788   20.7385 C   0  0  0  0  0  0  0  0  0  0  0  0
   10.7449  -15.0595   20.6747 O   0  0  0  0  0  0  0  0  0  0  0  0
    6.8238  -15.6642   20.2447 C   0  0  0  0  0  0  0  0  0  0  0  0
    6.9815  -15.8896   21.7440 C   0  0  1  0  0  0  0  0  0  0  0  0
    6.4266  -17.2430   22.0776 C   0  0  0  0  0  0  0  0  0  0  0  0
    8.4055  -15.7105   22.0918 C   0  0  2  0  0  0  0  0  0  0  0  0
    9.3175  -16.6320   21.4933 N   0  0  0  0  0  0  0  0  0  0  0  0
    8.6784  -15.5556   23.5631 C   0  0  0  0  0  0  0  0  0  0  0  0
    9.5959  -16.2234   24.0554 O   0  0  0  0  0  0  0  0  0  0  0  0
    6.1107  -11.3097   25.9787 C   0  0  0  0  0  0  0  0  0  0  0  0
    7.2810  -12.2018   25.5308 C   0  0  0  0  0  0  0  0  0  0  0  0
    7.2529  -13.4670   26.3236 C   0  0  2  0  0  0  0  0  0  0  0  0
    7.5985  -13.1024   27.7742 C   0  0  0  0  0  0  0  0  0  0  0  0
    8.1797  -14.5463   25.8443 C   0  0  2  0  0  0  0  0  0  0  0  0
    7.9414  -14.6864   24.3951 N   0  0  0  0  0  0  0  0  0  0  0  0
    8.0882  -15.8128   26.5547 C   0  0  0  0  0  0  0  0  0  0  0  0
    7.1327  -16.5868   26.2122 O   0  0  0  0  0  0  0  0  0  0  0  0
    8.9092  -16.2748   27.5506 O   0  0  0  0  0  0  0  0  0  0  0  0
  2  1  1  0
  3  2  2  0
  4  2  1  0
  5  4  1  0
  5  6  1  6
  7  5  1  0
  7  8  2  0
 10  9  1  6
 10 12  1  0
 10 11  1  0
 12 13  1  1
 13  7  1  0
 14 12  1  0
 15 14  2  0
 17 16  1  0
 18 17  1  0
 18 19  1  1
 20 18  1  0
 20 21  1  6
 21 14  1  0
 22 20  1  0
 23 22  2  0
 24 22  1  0
M  END
$$$$
