NVI.pdb
     RDKit          3D

 24 23  0  0  1  0  0  0  0  0999 V2000
   12.6630  -19.9461   20.2579 N   0  0  0  0  0  0  0  0  0  0  0  0
   12.4631  -19.7791   21.6547 C   0  0  0  0  0  0  0  0  0  0  0  0
   12.6658  -20.7627   22.4064 O   0  0  0  0  0  0  0  0  0  0  0  0
   12.0257  -18.4579   22.1665 C   0  0  0  0  0  0  0  0  0  0  0  0
   11.7780  -17.4704   21.0810 C   0  0  2  0  0  0  0  0  0  0  0  0
   12.9748  -17.0622   20.3547 N   0  0  0  0  0  0  0  0  0  0  0  0
   11.0093  -16.2898   21.5343 C   0  0  0  0  0  0  0  0  0  0  0  0
   11.5845  -15.2685   21.9685 O   0  0  0  0  0  0  0  0  0  0  0  0
    6.9477  -13.5799   21.7787 C   0  0  0  0  0  0  0  0  0  0  0  0
    7.6800  -14.7317   21.1000 C   0  0  1  0  0  0  0  0  0  0  0  0
    8.1271  -14.2712   19.7438 C   0  0  0  0  0  0  0  0  0  0  0  0
    8.7753  -15.1711   21.9877 C   0  0  2  0  0  0  0  0  0  0  0  0
    9.5820  -16.2452   21.5032 N   0  0  0  0  0  0  0  0  0  0  0  0
    8.3713  -15.3991   23.4187 C   0  0  0  0  0  0  0  0  0  0  0  0
    8.4552  -16.5485   23.8682 O   0  0  0  0  0  0  0  0  0  0  0  0
    6.6571  -10.8756   26.2370 C   0  0  0  0  0  0  0  0  0  0  0  0
    7.5831  -12.0960   26.0979 C   0  0  0  0  0  0  0  0  0  0  0  0
    6.7476  -13.3334   26.0685 C   0  0  2  0  0  0  0  0  0  0  0  0
    6.1651  -13.5224   27.4762 C   0  0  0  0  0  0  0  0  0  0  0  0
    7.4661  -14.5840   25.6521 C   0  0  2  0  0  0  0  0  0  0  0  0
    7.9089  -14.3663   24.2617 N   0  0  0  0  0  0  0  0  0  0  0  0
    6.7188  -15.8214   25.8175 C   0  0  0  0  0  0  0  0  0  0  0  0
    7.0125  -16.5286   26.8387 O   0  0  0  0  0  0  0  0  0  0  0  0
    5.7334  -16.3187   25.0044 O   0  0  0  0  0  0  0  0  0  0  0  0
  2  1  1  0
  3  2  2  0
  4  2  1  0
  5  4  1  0
  5  6  1  1
  7  5  1  0
  7  8  2  0
 10  9  1  1
 10 12  1  0
 10 11  1  0
 12 13  1  6
 13  7  1  0
 14 12  1  0
 15 14  2  0
 17 16  1  0
 18 17  1  0
 18 19  1  1
 20 18  1  0
 20 21  1  6
 21 14  1  0
 22 20  1  0
 23 22  2  0
 24 22  1  0
M  END
$$$$
