NVI.pdb
     RDKit          3D

 24 23  0  0  1  0  0  0  0  0999 V2000
    8.2246  -12.4947   16.9483 N   0  0  0  0  0  0  0  0  0  0  0  0
    8.0117  -13.8956   17.0543 C   0  0  0  0  0  0  0  0  0  0  0  0
    8.3413  -14.6223   16.0865 O   0  0  0  0  0  0  0  0  0  0  0  0
    7.4122  -14.4406   18.2963 C   0  0  0  0  0  0  0  0  0  0  0  0
    8.4236  -14.7245   19.3503 C   0  0  2  0  0  0  0  0  0  0  0  0
    9.4069  -15.7369   18.9834 N   0  0  0  0  0  0  0  0  0  0  0  0
    7.8203  -15.0298   20.6668 C   0  0  0  0  0  0  0  0  0  0  0  0
    6.8922  -14.3341   21.1324 O   0  0  0  0  0  0  0  0  0  0  0  0
    6.4073  -18.3448   21.8207 C   0  0  0  0  0  0  0  0  0  0  0  0
    7.3904  -17.9310   22.9097 C   0  0  1  0  0  0  0  0  0  0  0  0
    8.5851  -18.8354   22.8336 C   0  0  0  0  0  0  0  0  0  0  0  0
    7.6976  -16.4971   22.7356 C   0  0  2  0  0  0  0  0  0  0  0  0
    8.2554  -16.1242   21.4751 N   0  0  0  0  0  0  0  0  0  0  0  0
    8.4624  -15.8758   23.8723 C   0  0  0  0  0  0  0  0  0  0  0  0
    9.6887  -15.7651   23.7532 O   0  0  0  0  0  0  0  0  0  0  0  0
    6.2010  -11.7793   26.3273 C   0  0  0  0  0  0  0  0  0  0  0  0
    7.2120  -12.7323   25.6670 C   0  0  0  0  0  0  0  0  0  0  0  0
    7.7115  -13.6925   26.6958 C   0  0  2  0  0  0  0  0  0  0  0  0
    8.4894  -12.8776   27.7387 C   0  0  0  0  0  0  0  0  0  0  0  0
    8.5822  -14.7982   26.1736 C   0  0  2  0  0  0  0  0  0  0  0  0
    7.8450  -15.4154   25.0546 N   0  0  0  0  0  0  0  0  0  0  0  0
    9.0214  -15.7710   27.1626 C   0  0  0  0  0  0  0  0  0  0  0  0
    8.2593  -16.7789   27.3434 O   0  0  0  0  0  0  0  0  0  0  0  0
   10.1602  -15.7333   27.9248 O   0  0  0  0  0  0  0  0  0  0  0  0
  2  1  1  0
  3  2  2  0
  4  2  1  0
  5  4  1  0
  5  6  1  6
  7  5  1  0
  7  8  2  0
 10  9  1  6
 10 12  1  0
 10 11  1  0
 12 13  1  6
 13  7  1  0
 14 12  1  0
 15 14  2  0
 17 16  1  0
 18 17  1  0
 18 19  1  1
 20 18  1  0
 20 21  1  6
 21 14  1  0
 22 20  1  0
 23 22  2  0
 24 22  1  0
M  END
$$$$
