NVI.pdb
     RDKit          3D

 24 23  0  0  1  0  0  0  0  0999 V2000
   11.1038  -20.5958   19.4133 N   0  0  0  0  0  0  0  0  0  0  0  0
   12.1529  -20.0452   20.1977 C   0  0  0  0  0  0  0  0  0  0  0  0
   13.2993  -20.5432   20.0916 O   0  0  0  0  0  0  0  0  0  0  0  0
   11.8541  -18.9112   21.1053 C   0  0  0  0  0  0  0  0  0  0  0  0
   11.5725  -17.6452   20.3755 C   0  0  2  0  0  0  0  0  0  0  0  0
   12.7256  -17.0798   19.6847 N   0  0  0  0  0  0  0  0  0  0  0  0
   10.9112  -16.6239   21.2182 C   0  0  0  0  0  0  0  0  0  0  0  0
   11.5480  -15.9852   22.0836 O   0  0  0  0  0  0  0  0  0  0  0  0
    6.5690  -15.9103   21.1147 C   0  0  0  0  0  0  0  0  0  0  0  0
    7.5904  -14.7994   21.3295 C   0  0  1  0  0  0  0  0  0  0  0  0
    6.9523  -13.7282   22.1640 C   0  0  0  0  0  0  0  0  0  0  0  0
    8.8042  -15.3949   21.9236 C   0  0  2  0  0  0  0  0  0  0  0  0
    9.5234  -16.3092   21.0954 N   0  0  0  0  0  0  0  0  0  0  0  0
    8.6183  -15.9495   23.3095 C   0  0  0  0  0  0  0  0  0  0  0  0
    8.6059  -17.1790   23.4445 O   0  0  0  0  0  0  0  0  0  0  0  0
    8.9795  -12.2427   27.4522 C   0  0  0  0  0  0  0  0  0  0  0  0
    9.3097  -13.4644   26.5778 C   0  0  0  0  0  0  0  0  0  0  0  0
    8.2181  -14.4724   26.7269 C   0  0  2  0  0  0  0  0  0  0  0  0
    8.2279  -14.9404   28.1889 C   0  0  0  0  0  0  0  0  0  0  0  0
    8.3158  -15.6641   25.8192 C   0  0  2  0  0  0  0  0  0  0  0  0
    8.4630  -15.1338   24.4503 N   0  0  0  0  0  0  0  0  0  0  0  0
    7.2345  -16.6309   25.9349 C   0  0  0  0  0  0  0  0  0  0  0  0
    6.1525  -16.3471   25.3201 O   0  0  0  0  0  0  0  0  0  0  0  0
    7.2406  -17.8141   26.6273 O   0  0  0  0  0  0  0  0  0  0  0  0
  2  1  1  0
  3  2  2  0
  4  2  1  0
  5  4  1  0
  5  6  1  1
  7  5  1  0
  7  8  2  0
 10  9  1  1
 10 12  1  0
 10 11  1  0
 12 13  1  6
 13  7  1  0
 14 12  1  0
 15 14  2  0
 17 16  1  0
 18 17  1  0
 18 19  1  1
 20 18  1  0
 20 21  1  6
 21 14  1  0
 22 20  1  0
 23 22  2  0
 24 22  1  0
M  END
$$$$
