NVI.pdb
     RDKit          3D

 24 23  0  0  1  0  0  0  0  0999 V2000
    8.3918  -20.9100   20.3349 N   0  0  0  0  0  0  0  0  0  0  0  0
    9.2510  -20.2548   19.4122 C   0  0  0  0  0  0  0  0  0  0  0  0
    9.7634  -20.9344   18.4907 O   0  0  0  0  0  0  0  0  0  0  0  0
    9.5072  -18.8031   19.5730 C   0  0  0  0  0  0  0  0  0  0  0  0
    8.9295  -18.2495   20.8277 C   0  0  2  0  0  0  0  0  0  0  0  0
    7.5045  -18.5073   20.9988 N   0  0  0  0  0  0  0  0  0  0  0  0
    9.2316  -16.8137   21.0220 C   0  0  0  0  0  0  0  0  0  0  0  0
   10.4097  -16.3993   21.0714 O   0  0  0  0  0  0  0  0  0  0  0  0
    7.7487  -12.0984   21.1821 C   0  0  0  0  0  0  0  0  0  0  0  0
    7.3931  -13.5303   20.7986 C   0  0  1  0  0  0  0  0  0  0  0  0
    7.2478  -13.5957   19.3068 C   0  0  0  0  0  0  0  0  0  0  0  0
    8.4268  -14.4281   21.3518 C   0  0  2  0  0  0  0  0  0  0  0  0
    8.2088  -15.8265   21.1623 N   0  0  0  0  0  0  0  0  0  0  0  0
    8.8250  -14.1287   22.7712 C   0  0  0  0  0  0  0  0  0  0  0  0
    9.5379  -13.1388   22.9763 O   0  0  0  0  0  0  0  0  0  0  0  0
    5.5707  -12.2819   25.6537 C   0  0  0  0  0  0  0  0  0  0  0  0
    6.9237  -12.7210   25.0682 C   0  0  0  0  0  0  0  0  0  0  0  0
    7.3801  -13.9515   25.7806 C   0  0  2  0  0  0  0  0  0  0  0  0
    7.5359  -13.5869   27.2637 C   0  0  0  0  0  0  0  0  0  0  0  0
    8.6609  -14.5490   25.2748 C   0  0  2  0  0  0  0  0  0  0  0  0
    8.4200  -14.9197   23.8672 N   0  0  0  0  0  0  0  0  0  0  0  0
    9.1940  -15.6497   26.0632 C   0  0  0  0  0  0  0  0  0  0  0  0
    8.8686  -16.8254   25.6876 O   0  0  0  0  0  0  0  0  0  0  0  0
   10.0070  -15.5732   27.1643 O   0  0  0  0  0  0  0  0  0  0  0  0
  2  1  1  0
  3  2  2  0
  4  2  1  0
  5  4  1  0
  5  6  1  6
  7  5  1  0
  7  8  2  0
 10  9  1  6
 10 12  1  0
 10 11  1  0
 12 13  1  1
 13  7  1  0
 14 12  1  0
 15 14  2  0
 17 16  1  0
 18 17  1  0
 18 19  1  1
 20 18  1  0
 20 21  1  6
 21 14  1  0
 22 20  1  0
 23 22  2  0
 24 22  1  0
M  END
$$$$
