NVI.pdb
     RDKit          3D

 24 23  0  0  1  0  0  0  0  0999 V2000
   14.7382  -19.3326   21.2557 N   0  0  0  0  0  0  0  0  0  0  0  0
   13.3379  -19.2745   21.4894 C   0  0  0  0  0  0  0  0  0  0  0  0
   12.6659  -20.3232   21.3407 O   0  0  0  0  0  0  0  0  0  0  0  0
   12.7290  -17.9854   21.8974 C   0  0  0  0  0  0  0  0  0  0  0  0
   11.8532  -17.4011   20.8457 C   0  0  2  0  0  0  0  0  0  0  0  0
   12.5578  -16.9862   19.6382 N   0  0  0  0  0  0  0  0  0  0  0  0
   10.9874  -16.3119   21.3501 C   0  0  0  0  0  0  0  0  0  0  0  0
   11.4718  -15.2352   21.7606 O   0  0  0  0  0  0  0  0  0  0  0  0
    6.6012  -16.5879   21.3660 C   0  0  0  0  0  0  0  0  0  0  0  0
    7.3849  -15.2943   21.1767 C   0  0  1  0  0  0  0  0  0  0  0  0
    6.5288  -14.1531   21.6413 C   0  0  0  0  0  0  0  0  0  0  0  0
    8.6710  -15.4234   21.8909 C   0  0  2  0  0  0  0  0  0  0  0  0
    9.5642  -16.4224   21.3975 N   0  0  0  0  0  0  0  0  0  0  0  0
    8.5537  -15.4929   23.3890 C   0  0  0  0  0  0  0  0  0  0  0  0
    9.0266  -16.4822   23.9617 O   0  0  0  0  0  0  0  0  0  0  0  0
    6.5839  -10.9343   26.0379 C   0  0  0  0  0  0  0  0  0  0  0  0
    7.5902  -12.0597   25.7431 C   0  0  0  0  0  0  0  0  0  0  0  0
    6.9362  -13.3741   26.0161 C   0  0  2  0  0  0  0  0  0  0  0  0
    6.6385  -13.4301   27.5211 C   0  0  0  0  0  0  0  0  0  0  0  0
    7.7324  -14.5829   25.6180 C   0  0  2  0  0  0  0  0  0  0  0  0
    7.9365  -14.4853   24.1602 N   0  0  0  0  0  0  0  0  0  0  0  0
    7.1733  -15.8637   26.0235 C   0  0  0  0  0  0  0  0  0  0  0  0
    6.1444  -16.2615   25.3813 O   0  0  0  0  0  0  0  0  0  0  0  0
    7.6224  -16.6961   27.0158 O   0  0  0  0  0  0  0  0  0  0  0  0
  2  1  1  0
  3  2  2  0
  4  2  1  0
  5  4  1  0
  5  6  1  6
  7  5  1  0
  7  8  2  0
 10  9  1  1
 10 12  1  0
 10 11  1  0
 12 13  1  6
 13  7  1  0
 14 12  1  0
 15 14  2  0
 17 16  1  0
 18 17  1  0
 18 19  1  1
 20 18  1  0
 20 21  1  6
 21 14  1  0
 22 20  1  0
 23 22  2  0
 24 22  1  0
M  END
$$$$
