NVI.pdb
     RDKit          3D

 24 23  0  0  1  0  0  0  0  0999 V2000
   15.4312  -14.5183   19.5526 N   0  0  0  0  0  0  0  0  0  0  0  0
   14.1419  -14.5552   18.9567 C   0  0  0  0  0  0  0  0  0  0  0  0
   14.0563  -14.8576   17.7422 O   0  0  0  0  0  0  0  0  0  0  0  0
   12.9555  -14.2370   19.7874 C   0  0  0  0  0  0  0  0  0  0  0  0
   12.3717  -15.4372   20.4456 C   0  0  2  0  0  0  0  0  0  0  0  0
   11.7043  -16.3587   19.5335 N   0  0  0  0  0  0  0  0  0  0  0  0
   11.4954  -15.1031   21.5906 C   0  0  0  0  0  0  0  0  0  0  0  0
   11.9114  -14.4136   22.5465 O   0  0  0  0  0  0  0  0  0  0  0  0
    6.9796  -14.9397   23.6151 C   0  0  0  0  0  0  0  0  0  0  0  0
    7.7907  -15.2646   22.3661 C   0  0  1  0  0  0  0  0  0  0  0  0
    7.3870  -14.3103   21.2812 C   0  0  0  0  0  0  0  0  0  0  0  0
    9.2238  -15.2172   22.7194 C   0  0  2  0  0  0  0  0  0  0  0  0
   10.1385  -15.5417   21.6720 N   0  0  0  0  0  0  0  0  0  0  0  0
    9.5811  -15.9339   23.9929 C   0  0  0  0  0  0  0  0  0  0  0  0
   10.0448  -17.0772   23.9035 O   0  0  0  0  0  0  0  0  0  0  0  0
    9.8217  -12.7045   28.4762 C   0  0  0  0  0  0  0  0  0  0  0  0
   10.2156  -13.6554   27.3331 C   0  0  0  0  0  0  0  0  0  0  0  0
    9.6516  -15.0087   27.6166 C   0  0  2  0  0  0  0  0  0  0  0  0
   10.3186  -15.5194   28.9015 C   0  0  0  0  0  0  0  0  0  0  0  0
    9.8308  -16.0214   26.5230 C   0  0  2  0  0  0  0  0  0  0  0  0
    9.4146  -15.3605   25.2713 N   0  0  0  0  0  0  0  0  0  0  0  0
    9.1641  -17.2974   26.7342 C   0  0  0  0  0  0  0  0  0  0  0  0
    7.9286  -17.3503   26.4176 O   0  0  0  0  0  0  0  0  0  0  0  0
    9.7072  -18.4526   27.2339 O   0  0  0  0  0  0  0  0  0  0  0  0
  2  1  1  0
  3  2  2  0
  4  2  1  0
  5  4  1  0
  5  6  1  6
  7  5  1  0
  7  8  2  0
 10  9  1  1
 10 12  1  0
 10 11  1  0
 12 13  1  6
 13  7  1  0
 14 12  1  0
 15 14  2  0
 17 16  1  0
 18 17  1  0
 18 19  1  1
 20 18  1  0
 20 21  1  6
 21 14  1  0
 22 20  1  0
 23 22  2  0
 24 22  1  0
M  END
$$$$
