TQW.pdb
     RDKit          3D

 31 32  0  0  1  0  0  0  0  0999 V2000
   30.4497  -21.5247  -17.0258 C   0  0  0  0  0  0  0  0  0  0  0  0
   28.9906  -21.7148  -17.2474 C   0  0  1  0  0  0  0  0  0  0  0  0
   28.7420  -21.6628  -18.6245 O   0  0  0  0  0  0  0  0  0  0  0  0
   28.4930  -23.0715  -16.7809 C   0  0  2  0  0  0  0  0  0  0  0  0
   29.0104  -24.0620  -17.7034 N   0  0  0  0  0  0  0  0  0  0  0  0
   26.9947  -23.1113  -16.8618 C   0  0  0  0  0  0  0  0  0  0  0  0
   26.3974  -22.9014  -17.9485 O   0  0  0  0  0  0  0  0  0  0  0  0
   24.9319  -27.3846  -15.7056 N   0  0  0  0  0  0  0  0  0  0  0  0
   24.7718  -26.7881  -17.0124 C   0  0  0  0  0  0  0  0  0  0  0  0
   25.0539  -27.5172  -17.9634 O   0  0  0  0  0  0  0  0  0  0  0  0
   24.3086  -25.4260  -17.1156 C   0  0  0  0  0  0  0  0  0  0  0  0
   24.0621  -24.6289  -15.8997 C   0  0  0  0  0  0  0  0  0  0  0  0
   24.7431  -23.3440  -15.7234 C   0  0  2  0  0  0  0  0  0  0  0  0
   26.1788  -23.3816  -15.7456 N   0  0  0  0  0  0  0  0  0  0  0  0
   24.2325  -22.4490  -14.6871 C   0  0  0  0  0  0  0  0  0  0  0  0
   24.8443  -22.4154  -13.5887 O   0  0  0  0  0  0  0  0  0  0  0  0
   23.0958  -21.6108  -14.8402 N   0  0  0  0  0  0  0  0  0  0  0  0
   22.6169  -20.6527  -13.8900 C   0  0  1  0  0  0  0  0  0  0  0  0
   23.6138  -19.6154  -13.5119 C   0  0  0  0  0  0  0  0  0  0  0  0
   24.2230  -18.9380  -14.6802 C   0  0  0  0  0  0  0  0  0  0  0  0
   23.6467  -18.2333  -15.7182 C   0  0  0  0  0  0  0  0  0  0  0  0
   24.6156  -17.8083  -16.5457 N   0  0  0  0  0  0  0  0  0  0  0  0
   25.8265  -18.1988  -16.1072 C   0  0  0  0  0  0  0  0  0  0  0  0
   27.1277  -18.0391  -16.5624 C   0  0  0  0  0  0  0  0  0  0  0  0
   28.2068  -18.5658  -15.8869 C   0  0  0  0  0  0  0  0  0  0  0  0
   27.9792  -19.2714  -14.7247 C   0  0  0  0  0  0  0  0  0  0  0  0
   26.6731  -19.4323  -14.2666 C   0  0  0  0  0  0  0  0  0  0  0  0
   25.5980  -18.9071  -14.9404 C   0  0  0  0  0  0  0  0  0  0  0  0
   21.3481  -20.0076  -14.3273 C   0  0  0  0  0  0  0  0  0  0  0  0
   20.7727  -19.2240  -13.5463 O   0  0  0  0  0  0  0  0  0  0  0  0
   20.7965  -20.2513  -15.5654 O   0  0  0  0  0  0  0  0  0  0  0  0
  2  1  1  6
  3  2  1  0
  4  2  1  0
  4  5  1  6
  6  4  1  0
  6 14  1  0
  7  6  2  0
  8  9  1  0
  9 10  2  0
 11  9  1  0
 11 12  1  0
 13 12  1  1
 13 14  1  0
 15 13  1  0
 16 15  2  0
 17 15  1  0
 18 17  1  0
 18 29  1  0
 18 19  1  6
 20 28  1  0
 20 19  1  0
 21 20  2  0
 22 21  1  0
 22 23  1  0
 23 28  2  0
 24 23  1  0
 24 25  2  0
 25 26  1  0
 26 27  2  0
 28 27  1  0
 29 31  1  0
 30 29  2  0
M  END
$$$$
