TQW.pdb
     RDKit          3D

 31 32  0  0  1  0  0  0  0  0999 V2000
   25.2449  -22.6641  -16.5364 C   0  0  0  0  0  0  0  0  0  0  0  0
   26.5714  -23.2275  -16.9065 C   0  0  1  0  0  0  0  0  0  0  0  0
   26.4854  -23.7450  -18.2049 O   0  0  0  0  0  0  0  0  0  0  0  0
   27.6700  -22.1799  -16.9430 C   0  0  2  0  0  0  0  0  0  0  0  0
   28.9048  -22.8603  -17.2783 N   0  0  0  0  0  0  0  0  0  0  0  0
   27.8362  -21.5795  -15.5774 C   0  0  0  0  0  0  0  0  0  0  0  0
   28.5882  -22.1118  -14.7212 O   0  0  0  0  0  0  0  0  0  0  0  0
   26.1232  -16.4723  -15.7934 N   0  0  0  0  0  0  0  0  0  0  0  0
   27.5552  -16.6680  -15.7737 C   0  0  0  0  0  0  0  0  0  0  0  0
   28.1878  -16.0200  -16.6077 O   0  0  0  0  0  0  0  0  0  0  0  0
   28.1311  -17.5770  -14.8133 C   0  0  0  0  0  0  0  0  0  0  0  0
   27.2659  -18.3159  -13.8753 C   0  0  0  0  0  0  0  0  0  0  0  0
   27.2680  -19.7807  -13.8859 C   0  0  2  0  0  0  0  0  0  0  0  0
   27.1724  -20.4033  -15.1768 N   0  0  0  0  0  0  0  0  0  0  0  0
   26.4489  -20.4615  -12.8852 C   0  0  0  0  0  0  0  0  0  0  0  0
   25.3354  -20.9175  -13.2514 O   0  0  0  0  0  0  0  0  0  0  0  0
   26.8294  -20.6477  -11.5293 N   0  0  0  0  0  0  0  0  0  0  0  0
   26.0223  -21.2213  -10.4950 C   0  0  1  0  0  0  0  0  0  0  0  0
   26.7732  -21.5825   -9.2627 C   0  0  0  0  0  0  0  0  0  0  0  0
   26.9997  -20.4308   -8.3587 C   0  0  0  0  0  0  0  0  0  0  0  0
   26.4803  -19.1517   -8.3770 C   0  0  0  0  0  0  0  0  0  0  0  0
   26.9912  -18.4603   -7.3449 N   0  0  0  0  0  0  0  0  0  0  0  0
   27.8370  -19.2232   -6.6283 C   0  0  0  0  0  0  0  0  0  0  0  0
   28.6159  -19.0196   -5.4979 C   0  0  0  0  0  0  0  0  0  0  0  0
   29.4103  -20.0141   -4.9704 C   0  0  0  0  0  0  0  0  0  0  0  0
   29.4268  -21.2457   -5.5896 C   0  0  0  0  0  0  0  0  0  0  0  0
   28.6450  -21.4511   -6.7246 C   0  0  0  0  0  0  0  0  0  0  0  0
   27.8535  -20.4595   -7.2498 C   0  0  0  0  0  0  0  0  0  0  0  0
   24.8533  -20.3662  -10.1496 C   0  0  0  0  0  0  0  0  0  0  0  0
   24.9165  -19.1420  -10.3782 O   0  0  0  0  0  0  0  0  0  0  0  0
   23.7097  -20.8888   -9.5879 O   0  0  0  0  0  0  0  0  0  0  0  0
  2  1  1  6
  3  2  1  0
  4  2  1  0
  4  5  1  1
  6  4  1  0
  6 14  1  0
  7  6  2  0
  8  9  1  0
  9 10  2  0
 11  9  1  0
 11 12  1  0
 13 12  1  6
 13 14  1  0
 15 13  1  0
 16 15  2  0
 17 15  1  0
 18 17  1  0
 18 29  1  0
 18 19  1  1
 20 28  1  0
 20 19  1  0
 21 20  2  0
 22 21  1  0
 22 23  1  0
 23 28  2  0
 24 23  1  0
 24 25  2  0
 25 26  1  0
 26 27  2  0
 28 27  1  0
 29 31  1  0
 30 29  2  0
M  END
$$$$
