TQW.pdb
     RDKit          3D

 31 32  0  0  1  0  0  0  0  0999 V2000
   27.2021  -18.7824  -16.3694 C   0  0  0  0  0  0  0  0  0  0  0  0
   27.5364  -20.1004  -16.9739 C   0  0  1  0  0  0  0  0  0  0  0  0
   28.6811  -19.9462  -17.7656 O   0  0  0  0  0  0  0  0  0  0  0  0
   27.8801  -21.1564  -15.9384 C   0  0  2  0  0  0  0  0  0  0  0  0
   28.1450  -22.3900  -16.6509 N   0  0  0  0  0  0  0  0  0  0  0  0
   26.6949  -21.3896  -15.0472 C   0  0  0  0  0  0  0  0  0  0  0  0
   25.6552  -21.9476  -15.4825 O   0  0  0  0  0  0  0  0  0  0  0  0
   26.3083  -20.6417   -8.5496 N   0  0  0  0  0  0  0  0  0  0  0  0
   24.9493  -20.8088   -9.0126 C   0  0  0  0  0  0  0  0  0  0  0  0
   24.0941  -20.8671   -8.1289 O   0  0  0  0  0  0  0  0  0  0  0  0
   24.6906  -20.8935  -10.4291 C   0  0  0  0  0  0  0  0  0  0  0  0
   25.8090  -20.9609  -11.3878 C   0  0  0  0  0  0  0  0  0  0  0  0
   25.5306  -21.0452  -12.8234 C   0  0  2  0  0  0  0  0  0  0  0  0
   26.6738  -21.0052  -13.6922 N   0  0  0  0  0  0  0  0  0  0  0  0
   24.4190  -20.2500  -13.3407 C   0  0  0  0  0  0  0  0  0  0  0  0
   24.6249  -19.0289  -13.5609 O   0  0  0  0  0  0  0  0  0  0  0  0
   23.1243  -20.7655  -13.6168 N   0  0  0  0  0  0  0  0  0  0  0  0
   22.0169  -20.0308  -14.1496 C   0  0  1  0  0  0  0  0  0  0  0  0
   22.3244  -19.2796  -15.3962 C   0  0  0  0  0  0  0  0  0  0  0  0
   21.1135  -18.8804  -16.1507 C   0  0  0  0  0  0  0  0  0  0  0  0
   19.8907  -18.4108  -15.7145 C   0  0  0  0  0  0  0  0  0  0  0  0
   19.1049  -18.1884  -16.7808 N   0  0  0  0  0  0  0  0  0  0  0  0
   19.7496  -18.4899  -17.9230 C   0  0  0  0  0  0  0  0  0  0  0  0
   19.4190  -18.4500  -19.2702 C   0  0  0  0  0  0  0  0  0  0  0  0
   20.3081  -18.8312  -20.2513 C   0  0  0  0  0  0  0  0  0  0  0  0
   21.5618  -19.2643  -19.8756 C   0  0  0  0  0  0  0  0  0  0  0  0
   21.8947  -19.3048  -18.5231 C   0  0  0  0  0  0  0  0  0  0  0  0
   21.0080  -18.9246  -17.5459 C   0  0  0  0  0  0  0  0  0  0  0  0
   20.8148  -20.8861  -14.3511 C   0  0  0  0  0  0  0  0  0  0  0  0
   19.7238  -20.3381  -14.6051 O   0  0  0  0  0  0  0  0  0  0  0  0
   20.8756  -22.2592  -14.2655 O   0  0  0  0  0  0  0  0  0  0  0  0
  2  1  1  1
  3  2  1  0
  4  2  1  0
  4  5  1  6
  6  4  1  0
  6 14  1  0
  7  6  2  0
  8  9  1  0
  9 10  2  0
 11  9  1  0
 11 12  1  0
 13 12  1  1
 13 14  1  0
 15 13  1  0
 16 15  2  0
 17 15  1  0
 18 17  1  0
 18 29  1  0
 18 19  1  6
 20 28  1  0
 20 19  1  0
 21 20  2  0
 22 21  1  0
 22 23  1  0
 23 28  2  0
 24 23  1  0
 24 25  2  0
 25 26  1  0
 26 27  2  0
 28 27  1  0
 29 31  1  0
 30 29  2  0
M  END
$$$$
