TQW.pdb
     RDKit          3D

 31 32  0  0  1  0  0  0  0  0999 V2000
   16.7542  -22.6010    1.2125 C   0  0  0  0  0  0  0  0  0  0  0  0
   15.4203  -22.2583    0.6492 C   0  0  1  0  0  0  0  0  0  0  0  0
   15.1429  -23.1431   -0.4001 O   0  0  0  0  0  0  0  0  0  0  0  0
   14.2930  -22.4283    1.6521 C   0  0  2  0  0  0  0  0  0  0  0  0
   13.0574  -22.0904    0.9746 N   0  0  0  0  0  0  0  0  0  0  0  0
   14.4750  -21.4561    2.7811 C   0  0  0  0  0  0  0  0  0  0  0  0
   14.1771  -20.2416    2.6464 O   0  0  0  0  0  0  0  0  0  0  0  0
   15.8262  -22.8692    9.0045 N   0  0  0  0  0  0  0  0  0  0  0  0
   14.5417  -22.9482    8.3464 C   0  0  0  0  0  0  0  0  0  0  0  0
   13.6782  -23.5857    8.9493 O   0  0  0  0  0  0  0  0  0  0  0  0
   14.3598  -22.2987    7.0715 C   0  0  0  0  0  0  0  0  0  0  0  0
   15.4784  -21.5776    6.4365 C   0  0  0  0  0  0  0  0  0  0  0  0
   15.2874  -20.9495    5.1270 C   0  0  2  0  0  0  0  0  0  0  0  0
   14.9814  -21.8366    4.0394 N   0  0  0  0  0  0  0  0  0  0  0  0
   16.2344  -19.9072    4.7365 C   0  0  0  0  0  0  0  0  0  0  0  0
   17.2211  -20.2457    4.0338 O   0  0  0  0  0  0  0  0  0  0  0  0
   16.1111  -18.5375    5.0925 N   0  0  0  0  0  0  0  0  0  0  0  0
   17.0728  -17.5074    4.8388 C   0  0  1  0  0  0  0  0  0  0  0  0
   16.5794  -16.4131    3.9602 C   0  0  0  0  0  0  0  0  0  0  0  0
   17.6363  -15.4453    3.5841 C   0  0  0  0  0  0  0  0  0  0  0  0
   18.5372  -15.4520    2.5380 C   0  0  0  0  0  0  0  0  0  0  0  0
   19.3048  -14.3528    2.6183 N   0  0  0  0  0  0  0  0  0  0  0  0
   18.9576  -13.6017    3.6797 C   0  0  0  0  0  0  0  0  0  0  0  0
   19.4065  -12.4032    4.2161 C   0  0  0  0  0  0  0  0  0  0  0  0
   18.8446  -11.8546    5.3482 C   0  0  0  0  0  0  0  0  0  0  0  0
   17.8057  -12.5222    5.9609 C   0  0  0  0  0  0  0  0  0  0  0  0
   17.3542  -13.7257    5.4231 C   0  0  0  0  0  0  0  0  0  0  0  0
   17.9147  -14.2719    4.2947 C   0  0  0  0  0  0  0  0  0  0  0  0
   17.6387  -16.9401    6.0938 C   0  0  0  0  0  0  0  0  0  0  0  0
   16.8561  -16.5565    6.9856 O   0  0  0  0  0  0  0  0  0  0  0  0
   18.9965  -16.8289    6.2951 O   0  0  0  0  0  0  0  0  0  0  0  0
  2  1  1  1
  3  2  1  0
  4  2  1  0
  4  5  1  6
  6  4  1  0
  6 14  1  0
  7  6  2  0
  8  9  1  0
  9 10  2  0
 11  9  1  0
 11 12  1  0
 13 12  1  1
 13 14  1  0
 15 13  1  0
 16 15  2  0
 17 15  1  0
 18 17  1  0
 18 29  1  0
 18 19  1  1
 20 28  1  0
 20 19  1  0
 21 20  2  0
 22 21  1  0
 22 23  1  0
 23 28  2  0
 24 23  1  0
 24 25  2  0
 25 26  1  0
 26 27  2  0
 28 27  1  0
 29 31  1  0
 30 29  2  0
M  END
$$$$
