TQW.pdb
     RDKit          3D

 31 32  0  0  1  0  0  0  0  0999 V2000
   26.3180  -26.4348  -19.0252 C   0  0  0  0  0  0  0  0  0  0  0  0
   27.1024  -27.2102  -18.0264 C   0  0  1  0  0  0  0  0  0  0  0  0
   27.9183  -28.1178  -18.7131 O   0  0  0  0  0  0  0  0  0  0  0  0
   28.0383  -26.3411  -17.2051 C   0  0  2  0  0  0  0  0  0  0  0  0
   28.5894  -27.1729  -16.1543 N   0  0  0  0  0  0  0  0  0  0  0  0
   27.2557  -25.2394  -16.5517 C   0  0  0  0  0  0  0  0  0  0  0  0
   26.5094  -25.4695  -15.5660 O   0  0  0  0  0  0  0  0  0  0  0  0
   28.9310  -19.0990  -16.0034 N   0  0  0  0  0  0  0  0  0  0  0  0
   27.5893  -19.1583  -15.4690 C   0  0  0  0  0  0  0  0  0  0  0  0
   27.1950  -18.1307  -14.9174 O   0  0  0  0  0  0  0  0  0  0  0  0
   26.8254  -20.3735  -15.6105 C   0  0  0  0  0  0  0  0  0  0  0  0
   27.4410  -21.5758  -16.2021 C   0  0  0  0  0  0  0  0  0  0  0  0
   26.6386  -22.7877  -16.3841 C   0  0  2  0  0  0  0  0  0  0  0  0
   27.3078  -23.9029  -16.9940 N   0  0  0  0  0  0  0  0  0  0  0  0
   25.2760  -22.6229  -16.8859 C   0  0  0  0  0  0  0  0  0  0  0  0
   25.1309  -22.3135  -18.0963 O   0  0  0  0  0  0  0  0  0  0  0  0
   24.1055  -22.7949  -16.0994 N   0  0  0  0  0  0  0  0  0  0  0  0
   22.7548  -22.6310  -16.5453 C   0  0  1  0  0  0  0  0  0  0  0  0
   22.4349  -23.3537  -17.8056 C   0  0  0  0  0  0  0  0  0  0  0  0
   21.0984  -23.0162  -18.3486 C   0  0  0  0  0  0  0  0  0  0  0  0
   20.5006  -21.7942  -18.5837 C   0  0  0  0  0  0  0  0  0  0  0  0
   19.2706  -22.0007  -19.0825 N   0  0  0  0  0  0  0  0  0  0  0  0
   19.0130  -23.3169  -19.1939 C   0  0  0  0  0  0  0  0  0  0  0  0
   17.9312  -24.0658  -19.6352 C   0  0  0  0  0  0  0  0  0  0  0  0
   17.9489  -25.4435  -19.6351 C   0  0  0  0  0  0  0  0  0  0  0  0
   19.0787  -26.0903  -19.1814 C   0  0  0  0  0  0  0  0  0  0  0  0
   20.1654  -25.3393  -18.7382 C   0  0  0  0  0  0  0  0  0  0  0  0
   20.1471  -23.9662  -18.7386 C   0  0  0  0  0  0  0  0  0  0  0  0
   21.7641  -22.9800  -15.4899 C   0  0  0  0  0  0  0  0  0  0  0  0
   22.1116  -23.7475  -14.5705 O   0  0  0  0  0  0  0  0  0  0  0  0
   20.4812  -22.4796  -15.5016 O   0  0  0  0  0  0  0  0  0  0  0  0
  2  1  1  6
  3  2  1  0
  4  2  1  0
  4  5  1  1
  6  4  1  0
  6 14  1  0
  7  6  2  0
  8  9  1  0
  9 10  2  0
 11  9  1  0
 11 12  1  0
 13 12  1  6
 13 14  1  0
 15 13  1  0
 16 15  2  0
 17 15  1  0
 18 17  1  0
 18 29  1  0
 18 19  1  6
 20 28  1  0
 20 19  1  0
 21 20  2  0
 22 21  1  0
 22 23  1  0
 23 28  2  0
 24 23  1  0
 24 25  2  0
 25 26  1  0
 26 27  2  0
 28 27  1  0
 29 31  1  0
 30 29  2  0
M  END
$$$$
