TQW.pdb
     RDKit          3D

 31 32  0  0  1  0  0  0  0  0999 V2000
   29.5660  -18.3597  -17.7111 C   0  0  0  0  0  0  0  0  0  0  0  0
   28.2926  -18.3021  -16.9434 C   0  0  1  0  0  0  0  0  0  0  0  0
   27.2799  -18.8745  -17.7230 O   0  0  0  0  0  0  0  0  0  0  0  0
   28.3400  -19.1082  -15.6574 C   0  0  2  0  0  0  0  0  0  0  0  0
   28.5673  -20.4918  -16.0229 N   0  0  0  0  0  0  0  0  0  0  0  0
   27.0089  -19.0312  -14.9677 C   0  0  0  0  0  0  0  0  0  0  0  0
   26.5661  -17.9380  -14.5314 O   0  0  0  0  0  0  0  0  0  0  0  0
   21.5895  -20.8983  -16.9965 N   0  0  0  0  0  0  0  0  0  0  0  0
   21.4781  -19.8153  -16.0457 C   0  0  0  0  0  0  0  0  0  0  0  0
   20.4284  -19.1741  -16.0968 O   0  0  0  0  0  0  0  0  0  0  0  0
   22.5644  -19.5636  -15.1308 C   0  0  0  0  0  0  0  0  0  0  0  0
   23.7693  -20.4133  -15.1533 C   0  0  0  0  0  0  0  0  0  0  0  0
   24.8627  -20.1479  -14.2153 C   0  0  2  0  0  0  0  0  0  0  0  0
   26.1876  -20.1585  -14.7700 N   0  0  0  0  0  0  0  0  0  0  0  0
   24.8066  -20.8084  -12.9129 C   0  0  0  0  0  0  0  0  0  0  0  0
   25.3342  -21.9455  -12.8096 O   0  0  0  0  0  0  0  0  0  0  0  0
   24.2018  -20.2492  -11.7555 N   0  0  0  0  0  0  0  0  0  0  0  0
   24.1621  -20.8404  -10.4521 C   0  0  1  0  0  0  0  0  0  0  0  0
   24.9673  -20.1205   -9.4292 C   0  0  0  0  0  0  0  0  0  0  0  0
   26.3969  -20.5094   -9.4323 C   0  0  0  0  0  0  0  0  0  0  0  0
   27.1237  -21.2739  -10.3230 C   0  0  0  0  0  0  0  0  0  0  0  0
   28.3944  -21.3502   -9.8946 N   0  0  0  0  0  0  0  0  0  0  0  0
   28.5555  -20.6659   -8.7470 C   0  0  0  0  0  0  0  0  0  0  0  0
   29.6261  -20.4212   -7.8986 C   0  0  0  0  0  0  0  0  0  0  0  0
   29.4936  -19.6609   -6.7572 C   0  0  0  0  0  0  0  0  0  0  0  0
   28.2573  -19.1308   -6.4555 C   0  0  0  0  0  0  0  0  0  0  0  0
   27.1817  -19.3759   -7.3067 C   0  0  0  0  0  0  0  0  0  0  0  0
   27.3145  -20.1337   -8.4442 C   0  0  0  0  0  0  0  0  0  0  0  0
   22.7698  -21.0366   -9.9618 C   0  0  0  0  0  0  0  0  0  0  0  0
   21.8314  -20.5115  -10.5932 O   0  0  0  0  0  0  0  0  0  0  0  0
   22.4923  -21.7794   -8.8359 O   0  0  0  0  0  0  0  0  0  0  0  0
  2  1  1  6
  3  2  1  0
  4  2  1  0
  4  5  1  6
  6  4  1  0
  6 14  1  0
  7  6  2  0
  8  9  1  0
  9 10  2  0
 11  9  1  0
 11 12  1  0
 13 12  1  6
 13 14  1  0
 15 13  1  0
 16 15  2  0
 17 15  1  0
 18 17  1  0
 18 29  1  0
 18 19  1  1
 20 28  1  0
 20 19  1  0
 21 20  2  0
 22 21  1  0
 22 23  1  0
 23 28  2  0
 24 23  1  0
 24 25  2  0
 25 26  1  0
 26 27  2  0
 28 27  1  0
 29 31  1  0
 30 29  2  0
M  END
$$$$
