MFI.pdb
     RDKit          3D

 28 28  0  0  1  0  0  0  0  0999 V2000
   14.4604  -22.9081    6.2017 C   0  0  0  0  0  0  0  0  0  0  0  0
   13.9918  -23.4205    4.5258 S   0  0  0  0  0  0  0  0  0  0  0  0
   14.3022  -22.0815    3.3292 C   0  0  0  0  0  0  0  0  0  0  0  0
   15.4574  -21.2126    3.7831 C   0  0  0  0  0  0  0  0  0  0  0  0
   15.6532  -20.1419    2.7341 C   0  0  2  0  0  0  0  0  0  0  0  0
   16.1512  -20.8154    1.5509 N   0  0  0  0  0  0  0  0  0  0  0  0
   16.6183  -19.1176    3.1355 C   0  0  0  0  0  0  0  0  0  0  0  0
   17.8335  -19.2768    2.9573 O   0  0  0  0  0  0  0  0  0  0  0  0
   16.2388  -17.8772    3.7528 N   0  0  0  0  0  0  0  0  0  0  0  0
   17.1463  -16.8571    4.1579 C   0  0  1  0  0  0  0  0  0  0  0  0
   16.8858  -15.4929    3.6604 C   0  0  0  0  0  0  0  0  0  0  0  0
   17.7304  -14.4041    4.0618 C   0  0  0  0  0  0  0  0  0  0  0  0
   18.8652  -14.1262    3.2921 C   0  0  0  0  0  0  0  0  0  0  0  0
   19.7442  -13.1137    3.5795 C   0  0  0  0  0  0  0  0  0  0  0  0
   19.4995  -12.3277    4.6833 C   0  0  0  0  0  0  0  0  0  0  0  0
   18.3734  -12.5769    5.4765 C   0  0  0  0  0  0  0  0  0  0  0  0
   17.5182  -13.5996    5.1549 C   0  0  0  0  0  0  0  0  0  0  0  0
   17.4822  -16.9191    5.6105 C   0  0  0  0  0  0  0  0  0  0  0  0
   16.5480  -17.2295    6.3919 O   0  0  0  0  0  0  0  0  0  0  0  0
   21.6968  -18.5628    9.5691 C   0  0  0  0  0  0  0  0  0  0  0  0
   20.5781  -17.5510    9.3321 C   0  0  0  0  0  0  0  0  0  0  0  0
   20.1985  -17.5507    7.8667 C   0  0  2  0  0  0  0  0  0  0  0  0
   21.3489  -17.1634    6.9991 C   0  0  0  0  0  0  0  0  0  0  0  0
   19.0009  -16.7148    7.5516 C   0  0  2  0  0  0  0  0  0  0  0  0
   18.7695  -16.6483    6.1010 N   0  0  0  0  0  0  0  0  0  0  0  0
   19.2463  -15.3245    7.9987 C   0  0  0  0  0  0  0  0  0  0  0  0
   19.0313  -14.8715    9.2982 O   0  0  0  0  0  0  0  0  0  0  0  0
   19.6827  -14.4332    7.1894 O   0  0  0  0  0  0  0  0  0  0  0  0
  2  1  1  0
  3  2  1  0
  4  3  1  0
  5  4  1  0
  5  6  1  6
  7  8  2  0
  7  5  1  0
  9  7  1  0
 10  9  1  0
 11 12  1  0
 10 11  1  1
 12 13  2  0
 13 14  1  0
 15 14  2  0
 16 15  1  0
 17 12  1  0
 17 16  2  0
 18 10  1  0
 18 19  2  0
 20 21  1  0
 21 22  1  0
 22 23  1  6
 24 22  1  0
 24 25  1  6
 25 18  1  0
 26 24  1  0
 27 26  1  0
 28 26  2  0
M  END
$$$$
