MFI.pdb
     RDKit          3D

 28 28  0  0  1  0  0  0  0  0999 V2000
   28.0202  -16.4810  -16.0712 C   0  0  0  0  0  0  0  0  0  0  0  0
   28.9125  -17.5513  -17.2326 S   0  0  0  0  0  0  0  0  0  0  0  0
   27.7847  -18.7658  -17.9905 C   0  0  0  0  0  0  0  0  0  0  0  0
   26.8691  -19.3727  -16.9470 C   0  0  0  0  0  0  0  0  0  0  0  0
   27.6141  -20.5238  -16.3107 C   0  0  2  0  0  0  0  0  0  0  0  0
   27.6807  -21.5705  -17.3116 N   0  0  0  0  0  0  0  0  0  0  0  0
   26.9444  -21.0506  -15.1208 C   0  0  0  0  0  0  0  0  0  0  0  0
   25.9973  -21.8429  -15.2161 O   0  0  0  0  0  0  0  0  0  0  0  0
   27.3257  -20.6973  -13.7816 N   0  0  0  0  0  0  0  0  0  0  0  0
   26.5146  -20.8869  -12.6263 C   0  0  1  0  0  0  0  0  0  0  0  0
   27.1435  -20.6289  -11.3170 C   0  0  0  0  0  0  0  0  0  0  0  0
   26.3392  -20.5607  -10.1302 C   0  0  0  0  0  0  0  0  0  0  0  0
   25.8270  -21.7528   -9.6066 C   0  0  0  0  0  0  0  0  0  0  0  0
   25.0462  -21.8100   -8.4808 C   0  0  0  0  0  0  0  0  0  0  0  0
   24.7491  -20.6338   -7.8295 C   0  0  0  0  0  0  0  0  0  0  0  0
   25.2445  -19.4220   -8.3251 C   0  0  0  0  0  0  0  0  0  0  0  0
   26.0224  -19.4074   -9.4544 C   0  0  0  0  0  0  0  0  0  0  0  0
   25.1499  -20.3006  -12.7697 C   0  0  0  0  0  0  0  0  0  0  0  0
   25.0856  -19.0556  -12.9285 O   0  0  0  0  0  0  0  0  0  0  0  0
   22.1393  -20.3311  -16.6302 C   0  0  0  0  0  0  0  0  0  0  0  0
   22.8518  -20.0367  -15.3123 C   0  0  0  0  0  0  0  0  0  0  0  0
   22.0575  -20.6245  -14.1656 C   0  0  2  0  0  0  0  0  0  0  0  0
   20.6450  -20.1439  -14.1696 C   0  0  0  0  0  0  0  0  0  0  0  0
   22.6798  -20.4086  -12.8246 C   0  0  2  0  0  0  0  0  0  0  0  0
   23.9839  -21.0817  -12.7324 N   0  0  0  0  0  0  0  0  0  0  0  0
   21.8206  -21.0201  -11.7850 C   0  0  0  0  0  0  0  0  0  0  0  0
   20.9699  -20.2995  -10.9501 O   0  0  0  0  0  0  0  0  0  0  0  0
   21.8127  -22.2856  -11.5891 O   0  0  0  0  0  0  0  0  0  0  0  0
  2  1  1  0
  3  2  1  0
  4  3  1  0
  5  4  1  0
  5  6  1  6
  7  8  2  0
  7  5  1  0
  9  7  1  0
 10  9  1  0
 11 12  1  0
 10 11  1  1
 12 13  2  0
 13 14  1  0
 15 14  2  0
 16 15  1  0
 17 12  1  0
 17 16  2  0
 18 10  1  0
 18 19  2  0
 20 21  1  0
 21 22  1  0
 22 23  1  1
 24 22  1  0
 24 25  1  6
 25 18  1  0
 26 24  1  0
 27 26  1  0
 28 26  2  0
M  END
$$$$
