MFI.pdb
     RDKit          3D

 28 28  0  0  1  0  0  0  0  0999 V2000
   25.8420  -18.7000  -19.0713 C   0  0  0  0  0  0  0  0  0  0  0  0
   27.6469  -18.5768  -18.9378 S   0  0  0  0  0  0  0  0  0  0  0  0
   28.2980  -19.8328  -17.7890 C   0  0  0  0  0  0  0  0  0  0  0  0
   27.2712  -20.1744  -16.7285 C   0  0  0  0  0  0  0  0  0  0  0  0
   27.8939  -21.2069  -15.8167 C   0  0  2  0  0  0  0  0  0  0  0  0
   27.9583  -22.4388  -16.5782 N   0  0  0  0  0  0  0  0  0  0  0  0
   27.1122  -21.4431  -14.6022 C   0  0  0  0  0  0  0  0  0  0  0  0
   26.0621  -22.0988  -14.6331 O   0  0  0  0  0  0  0  0  0  0  0  0
   27.4945  -20.9440  -13.3105 N   0  0  0  0  0  0  0  0  0  0  0  0
   26.7055  -21.0499  -12.1295 C   0  0  1  0  0  0  0  0  0  0  0  0
   27.3952  -20.8403  -10.8424 C   0  0  0  0  0  0  0  0  0  0  0  0
   26.6371  -20.6793   -9.6344 C   0  0  0  0  0  0  0  0  0  0  0  0
   26.8832  -19.5528   -8.8420 C   0  0  0  0  0  0  0  0  0  0  0  0
   26.2227  -19.2953   -7.6681 C   0  0  0  0  0  0  0  0  0  0  0  0
   25.2665  -20.1910   -7.2448 C   0  0  0  0  0  0  0  0  0  0  0  0
   24.9939  -21.3293   -8.0125 C   0  0  0  0  0  0  0  0  0  0  0  0
   25.6768  -21.5506   -9.1810 C   0  0  0  0  0  0  0  0  0  0  0  0
   25.3961  -20.3426  -12.2382 C   0  0  0  0  0  0  0  0  0  0  0  0
   25.4362  -19.0874  -12.2877 O   0  0  0  0  0  0  0  0  0  0  0  0
   22.6034  -19.8961  -16.2006 C   0  0  0  0  0  0  0  0  0  0  0  0
   23.2241  -19.6683  -14.8243 C   0  0  0  0  0  0  0  0  0  0  0  0
   22.3588  -20.3178  -13.7655 C   0  0  2  0  0  0  0  0  0  0  0  0
   20.9669  -19.7808  -13.7851 C   0  0  0  0  0  0  0  0  0  0  0  0
   22.9295  -20.2419  -12.3868 C   0  0  2  0  0  0  0  0  0  0  0  0
   24.1699  -21.0249  -12.2843 N   0  0  0  0  0  0  0  0  0  0  0  0
   21.9744  -20.8469  -11.4305 C   0  0  0  0  0  0  0  0  0  0  0  0
   21.9567  -22.1979  -11.0919 O   0  0  0  0  0  0  0  0  0  0  0  0
   21.0827  -20.1392  -10.8440 O   0  0  0  0  0  0  0  0  0  0  0  0
  2  1  1  0
  3  2  1  0
  4  3  1  0
  5  4  1  0
  5  6  1  6
  7  8  2  0
  7  5  1  0
  9  7  1  0
 10  9  1  0
 11 12  1  0
 10 11  1  1
 12 13  2  0
 13 14  1  0
 15 14  2  0
 16 15  1  0
 17 12  1  0
 17 16  2  0
 18 10  1  0
 18 19  2  0
 20 21  1  0
 21 22  1  0
 22 23  1  1
 24 22  1  0
 24 25  1  6
 25 18  1  0
 26 24  1  0
 27 26  1  0
 28 26  2  0
M  END
$$$$
