MFI.pdb
     RDKit          3D

 28 28  0  0  1  0  0  0  0  0999 V2000
   12.4993  -11.3282  -13.8598 C   0  0  0  0  0  0  0  0  0  0  0  0
   12.9005  -11.2842  -15.6283 S   0  0  0  0  0  0  0  0  0  0  0  0
   14.6111  -10.7128  -15.8897 C   0  0  0  0  0  0  0  0  0  0  0  0
   15.5834  -11.5350  -15.0686 C   0  0  0  0  0  0  0  0  0  0  0  0
   16.9604  -10.9498  -15.2846 C   0  0  2  0  0  0  0  0  0  0  0  0
   17.8498  -12.0716  -15.5133 N   0  0  0  0  0  0  0  0  0  0  0  0
   17.4462  -10.1898  -14.1320 C   0  0  0  0  0  0  0  0  0  0  0  0
   17.9578  -10.7590  -13.1584 O   0  0  0  0  0  0  0  0  0  0  0  0
   17.3686   -8.7581  -14.0439 N   0  0  0  0  0  0  0  0  0  0  0  0
   17.8349   -7.9828  -12.9440 C   0  0  1  0  0  0  0  0  0  0  0  0
   19.1410   -7.3151  -13.1013 C   0  0  0  0  0  0  0  0  0  0  0  0
   20.3325   -8.0934  -13.2864 C   0  0  0  0  0  0  0  0  0  0  0  0
   20.9759   -8.6012  -12.1525 C   0  0  0  0  0  0  0  0  0  0  0  0
   22.1201   -9.3552  -12.2066 C   0  0  0  0  0  0  0  0  0  0  0  0
   22.6665   -9.6283  -13.4406 C   0  0  0  0  0  0  0  0  0  0  0  0
   22.0496   -9.1364  -14.5968 C   0  0  0  0  0  0  0  0  0  0  0  0
   20.9059   -8.3859  -14.5000 C   0  0  0  0  0  0  0  0  0  0  0  0
   16.7761   -7.1125  -12.3540 C   0  0  0  0  0  0  0  0  0  0  0  0
   16.0136   -6.5259  -13.1628 O   0  0  0  0  0  0  0  0  0  0  0  0
   12.6756   -6.8383   -8.0291 C   0  0  0  0  0  0  0  0  0  0  0  0
   13.5593   -5.9651   -8.9167 C   0  0  0  0  0  0  0  0  0  0  0  0
   14.7064   -6.7916   -9.4578 C   0  0  2  0  0  0  0  0  0  0  0  0
   15.5693   -7.3215   -8.3620 C   0  0  0  0  0  0  0  0  0  0  0  0
   15.5345   -6.0826  -10.4794 C   0  0  2  0  0  0  0  0  0  0  0  0
   16.6215   -6.9434  -10.9688 N   0  0  0  0  0  0  0  0  0  0  0  0
   16.1830   -4.9088   -9.8510 C   0  0  0  0  0  0  0  0  0  0  0  0
   15.5050   -3.7562   -9.4611 O   0  0  0  0  0  0  0  0  0  0  0  0
   17.4433   -4.8875   -9.6251 O   0  0  0  0  0  0  0  0  0  0  0  0
  2  1  1  0
  3  2  1  0
  4  3  1  0
  5  4  1  0
  5  6  1  1
  7  8  2  0
  7  5  1  0
  9  7  1  0
 10  9  1  0
 11 12  1  0
 10 11  1  6
 12 13  2  0
 13 14  1  0
 15 14  2  0
 16 15  1  0
 17 12  1  0
 17 16  2  0
 18 10  1  0
 18 19  2  0
 20 21  1  0
 21 22  1  0
 22 23  1  1
 24 22  1  0
 24 25  1  1
 25 18  1  0
 26 24  1  0
 27 26  1  0
 28 26  2  0
M  END
$$$$
