MFI.pdb
     RDKit          3D

 28 28  0  0  1  0  0  0  0  0999 V2000
   24.0948  -31.3720   -7.2380 C   0  0  0  0  0  0  0  0  0  0  0  0
   24.5960  -32.0949   -8.8245 S   0  0  0  0  0  0  0  0  0  0  0  0
   26.3198  -32.6819   -8.7523 C   0  0  0  0  0  0  0  0  0  0  0  0
   26.5504  -33.5194   -7.5109 C   0  0  0  0  0  0  0  0  0  0  0  0
   27.9919  -33.9737   -7.5372 C   0  0  2  0  0  0  0  0  0  0  0  0
   28.0767  -35.0054   -8.5522 N   0  0  0  0  0  0  0  0  0  0  0  0
   28.4396  -34.5305   -6.2599 C   0  0  0  0  0  0  0  0  0  0  0  0
   28.5527  -35.7531   -6.0979 O   0  0  0  0  0  0  0  0  0  0  0  0
   28.7745  -33.7200   -5.1221 N   0  0  0  0  0  0  0  0  0  0  0  0
   29.2639  -34.2194   -3.8813 C   0  0  1  0  0  0  0  0  0  0  0  0
   30.6261  -33.8131   -3.4864 C   0  0  0  0  0  0  0  0  0  0  0  0
   31.7688  -34.3941   -4.1317 C   0  0  0  0  0  0  0  0  0  0  0  0
   32.3697  -33.6876   -5.1792 C   0  0  0  0  0  0  0  0  0  0  0  0
   33.4633  -34.1438   -5.8693 C   0  0  0  0  0  0  0  0  0  0  0  0
   34.0003  -35.3611   -5.5146 C   0  0  0  0  0  0  0  0  0  0  0  0
   33.4251  -36.0956   -4.4711 C   0  0  0  0  0  0  0  0  0  0  0  0
   32.3314  -35.6042   -3.8055 C   0  0  0  0  0  0  0  0  0  0  0  0
   28.2609  -34.1288   -2.7803 C   0  0  0  0  0  0  0  0  0  0  0  0
   27.7905  -32.9886   -2.5392 O   0  0  0  0  0  0  0  0  0  0  0  0
   23.2773  -36.3963   -0.6111 C   0  0  0  0  0  0  0  0  0  0  0  0
   24.5653  -35.7123   -0.1589 C   0  0  0  0  0  0  0  0  0  0  0  0
   25.5893  -35.7758   -1.2720 C   0  0  2  0  0  0  0  0  0  0  0  0
   25.8678  -37.1820   -1.6857 C   0  0  0  0  0  0  0  0  0  0  0  0
   26.8636  -35.0590   -0.9641 C   0  0  2  0  0  0  0  0  0  0  0  0
   27.8493  -35.2477   -2.0388 N   0  0  0  0  0  0  0  0  0  0  0  0
   27.4646  -35.6381    0.2592 C   0  0  0  0  0  0  0  0  0  0  0  0
   27.0020  -35.3918    1.5498 O   0  0  0  0  0  0  0  0  0  0  0  0
   28.4756  -36.4214    0.1963 O   0  0  0  0  0  0  0  0  0  0  0  0
  2  1  1  0
  3  2  1  0
  4  3  1  0
  5  4  1  0
  5  6  1  6
  7  8  2  0
  7  5  1  0
  9  7  1  0
 10  9  1  0
 11 12  1  0
 10 11  1  1
 12 13  2  0
 13 14  1  0
 15 14  2  0
 16 15  1  0
 17 12  1  0
 17 16  2  0
 18 10  1  0
 18 19  2  0
 20 21  1  0
 21 22  1  0
 22 23  1  1
 24 22  1  0
 24 25  1  6
 25 18  1  0
 26 24  1  0
 27 26  1  0
 28 26  2  0
M  END
$$$$
