MFI.pdb
     RDKit          3D

 28 28  0  0  1  0  0  0  0  0999 V2000
   26.5642  -20.2104  -20.0015 C   0  0  0  0  0  0  0  0  0  0  0  0
   28.2686  -19.7644  -19.5696 S   0  0  0  0  0  0  0  0  0  0  0  0
   28.8880  -20.8124  -18.2135 C   0  0  0  0  0  0  0  0  0  0  0  0
   27.8401  -20.9630  -17.1295 C   0  0  0  0  0  0  0  0  0  0  0  0
   28.4574  -21.7819  -16.0189 C   0  0  2  0  0  0  0  0  0  0  0  0
   28.5819  -23.1334  -16.5285 N   0  0  0  0  0  0  0  0  0  0  0  0
   27.6396  -21.8085  -14.8055 C   0  0  0  0  0  0  0  0  0  0  0  0
   26.5706  -22.4327  -14.7664 O   0  0  0  0  0  0  0  0  0  0  0  0
   28.0058  -21.1283  -13.5944 N   0  0  0  0  0  0  0  0  0  0  0  0
   27.2074  -21.0750  -12.4161 C   0  0  1  0  0  0  0  0  0  0  0  0
   27.8969  -20.7441  -11.1545 C   0  0  0  0  0  0  0  0  0  0  0  0
   27.1605  -20.6792   -9.9244 C   0  0  0  0  0  0  0  0  0  0  0  0
   27.1678  -19.4766   -9.2095 C   0  0  0  0  0  0  0  0  0  0  0  0
   26.5032  -19.2981   -8.0233 C   0  0  0  0  0  0  0  0  0  0  0  0
   25.7905  -20.3568   -7.5064 C   0  0  0  0  0  0  0  0  0  0  0  0
   25.7609  -21.5753   -8.1947 C   0  0  0  0  0  0  0  0  0  0  0  0
   26.4392  -21.7132   -9.3786 C   0  0  0  0  0  0  0  0  0  0  0  0
   25.9226  -20.3427  -12.6153 C   0  0  0  0  0  0  0  0  0  0  0  0
   26.0061  -19.1676  -13.0530 O   0  0  0  0  0  0  0  0  0  0  0  0
   21.4291  -19.4476  -15.7363 C   0  0  0  0  0  0  0  0  0  0  0  0
   21.7112  -19.4580  -14.2358 C   0  0  0  0  0  0  0  0  0  0  0  0
   23.0384  -20.1379  -13.9754 C   0  0  2  0  0  0  0  0  0  0  0  0
   23.0546  -21.5348  -14.4994 C   0  0  0  0  0  0  0  0  0  0  0  0
   23.4615  -20.1116  -12.5427 C   0  0  2  0  0  0  0  0  0  0  0  0
   24.6732  -20.9182  -12.3345 N   0  0  0  0  0  0  0  0  0  0  0  0
   22.4024  -20.7279  -11.7111 C   0  0  0  0  0  0  0  0  0  0  0  0
   21.1850  -20.1183  -11.4171 O   0  0  0  0  0  0  0  0  0  0  0  0
   22.5525  -21.8919  -11.1989 O   0  0  0  0  0  0  0  0  0  0  0  0
  2  1  1  0
  3  2  1  0
  4  3  1  0
  5  4  1  0
  5  6  1  6
  7  8  2  0
  7  5  1  0
  9  7  1  0
 10  9  1  0
 11 12  1  0
 10 11  1  1
 12 13  2  0
 13 14  1  0
 15 14  2  0
 16 15  1  0
 17 12  1  0
 17 16  2  0
 18 10  1  0
 18 19  2  0
 20 21  1  0
 21 22  1  0
 22 23  1  1
 24 22  1  0
 24 25  1  6
 25 18  1  0
 26 24  1  0
 27 26  1  0
 28 26  2  0
M  END
$$$$
