MFI.pdb
     RDKit          3D

 28 28  0  0  1  0  0  0  0  0999 V2000
   22.5971  -19.1658  -14.5637 C   0  0  0  0  0  0  0  0  0  0  0  0
   24.0169  -19.0341  -15.6851 S   0  0  0  0  0  0  0  0  0  0  0  0
   25.4431  -19.9640  -15.0354 C   0  0  0  0  0  0  0  0  0  0  0  0
   25.2287  -20.3290  -13.5806 C   0  0  0  0  0  0  0  0  0  0  0  0
   26.5023  -20.9773  -13.0878 C   0  0  2  0  0  0  0  0  0  0  0  0
   26.6205  -22.2364  -13.7967 N   0  0  0  0  0  0  0  0  0  0  0  0
   26.4882  -21.2453  -11.6491 C   0  0  0  0  0  0  0  0  0  0  0  0
   25.9001  -22.2322  -11.1866 O   0  0  0  0  0  0  0  0  0  0  0  0
   27.1405  -20.4033  -10.6852 N   0  0  0  0  0  0  0  0  0  0  0  0
   27.0145  -20.5324   -9.2724 C   0  0  1  0  0  0  0  0  0  0  0  0
   28.1182  -20.0009   -8.4504 C   0  0  0  0  0  0  0  0  0  0  0  0
   28.0053  -19.9739   -7.0199 C   0  0  0  0  0  0  0  0  0  0  0  0
   27.7784  -18.7426   -6.3955 C   0  0  0  0  0  0  0  0  0  0  0  0
   27.6553  -18.5947   -5.0378 C   0  0  0  0  0  0  0  0  0  0  0  0
   27.7600  -19.7156   -4.2449 C   0  0  0  0  0  0  0  0  0  0  0  0
   27.9869  -20.9643   -4.8353 C   0  0  0  0  0  0  0  0  0  0  0  0
   28.1041  -21.0700   -6.1976 C   0  0  0  0  0  0  0  0  0  0  0  0
   25.6564  -20.1684   -8.7728 C   0  0  0  0  0  0  0  0  0  0  0  0
   25.2785  -18.9875   -8.9782 O   0  0  0  0  0  0  0  0  0  0  0  0
   21.3472  -21.8533  -10.6583 C   0  0  0  0  0  0  0  0  0  0  0  0
   22.2925  -21.9925   -9.4674 C   0  0  0  0  0  0  0  0  0  0  0  0
   22.5471  -20.6287   -8.8617 C   0  0  2  0  0  0  0  0  0  0  0  0
   23.0100  -19.6479   -9.8864 C   0  0  0  0  0  0  0  0  0  0  0  0
   23.4822  -20.6486   -7.6966 C   0  0  2  0  0  0  0  0  0  0  0  0
   24.8264  -21.0828   -8.1050 N   0  0  0  0  0  0  0  0  0  0  0  0
   23.0059  -21.6421   -6.7071 C   0  0  0  0  0  0  0  0  0  0  0  0
   21.7715  -21.5767   -6.0651 O   0  0  0  0  0  0  0  0  0  0  0  0
   23.7259  -22.6478   -6.3754 O   0  0  0  0  0  0  0  0  0  0  0  0
  2  1  1  0
  3  2  1  0
  4  3  1  0
  5  4  1  0
  5  6  1  6
  7  8  2  0
  7  5  1  0
  9  7  1  0
 10  9  1  0
 11 12  1  0
 10 11  1  1
 12 13  2  0
 13 14  1  0
 15 14  2  0
 16 15  1  0
 17 12  1  0
 17 16  2  0
 18 10  1  0
 18 19  2  0
 20 21  1  0
 21 22  1  0
 22 23  1  6
 24 22  1  0
 24 25  1  6
 25 18  1  0
 26 24  1  0
 27 26  1  0
 28 26  2  0
M  END
$$$$
