MFI.pdb
     RDKit          3D

 28 28  0  0  1  0  0  0  0  0999 V2000
   28.0221  -18.1902  -14.8883 C   0  0  0  0  0  0  0  0  0  0  0  0
   29.5617  -19.1028  -15.1840 S   0  0  0  0  0  0  0  0  0  0  0  0
   30.2026  -19.8108  -13.6319 C   0  0  0  0  0  0  0  0  0  0  0  0
   29.0658  -20.2628  -12.7381 C   0  0  0  0  0  0  0  0  0  0  0  0
   29.6707  -20.6724  -11.4147 C   0  0  2  0  0  0  0  0  0  0  0  0
   30.4737  -21.8500  -11.6796 N   0  0  0  0  0  0  0  0  0  0  0  0
   28.6652  -21.0044  -10.4044 C   0  0  0  0  0  0  0  0  0  0  0  0
   28.3666  -22.1811  -10.1596 O   0  0  0  0  0  0  0  0  0  0  0  0
   27.9636  -20.0134   -9.6368 N   0  0  0  0  0  0  0  0  0  0  0  0
   26.6643  -20.1839   -9.0789 C   0  0  1  0  0  0  0  0  0  0  0  0
   26.3951  -19.5147   -7.7920 C   0  0  0  0  0  0  0  0  0  0  0  0
   27.2350  -19.7685   -6.6562 C   0  0  0  0  0  0  0  0  0  0  0  0
   28.1751  -18.7968   -6.2961 C   0  0  0  0  0  0  0  0  0  0  0  0
   29.0308  -18.9302   -5.2329 C   0  0  0  0  0  0  0  0  0  0  0  0
   28.9633  -20.0800   -4.4783 C   0  0  0  0  0  0  0  0  0  0  0  0
   28.0348  -21.0737   -4.8095 C   0  0  0  0  0  0  0  0  0  0  0  0
   27.1962  -20.9019   -5.8810 C   0  0  0  0  0  0  0  0  0  0  0  0
   25.5730  -20.0262  -10.0844 C   0  0  0  0  0  0  0  0  0  0  0  0
   25.6034  -18.9869  -10.7904 O   0  0  0  0  0  0  0  0  0  0  0  0
   25.0489  -23.3522  -13.8861 C   0  0  0  0  0  0  0  0  0  0  0  0
   25.0611  -22.1308  -12.9701 C   0  0  0  0  0  0  0  0  0  0  0  0
   23.7061  -21.9781  -12.3126 C   0  0  2  0  0  0  0  0  0  0  0  0
   22.6077  -21.9178  -13.3206 C   0  0  0  0  0  0  0  0  0  0  0  0
   23.6166  -20.8210  -11.3716 C   0  0  2  0  0  0  0  0  0  0  0  0
   24.5545  -20.9782  -10.2500 N   0  0  0  0  0  0  0  0  0  0  0  0
   22.2604  -20.7797  -10.7783 C   0  0  0  0  0  0  0  0  0  0  0  0
   21.1888  -20.0774  -11.3248 O   0  0  0  0  0  0  0  0  0  0  0  0
   21.9894  -21.4065   -9.6951 O   0  0  0  0  0  0  0  0  0  0  0  0
  2  1  1  0
  3  2  1  0
  4  3  1  0
  5  4  1  0
  5  6  1  6
  7  8  2  0
  7  5  1  0
  9  7  1  0
 10  9  1  0
 11 12  1  0
 10 11  1  1
 12 13  2  0
 13 14  1  0
 15 14  2  0
 16 15  1  0
 17 12  1  0
 17 16  2  0
 18 10  1  0
 18 19  2  0
 20 21  1  0
 21 22  1  0
 22 23  1  6
 24 22  1  0
 24 25  1  1
 25 18  1  0
 26 24  1  0
 27 26  1  0
 28 26  2  0
M  END
$$$$
