MFI.pdb
     RDKit          3D

 28 28  0  0  1  0  0  0  0  0999 V2000
   23.3554  -26.7107  -18.2025 C   0  0  0  0  0  0  0  0  0  0  0  0
   24.8043  -27.1182  -17.1899 S   0  0  0  0  0  0  0  0  0  0  0  0
   25.3872  -25.6537  -16.2753 C   0  0  0  0  0  0  0  0  0  0  0  0
   24.7146  -24.3969  -16.7890 C   0  0  0  0  0  0  0  0  0  0  0  0
   25.2306  -23.2414  -15.9620 C   0  0  2  0  0  0  0  0  0  0  0  0
   26.5526  -23.6236  -15.5061 N   0  0  0  0  0  0  0  0  0  0  0  0
   24.3940  -22.9539  -14.7961 C   0  0  0  0  0  0  0  0  0  0  0  0
   24.5212  -23.5926  -13.7427 O   0  0  0  0  0  0  0  0  0  0  0  0
   23.3844  -21.9321  -14.7844 N   0  0  0  0  0  0  0  0  0  0  0  0
   22.5125  -21.6602  -13.6916 C   0  0  1  0  0  0  0  0  0  0  0  0
   22.2818  -20.2423  -13.3557 C   0  0  0  0  0  0  0  0  0  0  0  0
   21.5313  -19.8904  -12.1842 C   0  0  0  0  0  0  0  0  0  0  0  0
   20.1883  -19.5302  -12.3401 C   0  0  0  0  0  0  0  0  0  0  0  0
   19.3749  -19.1738  -11.2952 C   0  0  0  0  0  0  0  0  0  0  0  0
   19.9054  -19.1693  -10.0245 C   0  0  0  0  0  0  0  0  0  0  0  0
   21.2456  -19.5240   -9.8309 C   0  0  0  0  0  0  0  0  0  0  0  0
   22.0261  -19.8745  -10.9027 C   0  0  0  0  0  0  0  0  0  0  0  0
   21.2706  -22.4872  -13.7171 C   0  0  0  0  0  0  0  0  0  0  0  0
   20.7306  -22.6580  -14.8391 O   0  0  0  0  0  0  0  0  0  0  0  0
   18.7775  -27.3404  -11.1140 C   0  0  0  0  0  0  0  0  0  0  0  0
   18.4875  -26.0852  -11.9336 C   0  0  0  0  0  0  0  0  0  0  0  0
   19.6453  -25.1185  -11.8049 C   0  0  2  0  0  0  0  0  0  0  0  0
   19.8605  -24.7011  -10.3887 C   0  0  0  0  0  0  0  0  0  0  0  0
   19.5361  -23.9215  -12.6923 C   0  0  2  0  0  0  0  0  0  0  0  0
   20.7167  -23.0551  -12.5588 N   0  0  0  0  0  0  0  0  0  0  0  0
   18.3723  -23.1081  -12.2716 C   0  0  0  0  0  0  0  0  0  0  0  0
   18.4704  -21.8689  -11.6432 O   0  0  0  0  0  0  0  0  0  0  0  0
   17.1732  -23.5123  -12.4677 O   0  0  0  0  0  0  0  0  0  0  0  0
  2  1  1  0
  3  2  1  0
  4  3  1  0
  5  4  1  0
  5  6  1  1
  7  8  2  0
  7  5  1  0
  9  7  1  0
 10  9  1  0
 11 12  1  0
 10 11  1  6
 12 13  2  0
 13 14  1  0
 15 14  2  0
 16 15  1  0
 17 12  1  0
 17 16  2  0
 18 10  1  0
 18 19  2  0
 20 21  1  0
 21 22  1  0
 22 23  1  1
 24 22  1  0
 24 25  1  1
 25 18  1  0
 26 24  1  0
 27 26  1  0
 28 26  2  0
M  END
$$$$
