MFI.pdb
     RDKit          3D

 28 28  0  0  1  0  0  0  0  0999 V2000
   15.6525   -8.5372  -18.9557 C   0  0  0  0  0  0  0  0  0  0  0  0
   15.6012  -10.3197  -19.2885 S   0  0  0  0  0  0  0  0  0  0  0  0
   17.2649  -11.0512  -19.1548 C   0  0  0  0  0  0  0  0  0  0  0  0
   17.9746  -10.5483  -17.9142 C   0  0  0  0  0  0  0  0  0  0  0  0
   19.3453  -11.1852  -17.8917 C   0  0  2  0  0  0  0  0  0  0  0  0
   19.1334  -12.6031  -17.6762 N   0  0  0  0  0  0  0  0  0  0  0  0
   20.1990  -10.6676  -16.8216 C   0  0  0  0  0  0  0  0  0  0  0  0
   20.0572  -11.0433  -15.6500 O   0  0  0  0  0  0  0  0  0  0  0  0
   21.2432   -9.7062  -17.0431 N   0  0  0  0  0  0  0  0  0  0  0  0
   22.0544   -9.1340  -16.0218 C   0  0  1  0  0  0  0  0  0  0  0  0
   23.4751   -9.5305  -15.9943 C   0  0  0  0  0  0  0  0  0  0  0  0
   23.8376  -10.9192  -15.9916 C   0  0  0  0  0  0  0  0  0  0  0  0
   23.9211  -11.5854  -17.2191 C   0  0  0  0  0  0  0  0  0  0  0  0
   24.2559  -12.9097  -17.3393 C   0  0  0  0  0  0  0  0  0  0  0  0
   24.5245  -13.6238  -16.1930 C   0  0  0  0  0  0  0  0  0  0  0  0
   24.4506  -12.9897  -14.9473 C   0  0  0  0  0  0  0  0  0  0  0  0
   24.1122  -11.6630  -14.8698 C   0  0  0  0  0  0  0  0  0  0  0  0
   21.8304   -7.6685  -15.8522 C   0  0  0  0  0  0  0  0  0  0  0  0
   22.0568   -6.9444  -16.8542 O   0  0  0  0  0  0  0  0  0  0  0  0
   17.3924   -5.4120  -15.0406 C   0  0  0  0  0  0  0  0  0  0  0  0
   18.8350   -5.7066  -15.4446 C   0  0  0  0  0  0  0  0  0  0  0  0
   19.7668   -5.3069  -14.3205 C   0  0  2  0  0  0  0  0  0  0  0  0
   19.6278   -3.8618  -13.9764 C   0  0  0  0  0  0  0  0  0  0  0  0
   21.1993   -5.6498  -14.5705 C   0  0  2  0  0  0  0  0  0  0  0  0
   21.3893   -7.1061  -14.6438 N   0  0  0  0  0  0  0  0  0  0  0  0
   22.0187   -5.1794  -13.4302 C   0  0  0  0  0  0  0  0  0  0  0  0
   22.4377   -5.9928  -12.3801 O   0  0  0  0  0  0  0  0  0  0  0  0
   22.3986   -3.9596  -13.3433 O   0  0  0  0  0  0  0  0  0  0  0  0
  2  1  1  0
  3  2  1  0
  4  3  1  0
  5  4  1  0
  5  6  1  1
  7  8  2  0
  7  5  1  0
  9  7  1  0
 10  9  1  0
 11 12  1  0
 10 11  1  6
 12 13  2  0
 13 14  1  0
 15 14  2  0
 16 15  1  0
 17 12  1  0
 17 16  2  0
 18 10  1  0
 18 19  2  0
 20 21  1  0
 21 22  1  0
 22 23  1  6
 24 22  1  0
 24 25  1  1
 25 18  1  0
 26 24  1  0
 27 26  1  0
 28 26  2  0
M  END
$$$$
