TEY.pdb
     RDKit          3D

 29 29  0  0  1  0  0  0  0  0999 V2000
   27.3877  -25.6944  -17.4344 C   0  0  0  0  0  0  0  0  0  0  0  0
   28.8467  -25.9961  -17.2522 C   0  0  1  0  0  0  0  0  0  0  0  0
   29.2356  -27.1719  -17.8951 O   0  0  0  0  0  0  0  0  0  0  0  0
   29.6564  -24.8175  -17.7473 C   0  0  2  0  0  0  0  0  0  0  0  0
   31.0729  -24.9684  -17.4924 N   0  0  0  0  0  0  0  0  0  0  0  0
   29.2074  -23.5317  -17.1744 C   0  0  0  0  0  0  0  0  0  0  0  0
   29.6682  -23.0996  -16.0833 O   0  0  0  0  0  0  0  0  0  0  0  0
   28.2507  -22.7611  -17.8378 N   0  0  0  0  0  0  0  0  0  0  0  0
   27.7471  -21.4899  -17.3310 C   0  0  1  0  0  0  0  0  0  0  0  0
   27.0443  -20.8077  -18.4651 C   0  0  0  0  0  0  0  0  0  0  0  0
   26.3957  -19.5029  -18.1158 C   0  0  0  0  0  0  0  0  0  0  0  0
   25.7568  -19.0131  -19.3901 C   0  0  0  0  0  0  0  0  0  0  0  0
   25.1693  -19.8822  -20.1068 O   0  0  0  0  0  0  0  0  0  0  0  0
   26.7408  -21.7086  -16.2682 C   0  0  0  0  0  0  0  0  0  0  0  0
   25.9554  -22.6933  -16.2662 O   0  0  0  0  0  0  0  0  0  0  0  0
   25.7727  -17.7071  -19.8078 O   0  0  0  0  0  0  0  0  0  0  0  0
   22.6791  -20.4350   -8.4806 O   0  0  0  0  0  0  0  0  0  0  0  0
   23.5691  -20.4040   -9.5742 C   0  0  0  0  0  0  0  0  0  0  0  0
   23.1151  -19.8598  -10.7553 C   0  0  0  0  0  0  0  0  0  0  0  0
   24.0000  -19.8322  -11.8271 C   0  0  0  0  0  0  0  0  0  0  0  0
   25.2834  -20.3188  -11.7468 C   0  0  0  0  0  0  0  0  0  0  0  0
   26.1267  -20.2502  -12.9378 C   0  0  0  0  0  0  0  0  0  0  0  0
   25.6669  -21.0836  -14.1030 C   0  0  2  0  0  0  0  0  0  0  0  0
   26.6208  -20.8018  -15.1922 N   0  0  0  0  0  0  0  0  0  0  0  0
   24.3022  -20.6627  -14.4864 C   0  0  0  0  0  0  0  0  0  0  0  0
   24.0663  -19.6690  -15.2194 O   0  0  0  0  0  0  0  0  0  0  0  0
   25.6907  -20.8541  -10.5412 C   0  0  0  0  0  0  0  0  0  0  0  0
   24.8449  -20.8982   -9.4638 C   0  0  0  0  0  0  0  0  0  0  0  0
   23.1630  -21.3652  -14.0430 O   0  0  0  0  0  0  0  0  0  0  0  0
  2  3  1  0
  2  1  1  6
  4  2  1  0
  4  5  1  1
  6  7  2  0
  6  4  1  0
  8  6  1  0
  9  8  1  0
  9 10  1  6
 11 12  1  0
 11 10  1  0
 12 13  2  0
 14 24  1  0
 14  9  1  0
 15 14  2  0
 16 12  1  0
 18 17  1  0
 19 18  2  0
 20 19  1  0
 21 27  1  0
 21 20  2  0
 23 22  1  1
 22 21  1  0
 23 24  1  0
 23 25  1  0
 25 29  1  0
 26 25  2  0
 27 28  2  0
 28 18  1  0
M  END
$$$$
