TEY.pdb
     RDKit          3D

 29 29  0  0  1  0  0  0  0  0999 V2000
   28.4601  -12.7335  -15.9601 C   0  0  0  0  0  0  0  0  0  0  0  0
   27.1611  -11.9886  -16.0631 C   0  0  1  0  0  0  0  0  0  0  0  0
   27.3228  -10.6085  -15.9362 O   0  0  0  0  0  0  0  0  0  0  0  0
   26.5003  -12.3355  -17.3795 C   0  0  2  0  0  0  0  0  0  0  0  0
   27.3294  -12.0129  -18.5209 N   0  0  0  0  0  0  0  0  0  0  0  0
   25.1855  -11.6836  -17.5509 C   0  0  0  0  0  0  0  0  0  0  0  0
   25.0639  -10.6025  -18.1880 O   0  0  0  0  0  0  0  0  0  0  0  0
   24.0376  -12.2586  -17.0024 N   0  0  0  0  0  0  0  0  0  0  0  0
   22.7077  -11.6721  -17.1191 C   0  0  1  0  0  0  0  0  0  0  0  0
   21.7173  -12.7880  -16.9808 C   0  0  0  0  0  0  0  0  0  0  0  0
   20.2824  -12.3849  -17.1355 C   0  0  0  0  0  0  0  0  0  0  0  0
   19.4866  -13.6583  -17.0054 C   0  0  0  0  0  0  0  0  0  0  0  0
   19.2985  -14.3271  -18.0690 O   0  0  0  0  0  0  0  0  0  0  0  0
   22.4505  -10.7264  -16.0103 C   0  0  0  0  0  0  0  0  0  0  0  0
   22.9933  -10.8390  -14.8793 O   0  0  0  0  0  0  0  0  0  0  0  0
   18.9676  -14.1257  -15.8252 O   0  0  0  0  0  0  0  0  0  0  0  0
   22.5562   -2.3160  -14.6114 O   0  0  0  0  0  0  0  0  0  0  0  0
   22.5820   -3.7245  -14.6788 C   0  0  0  0  0  0  0  0  0  0  0  0
   23.2558   -4.3039  -15.7312 C   0  0  0  0  0  0  0  0  0  0  0  0
   23.2770   -5.6927  -15.7883 C   0  0  0  0  0  0  0  0  0  0  0  0
   22.6619   -6.4869  -14.8495 C   0  0  0  0  0  0  0  0  0  0  0  0
   22.7369   -7.9369  -15.0115 C   0  0  0  0  0  0  0  0  0  0  0  0
   21.4128   -8.6455  -15.1018 C   0  0  2  0  0  0  0  0  0  0  0  0
   21.5675   -9.6376  -16.1822 N   0  0  0  0  0  0  0  0  0  0  0  0
   20.3637   -7.6622  -15.4464 C   0  0  0  0  0  0  0  0  0  0  0  0
   19.6422   -7.0927  -14.5887 O   0  0  0  0  0  0  0  0  0  0  0  0
   21.9998   -5.8580  -13.8141 C   0  0  0  0  0  0  0  0  0  0  0  0
   21.9578   -4.4911  -13.7264 C   0  0  0  0  0  0  0  0  0  0  0  0
   20.1057   -7.2989  -16.7841 O   0  0  0  0  0  0  0  0  0  0  0  0
  2  3  1  0
  2  1  1  6
  4  2  1  0
  4  5  1  6
  6  7  2  0
  6  4  1  0
  8  6  1  0
  9  8  1  0
  9 10  1  1
 11 12  1  0
 11 10  1  0
 12 13  2  0
 14 24  1  0
 14  9  1  0
 15 14  2  0
 16 12  1  0
 18 17  1  0
 19 18  2  0
 20 19  1  0
 21 27  1  0
 21 20  2  0
 23 22  1  6
 22 21  1  0
 23 24  1  0
 23 25  1  0
 25 29  1  0
 26 25  2  0
 27 28  2  0
 28 18  1  0
M  END
$$$$
