TEY.pdb
     RDKit          3D

 29 29  0  0  1  0  0  0  0  0999 V2000
   13.4867  -10.0588  -12.4842 C   0  0  0  0  0  0  0  0  0  0  0  0
   14.2938  -11.3223  -12.5551 C   0  0  1  0  0  0  0  0  0  0  0  0
   13.6437  -12.3351  -13.2611 O   0  0  0  0  0  0  0  0  0  0  0  0
   15.6387  -11.0106  -13.1747 C   0  0  2  0  0  0  0  0  0  0  0  0
   16.4727  -12.1848  -13.3156 N   0  0  0  0  0  0  0  0  0  0  0  0
   16.3914   -9.9833  -12.4254 C   0  0  0  0  0  0  0  0  0  0  0  0
   16.9866  -10.2571  -11.3482 O   0  0  0  0  0  0  0  0  0  0  0  0
   16.4577   -8.6723  -12.9008 N   0  0  0  0  0  0  0  0  0  0  0  0
   17.1702   -7.6011  -12.2143 C   0  0  1  0  0  0  0  0  0  0  0  0
   18.1555   -7.0292  -13.1877 C   0  0  0  0  0  0  0  0  0  0  0  0
   19.3969   -7.8446  -13.3861 C   0  0  0  0  0  0  0  0  0  0  0  0
   20.1546   -7.1664  -14.4986 C   0  0  0  0  0  0  0  0  0  0  0  0
   21.4181   -7.2988  -14.4945 O   0  0  0  0  0  0  0  0  0  0  0  0
   16.2451   -6.5073  -11.8431 C   0  0  0  0  0  0  0  0  0  0  0  0
   15.0923   -6.3929  -12.3377 O   0  0  0  0  0  0  0  0  0  0  0  0
   19.5661   -6.4315  -15.4957 O   0  0  0  0  0  0  0  0  0  0  0  0
   10.8113   -3.5528   -6.0490 O   0  0  0  0  0  0  0  0  0  0  0  0
   11.8028   -4.0820   -6.9009 C   0  0  0  0  0  0  0  0  0  0  0  0
   12.8851   -4.7027   -6.3174 C   0  0  0  0  0  0  0  0  0  0  0  0
   13.8564   -5.2225   -7.1653 C   0  0  0  0  0  0  0  0  0  0  0  0
   13.7722   -5.1390   -8.5351 C   0  0  0  0  0  0  0  0  0  0  0  0
   14.8552   -5.7099   -9.3324 C   0  0  0  0  0  0  0  0  0  0  0  0
   15.5935   -4.7356  -10.2095 C   0  0  2  0  0  0  0  0  0  0  0  0
   16.6281   -5.5291  -10.8992 N   0  0  0  0  0  0  0  0  0  0  0  0
   16.2160   -3.6987   -9.3587 C   0  0  0  0  0  0  0  0  0  0  0  0
   17.2477   -3.8992   -8.6689 O   0  0  0  0  0  0  0  0  0  0  0  0
   12.6678   -4.5074   -9.0711 C   0  0  0  0  0  0  0  0  0  0  0  0
   11.6912   -3.9827   -8.2655 C   0  0  0  0  0  0  0  0  0  0  0  0
   15.6776   -2.3988   -9.2691 O   0  0  0  0  0  0  0  0  0  0  0  0
  2  3  1  0
  2  1  1  6
  4  2  1  0
  4  5  1  1
  6  7  2  0
  6  4  1  0
  8  6  1  0
  9  8  1  0
  9 10  1  6
 11 12  1  0
 11 10  1  0
 12 13  2  0
 14 24  1  0
 14  9  1  0
 15 14  2  0
 16 12  1  0
 18 17  1  0
 19 18  2  0
 20 19  1  0
 21 27  1  0
 21 20  2  0
 23 22  1  1
 22 21  1  0
 23 24  1  0
 23 25  1  0
 25 29  1  0
 26 25  2  0
 27 28  2  0
 28 18  1  0
M  END
$$$$
