TEY.pdb
     RDKit          3D

 29 29  0  0  1  0  0  0  0  0999 V2000
   23.1298  -20.7103  -14.2876 C   0  0  0  0  0  0  0  0  0  0  0  0
   24.1181  -20.5427  -15.4048 C   0  0  1  0  0  0  0  0  0  0  0  0
   23.9428  -21.4822  -16.4215 O   0  0  0  0  0  0  0  0  0  0  0  0
   24.0100  -19.1342  -15.9474 C   0  0  2  0  0  0  0  0  0  0  0  0
   24.2661  -18.1279  -14.9395 N   0  0  0  0  0  0  0  0  0  0  0  0
   22.6983  -18.8578  -16.5689 C   0  0  0  0  0  0  0  0  0  0  0  0
   22.3430  -19.4243  -17.6377 O   0  0  0  0  0  0  0  0  0  0  0  0
   21.8163  -17.9511  -15.9781 N   0  0  0  0  0  0  0  0  0  0  0  0
   20.5405  -17.5657  -16.5698 C   0  0  1  0  0  0  0  0  0  0  0  0
   19.4616  -18.2234  -15.7644 C   0  0  0  0  0  0  0  0  0  0  0  0
   18.2543  -18.6442  -16.5458 C   0  0  0  0  0  0  0  0  0  0  0  0
   17.2824  -19.1879  -15.5301 C   0  0  0  0  0  0  0  0  0  0  0  0
   17.5794  -20.2993  -14.9912 O   0  0  0  0  0  0  0  0  0  0  0  0
   20.3303  -16.1048  -16.4620 C   0  0  0  0  0  0  0  0  0  0  0  0
   20.5085  -15.4684  -15.3897 O   0  0  0  0  0  0  0  0  0  0  0  0
   16.1204  -18.5596  -15.1620 O   0  0  0  0  0  0  0  0  0  0  0  0
   24.7356  -14.6130  -21.5768 O   0  0  0  0  0  0  0  0  0  0  0  0
   23.8422  -14.2834  -20.5365 C   0  0  0  0  0  0  0  0  0  0  0  0
   24.0135  -14.9095  -19.3216 C   0  0  0  0  0  0  0  0  0  0  0  0
   23.1291  -14.5771  -18.3020 C   0  0  0  0  0  0  0  0  0  0  0  0
   22.1135  -13.6645  -18.4641 C   0  0  0  0  0  0  0  0  0  0  0  0
   21.2337  -13.3972  -17.3288 C   0  0  0  0  0  0  0  0  0  0  0  0
   19.8183  -13.8839  -17.4807 C   0  0  2  0  0  0  0  0  0  0  0  0
   19.9133  -15.3524  -17.5820 N   0  0  0  0  0  0  0  0  0  0  0  0
   19.2441  -13.3143  -18.7185 C   0  0  0  0  0  0  0  0  0  0  0  0
   18.9331  -14.0091  -19.7190 O   0  0  0  0  0  0  0  0  0  0  0  0
   21.9837  -13.0644  -19.7006 C   0  0  0  0  0  0  0  0  0  0  0  0
   22.8372  -13.3684  -20.7288 C   0  0  0  0  0  0  0  0  0  0  0  0
   19.0076  -11.9308  -18.8519 O   0  0  0  0  0  0  0  0  0  0  0  0
  2  3  1  0
  2  1  1  1
  4  2  1  0
  4  5  1  1
  6  7  2  0
  6  4  1  0
  8  6  1  0
  9  8  1  0
  9 10  1  1
 11 12  1  0
 11 10  1  0
 12 13  2  0
 14 24  1  0
 14  9  1  0
 15 14  2  0
 16 12  1  0
 18 17  1  0
 19 18  2  0
 20 19  1  0
 21 27  1  0
 21 20  2  0
 23 22  1  6
 22 21  1  0
 23 24  1  0
 23 25  1  0
 25 29  1  0
 26 25  2  0
 27 28  2  0
 28 18  1  0
M  END
$$$$
