TEY.pdb
     RDKit          3D

 29 29  0  0  1  0  0  0  0  0999 V2000
   26.1416  -23.2104  -16.8274 C   0  0  0  0  0  0  0  0  0  0  0  0
   27.5248  -22.6287  -16.7871 C   0  0  1  0  0  0  0  0  0  0  0  0
   28.4714  -23.4538  -17.3954 O   0  0  0  0  0  0  0  0  0  0  0  0
   27.5012  -21.2631  -17.4386 C   0  0  2  0  0  0  0  0  0  0  0  0
   28.8106  -20.6493  -17.4931 N   0  0  0  0  0  0  0  0  0  0  0  0
   26.5678  -20.3279  -16.7774 C   0  0  0  0  0  0  0  0  0  0  0  0
   26.8867  -19.7135  -15.7236 O   0  0  0  0  0  0  0  0  0  0  0  0
   25.2978  -20.1047  -17.3124 N   0  0  0  0  0  0  0  0  0  0  0  0
   24.3032  -19.2369  -16.6925 C   0  0  1  0  0  0  0  0  0  0  0  0
   23.4276  -18.7120  -17.7894 C   0  0  0  0  0  0  0  0  0  0  0  0
   22.3440  -17.7781  -17.3435 C   0  0  0  0  0  0  0  0  0  0  0  0
   21.5824  -17.4140  -18.5922 C   0  0  0  0  0  0  0  0  0  0  0  0
   22.0652  -17.8183  -19.6956 O   0  0  0  0  0  0  0  0  0  0  0  0
   23.4327  -20.0055  -15.7752 C   0  0  0  0  0  0  0  0  0  0  0  0
   22.9988  -21.1553  -16.0516 O   0  0  0  0  0  0  0  0  0  0  0  0
   20.4195  -16.6873  -18.6014 O   0  0  0  0  0  0  0  0  0  0  0  0
   28.2963  -22.2221  -12.4120 O   0  0  0  0  0  0  0  0  0  0  0  0
   26.9932  -21.6834  -12.3820 C   0  0  0  0  0  0  0  0  0  0  0  0
   25.9447  -22.5523  -12.1743 C   0  0  0  0  0  0  0  0  0  0  0  0
   24.6643  -22.0119  -12.1449 C   0  0  0  0  0  0  0  0  0  0  0  0
   24.4176  -20.6697  -12.3120 C   0  0  0  0  0  0  0  0  0  0  0  0
   23.0316  -20.2094  -12.2739 C   0  0  0  0  0  0  0  0  0  0  0  0
   22.2857  -20.2995  -13.5774 C   0  0  2  0  0  0  0  0  0  0  0  0
   23.0473  -19.4673  -14.5277 N   0  0  0  0  0  0  0  0  0  0  0  0
   20.9226  -19.7580  -13.3900 C   0  0  0  0  0  0  0  0  0  0  0  0
   20.5523  -18.6464  -13.8458 O   0  0  0  0  0  0  0  0  0  0  0  0
   25.5021  -19.8403  -12.5170 C   0  0  0  0  0  0  0  0  0  0  0  0
   26.7782  -20.3385  -12.5527 C   0  0  0  0  0  0  0  0  0  0  0  0
   19.9390  -20.4708  -12.6743 O   0  0  0  0  0  0  0  0  0  0  0  0
  2  3  1  0
  2  1  1  6
  4  2  1  0
  4  5  1  1
  6  7  2  0
  6  4  1  0
  8  6  1  0
  9  8  1  0
  9 10  1  6
 11 12  1  0
 11 10  1  0
 12 13  2  0
 14 24  1  0
 14  9  1  0
 15 14  2  0
 16 12  1  0
 18 17  1  0
 19 18  2  0
 20 19  1  0
 21 27  1  0
 21 20  2  0
 23 22  1  1
 22 21  1  0
 23 24  1  0
 23 25  1  0
 25 29  1  0
 26 25  2  0
 27 28  2  0
 28 18  1  0
M  END
$$$$
