TEY.pdb
     RDKit          3D

 29 29  0  0  1  0  0  0  0  0999 V2000
   23.6218  -14.1627  -14.8950 C   0  0  0  0  0  0  0  0  0  0  0  0
   22.9464  -12.8607  -15.2140 C   0  0  1  0  0  0  0  0  0  0  0  0
   23.7975  -11.7648  -15.0664 O   0  0  0  0  0  0  0  0  0  0  0  0
   22.3923  -12.9277  -16.6205 C   0  0  2  0  0  0  0  0  0  0  0  0
   23.4175  -13.1734  -17.6119 N   0  0  0  0  0  0  0  0  0  0  0  0
   21.6474  -11.7102  -17.0025 C   0  0  0  0  0  0  0  0  0  0  0  0
   22.0929  -10.9096  -17.8686 O   0  0  0  0  0  0  0  0  0  0  0  0
   20.4210  -11.4179  -16.4028 N   0  0  0  0  0  0  0  0  0  0  0  0
   19.5823  -10.2901  -16.7915 C   0  0  1  0  0  0  0  0  0  0  0  0
   18.1591  -10.6925  -16.5510 C   0  0  0  0  0  0  0  0  0  0  0  0
   17.5470  -11.5333  -17.6297 C   0  0  0  0  0  0  0  0  0  0  0  0
   16.2028  -11.9603  -17.0983 C   0  0  0  0  0  0  0  0  0  0  0  0
   16.0346  -13.2036  -16.8987 O   0  0  0  0  0  0  0  0  0  0  0  0
   19.8499   -9.1148  -15.9330 C   0  0  0  0  0  0  0  0  0  0  0  0
   20.0726   -9.2108  -14.6970 O   0  0  0  0  0  0  0  0  0  0  0  0
   15.1737  -11.0972  -16.8218 O   0  0  0  0  0  0  0  0  0  0  0  0
   22.1705   -0.6710  -14.4241 O   0  0  0  0  0  0  0  0  0  0  0  0
   21.9727   -1.9992  -14.8551 C   0  0  0  0  0  0  0  0  0  0  0  0
   21.2215   -2.1993  -15.9922 C   0  0  0  0  0  0  0  0  0  0  0  0
   21.0333   -3.5117  -16.4101 C   0  0  0  0  0  0  0  0  0  0  0  0
   21.5612   -4.5902  -15.7404 C   0  0  0  0  0  0  0  0  0  0  0  0
   21.2925   -5.9287  -16.2606 C   0  0  0  0  0  0  0  0  0  0  0  0
   20.1511   -6.6583  -15.6061 C   0  0  2  0  0  0  0  0  0  0  0  0
   19.8664   -7.8125  -16.4792 N   0  0  0  0  0  0  0  0  0  0  0  0
   18.9804   -5.7576  -15.5383 C   0  0  0  0  0  0  0  0  0  0  0  0
   18.1158   -5.6791  -16.4475 O   0  0  0  0  0  0  0  0  0  0  0  0
   22.3067   -4.3370  -14.6063 C   0  0  0  0  0  0  0  0  0  0  0  0
   22.5122   -3.0560  -14.1649 C   0  0  0  0  0  0  0  0  0  0  0  0
   18.7614   -4.9169  -14.4278 O   0  0  0  0  0  0  0  0  0  0  0  0
  2  3  1  0
  2  1  1  6
  4  2  1  0
  4  5  1  6
  6  7  2  0
  6  4  1  0
  8  6  1  0
  9  8  1  0
  9 10  1  1
 11 12  1  0
 11 10  1  0
 12 13  2  0
 14 24  1  0
 14  9  1  0
 15 14  2  0
 16 12  1  0
 18 17  1  0
 19 18  2  0
 20 19  1  0
 21 27  1  0
 21 20  2  0
 23 22  1  6
 22 21  1  0
 23 24  1  0
 23 25  1  0
 25 29  1  0
 26 25  2  0
 27 28  2  0
 28 18  1  0
M  END
$$$$
