TEY.pdb
     RDKit          3D

 29 29  0  0  1  0  0  0  0  0999 V2000
   27.4144  -29.8004  -19.0533 C   0  0  0  0  0  0  0  0  0  0  0  0
   27.0486  -28.6277  -18.1906 C   0  0  1  0  0  0  0  0  0  0  0  0
   25.9838  -28.9048  -17.3325 O   0  0  0  0  0  0  0  0  0  0  0  0
   28.2705  -28.1928  -17.4111 C   0  0  2  0  0  0  0  0  0  0  0  0
   28.7365  -29.2097  -16.4930 N   0  0  0  0  0  0  0  0  0  0  0  0
   28.0551  -26.9395  -16.6588 C   0  0  0  0  0  0  0  0  0  0  0  0
   28.0418  -26.9215  -15.3983 O   0  0  0  0  0  0  0  0  0  0  0  0
   27.8578  -25.7357  -17.3378 N   0  0  0  0  0  0  0  0  0  0  0  0
   27.6925  -24.4507  -16.6687 C   0  0  1  0  0  0  0  0  0  0  0  0
   28.2955  -23.4067  -17.5585 C   0  0  0  0  0  0  0  0  0  0  0  0
   28.1744  -21.9997  -17.0575 C   0  0  0  0  0  0  0  0  0  0  0  0
   28.9205  -21.1486  -18.0529 C   0  0  0  0  0  0  0  0  0  0  0  0
   30.1865  -21.2546  -18.0616 O   0  0  0  0  0  0  0  0  0  0  0  0
   26.2588  -24.1155  -16.5198 C   0  0  0  0  0  0  0  0  0  0  0  0
   25.4119  -24.3271  -17.4279 O   0  0  0  0  0  0  0  0  0  0  0  0
   28.3192  -20.2859  -18.9330 O   0  0  0  0  0  0  0  0  0  0  0  0
   18.8340  -21.6276  -12.2900 O   0  0  0  0  0  0  0  0  0  0  0  0
   20.1693  -21.8905  -12.6600 C   0  0  0  0  0  0  0  0  0  0  0  0
   20.5587  -23.2077  -12.7632 C   0  0  0  0  0  0  0  0  0  0  0  0
   21.8762  -23.4568  -13.1299 C   0  0  0  0  0  0  0  0  0  0  0  0
   22.7808  -22.4539  -13.3872 C   0  0  0  0  0  0  0  0  0  0  0  0
   24.1445  -22.8276  -13.7547 C   0  0  0  0  0  0  0  0  0  0  0  0
   24.3353  -23.2454  -15.1874 C   0  0  2  0  0  0  0  0  0  0  0  0
   25.7751  -23.5333  -15.3275 N   0  0  0  0  0  0  0  0  0  0  0  0
   23.9412  -22.1271  -16.0709 C   0  0  0  0  0  0  0  0  0  0  0  0
   24.6792  -21.1359  -16.3014 O   0  0  0  0  0  0  0  0  0  0  0  0
   22.3415  -21.1503  -13.2700 C   0  0  0  0  0  0  0  0  0  0  0  0
   21.0499  -20.8676  -12.9100 C   0  0  0  0  0  0  0  0  0  0  0  0
   22.6893  -22.1067  -16.7192 O   0  0  0  0  0  0  0  0  0  0  0  0
  2  3  1  0
  2  1  1  1
  4  2  1  0
  4  5  1  1
  6  7  2  0
  6  4  1  0
  8  6  1  0
  9  8  1  0
  9 10  1  6
 11 12  1  0
 11 10  1  0
 12 13  2  0
 14 24  1  0
 14  9  1  0
 15 14  2  0
 16 12  1  0
 18 17  1  0
 19 18  2  0
 20 19  1  0
 21 27  1  0
 21 20  2  0
 23 22  1  1
 22 21  1  0
 23 24  1  0
 23 25  1  0
 25 29  1  0
 26 25  2  0
 27 28  2  0
 28 18  1  0
M  END
$$$$
