TEY.pdb
     RDKit          3D

 29 29  0  0  1  0  0  0  0  0999 V2000
   18.7717  -13.1014  -16.7610 C   0  0  0  0  0  0  0  0  0  0  0  0
   18.6313  -11.6316  -17.0310 C   0  0  1  0  0  0  0  0  0  0  0  0
   17.3498  -11.2854  -17.4610 O   0  0  0  0  0  0  0  0  0  0  0  0
   19.0061  -10.8657  -15.7809 C   0  0  2  0  0  0  0  0  0  0  0  0
   18.0517  -11.0486  -14.7085 N   0  0  0  0  0  0  0  0  0  0  0  0
   19.1729   -9.4178  -16.0233 C   0  0  0  0  0  0  0  0  0  0  0  0
   20.0268   -8.9807  -16.8415 O   0  0  0  0  0  0  0  0  0  0  0  0
   18.3794   -8.4936  -15.3412 N   0  0  0  0  0  0  0  0  0  0  0  0
   18.5158   -7.0494  -15.4897 C   0  0  1  0  0  0  0  0  0  0  0  0
   17.1517   -6.4548  -15.3137 C   0  0  0  0  0  0  0  0  0  0  0  0
   16.3001   -6.4460  -16.5465 C   0  0  0  0  0  0  0  0  0  0  0  0
   14.9704   -5.8806  -16.1175 C   0  0  0  0  0  0  0  0  0  0  0  0
   14.0947   -6.7124  -15.7237 O   0  0  0  0  0  0  0  0  0  0  0  0
   19.3724   -6.4891  -14.4210 C   0  0  0  0  0  0  0  0  0  0  0  0
   19.4532   -7.0024  -13.2736 O   0  0  0  0  0  0  0  0  0  0  0  0
   14.6620   -4.5444  -16.1266 O   0  0  0  0  0  0  0  0  0  0  0  0
   25.0538   -6.9241  -18.1269 O   0  0  0  0  0  0  0  0  0  0  0  0
   24.3058   -6.6971  -16.9531 C   0  0  0  0  0  0  0  0  0  0  0  0
   24.3080   -5.4240  -16.4273 C   0  0  0  0  0  0  0  0  0  0  0  0
   23.5667   -5.2097  -15.2710 C   0  0  0  0  0  0  0  0  0  0  0  0
   22.8481   -6.2046  -14.6511 C   0  0  0  0  0  0  0  0  0  0  0  0
   22.1121   -5.8727  -13.4336 C   0  0  0  0  0  0  0  0  0  0  0  0
   21.0411   -4.8278  -13.5916 C   0  0  2  0  0  0  0  0  0  0  0  0
   20.1491   -5.3325  -14.6524 N   0  0  0  0  0  0  0  0  0  0  0  0
   21.6690   -3.5541  -14.0037 C   0  0  0  0  0  0  0  0  0  0  0  0
   22.4299   -2.8863  -13.2585 O   0  0  0  0  0  0  0  0  0  0  0  0
   22.8780   -7.4634  -15.2173 C   0  0  0  0  0  0  0  0  0  0  0  0
   23.5986   -7.7111  -16.3563 C   0  0  0  0  0  0  0  0  0  0  0  0
   21.4460   -3.0030  -15.2822 O   0  0  0  0  0  0  0  0  0  0  0  0
  2  3  1  0
  2  1  1  1
  4  2  1  0
  4  5  1  1
  6  7  2  0
  6  4  1  0
  8  6  1  0
  9  8  1  0
  9 10  1  1
 11 12  1  0
 11 10  1  0
 12 13  2  0
 14 24  1  0
 14  9  1  0
 15 14  2  0
 16 12  1  0
 18 17  1  0
 19 18  2  0
 20 19  1  0
 21 27  1  0
 21 20  2  0
 23 22  1  6
 22 21  1  0
 23 24  1  0
 23 25  1  0
 25 29  1  0
 26 25  2  0
 27 28  2  0
 28 18  1  0
M  END
$$$$
