ERL.pdb
     RDKit          3D

 29 28  0  0  1  0  0  0  0  0999 V2000
   13.8014  -15.1227   19.5743 N   0  0  0  0  0  0  0  0  0  0  0  0
   12.9704  -16.0668   20.2741 C   0  0  1  0  0  0  0  0  0  0  0  0
   13.7201  -17.2750   20.7278 C   0  0  0  0  0  0  0  0  0  0  0  0
   15.1079  -17.3628   20.1324 C   0  0  0  0  0  0  0  0  0  0  0  0
   15.9686  -18.1406   21.0779 C   0  0  0  0  0  0  0  0  0  0  0  0
   16.8615  -17.5989   21.7782 O   0  0  0  0  0  0  0  0  0  0  0  0
   12.2044  -15.3957   21.3378 C   0  0  0  0  0  0  0  0  0  0  0  0
   12.6147  -14.3873   21.9650 O   0  0  0  0  0  0  0  0  0  0  0  0
   15.8168  -19.5224   21.2272 O   0  0  0  0  0  0  0  0  0  0  0  0
    8.5636  -15.2150   17.6829 N   0  0  0  0  0  0  0  0  0  0  0  0
    7.8650  -13.9980   17.8484 C   0  0  0  0  0  0  0  0  0  0  0  0
    7.7662  -13.1284   16.9029 N   0  0  0  0  0  0  0  0  0  0  0  0
    7.2335  -13.6882   19.0951 N   0  0  0  0  0  0  0  0  0  0  0  0
    7.3077  -14.6427   20.1807 C   0  0  0  0  0  0  0  0  0  0  0  0
    8.7200  -14.7971   20.6931 C   0  0  0  0  0  0  0  0  0  0  0  0
    8.7612  -15.0295   22.1658 C   0  0  0  0  0  0  0  0  0  0  0  0
   10.1485  -15.2202   22.7182 C   0  0  2  0  0  0  0  0  0  0  0  0
   10.9243  -15.8965   21.6960 N   0  0  0  0  0  0  0  0  0  0  0  0
   10.1469  -16.0498   23.9518 C   0  0  0  0  0  0  0  0  0  0  0  0
   10.4950  -17.2565   23.9401 O   0  0  0  0  0  0  0  0  0  0  0  0
    7.3669  -12.1986   17.0496 C   0  0  0  0  0  0  0  0  0  0  0  0
    9.4950  -13.2511   28.7003 C   0  0  1  0  0  0  0  0  0  0  0  0
   10.3257  -14.2443   27.8310 C   0  0  0  0  0  0  0  0  0  0  0  0
   11.5090  -14.6148   28.7005 C   0  0  0  0  0  0  0  0  0  0  0  0
    9.4067  -15.3522   27.5220 C   0  0  2  0  0  0  0  0  0  0  0  0
    9.6804  -16.3108   26.4359 N   0  0  0  0  0  0  0  0  0  0  0  0
    9.7460  -15.4908   25.1931 C   0  0  0  0  0  0  0  0  0  0  0  0
    8.7106  -17.3839   26.2319 O   0  0  0  0  0  0  0  0  0  0  0  0
    7.7586  -17.1711   25.4070 O   0  0  0  0  0  0  0  0  0  0  0  0
  2  1  1  1
  2  7  1  0
  2  3  1  0
  3  4  1  0
  4  5  1  0
  5  6  2  0
  7  8  2  0
  9  5  1  0
 11 13  1  0
 11 10  1  0
 12 11  2  0
 14 15  1  0
 14 13  1  0
 17 16  1  6
 16 15  1  0
 18 17  1  0
 18  7  1  0
 19 20  2  0
 19 17  1  0
 22 21  1  6
 22 24  1  0
 23 22  1  0
 25 24  1  1
 25 27  1  0
 25 26  1  0
 26 19  1  0
 27 29  1  0
 28 27  2  0
M  END
$$$$
