ERL.pdb
     RDKit          3D

 29 28  0  0  1  0  0  0  0  0999 V2000
   11.5357  -16.0400   18.8147 N   0  0  0  0  0  0  0  0  0  0  0  0
   11.5542  -16.6393   20.1232 C   0  0  1  0  0  0  0  0  0  0  0  0
   12.8254  -16.3817   20.8616 C   0  0  0  0  0  0  0  0  0  0  0  0
   13.7480  -15.4328   20.1290 C   0  0  0  0  0  0  0  0  0  0  0  0
   14.8712  -15.0753   21.0511 C   0  0  0  0  0  0  0  0  0  0  0  0
   15.8354  -14.3530   20.6911 O   0  0  0  0  0  0  0  0  0  0  0  0
   10.3371  -16.2862   20.8732 C   0  0  0  0  0  0  0  0  0  0  0  0
    9.6828  -15.2299   20.6869 O   0  0  0  0  0  0  0  0  0  0  0  0
   14.8995  -15.5343   22.3714 O   0  0  0  0  0  0  0  0  0  0  0  0
    8.7006  -22.0317   20.9143 N   0  0  0  0  0  0  0  0  0  0  0  0
    7.3238  -21.9666   20.6032 C   0  0  0  0  0  0  0  0  0  0  0  0
    6.8084  -22.6286   19.6253 N   0  0  0  0  0  0  0  0  0  0  0  0
    6.4428  -21.1480   21.3795 N   0  0  0  0  0  0  0  0  0  0  0  0
    6.9886  -20.3416   22.4505 C   0  0  0  0  0  0  0  0  0  0  0  0
    7.5256  -19.0253   21.9407 C   0  0  0  0  0  0  0  0  0  0  0  0
    8.0360  -18.1614   23.0442 C   0  0  0  0  0  0  0  0  0  0  0  0
    8.6262  -16.8570   22.5792 C   0  0  2  0  0  0  0  0  0  0  0  0
    9.8523  -17.1730   21.8714 N   0  0  0  0  0  0  0  0  0  0  0  0
    8.9434  -15.9532   23.7160 C   0  0  0  0  0  0  0  0  0  0  0  0
   10.0782  -15.9375   24.2543 O   0  0  0  0  0  0  0  0  0  0  0  0
    5.8226  -22.5493   19.3660 C   0  0  0  0  0  0  0  0  0  0  0  0
    5.6829  -11.4345   26.1067 C   0  0  2  0  0  0  0  0  0  0  0  0
    7.1399  -11.9777   26.2248 C   0  0  0  0  0  0  0  0  0  0  0  0
    7.2736  -12.4000   27.6730 C   0  0  0  0  0  0  0  0  0  0  0  0
    7.2268  -13.0728   25.2445 C   0  0  1  0  0  0  0  0  0  0  0  0
    8.2576  -14.1224   25.3391 N   0  0  0  0  0  0  0  0  0  0  0  0
    7.9573  -15.0716   24.2300 C   0  0  0  0  0  0  0  0  0  0  0  0
    8.3296  -14.8773   26.5876 O   0  0  0  0  0  0  0  0  0  0  0  0
    7.4693  -15.8042   26.7683 O   0  0  0  0  0  0  0  0  0  0  0  0
  2  1  1  6
  2  7  1  0
  2  3  1  0
  3  4  1  0
  4  5  1  0
  5  6  2  0
  7  8  2  0
  9  5  1  0
 11 13  1  0
 11 10  1  0
 12 11  2  0
 14 15  1  0
 14 13  1  0
 17 16  1  1
 16 15  1  0
 18 17  1  0
 18  7  1  0
 19 20  2  0
 19 17  1  0
 22 21  1  1
 22 24  1  0
 23 22  1  0
 25 24  1  6
 25 27  1  0
 25 26  1  0
 26 19  1  0
 27 29  1  0
 28 27  2  0
M  END
$$$$
