ERL.pdb
     RDKit          3D

 29 28  0  0  1  0  0  0  0  0999 V2000
    9.3335  -20.0322   24.1803 N   0  0  0  0  0  0  0  0  0  0  0  0
   10.6739  -19.5088   24.1461 C   0  0  1  0  0  0  0  0  0  0  0  0
   11.6149  -20.3730   23.3745 C   0  0  0  0  0  0  0  0  0  0  0  0
   11.2735  -21.8436   23.4695 C   0  0  0  0  0  0  0  0  0  0  0  0
   12.3093  -22.6092   22.7075 C   0  0  0  0  0  0  0  0  0  0  0  0
   13.0286  -23.4893   23.2451 O   0  0  0  0  0  0  0  0  0  0  0  0
   10.6693  -18.0966   23.7285 C   0  0  0  0  0  0  0  0  0  0  0  0
   11.7047  -17.3905   23.6395 O   0  0  0  0  0  0  0  0  0  0  0  0
   12.5266  -22.3774   21.3459 O   0  0  0  0  0  0  0  0  0  0  0  0
    8.0344  -12.0301   19.6125 N   0  0  0  0  0  0  0  0  0  0  0  0
    8.1263  -13.0405   18.6290 C   0  0  0  0  0  0  0  0  0  0  0  0
    8.6404  -12.8241   17.4675 N   0  0  0  0  0  0  0  0  0  0  0  0
    7.6421  -14.3604   18.8979 N   0  0  0  0  0  0  0  0  0  0  0  0
    7.1045  -14.6621   20.2076 C   0  0  0  0  0  0  0  0  0  0  0  0
    8.1826  -14.6718   21.2652 C   0  0  0  0  0  0  0  0  0  0  0  0
    8.2452  -15.9729   21.9918 C   0  0  0  0  0  0  0  0  0  0  0  0
    9.4315  -16.1069   22.9087 C   0  0  2  0  0  0  0  0  0  0  0  0
    9.4366  -17.4712   23.4015 N   0  0  0  0  0  0  0  0  0  0  0  0
    9.3493  -15.1756   24.0645 C   0  0  0  0  0  0  0  0  0  0  0  0
    9.4135  -13.9298   23.9184 O   0  0  0  0  0  0  0  0  0  0  0  0
    8.7889  -13.5696   16.7837 C   0  0  0  0  0  0  0  0  0  0  0  0
    5.5860  -13.2825   26.3170 C   0  0  1  0  0  0  0  0  0  0  0  0
    7.0854  -13.3250   25.8902 C   0  0  0  0  0  0  0  0  0  0  0  0
    7.6116  -11.9405   26.2064 C   0  0  0  0  0  0  0  0  0  0  0  0
    7.6829  -14.4152   26.6790 C   0  0  2  0  0  0  0  0  0  0  0  0
    9.1089  -14.7701   26.5614 N   0  0  0  0  0  0  0  0  0  0  0  0
    9.1937  -15.6781   25.3826 C   0  0  0  0  0  0  0  0  0  0  0  0
    9.7279  -15.4364   27.7044 O   0  0  0  0  0  0  0  0  0  0  0  0
    9.8342  -14.7712   28.7899 O   0  0  0  0  0  0  0  0  0  0  0  0
  2  1  1  6
  2  7  1  0
  2  3  1  0
  3  4  1  0
  4  5  1  0
  5  6  2  0
  7  8  2  0
  9  5  1  0
 11 13  1  0
 11 10  1  0
 12 11  2  0
 14 15  1  0
 14 13  1  0
 17 16  1  6
 16 15  1  0
 18 17  1  0
 18  7  1  0
 19 20  2  0
 19 17  1  0
 22 21  1  6
 22 24  1  0
 23 22  1  0
 25 24  1  6
 25 27  1  0
 25 26  1  0
 26 19  1  0
 27 29  1  0
 28 27  2  0
M  END
$$$$
