ERL.pdb
     RDKit          3D

 29 28  0  0  1  0  0  0  0  0999 V2000
   14.0189  -18.0549   19.7406 N   0  0  0  0  0  0  0  0  0  0  0  0
   13.0511  -18.5928   20.6601 C   0  0  1  0  0  0  0  0  0  0  0  0
   13.6071  -19.6807   21.5174 C   0  0  0  0  0  0  0  0  0  0  0  0
   14.5897  -19.1714   22.5486 C   0  0  0  0  0  0  0  0  0  0  0  0
   15.0466  -20.3375   23.3679 C   0  0  0  0  0  0  0  0  0  0  0  0
   15.7065  -21.2889   22.8775 O   0  0  0  0  0  0  0  0  0  0  0  0
   12.3895  -17.5111   21.4092 C   0  0  0  0  0  0  0  0  0  0  0  0
   12.9081  -16.3857   21.6165 O   0  0  0  0  0  0  0  0  0  0  0  0
   14.7565  -20.4228   24.7329 O   0  0  0  0  0  0  0  0  0  0  0  0
    6.5493  -12.8680   19.6412 N   0  0  0  0  0  0  0  0  0  0  0  0
    7.8339  -13.4473   19.5383 C   0  0  0  0  0  0  0  0  0  0  0  0
    8.6290  -13.1861   18.5586 N   0  0  0  0  0  0  0  0  0  0  0  0
    8.3004  -14.3591   20.5382 N   0  0  0  0  0  0  0  0  0  0  0  0
    7.3885  -14.8004   21.5721 C   0  0  0  0  0  0  0  0  0  0  0  0
    8.1006  -15.5878   22.6462 C   0  0  0  0  0  0  0  0  0  0  0  0
    8.9699  -16.6573   22.0758 C   0  0  0  0  0  0  0  0  0  0  0  0
   10.3868  -16.6320   22.5835 C   0  0  2  0  0  0  0  0  0  0  0  0
   11.0893  -17.7255   21.9394 N   0  0  0  0  0  0  0  0  0  0  0  0
   10.4530  -16.8161   24.0572 C   0  0  0  0  0  0  0  0  0  0  0  0
   10.4034  -17.9541   24.5864 O   0  0  0  0  0  0  0  0  0  0  0  0
    9.4994  -13.6998   18.4040 C   0  0  0  0  0  0  0  0  0  0  0  0
    9.8697  -12.7250   28.5025 C   0  0  2  0  0  0  0  0  0  0  0  0
   10.3479  -14.2034   28.3693 C   0  0  0  0  0  0  0  0  0  0  0  0
    9.4032  -14.9911   29.2527 C   0  0  0  0  0  0  0  0  0  0  0  0
   10.2619  -14.5114   26.9321 C   0  0  1  0  0  0  0  0  0  0  0  0
   10.6044  -15.8426   26.3994 N   0  0  0  0  0  0  0  0  0  0  0  0
   10.5760  -15.6936   24.9168 C   0  0  0  0  0  0  0  0  0  0  0  0
    9.7329  -16.9548   26.7697 O   0  0  0  0  0  0  0  0  0  0  0  0
   10.1675  -17.7814   27.6413 O   0  0  0  0  0  0  0  0  0  0  0  0
  2  1  1  1
  2  7  1  0
  2  3  1  0
  3  4  1  0
  4  5  1  0
  5  6  2  0
  7  8  2  0
  9  5  1  0
 11 13  1  0
 11 10  1  0
 12 11  2  0
 14 15  1  0
 14 13  1  0
 17 16  1  6
 16 15  1  0
 18 17  1  0
 18  7  1  0
 19 20  2  0
 19 17  1  0
 22 21  1  1
 22 24  1  0
 23 22  1  0
 25 24  1  1
 25 27  1  0
 25 26  1  0
 26 19  1  0
 27 29  1  0
 28 27  2  0
M  END
$$$$
