ERL.pdb
     RDKit          3D

 29 28  0  0  1  0  0  0  0  0999 V2000
   12.3939  -18.3965   20.3635 N   0  0  0  0  0  0  0  0  0  0  0  0
   11.0896  -18.4517   20.9697 C   0  0  1  0  0  0  0  0  0  0  0  0
   10.8995  -19.6573   21.8288 C   0  0  0  0  0  0  0  0  0  0  0  0
   11.2995  -19.4214   23.2685 C   0  0  0  0  0  0  0  0  0  0  0  0
   11.1359  -20.7103   24.0113 C   0  0  0  0  0  0  0  0  0  0  0  0
   10.7157  -21.7585   23.4584 O   0  0  0  0  0  0  0  0  0  0  0  0
   10.7729  -17.1777   21.6370 C   0  0  0  0  0  0  0  0  0  0  0  0
   11.5979  -16.5237   22.3228 O   0  0  0  0  0  0  0  0  0  0  0  0
   11.4471  -20.8083   25.3708 O   0  0  0  0  0  0  0  0  0  0  0  0
    8.5690  -12.3525   18.0698 N   0  0  0  0  0  0  0  0  0  0  0  0
    7.9546  -13.3769   17.3150 C   0  0  0  0  0  0  0  0  0  0  0  0
    8.2763  -13.6152   16.0903 N   0  0  0  0  0  0  0  0  0  0  0  0
    6.9370  -14.1969   17.8988 N   0  0  0  0  0  0  0  0  0  0  0  0
    6.8043  -14.2390   19.3396 C   0  0  0  0  0  0  0  0  0  0  0  0
    8.0867  -14.6776   20.0060 C   0  0  0  0  0  0  0  0  0  0  0  0
    7.9331  -14.8173   21.4831 C   0  0  0  0  0  0  0  0  0  0  0  0
    9.1446  -15.3826   22.1749 C   0  0  2  0  0  0  0  0  0  0  0  0
    9.4664  -16.6337   21.5152 N   0  0  0  0  0  0  0  0  0  0  0  0
    8.8897  -15.6473   23.6154 C   0  0  0  0  0  0  0  0  0  0  0  0
    8.0764  -16.5261   23.9946 O   0  0  0  0  0  0  0  0  0  0  0  0
    7.9078  -14.4144   15.5699 C   0  0  0  0  0  0  0  0  0  0  0  0
    7.7019  -11.9226   27.2208 C   0  0  2  0  0  0  0  0  0  0  0  0
    6.8798  -13.0023   26.4525 C   0  0  0  0  0  0  0  0  0  0  0  0
    5.7158  -12.2410   25.8533 C   0  0  0  0  0  0  0  0  0  0  0  0
    7.8167  -13.5812   25.4754 C   0  0  1  0  0  0  0  0  0  0  0  0
    8.8973  -14.4979   25.8816 N   0  0  0  0  0  0  0  0  0  0  0  0
    9.5691  -14.9023   24.6141 C   0  0  0  0  0  0  0  0  0  0  0  0
    8.5115  -15.7057   26.6068 O   0  0  0  0  0  0  0  0  0  0  0  0
    7.6331  -16.4623   26.0699 O   0  0  0  0  0  0  0  0  0  0  0  0
  2  1  1  1
  2  7  1  0
  2  3  1  0
  3  4  1  0
  4  5  1  0
  5  6  2  0
  7  8  2  0
  9  5  1  0
 11 13  1  0
 11 10  1  0
 12 11  2  0
 14 15  1  0
 14 13  1  0
 17 16  1  6
 16 15  1  0
 18 17  1  0
 18  7  1  0
 19 20  2  0
 19 17  1  0
 22 21  1  1
 22 24  1  0
 23 22  1  0
 25 24  1  1
 25 27  1  0
 25 26  1  0
 26 19  1  0
 27 29  1  0
 28 27  2  0
M  END
$$$$
