ERL.pdb
     RDKit          3D

 29 28  0  0  1  0  0  0  0  0999 V2000
    6.2905  -18.7391   19.4705 N   0  0  0  0  0  0  0  0  0  0  0  0
    6.0865  -17.7396   20.4859 C   0  0  1  0  0  0  0  0  0  0  0  0
    4.8508  -17.9728   21.2898 C   0  0  0  0  0  0  0  0  0  0  0  0
    4.2832  -19.3626   21.1041 C   0  0  0  0  0  0  0  0  0  0  0  0
    3.0233  -19.4587   21.9060 C   0  0  0  0  0  0  0  0  0  0  0  0
    1.8831  -19.4259   21.3769 O   0  0  0  0  0  0  0  0  0  0  0  0
    7.3067  -17.5605   21.2907 C   0  0  0  0  0  0  0  0  0  0  0  0
    7.7039  -18.3853   22.1512 O   0  0  0  0  0  0  0  0  0  0  0  0
    3.0575  -19.5911   23.2974 O   0  0  0  0  0  0  0  0  0  0  0  0
   13.8577  -14.1726   19.0495 N   0  0  0  0  0  0  0  0  0  0  0  0
   14.5403  -14.4862   20.2463 C   0  0  0  0  0  0  0  0  0  0  0  0
   15.5829  -13.8354   20.6333 N   0  0  0  0  0  0  0  0  0  0  0  0
   14.0861  -15.5564   21.0812 N   0  0  0  0  0  0  0  0  0  0  0  0
   12.7940  -16.1550   20.8214 C   0  0  0  0  0  0  0  0  0  0  0  0
   11.6873  -15.4349   21.5547 C   0  0  0  0  0  0  0  0  0  0  0  0
   10.3543  -15.6651   20.9263 C   0  0  0  0  0  0  0  0  0  0  0  0
    9.3230  -16.2312   21.8653 C   0  0  2  0  0  0  0  0  0  0  0  0
    8.0995  -16.3968   21.1040 N   0  0  0  0  0  0  0  0  0  0  0  0
    9.0590  -15.3247   23.0136 C   0  0  0  0  0  0  0  0  0  0  0  0
    8.6428  -14.1510   22.8501 O   0  0  0  0  0  0  0  0  0  0  0  0
   16.1119  -14.0907   21.4701 C   0  0  0  0  0  0  0  0  0  0  0  0
    7.5894  -11.9827   26.1697 C   0  0  2  0  0  0  0  0  0  0  0  0
    7.2513  -13.4628   26.5260 C   0  0  0  0  0  0  0  0  0  0  0  0
    5.7408  -13.4945   26.6311 C   0  0  0  0  0  0  0  0  0  0  0  0
    7.8179  -14.2654   25.4295 C   0  0  1  0  0  0  0  0  0  0  0  0
    9.1733  -14.8403   25.5054 N   0  0  0  0  0  0  0  0  0  0  0  0
    9.2735  -15.7691   24.3441 C   0  0  0  0  0  0  0  0  0  0  0  0
    9.5196  -15.5766   26.7184 O   0  0  0  0  0  0  0  0  0  0  0  0
    9.1224  -16.7874   26.8085 O   0  0  0  0  0  0  0  0  0  0  0  0
  2  1  1  6
  2  7  1  0
  2  3  1  0
  3  4  1  0
  4  5  1  0
  5  6  2  0
  7  8  2  0
  9  5  1  0
 11 13  1  0
 11 10  1  0
 12 11  2  0
 14 15  1  0
 14 13  1  0
 17 16  1  6
 16 15  1  0
 18 17  1  0
 18  7  1  0
 19 20  2  0
 19 17  1  0
 22 21  1  1
 22 24  1  0
 23 22  1  0
 25 24  1  6
 25 27  1  0
 25 26  1  0
 26 19  1  0
 27 29  1  0
 28 27  2  0
M  END
$$$$
