ERL.pdb
     RDKit          3D

 29 28  0  0  1  0  0  0  0  0999 V2000
    6.6522  -16.4561   20.3256 N   0  0  0  0  0  0  0  0  0  0  0  0
    5.9981  -16.5612   21.6034 C   0  0  1  0  0  0  0  0  0  0  0  0
    4.9856  -17.6568   21.6486 C   0  0  0  0  0  0  0  0  0  0  0  0
    5.1498  -18.6548   20.5238 C   0  0  0  0  0  0  0  0  0  0  0  0
    3.8342  -19.3370   20.3149 C   0  0  0  0  0  0  0  0  0  0  0  0
    2.8244  -19.0851   21.0205 O   0  0  0  0  0  0  0  0  0  0  0  0
    6.9892  -16.6084   22.6916 C   0  0  0  0  0  0  0  0  0  0  0  0
    6.6890  -16.7255   23.9060 O   0  0  0  0  0  0  0  0  0  0  0  0
    3.6664  -20.2975   19.3129 O   0  0  0  0  0  0  0  0  0  0  0  0
   14.8649  -16.1361   22.0077 N   0  0  0  0  0  0  0  0  0  0  0  0
   15.1833  -16.7607   23.2345 C   0  0  0  0  0  0  0  0  0  0  0  0
   16.3706  -16.7288   23.7340 N   0  0  0  0  0  0  0  0  0  0  0  0
   14.1776  -17.4610   23.9742 N   0  0  0  0  0  0  0  0  0  0  0  0
   12.9074  -17.7478   23.3420 C   0  0  0  0  0  0  0  0  0  0  0  0
   11.8412  -16.7627   23.7586 C   0  0  0  0  0  0  0  0  0  0  0  0
   10.7032  -16.7254   22.7951 C   0  0  0  0  0  0  0  0  0  0  0  0
    9.3544  -16.5673   23.4446 C   0  0  2  0  0  0  0  0  0  0  0  0
    8.3718  -16.5184   22.3787 N   0  0  0  0  0  0  0  0  0  0  0  0
    9.2646  -15.3163   24.2427 C   0  0  0  0  0  0  0  0  0  0  0  0
    9.7119  -14.2232   23.8153 O   0  0  0  0  0  0  0  0  0  0  0  0
   16.6104  -17.1918   24.6134 C   0  0  0  0  0  0  0  0  0  0  0  0
    5.7081  -12.4837   26.8545 C   0  0  2  0  0  0  0  0  0  0  0  0
    6.9963  -12.8701   26.0650 C   0  0  0  0  0  0  0  0  0  0  0  0
    7.6270  -11.5448   25.6916 C   0  0  0  0  0  0  0  0  0  0  0  0
    7.7858  -13.6983   26.9915 C   0  0  2  0  0  0  0  0  0  0  0  0
    9.0465  -14.3417   26.5793 N   0  0  0  0  0  0  0  0  0  0  0  0
    8.6620  -15.3253   25.5275 C   0  0  0  0  0  0  0  0  0  0  0  0
    9.8081  -15.0412   27.6109 O   0  0  0  0  0  0  0  0  0  0  0  0
   10.3931  -14.3311   28.4972 O   0  0  0  0  0  0  0  0  0  0  0  0
  2  1  1  6
  2  7  1  0
  2  3  1  0
  3  4  1  0
  4  5  1  0
  5  6  2  0
  7  8  2  0
  9  5  1  0
 11 13  1  0
 11 10  1  0
 12 11  2  0
 14 15  1  0
 14 13  1  0
 17 16  1  6
 16 15  1  0
 18 17  1  0
 18  7  1  0
 19 20  2  0
 19 17  1  0
 22 21  1  6
 22 24  1  0
 23 22  1  0
 25 24  1  6
 25 27  1  0
 25 26  1  0
 26 19  1  0
 27 29  1  0
 28 27  2  0
M  END
$$$$
