ERL.pdb
     RDKit          3D

 29 28  0  0  1  0  0  0  0  0999 V2000
   10.2794  -18.8580   21.9016 N   0  0  0  0  0  0  0  0  0  0  0  0
   10.9252  -17.7153   21.3110 C   0  0  1  0  0  0  0  0  0  0  0  0
   11.5640  -18.0240   19.9979 C   0  0  0  0  0  0  0  0  0  0  0  0
   12.6371  -19.0851   20.1021 C   0  0  0  0  0  0  0  0  0  0  0  0
   13.2789  -19.2275   18.7577 C   0  0  0  0  0  0  0  0  0  0  0  0
   14.2775  -18.5462   18.4116 O   0  0  0  0  0  0  0  0  0  0  0  0
   10.0122  -16.5602   21.2826 C   0  0  0  0  0  0  0  0  0  0  0  0
   10.3085  -15.4470   20.7808 O   0  0  0  0  0  0  0  0  0  0  0  0
   12.7911  -20.1361   17.8137 O   0  0  0  0  0  0  0  0  0  0  0  0
    3.2135  -20.0719   19.9108 N   0  0  0  0  0  0  0  0  0  0  0  0
    4.2614  -19.9858   18.9668 C   0  0  0  0  0  0  0  0  0  0  0  0
    4.3580  -20.7984   17.9716 N   0  0  0  0  0  0  0  0  0  0  0  0
    5.2665  -18.9741   19.0894 N   0  0  0  0  0  0  0  0  0  0  0  0
    5.2523  -18.1008   20.2437 C   0  0  0  0  0  0  0  0  0  0  0  0
    6.3908  -17.1091   20.2078 C   0  0  0  0  0  0  0  0  0  0  0  0
    6.4187  -16.2416   21.4209 C   0  0  0  0  0  0  0  0  0  0  0  0
    7.7567  -15.6064   21.6899 C   0  0  2  0  0  0  0  0  0  0  0  0
    8.7151  -16.6836   21.8482 N   0  0  0  0  0  0  0  0  0  0  0  0
    7.7434  -14.7851   22.9290 C   0  0  0  0  0  0  0  0  0  0  0  0
    6.9534  -13.8199   23.0766 O   0  0  0  0  0  0  0  0  0  0  0  0
    5.1194  -20.7472   17.2912 C   0  0  0  0  0  0  0  0  0  0  0  0
    5.7757  -13.3243   27.0123 C   0  0  2  0  0  0  0  0  0  0  0  0
    6.9642  -12.6064   26.3025 C   0  0  0  0  0  0  0  0  0  0  0  0
    8.0013  -12.4189   27.3901 C   0  0  0  0  0  0  0  0  0  0  0  0
    7.3634  -13.5062   25.2075 C   0  0  2  0  0  0  0  0  0  0  0  0
    8.5771  -14.3390   25.2875 N   0  0  0  0  0  0  0  0  0  0  0  0
    8.6366  -15.0751   23.9929 C   0  0  0  0  0  0  0  0  0  0  0  0
    8.6504  -15.3102   26.3761 O   0  0  0  0  0  0  0  0  0  0  0  0
    7.9016  -16.3423   26.2986 O   0  0  0  0  0  0  0  0  0  0  0  0
  2  1  1  6
  2  7  1  0
  2  3  1  0
  3  4  1  0
  4  5  1  0
  5  6  2  0
  7  8  2  0
  9  5  1  0
 11 13  1  0
 11 10  1  0
 12 11  2  0
 14 15  1  0
 14 13  1  0
 17 16  1  1
 16 15  1  0
 18 17  1  0
 18  7  1  0
 19 20  2  0
 19 17  1  0
 22 21  1  1
 22 24  1  0
 23 22  1  0
 25 24  1  6
 25 27  1  0
 25 26  1  0
 26 19  1  0
 27 29  1  0
 28 27  2  0
M  END
$$$$
