CLM.pdb
     RDKit          3D

 23 22  0  0  1  0  0  0  0  0999 V2000
    5.3219  -19.0891   22.6265 N   0  0  0  0  0  0  0  0  0  0  0  0
    6.0608  -18.2192   23.5542 C   0  0  1  0  0  0  0  0  0  0  0  0
    6.6185  -19.1480   24.6026 C   0  0  0  0  0  0  0  0  0  0  0  0
    7.0944  -18.2836   26.1132 S   0  0  0  0  0  0  0  0  0  0  0  0
    7.0929  -17.5058   22.8070 C   0  0  0  0  0  0  0  0  0  0  0  0
    7.8109  -18.1734   21.9902 O   0  0  0  0  0  0  0  0  0  0  0  0
    7.6602  -14.5164   19.4400 C   0  0  0  0  0  0  0  0  0  0  0  0
    7.4056  -13.9116   20.7962 C   0  0  2  0  0  0  0  0  0  0  0  0
    7.2363  -12.3975   20.5868 C   0  0  0  0  0  0  0  0  0  0  0  0
    8.5020  -14.1953   21.7442 C   0  0  0  0  0  0  0  0  0  0  0  0
    8.6068  -15.5596   22.3206 C   0  0  2  0  0  0  0  0  0  0  0  0
    7.4088  -16.1210   22.8717 N   0  0  0  0  0  0  0  0  0  0  0  0
    9.7947  -15.6666   23.2157 C   0  0  0  0  0  0  0  0  0  0  0  0
   10.9167  -15.2119   22.8173 O   0  0  0  0  0  0  0  0  0  0  0  0
   10.0201  -13.5298   29.7568 C   0  0  0  0  0  0  0  0  0  0  0  0
    8.9205  -14.5726   28.7354 S   0  0  0  0  0  0  0  0  0  0  0  0
    9.5253  -14.9495   27.1417 C   0  0  0  0  0  0  0  0  0  0  0  0
   10.4242  -16.0484   26.8013 C   0  0  0  0  0  0  0  0  0  0  0  0
   10.9349  -16.1611   25.4323 C   0  0  2  0  0  0  0  0  0  0  0  0
    9.7636  -16.2396   24.4812 N   0  0  0  0  0  0  0  0  0  0  0  0
   11.5153  -17.5614   25.2598 C   0  0  0  0  0  0  0  0  0  0  0  0
   12.6432  -17.7862   25.8332 O   0  0  0  0  0  0  0  0  0  0  0  0
   10.9642  -18.5665   24.5702 O   0  0  0  0  0  0  0  0  0  0  0  0
  2  3  1  0
  2  1  1  6
  4  3  1  0
  5  2  1  0
  6  5  2  0
  8  7  1  6
  8 10  1  0
  9  8  1  0
 11 10  1  1
 11 12  1  0
 12  5  1  0
 13 11  1  0
 13 20  1  0
 14 13  2  0
 16 15  1  0
 17 16  1  0
 18 17  1  0
 19 20  1  0
 19 18  1  1
 19 21  1  0
 21 23  1  0
 22 21  2  0
M  END
$$$$
