CLM.pdb
     RDKit          3D

 23 22  0  0  1  0  0  0  0  0999 V2000
    6.0935  -19.6890   22.5573 N   0  0  0  0  0  0  0  0  0  0  0  0
    5.9131  -18.7731   23.6938 C   0  0  1  0  0  0  0  0  0  0  0  0
    6.1816  -19.6103   24.9185 C   0  0  0  0  0  0  0  0  0  0  0  0
    7.9152  -20.0880   25.0663 S   0  0  0  0  0  0  0  0  0  0  0  0
    6.8387  -17.6534   23.5456 C   0  0  0  0  0  0  0  0  0  0  0  0
    7.7925  -17.7715   22.7063 O   0  0  0  0  0  0  0  0  0  0  0  0
    5.6799  -13.9001   26.1517 C   0  0  0  0  0  0  0  0  0  0  0  0
    7.0605  -13.5565   25.6562 C   0  0  2  0  0  0  0  0  0  0  0  0
    7.2284  -12.0362   25.8162 C   0  0  0  0  0  0  0  0  0  0  0  0
    7.2633  -13.9663   24.2518 C   0  0  0  0  0  0  0  0  0  0  0  0
    7.7373  -15.3461   23.9764 C   0  0  2  0  0  0  0  0  0  0  0  0
    6.8120  -16.4098   24.2344 N   0  0  0  0  0  0  0  0  0  0  0  0
    9.0927  -15.5666   24.5576 C   0  0  0  0  0  0  0  0  0  0  0  0
   10.0018  -14.6946   24.3639 O   0  0  0  0  0  0  0  0  0  0  0  0
   10.2633  -12.9770   29.4200 C   0  0  0  0  0  0  0  0  0  0  0  0
   11.2607  -14.4745   29.7402 S   0  0  0  0  0  0  0  0  0  0  0  0
   11.3371  -15.6119   28.4181 C   0  0  0  0  0  0  0  0  0  0  0  0
   10.4187  -15.6754   27.2849 C   0  0  0  0  0  0  0  0  0  0  0  0
   10.6316  -16.6839   26.2431 C   0  0  2  0  0  0  0  0  0  0  0  0
    9.4418  -16.6800   25.3120 N   0  0  0  0  0  0  0  0  0  0  0  0
   10.4698  -18.0607   26.8800 C   0  0  0  0  0  0  0  0  0  0  0  0
    9.3356  -18.6396   26.7071 O   0  0  0  0  0  0  0  0  0  0  0  0
   11.3910  -18.7132   27.5978 O   0  0  0  0  0  0  0  0  0  0  0  0
  2  3  1  0
  2  1  1  6
  4  3  1  0
  5  2  1  0
  6  5  2  0
  8  7  1  6
  8 10  1  0
  9  8  1  0
 11 10  1  1
 11 12  1  0
 12  5  1  0
 13 11  1  0
 13 20  1  0
 14 13  2  0
 16 15  1  0
 17 16  1  0
 18 17  1  0
 19 20  1  0
 19 18  1  1
 19 21  1  0
 21 23  1  0
 22 21  2  0
M  END
$$$$
