CLM.pdb
     RDKit          3D

 23 22  0  0  1  0  0  0  0  0999 V2000
    8.2421  -17.8490   20.2629 N   0  0  0  0  0  0  0  0  0  0  0  0
    7.5308  -17.8927   21.5494 C   0  0  1  0  0  0  0  0  0  0  0  0
    7.9146  -19.2143   22.1650 C   0  0  0  0  0  0  0  0  0  0  0  0
    9.6445  -19.2659   22.6754 S   0  0  0  0  0  0  0  0  0  0  0  0
    7.9393  -16.7422   22.3508 C   0  0  0  0  0  0  0  0  0  0  0  0
    9.0444  -16.1733   22.0625 O   0  0  0  0  0  0  0  0  0  0  0  0
    6.2865  -12.7650   26.9256 C   0  0  0  0  0  0  0  0  0  0  0  0
    7.2218  -13.1413   25.8060 C   0  0  2  0  0  0  0  0  0  0  0  0
    7.2615  -11.9489   24.8356 C   0  0  0  0  0  0  0  0  0  0  0  0
    6.7906  -14.3726   25.1138 C   0  0  0  0  0  0  0  0  0  0  0  0
    7.7398  -15.0328   24.1823 C   0  0  2  0  0  0  0  0  0  0  0  0
    7.2422  -16.1545   23.4417 N   0  0  0  0  0  0  0  0  0  0  0  0
    9.0510  -15.2789   24.8485 C   0  0  0  0  0  0  0  0  0  0  0  0
    9.9148  -14.3426   24.8863 O   0  0  0  0  0  0  0  0  0  0  0  0
    9.8848  -12.9186   28.9651 C   0  0  0  0  0  0  0  0  0  0  0  0
   10.1623  -14.6431   29.5023 S   0  0  0  0  0  0  0  0  0  0  0  0
   11.0718  -15.6307   28.3864 C   0  0  0  0  0  0  0  0  0  0  0  0
   10.5390  -16.7166   27.5689 C   0  0  0  0  0  0  0  0  0  0  0  0
   10.7414  -16.6894   26.1177 C   0  0  2  0  0  0  0  0  0  0  0  0
    9.4048  -16.4835   25.4439 N   0  0  0  0  0  0  0  0  0  0  0  0
   11.0573  -18.1097   25.6592 C   0  0  0  0  0  0  0  0  0  0  0  0
   10.0693  -18.7968   25.2085 O   0  0  0  0  0  0  0  0  0  0  0  0
   12.2570  -18.7010   25.6860 O   0  0  0  0  0  0  0  0  0  0  0  0
  2  3  1  0
  2  1  1  6
  4  3  1  0
  5  2  1  0
  6  5  2  0
  8  7  1  1
  8 10  1  0
  9  8  1  0
 11 10  1  1
 11 12  1  0
 12  5  1  0
 13 11  1  0
 13 20  1  0
 14 13  2  0
 16 15  1  0
 17 16  1  0
 18 17  1  0
 19 20  1  0
 19 18  1  1
 19 21  1  0
 21 23  1  0
 22 21  2  0
M  END
$$$$
