CLM.pdb
     RDKit          3D

 23 22  0  0  1  0  0  0  0  0999 V2000
    5.8660  -18.2141   22.9285 N   0  0  0  0  0  0  0  0  0  0  0  0
    6.6344  -18.5928   21.7330 C   0  0  1  0  0  0  0  0  0  0  0  0
    5.6463  -18.5315   20.5960 C   0  0  0  0  0  0  0  0  0  0  0  0
    3.9837  -19.0245   21.0940 S   0  0  0  0  0  0  0  0  0  0  0  0
    7.7504  -17.6637   21.5788 C   0  0  0  0  0  0  0  0  0  0  0  0
    8.7186  -18.0102   20.8232 O   0  0  0  0  0  0  0  0  0  0  0  0
    8.2598  -13.9426   19.2917 C   0  0  0  0  0  0  0  0  0  0  0  0
    7.7873  -13.7883   20.7139 C   0  0  2  0  0  0  0  0  0  0  0  0
    7.3414  -12.3261   20.8816 C   0  0  0  0  0  0  0  0  0  0  0  0
    8.8411  -14.1352   21.6888 C   0  0  0  0  0  0  0  0  0  0  0  0
    9.0673  -15.5670   22.0102 C   0  0  2  0  0  0  0  0  0  0  0  0
    7.9009  -16.3829   22.1775 N   0  0  0  0  0  0  0  0  0  0  0  0
   10.0714  -15.7124   23.1030 C   0  0  0  0  0  0  0  0  0  0  0  0
   11.1490  -15.0338   23.0519 O   0  0  0  0  0  0  0  0  0  0  0  0
    9.9414  -13.0146   28.9995 C   0  0  0  0  0  0  0  0  0  0  0  0
    9.3317  -14.2539   27.8027 S   0  0  0  0  0  0  0  0  0  0  0  0
   10.3544  -15.6538   27.5982 C   0  0  0  0  0  0  0  0  0  0  0  0
   10.1854  -16.7026   26.5968 C   0  0  0  0  0  0  0  0  0  0  0  0
   10.9121  -16.6081   25.3276 C   0  0  2  0  0  0  0  0  0  0  0  0
    9.9112  -16.5539   24.1970 N   0  0  0  0  0  0  0  0  0  0  0  0
   11.5562  -17.9631   25.0514 C   0  0  0  0  0  0  0  0  0  0  0  0
   12.5769  -18.2669   25.7706 O   0  0  0  0  0  0  0  0  0  0  0  0
   11.1612  -18.8545   24.1355 O   0  0  0  0  0  0  0  0  0  0  0  0
  2  3  1  0
  2  1  1  1
  4  3  1  0
  5  2  1  0
  6  5  2  0
  8  7  1  6
  8 10  1  0
  9  8  1  0
 11 10  1  1
 11 12  1  0
 12  5  1  0
 13 11  1  0
 13 20  1  0
 14 13  2  0
 16 15  1  0
 17 16  1  0
 18 17  1  0
 19 20  1  0
 19 18  1  1
 19 21  1  0
 21 23  1  0
 22 21  2  0
M  END
$$$$
