CLM.pdb
     RDKit          3D

 23 22  0  0  1  0  0  0  0  0999 V2000
    7.4317  -18.1619   20.7403 N   0  0  0  0  0  0  0  0  0  0  0  0
    8.7352  -17.5310   20.4832 C   0  0  1  0  0  0  0  0  0  0  0  0
    8.6669  -17.0585   19.0532 C   0  0  0  0  0  0  0  0  0  0  0  0
    8.1279  -18.3541   17.9191 S   0  0  0  0  0  0  0  0  0  0  0  0
    8.9283  -16.4459   21.4413 C   0  0  0  0  0  0  0  0  0  0  0  0
   10.0488  -15.8354   21.4373 O   0  0  0  0  0  0  0  0  0  0  0  0
    6.3924  -13.4156   26.3395 C   0  0  0  0  0  0  0  0  0  0  0  0
    7.5596  -13.6338   25.4122 C   0  0  2  0  0  0  0  0  0  0  0  0
    7.8741  -12.2766   24.7609 C   0  0  0  0  0  0  0  0  0  0  0  0
    7.2700  -14.6577   24.3881 C   0  0  0  0  0  0  0  0  0  0  0  0
    8.3514  -15.0474   23.4483 C   0  0  2  0  0  0  0  0  0  0  0  0
    8.0000  -15.9652   22.4050 N   0  0  0  0  0  0  0  0  0  0  0  0
    9.5904  -15.4183   24.1907 C   0  0  0  0  0  0  0  0  0  0  0  0
   10.6525  -14.7382   24.0072 O   0  0  0  0  0  0  0  0  0  0  0  0
   10.4115  -12.9349   29.3843 C   0  0  0  0  0  0  0  0  0  0  0  0
   10.9933  -14.6060   29.8412 S   0  0  0  0  0  0  0  0  0  0  0  0
   11.1042  -15.7403   28.5188 C   0  0  0  0  0  0  0  0  0  0  0  0
   10.3510  -15.6803   27.2696 C   0  0  0  0  0  0  0  0  0  0  0  0
   10.7365  -16.5511   26.1556 C   0  0  2  0  0  0  0  0  0  0  0  0
    9.6699  -16.4761   25.0881 N   0  0  0  0  0  0  0  0  0  0  0  0
   10.5636  -17.9980   26.6069 C   0  0  0  0  0  0  0  0  0  0  0  0
   11.4215  -18.4369   27.4571 O   0  0  0  0  0  0  0  0  0  0  0  0
    9.6112  -18.8448   26.2003 O   0  0  0  0  0  0  0  0  0  0  0  0
  2  3  1  0
  2  1  1  1
  4  3  1  0
  5  2  1  0
  6  5  2  0
  8  7  1  1
  8 10  1  0
  9  8  1  0
 11 10  1  1
 11 12  1  0
 12  5  1  0
 13 11  1  0
 13 20  1  0
 14 13  2  0
 16 15  1  0
 17 16  1  0
 18 17  1  0
 19 20  1  0
 19 18  1  1
 19 21  1  0
 21 23  1  0
 22 21  2  0
M  END
$$$$
