CLM.pdb
     RDKit          3D

 23 22  0  0  1  0  0  0  0  0999 V2000
    7.6681  -18.5050   21.4241 N   0  0  0  0  0  0  0  0  0  0  0  0
    8.8677  -17.7345   21.0629 C   0  0  1  0  0  0  0  0  0  0  0  0
    8.6359  -17.2918   19.6405 C   0  0  0  0  0  0  0  0  0  0  0  0
   10.0723  -16.4644   18.9282 S   0  0  0  0  0  0  0  0  0  0  0  0
    9.0098  -16.6218   21.9979 C   0  0  0  0  0  0  0  0  0  0  0  0
   10.1566  -16.0728   22.1060 O   0  0  0  0  0  0  0  0  0  0  0  0
    6.0578  -13.0685   26.2632 C   0  0  0  0  0  0  0  0  0  0  0  0
    7.2951  -13.3530   25.4520 C   0  0  2  0  0  0  0  0  0  0  0  0
    7.6777  -12.0424   24.7441 C   0  0  0  0  0  0  0  0  0  0  0  0
    7.0794  -14.4388   24.4744 C   0  0  0  0  0  0  0  0  0  0  0  0
    8.2522  -14.9742   23.7379 C   0  0  2  0  0  0  0  0  0  0  0  0
    8.0045  -16.0520   22.8263 N   0  0  0  0  0  0  0  0  0  0  0  0
    9.3955  -15.2140   24.6648 C   0  0  0  0  0  0  0  0  0  0  0  0
   10.3396  -14.3598   24.7219 O   0  0  0  0  0  0  0  0  0  0  0  0
   10.8208  -13.0275   29.5692 C   0  0  0  0  0  0  0  0  0  0  0  0
   11.5310  -14.6593   29.9845 S   0  0  0  0  0  0  0  0  0  0  0  0
   11.0361  -15.9706   28.9437 C   0  0  0  0  0  0  0  0  0  0  0  0
   10.1848  -15.8564   27.7632 C   0  0  0  0  0  0  0  0  0  0  0  0
   10.6145  -16.4730   26.5051 C   0  0  2  0  0  0  0  0  0  0  0  0
    9.5062  -16.3274   25.4886 N   0  0  0  0  0  0  0  0  0  0  0  0
   10.6072  -17.9866   26.6955 C   0  0  0  0  0  0  0  0  0  0  0  0
   11.5016  -18.4668   27.4836 O   0  0  0  0  0  0  0  0  0  0  0  0
    9.7647  -18.8520   26.1204 O   0  0  0  0  0  0  0  0  0  0  0  0
  2  3  1  0
  2  1  1  1
  4  3  1  0
  5  2  1  0
  6  5  2  0
  8  7  1  6
  8 10  1  0
  9  8  1  0
 11 10  1  1
 11 12  1  0
 12  5  1  0
 13 11  1  0
 13 20  1  0
 14 13  2  0
 16 15  1  0
 17 16  1  0
 18 17  1  0
 19 20  1  0
 19 18  1  1
 19 21  1  0
 21 23  1  0
 22 21  2  0
M  END
$$$$
