PGA.pdb
     RDKit          3D

 17 17  0  0  1  0  0  0  0  0999 V2000
   24.6404  -33.0585  -13.3115 N   0  0  0  0  0  0  0  0  0  0  0  0
   25.6669  -33.1336  -14.3317 C   0  0  0  0  0  0  0  0  0  0  0  0
   26.9362  -33.5603  -13.6338 C   0  0  0  0  0  0  0  0  0  0  0  0
   26.4289  -34.3945  -12.5043 C   0  0  0  0  0  0  0  0  0  0  0  0
   25.0805  -33.8224  -12.1897 C   0  0  1  0  0  0  0  0  0  0  0  0
   25.2162  -32.9167  -11.0036 C   0  0  0  0  0  0  0  0  0  0  0  0
   25.4377  -31.6904  -11.1622 O   0  0  0  0  0  0  0  0  0  0  0  0
   25.0984  -33.4202   -9.6790 N   0  0  0  0  0  0  0  0  0  0  0  0
   24.9712  -32.5538   -8.5253 C   0  0  0  0  0  0  0  0  0  0  0  0
   24.7044  -33.3200   -7.2819 C   0  0  0  0  0  0  0  0  0  0  0  0
   24.6782  -32.7735   -6.1413 O   0  0  0  0  0  0  0  0  0  0  0  0
   23.6872  -36.8657   -6.7579 C   0  0  0  0  0  0  0  0  0  0  0  0
   24.1746  -35.5153   -6.2477 C   0  0  2  0  0  0  0  0  0  0  0  0
   24.4748  -34.7133   -7.4144 N   0  0  0  0  0  0  0  0  0  0  0  0
   25.4219  -35.7366   -5.4854 C   0  0  0  0  0  0  0  0  0  0  0  0
   25.4083  -36.2434   -4.3236 O   0  0  0  0  0  0  0  0  0  0  0  0
   26.6521  -35.3972   -6.0149 O   0  0  0  0  0  0  0  0  0  0  0  0
  1  2  1  0
  1  5  1  0
  2  3  1  0
  3  4  1  0
  5  6  1  1
  5  4  1  0
  6  7  2  0
  8  9  1  0
  8  6  1  0
  9 10  1  0
 10 14  1  0
 11 10  2  0
 13 12  1  6
 14 13  1  0
 15 13  1  0
 16 15  2  0
 17 15  1  0
M  END
$$$$
