PGA.pdb
     RDKit          3D

 17 17  0  0  1  0  0  0  0  0999 V2000
   27.3911  -32.0041  -15.6606 N   0  0  0  0  0  0  0  0  0  0  0  0
   28.8345  -32.0165  -15.5327 C   0  0  0  0  0  0  0  0  0  0  0  0
   29.3717  -32.6633  -16.7872 C   0  0  0  0  0  0  0  0  0  0  0  0
   28.3501  -32.2970  -17.8124 C   0  0  0  0  0  0  0  0  0  0  0  0
   27.0718  -32.1695  -17.0414 C   0  0  1  0  0  0  0  0  0  0  0  0
   26.2873  -33.4345  -17.2143 C   0  0  0  0  0  0  0  0  0  0  0  0
   26.0598  -33.8897  -18.3629 O   0  0  0  0  0  0  0  0  0  0  0  0
   25.7848  -34.1453  -16.0899 N   0  0  0  0  0  0  0  0  0  0  0  0
   25.1487  -35.4412  -16.2089 C   0  0  0  0  0  0  0  0  0  0  0  0
   24.7272  -35.9763  -14.8897 C   0  0  0  0  0  0  0  0  0  0  0  0
   24.1471  -37.0936  -14.7653 O   0  0  0  0  0  0  0  0  0  0  0  0
   25.7483  -35.2261  -11.4852 C   0  0  0  0  0  0  0  0  0  0  0  0
   24.6293  -35.6463  -12.4297 C   0  0  2  0  0  0  0  0  0  0  0  0
   25.0004  -35.1797  -13.7485 N   0  0  0  0  0  0  0  0  0  0  0  0
   23.3912  -34.9563  -12.0090 C   0  0  0  0  0  0  0  0  0  0  0  0
   22.9616  -33.9327  -12.6207 O   0  0  0  0  0  0  0  0  0  0  0  0
   22.6555  -35.4051  -10.9291 O   0  0  0  0  0  0  0  0  0  0  0  0
  1  2  1  0
  1  5  1  0
  2  3  1  0
  3  4  1  0
  5  6  1  1
  5  4  1  0
  6  7  2  0
  8  9  1  0
  8  6  1  0
  9 10  1  0
 10 14  1  0
 11 10  2  0
 13 12  1  1
 14 13  1  0
 15 13  1  0
 16 15  2  0
 17 15  1  0
M  END
$$$$
