PGA.pdb
     RDKit          3D

 17 17  0  0  1  0  0  0  0  0999 V2000
   19.6302   -9.1151  -14.9228 N   0  0  0  0  0  0  0  0  0  0  0  0
   20.2595   -8.6603  -16.1465 C   0  0  0  0  0  0  0  0  0  0  0  0
   21.5195   -7.9349  -15.7382 C   0  0  0  0  0  0  0  0  0  0  0  0
   21.9130   -8.6368  -14.4806 C   0  0  0  0  0  0  0  0  0  0  0  0
   20.6192   -9.1129  -13.8942 C   0  0  1  0  0  0  0  0  0  0  0  0
   20.2057   -8.1537  -12.8198 C   0  0  0  0  0  0  0  0  0  0  0  0
   20.9920   -7.8731  -11.8810 O   0  0  0  0  0  0  0  0  0  0  0  0
   18.9221   -7.5421  -12.8368 N   0  0  0  0  0  0  0  0  0  0  0  0
   18.4872   -6.6163  -11.8113 C   0  0  0  0  0  0  0  0  0  0  0  0
   17.1106   -6.9140  -11.3416 C   0  0  0  0  0  0  0  0  0  0  0  0
   16.1656   -7.1824  -12.1387 O   0  0  0  0  0  0  0  0  0  0  0  0
   15.6955   -7.2147   -7.9003 C   0  0  0  0  0  0  0  0  0  0  0  0
   15.5588   -7.1460   -9.4161 C   0  0  2  0  0  0  0  0  0  0  0  0
   16.8821   -6.8879   -9.9421 N   0  0  0  0  0  0  0  0  0  0  0  0
   14.6815   -6.0024   -9.7455 C   0  0  0  0  0  0  0  0  0  0  0  0
   13.4189   -6.0953   -9.6832 O   0  0  0  0  0  0  0  0  0  0  0  0
   15.2096   -4.7864  -10.1349 O   0  0  0  0  0  0  0  0  0  0  0  0
  1  2  1  0
  1  5  1  0
  2  3  1  0
  3  4  1  0
  5  6  1  1
  5  4  1  0
  6  7  2  0
  8  9  1  0
  8  6  1  0
  9 10  1  0
 10 14  1  0
 11 10  2  0
 13 12  1  1
 14 13  1  0
 15 13  1  0
 16 15  2  0
 17 15  1  0
M  END
$$$$
