PGA.pdb
     RDKit          3D

 17 17  0  0  1  0  0  0  0  0999 V2000
   20.3704   -9.7228  -17.7210 N   0  0  0  0  0  0  0  0  0  0  0  0
   20.9496  -10.7327  -16.8579 C   0  0  0  0  0  0  0  0  0  0  0  0
   19.8163  -11.2947  -16.0331 C   0  0  0  0  0  0  0  0  0  0  0  0
   18.6415  -11.1515  -16.9432 C   0  0  0  0  0  0  0  0  0  0  0  0
   18.9651   -9.9598  -17.7914 C   0  0  1  0  0  0  0  0  0  0  0  0
   18.2400   -8.7724  -17.2348 C   0  0  0  0  0  0  0  0  0  0  0  0
   16.9993   -8.8176  -17.0429 O   0  0  0  0  0  0  0  0  0  0  0  0
   18.9342   -7.5739  -16.9127 N   0  0  0  0  0  0  0  0  0  0  0  0
   18.2745   -6.4261  -16.3250 C   0  0  0  0  0  0  0  0  0  0  0  0
   19.0029   -5.9150  -15.1365 C   0  0  0  0  0  0  0  0  0  0  0  0
   18.5756   -4.9461  -14.4444 O   0  0  0  0  0  0  0  0  0  0  0  0
   21.7628   -7.3336  -13.1497 C   0  0  0  0  0  0  0  0  0  0  0  0
   20.9701   -6.1263  -13.6347 C   0  0  2  0  0  0  0  0  0  0  0  0
   20.2186   -6.5599  -14.7931 N   0  0  0  0  0  0  0  0  0  0  0  0
   21.9321   -5.0838  -14.0512 C   0  0  0  0  0  0  0  0  0  0  0  0
   22.2700   -4.9395  -15.2643 O   0  0  0  0  0  0  0  0  0  0  0  0
   22.4993   -4.2261  -13.1284 O   0  0  0  0  0  0  0  0  0  0  0  0
  1  2  1  0
  1  5  1  0
  2  3  1  0
  3  4  1  0
  5  6  1  1
  5  4  1  0
  6  7  2  0
  8  9  1  0
  8  6  1  0
  9 10  1  0
 10 14  1  0
 11 10  2  0
 13 12  1  6
 14 13  1  0
 15 13  1  0
 16 15  2  0
 17 15  1  0
M  END
$$$$
