PGA.pdb
     RDKit          3D

 17 17  0  0  1  0  0  0  0  0999 V2000
   33.5191  -24.4944    7.5066 N   0  0  0  0  0  0  0  0  0  0  0  0
   33.8233  -24.9839    6.1769 C   0  0  0  0  0  0  0  0  0  0  0  0
   34.3969  -23.8164    5.4098 C   0  0  0  0  0  0  0  0  0  0  0  0
   35.0631  -23.0134    6.4778 C   0  0  0  0  0  0  0  0  0  0  0  0
   34.2658  -23.2964    7.7143 C   0  0  1  0  0  0  0  0  0  0  0  0
   33.3153  -22.1591    7.9345 C   0  0  0  0  0  0  0  0  0  0  0  0
   33.7495  -21.0041    8.1703 O   0  0  0  0  0  0  0  0  0  0  0  0
   31.9083  -22.3585    7.8823 N   0  0  0  0  0  0  0  0  0  0  0  0
   30.9610  -21.2914    8.1312 C   0  0  0  0  0  0  0  0  0  0  0  0
   30.5888  -21.2024    9.5657 C   0  0  0  0  0  0  0  0  0  0  0  0
   30.9914  -20.2651   10.3137 O   0  0  0  0  0  0  0  0  0  0  0  0
   28.2525  -23.2329   11.6390 C   0  0  0  0  0  0  0  0  0  0  0  0
   29.3782  -22.2184   11.4820 C   0  0  2  0  0  0  0  0  0  0  0  0
   29.7499  -22.2223   10.0833 N   0  0  0  0  0  0  0  0  0  0  0  0
   30.5295  -22.6836   12.2844 C   0  0  0  0  0  0  0  0  0  0  0  0
   30.7485  -22.2384   13.4508 O   0  0  0  0  0  0  0  0  0  0  0  0
   31.4116  -23.6245   11.7888 O   0  0  0  0  0  0  0  0  0  0  0  0
  1  2  1  0
  1  5  1  0
  2  3  1  0
  3  4  1  0
  5  6  1  6
  5  4  1  0
  6  7  2  0
  8  9  1  0
  8  6  1  0
  9 10  1  0
 10 14  1  0
 11 10  2  0
 13 12  1  6
 14 13  1  0
 15 13  1  0
 16 15  2  0
 17 15  1  0
M  END
$$$$
