PGA.pdb
     RDKit          3D

 17 17  0  0  1  0  0  0  0  0999 V2000
   20.9089   -8.2592  -17.9986 N   0  0  0  0  0  0  0  0  0  0  0  0
   21.1908   -9.6221  -18.4029 C   0  0  0  0  0  0  0  0  0  0  0  0
   20.4783  -10.5186  -17.4185 C   0  0  0  0  0  0  0  0  0  0  0  0
   19.2951   -9.6997  -17.0207 C   0  0  0  0  0  0  0  0  0  0  0  0
   19.7556   -8.2807  -17.1588 C   0  0  1  0  0  0  0  0  0  0  0  0
   20.1297   -7.7707  -15.8003 C   0  0  0  0  0  0  0  0  0  0  0  0
   19.2726   -7.7158  -14.8835 O   0  0  0  0  0  0  0  0  0  0  0  0
   21.4550   -7.3396  -15.5182 N   0  0  0  0  0  0  0  0  0  0  0  0
   21.8702   -6.9122  -14.1980 C   0  0  0  0  0  0  0  0  0  0  0  0
   22.0682   -5.4425  -14.1266 C   0  0  0  0  0  0  0  0  0  0  0  0
   22.5433   -4.8714  -13.1027 O   0  0  0  0  0  0  0  0  0  0  0  0
   21.8703   -2.8395  -16.7695 C   0  0  0  0  0  0  0  0  0  0  0  0
   21.9684   -3.2601  -15.3085 C   0  0  2  0  0  0  0  0  0  0  0  0
   21.7005   -4.6817  -15.2657 N   0  0  0  0  0  0  0  0  0  0  0  0
   20.9116   -2.5512  -14.5558 C   0  0  0  0  0  0  0  0  0  0  0  0
   19.7781   -3.0788  -14.3471 O   0  0  0  0  0  0  0  0  0  0  0  0
   21.1233   -1.2826  -14.0509 O   0  0  0  0  0  0  0  0  0  0  0  0
  1  2  1  0
  1  5  1  0
  2  3  1  0
  3  4  1  0
  5  6  1  1
  5  4  1  0
  6  7  2  0
  8  9  1  0
  8  6  1  0
  9 10  1  0
 10 14  1  0
 11 10  2  0
 13 12  1  6
 14 13  1  0
 15 13  1  0
 16 15  2  0
 17 15  1  0
M  END
$$$$
