PGA.pdb
     RDKit          3D

 17 17  0  0  1  0  0  0  0  0999 V2000
   25.3804  -14.2170  -15.4848 N   0  0  0  0  0  0  0  0  0  0  0  0
   23.9895  -14.5057  -15.7716 C   0  0  0  0  0  0  0  0  0  0  0  0
   23.6705  -13.8255  -17.0816 C   0  0  0  0  0  0  0  0  0  0  0  0
   24.9811  -13.8516  -17.7962 C   0  0  0  0  0  0  0  0  0  0  0  0
   26.0062  -13.8200  -16.7041 C   0  0  1  0  0  0  0  0  0  0  0  0
   26.5040  -12.4136  -16.5635 C   0  0  0  0  0  0  0  0  0  0  0  0
   27.0251  -11.8228  -17.5420 O   0  0  0  0  0  0  0  0  0  0  0  0
   26.3992  -11.7187  -15.3273 N   0  0  0  0  0  0  0  0  0  0  0  0
   26.8953  -10.3697  -15.1482 C   0  0  0  0  0  0  0  0  0  0  0  0
   25.8506   -9.3521  -15.4262 C   0  0  0  0  0  0  0  0  0  0  0  0
   26.0610   -8.1114  -15.2961 O   0  0  0  0  0  0  0  0  0  0  0  0
   22.6300   -9.6167  -17.2041 C   0  0  0  0  0  0  0  0  0  0  0  0
   23.5483   -8.8851  -16.2333 C   0  0  2  0  0  0  0  0  0  0  0  0
   24.5821   -9.8232  -15.8511 N   0  0  0  0  0  0  0  0  0  0  0  0
   22.7584   -8.5293  -15.0352 C   0  0  0  0  0  0  0  0  0  0  0  0
   22.8448   -9.1969  -13.9612 O   0  0  0  0  0  0  0  0  0  0  0  0
   21.8942   -7.4513  -15.0441 O   0  0  0  0  0  0  0  0  0  0  0  0
  1  2  1  0
  1  5  1  0
  2  3  1  0
  3  4  1  0
  5  6  1  1
  5  4  1  0
  6  7  2  0
  8  9  1  0
  8  6  1  0
  9 10  1  0
 10 14  1  0
 11 10  2  0
 13 12  1  6
 14 13  1  0
 15 13  1  0
 16 15  2  0
 17 15  1  0
M  END
$$$$
