PGA.pdb
     RDKit          3D

 17 17  0  0  1  0  0  0  0  0999 V2000
   24.2735  -11.1830  -16.5376 N   0  0  0  0  0  0  0  0  0  0  0  0
   24.4076  -11.5916  -15.1537 C   0  0  0  0  0  0  0  0  0  0  0  0
   23.0771  -12.1797  -14.7482 C   0  0  0  0  0  0  0  0  0  0  0  0
   22.5614  -12.7469  -16.0294 C   0  0  0  0  0  0  0  0  0  0  0  0
   23.1574  -11.8767  -17.0934 C   0  0  1  0  0  0  0  0  0  0  0  0
   22.1247  -10.8789  -17.5216 C   0  0  0  0  0  0  0  0  0  0  0  0
   21.0062  -11.2634  -17.9451 O   0  0  0  0  0  0  0  0  0  0  0  0
   22.3842   -9.4822  -17.4592 N   0  0  0  0  0  0  0  0  0  0  0  0
   21.4019   -8.4899  -17.8447 C   0  0  0  0  0  0  0  0  0  0  0  0
   21.0786   -7.5655  -16.7288 C   0  0  0  0  0  0  0  0  0  0  0  0
   20.5012   -6.4552  -16.9139 O   0  0  0  0  0  0  0  0  0  0  0  0
   21.1029   -8.0576  -13.0627 C   0  0  0  0  0  0  0  0  0  0  0  0
   21.1176   -7.1433  -14.2814 C   0  0  2  0  0  0  0  0  0  0  0  0
   21.4445   -7.9737  -15.4208 N   0  0  0  0  0  0  0  0  0  0  0  0
   22.1920   -6.1454  -14.0926 C   0  0  0  0  0  0  0  0  0  0  0  0
   23.3023   -6.2437  -14.6962 O   0  0  0  0  0  0  0  0  0  0  0  0
   22.0230   -5.0655  -13.2476 O   0  0  0  0  0  0  0  0  0  0  0  0
  1  2  1  0
  1  5  1  0
  2  3  1  0
  3  4  1  0
  5  6  1  1
  5  4  1  0
  6  7  2  0
  8  9  1  0
  8  6  1  0
  9 10  1  0
 10 14  1  0
 11 10  2  0
 13 12  1  1
 14 13  1  0
 15 13  1  0
 16 15  2  0
 17 15  1  0
M  END
$$$$
