PGA.pdb
     RDKit          3D

 17 17  0  0  1  0  0  0  0  0999 V2000
   25.6236  -18.9331  -15.8526 N   0  0  0  0  0  0  0  0  0  0  0  0
   25.6396  -17.7086  -15.0778 C   0  0  0  0  0  0  0  0  0  0  0  0
   26.9596  -17.6808  -14.3449 C   0  0  0  0  0  0  0  0  0  0  0  0
   27.8674  -18.4229  -15.2691 C   0  0  0  0  0  0  0  0  0  0  0  0
   26.9703  -19.3853  -15.9857 C   0  0  1  0  0  0  0  0  0  0  0  0
   27.1021  -20.7287  -15.3350 C   0  0  0  0  0  0  0  0  0  0  0  0
   28.2331  -21.1712  -15.0134 O   0  0  0  0  0  0  0  0  0  0  0  0
   25.9580  -21.5296  -15.0677 N   0  0  0  0  0  0  0  0  0  0  0  0
   26.0292  -22.7590  -14.3052 C   0  0  0  0  0  0  0  0  0  0  0  0
   25.1761  -22.7099  -13.0910 C   0  0  0  0  0  0  0  0  0  0  0  0
   24.1954  -23.4903  -12.9195 O   0  0  0  0  0  0  0  0  0  0  0  0
   25.3121  -20.5465  -10.0531 C   0  0  0  0  0  0  0  0  0  0  0  0
   24.5846  -21.4716  -11.0206 C   0  0  2  0  0  0  0  0  0  0  0  0
   25.5010  -21.7404  -12.1081 N   0  0  0  0  0  0  0  0  0  0  0  0
   23.4107  -20.7470  -11.5523 C   0  0  0  0  0  0  0  0  0  0  0  0
   23.4343  -20.1904  -12.6908 O   0  0  0  0  0  0  0  0  0  0  0  0
   22.2409  -20.6505  -10.8234 O   0  0  0  0  0  0  0  0  0  0  0  0
  1  2  1  0
  1  5  1  0
  2  3  1  0
  3  4  1  0
  5  6  1  1
  5  4  1  0
  6  7  2  0
  8  9  1  0
  8  6  1  0
  9 10  1  0
 10 14  1  0
 11 10  2  0
 13 12  1  1
 14 13  1  0
 15 13  1  0
 16 15  2  0
 17 15  1  0
M  END
$$$$
