PGA.pdb
     RDKit          3D

 17 17  0  0  1  0  0  0  0  0999 V2000
   28.5544  -21.3225  -10.8414 N   0  0  0  0  0  0  0  0  0  0  0  0
   29.8864  -21.8933  -10.8476 C   0  0  0  0  0  0  0  0  0  0  0  0
   30.5828  -21.3466  -12.0710 C   0  0  0  0  0  0  0  0  0  0  0  0
   29.9472  -20.0067  -12.2430 C   0  0  0  0  0  0  0  0  0  0  0  0
   28.5676  -20.1694  -11.6818 C   0  0  1  0  0  0  0  0  0  0  0  0
   27.6163  -20.3822  -12.8199 C   0  0  0  0  0  0  0  0  0  0  0  0
   27.4388  -19.4813  -13.6772 O   0  0  0  0  0  0  0  0  0  0  0  0
   26.8964  -21.6009  -12.9559 N   0  0  0  0  0  0  0  0  0  0  0  0
   25.9659  -21.8386  -14.0402 C   0  0  0  0  0  0  0  0  0  0  0  0
   24.5539  -21.7313  -13.5941 C   0  0  0  0  0  0  0  0  0  0  0  0
   23.5806  -22.0182  -14.3496 O   0  0  0  0  0  0  0  0  0  0  0  0
   23.0741  -20.5576  -10.3725 C   0  0  0  0  0  0  0  0  0  0  0  0
   22.9734  -21.1830  -11.7581 C   0  0  2  0  0  0  0  0  0  0  0  0
   24.3243  -21.2878  -12.2666 N   0  0  0  0  0  0  0  0  0  0  0  0
   22.2070  -20.2604  -12.6226 C   0  0  0  0  0  0  0  0  0  0  0  0
   20.9399  -20.2790  -12.6537 O   0  0  0  0  0  0  0  0  0  0  0  0
   22.8478  -19.3412  -13.4308 O   0  0  0  0  0  0  0  0  0  0  0  0
  1  2  1  0
  1  5  1  0
  2  3  1  0
  3  4  1  0
  5  6  1  6
  5  4  1  0
  6  7  2  0
  8  9  1  0
  8  6  1  0
  9 10  1  0
 10 14  1  0
 11 10  2  0
 13 12  1  1
 14 13  1  0
 15 13  1  0
 16 15  2  0
 17 15  1  0
M  END
$$$$
