RKI.pdb
     RDKit          3D

 29 28  0  0  1  0  0  0  0  0999 V2000
    5.4275  -21.4396   17.8943 N   0  0  0  0  0  0  0  0  0  0  0  0
    6.5750  -21.0827   17.1366 C   0  0  0  0  0  0  0  0  0  0  0  0
    6.9930  -21.8064   16.1406 N   0  0  0  0  0  0  0  0  0  0  0  0
    7.2684  -19.8970   17.4971 N   0  0  0  0  0  0  0  0  0  0  0  0
    6.5254  -18.7001   17.9291 C   0  0  0  0  0  0  0  0  0  0  0  0
    7.1468  -18.2354   19.1962 C   0  0  0  0  0  0  0  0  0  0  0  0
    6.5560  -17.0495   19.8480 C   0  0  0  0  0  0  0  0  0  0  0  0
    7.4613  -15.8876   20.0986 C   0  0  2  0  0  0  0  0  0  0  0  0
    8.5852  -15.8474   19.1800 N   0  0  0  0  0  0  0  0  0  0  0  0
    7.9603  -16.0262   21.4789 C   0  0  0  0  0  0  0  0  0  0  0  0
    7.1607  -16.0728   22.4249 O   0  0  0  0  0  0  0  0  0  0  0  0
    7.8609  -21.5822   15.6490 N   0  0  0  0  0  0  0  0  0  0  0  0
    9.3433  -16.1052   21.7203 C   0  0  1  0  0  0  0  0  0  0  0  0
    9.8527  -16.3009   23.0662 C   0  0  0  0  0  0  0  0  0  0  0  0
   11.3454  -16.5724   22.9311 C   0  0  0  0  0  0  0  0  0  0  0  0
   11.6301  -18.0306   23.2844 C   0  0  0  0  0  0  0  0  0  0  0  0
   13.0938  -18.3415   23.1037 C   0  0  0  0  0  0  0  0  0  0  0  0
   13.3244  -19.7914   23.4718 N   0  0  0  0  0  0  0  0  0  0  0  0
   14.7243  -20.1184   23.3894 C   0  0  0  0  0  0  0  0  0  0  0  0
    9.5902  -15.1382   23.9349 O   0  0  0  0  0  0  0  0  0  0  0  0
    9.6635  -13.9370   23.5162 C   0  0  0  0  0  0  0  0  0  0  0  0
    6.3575  -11.6970   26.5884 C   0  0  0  0  0  0  0  0  0  0  0  0
    7.7196  -12.3003   26.8562 C   0  0  2  0  0  0  0  0  0  0  0  0
    7.9633  -13.3984   25.8753 C   0  0  0  0  0  0  0  0  0  0  0  0
    6.6944  -14.2139   25.7099 C   0  0  2  0  0  0  0  0  0  0  0  0
    9.1317  -14.2995   26.2654 N   0  0  0  0  0  0  0  0  0  0  0  0
    9.2431  -15.3548   25.2856 C   0  0  0  0  0  0  0  0  0  0  0  0
    8.9302  -14.9120   27.5927 O   0  0  0  0  0  0  0  0  0  0  0  0
    8.7743  -16.2792   27.7171 O   0  0  0  0  0  0  0  0  0  0  0  0
  2  1  1  0
  2  3  2  0
  4  2  1  0
  5  4  1  0
  6  5  1  0
  7  6  1  0
  8  7  1  0
  8  9  1  6
 10  8  1  0
 10 12  1  0
 11 10  2  0
 13 12  1  0
 13 14  1  1
 15 14  1  0
 16 15  1  0
 17 16  1  0
 18 17  1  0
 19 26  1  0
 19 13  1  0
 20 19  2  0
 21 22  1  0
 23 22  1  0
 23 25  1  0
 23 24  1  6
 25 26  1  1
 25 27  1  0
 27 28  1  0
 29 27  2  0
M  END
$$$$
