RKI.pdb
     RDKit          3D

 29 28  0  0  1  0  0  0  0  0999 V2000
    9.4787  -15.7191   16.9459 N   0  0  0  0  0  0  0  0  0  0  0  0
    8.7870  -14.4801   16.8794 C   0  0  0  0  0  0  0  0  0  0  0  0
    8.1806  -14.0890   15.7978 N   0  0  0  0  0  0  0  0  0  0  0  0
    8.7719  -13.6629   18.0408 N   0  0  0  0  0  0  0  0  0  0  0  0
    8.6393  -14.2683   19.3776 C   0  0  0  0  0  0  0  0  0  0  0  0
    7.1892  -14.3002   19.6995 C   0  0  0  0  0  0  0  0  0  0  0  0
    6.7999  -14.7981   21.0339 C   0  0  0  0  0  0  0  0  0  0  0  0
    6.7685  -16.2794   21.2263 C   0  0  2  0  0  0  0  0  0  0  0  0
    5.6060  -16.8973   20.6136 N   0  0  0  0  0  0  0  0  0  0  0  0
    6.7430  -16.5198   22.6805 C   0  0  0  0  0  0  0  0  0  0  0  0
    5.9544  -15.8885   23.3990 O   0  0  0  0  0  0  0  0  0  0  0  0
    7.7515  -13.1632   15.7351 N   0  0  0  0  0  0  0  0  0  0  0  0
    7.6137  -17.4652   23.2506 C   0  0  2  0  0  0  0  0  0  0  0  0
    7.7707  -17.5569   24.6916 C   0  0  0  0  0  0  0  0  0  0  0  0
    8.3453  -18.9379   24.9795 C   0  0  0  0  0  0  0  0  0  0  0  0
    8.4333  -19.1463   26.4898 C   0  0  0  0  0  0  0  0  0  0  0  0
    8.9858  -20.5132   26.8028 C   0  0  0  0  0  0  0  0  0  0  0  0
    9.0492  -20.6712   28.3068 N   0  0  0  0  0  0  0  0  0  0  0  0
    9.4893  -21.9963   28.6587 C   0  0  0  0  0  0  0  0  0  0  0  0
    8.6354  -16.4884   25.2260 O   0  0  0  0  0  0  0  0  0  0  0  0
    9.7135  -16.1252   24.6522 C   0  0  0  0  0  0  0  0  0  0  0  0
    6.1427  -12.1909   26.8776 C   0  0  0  0  0  0  0  0  0  0  0  0
    7.2327  -13.0788   26.3166 C   0  0  2  0  0  0  0  0  0  0  0  0
    8.0048  -13.6702   27.4485 C   0  0  0  0  0  0  0  0  0  0  0  0
    8.7170  -12.5627   28.2026 C   0  0  2  0  0  0  0  0  0  0  0  0
    8.9993  -14.7377   27.0001 N   0  0  0  0  0  0  0  0  0  0  0  0
    8.2619  -15.8360   26.4204 C   0  0  0  0  0  0  0  0  0  0  0  0
    9.7953  -15.2528   28.1309 O   0  0  0  0  0  0  0  0  0  0  0  0
   10.9318  -14.5871   28.5484 O   0  0  0  0  0  0  0  0  0  0  0  0
  2  1  1  0
  2  3  2  0
  4  2  1  0
  5  4  1  0
  6  5  1  0
  7  6  1  0
  8  7  1  0
  8  9  1  6
 10  8  1  0
 10 12  1  0
 11 10  2  0
 13 12  1  0
 13 14  1  6
 15 14  1  0
 16 15  1  0
 17 16  1  0
 18 17  1  0
 19 26  1  0
 19 13  1  0
 20 19  2  0
 21 22  1  0
 23 22  1  0
 23 25  1  0
 23 24  1  1
 25 26  1  6
 25 27  1  0
 27 28  1  0
 29 27  2  0
M  END
$$$$
