RKI.pdb
     RDKit          3D

 29 28  0  0  1  0  0  0  0  0999 V2000
    7.9259  -15.8441   14.9184 N   0  0  0  0  0  0  0  0  0  0  0  0
    8.1934  -14.4580   14.7599 C   0  0  0  0  0  0  0  0  0  0  0  0
    8.0718  -13.8619   13.6108 N   0  0  0  0  0  0  0  0  0  0  0  0
    8.6043  -13.7242   15.9042 N   0  0  0  0  0  0  0  0  0  0  0  0
    8.6471  -14.3689   17.2284 C   0  0  0  0  0  0  0  0  0  0  0  0
    7.7547  -13.5870   18.1228 C   0  0  0  0  0  0  0  0  0  0  0  0
    7.4200  -14.1773   19.4341 C   0  0  0  0  0  0  0  0  0  0  0  0
    8.5470  -14.7458   20.2334 C   0  0  2  0  0  0  0  0  0  0  0  0
    9.1242  -15.9293   19.6210 N   0  0  0  0  0  0  0  0  0  0  0  0
    7.9975  -15.0958   21.5558 C   0  0  0  0  0  0  0  0  0  0  0  0
    7.3544  -14.2555   22.2015 O   0  0  0  0  0  0  0  0  0  0  0  0
    8.2251  -12.8555   13.5161 N   0  0  0  0  0  0  0  0  0  0  0  0
    8.2040  -16.3828   22.0830 C   0  0  1  0  0  0  0  0  0  0  0  0
    7.7440  -16.7215   23.4183 C   0  0  0  0  0  0  0  0  0  0  0  0
    7.8289  -18.2378   23.5361 C   0  0  0  0  0  0  0  0  0  0  0  0
    7.4178  -18.6613   24.9446 C   0  0  0  0  0  0  0  0  0  0  0  0
    7.5448  -20.1545   25.1050 C   0  0  0  0  0  0  0  0  0  0  0  0
    7.1543  -20.5190   26.5213 N   0  0  0  0  0  0  0  0  0  0  0  0
    7.3103  -21.9334   26.7416 C   0  0  0  0  0  0  0  0  0  0  0  0
    8.5366  -16.0516   24.4663 O   0  0  0  0  0  0  0  0  0  0  0  0
    9.8098  -16.0936   24.4975 C   0  0  0  0  0  0  0  0  0  0  0  0
    6.4131  -11.3905   25.7945 C   0  0  0  0  0  0  0  0  0  0  0  0
    7.3802  -12.5064   25.4624 C   0  0  2  0  0  0  0  0  0  0  0  0
    7.6879  -13.2666   26.7093 C   0  0  0  0  0  0  0  0  0  0  0  0
    8.3723  -12.3455   27.7022 C   0  0  2  0  0  0  0  0  0  0  0  0
    8.5384  -14.5086   26.4573 N   0  0  0  0  0  0  0  0  0  0  0  0
    7.8670  -15.3328   25.4795 C   0  0  0  0  0  0  0  0  0  0  0  0
    8.7270  -15.3010   27.6878 O   0  0  0  0  0  0  0  0  0  0  0  0
    9.8472  -15.1164   28.4752 O   0  0  0  0  0  0  0  0  0  0  0  0
  2  1  1  0
  2  3  2  0
  4  2  1  0
  5  4  1  0
  6  5  1  0
  7  6  1  0
  8  7  1  0
  8  9  1  6
 10  8  1  0
 10 12  1  0
 11 10  2  0
 13 12  1  0
 13 14  1  1
 15 14  1  0
 16 15  1  0
 17 16  1  0
 18 17  1  0
 19 26  1  0
 19 13  1  0
 20 19  2  0
 21 22  1  0
 23 22  1  0
 23 25  1  0
 23 24  1  1
 25 26  1  6
 25 27  1  0
 27 28  1  0
 29 27  2  0
M  END
$$$$
