RKI.pdb
     RDKit          3D

 29 28  0  0  1  0  0  0  0  0999 V2000
    9.4627  -14.1578   19.7077 N   0  0  0  0  0  0  0  0  0  0  0  0
    8.5702  -13.1810   19.1906 C   0  0  0  0  0  0  0  0  0  0  0  0
    8.9967  -12.0752   18.6560 N   0  0  0  0  0  0  0  0  0  0  0  0
    7.1768  -13.4430   19.2718 N   0  0  0  0  0  0  0  0  0  0  0  0
    6.5485  -13.7435   20.5702 C   0  0  0  0  0  0  0  0  0  0  0  0
    6.8141  -15.1760   20.8617 C   0  0  0  0  0  0  0  0  0  0  0  0
    5.7708  -16.1509   20.4862 C   0  0  0  0  0  0  0  0  0  0  0  0
    5.9795  -17.5690   20.9077 C   0  0  2  0  0  0  0  0  0  0  0  0
    4.9174  -18.4486   20.4529 N   0  0  0  0  0  0  0  0  0  0  0  0
    6.0234  -17.5735   22.3813 C   0  0  0  0  0  0  0  0  0  0  0  0
    5.0357  -17.2016   23.0315 O   0  0  0  0  0  0  0  0  0  0  0  0
    8.3479  -11.3368   18.3749 N   0  0  0  0  0  0  0  0  0  0  0  0
    7.1861  -17.9997   23.0471 C   0  0  2  0  0  0  0  0  0  0  0  0
    7.3116  -17.8590   24.4872 C   0  0  0  0  0  0  0  0  0  0  0  0
    7.8237  -19.1942   25.0117 C   0  0  0  0  0  0  0  0  0  0  0  0
    7.9108  -19.1414   26.5355 C   0  0  0  0  0  0  0  0  0  0  0  0
    8.5940  -20.3746   27.0683 C   0  0  0  0  0  0  0  0  0  0  0  0
    8.6735  -20.2645   28.5759 N   0  0  0  0  0  0  0  0  0  0  0  0
    9.6570  -19.2858   28.9610 C   0  0  0  0  0  0  0  0  0  0  0  0
    8.2088  -16.7500   24.8617 O   0  0  0  0  0  0  0  0  0  0  0  0
    9.2992  -16.5107   24.2474 C   0  0  0  0  0  0  0  0  0  0  0  0
    5.8993  -12.1295   26.0912 C   0  0  0  0  0  0  0  0  0  0  0  0
    6.9156  -13.1336   25.5914 C   0  0  2  0  0  0  0  0  0  0  0  0
    7.6974  -13.6494   26.7534 C   0  0  0  0  0  0  0  0  0  0  0  0
    8.4657  -12.5053   27.3885 C   0  0  2  0  0  0  0  0  0  0  0  0
    8.6436  -14.7870   26.3791 N   0  0  0  0  0  0  0  0  0  0  0  0
    7.8538  -15.9147   25.9424 C   0  0  0  0  0  0  0  0  0  0  0  0
    9.4703  -15.2100   27.5259 O   0  0  0  0  0  0  0  0  0  0  0  0
   10.7299  -14.6752   27.7166 O   0  0  0  0  0  0  0  0  0  0  0  0
  2  1  1  0
  2  3  2  0
  4  2  1  0
  5  4  1  0
  6  5  1  0
  7  6  1  0
  8  7  1  0
  8  9  1  1
 10  8  1  0
 10 12  1  0
 11 10  2  0
 13 12  1  0
 13 14  1  6
 15 14  1  0
 16 15  1  0
 17 16  1  0
 18 17  1  0
 19 26  1  0
 19 13  1  0
 20 19  2  0
 21 22  1  0
 23 22  1  0
 23 25  1  0
 23 24  1  1
 25 26  1  6
 25 27  1  0
 27 28  1  0
 29 27  2  0
M  END
$$$$
