RKI.pdb
     RDKit          3D

 29 28  0  0  1  0  0  0  0  0999 V2000
    8.4722  -15.4792   15.0239 N   0  0  0  0  0  0  0  0  0  0  0  0
    8.2907  -14.4049   15.9356 C   0  0  0  0  0  0  0  0  0  0  0  0
    8.5234  -13.1709   15.5984 N   0  0  0  0  0  0  0  0  0  0  0  0
    7.8418  -14.7134   17.2471 N   0  0  0  0  0  0  0  0  0  0  0  0
    7.5697  -13.6366   18.2154 C   0  0  0  0  0  0  0  0  0  0  0  0
    7.1849  -14.2876   19.4943 C   0  0  0  0  0  0  0  0  0  0  0  0
    7.9800  -15.4530   19.9300 C   0  0  0  0  0  0  0  0  0  0  0  0
    7.2295  -16.6927   20.2937 C   0  0  2  0  0  0  0  0  0  0  0  0
    5.9507  -16.7909   19.6127 N   0  0  0  0  0  0  0  0  0  0  0  0
    7.0076  -16.6446   21.7503 C   0  0  0  0  0  0  0  0  0  0  0  0
    6.1608  -15.8724   22.2227 O   0  0  0  0  0  0  0  0  0  0  0  0
    8.3791  -12.4040   16.2589 N   0  0  0  0  0  0  0  0  0  0  0  0
    7.7572  -17.4751   22.6019 C   0  0  2  0  0  0  0  0  0  0  0  0
    7.5711  -17.4251   24.0414 C   0  0  0  0  0  0  0  0  0  0  0  0
    7.9081  -18.8126   24.5719 C   0  0  0  0  0  0  0  0  0  0  0  0
    7.6815  -18.8475   26.0818 C   0  0  0  0  0  0  0  0  0  0  0  0
    8.1335  -20.1669   26.6531 C   0  0  0  0  0  0  0  0  0  0  0  0
    7.7474  -20.2129   28.1159 N   0  0  0  0  0  0  0  0  0  0  0  0
    8.2663  -21.4025   28.7396 C   0  0  0  0  0  0  0  0  0  0  0  0
    8.4048  -16.3861   24.6743 O   0  0  0  0  0  0  0  0  0  0  0  0
    9.6336  -16.2181   24.3817 C   0  0  0  0  0  0  0  0  0  0  0  0
    5.9419  -11.7464   25.7326 C   0  0  0  0  0  0  0  0  0  0  0  0
    6.9941  -12.7657   25.3522 C   0  0  2  0  0  0  0  0  0  0  0  0
    7.5858  -13.3375   26.5973 C   0  0  0  0  0  0  0  0  0  0  0  0
    8.2808  -12.2348   27.3744 C   0  0  2  0  0  0  0  0  0  0  0  0
    8.5489  -14.4901   26.3264 N   0  0  0  0  0  0  0  0  0  0  0  0
    7.8273  -15.5390   25.6441 C   0  0  0  0  0  0  0  0  0  0  0  0
    9.1066  -15.0417   27.5763 O   0  0  0  0  0  0  0  0  0  0  0  0
   10.3766  -14.6901   27.9919 O   0  0  0  0  0  0  0  0  0  0  0  0
  2  1  1  0
  2  3  2  0
  4  2  1  0
  5  4  1  0
  6  5  1  0
  7  6  1  0
  8  7  1  0
  8  9  1  6
 10  8  1  0
 10 12  1  0
 11 10  2  0
 13 12  1  0
 13 14  1  6
 15 14  1  0
 16 15  1  0
 17 16  1  0
 18 17  1  0
 19 26  1  0
 19 13  1  0
 20 19  2  0
 21 22  1  0
 23 22  1  0
 23 25  1  0
 23 24  1  1
 25 26  1  6
 25 27  1  0
 27 28  1  0
 29 27  2  0
M  END
$$$$
