RKI.pdb
     RDKit          3D

 29 28  0  0  1  0  0  0  0  0999 V2000
   11.4692  -15.5589   18.1223 N   0  0  0  0  0  0  0  0  0  0  0  0
   11.5159  -14.2076   18.5581 C   0  0  0  0  0  0  0  0  0  0  0  0
   12.4304  -13.7816   19.3783 N   0  0  0  0  0  0  0  0  0  0  0  0
   10.5242  -13.3160   18.0700 N   0  0  0  0  0  0  0  0  0  0  0  0
    9.0940  -13.6416   18.2098 C   0  0  0  0  0  0  0  0  0  0  0  0
    8.8060  -13.7234   19.6652 C   0  0  0  0  0  0  0  0  0  0  0  0
    7.4376  -14.1059   20.0669 C   0  0  0  0  0  0  0  0  0  0  0  0
    7.1279  -15.5663   20.1267 C   0  0  2  0  0  0  0  0  0  0  0  0
    5.8660  -15.8959   19.4883 N   0  0  0  0  0  0  0  0  0  0  0  0
    7.0661  -15.9307   21.5538 C   0  0  0  0  0  0  0  0  0  0  0  0
    6.0758  -15.6180   22.2306 O   0  0  0  0  0  0  0  0  0  0  0  0
   12.4213  -12.8222   19.7315 N   0  0  0  0  0  0  0  0  0  0  0  0
    8.1311  -16.6328   22.1453 C   0  0  2  0  0  0  0  0  0  0  0  0
    8.1057  -16.9694   23.5579 C   0  0  0  0  0  0  0  0  0  0  0  0
    8.7563  -18.3404   23.6900 C   0  0  0  0  0  0  0  0  0  0  0  0
    8.7264  -18.7775   25.1530 C   0  0  0  0  0  0  0  0  0  0  0  0
    9.2590  -20.1802   25.2958 C   0  0  0  0  0  0  0  0  0  0  0  0
    9.1045  -20.6063   26.7400 N   0  0  0  0  0  0  0  0  0  0  0  0
    9.4241  -22.0020   26.8932 C   0  0  0  0  0  0  0  0  0  0  0  0
    8.7963  -15.9605   24.3827 O   0  0  0  0  0  0  0  0  0  0  0  0
    9.9461  -15.4992   24.0847 C   0  0  0  0  0  0  0  0  0  0  0  0
    5.9365  -11.9560   26.1850 C   0  0  0  0  0  0  0  0  0  0  0  0
    7.0930  -12.8007   25.6953 C   0  0  2  0  0  0  0  0  0  0  0  0
    7.7008  -13.5098   26.8594 C   0  0  0  0  0  0  0  0  0  0  0  0
    8.2788  -12.4892   27.8222 C   0  0  2  0  0  0  0  0  0  0  0  0
    8.7659  -14.5240   26.4515 N   0  0  0  0  0  0  0  0  0  0  0  0
    8.1662  -15.4806   25.5508 C   0  0  0  0  0  0  0  0  0  0  0  0
    9.3031  -15.2514   27.6176 O   0  0  0  0  0  0  0  0  0  0  0  0
   10.4947  -14.8617   28.1983 O   0  0  0  0  0  0  0  0  0  0  0  0
  2  1  1  0
  2  3  2  0
  4  2  1  0
  5  4  1  0
  6  5  1  0
  7  6  1  0
  8  7  1  0
  8  9  1  1
 10  8  1  0
 10 12  1  0
 11 10  2  0
 13 12  1  0
 13 14  1  6
 15 14  1  0
 16 15  1  0
 17 16  1  0
 18 17  1  0
 19 26  1  0
 19 13  1  0
 20 19  2  0
 21 22  1  0
 23 22  1  0
 23 25  1  0
 23 24  1  1
 25 26  1  6
 25 27  1  0
 27 28  1  0
 29 27  2  0
M  END
$$$$
