RKI.pdb
     RDKit          3D

 29 28  0  0  1  0  0  0  0  0999 V2000
   15.4422  -20.1172   18.7591 N   0  0  0  0  0  0  0  0  0  0  0  0
   16.2679  -19.0568   19.2194 C   0  0  0  0  0  0  0  0  0  0  0  0
   17.1648  -18.5041   18.4575 N   0  0  0  0  0  0  0  0  0  0  0  0
   16.0894  -18.6053   20.5540 N   0  0  0  0  0  0  0  0  0  0  0  0
   15.2039  -19.3367   21.4771 C   0  0  0  0  0  0  0  0  0  0  0  0
   13.8445  -18.7558   21.3287 C   0  0  0  0  0  0  0  0  0  0  0  0
   13.4065  -17.7818   22.3484 C   0  0  0  0  0  0  0  0  0  0  0  0
   12.1484  -18.0927   23.0920 C   0  0  2  0  0  0  0  0  0  0  0  0
   11.3300  -19.0827   22.4149 N   0  0  0  0  0  0  0  0  0  0  0  0
   11.3972  -16.8293   23.2054 C   0  0  0  0  0  0  0  0  0  0  0  0
   11.9084  -15.8535   23.7737 O   0  0  0  0  0  0  0  0  0  0  0  0
   17.7821  -17.7698   18.8111 N   0  0  0  0  0  0  0  0  0  0  0  0
   10.1013  -16.7331   22.6685 C   0  0  1  0  0  0  0  0  0  0  0  0
    9.2965  -15.5424   22.8781 C   0  0  0  0  0  0  0  0  0  0  0  0
    8.3587  -15.4353   21.6826 C   0  0  0  0  0  0  0  0  0  0  0  0
    8.8500  -14.3308   20.7494 C   0  0  0  0  0  0  0  0  0  0  0  0
    8.0384  -14.3128   19.4795 C   0  0  0  0  0  0  0  0  0  0  0  0
    8.6285  -13.2752   18.5487 N   0  0  0  0  0  0  0  0  0  0  0  0
    7.9307  -13.2695   17.2891 C   0  0  0  0  0  0  0  0  0  0  0  0
    8.5502  -15.5921   24.1491 O   0  0  0  0  0  0  0  0  0  0  0  0
    8.3125  -16.6822   24.7645 C   0  0  0  0  0  0  0  0  0  0  0  0
    7.3642  -10.5145   26.2242 C   0  0  0  0  0  0  0  0  0  0  0  0
    7.9163  -11.9238   26.2293 C   0  0  2  0  0  0  0  0  0  0  0  0
    6.7849  -12.8868   26.0890 C   0  0  0  0  0  0  0  0  0  0  0  0
    5.8792  -12.7766   27.3016 C   0  0  2  0  0  0  0  0  0  0  0  0
    7.2477  -14.3283   25.8959 N   0  0  0  0  0  0  0  0  0  0  0  0
    8.0763  -14.3889   24.7145 C   0  0  0  0  0  0  0  0  0  0  0  0
    6.1084  -15.2489   25.7168 O   0  0  0  0  0  0  0  0  0  0  0  0
    5.5141  -15.3955   24.4781 O   0  0  0  0  0  0  0  0  0  0  0  0
  2  1  1  0
  2  3  2  0
  4  2  1  0
  5  4  1  0
  6  5  1  0
  7  6  1  0
  8  7  1  0
  8  9  1  6
 10  8  1  0
 10 12  1  0
 11 10  2  0
 13 12  1  0
 13 14  1  1
 15 14  1  0
 16 15  1  0
 17 16  1  0
 18 17  1  0
 19 26  1  0
 19 13  1  0
 20 19  2  0
 21 22  1  0
 23 22  1  0
 23 25  1  0
 23 24  1  6
 25 26  1  1
 25 27  1  0
 27 28  1  0
 29 27  2  0
M  END
$$$$
