RKI.pdb
     RDKit          3D

 29 28  0  0  1  0  0  0  0  0999 V2000
    8.0466  -13.6505   14.3789 N   0  0  0  0  0  0  0  0  0  0  0  0
    9.1986  -14.3272   14.8617 C   0  0  0  0  0  0  0  0  0  0  0  0
   10.2890  -14.4145   14.1589 N   0  0  0  0  0  0  0  0  0  0  0  0
    9.1323  -14.9172   16.1518 N   0  0  0  0  0  0  0  0  0  0  0  0
    7.8440  -15.0216   16.8593 C   0  0  0  0  0  0  0  0  0  0  0  0
    7.6855  -13.7808   17.6610 C   0  0  0  0  0  0  0  0  0  0  0  0
    7.5749  -13.9276   19.1261 C   0  0  0  0  0  0  0  0  0  0  0  0
    8.8238  -14.2650   19.8735 C   0  0  2  0  0  0  0  0  0  0  0  0
    9.6419  -15.2442   19.1803 N   0  0  0  0  0  0  0  0  0  0  0  0
    8.4058  -14.8097   21.1780 C   0  0  0  0  0  0  0  0  0  0  0  0
    7.6363  -14.1616   21.9021 O   0  0  0  0  0  0  0  0  0  0  0  0
   11.1071  -14.9180   14.5089 N   0  0  0  0  0  0  0  0  0  0  0  0
    8.8811  -16.0643   21.5991 C   0  0  2  0  0  0  0  0  0  0  0  0
    8.5718  -16.5691   22.9254 C   0  0  0  0  0  0  0  0  0  0  0  0
    9.0935  -17.9991   22.9790 C   0  0  0  0  0  0  0  0  0  0  0  0
    8.7443  -18.6165   24.3314 C   0  0  0  0  0  0  0  0  0  0  0  0
    9.2269  -20.0426   24.4011 C   0  0  0  0  0  0  0  0  0  0  0  0
    8.7919  -20.6312   25.7261 N   0  0  0  0  0  0  0  0  0  0  0  0
    9.2528  -21.9895   25.8527 C   0  0  0  0  0  0  0  0  0  0  0  0
    9.1633  -15.7365   23.9893 O   0  0  0  0  0  0  0  0  0  0  0  0
   10.3898  -15.3911   23.9900 C   0  0  0  0  0  0  0  0  0  0  0  0
    6.2454  -11.6596   25.5405 C   0  0  0  0  0  0  0  0  0  0  0  0
    7.4079  -12.5684   25.2035 C   0  0  2  0  0  0  0  0  0  0  0  0
    7.7383  -13.3951   26.4013 C   0  0  0  0  0  0  0  0  0  0  0  0
    8.1691  -12.4842   27.5359 C   0  0  2  0  0  0  0  0  0  0  0  0
    8.8084  -14.4475   26.1242 N   0  0  0  0  0  0  0  0  0  0  0  0
    8.3460  -15.2999   25.0538 C   0  0  0  0  0  0  0  0  0  0  0  0
    9.0711  -15.2854   27.3101 O   0  0  0  0  0  0  0  0  0  0  0  0
   10.0896  -14.9608   28.1855 O   0  0  0  0  0  0  0  0  0  0  0  0
  2  1  1  0
  2  3  2  0
  4  2  1  0
  5  4  1  0
  6  5  1  0
  7  6  1  0
  8  7  1  0
  8  9  1  6
 10  8  1  0
 10 12  1  0
 11 10  2  0
 13 12  1  0
 13 14  1  6
 15 14  1  0
 16 15  1  0
 17 16  1  0
 18 17  1  0
 19 26  1  0
 19 13  1  0
 20 19  2  0
 21 22  1  0
 23 22  1  0
 23 25  1  0
 23 24  1  1
 25 26  1  6
 25 27  1  0
 27 28  1  0
 29 27  2  0
M  END
$$$$
