RKI.pdb
     RDKit          3D

 29 28  0  0  1  0  0  0  0  0999 V2000
    7.5952  -15.7589   16.9357 N   0  0  0  0  0  0  0  0  0  0  0  0
    7.8702  -14.8641   15.8671 C   0  0  0  0  0  0  0  0  0  0  0  0
    8.2414  -15.2872   14.6951 N   0  0  0  0  0  0  0  0  0  0  0  0
    7.7285  -13.4723   16.1111 N   0  0  0  0  0  0  0  0  0  0  0  0
    7.1724  -12.9913   17.3879 C   0  0  0  0  0  0  0  0  0  0  0  0
    8.2650  -13.0600   18.3924 C   0  0  0  0  0  0  0  0  0  0  0  0
    8.0600  -13.9395   19.5606 C   0  0  0  0  0  0  0  0  0  0  0  0
    9.2053  -14.0925   20.5079 C   0  0  2  0  0  0  0  0  0  0  0  0
   10.2786  -14.9025   19.9597 N   0  0  0  0  0  0  0  0  0  0  0  0
    8.6719  -14.7397   21.7203 C   0  0  0  0  0  0  0  0  0  0  0  0
    7.7610  -14.1971   22.3624 O   0  0  0  0  0  0  0  0  0  0  0  0
    8.3504  -14.6434   13.9084 N   0  0  0  0  0  0  0  0  0  0  0  0
    9.1978  -15.9720   22.1467 C   0  0  1  0  0  0  0  0  0  0  0  0
    8.7251  -16.5988   23.3687 C   0  0  0  0  0  0  0  0  0  0  0  0
    9.1495  -18.0601   23.3003 C   0  0  0  0  0  0  0  0  0  0  0  0
    8.0215  -18.8881   22.6884 C   0  0  0  0  0  0  0  0  0  0  0  0
    7.2706  -19.6325   23.7624 C   0  0  0  0  0  0  0  0  0  0  0  0
    6.1883  -20.4607   23.1037 N   0  0  0  0  0  0  0  0  0  0  0  0
    5.4031  -21.1489   24.0952 C   0  0  0  0  0  0  0  0  0  0  0  0
    9.2560  -15.9365   24.5748 O   0  0  0  0  0  0  0  0  0  0  0  0
   10.5030  -15.7625   24.7709 C   0  0  0  0  0  0  0  0  0  0  0  0
    6.3020  -11.8611   26.2975 C   0  0  0  0  0  0  0  0  0  0  0  0
    7.4660  -12.7613   25.9429 C   0  0  2  0  0  0  0  0  0  0  0  0
    7.7024  -13.7120   27.0687 C   0  0  0  0  0  0  0  0  0  0  0  0
    8.0880  -12.9315   28.3116 C   0  0  2  0  0  0  0  0  0  0  0  0
    8.7593  -14.7657   26.7490 N   0  0  0  0  0  0  0  0  0  0  0  0
    8.3544  -15.4735   25.5569 C   0  0  0  0  0  0  0  0  0  0  0  0
    8.9075  -15.7417   27.8458 O   0  0  0  0  0  0  0  0  0  0  0  0
    8.2259  -16.9431   27.8114 O   0  0  0  0  0  0  0  0  0  0  0  0
  2  1  1  0
  2  3  2  0
  4  2  1  0
  5  4  1  0
  6  5  1  0
  7  6  1  0
  8  7  1  0
  8  9  1  6
 10  8  1  0
 10 12  1  0
 11 10  2  0
 13 12  1  0
 13 14  1  1
 15 14  1  0
 16 15  1  0
 17 16  1  0
 18 17  1  0
 19 26  1  0
 19 13  1  0
 20 19  2  0
 21 22  1  0
 23 22  1  0
 23 25  1  0
 23 24  1  1
 25 26  1  6
 25 27  1  0
 27 28  1  0
 29 27  2  0
M  END
$$$$
