GPG.pdb
     RDKit          3D

 16 16  0  0  1  0  0  0  0  0999 V2000
    8.8637  -16.6894   16.5067 N   0  0  0  0  0  0  0  0  0  0  0  0
    8.1208  -15.9164   17.4211 C   0  0  0  0  0  0  0  0  0  0  0  0
    8.7185  -15.5480   18.6985 C   0  0  0  0  0  0  0  0  0  0  0  0
    9.4739  -16.4614   19.2202 O   0  0  0  0  0  0  0  0  0  0  0  0
    8.6029  -14.3639   19.4441 N   0  0  0  0  0  0  0  0  0  0  0  0
    8.6161  -13.0245   18.8403 C   0  0  0  0  0  0  0  0  0  0  0  0
    7.4736  -12.3257   19.6024 C   0  0  0  0  0  0  0  0  0  0  0  0
    7.0960  -13.3001   20.7271 C   0  0  0  0  0  0  0  0  0  0  0  0
    8.4642  -14.0178   20.8085 C   0  0  1  0  0  0  0  0  0  0  0  0
    8.5558  -14.9494   21.8731 C   0  0  0  0  0  0  0  0  0  0  0  0
    7.6307  -15.4078   22.5364 O   0  0  0  0  0  0  0  0  0  0  0  0
    9.8769  -15.4187   22.2267 N   0  0  0  0  0  0  0  0  0  0  0  0
   10.0880  -16.3530   23.3024 C   0  0  0  0  0  0  0  0  0  0  0  0
   11.5507  -16.6296   23.4681 C   0  0  0  0  0  0  0  0  0  0  0  0
   12.3003  -15.7189   24.1902 O   0  0  0  0  0  0  0  0  0  0  0  0
   12.0425  -17.6471   22.9642 O   0  0  0  0  0  0  0  0  0  0  0  0
  1  2  1  0
  3  4  2  0
  3  2  1  0
  5  3  1  0
  6  5  1  0
  7  8  1  0
  7  6  1  0
  8  9  1  0
  9  5  1  0
  9 10  1  1
 11 10  2  0
 12 10  1  0
 13 12  1  0
 14 15  1  0
 14 13  1  0
 16 14  2  0
M  END
$$$$
