GPG.pdb
     RDKit          3D

 16 16  0  0  1  0  0  0  0  0999 V2000
    7.3355  -14.1675   21.6330 N   0  0  0  0  0  0  0  0  0  0  0  0
    6.8111  -14.3617   22.9264 C   0  0  0  0  0  0  0  0  0  0  0  0
    7.6309  -14.0381   24.0873 C   0  0  0  0  0  0  0  0  0  0  0  0
    8.7354  -14.7094   24.1676 O   0  0  0  0  0  0  0  0  0  0  0  0
    7.4094  -13.1169   25.1236 N   0  0  0  0  0  0  0  0  0  0  0  0
    6.6828  -11.8532   24.9394 C   0  0  0  0  0  0  0  0  0  0  0  0
    5.7880  -11.8205   26.1935 C   0  0  0  0  0  0  0  0  0  0  0  0
    6.2918  -12.9776   27.0678 C   0  0  0  0  0  0  0  0  0  0  0  0
    7.7296  -13.0192   26.4978 C   0  0  1  0  0  0  0  0  0  0  0  0
    8.5848  -13.9237   27.1760 C   0  0  0  0  0  0  0  0  0  0  0  0
    9.0805  -13.7794   28.2893 O   0  0  0  0  0  0  0  0  0  0  0  0
    8.9177  -15.1540   26.4935 N   0  0  0  0  0  0  0  0  0  0  0  0
    9.6843  -16.1930   27.1319 C   0  0  0  0  0  0  0  0  0  0  0  0
    9.8065  -17.3782   26.2242 C   0  0  0  0  0  0  0  0  0  0  0  0
    9.8405  -17.1445   24.8615 O   0  0  0  0  0  0  0  0  0  0  0  0
    9.8728  -18.5154   26.7074 O   0  0  0  0  0  0  0  0  0  0  0  0
  1  2  1  0
  3  4  2  0
  3  2  1  0
  5  3  1  0
  6  5  1  0
  7  8  1  0
  7  6  1  0
  8  9  1  0
  9  5  1  0
  9 10  1  1
 11 10  2  0
 12 10  1  0
 13 12  1  0
 14 15  1  0
 14 13  1  0
 16 14  2  0
M  END
$$$$
