GPG.pdb
     RDKit          3D

 16 16  0  0  1  0  0  0  0  0999 V2000
    8.6235  -17.5206   17.2394 N   0  0  0  0  0  0  0  0  0  0  0  0
    7.9309  -16.6792   18.1326 C   0  0  0  0  0  0  0  0  0  0  0  0
    8.6718  -15.9692   19.1678 C   0  0  0  0  0  0  0  0  0  0  0  0
    9.6200  -16.6592   19.7172 O   0  0  0  0  0  0  0  0  0  0  0  0
    8.5174  -14.6619   19.6564 N   0  0  0  0  0  0  0  0  0  0  0  0
    8.3939  -13.4839   18.7870 C   0  0  0  0  0  0  0  0  0  0  0  0
    7.2542  -12.7061   19.4729 C   0  0  0  0  0  0  0  0  0  0  0  0
    7.0214  -13.4382   20.8022 C   0  0  0  0  0  0  0  0  0  0  0  0
    8.4410  -14.0411   20.9249 C   0  0  1  0  0  0  0  0  0  0  0  0
    8.6684  -14.7169   22.1502 C   0  0  0  0  0  0  0  0  0  0  0  0
    7.8271  -15.2452   22.8707 O   0  0  0  0  0  0  0  0  0  0  0  0
   10.0354  -14.8000   22.6135 N   0  0  0  0  0  0  0  0  0  0  0  0
   10.3756  -15.4211   23.8678 C   0  0  0  0  0  0  0  0  0  0  0  0
   11.2370  -16.6238   23.6331 C   0  0  0  0  0  0  0  0  0  0  0  0
   10.8327  -17.8236   24.1897 O   0  0  0  0  0  0  0  0  0  0  0  0
   12.2694  -16.5156   22.9597 O   0  0  0  0  0  0  0  0  0  0  0  0
  1  2  1  0
  3  4  2  0
  3  2  1  0
  5  3  1  0
  6  5  1  0
  7  8  1  0
  7  6  1  0
  8  9  1  0
  9  5  1  0
  9 10  1  1
 11 10  2  0
 12 10  1  0
 13 12  1  0
 14 15  1  0
 14 13  1  0
 16 14  2  0
M  END
$$$$
