GPG.pdb
     RDKit          3D

 16 16  0  0  1  0  0  0  0  0999 V2000
    5.4681  -18.9721   22.9972 N   0  0  0  0  0  0  0  0  0  0  0  0
    6.0594  -17.7005   23.1355 C   0  0  0  0  0  0  0  0  0  0  0  0
    7.1760  -17.3327   22.2740 C   0  0  0  0  0  0  0  0  0  0  0  0
    8.0197  -18.2897   22.0518 O   0  0  0  0  0  0  0  0  0  0  0  0
    7.4749  -16.1099   21.6518 N   0  0  0  0  0  0  0  0  0  0  0  0
    6.4508  -15.1340   21.2550 C   0  0  0  0  0  0  0  0  0  0  0  0
    7.0880  -13.8075   21.7121 C   0  0  0  0  0  0  0  0  0  0  0  0
    8.5235  -14.1768   22.1122 C   0  0  0  0  0  0  0  0  0  0  0  0
    8.6398  -15.4347   21.2189 C   0  0  1  0  0  0  0  0  0  0  0  0
    9.9339  -16.0135   21.2168 C   0  0  0  0  0  0  0  0  0  0  0  0
   10.5708  -16.3975   20.2407 O   0  0  0  0  0  0  0  0  0  0  0  0
   10.5858  -16.1752   22.4972 N   0  0  0  0  0  0  0  0  0  0  0  0
   11.8264  -16.8946   22.6320 C   0  0  0  0  0  0  0  0  0  0  0  0
   12.3131  -16.8265   24.0470 C   0  0  0  0  0  0  0  0  0  0  0  0
   11.5603  -17.4616   25.0179 O   0  0  0  0  0  0  0  0  0  0  0  0
   13.3570  -16.2152   24.3068 O   0  0  0  0  0  0  0  0  0  0  0  0
  1  2  1  0
  3  4  2  0
  3  2  1  0
  5  3  1  0
  6  5  1  0
  7  8  1  0
  7  6  1  0
  8  9  1  0
  9  5  1  0
  9 10  1  1
 11 10  2  0
 12 10  1  0
 13 12  1  0
 14 15  1  0
 14 13  1  0
 16 14  2  0
M  END
$$$$
