GPG.pdb
     RDKit          3D

 16 16  0  0  1  0  0  0  0  0999 V2000
    7.6410  -15.3398   22.2754 N   0  0  0  0  0  0  0  0  0  0  0  0
    7.0656  -14.8793   23.4763 C   0  0  0  0  0  0  0  0  0  0  0  0
    7.8778  -14.1098   24.4105 C   0  0  0  0  0  0  0  0  0  0  0  0
    9.1386  -14.4055   24.3943 O   0  0  0  0  0  0  0  0  0  0  0  0
    7.5067  -13.1044   25.3176 N   0  0  0  0  0  0  0  0  0  0  0  0
    6.5433  -12.0424   24.9967 C   0  0  0  0  0  0  0  0  0  0  0  0
    5.6906  -11.9947   26.2794 C   0  0  0  0  0  0  0  0  0  0  0  0
    6.4319  -12.8934   27.2794 C   0  0  0  0  0  0  0  0  0  0  0  0
    7.8356  -12.7458   26.6456 C   0  0  1  0  0  0  0  0  0  0  0  0
    8.8673  -13.3617   27.3979 C   0  0  0  0  0  0  0  0  0  0  0  0
    9.0460  -13.2848   28.6095 O   0  0  0  0  0  0  0  0  0  0  0  0
    9.8197  -14.1713   26.6713 N   0  0  0  0  0  0  0  0  0  0  0  0
   10.8779  -14.8832   27.3408 C   0  0  0  0  0  0  0  0  0  0  0  0
   10.3525  -16.1549   27.9326 C   0  0  0  0  0  0  0  0  0  0  0  0
   10.4096  -16.2968   29.3072 O   0  0  0  0  0  0  0  0  0  0  0  0
    9.8894  -17.0302   27.1908 O   0  0  0  0  0  0  0  0  0  0  0  0
  1  2  1  0
  3  4  2  0
  3  2  1  0
  5  3  1  0
  6  5  1  0
  7  8  1  0
  7  6  1  0
  8  9  1  0
  9  5  1  0
  9 10  1  1
 11 10  2  0
 12 10  1  0
 13 12  1  0
 14 15  1  0
 14 13  1  0
 16 14  2  0
M  END
$$$$
