EGD.pdb
     RDKit          3D

 22 21  0  0  1  0  0  0  0  0999 V2000
    8.0009  -12.6610   17.9281 N   0  0  0  0  0  0  0  0  0  0  0  0
    7.2913  -13.9065   17.9154 C   0  0  1  0  0  0  0  0  0  0  0  0
    7.7301  -14.8753   16.8818 C   0  0  0  0  0  0  0  0  0  0  0  0
    9.1746  -15.0277   16.6292 C   0  0  0  0  0  0  0  0  0  0  0  0
    9.5938  -15.9542   15.5888 C   0  0  0  0  0  0  0  0  0  0  0  0
    9.0523  -17.0744   15.4604 O   0  0  0  0  0  0  0  0  0  0  0  0
    7.2260  -14.5416   19.2758 C   0  0  0  0  0  0  0  0  0  0  0  0
    6.5405  -15.5896   19.4075 O   0  0  0  0  0  0  0  0  0  0  0  0
   10.6174  -15.6294   14.6941 O   0  0  0  0  0  0  0  0  0  0  0  0
    7.9205  -13.9620   20.3636 N   0  0  0  0  0  0  0  0  0  0  0  0
    7.9416  -14.7534   21.5995 C   0  0  0  0  0  0  0  0  0  0  0  0
    9.2098  -15.5299   21.6085 C   0  0  0  0  0  0  0  0  0  0  0  0
    9.5079  -16.3151   20.6470 O   0  0  0  0  0  0  0  0  0  0  0  0
   10.1280  -15.4215   22.6865 N   0  0  0  0  0  0  0  0  0  0  0  0
   11.3269  -16.2692   22.6606 C   0  0  1  0  0  0  0  0  0  0  0  0
   12.4773  -15.5590   23.3195 C   0  0  0  0  0  0  0  0  0  0  0  0
   13.7139  -16.3300   23.3382 C   0  0  0  0  0  0  0  0  0  0  0  0
   14.1756  -16.8667   24.3458 O   0  0  0  0  0  0  0  0  0  0  0  0
   10.9333  -17.4532   23.5034 C   0  0  0  0  0  0  0  0  0  0  0  0
    9.9036  -17.4422   24.2412 O   0  0  0  0  0  0  0  0  0  0  0  0
   14.4297  -16.4732   22.1282 O   0  0  0  0  0  0  0  0  0  0  0  0
   11.7048  -18.5747   23.4749 O   0  0  0  0  0  0  0  0  0  0  0  0
  2  1  1  1
  2  7  1  0
  3  4  1  0
  3  2  1  0
  5  4  1  0
  5  6  2  0
  7  8  2  0
  9  5  1  0
 10 11  1  0
 10  7  1  0
 11 12  1  0
 12 13  2  0
 12 14  1  0
 14 15  1  0
 15 16  1  1
 15 19  1  0
 16 17  1  0
 17 21  1  0
 17 18  2  0
 19 22  1  0
 20 19  2  0
M  END
$$$$
