EGD.pdb
     RDKit          3D

 22 21  0  0  1  0  0  0  0  0999 V2000
    9.4017  -17.5984   18.0564 N   0  0  0  0  0  0  0  0  0  0  0  0
    8.1233  -17.0707   17.6793 C   0  0  1  0  0  0  0  0  0  0  0  0
    7.0557  -18.0800   17.4770 C   0  0  0  0  0  0  0  0  0  0  0  0
    6.5489  -18.8123   18.6520 C   0  0  0  0  0  0  0  0  0  0  0  0
    5.5356  -19.8339   18.4375 C   0  0  0  0  0  0  0  0  0  0  0  0
    5.6759  -20.7130   17.5587 O   0  0  0  0  0  0  0  0  0  0  0  0
    7.6711  -15.9626   18.5881 C   0  0  0  0  0  0  0  0  0  0  0  0
    6.6255  -15.3329   18.2787 O   0  0  0  0  0  0  0  0  0  0  0  0
    4.3670  -19.8723   19.2033 O   0  0  0  0  0  0  0  0  0  0  0  0
    8.4138  -15.6512   19.7513 N   0  0  0  0  0  0  0  0  0  0  0  0
    7.7958  -14.6776   20.6592 C   0  0  0  0  0  0  0  0  0  0  0  0
    8.7303  -14.4766   21.7984 C   0  0  0  0  0  0  0  0  0  0  0  0
    8.4835  -13.6160   22.7085 O   0  0  0  0  0  0  0  0  0  0  0  0
    9.9253  -15.2360   21.9088 N   0  0  0  0  0  0  0  0  0  0  0  0
   10.3307  -15.6960   23.2433 C   0  0  1  0  0  0  0  0  0  0  0  0
    9.5845  -16.9499   23.6073 C   0  0  0  0  0  0  0  0  0  0  0  0
   10.0297  -17.5608   24.8534 C   0  0  0  0  0  0  0  0  0  0  0  0
   10.9182  -17.0969   25.5688 O   0  0  0  0  0  0  0  0  0  0  0  0
   11.7894  -16.0259   23.0685 C   0  0  0  0  0  0  0  0  0  0  0  0
   12.5008  -16.4599   24.0225 O   0  0  0  0  0  0  0  0  0  0  0  0
    9.4060  -18.7585   25.2699 O   0  0  0  0  0  0  0  0  0  0  0  0
   12.3673  -15.8549   21.8476 O   0  0  0  0  0  0  0  0  0  0  0  0
  2  1  1  1
  2  7  1  0
  3  4  1  0
  3  2  1  0
  5  4  1  0
  5  6  2  0
  7  8  2  0
  9  5  1  0
 10 11  1  0
 10  7  1  0
 11 12  1  0
 12 13  2  0
 12 14  1  0
 14 15  1  0
 15 16  1  6
 15 19  1  0
 16 17  1  0
 17 21  1  0
 17 18  2  0
 19 22  1  0
 20 19  2  0
M  END
$$$$
