EGD.pdb
     RDKit          3D

 22 21  0  0  1  0  0  0  0  0999 V2000
    9.0742  -12.5481   19.1289 N   0  0  0  0  0  0  0  0  0  0  0  0
    7.9149  -13.3892   19.0679 C   0  0  1  0  0  0  0  0  0  0  0  0
    7.9456  -14.4354   18.0173 C   0  0  0  0  0  0  0  0  0  0  0  0
    9.0875  -15.3676   17.9867 C   0  0  0  0  0  0  0  0  0  0  0  0
    9.1053  -16.3950   16.9568 C   0  0  0  0  0  0  0  0  0  0  0  0
    8.7191  -17.5605   17.1958 O   0  0  0  0  0  0  0  0  0  0  0  0
    7.5532  -13.9630   20.4089 C   0  0  0  0  0  0  0  0  0  0  0  0
    6.5078  -14.6598   20.4920 O   0  0  0  0  0  0  0  0  0  0  0  0
    9.5551  -16.1204   15.6622 O   0  0  0  0  0  0  0  0  0  0  0  0
    8.3761  -13.7142   21.5325 N   0  0  0  0  0  0  0  0  0  0  0  0
    7.9414  -14.3347   22.7895 C   0  0  0  0  0  0  0  0  0  0  0  0
    8.7500  -15.5682   22.9793 C   0  0  0  0  0  0  0  0  0  0  0  0
    8.2431  -16.7239   22.7864 O   0  0  0  0  0  0  0  0  0  0  0  0
   10.1105  -15.4983   23.3805 N   0  0  0  0  0  0  0  0  0  0  0  0
   10.8253  -16.7583   23.6216 C   0  0  1  0  0  0  0  0  0  0  0  0
   12.3106  -16.5256   23.5871 C   0  0  0  0  0  0  0  0  0  0  0  0
   12.8092  -16.0867   22.2898 C   0  0  0  0  0  0  0  0  0  0  0  0
   12.3117  -16.4176   21.2131 O   0  0  0  0  0  0  0  0  0  0  0  0
   10.4183  -17.1255   25.0240 C   0  0  0  0  0  0  0  0  0  0  0  0
   10.3136  -18.3301   25.4014 O   0  0  0  0  0  0  0  0  0  0  0  0
   13.9318  -15.2288   22.2615 O   0  0  0  0  0  0  0  0  0  0  0  0
   10.1537  -16.1347   25.9197 O   0  0  0  0  0  0  0  0  0  0  0  0
  2  1  1  1
  2  7  1  0
  3  4  1  0
  3  2  1  0
  5  4  1  0
  5  6  2  0
  7  8  2  0
  9  5  1  0
 10 11  1  0
 10  7  1  0
 11 12  1  0
 12 13  2  0
 12 14  1  0
 14 15  1  0
 15 16  1  1
 15 19  1  0
 16 17  1  0
 17 21  1  0
 17 18  2  0
 19 22  1  0
 20 19  2  0
M  END
$$$$
