EGD.pdb
     RDKit          3D

 22 21  0  0  1  0  0  0  0  0999 V2000
    6.6249  -17.4196   18.6287 N   0  0  0  0  0  0  0  0  0  0  0  0
    8.0152  -17.7506   18.5163 C   0  0  1  0  0  0  0  0  0  0  0  0
    8.5206  -17.9016   17.1302 C   0  0  0  0  0  0  0  0  0  0  0  0
    8.1705  -16.8688   16.1380 C   0  0  0  0  0  0  0  0  0  0  0  0
    8.5180  -17.1108   14.7461 C   0  0  0  0  0  0  0  0  0  0  0  0
    7.7287  -17.6965   13.9723 O   0  0  0  0  0  0  0  0  0  0  0  0
    8.8887  -16.8345   19.3263 C   0  0  0  0  0  0  0  0  0  0  0  0
    9.8689  -16.2909   18.7525 O   0  0  0  0  0  0  0  0  0  0  0  0
    9.7460  -16.6997   14.2203 O   0  0  0  0  0  0  0  0  0  0  0  0
    8.6015  -16.6044   20.6924 N   0  0  0  0  0  0  0  0  0  0  0  0
    9.4758  -15.6420   21.3731 C   0  0  0  0  0  0  0  0  0  0  0  0
   10.6314  -16.4012   21.9205 C   0  0  0  0  0  0  0  0  0  0  0  0
   10.7652  -17.6505   21.6941 O   0  0  0  0  0  0  0  0  0  0  0  0
   11.6214  -15.7598   22.7113 N   0  0  0  0  0  0  0  0  0  0  0  0
   12.7624  -16.5608   23.1731 C   0  0  1  0  0  0  0  0  0  0  0  0
   13.9909  -15.6997   23.2774 C   0  0  0  0  0  0  0  0  0  0  0  0
   15.1691  -16.4085   23.7607 C   0  0  0  0  0  0  0  0  0  0  0  0
   15.4469  -17.5693   23.4576 O   0  0  0  0  0  0  0  0  0  0  0  0
   12.3469  -16.9927   24.5544 C   0  0  0  0  0  0  0  0  0  0  0  0
   12.8824  -17.9794   25.1412 O   0  0  0  0  0  0  0  0  0  0  0  0
   16.0493  -15.7254   24.6300 O   0  0  0  0  0  0  0  0  0  0  0  0
   11.3650  -16.3037   25.1985 O   0  0  0  0  0  0  0  0  0  0  0  0
  2  1  1  6
  2  7  1  0
  3  4  1  0
  3  2  1  0
  5  4  1  0
  5  6  2  0
  7  8  2  0
  9  5  1  0
 10 11  1  0
 10  7  1  0
 11 12  1  0
 12 13  2  0
 12 14  1  0
 14 15  1  0
 15 16  1  1
 15 19  1  0
 16 17  1  0
 17 21  1  0
 17 18  2  0
 19 22  1  0
 20 19  2  0
M  END
$$$$
