EGD.pdb
     RDKit          3D

 22 21  0  0  1  0  0  0  0  0999 V2000
    6.4263  -14.8973   19.7233 N   0  0  0  0  0  0  0  0  0  0  0  0
    7.8022  -14.5052   19.8149 C   0  0  1  0  0  0  0  0  0  0  0  0
    8.1651  -13.2843   19.0553 C   0  0  0  0  0  0  0  0  0  0  0  0
    7.6500  -13.1315   17.6823 C   0  0  0  0  0  0  0  0  0  0  0  0
    8.2832  -13.9027   16.6236 C   0  0  0  0  0  0  0  0  0  0  0  0
    9.3279  -14.5579   16.8335 O   0  0  0  0  0  0  0  0  0  0  0  0
    8.2835  -14.4349   21.2368 C   0  0  0  0  0  0  0  0  0  0  0  0
    9.5196  -14.3043   21.4374 O   0  0  0  0  0  0  0  0  0  0  0  0
    7.7501  -13.9406   15.3320 O   0  0  0  0  0  0  0  0  0  0  0  0
    7.3582  -14.5164   22.3040 N   0  0  0  0  0  0  0  0  0  0  0  0
    7.9214  -14.3473   23.6488 C   0  0  0  0  0  0  0  0  0  0  0  0
    8.3750  -15.6856   24.1122 C   0  0  0  0  0  0  0  0  0  0  0  0
    7.5614  -16.6664   24.1888 O   0  0  0  0  0  0  0  0  0  0  0  0
    9.7268  -15.9134   24.4832 N   0  0  0  0  0  0  0  0  0  0  0  0
   10.1062  -17.2646   24.9153 C   0  0  1  0  0  0  0  0  0  0  0  0
   11.1910  -17.8069   24.0261 C   0  0  0  0  0  0  0  0  0  0  0  0
   12.3135  -16.8957   23.8418 C   0  0  0  0  0  0  0  0  0  0  0  0
   12.4407  -15.8291   24.4441 O   0  0  0  0  0  0  0  0  0  0  0  0
   10.6672  -17.0432   26.2950 C   0  0  0  0  0  0  0  0  0  0  0  0
   11.0017  -18.0050   27.0485 O   0  0  0  0  0  0  0  0  0  0  0  0
   13.3196  -17.2545   22.9166 O   0  0  0  0  0  0  0  0  0  0  0  0
   10.8229  -15.7702   26.7523 O   0  0  0  0  0  0  0  0  0  0  0  0
  2  1  1  1
  2  7  1  0
  3  4  1  0
  3  2  1  0
  5  4  1  0
  5  6  2  0
  7  8  2  0
  9  5  1  0
 10 11  1  0
 10  7  1  0
 11 12  1  0
 12 13  2  0
 12 14  1  0
 14 15  1  0
 15 16  1  6
 15 19  1  0
 16 17  1  0
 17 21  1  0
 17 18  2  0
 19 22  1  0
 20 19  2  0
M  END
$$$$
