EGD.pdb
     RDKit          3D

 22 21  0  0  1  0  0  0  0  0999 V2000
    9.6095  -19.9195   18.7289 N   0  0  0  0  0  0  0  0  0  0  0  0
   10.7232  -19.0995   18.3513 C   0  0  1  0  0  0  0  0  0  0  0  0
   10.6778  -18.5672   16.9678 C   0  0  0  0  0  0  0  0  0  0  0  0
    9.5933  -19.0177   16.0765 C   0  0  0  0  0  0  0  0  0  0  0  0
    9.4913  -18.4078   14.7596 C   0  0  0  0  0  0  0  0  0  0  0  0
    8.6678  -17.4950   14.5289 O   0  0  0  0  0  0  0  0  0  0  0  0
   10.9995  -18.0134   19.3525 C   0  0  0  0  0  0  0  0  0  0  0  0
   11.9300  -17.2024   19.1042 O   0  0  0  0  0  0  0  0  0  0  0  0
   10.3079  -18.8183   13.7020 O   0  0  0  0  0  0  0  0  0  0  0  0
   10.2259  -17.9237   20.5337 N   0  0  0  0  0  0  0  0  0  0  0  0
   10.5766  -16.8255   21.4421 C   0  0  0  0  0  0  0  0  0  0  0  0
   11.2716  -17.4225   22.6135 C   0  0  0  0  0  0  0  0  0  0  0  0
   10.9476  -18.5762   23.0536 O   0  0  0  0  0  0  0  0  0  0  0  0
   12.3168  -16.7276   23.2780 N   0  0  0  0  0  0  0  0  0  0  0  0
   12.9023  -17.3423   24.4763 C   0  0  1  0  0  0  0  0  0  0  0  0
   14.2491  -16.7377   24.7628 C   0  0  0  0  0  0  0  0  0  0  0  0
   15.1911  -16.8440   23.6558 C   0  0  0  0  0  0  0  0  0  0  0  0
   15.6702  -17.9067   23.2589 O   0  0  0  0  0  0  0  0  0  0  0  0
   11.9452  -16.9499   25.5706 C   0  0  0  0  0  0  0  0  0  0  0  0
   12.0768  -17.3632   26.7607 O   0  0  0  0  0  0  0  0  0  0  0  0
   15.5807  -15.6574   22.9946 O   0  0  0  0  0  0  0  0  0  0  0  0
   10.9034  -16.1238   25.2771 O   0  0  0  0  0  0  0  0  0  0  0  0
  2  1  1  1
  2  7  1  0
  3  4  1  0
  3  2  1  0
  5  4  1  0
  5  6  2  0
  7  8  2  0
  9  5  1  0
 10 11  1  0
 10  7  1  0
 11 12  1  0
 12 13  2  0
 12 14  1  0
 14 15  1  0
 15 16  1  1
 15 19  1  0
 16 17  1  0
 17 21  1  0
 17 18  2  0
 19 22  1  0
 20 19  2  0
M  END
$$$$
