EGD.pdb
     RDKit          3D

 22 21  0  0  1  0  0  0  0  0999 V2000
    8.8074  -12.4624   18.5711 N   0  0  0  0  0  0  0  0  0  0  0  0
    7.7629  -13.4250   18.3774 C   0  0  1  0  0  0  0  0  0  0  0  0
    7.4386  -13.7323   16.9632 C   0  0  0  0  0  0  0  0  0  0  0  0
    8.4578  -14.4075   16.1390 C   0  0  0  0  0  0  0  0  0  0  0  0
    8.0733  -14.8632   14.8120 C   0  0  0  0  0  0  0  0  0  0  0  0
    7.8308  -16.0691   14.5847 O   0  0  0  0  0  0  0  0  0  0  0  0
    7.9831  -14.6772   19.1785 C   0  0  0  0  0  0  0  0  0  0  0  0
    7.0903  -15.5644   19.1474 O   0  0  0  0  0  0  0  0  0  0  0  0
    7.9611  -13.9725   13.7406 O   0  0  0  0  0  0  0  0  0  0  0  0
    9.1654  -14.8338   19.9397 N   0  0  0  0  0  0  0  0  0  0  0  0
    9.2700  -16.0831   20.7029 C   0  0  0  0  0  0  0  0  0  0  0  0
   10.5701  -16.0558   21.4243 C   0  0  0  0  0  0  0  0  0  0  0  0
   11.3610  -15.0593   21.3182 O   0  0  0  0  0  0  0  0  0  0  0  0
   10.9713  -17.1369   22.2532 N   0  0  0  0  0  0  0  0  0  0  0  0
   12.2245  -17.0016   23.0068 C   0  0  1  0  0  0  0  0  0  0  0  0
   12.2278  -17.9435   24.1791 C   0  0  0  0  0  0  0  0  0  0  0  0
   11.3732  -17.5180   25.2804 C   0  0  0  0  0  0  0  0  0  0  0  0
   10.7916  -16.4333   25.3213 O   0  0  0  0  0  0  0  0  0  0  0  0
   13.2725  -17.4426   22.0197 C   0  0  0  0  0  0  0  0  0  0  0  0
   14.5116  -17.3399   22.2619 O   0  0  0  0  0  0  0  0  0  0  0  0
   11.1984  -18.4013   26.3695 O   0  0  0  0  0  0  0  0  0  0  0  0
   12.8813  -17.9702   20.8270 O   0  0  0  0  0  0  0  0  0  0  0  0
  2  1  1  6
  2  7  1  0
  3  4  1  0
  3  2  1  0
  5  4  1  0
  5  6  2  0
  7  8  2  0
  9  5  1  0
 10 11  1  0
 10  7  1  0
 11 12  1  0
 12 13  2  0
 12 14  1  0
 14 15  1  0
 15 16  1  1
 15 19  1  0
 16 17  1  0
 17 21  1  0
 17 18  2  0
 19 22  1  0
 20 19  2  0
M  END
$$$$
