PQM.pdb
     RDKit          3D

 25 25  0  0  1  0  0  0  0  0999 V2000
    8.3475  -15.5398   18.8750 N   0  0  0  0  0  0  0  0  0  0  0  0
    8.4209  -14.8735   17.6016 C   0  0  0  0  0  0  0  0  0  0  0  0
    7.7667  -13.5235   17.7622 C   0  0  0  0  0  0  0  0  0  0  0  0
    7.1846  -13.5925   19.1695 C   0  0  0  0  0  0  0  0  0  0  0  0
    8.2067  -14.4925   19.8341 C   0  0  1  0  0  0  0  0  0  0  0  0
    7.7932  -14.9554   21.1701 C   0  0  0  0  0  0  0  0  0  0  0  0
    7.6058  -14.0886   22.0534 O   0  0  0  0  0  0  0  0  0  0  0  0
    6.7931  -21.1401   22.8392 N   0  0  0  0  0  0  0  0  0  0  0  0
    6.4438  -20.4070   24.0007 C   0  0  0  0  0  0  0  0  0  0  0  0
    6.0869  -21.0364   25.0196 O   0  0  0  0  0  0  0  0  0  0  0  0
    6.5024  -18.9523   23.9961 C   0  0  0  0  0  0  0  0  0  0  0  0
    6.9293  -18.3116   22.7259 C   0  0  0  0  0  0  0  0  0  0  0  0
    7.0720  -16.8373   22.7213 C   0  0  2  0  0  0  0  0  0  0  0  0
    7.6101  -16.3320   21.4592 N   0  0  0  0  0  0  0  0  0  0  0  0
    7.8144  -16.2858   23.8761 C   0  0  0  0  0  0  0  0  0  0  0  0
    9.0621  -16.2997   23.8496 O   0  0  0  0  0  0  0  0  0  0  0  0
    6.5881   -9.7098   26.4097 C   0  0  0  0  0  0  0  0  0  0  0  0
    6.2844  -11.2323   27.3514 S   0  0  0  0  0  0  0  0  0  0  0  0
    7.5227  -12.5029   26.9311 C   0  0  0  0  0  0  0  0  0  0  0  0
    6.8570  -13.6453   26.2108 C   0  0  0  0  0  0  0  0  0  0  0  0
    7.8600  -14.6855   25.7727 C   0  0  2  0  0  0  0  0  0  0  0  0
    7.1624  -15.7419   25.0135 N   0  0  0  0  0  0  0  0  0  0  0  0
    8.4787  -15.3462   26.9353 C   0  0  0  0  0  0  0  0  0  0  0  0
    8.1136  -16.4733   27.4004 O   0  0  0  0  0  0  0  0  0  0  0  0
    9.5479  -14.7037   27.5902 O   0  0  0  0  0  0  0  0  0  0  0  0
  1  5  1  0
  2  1  1  0
  2  3  1  0
  3  4  1  0
  5  6  1  1
  5  4  1  0
  6  7  2  0
  8  9  1  0
  9 11  1  0
 10  9  2  0
 11 12  1  0
 13 12  1  6
 14  6  1  0
 14 13  1  0
 15 16  2  0
 15 13  1  0
 18 17  1  0
 19 20  1  0
 19 18  1  0
 21 20  1  1
 21 22  1  0
 22 15  1  0
 23 25  1  0
 23 21  1  0
 24 23  2  0
M  END
$$$$
