PQM.pdb
     RDKit          3D

 25 25  0  0  1  0  0  0  0  0999 V2000
    6.2647  -20.4663   20.6435 N   0  0  0  0  0  0  0  0  0  0  0  0
    5.2470  -21.4061   21.0329 C   0  0  0  0  0  0  0  0  0  0  0  0
    4.5705  -20.8524   22.2625 C   0  0  0  0  0  0  0  0  0  0  0  0
    5.4217  -19.6333   22.5996 C   0  0  0  0  0  0  0  0  0  0  0  0
    5.8551  -19.2210   21.2074 C   0  0  1  0  0  0  0  0  0  0  0  0
    6.9060  -18.1886   21.2069 C   0  0  0  0  0  0  0  0  0  0  0  0
    8.0975  -18.5720   21.2089 O   0  0  0  0  0  0  0  0  0  0  0  0
    8.0298  -12.3718   18.3386 N   0  0  0  0  0  0  0  0  0  0  0  0
    8.9251  -13.0458   19.2062 C   0  0  0  0  0  0  0  0  0  0  0  0
   10.1137  -13.1861   18.8465 O   0  0  0  0  0  0  0  0  0  0  0  0
    8.4598  -13.5600   20.4862 C   0  0  0  0  0  0  0  0  0  0  0  0
    7.4473  -14.6455   20.4343 C   0  0  0  0  0  0  0  0  0  0  0  0
    7.5761  -15.7444   21.4191 C   0  0  2  0  0  0  0  0  0  0  0  0
    6.5928  -16.8051   21.2045 N   0  0  0  0  0  0  0  0  0  0  0  0
    7.5889  -15.3076   22.8326 C   0  0  0  0  0  0  0  0  0  0  0  0
    6.5402  -15.4089   23.5017 O   0  0  0  0  0  0  0  0  0  0  0  0
    7.3159  -10.9107   28.0451 C   0  0  0  0  0  0  0  0  0  0  0  0
    6.5281  -11.7377   26.6336 S   0  0  0  0  0  0  0  0  0  0  0  0
    7.0179  -13.4926   26.5648 C   0  0  0  0  0  0  0  0  0  0  0  0
    7.2076  -13.9134   25.1315 C   0  0  0  0  0  0  0  0  0  0  0  0
    8.6344  -14.3245   24.8576 C   0  0  2  0  0  0  0  0  0  0  0  0
    8.7479  -14.7774   23.4572 N   0  0  0  0  0  0  0  0  0  0  0  0
    9.0259  -15.4685   25.6994 C   0  0  0  0  0  0  0  0  0  0  0  0
    8.9867  -15.4720   26.9716 O   0  0  0  0  0  0  0  0  0  0  0  0
    9.4768  -16.6475   25.0735 O   0  0  0  0  0  0  0  0  0  0  0  0
  1  5  1  0
  2  1  1  0
  2  3  1  0
  3  4  1  0
  5  6  1  1
  5  4  1  0
  6  7  2  0
  8  9  1  0
  9 11  1  0
 10  9  2  0
 11 12  1  0
 13 12  1  6
 14  6  1  0
 14 13  1  0
 15 16  2  0
 15 13  1  0
 18 17  1  0
 19 20  1  0
 19 18  1  0
 21 20  1  1
 21 22  1  0
 22 15  1  0
 23 25  1  0
 23 21  1  0
 24 23  2  0
M  END
$$$$
