PQM.pdb
     RDKit          3D

 25 25  0  0  1  0  0  0  0  0999 V2000
    9.2045  -14.6619   18.6160 N   0  0  0  0  0  0  0  0  0  0  0  0
    8.8867  -13.8346   17.4823 C   0  0  0  0  0  0  0  0  0  0  0  0
    7.6969  -12.9884   17.8626 C   0  0  0  0  0  0  0  0  0  0  0  0
    7.2976  -13.5534   19.2212 C   0  0  0  0  0  0  0  0  0  0  0  0
    8.6568  -13.9758   19.7411 C   0  0  1  0  0  0  0  0  0  0  0  0
    8.5836  -14.7938   20.9641 C   0  0  0  0  0  0  0  0  0  0  0  0
    7.9004  -14.3551   21.9168 O   0  0  0  0  0  0  0  0  0  0  0  0
   11.3101  -19.7789   20.1753 N   0  0  0  0  0  0  0  0  0  0  0  0
    9.9471  -20.0725   20.4298 C   0  0  0  0  0  0  0  0  0  0  0  0
    9.4165  -21.0239   19.8173 O   0  0  0  0  0  0  0  0  0  0  0  0
    9.1906  -19.2766   21.3856 C   0  0  0  0  0  0  0  0  0  0  0  0
    9.9259  -18.1747   22.0573 C   0  0  0  0  0  0  0  0  0  0  0  0
    9.2050  -16.8958   22.2540 C   0  0  2  0  0  0  0  0  0  0  0  0
    9.2585  -16.0368   21.0719 N   0  0  0  0  0  0  0  0  0  0  0  0
    9.5916  -16.1507   23.4722 C   0  0  0  0  0  0  0  0  0  0  0  0
   10.7344  -15.6525   23.5338 O   0  0  0  0  0  0  0  0  0  0  0  0
    5.9909  -11.8091   26.1747 C   0  0  0  0  0  0  0  0  0  0  0  0
    7.5676  -11.6168   27.0544 S   0  0  0  0  0  0  0  0  0  0  0  0
    8.4584  -13.2061   27.1267 C   0  0  0  0  0  0  0  0  0  0  0  0
    8.1385  -14.0261   25.9050 C   0  0  0  0  0  0  0  0  0  0  0  0
    9.1572  -15.1191   25.6875 C   0  0  2  0  0  0  0  0  0  0  0  0
    8.7133  -15.9808   24.5741 N   0  0  0  0  0  0  0  0  0  0  0  0
    9.2612  -15.9885   26.8724 C   0  0  0  0  0  0  0  0  0  0  0  0
    8.7904  -17.1690   26.9418 O   0  0  0  0  0  0  0  0  0  0  0  0
    9.9225  -15.4991   28.0162 O   0  0  0  0  0  0  0  0  0  0  0  0
  1  5  1  0
  2  1  1  0
  2  3  1  0
  3  4  1  0
  5  6  1  1
  5  4  1  0
  6  7  2  0
  8  9  1  0
  9 11  1  0
 10  9  2  0
 11 12  1  0
 13 12  1  6
 14  6  1  0
 14 13  1  0
 15 16  2  0
 15 13  1  0
 18 17  1  0
 19 20  1  0
 19 18  1  0
 21 20  1  1
 21 22  1  0
 22 15  1  0
 23 25  1  0
 23 21  1  0
 24 23  2  0
M  END
$$$$
