PQM.pdb
     RDKit          3D

 25 25  0  0  1  0  0  0  0  0999 V2000
    9.1722  -14.5368   18.4314 N   0  0  0  0  0  0  0  0  0  0  0  0
    8.9586  -13.7154   17.2693 C   0  0  0  0  0  0  0  0  0  0  0  0
    7.7663  -12.8356   17.5536 C   0  0  0  0  0  0  0  0  0  0  0  0
    7.2554  -13.3744   18.8851 C   0  0  0  0  0  0  0  0  0  0  0  0
    8.5622  -13.8240   19.5068 C   0  0  1  0  0  0  0  0  0  0  0  0
    8.3797  -14.6254   20.7293 C   0  0  0  0  0  0  0  0  0  0  0  0
    7.6951  -14.1297   21.6525 O   0  0  0  0  0  0  0  0  0  0  0  0
   10.7392  -20.5833   21.6000 N   0  0  0  0  0  0  0  0  0  0  0  0
   11.2530  -19.4686   20.8914 C   0  0  0  0  0  0  0  0  0  0  0  0
   12.2465  -19.6368   20.1522 O   0  0  0  0  0  0  0  0  0  0  0  0
   10.6296  -18.1602   21.0292 C   0  0  0  0  0  0  0  0  0  0  0  0
    9.4179  -18.0917   21.8854 C   0  0  0  0  0  0  0  0  0  0  0  0
    8.7673  -16.7701   22.0401 C   0  0  2  0  0  0  0  0  0  0  0  0
    8.9540  -15.9149   20.8689 N   0  0  0  0  0  0  0  0  0  0  0  0
    9.1174  -16.0521   23.2855 C   0  0  0  0  0  0  0  0  0  0  0  0
   10.1349  -15.3293   23.2958 O   0  0  0  0  0  0  0  0  0  0  0  0
    5.5083  -11.6811   26.9972 C   0  0  0  0  0  0  0  0  0  0  0  0
    7.3014  -11.9640   27.0349 S   0  0  0  0  0  0  0  0  0  0  0  0
    7.6654  -13.7329   27.2857 C   0  0  0  0  0  0  0  0  0  0  0  0
    7.4486  -14.4856   25.9997 C   0  0  0  0  0  0  0  0  0  0  0  0
    8.6783  -15.2639   25.5976 C   0  0  2  0  0  0  0  0  0  0  0  0
    8.3411  -16.1540   24.4693 N   0  0  0  0  0  0  0  0  0  0  0  0
    9.1349  -16.1351   26.6946 C   0  0  0  0  0  0  0  0  0  0  0  0
    9.0372  -17.4041   26.6934 O   0  0  0  0  0  0  0  0  0  0  0  0
    9.7220  -15.5432   27.8304 O   0  0  0  0  0  0  0  0  0  0  0  0
  1  5  1  0
  2  1  1  0
  2  3  1  0
  3  4  1  0
  5  6  1  1
  5  4  1  0
  6  7  2  0
  8  9  1  0
  9 11  1  0
 10  9  2  0
 11 12  1  0
 13 12  1  6
 14  6  1  0
 14 13  1  0
 15 16  2  0
 15 13  1  0
 18 17  1  0
 19 20  1  0
 19 18  1  0
 21 20  1  1
 21 22  1  0
 22 15  1  0
 23 25  1  0
 23 21  1  0
 24 23  2  0
M  END
$$$$
