PQM.pdb
     RDKit          3D

 25 25  0  0  1  0  0  0  0  0999 V2000
    9.1900  -14.6395   18.5815 N   0  0  0  0  0  0  0  0  0  0  0  0
    8.9216  -13.8287   17.4233 C   0  0  0  0  0  0  0  0  0  0  0  0
    7.7354  -12.9558   17.7506 C   0  0  0  0  0  0  0  0  0  0  0  0
    7.2848  -13.4881   19.1063 C   0  0  0  0  0  0  0  0  0  0  0  0
    8.6199  -13.9230   19.6761 C   0  0  1  0  0  0  0  0  0  0  0  0
    8.4948  -14.7162   20.9111 C   0  0  0  0  0  0  0  0  0  0  0  0
    7.7856  -14.2510   21.8315 O   0  0  0  0  0  0  0  0  0  0  0  0
   10.9747  -20.6738   22.0031 N   0  0  0  0  0  0  0  0  0  0  0  0
   10.8207  -20.0635   23.2729 C   0  0  0  0  0  0  0  0  0  0  0  0
   11.3568  -20.6035   24.2643 O   0  0  0  0  0  0  0  0  0  0  0  0
   10.0521  -18.8345   23.4085 C   0  0  0  0  0  0  0  0  0  0  0  0
    9.9383  -17.9882   22.1932 C   0  0  0  0  0  0  0  0  0  0  0  0
    9.1325  -16.7498   22.2990 C   0  0  2  0  0  0  0  0  0  0  0  0
    9.1499  -15.9650   21.0654 N   0  0  0  0  0  0  0  0  0  0  0  0
    9.4495  -15.9059   23.4721 C   0  0  0  0  0  0  0  0  0  0  0  0
   10.4584  -15.1724   23.4288 O   0  0  0  0  0  0  0  0  0  0  0  0
    6.1900  -11.2554   26.1341 C   0  0  0  0  0  0  0  0  0  0  0  0
    6.6387  -12.2009   27.6179 S   0  0  0  0  0  0  0  0  0  0  0  0
    8.0839  -13.2625   27.2880 C   0  0  0  0  0  0  0  0  0  0  0  0
    7.8434  -14.0802   26.0468 C   0  0  0  0  0  0  0  0  0  0  0  0
    9.0221  -14.9692   25.7304 C   0  0  2  0  0  0  0  0  0  0  0  0
    8.6507  -15.8986   24.6453 N   0  0  0  0  0  0  0  0  0  0  0  0
    9.3812  -15.8038   26.8903 C   0  0  0  0  0  0  0  0  0  0  0  0
    9.1757  -17.0577   26.9652 O   0  0  0  0  0  0  0  0  0  0  0  0
    9.9946  -15.1921   28.0014 O   0  0  0  0  0  0  0  0  0  0  0  0
  1  5  1  0
  2  1  1  0
  2  3  1  0
  3  4  1  0
  5  6  1  1
  5  4  1  0
  6  7  2  0
  8  9  1  0
  9 11  1  0
 10  9  2  0
 11 12  1  0
 13 12  1  6
 14  6  1  0
 14 13  1  0
 15 16  2  0
 15 13  1  0
 18 17  1  0
 19 20  1  0
 19 18  1  0
 21 20  1  1
 21 22  1  0
 22 15  1  0
 23 25  1  0
 23 21  1  0
 24 23  2  0
M  END
$$$$
