PQM.pdb
     RDKit          3D

 25 25  0  0  1  0  0  0  0  0999 V2000
    7.1437  -14.7097   20.0771 N   0  0  0  0  0  0  0  0  0  0  0  0
    6.6257  -13.7691   19.1191 C   0  0  0  0  0  0  0  0  0  0  0  0
    7.7733  -13.3516   18.2332 C   0  0  0  0  0  0  0  0  0  0  0  0
    8.9760  -14.0071   18.9025 C   0  0  0  0  0  0  0  0  0  0  0  0
    8.3180  -15.2481   19.4708 C   0  0  1  0  0  0  0  0  0  0  0  0
    9.1848  -15.9924   20.4007 C   0  0  0  0  0  0  0  0  0  0  0  0
    9.0137  -17.2290   20.4913 O   0  0  0  0  0  0  0  0  0  0  0  0
   15.2030  -15.0619   21.8901 N   0  0  0  0  0  0  0  0  0  0  0  0
   14.7496  -15.8036   23.0094 C   0  0  0  0  0  0  0  0  0  0  0  0
   15.5749  -16.1123   23.8956 O   0  0  0  0  0  0  0  0  0  0  0  0
   13.3507  -16.1930   23.1144 C   0  0  0  0  0  0  0  0  0  0  0  0
   12.4344  -15.6536   22.0774 C   0  0  0  0  0  0  0  0  0  0  0  0
   11.0016  -16.0149   22.1803 C   0  0  2  0  0  0  0  0  0  0  0  0
   10.1823  -15.3432   21.1726 N   0  0  0  0  0  0  0  0  0  0  0  0
   10.4208  -15.8560   23.5317 C   0  0  0  0  0  0  0  0  0  0  0  0
   10.9758  -16.4248   24.4942 O   0  0  0  0  0  0  0  0  0  0  0  0
    6.2701  -11.1940   28.0253 C   0  0  0  0  0  0  0  0  0  0  0  0
    5.9668  -12.3531   26.6610 S   0  0  0  0  0  0  0  0  0  0  0  0
    7.2351  -13.6628   26.6396 C   0  0  0  0  0  0  0  0  0  0  0  0
    7.7716  -13.8305   25.2427 C   0  0  0  0  0  0  0  0  0  0  0  0
    8.8104  -14.9241   25.1743 C   0  0  2  0  0  0  0  0  0  0  0  0
    9.2565  -15.0821   23.7760 N   0  0  0  0  0  0  0  0  0  0  0  0
    8.2405  -16.2208   25.5798 C   0  0  0  0  0  0  0  0  0  0  0  0
    7.7838  -17.0903   24.7703 O   0  0  0  0  0  0  0  0  0  0  0  0
    8.1886  -16.5391   26.9513 O   0  0  0  0  0  0  0  0  0  0  0  0
  1  5  1  0
  2  1  1  0
  2  3  1  0
  3  4  1  0
  5  6  1  1
  5  4  1  0
  6  7  2  0
  8  9  1  0
  9 11  1  0
 10  9  2  0
 11 12  1  0
 13 12  1  1
 14  6  1  0
 14 13  1  0
 15 16  2  0
 15 13  1  0
 18 17  1  0
 19 20  1  0
 19 18  1  0
 21 20  1  6
 21 22  1  0
 22 15  1  0
 23 25  1  0
 23 21  1  0
 24 23  2  0
M  END
$$$$
