PQM.pdb
     RDKit          3D

 25 25  0  0  1  0  0  0  0  0999 V2000
    9.0090  -14.6447   18.6635 N   0  0  0  0  0  0  0  0  0  0  0  0
    9.0621  -13.7848   17.5109 C   0  0  0  0  0  0  0  0  0  0  0  0
    8.0383  -12.6955   17.7152 C   0  0  0  0  0  0  0  0  0  0  0  0
    7.3155  -13.1408   18.9815 C   0  0  0  0  0  0  0  0  0  0  0  0
    8.4508  -13.8400   19.7014 C   0  0  1  0  0  0  0  0  0  0  0  0
    8.0089  -14.6048   20.8803 C   0  0  0  0  0  0  0  0  0  0  0  0
    7.3010  -14.0124   21.7257 O   0  0  0  0  0  0  0  0  0  0  0  0
    7.8243  -21.1990   21.7335 N   0  0  0  0  0  0  0  0  0  0  0  0
    7.8455  -20.3129   20.6276 C   0  0  0  0  0  0  0  0  0  0  0  0
    8.1321  -20.7708   19.5006 O   0  0  0  0  0  0  0  0  0  0  0  0
    7.5389  -18.9017   20.8115 C   0  0  0  0  0  0  0  0  0  0  0  0
    8.1818  -18.2307   21.9701 C   0  0  0  0  0  0  0  0  0  0  0  0
    7.8903  -16.7925   22.1718 C   0  0  2  0  0  0  0  0  0  0  0  0
    8.3658  -15.9654   21.0638 N   0  0  0  0  0  0  0  0  0  0  0  0
    8.3379  -16.2490   23.4730 C   0  0  0  0  0  0  0  0  0  0  0  0
    9.5111  -15.8366   23.5797 O   0  0  0  0  0  0  0  0  0  0  0  0
    7.8024  -10.9581   26.0820 C   0  0  0  0  0  0  0  0  0  0  0  0
    6.6386  -11.8779   27.1291 S   0  0  0  0  0  0  0  0  0  0  0  0
    7.2014  -13.5975   27.3544 C   0  0  0  0  0  0  0  0  0  0  0  0
    6.8226  -14.4199   26.1513 C   0  0  0  0  0  0  0  0  0  0  0  0
    7.9281  -15.3700   25.7576 C   0  0  2  0  0  0  0  0  0  0  0  0
    7.4846  -16.1787   24.6050 N   0  0  0  0  0  0  0  0  0  0  0  0
    8.2217  -16.3194   26.8455 C   0  0  0  0  0  0  0  0  0  0  0  0
    7.8579  -17.5391   26.8533 O   0  0  0  0  0  0  0  0  0  0  0  0
    8.9534  -15.8665   27.9611 O   0  0  0  0  0  0  0  0  0  0  0  0
  1  5  1  0
  2  1  1  0
  2  3  1  0
  3  4  1  0
  5  6  1  1
  5  4  1  0
  6  7  2  0
  8  9  1  0
  9 11  1  0
 10  9  2  0
 11 12  1  0
 13 12  1  6
 14  6  1  0
 14 13  1  0
 15 16  2  0
 15 13  1  0
 18 17  1  0
 19 20  1  0
 19 18  1  0
 21 20  1  1
 21 22  1  0
 22 15  1  0
 23 25  1  0
 23 21  1  0
 24 23  2  0
M  END
$$$$
