PQM.pdb
     RDKit          3D

 25 25  0  0  1  0  0  0  0  0999 V2000
    9.0777  -14.6073   18.7043 N   0  0  0  0  0  0  0  0  0  0  0  0
    8.8217  -13.7532   17.5748 C   0  0  0  0  0  0  0  0  0  0  0  0
    7.7536  -12.7706   17.9871 C   0  0  0  0  0  0  0  0  0  0  0  0
    7.3366  -13.2784   19.3628 C   0  0  0  0  0  0  0  0  0  0  0  0
    8.6533  -13.8562   19.8410 C   0  0  1  0  0  0  0  0  0  0  0  0
    8.5253  -14.6544   21.0726 C   0  0  0  0  0  0  0  0  0  0  0  0
    7.9690  -14.1185   22.0575 O   0  0  0  0  0  0  0  0  0  0  0  0
   10.6198  -20.2868   20.6620 N   0  0  0  0  0  0  0  0  0  0  0  0
    9.2500  -20.0459   20.3901 C   0  0  0  0  0  0  0  0  0  0  0  0
    8.6666  -20.7805   19.5642 O   0  0  0  0  0  0  0  0  0  0  0  0
    8.5471  -18.9633   21.0633 C   0  0  0  0  0  0  0  0  0  0  0  0
    9.3113  -18.2215   22.0986 C   0  0  0  0  0  0  0  0  0  0  0  0
    8.9237  -16.8149   22.3538 C   0  0  2  0  0  0  0  0  0  0  0  0
    9.0112  -15.9847   21.1534 N   0  0  0  0  0  0  0  0  0  0  0  0
    9.6216  -16.1798   23.4932 C   0  0  0  0  0  0  0  0  0  0  0  0
   10.7577  -15.6975   23.3079 O   0  0  0  0  0  0  0  0  0  0  0  0
    5.5647  -12.2133   26.9701 C   0  0  0  0  0  0  0  0  0  0  0  0
    7.3694  -12.3220   26.8030 S   0  0  0  0  0  0  0  0  0  0  0  0
    7.8629  -13.9914   26.2607 C   0  0  0  0  0  0  0  0  0  0  0  0
    9.3534  -14.0401   26.0525 C   0  0  0  0  0  0  0  0  0  0  0  0
    9.8408  -15.4558   25.8571 C   0  0  2  0  0  0  0  0  0  0  0  0
    9.0491  -16.0980   24.7894 N   0  0  0  0  0  0  0  0  0  0  0  0
    9.6308  -16.2599   27.0737 C   0  0  0  0  0  0  0  0  0  0  0  0
    8.8383  -17.2528   27.1516 O   0  0  0  0  0  0  0  0  0  0  0  0
   10.3460  -15.9237   28.2401 O   0  0  0  0  0  0  0  0  0  0  0  0
  1  5  1  0
  2  1  1  0
  2  3  1  0
  3  4  1  0
  5  6  1  1
  5  4  1  0
  6  7  2  0
  8  9  1  0
  9 11  1  0
 10  9  2  0
 11 12  1  0
 13 12  1  6
 14  6  1  0
 14 13  1  0
 15 16  2  0
 15 13  1  0
 18 17  1  0
 19 20  1  0
 19 18  1  0
 21 20  1  1
 21 22  1  0
 22 15  1  0
 23 25  1  0
 23 21  1  0
 24 23  2  0
M  END
$$$$
