PQM.pdb
     RDKit          3D

 25 25  0  0  1  0  0  0  0  0999 V2000
    8.5191  -15.3454   18.7863 N   0  0  0  0  0  0  0  0  0  0  0  0
    8.8145  -14.6625   17.5546 C   0  0  0  0  0  0  0  0  0  0  0  0
    8.3396  -13.2384   17.7049 C   0  0  0  0  0  0  0  0  0  0  0  0
    7.6115  -13.2620   19.0441 C   0  0  0  0  0  0  0  0  0  0  0  0
    8.4257  -14.3146   19.7688 C   0  0  1  0  0  0  0  0  0  0  0  0
    7.8168  -14.7498   21.0376 C   0  0  0  0  0  0  0  0  0  0  0  0
    7.7336  -13.9089   21.9610 O   0  0  0  0  0  0  0  0  0  0  0  0
    4.8481  -20.4089   22.5944 N   0  0  0  0  0  0  0  0  0  0  0  0
    6.2145  -20.3319   22.2263 C   0  0  0  0  0  0  0  0  0  0  0  0
    6.8648  -21.3936   22.1183 O   0  0  0  0  0  0  0  0  0  0  0  0
    6.8375  -19.0389   21.9821 C   0  0  0  0  0  0  0  0  0  0  0  0
    6.0061  -17.8406   22.2631 C   0  0  0  0  0  0  0  0  0  0  0  0
    6.7112  -16.5517   22.4515 C   0  0  2  0  0  0  0  0  0  0  0  0
    7.3375  -16.0724   21.2202 N   0  0  0  0  0  0  0  0  0  0  0  0
    7.6684  -16.5312   23.5794 C   0  0  0  0  0  0  0  0  0  0  0  0
    8.8800  -16.7142   23.3418 O   0  0  0  0  0  0  0  0  0  0  0  0
    6.7965  -10.5631   26.9868 C   0  0  0  0  0  0  0  0  0  0  0  0
    6.5681  -12.1355   27.8654 S   0  0  0  0  0  0  0  0  0  0  0  0
    7.7500  -13.3849   27.2598 C   0  0  0  0  0  0  0  0  0  0  0  0
    7.0615  -14.3121   26.2936 C   0  0  0  0  0  0  0  0  0  0  0  0
    8.0193  -15.3304   25.7230 C   0  0  2  0  0  0  0  0  0  0  0  0
    7.2621  -16.3120   24.9215 N   0  0  0  0  0  0  0  0  0  0  0  0
    8.6835  -16.0910   26.7959 C   0  0  0  0  0  0  0  0  0  0  0  0
    8.4800  -17.3244   27.0351 O   0  0  0  0  0  0  0  0  0  0  0  0
    9.6100  -15.4267   27.6238 O   0  0  0  0  0  0  0  0  0  0  0  0
  1  5  1  0
  2  1  1  0
  2  3  1  0
  3  4  1  0
  5  6  1  1
  5  4  1  0
  6  7  2  0
  8  9  1  0
  9 11  1  0
 10  9  2  0
 11 12  1  0
 13 12  1  6
 14  6  1  0
 14 13  1  0
 15 16  2  0
 15 13  1  0
 18 17  1  0
 19 20  1  0
 19 18  1  0
 21 20  1  1
 21 22  1  0
 22 15  1  0
 23 25  1  0
 23 21  1  0
 24 23  2  0
M  END
$$$$
