GRE.pdb
     RDKit          3D

 25 24  0  0  1  0  0  0  0  0999 V2000
    4.8448  -20.9025   21.9693 N   0  0  0  0  0  0  0  0  0  0  0  0
    5.0017  -19.6020   22.5876 C   0  0  0  0  0  0  0  0  0  0  0  0
    6.2200  -18.9383   22.0339 C   0  0  0  0  0  0  0  0  0  0  0  0
    6.3573  -18.6876   20.8039 O   0  0  0  0  0  0  0  0  0  0  0  0
    7.0959  -12.0060   19.1552 N   0  0  0  0  0  0  0  0  0  0  0  0
    8.0740  -12.9826   18.7957 C   0  0  0  0  0  0  0  0  0  0  0  0
    8.5559  -12.9320   17.5817 N   0  0  0  0  0  0  0  0  0  0  0  0
    8.5006  -13.9658   19.7281 N   0  0  0  0  0  0  0  0  0  0  0  0
    7.8030  -14.1072   20.9745 C   0  0  0  0  0  0  0  0  0  0  0  0
    8.4636  -15.1109   21.8912 C   0  0  0  0  0  0  0  0  0  0  0  0
    7.4992  -16.2020   22.3074 C   0  0  0  0  0  0  0  0  0  0  0  0
    8.2238  -17.5072   22.5678 C   0  0  2  0  0  0  0  0  0  0  0  0
    7.2867  -18.5590   22.8905 N   0  0  0  0  0  0  0  0  0  0  0  0
    9.2083  -17.2494   23.6551 C   0  0  0  0  0  0  0  0  0  0  0  0
    8.8168  -16.5743   24.6362 O   0  0  0  0  0  0  0  0  0  0  0  0
    9.2500  -13.5904   17.2148 N   0  0  0  0  0  0  0  0  0  0  0  0
   10.5391  -17.7174   23.6408 C   0  0  2  0  0  0  0  0  0  0  0  0
   11.6860  -17.0287   24.1782 C   0  0  0  0  0  0  0  0  0  0  0  0
   12.2986  -16.0262   23.2426 C   0  0  0  0  0  0  0  0  0  0  0  0
   12.2532  -16.4621   21.8100 C   0  0  0  0  0  0  0  0  0  0  0  0
   12.9331  -15.5180   20.8997 O   0  0  0  0  0  0  0  0  0  0  0  0
   12.3475  -14.6872   20.1638 C   0  0  0  0  0  0  0  0  0  0  0  0
   11.4464  -16.4337   25.5231 O   0  0  0  0  0  0  0  0  0  0  0  0
   12.2046  -16.8230   26.6150 O   0  0  0  0  0  0  0  0  0  0  0  0
   14.3346  -15.5538   20.8554 O   0  0  0  0  0  0  0  0  0  0  0  0
  1  2  1  0
  3  2  1  0
  3 13  1  0
  4  3  2  0
  5  6  1  0
  6  7  2  0
  6  8  1  0
  8  9  1  0
  9 10  1  0
 10 11  1  0
 12 11  1  1
 12 13  1  0
 12 14  1  0
 14 15  2  0
 14 16  1  0
 16 17  1  0
 17 22  1  0
 18 19  1  0
 17 18  1  6
 20 19  1  0
 21 20  2  0
 22 25  2  0
 22 23  1  0
 24 20  1  0
M  END
$$$$
