GRE.pdb
     RDKit          3D

 25 24  0  0  1  0  0  0  0  0999 V2000
    6.0187  -20.3500   24.7038 N   0  0  0  0  0  0  0  0  0  0  0  0
    6.0657  -18.9537   25.0863 C   0  0  0  0  0  0  0  0  0  0  0  0
    6.8509  -18.1918   24.0693 C   0  0  0  0  0  0  0  0  0  0  0  0
    7.5365  -18.7609   23.1744 O   0  0  0  0  0  0  0  0  0  0  0  0
    8.2605  -14.2418   17.3066 N   0  0  0  0  0  0  0  0  0  0  0  0
    8.4734  -13.4127   18.4497 C   0  0  0  0  0  0  0  0  0  0  0  0
    8.3446  -12.1220   18.2885 N   0  0  0  0  0  0  0  0  0  0  0  0
    8.8108  -13.9779   19.7086 N   0  0  0  0  0  0  0  0  0  0  0  0
    7.7676  -14.4564   20.5705 C   0  0  0  0  0  0  0  0  0  0  0  0
    7.8092  -13.8094   21.9357 C   0  0  0  0  0  0  0  0  0  0  0  0
    7.0313  -14.6142   22.9559 C   0  0  0  0  0  0  0  0  0  0  0  0
    7.6540  -15.9788   23.1714 C   0  0  2  0  0  0  0  0  0  0  0  0
    6.8523  -16.7721   24.0751 N   0  0  0  0  0  0  0  0  0  0  0  0
    9.0397  -15.7518   23.6675 C   0  0  0  0  0  0  0  0  0  0  0  0
    9.1661  -15.2048   24.7883 O   0  0  0  0  0  0  0  0  0  0  0  0
    8.4682  -11.4372   19.0406 N   0  0  0  0  0  0  0  0  0  0  0  0
   10.2017  -16.1140   22.9541 C   0  0  1  0  0  0  0  0  0  0  0  0
   11.5597  -15.9719   23.4167 C   0  0  0  0  0  0  0  0  0  0  0  0
   11.8409  -16.6543   24.7248 C   0  0  0  0  0  0  0  0  0  0  0  0
   11.4855  -18.1096   24.7114 C   0  0  0  0  0  0  0  0  0  0  0  0
   11.8280  -18.7971   25.9732 O   0  0  0  0  0  0  0  0  0  0  0  0
   12.8698  -18.5887   26.6409 C   0  0  0  0  0  0  0  0  0  0  0  0
   12.5785  -16.3332   22.3911 O   0  0  0  0  0  0  0  0  0  0  0  0
   13.9229  -16.0800   22.6086 O   0  0  0  0  0  0  0  0  0  0  0  0
   10.9225  -19.7517   26.4592 O   0  0  0  0  0  0  0  0  0  0  0  0
  1  2  1  0
  3  2  1  0
  3 13  1  0
  4  3  2  0
  5  6  1  0
  6  7  2  0
  6  8  1  0
  8  9  1  0
  9 10  1  0
 10 11  1  0
 12 11  1  1
 12 13  1  0
 12 14  1  0
 14 15  2  0
 14 16  1  0
 16 17  1  0
 17 22  1  0
 18 19  1  0
 17 18  1  6
 20 19  1  0
 21 20  2  0
 22 25  2  0
 22 23  1  0
 24 20  1  0
M  END
$$$$
