GRE.pdb
     RDKit          3D

 25 24  0  0  1  0  0  0  0  0999 V2000
    5.9524  -20.1920   23.9616 N   0  0  0  0  0  0  0  0  0  0  0  0
    5.7930  -18.7527   23.9936 C   0  0  0  0  0  0  0  0  0  0  0  0
    7.0054  -18.1106   23.4027 C   0  0  0  0  0  0  0  0  0  0  0  0
    8.0256  -18.7715   23.0607 O   0  0  0  0  0  0  0  0  0  0  0  0
    8.3478  -13.8600   18.2039 N   0  0  0  0  0  0  0  0  0  0  0  0
    8.4083  -12.8237   19.1848 C   0  0  0  0  0  0  0  0  0  0  0  0
    9.4304  -12.0102   19.1373 N   0  0  0  0  0  0  0  0  0  0  0  0
    7.3925  -12.6900   20.1688 N   0  0  0  0  0  0  0  0  0  0  0  0
    6.3237  -13.6468   20.2154 C   0  0  0  0  0  0  0  0  0  0  0  0
    6.7467  -14.9489   20.8554 C   0  0  0  0  0  0  0  0  0  0  0  0
    7.7471  -14.7212   21.9695 C   0  0  0  0  0  0  0  0  0  0  0  0
    8.1782  -16.0307   22.5985 C   0  0  2  0  0  0  0  0  0  0  0  0
    7.0518  -16.7060   23.2016 N   0  0  0  0  0  0  0  0  0  0  0  0
    9.2571  -15.7110   23.5740 C   0  0  0  0  0  0  0  0  0  0  0  0
    8.9582  -14.9664   24.5372 O   0  0  0  0  0  0  0  0  0  0  0  0
    9.5580  -11.2157   19.7718 N   0  0  0  0  0  0  0  0  0  0  0  0
   10.5788  -16.1941   23.4740 C   0  0  1  0  0  0  0  0  0  0  0  0
   11.4600  -16.4878   24.5766 C   0  0  0  0  0  0  0  0  0  0  0  0
   10.8728  -17.4082   25.6080 C   0  0  0  0  0  0  0  0  0  0  0  0
   11.8178  -17.7022   26.7326 C   0  0  0  0  0  0  0  0  0  0  0  0
   11.2643  -18.6572   27.7144 O   0  0  0  0  0  0  0  0  0  0  0  0
   10.1774  -19.2701   27.5812 C   0  0  0  0  0  0  0  0  0  0  0  0
   12.8118  -16.9484   24.1514 O   0  0  0  0  0  0  0  0  0  0  0  0
   13.9400  -16.5940   24.8727 O   0  0  0  0  0  0  0  0  0  0  0  0
   12.0082  -18.8954   28.8794 O   0  0  0  0  0  0  0  0  0  0  0  0
  1  2  1  0
  3  2  1  0
  3 13  1  0
  4  3  2  0
  5  6  1  0
  6  7  2  0
  6  8  1  0
  8  9  1  0
  9 10  1  0
 10 11  1  0
 12 11  1  1
 12 13  1  0
 12 14  1  0
 14 15  2  0
 14 16  1  0
 16 17  1  0
 17 22  1  0
 18 19  1  0
 17 18  1  1
 20 19  1  0
 21 20  2  0
 22 25  2  0
 22 23  1  0
 24 20  1  0
M  END
$$$$
