GRE.pdb
     RDKit          3D

 25 24  0  0  1  0  0  0  0  0999 V2000
   13.1855  -16.4763   13.0469 N   0  0  0  0  0  0  0  0  0  0  0  0
   12.4030  -17.1417   14.0682 C   0  0  0  0  0  0  0  0  0  0  0  0
   12.3691  -16.2895   15.2945 C   0  0  0  0  0  0  0  0  0  0  0  0
   13.3544  -15.5914   15.6640 O   0  0  0  0  0  0  0  0  0  0  0  0
    8.6955  -11.9974   20.8014 N   0  0  0  0  0  0  0  0  0  0  0  0
    7.6721  -12.1057   19.8112 C   0  0  0  0  0  0  0  0  0  0  0  0
    7.0289  -11.0142   19.4898 N   0  0  0  0  0  0  0  0  0  0  0  0
    7.3730  -13.3549   19.2045 N   0  0  0  0  0  0  0  0  0  0  0  0
    8.1336  -14.5168   19.5674 C   0  0  0  0  0  0  0  0  0  0  0  0
    9.5355  -14.4839   19.0040 C   0  0  0  0  0  0  0  0  0  0  0  0
    9.6882  -15.4382   17.8379 C   0  0  0  0  0  0  0  0  0  0  0  0
   11.0990  -15.4110   17.2853 C   0  0  2  0  0  0  0  0  0  0  0  0
   11.2030  -16.2348   16.1024 N   0  0  0  0  0  0  0  0  0  0  0  0
   12.0052  -15.8493   18.3828 C   0  0  0  0  0  0  0  0  0  0  0  0
   11.9834  -17.0631   18.6953 O   0  0  0  0  0  0  0  0  0  0  0  0
    6.2158  -10.9928   18.8664 N   0  0  0  0  0  0  0  0  0  0  0  0
   12.8747  -14.9843   19.0800 C   0  0  2  0  0  0  0  0  0  0  0  0
   13.7974  -15.3666   20.1196 C   0  0  0  0  0  0  0  0  0  0  0  0
   14.8722  -14.3541   20.3943 C   0  0  0  0  0  0  0  0  0  0  0  0
   16.2130  -14.9778   20.6344 C   0  0  0  0  0  0  0  0  0  0  0  0
   17.2658  -13.9836   20.9270 O   0  0  0  0  0  0  0  0  0  0  0  0
   17.1177  -12.7402   20.8445 C   0  0  0  0  0  0  0  0  0  0  0  0
   13.1287  -15.7972   21.3797 O   0  0  0  0  0  0  0  0  0  0  0  0
   13.7509  -16.6822   22.2448 O   0  0  0  0  0  0  0  0  0  0  0  0
   18.5212  -14.4654   21.3257 O   0  0  0  0  0  0  0  0  0  0  0  0
  1  2  1  0
  3  2  1  0
  3 13  1  0
  4  3  2  0
  5  6  1  0
  6  7  2  0
  6  8  1  0
  8  9  1  0
  9 10  1  0
 10 11  1  0
 12 11  1  1
 12 13  1  0
 12 14  1  0
 14 15  2  0
 14 16  1  0
 16 17  1  0
 17 22  1  0
 18 19  1  0
 17 18  1  6
 20 19  1  0
 21 20  2  0
 22 25  2  0
 22 23  1  0
 24 20  1  0
M  END
$$$$
