GRE.pdb
     RDKit          3D

 25 24  0  0  1  0  0  0  0  0999 V2000
    6.0300  -20.6595   22.7621 N   0  0  0  0  0  0  0  0  0  0  0  0
    6.1688  -19.6016   23.7417 C   0  0  0  0  0  0  0  0  0  0  0  0
    6.9850  -18.4951   23.1579 C   0  0  0  0  0  0  0  0  0  0  0  0
    8.0485  -18.7045   22.5099 O   0  0  0  0  0  0  0  0  0  0  0  0
    9.7473  -14.2349   19.4454 N   0  0  0  0  0  0  0  0  0  0  0  0
    8.9838  -13.0281   19.4593 C   0  0  0  0  0  0  0  0  0  0  0  0
    9.6315  -11.9051   19.2921 N   0  0  0  0  0  0  0  0  0  0  0  0
    7.5760  -13.0573   19.6472 N   0  0  0  0  0  0  0  0  0  0  0  0
    6.9998  -14.0418   20.5183 C   0  0  0  0  0  0  0  0  0  0  0  0
    7.1814  -13.6936   21.9776 C   0  0  0  0  0  0  0  0  0  0  0  0
    6.5688  -14.7444   22.8800 C   0  0  0  0  0  0  0  0  0  0  0  0
    7.3803  -16.0240   22.8648 C   0  0  2  0  0  0  0  0  0  0  0  0
    6.5836  -17.1425   23.3155 N   0  0  0  0  0  0  0  0  0  0  0  0
    8.5833  -15.7868   23.7099 C   0  0  0  0  0  0  0  0  0  0  0  0
    8.3958  -15.3194   24.8579 O   0  0  0  0  0  0  0  0  0  0  0  0
    9.1813  -10.9851   19.2612 N   0  0  0  0  0  0  0  0  0  0  0  0
    9.9043  -16.0562   23.2942 C   0  0  1  0  0  0  0  0  0  0  0  0
   11.0373  -16.2753   24.1583 C   0  0  0  0  0  0  0  0  0  0  0  0
   10.8113  -17.3113   25.2220 C   0  0  0  0  0  0  0  0  0  0  0  0
   11.9892  -17.4787   26.1324 C   0  0  0  0  0  0  0  0  0  0  0  0
   11.7379  -18.4371   27.2280 O   0  0  0  0  0  0  0  0  0  0  0  0
   11.2909  -19.5993   27.0727 C   0  0  0  0  0  0  0  0  0  0  0  0
   12.3074  -16.5285   23.4214 O   0  0  0  0  0  0  0  0  0  0  0  0
   13.5318  -16.2352   23.9990 O   0  0  0  0  0  0  0  0  0  0  0  0
   12.0196  -18.0166   28.5362 O   0  0  0  0  0  0  0  0  0  0  0  0
  1  2  1  0
  3  2  1  0
  3 13  1  0
  4  3  2  0
  5  6  1  0
  6  7  2  0
  6  8  1  0
  8  9  1  0
  9 10  1  0
 10 11  1  0
 12 11  1  1
 12 13  1  0
 12 14  1  0
 14 15  2  0
 14 16  1  0
 16 17  1  0
 17 22  1  0
 18 19  1  0
 17 18  1  6
 20 19  1  0
 21 20  2  0
 22 25  2  0
 22 23  1  0
 24 20  1  0
M  END
$$$$
