GRE.pdb
     RDKit          3D

 25 24  0  0  1  0  0  0  0  0999 V2000
    6.2067  -20.3549   25.3104 N   0  0  0  0  0  0  0  0  0  0  0  0
    5.9511  -18.9295   25.2818 C   0  0  0  0  0  0  0  0  0  0  0  0
    6.8592  -18.2872   24.2847 C   0  0  0  0  0  0  0  0  0  0  0  0
    7.7927  -18.9161   23.7122 O   0  0  0  0  0  0  0  0  0  0  0  0
    9.3568  -12.2637   20.1964 N   0  0  0  0  0  0  0  0  0  0  0  0
    8.7511  -12.8840   19.0616 C   0  0  0  0  0  0  0  0  0  0  0  0
    9.3837  -12.7985   17.9209 N   0  0  0  0  0  0  0  0  0  0  0  0
    7.5101  -13.5654   19.1780 N   0  0  0  0  0  0  0  0  0  0  0  0
    7.3829  -14.6466   20.1134 C   0  0  0  0  0  0  0  0  0  0  0  0
    7.8109  -14.2522   21.5081 C   0  0  0  0  0  0  0  0  0  0  0  0
    6.9570  -14.9251   22.5625 C   0  0  0  0  0  0  0  0  0  0  0  0
    7.5796  -16.2262   23.0272 C   0  0  2  0  0  0  0  0  0  0  0  0
    6.6995  -16.9193   23.9402 N   0  0  0  0  0  0  0  0  0  0  0  0
    8.8974  -15.8867   23.6322 C   0  0  0  0  0  0  0  0  0  0  0  0
    8.9338  -14.9124   24.4202 O   0  0  0  0  0  0  0  0  0  0  0  0
    9.0187  -13.1654   17.0364 N   0  0  0  0  0  0  0  0  0  0  0  0
   10.0905  -16.5926   23.3701 C   0  0  1  0  0  0  0  0  0  0  0  0
   11.3939  -16.2822   23.9024 C   0  0  0  0  0  0  0  0  0  0  0  0
   11.8883  -17.2571   24.9324 C   0  0  0  0  0  0  0  0  0  0  0  0
   10.9964  -17.3387   26.1333 C   0  0  0  0  0  0  0  0  0  0  0  0
   11.4900  -18.2865   27.1531 O   0  0  0  0  0  0  0  0  0  0  0  0
   12.5052  -18.1032   27.8678 C   0  0  0  0  0  0  0  0  0  0  0  0
   12.4231  -16.0402   22.8524 O   0  0  0  0  0  0  0  0  0  0  0  0
   13.6716  -15.5417   23.1862 O   0  0  0  0  0  0  0  0  0  0  0  0
   10.7714  -19.4773   27.3350 O   0  0  0  0  0  0  0  0  0  0  0  0
  1  2  1  0
  3  2  1  0
  3 13  1  0
  4  3  2  0
  5  6  1  0
  6  7  2  0
  6  8  1  0
  8  9  1  0
  9 10  1  0
 10 11  1  0
 12 11  1  1
 12 13  1  0
 12 14  1  0
 14 15  2  0
 14 16  1  0
 16 17  1  0
 17 22  1  0
 18 19  1  0
 17 18  1  6
 20 19  1  0
 21 20  2  0
 22 25  2  0
 22 23  1  0
 24 20  1  0
M  END
$$$$
