GRE.pdb
     RDKit          3D

 25 24  0  0  1  0  0  0  0  0999 V2000
    7.8531  -22.1150   20.5822 N   0  0  0  0  0  0  0  0  0  0  0  0
    7.2215  -21.0309   21.3061 C   0  0  0  0  0  0  0  0  0  0  0  0
    8.0996  -19.8239   21.2482 C   0  0  0  0  0  0  0  0  0  0  0  0
    9.2854  -19.8667   20.8161 O   0  0  0  0  0  0  0  0  0  0  0  0
    7.6945  -13.5792   18.1663 N   0  0  0  0  0  0  0  0  0  0  0  0
    8.2628  -12.6998   19.1374 C   0  0  0  0  0  0  0  0  0  0  0  0
    9.3179  -12.0143   18.7831 N   0  0  0  0  0  0  0  0  0  0  0  0
    7.6962  -12.5808   20.4346 N   0  0  0  0  0  0  0  0  0  0  0  0
    7.1446  -13.7416   21.0738 C   0  0  0  0  0  0  0  0  0  0  0  0
    8.0820  -14.9258   21.0208 C   0  0  0  0  0  0  0  0  0  0  0  0
    7.4998  -16.1277   21.7353 C   0  0  0  0  0  0  0  0  0  0  0  0
    8.3911  -17.3437   21.5829 C   0  0  2  0  0  0  0  0  0  0  0  0
    7.6199  -18.5616   21.6863 N   0  0  0  0  0  0  0  0  0  0  0  0
    9.4545  -17.2370   22.6200 C   0  0  0  0  0  0  0  0  0  0  0  0
    9.1345  -17.5099   23.8009 O   0  0  0  0  0  0  0  0  0  0  0  0
    9.7861  -11.3327   19.3883 N   0  0  0  0  0  0  0  0  0  0  0  0
   10.7841  -16.8507   22.3489 C   0  0  2  0  0  0  0  0  0  0  0  0
   11.8834  -16.8833   23.2810 C   0  0  0  0  0  0  0  0  0  0  0  0
   13.1948  -16.4316   22.7050 C   0  0  0  0  0  0  0  0  0  0  0  0
   14.3446  -16.6343   23.6437 C   0  0  0  0  0  0  0  0  0  0  0  0
   15.6359  -16.1972   23.0746 O   0  0  0  0  0  0  0  0  0  0  0  0
   15.7842  -15.7151   21.9255 C   0  0  0  0  0  0  0  0  0  0  0  0
   11.5932  -16.1900   24.5676 O   0  0  0  0  0  0  0  0  0  0  0  0
   12.0893  -16.6809   25.7641 O   0  0  0  0  0  0  0  0  0  0  0  0
   16.7781  -16.3311   23.8775 O   0  0  0  0  0  0  0  0  0  0  0  0
  1  2  1  0
  3  2  1  0
  3 13  1  0
  4  3  2  0
  5  6  1  0
  6  7  2  0
  6  8  1  0
  8  9  1  0
  9 10  1  0
 10 11  1  0
 12 11  1  1
 12 13  1  0
 12 14  1  0
 14 15  2  0
 14 16  1  0
 16 17  1  0
 17 22  1  0
 18 19  1  0
 17 18  1  6
 20 19  1  0
 21 20  2  0
 22 25  2  0
 22 23  1  0
 24 20  1  0
M  END
$$$$
