PDM.pdb
     RDKit          3D

 24 24  0  0  1  0  0  0  0  0999 V2000
    9.3611  -14.3975   18.3412 N   0  0  0  0  0  0  0  0  0  0  0  0
    8.6094  -14.2323   17.1344 C   0  0  0  0  0  0  0  0  0  0  0  0
    7.4730  -13.2703   17.5000 C   0  0  0  0  0  0  0  0  0  0  0  0
    7.1568  -13.7609   18.9213 C   0  0  0  0  0  0  0  0  0  0  0  0
    8.5697  -13.9480   19.4436 C   0  0  1  0  0  0  0  0  0  0  0  0
    8.6349  -14.8869   20.5951 C   0  0  0  0  0  0  0  0  0  0  0  0
    7.7629  -14.8271   21.4964 O   0  0  0  0  0  0  0  0  0  0  0  0
    9.6717  -15.8685   20.7115 N   0  0  0  0  0  0  0  0  0  0  0  0
    9.8184  -16.7431   21.8362 C   0  0  1  0  0  0  0  0  0  0  0  0
   10.9387  -17.7246   21.6633 C   0  0  0  0  0  0  0  0  0  0  0  0
   10.8441  -18.4770   20.3896 C   0  0  0  0  0  0  0  0  0  0  0  0
    9.8892  -19.2655   20.1852 O   0  0  0  0  0  0  0  0  0  0  0  0
    9.8440  -16.0326   23.1318 C   0  0  0  0  0  0  0  0  0  0  0  0
   10.8696  -15.3732   23.4311 O   0  0  0  0  0  0  0  0  0  0  0  0
   11.7768  -18.3629   19.3708 O   0  0  0  0  0  0  0  0  0  0  0  0
    6.9399  -11.0501   28.0107 C   0  0  0  0  0  0  0  0  0  0  0  0
    6.8313  -12.0201   26.4918 S   0  0  0  0  0  0  0  0  0  0  0  0
    7.5621  -13.6751   26.7400 C   0  0  0  0  0  0  0  0  0  0  0  0
    7.5936  -14.4421   25.4518 C   0  0  0  0  0  0  0  0  0  0  0  0
    8.7716  -15.3332   25.3326 C   0  0  2  0  0  0  0  0  0  0  0  0
    8.7817  -16.0504   24.0583 N   0  0  0  0  0  0  0  0  0  0  0  0
    8.9922  -16.2149   26.4643 C   0  0  0  0  0  0  0  0  0  0  0  0
    8.7952  -17.4553   26.3001 O   0  0  0  0  0  0  0  0  0  0  0  0
    9.4023  -15.8097   27.7045 O   0  0  0  0  0  0  0  0  0  0  0  0
  1  5  1  0
  1  2  1  0
  2  3  1  0
  4  5  1  0
  4  3  1  0
  6  7  2  0
  5  6  1  1
  8  6  1  0
  9 13  1  0
  9  8  1  0
  9 10  1  6
 11 10  1  0
 11 12  2  0
 13 21  1  0
 14 13  2  0
 15 11  1  0
 17 16  1  0
 18 17  1  0
 20 19  1  1
 19 18  1  0
 20 22  1  0
 21 20  1  0
 22 23  2  0
 22 24  1  0
M  END
$$$$
