PDM.pdb
     RDKit          3D

 24 24  0  0  1  0  0  0  0  0999 V2000
    9.4262  -13.9907   18.5760 N   0  0  0  0  0  0  0  0  0  0  0  0
    8.8667  -14.0078   17.2587 C   0  0  0  0  0  0  0  0  0  0  0  0
    7.5128  -13.3006   17.3904 C   0  0  0  0  0  0  0  0  0  0  0  0
    7.0733  -13.8230   18.7670 C   0  0  0  0  0  0  0  0  0  0  0  0
    8.3883  -13.6995   19.5150 C   0  0  1  0  0  0  0  0  0  0  0  0
    8.4535  -14.5843   20.7086 C   0  0  0  0  0  0  0  0  0  0  0  0
    7.5381  -14.5390   21.5669 O   0  0  0  0  0  0  0  0  0  0  0  0
    9.5384  -15.4968   20.9143 N   0  0  0  0  0  0  0  0  0  0  0  0
    9.5770  -16.4639   21.9699 C   0  0  1  0  0  0  0  0  0  0  0  0
   10.7412  -17.4016   21.8528 C   0  0  0  0  0  0  0  0  0  0  0  0
   10.7363  -18.4479   22.9029 C   0  0  0  0  0  0  0  0  0  0  0  0
    9.7147  -19.1506   23.0970 O   0  0  0  0  0  0  0  0  0  0  0  0
    9.4236  -15.8703   23.3146 C   0  0  0  0  0  0  0  0  0  0  0  0
   10.3550  -15.1575   23.7626 O   0  0  0  0  0  0  0  0  0  0  0  0
   11.8276  -18.7108   23.7160 O   0  0  0  0  0  0  0  0  0  0  0  0
    6.9624  -11.4302   28.0888 C   0  0  0  0  0  0  0  0  0  0  0  0
    7.0165  -12.4042   26.5695 S   0  0  0  0  0  0  0  0  0  0  0  0
    6.6058  -14.1492   26.9173 C   0  0  0  0  0  0  0  0  0  0  0  0
    6.7431  -14.9855   25.6801 C   0  0  0  0  0  0  0  0  0  0  0  0
    8.1197  -15.4916   25.4684 C   0  0  2  0  0  0  0  0  0  0  0  0
    8.2893  -16.0570   24.1306 N   0  0  0  0  0  0  0  0  0  0  0  0
    8.6165  -16.3742   26.5081 C   0  0  0  0  0  0  0  0  0  0  0  0
    9.2424  -15.8564   27.4800 O   0  0  0  0  0  0  0  0  0  0  0  0
    8.4591  -17.7327   26.5236 O   0  0  0  0  0  0  0  0  0  0  0  0
  1  5  1  0
  1  2  1  0
  2  3  1  0
  4  5  1  0
  4  3  1  0
  6  7  2  0
  5  6  1  1
  8  6  1  0
  9 13  1  0
  9  8  1  0
  9 10  1  1
 11 10  1  0
 11 12  2  0
 13 21  1  0
 14 13  2  0
 15 11  1  0
 17 16  1  0
 18 17  1  0
 20 19  1  1
 19 18  1  0
 20 22  1  0
 21 20  1  0
 22 23  2  0
 22 24  1  0
M  END
$$$$
