PDM.pdb
     RDKit          3D

 24 24  0  0  1  0  0  0  0  0999 V2000
    9.3786  -14.3785   18.3365 N   0  0  0  0  0  0  0  0  0  0  0  0
    8.5879  -14.1446   17.1666 C   0  0  0  0  0  0  0  0  0  0  0  0
    7.5494  -13.0987   17.5888 C   0  0  0  0  0  0  0  0  0  0  0  0
    7.2607  -13.5745   19.0210 C   0  0  0  0  0  0  0  0  0  0  0  0
    8.6768  -13.8769   19.4764 C   0  0  1  0  0  0  0  0  0  0  0  0
    8.7200  -14.8275   20.6194 C   0  0  0  0  0  0  0  0  0  0  0  0
    7.8957  -14.7082   21.5589 O   0  0  0  0  0  0  0  0  0  0  0  0
    9.6821  -15.8868   20.6848 N   0  0  0  0  0  0  0  0  0  0  0  0
    9.8361  -16.7548   21.8136 C   0  0  1  0  0  0  0  0  0  0  0  0
   10.9565  -17.7361   21.6400 C   0  0  0  0  0  0  0  0  0  0  0  0
   10.8841  -18.4589   20.3478 C   0  0  0  0  0  0  0  0  0  0  0  0
   11.8471  -18.4238   19.5437 O   0  0  0  0  0  0  0  0  0  0  0  0
    9.8682  -16.0369   23.1050 C   0  0  0  0  0  0  0  0  0  0  0  0
   10.8121  -15.2376   23.3206 O   0  0  0  0  0  0  0  0  0  0  0  0
    9.7803  -19.1990   19.9541 O   0  0  0  0  0  0  0  0  0  0  0  0
    6.2917  -11.4453   28.0690 C   0  0  0  0  0  0  0  0  0  0  0  0
    6.2549  -12.5177   26.6171 S   0  0  0  0  0  0  0  0  0  0  0  0
    7.6223  -13.7262   26.6836 C   0  0  0  0  0  0  0  0  0  0  0  0
    7.7055  -14.5073   25.4062 C   0  0  0  0  0  0  0  0  0  0  0  0
    8.8602  -15.4350   25.3643 C   0  0  2  0  0  0  0  0  0  0  0  0
    8.8989  -16.1959   24.1161 N   0  0  0  0  0  0  0  0  0  0  0  0
    9.0101  -16.2828   26.5329 C   0  0  0  0  0  0  0  0  0  0  0  0
    9.1343  -15.7234   27.6624 O   0  0  0  0  0  0  0  0  0  0  0  0
    9.0253  -17.6502   26.5117 O   0  0  0  0  0  0  0  0  0  0  0  0
  1  5  1  0
  1  2  1  0
  2  3  1  0
  4  5  1  0
  4  3  1  0
  6  7  2  0
  5  6  1  1
  8  6  1  0
  9 13  1  0
  9  8  1  0
  9 10  1  6
 11 10  1  0
 11 12  2  0
 13 21  1  0
 14 13  2  0
 15 11  1  0
 17 16  1  0
 18 17  1  0
 20 19  1  1
 19 18  1  0
 20 22  1  0
 21 20  1  0
 22 23  2  0
 22 24  1  0
M  END
$$$$
