PDM.pdb
     RDKit          3D

 24 24  0  0  1  0  0  0  0  0999 V2000
    9.4058  -14.0941   18.5400 N   0  0  0  0  0  0  0  0  0  0  0  0
    8.8354  -13.8115   17.2580 C   0  0  0  0  0  0  0  0  0  0  0  0
    7.7402  -12.7733   17.5280 C   0  0  0  0  0  0  0  0  0  0  0  0
    7.2013  -13.2983   18.8678 C   0  0  0  0  0  0  0  0  0  0  0  0
    8.5137  -13.6285   19.5554 C   0  0  1  0  0  0  0  0  0  0  0  0
    8.3521  -14.6202   20.6518 C   0  0  0  0  0  0  0  0  0  0  0  0
    7.4650  -14.4451   21.5229 O   0  0  0  0  0  0  0  0  0  0  0  0
    9.1846  -15.7820   20.7482 N   0  0  0  0  0  0  0  0  0  0  0  0
    9.2150  -16.6481   21.8885 C   0  0  1  0  0  0  0  0  0  0  0  0
   10.0933  -17.8457   21.6819 C   0  0  0  0  0  0  0  0  0  0  0  0
   10.1404  -18.7283   22.8719 C   0  0  0  0  0  0  0  0  0  0  0  0
    9.2668  -19.6129   23.0436 O   0  0  0  0  0  0  0  0  0  0  0  0
    9.4679  -15.9363   23.1587 C   0  0  0  0  0  0  0  0  0  0  0  0
   10.5487  -15.3105   23.2876 O   0  0  0  0  0  0  0  0  0  0  0  0
   11.1233  -18.6370   23.8449 O   0  0  0  0  0  0  0  0  0  0  0  0
    6.4271  -10.9524   25.9585 C   0  0  0  0  0  0  0  0  0  0  0  0
    6.3749  -12.2739   27.1875 S   0  0  0  0  0  0  0  0  0  0  0  0
    7.7894  -13.4071   26.9639 C   0  0  0  0  0  0  0  0  0  0  0  0
    7.5966  -14.2666   25.7503 C   0  0  0  0  0  0  0  0  0  0  0  0
    8.7528  -15.1510   25.4726 C   0  0  2  0  0  0  0  0  0  0  0  0
    8.5654  -15.9172   24.2414 N   0  0  0  0  0  0  0  0  0  0  0  0
    9.1690  -15.9857   26.5848 C   0  0  0  0  0  0  0  0  0  0  0  0
    9.7678  -15.4316   27.5537 O   0  0  0  0  0  0  0  0  0  0  0  0
    8.9619  -17.3347   26.6720 O   0  0  0  0  0  0  0  0  0  0  0  0
  1  5  1  0
  1  2  1  0
  2  3  1  0
  4  5  1  0
  4  3  1  0
  6  7  2  0
  5  6  1  1
  8  6  1  0
  9 13  1  0
  9  8  1  0
  9 10  1  6
 11 10  1  0
 11 12  2  0
 13 21  1  0
 14 13  2  0
 15 11  1  0
 17 16  1  0
 18 17  1  0
 20 19  1  1
 19 18  1  0
 20 22  1  0
 21 20  1  0
 22 23  2  0
 22 24  1  0
M  END
$$$$
