PDM.pdb
     RDKit          3D

 24 24  0  0  1  0  0  0  0  0999 V2000
    9.3972  -14.3855   18.2634 N   0  0  0  0  0  0  0  0  0  0  0  0
    8.6818  -14.2917   17.0272 C   0  0  0  0  0  0  0  0  0  0  0  0
    7.5348  -13.3125   17.3024 C   0  0  0  0  0  0  0  0  0  0  0  0
    7.1764  -13.7209   18.7397 C   0  0  0  0  0  0  0  0  0  0  0  0
    8.5730  -13.8747   19.3139 C   0  0  1  0  0  0  0  0  0  0  0  0
    8.6041  -14.7455   20.5191 C   0  0  0  0  0  0  0  0  0  0  0  0
    7.8138  -14.5214   21.4687 O   0  0  0  0  0  0  0  0  0  0  0  0
    9.5164  -15.8439   20.6340 N   0  0  0  0  0  0  0  0  0  0  0  0
    9.5906  -16.7017   21.7785 C   0  0  1  0  0  0  0  0  0  0  0  0
   10.5825  -17.8127   21.6053 C   0  0  0  0  0  0  0  0  0  0  0  0
   10.6483  -18.7055   22.7868 C   0  0  0  0  0  0  0  0  0  0  0  0
    9.8201  -19.6381   22.9272 O   0  0  0  0  0  0  0  0  0  0  0  0
    9.7358  -15.9674   23.0529 C   0  0  0  0  0  0  0  0  0  0  0  0
   10.7479  -15.2418   23.2121 O   0  0  0  0  0  0  0  0  0  0  0  0
   11.6007  -18.5727   23.7851 O   0  0  0  0  0  0  0  0  0  0  0  0
    6.4953  -10.9585   27.8368 C   0  0  0  0  0  0  0  0  0  0  0  0
    6.3575  -12.1347   26.4741 S   0  0  0  0  0  0  0  0  0  0  0  0
    7.7035  -13.3661   26.5576 C   0  0  0  0  0  0  0  0  0  0  0  0
    7.7043  -14.2378   25.3374 C   0  0  0  0  0  0  0  0  0  0  0  0
    8.8351  -15.1950   25.3056 C   0  0  2  0  0  0  0  0  0  0  0  0
    8.8025  -16.0325   24.1074 N   0  0  0  0  0  0  0  0  0  0  0  0
    9.0165  -15.9722   26.5180 C   0  0  0  0  0  0  0  0  0  0  0  0
    9.0873  -15.3502   27.6191 O   0  0  0  0  0  0  0  0  0  0  0  0
    9.1154  -17.3354   26.5670 O   0  0  0  0  0  0  0  0  0  0  0  0
  1  5  1  0
  1  2  1  0
  2  3  1  0
  4  5  1  0
  4  3  1  0
  6  7  2  0
  5  6  1  1
  8  6  1  0
  9 13  1  0
  9  8  1  0
  9 10  1  6
 11 10  1  0
 11 12  2  0
 13 21  1  0
 14 13  2  0
 15 11  1  0
 17 16  1  0
 18 17  1  0
 20 19  1  1
 19 18  1  0
 20 22  1  0
 21 20  1  0
 22 23  2  0
 22 24  1  0
M  END
$$$$
