PDM.pdb
     RDKit          3D

 24 24  0  0  1  0  0  0  0  0999 V2000
    9.4217  -14.2031   18.4327 N   0  0  0  0  0  0  0  0  0  0  0  0
    8.7793  -14.0936   17.1583 C   0  0  0  0  0  0  0  0  0  0  0  0
    7.5868  -13.1587   17.3910 C   0  0  0  0  0  0  0  0  0  0  0  0
    7.1560  -13.6216   18.7914 C   0  0  0  0  0  0  0  0  0  0  0  0
    8.5199  -13.7500   19.4451 C   0  0  1  0  0  0  0  0  0  0  0  0
    8.5066  -14.6559   20.6246 C   0  0  0  0  0  0  0  0  0  0  0  0
    7.6918  -14.4501   21.5575 O   0  0  0  0  0  0  0  0  0  0  0  0
    9.4029  -15.7680   20.7330 N   0  0  0  0  0  0  0  0  0  0  0  0
    9.4351  -16.6592   21.8537 C   0  0  1  0  0  0  0  0  0  0  0  0
   10.4893  -17.7172   21.7212 C   0  0  0  0  0  0  0  0  0  0  0  0
   10.4655  -18.6871   22.8421 C   0  0  0  0  0  0  0  0  0  0  0  0
    9.3890  -19.2290   23.1925 O   0  0  0  0  0  0  0  0  0  0  0  0
    9.4519  -15.9620   23.1568 C   0  0  0  0  0  0  0  0  0  0  0  0
   10.4965  -15.3530   23.4947 O   0  0  0  0  0  0  0  0  0  0  0  0
   11.5972  -19.0481   23.5562 O   0  0  0  0  0  0  0  0  0  0  0  0
    7.0296  -11.0182   28.0917 C   0  0  0  0  0  0  0  0  0  0  0  0
    6.9726  -11.9046   26.5199 S   0  0  0  0  0  0  0  0  0  0  0  0
    7.0356  -13.7075   26.8032 C   0  0  0  0  0  0  0  0  0  0  0  0
    7.0910  -14.4497   25.5013 C   0  0  0  0  0  0  0  0  0  0  0  0
    8.3403  -15.2271   25.3263 C   0  0  2  0  0  0  0  0  0  0  0  0
    8.3610  -15.9391   24.0492 N   0  0  0  0  0  0  0  0  0  0  0  0
    8.6915  -16.0854   26.4429 C   0  0  0  0  0  0  0  0  0  0  0  0
    8.9746  -15.5374   27.5492 O   0  0  0  0  0  0  0  0  0  0  0  0
    8.7390  -17.4514   26.3961 O   0  0  0  0  0  0  0  0  0  0  0  0
  1  5  1  0
  1  2  1  0
  2  3  1  0
  4  5  1  0
  4  3  1  0
  6  7  2  0
  5  6  1  1
  8  6  1  0
  9 13  1  0
  9  8  1  0
  9 10  1  6
 11 10  1  0
 11 12  2  0
 13 21  1  0
 14 13  2  0
 15 11  1  0
 17 16  1  0
 18 17  1  0
 20 19  1  1
 19 18  1  0
 20 22  1  0
 21 20  1  0
 22 23  2  0
 22 24  1  0
M  END
$$$$
