PDM.pdb
     RDKit          3D

 24 24  0  0  1  0  0  0  0  0999 V2000
    8.8258  -14.3371   18.5817 N   0  0  0  0  0  0  0  0  0  0  0  0
    8.0041  -13.6927   17.6028 C   0  0  0  0  0  0  0  0  0  0  0  0
    7.4656  -12.4365   18.2974 C   0  0  0  0  0  0  0  0  0  0  0  0
    7.2413  -12.9914   19.7127 C   0  0  0  0  0  0  0  0  0  0  0  0
    8.5148  -13.8020   19.8704 C   0  0  1  0  0  0  0  0  0  0  0  0
    8.3916  -14.8676   20.9005 C   0  0  0  0  0  0  0  0  0  0  0  0
    7.3054  -15.0187   21.5119 O   0  0  0  0  0  0  0  0  0  0  0  0
    9.4835  -15.7373   21.2221 N   0  0  0  0  0  0  0  0  0  0  0  0
    9.4263  -16.7463   22.2369 C   0  0  1  0  0  0  0  0  0  0  0  0
   10.4839  -17.7959   22.0692 C   0  0  0  0  0  0  0  0  0  0  0  0
   10.3782  -18.8761   23.0788 C   0  0  0  0  0  0  0  0  0  0  0  0
    9.2559  -19.3278   23.4130 O   0  0  0  0  0  0  0  0  0  0  0  0
    9.3450  -16.1965   23.6064 C   0  0  0  0  0  0  0  0  0  0  0  0
   10.3265  -15.5517   24.0502 O   0  0  0  0  0  0  0  0  0  0  0  0
   11.4795  -19.4413   23.7023 O   0  0  0  0  0  0  0  0  0  0  0  0
    7.3899  -11.0248   26.4110 C   0  0  0  0  0  0  0  0  0  0  0  0
    7.5264  -12.7460   26.9387 S   0  0  0  0  0  0  0  0  0  0  0  0
    6.7444  -13.8512   25.7132 C   0  0  0  0  0  0  0  0  0  0  0  0
    6.8434  -15.2831   26.1477 C   0  0  0  0  0  0  0  0  0  0  0  0
    8.1561  -15.8969   25.8378 C   0  0  2  0  0  0  0  0  0  0  0  0
    8.2268  -16.3531   24.4503 N   0  0  0  0  0  0  0  0  0  0  0  0
    8.5964  -16.9127   26.7764 C   0  0  0  0  0  0  0  0  0  0  0  0
    8.2489  -18.1118   26.5625 O   0  0  0  0  0  0  0  0  0  0  0  0
    9.3660  -16.6767   27.8820 O   0  0  0  0  0  0  0  0  0  0  0  0
  1  5  1  0
  1  2  1  0
  2  3  1  0
  4  5  1  0
  4  3  1  0
  6  7  2  0
  5  6  1  1
  8  6  1  0
  9 13  1  0
  9  8  1  0
  9 10  1  1
 11 10  1  0
 11 12  2  0
 13 21  1  0
 14 13  2  0
 15 11  1  0
 17 16  1  0
 18 17  1  0
 20 19  1  1
 19 18  1  0
 20 22  1  0
 21 20  1  0
 22 23  2  0
 22 24  1  0
M  END
$$$$
