RES.pdb
     RDKit          3D

 27 26  0  0  1  0  0  0  0  0999 V2000
    9.5083  -12.5729   19.0737 N   0  0  0  0  0  0  0  0  0  0  0  0
    8.1687  -12.7932   18.6708 C   0  0  0  0  0  0  0  0  0  0  0  0
    7.7629  -12.6159   17.4579 N   0  0  0  0  0  0  0  0  0  0  0  0
    7.1797  -13.2331   19.6134 N   0  0  0  0  0  0  0  0  0  0  0  0
    7.6033  -14.0119   20.7521 C   0  0  0  0  0  0  0  0  0  0  0  0
    8.4770  -15.1758   20.3418 C   0  0  0  0  0  0  0  0  0  0  0  0
    8.7861  -16.1150   21.4804 C   0  0  0  0  0  0  0  0  0  0  0  0
    9.5247  -17.3295   20.9375 C   0  0  2  0  0  0  0  0  0  0  0  0
    8.4716  -18.1812   20.3764 N   0  0  0  0  0  0  0  0  0  0  0  0
   10.1547  -18.1115   22.0380 C   0  0  0  0  0  0  0  0  0  0  0  0
    9.4747  -18.6802   22.9344 O   0  0  0  0  0  0  0  0  0  0  0  0
    6.7476  -12.8318   17.2470 N   0  0  0  0  0  0  0  0  0  0  0  0
   11.5535  -18.2741   22.1602 C   0  0  2  0  0  0  0  0  0  0  0  0
   12.2451  -18.9308   23.2214 C   0  0  0  0  0  0  0  0  0  0  0  0
   13.5870  -19.4191   22.9737 C   0  0  0  0  0  0  0  0  0  0  0  0
   14.4609  -18.5494   22.1198 C   0  0  0  0  0  0  0  0  0  0  0  0
   15.5189  -19.3067   21.4408 O   0  0  0  0  0  0  0  0  0  0  0  0
   16.7204  -19.3185   21.7895 C   0  0  0  0  0  0  0  0  0  0  0  0
   12.0702  -18.1856   24.4738 O   0  0  0  0  0  0  0  0  0  0  0  0
   12.7921  -17.1495   24.7194 O   0  0  0  0  0  0  0  0  0  0  0  0
   15.2044  -20.0871   20.3114 O   0  0  0  0  0  0  0  0  0  0  0  0
    8.7854  -18.1383   26.5270 C   0  0  0  0  0  0  0  0  0  0  0  0
    9.7416  -17.2409   26.9432 C   0  0  1  0  0  0  0  0  0  0  0  0
   11.1601  -17.8283   26.7660 N   0  0  0  0  0  0  0  0  0  0  0  0
   11.1311  -18.5124   25.4895 C   0  0  0  0  0  0  0  0  0  0  0  0
   11.3409  -18.7386   27.9133 O   0  0  0  0  0  0  0  0  0  0  0  0
   11.3877  -19.9688   27.7016 O   0  0  0  0  0  0  0  0  0  0  0  0
  2  1  1  0
  2  3  2  0
  4  5  1  0
  4  2  1  0
  6  5  1  0
  7  6  1  0
  8  9  1  1
  8 10  1  0
  8  7  1  0
 10 12  1  0
 10 11  2  0
 12 13  1  0
 13 14  1  6
 14 15  1  0
 15 16  1  0
 16 17  2  0
 16 20  1  0
 18 13  1  0
 19 18  2  0
 21 22  1  0
 23 22  1  6
 23 25  1  0
 23 24  1  0
 24 18  1  0
 25 27  1  0
 26 25  2  0
M  END
$$$$
