RES.pdb
     RDKit          3D

 27 26  0  0  1  0  0  0  0  0999 V2000
    6.8604  -12.6814   19.3012 N   0  0  0  0  0  0  0  0  0  0  0  0
    7.5128  -13.3526   18.2385 C   0  0  0  0  0  0  0  0  0  0  0  0
    8.3206  -12.7588   17.4248 N   0  0  0  0  0  0  0  0  0  0  0  0
    7.3006  -14.7541   18.0128 N   0  0  0  0  0  0  0  0  0  0  0  0
    7.7986  -15.6974   18.9849 C   0  0  0  0  0  0  0  0  0  0  0  0
    7.8471  -15.0994   20.3729 C   0  0  0  0  0  0  0  0  0  0  0  0
    8.4219  -16.0389   21.4030 C   0  0  0  0  0  0  0  0  0  0  0  0
    9.5077  -16.8848   20.7545 C   0  0  2  0  0  0  0  0  0  0  0  0
    8.8296  -18.1279   20.3751 N   0  0  0  0  0  0  0  0  0  0  0  0
   10.5559  -17.2636   21.7432 C   0  0  0  0  0  0  0  0  0  0  0  0
   10.3955  -18.2043   22.5671 O   0  0  0  0  0  0  0  0  0  0  0  0
    8.7314  -13.3363   16.6376 N   0  0  0  0  0  0  0  0  0  0  0  0
   11.8016  -16.6016   21.8322 C   0  0  2  0  0  0  0  0  0  0  0  0
   12.8726  -16.9179   22.7203 C   0  0  0  0  0  0  0  0  0  0  0  0
   14.1536  -16.2716   22.5157 C   0  0  0  0  0  0  0  0  0  0  0  0
   14.7143  -16.3381   21.1263 C   0  0  0  0  0  0  0  0  0  0  0  0
   15.6824  -15.2684   20.8571 O   0  0  0  0  0  0  0  0  0  0  0  0
   15.3814  -14.0702   20.6600 C   0  0  0  0  0  0  0  0  0  0  0  0
   12.3905  -16.9298   24.1066 O   0  0  0  0  0  0  0  0  0  0  0  0
   12.0914  -15.8282   24.6999 O   0  0  0  0  0  0  0  0  0  0  0  0
   17.0577  -15.5677   20.8062 O   0  0  0  0  0  0  0  0  0  0  0  0
   10.2122  -19.6594   25.8110 C   0  0  0  0  0  0  0  0  0  0  0  0
   10.4019  -18.4326   26.4042 C   0  0  1  0  0  0  0  0  0  0  0  0
   11.8805  -17.9954   26.3009 N   0  0  0  0  0  0  0  0  0  0  0  0
   12.2099  -18.0993   24.8941 C   0  0  0  0  0  0  0  0  0  0  0  0
   12.6201  -18.9520   27.1468 O   0  0  0  0  0  0  0  0  0  0  0  0
   13.4109  -19.7496   26.6002 O   0  0  0  0  0  0  0  0  0  0  0  0
  2  1  1  0
  2  3  2  0
  4  5  1  0
  4  2  1  0
  6  5  1  0
  7  6  1  0
  8  9  1  1
  8 10  1  0
  8  7  1  0
 10 12  1  0
 10 11  2  0
 12 13  1  0
 13 14  1  6
 14 15  1  0
 15 16  1  0
 16 17  2  0
 16 20  1  0
 18 13  1  0
 19 18  2  0
 21 22  1  0
 23 22  1  6
 23 25  1  0
 23 24  1  0
 24 18  1  0
 25 27  1  0
 26 25  2  0
M  END
$$$$
