RES.pdb
     RDKit          3D

 27 26  0  0  1  0  0  0  0  0999 V2000
    9.9165  -13.7701   18.0074 N   0  0  0  0  0  0  0  0  0  0  0  0
    8.5998  -13.2490   18.0100 C   0  0  0  0  0  0  0  0  0  0  0  0
    8.3006  -12.0966   17.5102 N   0  0  0  0  0  0  0  0  0  0  0  0
    7.5144  -13.9946   18.5811 N   0  0  0  0  0  0  0  0  0  0  0  0
    7.7354  -14.7072   19.8165 C   0  0  0  0  0  0  0  0  0  0  0  0
    6.4714  -15.3707   20.3151 C   0  0  0  0  0  0  0  0  0  0  0  0
    6.6635  -16.1096   21.6156 C   0  0  0  0  0  0  0  0  0  0  0  0
    7.4774  -15.2429   22.5650 C   0  0  2  0  0  0  0  0  0  0  0  0
    8.3889  -14.4959   21.6929 N   0  0  0  0  0  0  0  0  0  0  0  0
    8.3356  -16.0774   23.4521 C   0  0  0  0  0  0  0  0  0  0  0  0
    7.8548  -16.9373   24.2387 O   0  0  0  0  0  0  0  0  0  0  0  0
    7.2822  -11.8061   17.5302 N   0  0  0  0  0  0  0  0  0  0  0  0
    9.7447  -15.9693   23.4792 C   0  0  1  0  0  0  0  0  0  0  0  0
   10.6481  -16.7927   24.2150 C   0  0  0  0  0  0  0  0  0  0  0  0
   12.0701  -16.6385   23.9816 C   0  0  0  0  0  0  0  0  0  0  0  0
   12.5046  -16.5956   22.5468 C   0  0  0  0  0  0  0  0  0  0  0  0
   13.7224  -15.8005   22.3498 O   0  0  0  0  0  0  0  0  0  0  0  0
   14.3464  -15.2176   23.2641 C   0  0  0  0  0  0  0  0  0  0  0  0
   10.2463  -16.8454   25.6258 O   0  0  0  0  0  0  0  0  0  0  0  0
   10.3140  -15.7915   26.3604 O   0  0  0  0  0  0  0  0  0  0  0  0
   14.2601  -15.6554   21.0563 O   0  0  0  0  0  0  0  0  0  0  0  0
    7.6331  -19.3400   27.2138 C   0  0  0  0  0  0  0  0  0  0  0  0
    8.0554  -18.2439   27.9302 C   0  0  1  0  0  0  0  0  0  0  0  0
    9.5683  -18.0037   27.7256 N   0  0  0  0  0  0  0  0  0  0  0  0
    9.7623  -18.0051   26.2901 C   0  0  0  0  0  0  0  0  0  0  0  0
   10.2286  -19.1345   28.4060 O   0  0  0  0  0  0  0  0  0  0  0  0
   10.7978  -20.0029   27.7117 O   0  0  0  0  0  0  0  0  0  0  0  0
  2  1  1  0
  2  3  2  0
  4  5  1  0
  4  2  1  0
  6  5  1  0
  7  6  1  0
  8  9  1  6
  8 10  1  0
  8  7  1  0
 10 12  1  0
 10 11  2  0
 12 13  1  0
 13 14  1  6
 14 15  1  0
 15 16  1  0
 16 17  2  0
 16 20  1  0
 18 13  1  0
 19 18  2  0
 21 22  1  0
 23 22  1  6
 23 25  1  0
 23 24  1  0
 24 18  1  0
 25 27  1  0
 26 25  2  0
M  END
$$$$
