RES.pdb
     RDKit          3D

 27 26  0  0  1  0  0  0  0  0999 V2000
    9.1567  -11.8879   19.9032 N   0  0  0  0  0  0  0  0  0  0  0  0
    8.3892  -12.7722   19.1068 C   0  0  0  0  0  0  0  0  0  0  0  0
    8.6207  -12.9655   17.8513 N   0  0  0  0  0  0  0  0  0  0  0  0
    7.2951  -13.5097   19.6718 N   0  0  0  0  0  0  0  0  0  0  0  0
    7.1761  -14.9160   19.3702 C   0  0  0  0  0  0  0  0  0  0  0  0
    8.5280  -15.5882   19.2869 C   0  0  0  0  0  0  0  0  0  0  0  0
    8.5648  -16.9318   19.9707 C   0  0  0  0  0  0  0  0  0  0  0  0
    8.6570  -16.7224   21.4750 C   0  0  2  0  0  0  0  0  0  0  0  0
    8.9228  -15.2893   21.6323 N   0  0  0  0  0  0  0  0  0  0  0  0
    9.8360  -17.4328   22.0450 C   0  0  0  0  0  0  0  0  0  0  0  0
    9.9296  -18.6900   22.0440 O   0  0  0  0  0  0  0  0  0  0  0  0
    8.1325  -13.7821   17.3857 N   0  0  0  0  0  0  0  0  0  0  0  0
   10.9321  -16.7558   22.6266 C   0  0  1  0  0  0  0  0  0  0  0  0
   12.0676  -17.3526   23.2512 C   0  0  0  0  0  0  0  0  0  0  0  0
   13.3720  -16.7649   23.0197 C   0  0  0  0  0  0  0  0  0  0  0  0
   14.5394  -17.4834   23.6282 C   0  0  0  0  0  0  0  0  0  0  0  0
   15.8222  -16.8441   23.3123 O   0  0  0  0  0  0  0  0  0  0  0  0
   16.7460  -17.3855   22.6654 C   0  0  0  0  0  0  0  0  0  0  0  0
   11.7630  -17.6713   24.6511 O   0  0  0  0  0  0  0  0  0  0  0  0
   11.3383  -16.7553   25.4484 O   0  0  0  0  0  0  0  0  0  0  0  0
   16.0740  -15.5296   23.7506 O   0  0  0  0  0  0  0  0  0  0  0  0
    9.6250  -20.4100   26.1990 C   0  0  0  0  0  0  0  0  0  0  0  0
   10.8874  -20.5080   26.7372 C   0  0  2  0  0  0  0  0  0  0  0  0
   11.6286  -19.1549   26.6491 N   0  0  0  0  0  0  0  0  0  0  0  0
   11.8949  -18.9589   25.2387 C   0  0  0  0  0  0  0  0  0  0  0  0
   12.8511  -19.3375   27.4551 O   0  0  0  0  0  0  0  0  0  0  0  0
   13.9582  -19.3268   26.8768 O   0  0  0  0  0  0  0  0  0  0  0  0
  2  1  1  0
  2  3  2  0
  4  5  1  0
  4  2  1  0
  6  5  1  0
  7  6  1  0
  8  9  1  6
  8 10  1  0
  8  7  1  0
 10 12  1  0
 10 11  2  0
 12 13  1  0
 13 14  1  6
 14 15  1  0
 15 16  1  0
 16 17  2  0
 16 20  1  0
 18 13  1  0
 19 18  2  0
 21 22  1  0
 23 22  1  6
 23 25  1  0
 23 24  1  0
 24 18  1  0
 25 27  1  0
 26 25  2  0
M  END
$$$$
