RES.pdb
     RDKit          3D

 27 26  0  0  1  0  0  0  0  0999 V2000
    6.8366  -13.1763   17.0752 N   0  0  0  0  0  0  0  0  0  0  0  0
    8.1987  -13.5021   17.2845 C   0  0  0  0  0  0  0  0  0  0  0  0
    8.9633  -13.9552   16.3478 N   0  0  0  0  0  0  0  0  0  0  0  0
    8.8041  -13.3399   18.5757 N   0  0  0  0  0  0  0  0  0  0  0  0
    7.9518  -13.1274   19.7207 C   0  0  0  0  0  0  0  0  0  0  0  0
    7.2676  -14.4040   20.1552 C   0  0  0  0  0  0  0  0  0  0  0  0
    8.0775  -15.2031   21.1449 C   0  0  0  0  0  0  0  0  0  0  0  0
    8.6379  -16.4352   20.4499 C   0  0  2  0  0  0  0  0  0  0  0  0
    7.4912  -17.3396   20.3212 N   0  0  0  0  0  0  0  0  0  0  0  0
    9.6293  -17.1353   21.3140 C   0  0  0  0  0  0  0  0  0  0  0  0
    9.2822  -17.9309   22.2282 O   0  0  0  0  0  0  0  0  0  0  0  0
    9.9768  -14.1412   16.5931 N   0  0  0  0  0  0  0  0  0  0  0  0
   11.0253  -16.9618   21.1756 C   0  0  1  0  0  0  0  0  0  0  0  0
   12.0461  -17.7318   21.8086 C   0  0  0  0  0  0  0  0  0  0  0  0
   13.3768  -17.7200   21.2345 C   0  0  0  0  0  0  0  0  0  0  0  0
   14.4243  -18.4967   21.9752 C   0  0  0  0  0  0  0  0  0  0  0  0
   15.7377  -18.4363   21.3230 O   0  0  0  0  0  0  0  0  0  0  0  0
   16.8281  -18.6455   21.8997 C   0  0  0  0  0  0  0  0  0  0  0  0
   11.9891  -17.5446   23.2633 O   0  0  0  0  0  0  0  0  0  0  0  0
   12.2547  -16.3975   23.7816 O   0  0  0  0  0  0  0  0  0  0  0  0
   15.8233  -18.1223   19.9528 O   0  0  0  0  0  0  0  0  0  0  0  0
    9.6837  -19.4777   25.7284 C   0  0  0  0  0  0  0  0  0  0  0  0
   10.3558  -18.3690   26.1888 C   0  0  1  0  0  0  0  0  0  0  0  0
   11.7930  -18.3235   25.6224 N   0  0  0  0  0  0  0  0  0  0  0  0
   11.6483  -18.5578   24.2002 C   0  0  0  0  0  0  0  0  0  0  0  0
   12.5124  -19.4049   26.3228 O   0  0  0  0  0  0  0  0  0  0  0  0
   12.8763  -20.4051   25.6691 O   0  0  0  0  0  0  0  0  0  0  0  0
  2  1  1  0
  2  3  2  0
  4  5  1  0
  4  2  1  0
  6  5  1  0
  7  6  1  0
  8  9  1  1
  8 10  1  0
  8  7  1  0
 10 12  1  0
 10 11  2  0
 12 13  1  0
 13 14  1  6
 14 15  1  0
 15 16  1  0
 16 17  2  0
 16 20  1  0
 18 13  1  0
 19 18  2  0
 21 22  1  0
 23 22  1  6
 23 25  1  0
 23 24  1  0
 24 18  1  0
 25 27  1  0
 26 25  2  0
M  END
$$$$
