RES.pdb
     RDKit          3D

 27 26  0  0  1  0  0  0  0  0999 V2000
    8.8002  -14.9536   16.7306 N   0  0  0  0  0  0  0  0  0  0  0  0
    9.5828  -14.0112   17.4411 C   0  0  0  0  0  0  0  0  0  0  0  0
   10.8212  -14.2146   17.7446 N   0  0  0  0  0  0  0  0  0  0  0  0
    9.0222  -12.7599   17.8655 N   0  0  0  0  0  0  0  0  0  0  0  0
    8.3478  -12.6974   19.1398 C   0  0  0  0  0  0  0  0  0  0  0  0
    7.4595  -13.9004   19.3637 C   0  0  0  0  0  0  0  0  0  0  0  0
    7.5130  -14.4215   20.7779 C   0  0  0  0  0  0  0  0  0  0  0  0
    8.9665  -14.5240   21.2159 C   0  0  2  0  0  0  0  0  0  0  0  0
    9.5389  -15.5630   20.3544 N   0  0  0  0  0  0  0  0  0  0  0  0
    9.0721  -15.0320   22.6125 C   0  0  0  0  0  0  0  0  0  0  0  0
    8.3780  -14.5619   23.5541 O   0  0  0  0  0  0  0  0  0  0  0  0
   11.3452  -13.4216   18.2119 N   0  0  0  0  0  0  0  0  0  0  0  0
    9.9529  -16.0727   22.9858 C   0  0  2  0  0  0  0  0  0  0  0  0
   10.0804  -16.6570   24.2812 C   0  0  0  0  0  0  0  0  0  0  0  0
   10.8924  -17.8489   24.4247 C   0  0  0  0  0  0  0  0  0  0  0  0
   10.9986  -18.4148   25.8095 C   0  0  0  0  0  0  0  0  0  0  0  0
   11.8364  -19.6186   25.8641 O   0  0  0  0  0  0  0  0  0  0  0  0
   12.9219  -19.7573   25.2577 C   0  0  0  0  0  0  0  0  0  0  0  0
   10.3181  -15.6119   25.2839 O   0  0  0  0  0  0  0  0  0  0  0  0
   11.3598  -14.8611   25.2055 O   0  0  0  0  0  0  0  0  0  0  0  0
   11.4268  -20.7200   26.6403 O   0  0  0  0  0  0  0  0  0  0  0  0
    7.4241  -14.2577   27.5252 C   0  0  0  0  0  0  0  0  0  0  0  0
    8.5503  -13.4677   27.5453 C   0  0  1  0  0  0  0  0  0  0  0  0
    9.8242  -14.3225   27.3586 N   0  0  0  0  0  0  0  0  0  0  0  0
    9.4639  -15.3332   26.3855 C   0  0  0  0  0  0  0  0  0  0  0  0
   10.1112  -14.8749   28.6965 O   0  0  0  0  0  0  0  0  0  0  0  0
   10.0738  -16.1133   28.8550 O   0  0  0  0  0  0  0  0  0  0  0  0
  2  1  1  0
  2  3  2  0
  4  5  1  0
  4  2  1  0
  6  5  1  0
  7  6  1  0
  8  9  1  6
  8 10  1  0
  8  7  1  0
 10 12  1  0
 10 11  2  0
 12 13  1  0
 13 14  1  6
 14 15  1  0
 15 16  1  0
 16 17  2  0
 16 20  1  0
 18 13  1  0
 19 18  2  0
 21 22  1  0
 23 22  1  6
 23 25  1  0
 23 24  1  0
 24 18  1  0
 25 27  1  0
 26 25  2  0
M  END
$$$$
