RES.pdb
     RDKit          3D

 27 26  0  0  1  0  0  0  0  0999 V2000
    7.7969  -14.5130   17.7379 N   0  0  0  0  0  0  0  0  0  0  0  0
    8.0676  -13.2887   18.3961 C   0  0  0  0  0  0  0  0  0  0  0  0
    7.6683  -12.1467   17.9448 N   0  0  0  0  0  0  0  0  0  0  0  0
    8.8145  -13.2614   19.6214 N   0  0  0  0  0  0  0  0  0  0  0  0
   10.0779  -13.9565   19.6804 C   0  0  0  0  0  0  0  0  0  0  0  0
    9.9280  -15.3438   20.2628 C   0  0  0  0  0  0  0  0  0  0  0  0
   11.2384  -16.0803   20.3839 C   0  0  0  0  0  0  0  0  0  0  0  0
   10.9792  -17.4668   20.9544 C   0  0  2  0  0  0  0  0  0  0  0  0
    9.9711  -18.0496   20.0637 N   0  0  0  0  0  0  0  0  0  0  0  0
   10.3504  -17.3842   22.3025 C   0  0  0  0  0  0  0  0  0  0  0  0
    9.1378  -17.0786   22.4620 O   0  0  0  0  0  0  0  0  0  0  0  0
    7.9142  -11.2858   18.5108 N   0  0  0  0  0  0  0  0  0  0  0  0
   11.0608  -17.6403   23.4974 C   0  0  1  0  0  0  0  0  0  0  0  0
   10.5211  -17.6781   24.8177 C   0  0  0  0  0  0  0  0  0  0  0  0
   11.0350  -18.6652   25.7461 C   0  0  0  0  0  0  0  0  0  0  0  0
   10.7710  -20.1004   25.3998 C   0  0  0  0  0  0  0  0  0  0  0  0
   11.3934  -21.0328   26.3471 O   0  0  0  0  0  0  0  0  0  0  0  0
   10.8587  -21.4344   27.4045 C   0  0  0  0  0  0  0  0  0  0  0  0
   10.4023  -16.3164   25.3524 O   0  0  0  0  0  0  0  0  0  0  0  0
   11.3244  -15.4477   25.1284 O   0  0  0  0  0  0  0  0  0  0  0  0
   12.6836  -21.5343   26.0879 O   0  0  0  0  0  0  0  0  0  0  0  0
    7.7009  -12.7241   26.9736 C   0  0  0  0  0  0  0  0  0  0  0  0
    7.8260  -14.0445   26.6081 C   0  0  2  0  0  0  0  0  0  0  0  0
    9.3069  -14.4851   26.6398 N   0  0  0  0  0  0  0  0  0  0  0  0
    9.3108  -15.8406   26.1289 C   0  0  0  0  0  0  0  0  0  0  0  0
    9.7007  -14.3941   28.0590 O   0  0  0  0  0  0  0  0  0  0  0  0
    9.7428  -15.4414   28.7384 O   0  0  0  0  0  0  0  0  0  0  0  0
  2  1  1  0
  2  3  2  0
  4  5  1  0
  4  2  1  0
  6  5  1  0
  7  6  1  0
  8  9  1  6
  8 10  1  0
  8  7  1  0
 10 12  1  0
 10 11  2  0
 12 13  1  0
 13 14  1  1
 14 15  1  0
 15 16  1  0
 16 17  2  0
 16 20  1  0
 18 13  1  0
 19 18  2  0
 21 22  1  0
 23 22  1  6
 23 25  1  0
 23 24  1  0
 24 18  1  0
 25 27  1  0
 26 25  2  0
M  END
$$$$
