KFQ.pdb
     RDKit          3D

 30 30  0  0  1  0  0  0  0  0999 V2000
    7.8713  -18.0132   20.5203 N   0  0  0  0  0  0  0  0  0  0  0  0
    9.1454  -17.3832   20.1785 C   0  0  1  0  0  0  0  0  0  0  0  0
    9.0302  -16.7042   18.8130 C   0  0  0  0  0  0  0  0  0  0  0  0
    8.8453  -17.7946   17.7890 C   0  0  0  0  0  0  0  0  0  0  0  0
    9.4793  -17.3753   16.4945 C   0  0  0  0  0  0  0  0  0  0  0  0
    9.1688  -18.3663   15.4175 C   0  0  0  0  0  0  0  0  0  0  0  0
    9.5799  -17.8015   14.1368 N   0  0  0  0  0  0  0  0  0  0  0  0
    9.3494  -16.2603   21.1519 C   0  0  0  0  0  0  0  0  0  0  0  0
   10.3656  -15.4949   21.0859 O   0  0  0  0  0  0  0  0  0  0  0  0
    8.4325  -15.9916   22.1882 N   0  0  0  0  0  0  0  0  0  0  0  0
    8.7172  -14.9952   23.2612 C   0  0  1  0  0  0  0  0  0  0  0  0
    7.3659  -14.5039   23.6330 C   0  0  0  0  0  0  0  0  0  0  0  0
    7.2204  -13.6240   24.7718 C   0  0  0  0  0  0  0  0  0  0  0  0
    7.8022  -12.3653   24.8632 C   0  0  0  0  0  0  0  0  0  0  0  0
    7.5868  -11.5581   25.9773 C   0  0  0  0  0  0  0  0  0  0  0  0
    6.8002  -11.9774   27.0103 C   0  0  0  0  0  0  0  0  0  0  0  0
    6.2177  -13.2032   26.9514 C   0  0  0  0  0  0  0  0  0  0  0  0
    6.4349  -14.0134   25.8314 C   0  0  0  0  0  0  0  0  0  0  0  0
    9.4459  -15.7481   24.2715 C   0  0  0  0  0  0  0  0  0  0  0  0
    9.2113  -16.9608   24.4601 O   0  0  0  0  0  0  0  0  0  0  0  0
    8.6504  -18.6544   27.8002 N   0  0  0  0  0  0  0  0  0  0  0  0
    9.7692  -18.3413   28.6024 C   0  0  0  0  0  0  0  0  0  0  0  0
   10.0395  -19.0266   29.6122 O   0  0  0  0  0  0  0  0  0  0  0  0
   10.6259  -17.1972   28.2464 C   0  0  0  0  0  0  0  0  0  0  0  0
   10.0051  -16.4152   27.0936 C   0  0  0  0  0  0  0  0  0  0  0  0
   11.1063  -15.9081   26.1408 C   0  0  2  0  0  0  0  0  0  0  0  0
   10.4440  -15.1430   25.0690 N   0  0  0  0  0  0  0  0  0  0  0  0
   11.8017  -17.0480   25.5166 C   0  0  0  0  0  0  0  0  0  0  0  0
   11.1916  -17.8312   24.5459 O   0  0  0  0  0  0  0  0  0  0  0  0
   12.9839  -17.3757   25.8278 O   0  0  0  0  0  0  0  0  0  0  0  0
  2  1  1  1
  2  8  1  0
  2  3  1  0
  3  4  1  0
  4  5  1  0
  5  6  1  0
  7  6  1  0
  8  9  2  0
 10 11  1  0
 10  8  1  0
 11 12  1  1
 12 13  1  0
 13 18  2  0
 13 14  1  0
 14 15  2  0
 15 16  1  0
 17 16  2  0
 18 17  1  0
 19 11  1  0
 20 19  2  0
 22 21  1  0
 22 23  2  0
 24 22  1  0
 26 25  1  1
 25 24  1  0
 26 27  1  0
 27 19  1  0
 28 29  1  0
 28 26  1  0
 30 28  2  0
M  END
$$$$
