KFQ.pdb
     RDKit          3D

 30 30  0  0  1  0  0  0  0  0999 V2000
    7.8357  -16.4558   19.7856 N   0  0  0  0  0  0  0  0  0  0  0  0
    9.0954  -15.7150   19.7512 C   0  0  1  0  0  0  0  0  0  0  0  0
    8.9299  -14.4645   18.8865 C   0  0  0  0  0  0  0  0  0  0  0  0
    8.7003  -14.9302   17.4716 C   0  0  0  0  0  0  0  0  0  0  0  0
    8.6328  -13.7396   16.5598 C   0  0  0  0  0  0  0  0  0  0  0  0
    8.5028  -14.1807   15.1360 C   0  0  0  0  0  0  0  0  0  0  0  0
    8.3054  -12.9999   14.3023 N   0  0  0  0  0  0  0  0  0  0  0  0
    9.3321  -15.1963   21.1386 C   0  0  0  0  0  0  0  0  0  0  0  0
   10.4197  -14.6151   21.4584 O   0  0  0  0  0  0  0  0  0  0  0  0
    8.3689  -15.3227   22.1600 N   0  0  0  0  0  0  0  0  0  0  0  0
    8.5738  -14.7451   23.5199 C   0  0  1  0  0  0  0  0  0  0  0  0
    7.2536  -14.1407   23.8324 C   0  0  0  0  0  0  0  0  0  0  0  0
    7.0675  -13.4587   25.0944 C   0  0  0  0  0  0  0  0  0  0  0  0
    6.1678  -13.8630   26.0732 C   0  0  0  0  0  0  0  0  0  0  0  0
    6.0701  -13.1767   27.2809 C   0  0  0  0  0  0  0  0  0  0  0  0
    6.8527  -12.0893   27.5392 C   0  0  0  0  0  0  0  0  0  0  0  0
    7.7418  -11.6685   26.6022 C   0  0  0  0  0  0  0  0  0  0  0  0
    7.8390  -12.3589   25.3891 C   0  0  0  0  0  0  0  0  0  0  0  0
    8.9905  -15.8762   24.3356 C   0  0  0  0  0  0  0  0  0  0  0  0
    8.3272  -16.9350   24.3496 O   0  0  0  0  0  0  0  0  0  0  0  0
   14.4230  -18.3997   23.3848 N   0  0  0  0  0  0  0  0  0  0  0  0
   13.8744  -17.3033   24.0848 C   0  0  0  0  0  0  0  0  0  0  0  0
   14.6155  -16.4114   24.5512 O   0  0  0  0  0  0  0  0  0  0  0  0
   12.4158  -17.2091   24.2670 C   0  0  0  0  0  0  0  0  0  0  0  0
   12.0728  -17.1853   25.7529 C   0  0  0  0  0  0  0  0  0  0  0  0
   10.5559  -16.9873   25.9456 C   0  0  2  0  0  0  0  0  0  0  0  0
   10.1563  -15.8239   25.1334 N   0  0  0  0  0  0  0  0  0  0  0  0
   10.2600  -16.6751   27.3555 C   0  0  0  0  0  0  0  0  0  0  0  0
    9.9563  -15.3846   27.7680 O   0  0  0  0  0  0  0  0  0  0  0  0
   10.2669  -17.5576   28.2626 O   0  0  0  0  0  0  0  0  0  0  0  0
  2  1  1  1
  2  8  1  0
  2  3  1  0
  3  4  1  0
  4  5  1  0
  5  6  1  0
  7  6  1  0
  8  9  2  0
 10 11  1  0
 10  8  1  0
 11 12  1  1
 12 13  1  0
 13 18  2  0
 13 14  1  0
 14 15  2  0
 15 16  1  0
 17 16  2  0
 18 17  1  0
 19 11  1  0
 20 19  2  0
 22 21  1  0
 22 23  2  0
 24 22  1  0
 26 25  1  1
 25 24  1  0
 26 27  1  0
 27 19  1  0
 28 29  1  0
 28 26  1  0
 30 28  2  0
M  END
$$$$
