KFQ.pdb
     RDKit          3D

 30 30  0  0  1  0  0  0  0  0999 V2000
    8.7326  -16.5675   19.0561 N   0  0  0  0  0  0  0  0  0  0  0  0
    7.6228  -16.4718   20.0028 C   0  0  1  0  0  0  0  0  0  0  0  0
    7.1504  -17.8764   20.3807 C   0  0  0  0  0  0  0  0  0  0  0  0
    8.3563  -18.7791   20.3304 C   0  0  0  0  0  0  0  0  0  0  0  0
    7.9392  -20.1861   20.6463 C   0  0  0  0  0  0  0  0  0  0  0  0
    9.1094  -21.1124   20.5407 C   0  0  0  0  0  0  0  0  0  0  0  0
    8.6782  -22.4491   20.9350 N   0  0  0  0  0  0  0  0  0  0  0  0
    8.1822  -15.8985   21.2711 C   0  0  0  0  0  0  0  0  0  0  0  0
    9.4335  -15.8986   21.5098 O   0  0  0  0  0  0  0  0  0  0  0  0
    7.3580  -15.3309   22.2638 N   0  0  0  0  0  0  0  0  0  0  0  0
    7.9183  -14.6727   23.4795 C   0  0  1  0  0  0  0  0  0  0  0  0
    6.9006  -13.6410   23.8043 C   0  0  0  0  0  0  0  0  0  0  0  0
    7.0238  -12.8860   25.0320 C   0  0  0  0  0  0  0  0  0  0  0  0
    8.0720  -12.0173   25.3105 C   0  0  0  0  0  0  0  0  0  0  0  0
    8.1040  -11.2951   26.5007 C   0  0  0  0  0  0  0  0  0  0  0  0
    7.1099  -11.4182   27.4271 C   0  0  0  0  0  0  0  0  0  0  0  0
    6.0716  -12.2599   27.1847 C   0  0  0  0  0  0  0  0  0  0  0  0
    6.0405  -12.9851   25.9884 C   0  0  0  0  0  0  0  0  0  0  0  0
    8.0852  -15.7577   24.4352 C   0  0  0  0  0  0  0  0  0  0  0  0
    7.2425  -16.6768   24.5148 O   0  0  0  0  0  0  0  0  0  0  0  0
   11.1545  -19.0661   22.0091 N   0  0  0  0  0  0  0  0  0  0  0  0
   11.3838  -19.4872   23.3370 C   0  0  0  0  0  0  0  0  0  0  0  0
   11.3085  -20.6968   23.6425 O   0  0  0  0  0  0  0  0  0  0  0  0
   11.7149  -18.4925   24.3717 C   0  0  0  0  0  0  0  0  0  0  0  0
   10.8309  -17.2595   24.2166 C   0  0  0  0  0  0  0  0  0  0  0  0
    9.9483  -17.0768   25.4677 C   0  0  2  0  0  0  0  0  0  0  0  0
    9.2016  -15.8170   25.3004 N   0  0  0  0  0  0  0  0  0  0  0  0
   10.7921  -16.9440   26.6689 C   0  0  0  0  0  0  0  0  0  0  0  0
   11.2499  -15.7078   27.1050 O   0  0  0  0  0  0  0  0  0  0  0  0
   11.1453  -17.9405   27.3647 O   0  0  0  0  0  0  0  0  0  0  0  0
  2  1  1  6
  2  8  1  0
  2  3  1  0
  3  4  1  0
  4  5  1  0
  5  6  1  0
  7  6  1  0
  8  9  2  0
 10 11  1  0
 10  8  1  0
 11 12  1  1
 12 13  1  0
 13 18  2  0
 13 14  1  0
 14 15  2  0
 15 16  1  0
 17 16  2  0
 18 17  1  0
 19 11  1  0
 20 19  2  0
 22 21  1  0
 22 23  2  0
 24 22  1  0
 26 25  1  6
 25 24  1  0
 26 27  1  0
 27 19  1  0
 28 29  1  0
 28 26  1  0
 30 28  2  0
M  END
$$$$
