KFQ.pdb
     RDKit          3D

 30 30  0  0  1  0  0  0  0  0999 V2000
    7.0970  -15.5879   20.7912 N   0  0  0  0  0  0  0  0  0  0  0  0
    8.3265  -14.7988   20.7401 C   0  0  1  0  0  0  0  0  0  0  0  0
    7.9997  -13.3704   20.3023 C   0  0  0  0  0  0  0  0  0  0  0  0
    7.3165  -13.4620   18.9620 C   0  0  0  0  0  0  0  0  0  0  0  0
    8.3205  -13.8522   17.9165 C   0  0  0  0  0  0  0  0  0  0  0  0
    7.6747  -13.9038   16.5678 C   0  0  0  0  0  0  0  0  0  0  0  0
    8.6629  -14.3661   15.5993 N   0  0  0  0  0  0  0  0  0  0  0  0
    8.8169  -14.6672   22.1516 C   0  0  0  0  0  0  0  0  0  0  0  0
    9.8456  -13.9733   22.4398 O   0  0  0  0  0  0  0  0  0  0  0  0
    8.1697  -15.3010   23.2315 N   0  0  0  0  0  0  0  0  0  0  0  0
    8.7279  -15.2793   24.6147 C   0  0  1  0  0  0  0  0  0  0  0  0
    7.5183  -15.1379   25.4647 C   0  0  0  0  0  0  0  0  0  0  0  0
    7.1313  -13.8253   25.9335 C   0  0  0  0  0  0  0  0  0  0  0  0
    8.0194  -12.7745   26.1286 C   0  0  0  0  0  0  0  0  0  0  0  0
    7.5674  -11.5257   26.5474 C   0  0  0  0  0  0  0  0  0  0  0  0
    6.2423  -11.2965   26.7782 C   0  0  0  0  0  0  0  0  0  0  0  0
    5.3489  -12.3036   26.5971 C   0  0  0  0  0  0  0  0  0  0  0  0
    5.8042  -13.5580   26.1763 C   0  0  0  0  0  0  0  0  0  0  0  0
    9.4697  -16.5266   24.7262 C   0  0  0  0  0  0  0  0  0  0  0  0
    8.9049  -17.6264   24.5455 O   0  0  0  0  0  0  0  0  0  0  0  0
   12.7954  -17.6014   21.1650 N   0  0  0  0  0  0  0  0  0  0  0  0
   13.5952  -17.3220   22.2945 C   0  0  0  0  0  0  0  0  0  0  0  0
   14.8061  -17.6315   22.3085 O   0  0  0  0  0  0  0  0  0  0  0  0
   12.9977  -16.6599   23.4668 C   0  0  0  0  0  0  0  0  0  0  0  0
   13.0036  -17.6054   24.6634 C   0  0  0  0  0  0  0  0  0  0  0  0
   11.5661  -17.8224   25.1771 C   0  0  2  0  0  0  0  0  0  0  0  0
   10.8492  -16.5423   25.0352 N   0  0  0  0  0  0  0  0  0  0  0  0
   11.5861  -18.1709   26.6092 C   0  0  0  0  0  0  0  0  0  0  0  0
   11.0093  -17.3484   27.5676 O   0  0  0  0  0  0  0  0  0  0  0  0
   12.1265  -19.2299   27.0432 O   0  0  0  0  0  0  0  0  0  0  0  0
  2  1  1  1
  2  8  1  0
  2  3  1  0
  3  4  1  0
  4  5  1  0
  5  6  1  0
  7  6  1  0
  8  9  2  0
 10 11  1  0
 10  8  1  0
 11 12  1  1
 12 13  1  0
 13 18  2  0
 13 14  1  0
 14 15  2  0
 15 16  1  0
 17 16  2  0
 18 17  1  0
 19 11  1  0
 20 19  2  0
 22 21  1  0
 22 23  2  0
 24 22  1  0
 26 25  1  1
 25 24  1  0
 26 27  1  0
 27 19  1  0
 28 29  1  0
 28 26  1  0
 30 28  2  0
M  END
$$$$
