KFQ.pdb
     RDKit          3D

 30 30  0  0  1  0  0  0  0  0999 V2000
    7.5660  -16.4613   18.8122 N   0  0  0  0  0  0  0  0  0  0  0  0
    8.0668  -17.3224   19.8821 C   0  0  1  0  0  0  0  0  0  0  0  0
    9.3145  -18.0639   19.4000 C   0  0  0  0  0  0  0  0  0  0  0  0
    9.0206  -18.5720   18.0119 C   0  0  0  0  0  0  0  0  0  0  0  0
   10.2018  -19.3469   17.5043 C   0  0  0  0  0  0  0  0  0  0  0  0
    9.8969  -19.9449   16.1671 C   0  0  0  0  0  0  0  0  0  0  0  0
   11.0665  -20.6914   15.7167 N   0  0  0  0  0  0  0  0  0  0  0  0
    8.5535  -16.4182   20.9755 C   0  0  0  0  0  0  0  0  0  0  0  0
    9.7958  -16.2615   21.2098 O   0  0  0  0  0  0  0  0  0  0  0  0
    7.6674  -15.6957   21.7999 N   0  0  0  0  0  0  0  0  0  0  0  0
    8.1370  -14.9316   22.9919 C   0  0  1  0  0  0  0  0  0  0  0  0
    6.9610  -14.0945   23.3412 C   0  0  0  0  0  0  0  0  0  0  0  0
    6.9699  -13.3399   24.5752 C   0  0  0  0  0  0  0  0  0  0  0  0
    6.2320  -13.6809   25.7023 C   0  0  0  0  0  0  0  0  0  0  0  0
    6.3199  -12.9256   26.8689 C   0  0  0  0  0  0  0  0  0  0  0  0
    7.1310  -11.8308   26.9406 C   0  0  0  0  0  0  0  0  0  0  0  0
    7.8648  -11.4710   25.8555 C   0  0  0  0  0  0  0  0  0  0  0  0
    7.7756  -12.2306   24.6838 C   0  0  0  0  0  0  0  0  0  0  0  0
    8.5246  -15.9564   23.9500 C   0  0  0  0  0  0  0  0  0  0  0  0
    7.8577  -17.0061   24.0705 O   0  0  0  0  0  0  0  0  0  0  0  0
   13.0392  -18.7416   23.0382 N   0  0  0  0  0  0  0  0  0  0  0  0
   13.0572  -19.1630   24.3856 C   0  0  0  0  0  0  0  0  0  0  0  0
   13.6160  -20.2329   24.7098 O   0  0  0  0  0  0  0  0  0  0  0  0
   12.4120  -18.3346   25.4186 C   0  0  0  0  0  0  0  0  0  0  0  0
   11.6858  -17.1599   24.7716 C   0  0  0  0  0  0  0  0  0  0  0  0
   10.2887  -16.9864   25.4006 C   0  0  2  0  0  0  0  0  0  0  0  0
    9.6653  -15.8080   24.7718 N   0  0  0  0  0  0  0  0  0  0  0  0
   10.4124  -16.7140   26.8439 C   0  0  0  0  0  0  0  0  0  0  0  0
   10.7096  -17.7207   27.7528 O   0  0  0  0  0  0  0  0  0  0  0  0
   10.2551  -15.5572   27.3328 O   0  0  0  0  0  0  0  0  0  0  0  0
  2  1  1  6
  2  8  1  0
  2  3  1  0
  3  4  1  0
  4  5  1  0
  5  6  1  0
  7  6  1  0
  8  9  2  0
 10 11  1  0
 10  8  1  0
 11 12  1  1
 12 13  1  0
 13 18  2  0
 13 14  1  0
 14 15  2  0
 15 16  1  0
 17 16  2  0
 18 17  1  0
 19 11  1  0
 20 19  2  0
 22 21  1  0
 22 23  2  0
 24 22  1  0
 26 25  1  6
 25 24  1  0
 26 27  1  0
 27 19  1  0
 28 29  1  0
 28 26  1  0
 30 28  2  0
M  END
$$$$
