KFQ.pdb
     RDKit          3D

 30 30  0  0  1  0  0  0  0  0999 V2000
    7.3563  -16.1737   19.8697 N   0  0  0  0  0  0  0  0  0  0  0  0
    8.7745  -15.8195   19.8595 C   0  0  1  0  0  0  0  0  0  0  0  0
    8.9823  -14.5647   19.0102 C   0  0  0  0  0  0  0  0  0  0  0  0
    8.3197  -14.8144   17.6797 C   0  0  0  0  0  0  0  0  0  0  0  0
    8.6392  -13.6848   16.7440 C   0  0  0  0  0  0  0  0  0  0  0  0
    8.0201  -13.9277   15.4037 C   0  0  0  0  0  0  0  0  0  0  0  0
    8.3105  -12.7839   14.5461 N   0  0  0  0  0  0  0  0  0  0  0  0
    9.1280  -15.4027   21.2565 C   0  0  0  0  0  0  0  0  0  0  0  0
   10.3268  -15.1291   21.5892 O   0  0  0  0  0  0  0  0  0  0  0  0
    8.1579  -15.2916   22.2730 N   0  0  0  0  0  0  0  0  0  0  0  0
    8.4900  -14.7808   23.6346 C   0  0  1  0  0  0  0  0  0  0  0  0
    7.3317  -13.9101   23.9603 C   0  0  0  0  0  0  0  0  0  0  0  0
    7.2979  -13.2224   25.2325 C   0  0  0  0  0  0  0  0  0  0  0  0
    6.1982  -13.2092   26.0819 C   0  0  0  0  0  0  0  0  0  0  0  0
    6.2523  -12.5552   27.3101 C   0  0  0  0  0  0  0  0  0  0  0  0
    7.3836  -11.9092   27.7157 C   0  0  0  0  0  0  0  0  0  0  0  0
    8.4755  -11.9033   26.9076 C   0  0  0  0  0  0  0  0  0  0  0  0
    8.4200  -12.5608   25.6737 C   0  0  0  0  0  0  0  0  0  0  0  0
    8.6599  -15.9805   24.4408 C   0  0  0  0  0  0  0  0  0  0  0  0
    7.8048  -16.8914   24.4225 O   0  0  0  0  0  0  0  0  0  0  0  0
   12.2526  -21.5820   24.9913 N   0  0  0  0  0  0  0  0  0  0  0  0
   12.4620  -20.2567   25.4307 C   0  0  0  0  0  0  0  0  0  0  0  0
   13.5737  -19.7054   25.2812 O   0  0  0  0  0  0  0  0  0  0  0  0
   11.3609  -19.5169   26.0708 C   0  0  0  0  0  0  0  0  0  0  0  0
   11.1067  -18.2086   25.3296 C   0  0  0  0  0  0  0  0  0  0  0  0
    9.9734  -17.4198   26.0159 C   0  0  2  0  0  0  0  0  0  0  0  0
    9.7934  -16.1638   25.2656 N   0  0  0  0  0  0  0  0  0  0  0  0
   10.3616  -17.0693   27.3940 C   0  0  0  0  0  0  0  0  0  0  0  0
   10.6747  -15.7653   27.7537 O   0  0  0  0  0  0  0  0  0  0  0  0
   10.4319  -17.9296   28.3196 O   0  0  0  0  0  0  0  0  0  0  0  0
  2  1  1  1
  2  8  1  0
  2  3  1  0
  3  4  1  0
  4  5  1  0
  5  6  1  0
  7  6  1  0
  8  9  2  0
 10 11  1  0
 10  8  1  0
 11 12  1  1
 12 13  1  0
 13 18  2  0
 13 14  1  0
 14 15  2  0
 15 16  1  0
 17 16  2  0
 18 17  1  0
 19 11  1  0
 20 19  2  0
 22 21  1  0
 22 23  2  0
 24 22  1  0
 26 25  1  6
 25 24  1  0
 26 27  1  0
 27 19  1  0
 28 29  1  0
 28 26  1  0
 30 28  2  0
M  END
$$$$
