KFQ.pdb
     RDKit          3D

 30 30  0  0  1  0  0  0  0  0999 V2000
    9.3256  -16.7087   18.9041 N   0  0  0  0  0  0  0  0  0  0  0  0
    8.5379  -17.1488   20.0542 C   0  0  1  0  0  0  0  0  0  0  0  0
    8.9963  -18.5428   20.4849 C   0  0  0  0  0  0  0  0  0  0  0  0
    8.5049  -19.5138   19.4422 C   0  0  0  0  0  0  0  0  0  0  0  0
    8.0816  -20.7900   20.1097 C   0  0  0  0  0  0  0  0  0  0  0  0
    7.6824  -21.8057   19.0862 C   0  0  0  0  0  0  0  0  0  0  0  0
    7.4521  -23.0777   19.7622 N   0  0  0  0  0  0  0  0  0  0  0  0
    8.9028  -16.2515   21.1995 C   0  0  0  0  0  0  0  0  0  0  0  0
   10.1140  -15.9461   21.4497 O   0  0  0  0  0  0  0  0  0  0  0  0
    7.9305  -15.6995   22.0578 N   0  0  0  0  0  0  0  0  0  0  0  0
    8.2938  -14.8253   23.2106 C   0  0  1  0  0  0  0  0  0  0  0  0
    7.0193  -14.1291   23.5213 C   0  0  0  0  0  0  0  0  0  0  0  0
    6.9234  -13.3295   24.7229 C   0  0  0  0  0  0  0  0  0  0  0  0
    7.6588  -12.1723   24.9494 C   0  0  0  0  0  0  0  0  0  0  0  0
    7.4856  -11.4331   26.1167 C   0  0  0  0  0  0  0  0  0  0  0  0
    6.5911  -11.8215   27.0711 C   0  0  0  0  0  0  0  0  0  0  0  0
    5.8574  -12.9486   26.8796 C   0  0  0  0  0  0  0  0  0  0  0  0
    6.0323  -13.6906   25.7063 C   0  0  0  0  0  0  0  0  0  0  0  0
    8.8047  -15.7450   24.2164 C   0  0  0  0  0  0  0  0  0  0  0  0
    8.2669  -16.8578   24.3994 O   0  0  0  0  0  0  0  0  0  0  0  0
   14.4481  -17.0345   24.2149 N   0  0  0  0  0  0  0  0  0  0  0  0
   14.1600  -17.7071   25.4223 C   0  0  0  0  0  0  0  0  0  0  0  0
   14.9012  -18.6271   25.8302 O   0  0  0  0  0  0  0  0  0  0  0  0
   12.9758  -17.3212   26.2087 C   0  0  0  0  0  0  0  0  0  0  0  0
   12.1550  -16.2853   25.4477 C   0  0  0  0  0  0  0  0  0  0  0  0
   10.6534  -16.4763   25.7412 C   0  0  2  0  0  0  0  0  0  0  0  0
    9.9246  -15.4202   25.0158 N   0  0  0  0  0  0  0  0  0  0  0  0
   10.3909  -16.2971   27.1805 C   0  0  0  0  0  0  0  0  0  0  0  0
   10.6917  -17.2882   28.1052 O   0  0  0  0  0  0  0  0  0  0  0  0
    9.8800  -15.2392   27.6514 O   0  0  0  0  0  0  0  0  0  0  0  0
  2  1  1  6
  2  8  1  0
  2  3  1  0
  3  4  1  0
  4  5  1  0
  5  6  1  0
  7  6  1  0
  8  9  2  0
 10 11  1  0
 10  8  1  0
 11 12  1  1
 12 13  1  0
 13 18  2  0
 13 14  1  0
 14 15  2  0
 15 16  1  0
 17 16  2  0
 18 17  1  0
 19 11  1  0
 20 19  2  0
 22 21  1  0
 22 23  2  0
 24 22  1  0
 26 25  1  1
 25 24  1  0
 26 27  1  0
 27 19  1  0
 28 29  1  0
 28 26  1  0
 30 28  2  0
M  END
$$$$
