KFQ.pdb
     RDKit          3D

 30 30  0  0  1  0  0  0  0  0999 V2000
    7.4520  -16.2202   19.5877 N   0  0  0  0  0  0  0  0  0  0  0  0
    8.7477  -15.5437   19.5635 C   0  0  1  0  0  0  0  0  0  0  0  0
    8.6512  -14.2844   18.7011 C   0  0  0  0  0  0  0  0  0  0  0  0
    8.1275  -14.7084   17.3530 C   0  0  0  0  0  0  0  0  0  0  0  0
    8.5888  -13.7327   16.3096 C   0  0  0  0  0  0  0  0  0  0  0  0
    8.0189  -14.0908   14.9733 C   0  0  0  0  0  0  0  0  0  0  0  0
    8.4487  -13.0890   14.0038 N   0  0  0  0  0  0  0  0  0  0  0  0
    9.0010  -15.0408   20.9538 C   0  0  0  0  0  0  0  0  0  0  0  0
   10.1392  -14.5882   21.3038 O   0  0  0  0  0  0  0  0  0  0  0  0
    7.9986  -15.0416   21.9448 N   0  0  0  0  0  0  0  0  0  0  0  0
    8.2636  -14.5915   23.3420 C   0  0  1  0  0  0  0  0  0  0  0  0
    7.0580  -13.7897   23.6729 C   0  0  0  0  0  0  0  0  0  0  0  0
    6.9328  -13.2100   24.9922 C   0  0  0  0  0  0  0  0  0  0  0  0
    6.0690  -13.6835   25.9724 C   0  0  0  0  0  0  0  0  0  0  0  0
    6.0300  -13.0959   27.2343 C   0  0  0  0  0  0  0  0  0  0  0  0
    6.8363  -12.0403   27.5458 C   0  0  0  0  0  0  0  0  0  0  0  0
    7.6913  -11.5537   26.6091 C   0  0  0  0  0  0  0  0  0  0  0  0
    7.7297  -12.1449   25.3414 C   0  0  0  0  0  0  0  0  0  0  0  0
    8.4605  -15.8248   24.0894 C   0  0  0  0  0  0  0  0  0  0  0  0
    7.9042  -16.8855   23.7334 O   0  0  0  0  0  0  0  0  0  0  0  0
   11.6813  -19.6288   23.2087 N   0  0  0  0  0  0  0  0  0  0  0  0
   12.3473  -18.4794   23.6867 C   0  0  0  0  0  0  0  0  0  0  0  0
   13.5240  -18.2368   23.3420 O   0  0  0  0  0  0  0  0  0  0  0  0
   11.6496  -17.5576   24.5994 C   0  0  0  0  0  0  0  0  0  0  0  0
   10.2493  -18.0798   24.9036 C   0  0  0  0  0  0  0  0  0  0  0  0
    9.5445  -17.1542   25.9155 C   0  0  2  0  0  0  0  0  0  0  0  0
    9.2871  -15.8721   25.2353 N   0  0  0  0  0  0  0  0  0  0  0  0
   10.4321  -16.8856   27.0613 C   0  0  0  0  0  0  0  0  0  0  0  0
   10.8629  -15.6009   27.3641 O   0  0  0  0  0  0  0  0  0  0  0  0
   10.8493  -17.8029   27.8271 O   0  0  0  0  0  0  0  0  0  0  0  0
  2  1  1  1
  2  8  1  0
  2  3  1  0
  3  4  1  0
  4  5  1  0
  5  6  1  0
  7  6  1  0
  8  9  2  0
 10 11  1  0
 10  8  1  0
 11 12  1  1
 12 13  1  0
 13 18  2  0
 13 14  1  0
 14 15  2  0
 15 16  1  0
 17 16  2  0
 18 17  1  0
 19 11  1  0
 20 19  2  0
 22 21  1  0
 22 23  2  0
 24 22  1  0
 26 25  1  6
 25 24  1  0
 26 27  1  0
 27 19  1  0
 28 29  1  0
 28 26  1  0
 30 28  2  0
M  END
$$$$
