KFQ.pdb
     RDKit          3D

 30 30  0  0  1  0  0  0  0  0999 V2000
    8.3482  -17.2093   19.6785 N   0  0  0  0  0  0  0  0  0  0  0  0
    8.0237  -17.7317   21.0046 C   0  0  1  0  0  0  0  0  0  0  0  0
    8.9171  -18.9339   21.3135 C   0  0  0  0  0  0  0  0  0  0  0  0
    8.1446  -20.1708   20.9325 C   0  0  0  0  0  0  0  0  0  0  0  0
    8.9571  -21.3882   21.2656 C   0  0  0  0  0  0  0  0  0  0  0  0
    8.2153  -22.6301   20.8836 C   0  0  0  0  0  0  0  0  0  0  0  0
    9.0312  -23.7850   21.2425 N   0  0  0  0  0  0  0  0  0  0  0  0
    8.4317  -16.6828   21.9963 C   0  0  0  0  0  0  0  0  0  0  0  0
    9.5068  -16.0138   21.8573 O   0  0  0  0  0  0  0  0  0  0  0  0
    7.6519  -16.3813   23.1311 N   0  0  0  0  0  0  0  0  0  0  0  0
    8.1114  -15.4231   24.1780 C   0  0  1  0  0  0  0  0  0  0  0  0
    6.8396  -14.8896   24.7290 C   0  0  0  0  0  0  0  0  0  0  0  0
    6.8840  -13.9063   25.7890 C   0  0  0  0  0  0  0  0  0  0  0  0
    7.2170  -14.1958   27.1068 C   0  0  0  0  0  0  0  0  0  0  0  0
    7.2747  -13.1886   28.0666 C   0  0  0  0  0  0  0  0  0  0  0  0
    7.0068  -11.8904   27.7433 C   0  0  0  0  0  0  0  0  0  0  0  0
    6.6776  -11.5750   26.4637 C   0  0  0  0  0  0  0  0  0  0  0  0
    6.6198  -12.5879   25.5001 C   0  0  0  0  0  0  0  0  0  0  0  0
    8.9307  -16.2280   25.0720 C   0  0  0  0  0  0  0  0  0  0  0  0
    8.5120  -17.3174   25.5183 O   0  0  0  0  0  0  0  0  0  0  0  0
   15.0005  -15.9257   24.8102 N   0  0  0  0  0  0  0  0  0  0  0  0
   14.0273  -16.2860   23.8529 C   0  0  0  0  0  0  0  0  0  0  0  0
   14.3159  -16.3281   22.6375 O   0  0  0  0  0  0  0  0  0  0  0  0
   12.6599  -16.6155   24.2901 C   0  0  0  0  0  0  0  0  0  0  0  0
   12.5422  -16.4665   25.8033 C   0  0  0  0  0  0  0  0  0  0  0  0
   11.0875  -16.7139   26.2507 C   0  0  2  0  0  0  0  0  0  0  0  0
   10.2250  -15.8149   25.4630 N   0  0  0  0  0  0  0  0  0  0  0  0
   10.9269  -16.3604   27.6726 C   0  0  0  0  0  0  0  0  0  0  0  0
   10.2181  -15.2338   28.0680 O   0  0  0  0  0  0  0  0  0  0  0  0
   11.4224  -17.0569   28.6060 O   0  0  0  0  0  0  0  0  0  0  0  0
  2  1  1  6
  2  8  1  0
  2  3  1  0
  3  4  1  0
  4  5  1  0
  5  6  1  0
  7  6  1  0
  8  9  2  0
 10 11  1  0
 10  8  1  0
 11 12  1  1
 12 13  1  0
 13 18  2  0
 13 14  1  0
 14 15  2  0
 15 16  1  0
 17 16  2  0
 18 17  1  0
 19 11  1  0
 20 19  2  0
 22 21  1  0
 22 23  2  0
 24 22  1  0
 26 25  1  6
 25 24  1  0
 26 27  1  0
 27 19  1  0
 28 29  1  0
 28 26  1  0
 30 28  2  0
M  END
$$$$
