KFQ.pdb
     RDKit          3D

 30 30  0  0  1  0  0  0  0  0999 V2000
    7.2505  -15.9638   19.8726 N   0  0  0  0  0  0  0  0  0  0  0  0
    8.6276  -16.3155   20.2143 C   0  0  1  0  0  0  0  0  0  0  0  0
    9.5917  -15.5409   19.3147 C   0  0  0  0  0  0  0  0  0  0  0  0
    8.8489  -15.2150   18.0444 C   0  0  0  0  0  0  0  0  0  0  0  0
    8.5254  -13.7493   18.0183 C   0  0  0  0  0  0  0  0  0  0  0  0
    8.0840  -13.3376   16.6492 C   0  0  0  0  0  0  0  0  0  0  0  0
    8.4409  -14.3958   15.7105 N   0  0  0  0  0  0  0  0  0  0  0  0
    8.8805  -15.7880   21.5956 C   0  0  0  0  0  0  0  0  0  0  0  0
   10.0345  -15.8454   22.1321 O   0  0  0  0  0  0  0  0  0  0  0  0
    7.8602  -15.2027   22.3722 N   0  0  0  0  0  0  0  0  0  0  0  0
    8.0918  -14.7473   23.7737 C   0  0  1  0  0  0  0  0  0  0  0  0
    7.3372  -13.4700   23.8427 C   0  0  0  0  0  0  0  0  0  0  0  0
    7.1352  -12.8348   25.1265 C   0  0  0  0  0  0  0  0  0  0  0  0
    8.1424  -12.2144   25.8558 C   0  0  0  0  0  0  0  0  0  0  0  0
    7.8647  -11.5905   27.0694 C   0  0  0  0  0  0  0  0  0  0  0  0
    6.5989  -11.5696   27.5781 C   0  0  0  0  0  0  0  0  0  0  0  0
    5.5923  -12.1679   26.8894 C   0  0  0  0  0  0  0  0  0  0  0  0
    5.8725  -12.7945   25.6700 C   0  0  0  0  0  0  0  0  0  0  0  0
    7.6062  -15.8450   24.5968 C   0  0  0  0  0  0  0  0  0  0  0  0
    6.5877  -16.4901   24.2688 O   0  0  0  0  0  0  0  0  0  0  0  0
    6.8332  -20.5161   23.7789 N   0  0  0  0  0  0  0  0  0  0  0  0
    6.8331  -20.8515   25.1503 C   0  0  0  0  0  0  0  0  0  0  0  0
    6.5011  -21.9968   25.5248 O   0  0  0  0  0  0  0  0  0  0  0  0
    7.2279  -19.8432   26.1488 C   0  0  0  0  0  0  0  0  0  0  0  0
    7.4555  -18.4954   25.4722 C   0  0  0  0  0  0  0  0  0  0  0  0
    7.8443  -17.4331   26.5200 C   0  0  2  0  0  0  0  0  0  0  0  0
    8.2662  -16.2254   25.7878 N   0  0  0  0  0  0  0  0  0  0  0  0
    8.9933  -17.9017   27.3155 C   0  0  0  0  0  0  0  0  0  0  0  0
   10.2262  -17.2656   27.2599 O   0  0  0  0  0  0  0  0  0  0  0  0
    8.9225  -18.9025   28.0870 O   0  0  0  0  0  0  0  0  0  0  0  0
  2  1  1  6
  2  8  1  0
  2  3  1  0
  3  4  1  0
  4  5  1  0
  5  6  1  0
  7  6  1  0
  8  9  2  0
 10 11  1  0
 10  8  1  0
 11 12  1  1
 12 13  1  0
 13 18  2  0
 13 14  1  0
 14 15  2  0
 15 16  1  0
 17 16  2  0
 18 17  1  0
 19 11  1  0
 20 19  2  0
 22 21  1  0
 22 23  2  0
 24 22  1  0
 26 25  1  6
 25 24  1  0
 26 27  1  0
 27 19  1  0
 28 29  1  0
 28 26  1  0
 30 28  2  0
M  END
$$$$
