TWL.pdb
     RDKit          3D

 30 31  0  0  1  0  0  0  0  0999 V2000
   12.2252  -19.7765   19.1597 C   0  0  0  0  0  0  0  0  0  0  0  0
   11.9010  -18.8361   20.2865 C   0  0  1  0  0  0  0  0  0  0  0  0
   13.0613  -18.2100   20.7210 O   0  0  0  0  0  0  0  0  0  0  0  0
   10.9217  -17.7587   19.8671 C   0  0  2  0  0  0  0  0  0  0  0  0
   11.5224  -16.9205   18.8156 N   0  0  0  0  0  0  0  0  0  0  0  0
   10.5953  -16.8468   20.9838 C   0  0  0  0  0  0  0  0  0  0  0  0
   11.2376  -15.7500   21.1633 O   0  0  0  0  0  0  0  0  0  0  0  0
    9.5532  -17.1642   21.8928 N   0  0  0  0  0  0  0  0  0  0  0  0
    9.1886  -16.2727   23.0060 C   0  0  1  0  0  0  0  0  0  0  0  0
    7.7011  -16.2475   23.0284 C   0  0  0  0  0  0  0  0  0  0  0  0
    7.0892  -15.5288   24.1658 C   0  0  0  0  0  0  0  0  0  0  0  0
    6.4143  -16.1323   25.2450 C   0  0  0  0  0  0  0  0  0  0  0  0
    6.0206  -15.2041   26.0974 N   0  0  0  0  0  0  0  0  0  0  0  0
    6.3899  -13.9883   25.6598 C   0  0  0  0  0  0  0  0  0  0  0  0
    6.2190  -12.7102   26.1684 C   0  0  0  0  0  0  0  0  0  0  0  0
    6.7201  -11.6595   25.4553 C   0  0  0  0  0  0  0  0  0  0  0  0
    7.3783  -11.8315   24.2662 C   0  0  0  0  0  0  0  0  0  0  0  0
    7.5444  -13.0930   23.7692 C   0  0  0  0  0  0  0  0  0  0  0  0
    7.0572  -14.1998   24.4508 C   0  0  0  0  0  0  0  0  0  0  0  0
    9.8857  -16.6842   24.2255 C   0  0  0  0  0  0  0  0  0  0  0  0
    9.6967  -17.8501   24.7254 O   0  0  0  0  0  0  0  0  0  0  0  0
   11.1278  -14.6001   29.2721 C   0  0  0  0  0  0  0  0  0  0  0  0
    9.9373  -14.6517   28.3732 C   0  0  1  0  0  0  0  0  0  0  0  0
    8.9576  -13.5157   28.6757 C   0  0  0  0  0  0  0  0  0  0  0  0
   10.1636  -14.8492   26.9395 C   0  0  0  0  0  0  0  0  0  0  0  0
   10.9679  -15.9759   26.4159 C   0  0  2  0  0  0  0  0  0  0  0  0
   10.8011  -15.8706   24.9319 N   0  0  0  0  0  0  0  0  0  0  0  0
   10.7085  -17.3148   26.8691 C   0  0  0  0  0  0  0  0  0  0  0  0
   11.5608  -18.1050   27.3199 O   0  0  0  0  0  0  0  0  0  0  0  0
    9.4117  -17.8314   26.8280 O   0  0  0  0  0  0  0  0  0  0  0  0
  2  1  1  6
  2  3  1  0
  4  2  1  0
  4  5  1  6
  6  7  2  0
  6  4  1  0
  8  6  1  0
  9  8  1  0
 10 11  1  0
  9 10  1  1
 11 19  1  0
 11 12  2  0
 12 13  1  0
 14 13  1  0
 14 15  2  0
 16 15  1  0
 17 16  2  0
 18 19  2  0
 18 17  1  0
 19 14  1  0
 20 21  2  0
 20  9  1  0
 23 25  1  0
 23 22  1  1
 24 23  1  0
 26 25  1  1
 26 27  1  0
 27 20  1  0
 28 26  1  0
 29 28  2  0
 30 28  1  0
M  END
$$$$
