TWL.pdb
     RDKit          3D

 30 31  0  0  1  0  0  0  0  0999 V2000
   12.4931  -18.9865   21.2117 C   0  0  0  0  0  0  0  0  0  0  0  0
   12.3479  -18.1575   19.9665 C   0  0  1  0  0  0  0  0  0  0  0  0
   12.7760  -18.8878   18.8663 O   0  0  0  0  0  0  0  0  0  0  0  0
   10.9109  -17.7456   19.7192 C   0  0  2  0  0  0  0  0  0  0  0  0
   10.8009  -17.0802   18.4100 N   0  0  0  0  0  0  0  0  0  0  0  0
   10.4394  -16.7650   20.7200 C   0  0  0  0  0  0  0  0  0  0  0  0
   10.6900  -15.5118   20.6002 O   0  0  0  0  0  0  0  0  0  0  0  0
    9.6904  -17.1893   21.8477 N   0  0  0  0  0  0  0  0  0  0  0  0
    9.2634  -16.2523   22.8997 C   0  0  1  0  0  0  0  0  0  0  0  0
    7.7772  -16.3206   22.9179 C   0  0  0  0  0  0  0  0  0  0  0  0
    7.1163  -15.6091   24.0321 C   0  0  0  0  0  0  0  0  0  0  0  0
    6.3955  -16.2194   25.0773 C   0  0  0  0  0  0  0  0  0  0  0  0
    5.9649  -15.2966   25.9176 N   0  0  0  0  0  0  0  0  0  0  0  0
    6.3524  -14.0780   25.5041 C   0  0  0  0  0  0  0  0  0  0  0  0
    6.1592  -12.8032   26.0129 C   0  0  0  0  0  0  0  0  0  0  0  0
    6.6904  -11.7481   25.3288 C   0  0  0  0  0  0  0  0  0  0  0  0
    7.3996  -11.9125   24.1683 C   0  0  0  0  0  0  0  0  0  0  0  0
    7.5875  -13.1709   23.6710 C   0  0  0  0  0  0  0  0  0  0  0  0
    7.0716  -14.2820   24.3239 C   0  0  0  0  0  0  0  0  0  0  0  0
    9.9779  -16.5383   24.1447 C   0  0  0  0  0  0  0  0  0  0  0  0
   10.1209  -17.7452   24.5545 O   0  0  0  0  0  0  0  0  0  0  0  0
   11.7076  -14.7551   29.2569 C   0  0  0  0  0  0  0  0  0  0  0  0
   10.3672  -14.6422   28.6098 C   0  0  1  0  0  0  0  0  0  0  0  0
    9.5676  -13.4682   29.1793 C   0  0  0  0  0  0  0  0  0  0  0  0
   10.2966  -14.7311   27.1494 C   0  0  0  0  0  0  0  0  0  0  0  0
   10.9328  -15.8341   26.3948 C   0  0  2  0  0  0  0  0  0  0  0  0
   10.5603  -15.5513   24.9728 N   0  0  0  0  0  0  0  0  0  0  0  0
   10.6458  -17.1993   26.7402 C   0  0  0  0  0  0  0  0  0  0  0  0
   11.4739  -18.0286   27.1649 O   0  0  0  0  0  0  0  0  0  0  0  0
    9.3476  -17.6981   26.6128 O   0  0  0  0  0  0  0  0  0  0  0  0
  2  1  1  1
  2  3  1  0
  4  2  1  0
  4  5  1  6
  6  7  2  0
  6  4  1  0
  8  6  1  0
  9  8  1  0
 10 11  1  0
  9 10  1  1
 11 19  1  0
 11 12  2  0
 12 13  1  0
 14 13  1  0
 14 15  2  0
 16 15  1  0
 17 16  2  0
 18 19  2  0
 18 17  1  0
 19 14  1  0
 20 21  2  0
 20  9  1  0
 23 25  1  0
 23 22  1  6
 24 23  1  0
 26 25  1  1
 26 27  1  0
 27 20  1  0
 28 26  1  0
 29 28  2  0
 30 28  1  0
M  END
$$$$
