TWL.pdb
     RDKit          3D

 30 31  0  0  1  0  0  0  0  0999 V2000
    7.3243  -19.3618   19.8585 C   0  0  0  0  0  0  0  0  0  0  0  0
    8.2828  -18.9408   18.7801 C   0  0  1  0  0  0  0  0  0  0  0  0
    7.9288  -19.5414   17.5798 O   0  0  0  0  0  0  0  0  0  0  0  0
    8.2792  -17.4407   18.5670 C   0  0  2  0  0  0  0  0  0  0  0  0
    9.1427  -17.0970   17.4245 N   0  0  0  0  0  0  0  0  0  0  0  0
    8.8316  -16.7179   19.7322 C   0  0  0  0  0  0  0  0  0  0  0  0
   10.0843  -16.7523   20.0101 O   0  0  0  0  0  0  0  0  0  0  0  0
    7.9824  -15.9604   20.5795 N   0  0  0  0  0  0  0  0  0  0  0  0
    8.4591  -15.3769   21.8441 C   0  0  1  0  0  0  0  0  0  0  0  0
    7.4578  -14.3384   22.2088 C   0  0  0  0  0  0  0  0  0  0  0  0
    7.7579  -13.5586   23.4279 C   0  0  0  0  0  0  0  0  0  0  0  0
    8.6232  -12.4490   23.4950 C   0  0  0  0  0  0  0  0  0  0  0  0
    8.6386  -11.9718   24.7259 N   0  0  0  0  0  0  0  0  0  0  0  0
    7.8266  -12.6975   25.5132 C   0  0  0  0  0  0  0  0  0  0  0  0
    7.4985  -12.6195   26.8576 C   0  0  0  0  0  0  0  0  0  0  0  0
    6.6254  -13.5390   27.3633 C   0  0  0  0  0  0  0  0  0  0  0  0
    6.0722  -14.5241   26.5886 C   0  0  0  0  0  0  0  0  0  0  0  0
    6.3985  -14.5968   25.2641 C   0  0  0  0  0  0  0  0  0  0  0  0
    7.2799  -13.6885   24.6940 C   0  0  0  0  0  0  0  0  0  0  0  0
    8.7297  -16.4387   22.8146 C   0  0  0  0  0  0  0  0  0  0  0  0
    8.3418  -17.6411   22.5940 O   0  0  0  0  0  0  0  0  0  0  0  0
   11.8209  -20.0857   23.1684 C   0  0  0  0  0  0  0  0  0  0  0  0
   12.2242  -18.6750   23.4425 C   0  0  1  0  0  0  0  0  0  0  0  0
   13.4961  -18.2979   22.6796 C   0  0  0  0  0  0  0  0  0  0  0  0
   11.1907  -17.6385   23.3848 C   0  0  0  0  0  0  0  0  0  0  0  0
   10.3782  -17.2685   24.5653 C   0  0  2  0  0  0  0  0  0  0  0  0
    9.4232  -16.2466   24.0316 N   0  0  0  0  0  0  0  0  0  0  0  0
   11.0217  -16.7966   25.7605 C   0  0  0  0  0  0  0  0  0  0  0  0
   11.1407  -17.4400   26.8215 O   0  0  0  0  0  0  0  0  0  0  0  0
   11.5826  -15.5182   25.7984 O   0  0  0  0  0  0  0  0  0  0  0  0
  2  1  1  1
  2  3  1  0
  4  2  1  0
  4  5  1  6
  6  7  2  0
  6  4  1  0
  8  6  1  0
  9  8  1  0
 10 11  1  0
  9 10  1  1
 11 19  1  0
 11 12  2  0
 12 13  1  0
 14 13  1  0
 14 15  2  0
 16 15  1  0
 17 16  2  0
 18 19  2  0
 18 17  1  0
 19 14  1  0
 20 21  2  0
 20  9  1  0
 23 25  1  0
 23 22  1  6
 24 23  1  0
 26 25  1  6
 26 27  1  0
 27 20  1  0
 28 26  1  0
 29 28  2  0
 30 28  1  0
M  END
$$$$
