TWL.pdb
     RDKit          3D

 30 31  0  0  1  0  0  0  0  0999 V2000
   12.3827  -19.8695   20.1934 C   0  0  0  0  0  0  0  0  0  0  0  0
   11.9409  -18.8862   21.2407 C   0  0  1  0  0  0  0  0  0  0  0  0
   13.0470  -18.4117   21.9323 O   0  0  0  0  0  0  0  0  0  0  0  0
   11.2240  -17.6948   20.6388 C   0  0  2  0  0  0  0  0  0  0  0  0
   12.1278  -16.9798   19.7217 N   0  0  0  0  0  0  0  0  0  0  0  0
   10.8246  -16.7141   21.6703 C   0  0  0  0  0  0  0  0  0  0  0  0
   11.5420  -15.6810   21.9266 O   0  0  0  0  0  0  0  0  0  0  0  0
    9.6264  -16.8922   22.4088 N   0  0  0  0  0  0  0  0  0  0  0  0
    9.1998  -15.9405   23.4476 C   0  0  1  0  0  0  0  0  0  0  0  0
    7.7353  -16.1499   23.6060 C   0  0  0  0  0  0  0  0  0  0  0  0
    7.0426  -15.1909   24.4919 C   0  0  0  0  0  0  0  0  0  0  0  0
    6.3422  -15.5247   25.6677 C   0  0  0  0  0  0  0  0  0  0  0  0
    5.8723  -14.4271   26.2313 N   0  0  0  0  0  0  0  0  0  0  0  0
    6.2132  -13.3509   25.5023 C   0  0  0  0  0  0  0  0  0  0  0  0
    5.9681  -11.9946   25.6502 C   0  0  0  0  0  0  0  0  0  0  0  0
    6.4601  -11.1429   24.7037 C   0  0  0  0  0  0  0  0  0  0  0  0
    7.1798  -11.5861   23.6256 C   0  0  0  0  0  0  0  0  0  0  0  0
    7.4189  -12.9236   23.4843 C   0  0  0  0  0  0  0  0  0  0  0  0
    6.9445  -13.8370   24.4157 C   0  0  0  0  0  0  0  0  0  0  0  0
   10.0448  -16.0829   24.6343 C   0  0  0  0  0  0  0  0  0  0  0  0
   10.8804  -15.1648   24.9564 O   0  0  0  0  0  0  0  0  0  0  0  0
    9.2676  -14.0818   28.7687 C   0  0  0  0  0  0  0  0  0  0  0  0
   10.1165  -14.8619   27.8205 C   0  0  1  0  0  0  0  0  0  0  0  0
   11.6036  -14.5653   28.0263 C   0  0  0  0  0  0  0  0  0  0  0  0
    9.8326  -16.2894   27.6549 C   0  0  0  0  0  0  0  0  0  0  0  0
   10.6926  -17.1750   26.8384 C   0  0  2  0  0  0  0  0  0  0  0  0
   10.0133  -17.1967   25.5046 N   0  0  0  0  0  0  0  0  0  0  0  0
   10.9834  -18.5082   27.2894 C   0  0  0  0  0  0  0  0  0  0  0  0
   11.7805  -18.8072   28.2001 O   0  0  0  0  0  0  0  0  0  0  0  0
   10.3501  -19.6036   26.6983 O   0  0  0  0  0  0  0  0  0  0  0  0
  2  1  1  6
  2  3  1  0
  4  2  1  0
  4  5  1  6
  6  7  2  0
  6  4  1  0
  8  6  1  0
  9  8  1  0
 10 11  1  0
  9 10  1  1
 11 19  1  0
 11 12  2  0
 12 13  1  0
 14 13  1  0
 14 15  2  0
 16 15  1  0
 17 16  2  0
 18 19  2  0
 18 17  1  0
 19 14  1  0
 20 21  2  0
 20  9  1  0
 23 25  1  0
 23 22  1  1
 24 23  1  0
 26 25  1  1
 26 27  1  0
 27 20  1  0
 28 26  1  0
 29 28  2  0
 30 28  1  0
M  END
$$$$
