TWL.pdb
     RDKit          3D

 30 31  0  0  1  0  0  0  0  0999 V2000
   12.5334  -15.5362   19.6546 C   0  0  0  0  0  0  0  0  0  0  0  0
   11.4600  -16.5880   19.6353 C   0  0  1  0  0  0  0  0  0  0  0  0
   11.6297  -17.4086   18.5285 O   0  0  0  0  0  0  0  0  0  0  0  0
   11.4962  -17.4633   20.8715 C   0  0  2  0  0  0  0  0  0  0  0  0
   10.5732  -18.5989   20.7060 N   0  0  0  0  0  0  0  0  0  0  0  0
   11.0409  -16.7352   22.0749 C   0  0  0  0  0  0  0  0  0  0  0  0
   11.5677  -15.6171   22.4212 O   0  0  0  0  0  0  0  0  0  0  0  0
    9.9997  -17.2593   22.8836 N   0  0  0  0  0  0  0  0  0  0  0  0
    9.5370  -16.5753   24.1022 C   0  0  1  0  0  0  0  0  0  0  0  0
    8.0508  -16.6080   24.0404 C   0  0  0  0  0  0  0  0  0  0  0  0
    7.3883  -15.3011   23.8464 C   0  0  0  0  0  0  0  0  0  0  0  0
    6.9473  -14.7845   22.6122 C   0  0  0  0  0  0  0  0  0  0  0  0
    6.3734  -13.6107   22.8018 N   0  0  0  0  0  0  0  0  0  0  0  0
    6.3965  -13.2903   24.1068 C   0  0  0  0  0  0  0  0  0  0  0  0
    5.9421  -12.1899   24.8166 C   0  0  0  0  0  0  0  0  0  0  0  0
    6.1340  -12.1694   26.1679 C   0  0  0  0  0  0  0  0  0  0  0  0
    6.7556  -13.1931   26.8330 C   0  0  0  0  0  0  0  0  0  0  0  0
    7.2015  -14.2756   26.1291 C   0  0  0  0  0  0  0  0  0  0  0  0
    7.0334  -14.3525   24.7534 C   0  0  0  0  0  0  0  0  0  0  0  0
   10.1870  -17.1547   25.2788 C   0  0  0  0  0  0  0  0  0  0  0  0
   10.8338  -18.2588   25.1916 O   0  0  0  0  0  0  0  0  0  0  0  0
   10.5743  -13.7543   29.5235 C   0  0  0  0  0  0  0  0  0  0  0  0
   10.8381  -14.7371   28.4315 C   0  0  1  0  0  0  0  0  0  0  0  0
   12.0410  -14.3208   27.5821 C   0  0  0  0  0  0  0  0  0  0  0  0
   10.8400  -16.1619   28.7715 C   0  0  0  0  0  0  0  0  0  0  0  0
   10.8405  -17.2197   27.7363 C   0  0  2  0  0  0  0  0  0  0  0  0
   10.1698  -16.5703   26.5661 N   0  0  0  0  0  0  0  0  0  0  0  0
   10.2548  -18.5012   28.0190 C   0  0  0  0  0  0  0  0  0  0  0  0
   10.7415  -19.3709   28.7678 O   0  0  0  0  0  0  0  0  0  0  0  0
    9.0369  -18.8606   27.4375 O   0  0  0  0  0  0  0  0  0  0  0  0
  2  1  1  1
  2  3  1  0
  4  2  1  0
  4  5  1  6
  6  7  2  0
  6  4  1  0
  8  6  1  0
  9  8  1  0
 10 11  1  0
  9 10  1  1
 11 19  1  0
 11 12  2  0
 12 13  1  0
 14 13  1  0
 14 15  2  0
 16 15  1  0
 17 16  2  0
 18 19  2  0
 18 17  1  0
 19 14  1  0
 20 21  2  0
 20  9  1  0
 23 25  1  0
 23 22  1  1
 24 23  1  0
 26 25  1  1
 26 27  1  0
 27 20  1  0
 28 26  1  0
 29 28  2  0
 30 28  1  0
M  END
$$$$
