TWL.pdb
     RDKit          3D

 30 31  0  0  1  0  0  0  0  0999 V2000
   12.2030  -19.8230   20.1622 C   0  0  0  0  0  0  0  0  0  0  0  0
   11.8261  -18.8118   21.2083 C   0  0  1  0  0  0  0  0  0  0  0  0
   12.9737  -18.2995   21.7978 O   0  0  0  0  0  0  0  0  0  0  0  0
   11.0462  -17.6509   20.6253 C   0  0  2  0  0  0  0  0  0  0  0  0
   11.8870  -16.9179   19.6636 N   0  0  0  0  0  0  0  0  0  0  0  0
   10.6588  -16.6718   21.6628 C   0  0  0  0  0  0  0  0  0  0  0  0
   11.3489  -15.6102   21.8738 O   0  0  0  0  0  0  0  0  0  0  0  0
    9.5029  -16.8832   22.4579 N   0  0  0  0  0  0  0  0  0  0  0  0
    9.0575  -15.9061   23.4647 C   0  0  1  0  0  0  0  0  0  0  0  0
    7.5970  -16.1378   23.6293 C   0  0  0  0  0  0  0  0  0  0  0  0
    6.9123  -15.2528   24.5949 C   0  0  0  0  0  0  0  0  0  0  0  0
    6.3492  -15.6615   25.8198 C   0  0  0  0  0  0  0  0  0  0  0  0
    5.8458  -14.6151   26.4481 N   0  0  0  0  0  0  0  0  0  0  0  0
    6.0327  -13.5031   25.7171 C   0  0  0  0  0  0  0  0  0  0  0  0
    5.6944  -12.1739   25.9176 C   0  0  0  0  0  0  0  0  0  0  0  0
    6.0297  -11.2698   24.9514 C   0  0  0  0  0  0  0  0  0  0  0  0
    6.6827  -11.6354   23.8040 C   0  0  0  0  0  0  0  0  0  0  0  0
    7.0143  -12.9465   23.6111 C   0  0  0  0  0  0  0  0  0  0  0  0
    6.7000  -13.9104   24.5592 C   0  0  0  0  0  0  0  0  0  0  0  0
    9.9038  -15.9936   24.6557 C   0  0  0  0  0  0  0  0  0  0  0  0
   10.9167  -15.2197   24.7969 O   0  0  0  0  0  0  0  0  0  0  0  0
    9.1664  -14.3192   29.2901 C   0  0  0  0  0  0  0  0  0  0  0  0
    9.9594  -14.8968   28.1652 C   0  0  1  0  0  0  0  0  0  0  0  0
   11.3685  -14.3024   28.1102 C   0  0  0  0  0  0  0  0  0  0  0  0
    9.9412  -16.3502   27.9834 C   0  0  0  0  0  0  0  0  0  0  0  0
   10.6467  -17.0139   26.8643 C   0  0  2  0  0  0  0  0  0  0  0  0
    9.6869  -16.8970   25.7215 N   0  0  0  0  0  0  0  0  0  0  0  0
   11.1113  -18.3661   27.0097 C   0  0  0  0  0  0  0  0  0  0  0  0
   12.1874  -18.7097   27.5367 O   0  0  0  0  0  0  0  0  0  0  0  0
   10.3356  -19.4295   26.5428 O   0  0  0  0  0  0  0  0  0  0  0  0
  2  1  1  6
  2  3  1  0
  4  2  1  0
  4  5  1  6
  6  7  2  0
  6  4  1  0
  8  6  1  0
  9  8  1  0
 10 11  1  0
  9 10  1  1
 11 19  1  0
 11 12  2  0
 12 13  1  0
 14 13  1  0
 14 15  2  0
 16 15  1  0
 17 16  2  0
 18 19  2  0
 18 17  1  0
 19 14  1  0
 20 21  2  0
 20  9  1  0
 23 25  1  0
 23 22  1  1
 24 23  1  0
 26 25  1  1
 26 27  1  0
 27 20  1  0
 28 26  1  0
 29 28  2  0
 30 28  1  0
M  END
$$$$
