TWL.pdb
     RDKit          3D

 30 31  0  0  1  0  0  0  0  0999 V2000
   12.1798  -20.0162   20.1188 C   0  0  0  0  0  0  0  0  0  0  0  0
   11.7722  -18.8840   21.0194 C   0  0  1  0  0  0  0  0  0  0  0  0
   12.8996  -18.3216   21.6023 O   0  0  0  0  0  0  0  0  0  0  0  0
   11.0443  -17.7892   20.2663 C   0  0  2  0  0  0  0  0  0  0  0  0
   11.9356  -17.2055   19.2495 N   0  0  0  0  0  0  0  0  0  0  0  0
   10.6516  -16.6763   21.1566 C   0  0  0  0  0  0  0  0  0  0  0  0
   11.3563  -15.6069   21.2438 O   0  0  0  0  0  0  0  0  0  0  0  0
    9.4741  -16.7635   21.9433 N   0  0  0  0  0  0  0  0  0  0  0  0
    9.1311  -15.7476   22.9518 C   0  0  1  0  0  0  0  0  0  0  0  0
    7.6782  -15.9240   23.2200 C   0  0  0  0  0  0  0  0  0  0  0  0
    7.1427  -15.1692   24.3725 C   0  0  0  0  0  0  0  0  0  0  0  0
    6.4456  -15.7280   25.4616 C   0  0  0  0  0  0  0  0  0  0  0  0
    6.1378  -14.7786   26.3259 N   0  0  0  0  0  0  0  0  0  0  0  0
    6.5877  -13.5907   25.8873 C   0  0  0  0  0  0  0  0  0  0  0  0
    6.5216  -12.3067   26.4053 C   0  0  0  0  0  0  0  0  0  0  0  0
    7.0855  -11.2915   25.6878 C   0  0  0  0  0  0  0  0  0  0  0  0
    7.7066  -11.5041   24.4854 C   0  0  0  0  0  0  0  0  0  0  0  0
    7.7694  -12.7713   23.9792 C   0  0  0  0  0  0  0  0  0  0  0  0
    7.2146  -13.8434   24.6646 C   0  0  0  0  0  0  0  0  0  0  0  0
   10.0530  -15.8363   24.0852 C   0  0  0  0  0  0  0  0  0  0  0  0
   11.0690  -15.0576   24.1645 O   0  0  0  0  0  0  0  0  0  0  0  0
    9.8990  -15.2663   29.0367 C   0  0  0  0  0  0  0  0  0  0  0  0
    9.9646  -14.8157   27.6152 C   0  0  1  0  0  0  0  0  0  0  0  0
    9.8985  -13.2907   27.5075 C   0  0  0  0  0  0  0  0  0  0  0  0
   10.9867  -15.4094   26.7500 C   0  0  0  0  0  0  0  0  0  0  0  0
   10.9031  -16.8092   26.2764 C   0  0  2  0  0  0  0  0  0  0  0  0
    9.9100  -16.7459   25.1581 N   0  0  0  0  0  0  0  0  0  0  0  0
   10.5730  -17.8606   27.1988 C   0  0  0  0  0  0  0  0  0  0  0  0
    9.4855  -18.4680   27.2460 O   0  0  0  0  0  0  0  0  0  0  0  0
   11.5084  -18.2840   28.1455 O   0  0  0  0  0  0  0  0  0  0  0  0
  2  1  1  6
  2  3  1  0
  4  2  1  0
  4  5  1  6
  6  7  2  0
  6  4  1  0
  8  6  1  0
  9  8  1  0
 10 11  1  0
  9 10  1  1
 11 19  1  0
 11 12  2  0
 12 13  1  0
 14 13  1  0
 14 15  2  0
 16 15  1  0
 17 16  2  0
 18 19  2  0
 18 17  1  0
 19 14  1  0
 20 21  2  0
 20  9  1  0
 23 25  1  0
 23 22  1  1
 24 23  1  0
 26 25  1  1
 26 27  1  0
 27 20  1  0
 28 26  1  0
 29 28  2  0
 30 28  1  0
M  END
$$$$
