MEA.pdb
     RDKit          3D

 23 22  0  0  1  0  0  0  0  0999 V2000
    6.1138  -10.8582   26.9319 C   0  0  0  0  0  0  0  0  0  0  0  0
    7.0374  -12.3062   26.3551 S   0  0  0  0  0  0  0  0  0  0  0  0
    5.8852  -13.4564   25.5590 C   0  0  0  0  0  0  0  0  0  0  0  0
    6.5790  -14.7272   25.1475 C   0  0  0  0  0  0  0  0  0  0  0  0
    8.0659  -14.5988   25.0598 C   0  0  2  0  0  0  0  0  0  0  0  0
    8.3576  -13.9324   23.7989 N   0  0  0  0  0  0  0  0  0  0  0  0
    8.7632  -15.9078   25.1038 C   0  0  0  0  0  0  0  0  0  0  0  0
    8.4460  -16.7951   25.9337 O   0  0  0  0  0  0  0  0  0  0  0  0
    9.8177  -16.1867   24.1955 N   0  0  0  0  0  0  0  0  0  0  0  0
   10.5809  -17.4373   24.2692 C   0  0  1  0  0  0  0  0  0  0  0  0
   11.7445  -17.3530   23.3313 C   0  0  0  0  0  0  0  0  0  0  0  0
   12.5973  -18.5849   23.3098 C   0  0  0  0  0  0  0  0  0  0  0  0
   13.6901  -18.3541   22.3215 C   0  0  0  0  0  0  0  0  0  0  0  0
   14.8752  -18.1130   22.6481 O   0  0  0  0  0  0  0  0  0  0  0  0
   10.9347  -17.7384   25.6513 C   0  0  0  0  0  0  0  0  0  0  0  0
   11.6051  -16.9631   26.3702 O   0  0  0  0  0  0  0  0  0  0  0  0
   13.3808  -18.4086   20.9578 O   0  0  0  0  0  0  0  0  0  0  0  0
   10.0371  -20.6535   27.9123 C   0  0  0  0  0  0  0  0  0  0  0  0
   10.8212  -19.3957   27.5441 C   0  0  2  0  0  0  0  0  0  0  0  0
   10.5017  -18.9664   26.2139 N   0  0  0  0  0  0  0  0  0  0  0  0
   12.2486  -19.7159   27.7144 C   0  0  0  0  0  0  0  0  0  0  0  0
   12.7841  -19.9443   28.9607 O   0  0  0  0  0  0  0  0  0  0  0  0
   12.9867  -19.7816   26.7123 O   0  0  0  0  0  0  0  0  0  0  0  0
  1  2  1  0
  3  2  1  0
  4  3  1  0
  5  4  1  0
  5  7  1  0
  5  6  1  6
  7  8  2  0
  9 10  1  0
  9  7  1  0
 10 11  1  6
 11 12  1  0
 13 17  1  0
 13 12  1  0
 14 13  2  0
 15 20  1  0
 15 10  1  0
 16 15  2  0
 19 20  1  0
 19 18  1  6
 21 22  1  0
 21 19  1  0
 23 21  2  0
M  END
$$$$
