MEA.pdb
     RDKit          3D

 23 22  0  0  1  0  0  0  0  0999 V2000
    7.2171  -11.2080   26.3771 C   0  0  0  0  0  0  0  0  0  0  0  0
    5.8318  -11.5283   25.2543 S   0  0  0  0  0  0  0  0  0  0  0  0
    5.3563  -13.2715   25.3940 C   0  0  0  0  0  0  0  0  0  0  0  0
    6.5489  -14.1410   25.6896 C   0  0  0  0  0  0  0  0  0  0  0  0
    6.6468  -15.3460   24.8101 C   0  0  2  0  0  0  0  0  0  0  0  0
    5.4309  -16.1189   25.0174 N   0  0  0  0  0  0  0  0  0  0  0  0
    7.8298  -16.1887   25.1130 C   0  0  0  0  0  0  0  0  0  0  0  0
    7.9437  -16.7946   26.2070 O   0  0  0  0  0  0  0  0  0  0  0  0
    8.8710  -16.3286   24.1585 N   0  0  0  0  0  0  0  0  0  0  0  0
   10.0840  -17.0982   24.4560 C   0  0  1  0  0  0  0  0  0  0  0  0
   10.8441  -17.3183   23.1853 C   0  0  0  0  0  0  0  0  0  0  0  0
   11.7511  -16.1841   22.8164 C   0  0  0  0  0  0  0  0  0  0  0  0
   12.7014  -16.6900   21.7844 C   0  0  0  0  0  0  0  0  0  0  0  0
   12.6881  -17.8658   21.3525 O   0  0  0  0  0  0  0  0  0  0  0  0
   10.8485  -16.4553   25.5182 C   0  0  0  0  0  0  0  0  0  0  0  0
   11.4852  -15.3899   25.3540 O   0  0  0  0  0  0  0  0  0  0  0  0
   13.6593  -15.8098   21.2687 O   0  0  0  0  0  0  0  0  0  0  0  0
   10.7650  -15.4979   28.6694 C   0  0  0  0  0  0  0  0  0  0  0  0
   11.6004  -16.5340   27.9203 C   0  0  2  0  0  0  0  0  0  0  0  0
   10.8762  -17.0607   26.8006 N   0  0  0  0  0  0  0  0  0  0  0  0
   11.9746  -17.5700   28.8980 C   0  0  0  0  0  0  0  0  0  0  0  0
   11.5895  -18.8800   28.7311 O   0  0  0  0  0  0  0  0  0  0  0  0
   12.6526  -17.2562   29.8956 O   0  0  0  0  0  0  0  0  0  0  0  0
  1  2  1  0
  3  2  1  0
  4  3  1  0
  5  4  1  0
  5  7  1  0
  5  6  1  1
  7  8  2  0
  9 10  1  0
  9  7  1  0
 10 11  1  6
 11 12  1  0
 13 17  1  0
 13 12  1  0
 14 13  2  0
 15 20  1  0
 15 10  1  0
 16 15  2  0
 19 20  1  0
 19 18  1  1
 21 22  1  0
 21 19  1  0
 23 21  2  0
M  END
$$$$
