MEA.pdb
     RDKit          3D

 23 22  0  0  1  0  0  0  0  0999 V2000
    6.3579  -11.4466   26.9149 C   0  0  0  0  0  0  0  0  0  0  0  0
    6.1161  -12.2390   25.3037 S   0  0  0  0  0  0  0  0  0  0  0  0
    5.6306  -13.9650   25.5672 C   0  0  0  0  0  0  0  0  0  0  0  0
    6.8328  -14.8425   25.7914 C   0  0  0  0  0  0  0  0  0  0  0  0
    7.2547  -15.6056   24.5769 C   0  0  2  0  0  0  0  0  0  0  0  0
    6.2010  -16.5706   24.2986 N   0  0  0  0  0  0  0  0  0  0  0  0
    8.5445  -16.3160   24.7592 C   0  0  0  0  0  0  0  0  0  0  0  0
    8.6087  -17.4237   25.3471 O   0  0  0  0  0  0  0  0  0  0  0  0
    9.7486  -15.7492   24.2655 N   0  0  0  0  0  0  0  0  0  0  0  0
   11.0390  -16.4262   24.4343 C   0  0  1  0  0  0  0  0  0  0  0  0
   11.9982  -15.9075   23.4089 C   0  0  0  0  0  0  0  0  0  0  0  0
   13.3711  -16.4997   23.5075 C   0  0  0  0  0  0  0  0  0  0  0  0
   14.2088  -15.8633   22.4504 C   0  0  0  0  0  0  0  0  0  0  0  0
   13.8965  -15.8522   21.2373 O   0  0  0  0  0  0  0  0  0  0  0  0
   11.5002  -16.3090   25.8126 C   0  0  0  0  0  0  0  0  0  0  0  0
   12.5063  -16.9117   26.2508 O   0  0  0  0  0  0  0  0  0  0  0  0
   15.4062  -15.2454   22.8280 O   0  0  0  0  0  0  0  0  0  0  0  0
   10.3542  -14.0732   28.6546 C   0  0  0  0  0  0  0  0  0  0  0  0
   11.1777  -15.2118   28.0563 C   0  0  2  0  0  0  0  0  0  0  0  0
   10.7793  -15.4739   26.7041 N   0  0  0  0  0  0  0  0  0  0  0  0
   11.0029  -16.3767   28.9401 C   0  0  0  0  0  0  0  0  0  0  0  0
   10.3182  -17.4936   28.5205 O   0  0  0  0  0  0  0  0  0  0  0  0
   11.4834  -16.3525   30.0899 O   0  0  0  0  0  0  0  0  0  0  0  0
  1  2  1  0
  3  2  1  0
  4  3  1  0
  5  4  1  0
  5  7  1  0
  5  6  1  1
  7  8  2  0
  9 10  1  0
  9  7  1  0
 10 11  1  6
 11 12  1  0
 13 17  1  0
 13 12  1  0
 14 13  2  0
 15 20  1  0
 15 10  1  0
 16 15  2  0
 19 20  1  0
 19 18  1  1
 21 22  1  0
 21 19  1  0
 23 21  2  0
M  END
$$$$
