MEA.pdb
     RDKit          3D

 23 22  0  0  1  0  0  0  0  0999 V2000
    7.0189  -10.6997   26.7428 C   0  0  0  0  0  0  0  0  0  0  0  0
    7.4723  -12.3634   26.1868 S   0  0  0  0  0  0  0  0  0  0  0  0
    6.0748  -13.0792   25.2818 C   0  0  0  0  0  0  0  0  0  0  0  0
    6.3872  -14.4735   24.8085 C   0  0  0  0  0  0  0  0  0  0  0  0
    7.4294  -14.5254   23.7379 C   0  0  2  0  0  0  0  0  0  0  0  0
    6.7240  -14.5958   22.4665 N   0  0  0  0  0  0  0  0  0  0  0  0
    8.3361  -15.6924   23.8692 C   0  0  0  0  0  0  0  0  0  0  0  0
    7.9089  -16.8704   23.7878 O   0  0  0  0  0  0  0  0  0  0  0  0
    9.7241  -15.4974   24.0928 N   0  0  0  0  0  0  0  0  0  0  0  0
   10.6230  -16.6263   24.3569 C   0  0  1  0  0  0  0  0  0  0  0  0
   12.0068  -16.2587   23.9200 C   0  0  0  0  0  0  0  0  0  0  0  0
   13.0177  -17.3449   24.1284 C   0  0  0  0  0  0  0  0  0  0  0  0
   14.1129  -17.1312   23.1389 C   0  0  0  0  0  0  0  0  0  0  0  0
   14.1003  -17.6123   21.9823 O   0  0  0  0  0  0  0  0  0  0  0  0
   10.5169  -17.0482   25.7486 C   0  0  0  0  0  0  0  0  0  0  0  0
   10.7160  -16.2768   26.7143 O   0  0  0  0  0  0  0  0  0  0  0  0
   15.2134  -16.3541   23.5170 O   0  0  0  0  0  0  0  0  0  0  0  0
    9.3193  -20.2860   27.3109 C   0  0  0  0  0  0  0  0  0  0  0  0
   10.0060  -18.9224   27.3513 C   0  0  2  0  0  0  0  0  0  0  0  0
   10.1719  -18.3954   26.0282 N   0  0  0  0  0  0  0  0  0  0  0  0
   11.2849  -19.1079   28.0576 C   0  0  0  0  0  0  0  0  0  0  0  0
   11.3208  -19.4888   29.3789 O   0  0  0  0  0  0  0  0  0  0  0  0
   12.3556  -18.9168   27.4489 O   0  0  0  0  0  0  0  0  0  0  0  0
  1  2  1  0
  3  2  1  0
  4  3  1  0
  5  4  1  0
  5  7  1  0
  5  6  1  6
  7  8  2  0
  9 10  1  0
  9  7  1  0
 10 11  1  1
 11 12  1  0
 13 17  1  0
 13 12  1  0
 14 13  2  0
 15 20  1  0
 15 10  1  0
 16 15  2  0
 19 20  1  0
 19 18  1  6
 21 22  1  0
 21 19  1  0
 23 21  2  0
M  END
$$$$
