MEA.pdb
     RDKit          3D

 23 22  0  0  1  0  0  0  0  0999 V2000
    7.8309  -11.6852   21.0775 C   0  0  0  0  0  0  0  0  0  0  0  0
    8.1235  -12.6163   19.5512 S   0  0  0  0  0  0  0  0  0  0  0  0
    7.1580  -14.1490   19.6063 C   0  0  0  0  0  0  0  0  0  0  0  0
    7.1804  -14.7595   20.9820 C   0  0  0  0  0  0  0  0  0  0  0  0
    8.2747  -15.7590   21.1782 C   0  0  2  0  0  0  0  0  0  0  0  0
    7.8982  -16.9485   20.4284 N   0  0  0  0  0  0  0  0  0  0  0  0
    8.4846  -16.1147   22.6033 C   0  0  0  0  0  0  0  0  0  0  0  0
    7.5715  -15.9850   23.4556 O   0  0  0  0  0  0  0  0  0  0  0  0
    9.7396  -16.6158   23.0375 N   0  0  0  0  0  0  0  0  0  0  0  0
    9.9756  -16.9789   24.4391 C   0  0  1  0  0  0  0  0  0  0  0  0
   10.9247  -18.1354   24.4888 C   0  0  0  0  0  0  0  0  0  0  0  0
   11.2768  -18.5724   25.8781 C   0  0  0  0  0  0  0  0  0  0  0  0
   12.2302  -19.7130   25.7592 C   0  0  0  0  0  0  0  0  0  0  0  0
   11.8821  -20.8709   25.4315 O   0  0  0  0  0  0  0  0  0  0  0  0
   10.3986  -15.8120   25.2042 C   0  0  0  0  0  0  0  0  0  0  0  0
   11.4609  -15.1911   24.9733 O   0  0  0  0  0  0  0  0  0  0  0  0
   13.5845  -19.4832   26.0263 O   0  0  0  0  0  0  0  0  0  0  0  0
    8.8152  -13.3537   27.4344 C   0  0  0  0  0  0  0  0  0  0  0  0
    9.9575  -14.3398   27.1993 C   0  0  2  0  0  0  0  0  0  0  0  0
    9.5716  -15.3535   26.2615 N   0  0  0  0  0  0  0  0  0  0  0  0
   10.3267  -14.8887   28.5150 C   0  0  0  0  0  0  0  0  0  0  0  0
   10.8475  -14.0846   29.5022 O   0  0  0  0  0  0  0  0  0  0  0  0
   10.1652  -16.1038   28.7405 O   0  0  0  0  0  0  0  0  0  0  0  0
  1  2  1  0
  3  2  1  0
  4  3  1  0
  5  4  1  0
  5  7  1  0
  5  6  1  6
  7  8  2  0
  9 10  1  0
  9  7  1  0
 10 11  1  6
 11 12  1  0
 13 17  1  0
 13 12  1  0
 14 13  2  0
 15 20  1  0
 15 10  1  0
 16 15  2  0
 19 20  1  0
 19 18  1  1
 21 22  1  0
 21 19  1  0
 23 21  2  0
M  END
$$$$
