MEA.pdb
     RDKit          3D

 23 22  0  0  1  0  0  0  0  0999 V2000
    6.7205  -11.0360   26.7924 C   0  0  0  0  0  0  0  0  0  0  0  0
    7.3070  -12.2985   25.6328 S   0  0  0  0  0  0  0  0  0  0  0  0
    6.2506  -13.7638   25.7794 C   0  0  0  0  0  0  0  0  0  0  0  0
    6.7192  -14.8681   24.8701 C   0  0  0  0  0  0  0  0  0  0  0  0
    8.0852  -14.6430   24.3058 C   0  0  2  0  0  0  0  0  0  0  0  0
    7.9063  -14.2292   22.9217 N   0  0  0  0  0  0  0  0  0  0  0  0
    8.9390  -15.8554   24.3564 C   0  0  0  0  0  0  0  0  0  0  0  0
    8.7744  -16.7405   25.2318 O   0  0  0  0  0  0  0  0  0  0  0  0
    9.9736  -16.0412   23.4025 N   0  0  0  0  0  0  0  0  0  0  0  0
   10.8761  -17.1959   23.4672 C   0  0  1  0  0  0  0  0  0  0  0  0
   11.9200  -17.0575   22.4032 C   0  0  0  0  0  0  0  0  0  0  0  0
   12.8834  -18.2036   22.3454 C   0  0  0  0  0  0  0  0  0  0  0  0
   13.8461  -17.9223   21.2416 C   0  0  0  0  0  0  0  0  0  0  0  0
   13.4938  -17.6934   20.0615 O   0  0  0  0  0  0  0  0  0  0  0  0
   11.4021  -17.3574   24.8175 C   0  0  0  0  0  0  0  0  0  0  0  0
   12.2540  -16.5874   25.3164 O   0  0  0  0  0  0  0  0  0  0  0  0
   15.2145  -17.9123   21.5342 O   0  0  0  0  0  0  0  0  0  0  0  0
   10.4584  -19.6570   27.6661 C   0  0  0  0  0  0  0  0  0  0  0  0
   11.4327  -18.7532   26.9134 C   0  0  2  0  0  0  0  0  0  0  0  0
   10.9302  -18.4361   25.6085 N   0  0  0  0  0  0  0  0  0  0  0  0
   12.7255  -19.4574   26.8729 C   0  0  0  0  0  0  0  0  0  0  0  0
   13.2155  -19.9812   25.6991 O   0  0  0  0  0  0  0  0  0  0  0  0
   13.3896  -19.5822   27.9202 O   0  0  0  0  0  0  0  0  0  0  0  0
  1  2  1  0
  3  2  1  0
  4  3  1  0
  5  4  1  0
  5  7  1  0
  5  6  1  6
  7  8  2  0
  9 10  1  0
  9  7  1  0
 10 11  1  6
 11 12  1  0
 13 17  1  0
 13 12  1  0
 14 13  2  0
 15 20  1  0
 15 10  1  0
 16 15  2  0
 19 20  1  0
 19 18  1  6
 21 22  1  0
 21 19  1  0
 23 21  2  0
M  END
$$$$
