MEA.pdb
     RDKit          3D

 23 22  0  0  1  0  0  0  0  0999 V2000
    7.3334  -11.1269   25.9755 C   0  0  0  0  0  0  0  0  0  0  0  0
    5.8799  -12.2080   25.9462 S   0  0  0  0  0  0  0  0  0  0  0  0
    6.2622  -13.6760   24.9545 C   0  0  0  0  0  0  0  0  0  0  0  0
    7.0365  -13.3120   23.7161 C   0  0  0  0  0  0  0  0  0  0  0  0
    7.3911  -14.4868   22.8622 C   0  0  2  0  0  0  0  0  0  0  0  0
    6.1387  -15.1204   22.4762 N   0  0  0  0  0  0  0  0  0  0  0  0
    8.2521  -15.4719   23.5620 C   0  0  0  0  0  0  0  0  0  0  0  0
    7.7690  -16.3407   24.3292 O   0  0  0  0  0  0  0  0  0  0  0  0
    9.6591  -15.4512   23.3754 N   0  0  0  0  0  0  0  0  0  0  0  0
   10.5374  -16.3997   24.0689 C   0  0  1  0  0  0  0  0  0  0  0  0
   11.6059  -16.8535   23.1239 C   0  0  0  0  0  0  0  0  0  0  0  0
   12.5191  -17.8951   23.6952 C   0  0  0  0  0  0  0  0  0  0  0  0
   13.5389  -18.2139   22.6547 C   0  0  0  0  0  0  0  0  0  0  0  0
   13.2656  -18.7864   21.5745 O   0  0  0  0  0  0  0  0  0  0  0  0
   11.0315  -15.8216   25.3130 C   0  0  0  0  0  0  0  0  0  0  0  0
   11.8630  -14.8864   25.3498 O   0  0  0  0  0  0  0  0  0  0  0  0
   14.8709  -17.8572   22.8925 O   0  0  0  0  0  0  0  0  0  0  0  0
    9.9250  -14.8798   28.3942 C   0  0  0  0  0  0  0  0  0  0  0  0
   10.9571  -15.8540   27.8301 C   0  0  2  0  0  0  0  0  0  0  0  0
   10.5511  -16.3389   26.5433 N   0  0  0  0  0  0  0  0  0  0  0  0
   11.1169  -16.9303   28.8225 C   0  0  0  0  0  0  0  0  0  0  0  0
   11.6351  -16.6772   30.0713 O   0  0  0  0  0  0  0  0  0  0  0  0
   10.7772  -18.0926   28.5275 O   0  0  0  0  0  0  0  0  0  0  0  0
  1  2  1  0
  3  2  1  0
  4  3  1  0
  5  4  1  0
  5  7  1  0
  5  6  1  1
  7  8  2  0
  9 10  1  0
  9  7  1  0
 10 11  1  6
 11 12  1  0
 13 17  1  0
 13 12  1  0
 14 13  2  0
 15 20  1  0
 15 10  1  0
 16 15  2  0
 19 20  1  0
 19 18  1  1
 21 22  1  0
 21 19  1  0
 23 21  2  0
M  END
$$$$
