MEA.pdb
     RDKit          3D

 23 22  0  0  1  0  0  0  0  0999 V2000
    7.7971  -11.4640   26.6564 C   0  0  0  0  0  0  0  0  0  0  0  0
    6.2074  -12.1441   26.1154 S   0  0  0  0  0  0  0  0  0  0  0  0
    6.5080  -13.6832   25.2070 C   0  0  0  0  0  0  0  0  0  0  0  0
    7.3570  -13.4410   23.9880 C   0  0  0  0  0  0  0  0  0  0  0  0
    7.6481  -14.6794   23.2026 C   0  0  2  0  0  0  0  0  0  0  0  0
    6.3771  -15.3604   23.0034 N   0  0  0  0  0  0  0  0  0  0  0  0
    8.5981  -15.5895   23.8887 C   0  0  0  0  0  0  0  0  0  0  0  0
    8.2276  -16.3500   24.8167 O   0  0  0  0  0  0  0  0  0  0  0  0
    9.9640  -15.6189   23.5039 N   0  0  0  0  0  0  0  0  0  0  0  0
   10.9334  -16.4824   24.1870 C   0  0  1  0  0  0  0  0  0  0  0  0
   12.0524  -16.7983   23.2443 C   0  0  0  0  0  0  0  0  0  0  0  0
   11.6475  -17.6631   22.0896 C   0  0  0  0  0  0  0  0  0  0  0  0
   12.7986  -17.7112   21.1426 C   0  0  0  0  0  0  0  0  0  0  0  0
   13.9702  -17.4079   21.4660 O   0  0  0  0  0  0  0  0  0  0  0  0
   11.3521  -15.8816   25.4479 C   0  0  0  0  0  0  0  0  0  0  0  0
   12.1568  -14.9248   25.5158 O   0  0  0  0  0  0  0  0  0  0  0  0
   12.5630  -18.1153   19.8238 O   0  0  0  0  0  0  0  0  0  0  0  0
   10.3510  -14.8892   28.5118 C   0  0  0  0  0  0  0  0  0  0  0  0
   11.2576  -15.9886   27.9622 C   0  0  2  0  0  0  0  0  0  0  0  0
   10.8265  -16.4012   26.6585 N   0  0  0  0  0  0  0  0  0  0  0  0
   11.2425  -17.0864   28.9437 C   0  0  0  0  0  0  0  0  0  0  0  0
   11.7630  -16.9211   30.2063 O   0  0  0  0  0  0  0  0  0  0  0  0
   10.7494  -18.1863   28.6268 O   0  0  0  0  0  0  0  0  0  0  0  0
  1  2  1  0
  3  2  1  0
  4  3  1  0
  5  4  1  0
  5  7  1  0
  5  6  1  1
  7  8  2  0
  9 10  1  0
  9  7  1  0
 10 11  1  6
 11 12  1  0
 13 17  1  0
 13 12  1  0
 14 13  2  0
 15 20  1  0
 15 10  1  0
 16 15  2  0
 19 20  1  0
 19 18  1  1
 21 22  1  0
 21 19  1  0
 23 21  2  0
M  END
$$$$
