HEI.pdb
     RDKit          3D

 28 28  0  0  1  0  0  0  0  0999 V2000
    8.0990  -16.7993   18.8321 N   0  0  0  0  0  0  0  0  0  0  0  0
    8.2155  -15.6793   19.7433 C   0  0  1  0  0  0  0  0  0  0  0  0
    7.1819  -14.6487   19.4226 C   0  0  0  0  0  0  0  0  0  0  0  0
    7.4936  -14.1190   18.0444 C   0  0  0  0  0  0  0  0  0  0  0  0
    8.2414  -12.9981   17.7458 C   0  0  0  0  0  0  0  0  0  0  0  0
    8.3075  -12.8346   16.4174 N   0  0  0  0  0  0  0  0  0  0  0  0
    7.6036  -13.8496   15.8853 C   0  0  0  0  0  0  0  0  0  0  0  0
    7.1092  -14.6290   16.8636 N   0  0  0  0  0  0  0  0  0  0  0  0
    8.2642  -16.1239   21.1236 C   0  0  0  0  0  0  0  0  0  0  0  0
    7.1718  -16.3531   21.7193 O   0  0  0  0  0  0  0  0  0  0  0  0
    9.4464  -16.3307   21.8850 N   0  0  0  0  0  0  0  0  0  0  0  0
    9.3825  -16.7670   23.2572 C   0  0  1  0  0  0  0  0  0  0  0  0
   10.2769  -17.9003   23.5726 C   0  0  0  0  0  0  0  0  0  0  0  0
   10.1493  -19.1564   22.8111 C   0  0  0  0  0  0  0  0  0  0  0  0
    9.5577  -20.3126   23.4579 C   0  0  0  0  0  0  0  0  0  0  0  0
    8.7966  -21.0773   22.7703 O   0  0  0  0  0  0  0  0  0  0  0  0
    9.5500  -15.6133   24.2019 C   0  0  0  0  0  0  0  0  0  0  0  0
   10.3855  -14.7085   24.0020 O   0  0  0  0  0  0  0  0  0  0  0  0
    9.7524  -20.6641   24.7838 O   0  0  0  0  0  0  0  0  0  0  0  0
    6.8614  -11.3044   26.8029 C   0  0  0  0  0  0  0  0  0  0  0  0
    7.8258  -12.4084   27.1181 C   0  0  0  0  0  0  0  0  0  0  0  0
    7.7416  -13.5631   26.1407 C   0  0  2  0  0  0  0  0  0  0  0  0
    6.3582  -14.1279   26.2177 C   0  0  0  0  0  0  0  0  0  0  0  0
    8.8334  -14.5403   26.3690 C   0  0  2  0  0  0  0  0  0  0  0  0
    8.7337  -15.5690   25.3367 N   0  0  0  0  0  0  0  0  0  0  0  0
    8.8571  -15.1246   27.7200 C   0  0  0  0  0  0  0  0  0  0  0  0
    8.5685  -16.4246   28.0229 O   0  0  0  0  0  0  0  0  0  0  0  0
    9.1715  -14.3576   28.6821 O   0  0  0  0  0  0  0  0  0  0  0  0
  2  9  1  0
  2  1  1  6
  3  2  1  0
  4  3  1  0
  4  5  2  0
  6  5  1  0
  7  8  2  0
  7  6  1  0
  8  4  1  0
  9 11  1  0
 10  9  2  0
 11 12  1  0
 12 13  1  1
 13 14  1  0
 14 15  1  0
 15 19  1  0
 16 15  2  0
 17 12  1  0
 18 17  2  0
 21 20  1  0
 21 22  1  0
 22 24  1  0
 22 23  1  1
 24 25  1  6
 24 26  1  0
 25 17  1  0
 26 27  1  0
 28 26  2  0
M  END
$$$$
