HEI.pdb
     RDKit          3D

 28 28  0  0  1  0  0  0  0  0999 V2000
    9.4545  -15.8733   19.7522 N   0  0  0  0  0  0  0  0  0  0  0  0
    8.6262  -15.0550   20.6139 C   0  0  1  0  0  0  0  0  0  0  0  0
    7.2912  -14.8325   19.9802 C   0  0  0  0  0  0  0  0  0  0  0  0
    7.5405  -14.4049   18.5547 C   0  0  0  0  0  0  0  0  0  0  0  0
    8.1132  -13.2189   18.1419 C   0  0  0  0  0  0  0  0  0  0  0  0
    8.1750  -13.1838   16.8037 N   0  0  0  0  0  0  0  0  0  0  0  0
    7.6429  -14.3438   16.3792 C   0  0  0  0  0  0  0  0  0  0  0  0
    7.2576  -15.0858   17.4328 N   0  0  0  0  0  0  0  0  0  0  0  0
    8.6089  -15.5668   21.9715 C   0  0  0  0  0  0  0  0  0  0  0  0
    7.6671  -15.2081   22.7363 O   0  0  0  0  0  0  0  0  0  0  0  0
    9.5688  -16.4509   22.5347 N   0  0  0  0  0  0  0  0  0  0  0  0
    9.4717  -16.8805   23.9070 C   0  0  1  0  0  0  0  0  0  0  0  0
   10.1959  -18.1351   24.1995 C   0  0  0  0  0  0  0  0  0  0  0  0
   10.3307  -19.1556   23.1440 C   0  0  0  0  0  0  0  0  0  0  0  0
   11.5870  -19.8698   23.0142 C   0  0  0  0  0  0  0  0  0  0  0  0
   12.5259  -19.6149   23.8451 O   0  0  0  0  0  0  0  0  0  0  0  0
    9.8287  -15.7693   24.8502 C   0  0  0  0  0  0  0  0  0  0  0  0
   10.8064  -15.0199   24.6522 O   0  0  0  0  0  0  0  0  0  0  0  0
   11.8595  -20.8233   22.0467 O   0  0  0  0  0  0  0  0  0  0  0  0
    6.5443  -12.2268   26.0869 C   0  0  0  0  0  0  0  0  0  0  0  0
    7.7946  -13.0452   25.9631 C   0  0  0  0  0  0  0  0  0  0  0  0
    8.1572  -13.7672   27.2447 C   0  0  2  0  0  0  0  0  0  0  0  0
    8.2959  -12.7409   28.3246 C   0  0  0  0  0  0  0  0  0  0  0  0
    9.3396  -14.6413   27.0524 C   0  0  2  0  0  0  0  0  0  0  0  0
    9.0272  -15.5841   25.9813 N   0  0  0  0  0  0  0  0  0  0  0  0
    9.7932  -15.3316   28.2708 C   0  0  0  0  0  0  0  0  0  0  0  0
    9.6915  -16.6737   28.5019 O   0  0  0  0  0  0  0  0  0  0  0  0
   10.3221  -14.6215   29.1813 O   0  0  0  0  0  0  0  0  0  0  0  0
  2  9  1  0
  2  1  1  6
  3  2  1  0
  4  3  1  0
  4  5  2  0
  6  5  1  0
  7  8  2  0
  7  6  1  0
  8  4  1  0
  9 11  1  0
 10  9  2  0
 11 12  1  0
 12 13  1  6
 13 14  1  0
 14 15  1  0
 15 19  1  0
 16 15  2  0
 17 12  1  0
 18 17  2  0
 21 20  1  0
 21 22  1  0
 22 24  1  0
 22 23  1  1
 24 25  1  6
 24 26  1  0
 25 17  1  0
 26 27  1  0
 28 26  2  0
M  END
$$$$
