HEI.pdb
     RDKit          3D

 28 28  0  0  1  0  0  0  0  0999 V2000
    6.8641  -16.0709   20.2166 N   0  0  0  0  0  0  0  0  0  0  0  0
    8.0477  -15.4510   20.7761 C   0  0  1  0  0  0  0  0  0  0  0  0
    8.0022  -13.9730   20.5604 C   0  0  0  0  0  0  0  0  0  0  0  0
    8.2071  -13.7316   19.0849 C   0  0  0  0  0  0  0  0  0  0  0  0
    7.2777  -13.2246   18.1995 C   0  0  0  0  0  0  0  0  0  0  0  0
    7.8111  -13.1484   16.9725 N   0  0  0  0  0  0  0  0  0  0  0  0
    9.0705  -13.6060   17.0885 C   0  0  0  0  0  0  0  0  0  0  0  0
    9.3155  -13.9600   18.3627 N   0  0  0  0  0  0  0  0  0  0  0  0
    8.2788  -15.8883   22.1402 C   0  0  0  0  0  0  0  0  0  0  0  0
    7.3492  -15.7363   22.9848 O   0  0  0  0  0  0  0  0  0  0  0  0
    9.4742  -16.4835   22.6270 N   0  0  0  0  0  0  0  0  0  0  0  0
    9.5911  -16.9054   24.0001 C   0  0  1  0  0  0  0  0  0  0  0  0
   10.5146  -18.0406   24.2063 C   0  0  0  0  0  0  0  0  0  0  0  0
   10.7370  -18.5538   25.5705 C   0  0  0  0  0  0  0  0  0  0  0  0
   11.6443  -19.6698   25.7616 C   0  0  0  0  0  0  0  0  0  0  0  0
   12.1551  -19.8533   26.9202 O   0  0  0  0  0  0  0  0  0  0  0  0
    9.8876  -15.7432   24.9018 C   0  0  0  0  0  0  0  0  0  0  0  0
   10.8082  -14.9359   24.6618 O   0  0  0  0  0  0  0  0  0  0  0  0
   12.0103  -20.5706   24.7746 O   0  0  0  0  0  0  0  0  0  0  0  0
    6.4418  -12.3764   25.9164 C   0  0  0  0  0  0  0  0  0  0  0  0
    7.7146  -13.1661   25.8488 C   0  0  0  0  0  0  0  0  0  0  0  0
    8.1304  -13.7322   27.1913 C   0  0  2  0  0  0  0  0  0  0  0  0
    8.2378  -12.5926   28.1550 C   0  0  0  0  0  0  0  0  0  0  0  0
    9.3492  -14.5678   27.0673 C   0  0  2  0  0  0  0  0  0  0  0  0
    9.0952  -15.5768   26.0421 N   0  0  0  0  0  0  0  0  0  0  0  0
    9.8039  -15.1751   28.3288 C   0  0  0  0  0  0  0  0  0  0  0  0
   10.6325  -14.5809   29.2372 O   0  0  0  0  0  0  0  0  0  0  0  0
    9.3924  -16.3470   28.5939 O   0  0  0  0  0  0  0  0  0  0  0  0
  2  9  1  0
  2  1  1  1
  3  2  1  0
  4  3  1  0
  4  5  2  0
  6  5  1  0
  7  8  2  0
  7  6  1  0
  8  4  1  0
  9 11  1  0
 10  9  2  0
 11 12  1  0
 12 13  1  6
 13 14  1  0
 14 15  1  0
 15 19  1  0
 16 15  2  0
 17 12  1  0
 18 17  2  0
 21 20  1  0
 21 22  1  0
 22 24  1  0
 22 23  1  1
 24 25  1  6
 24 26  1  0
 25 17  1  0
 26 27  1  0
 28 26  2  0
M  END
$$$$
