HEI.pdb
     RDKit          3D

 28 28  0  0  1  0  0  0  0  0999 V2000
    9.0510  -15.4258   18.8030 N   0  0  0  0  0  0  0  0  0  0  0  0
    8.3052  -14.3822   19.4760 C   0  0  1  0  0  0  0  0  0  0  0  0
    7.2852  -13.8032   18.5499 C   0  0  0  0  0  0  0  0  0  0  0  0
    7.7530  -14.0808   17.1423 C   0  0  0  0  0  0  0  0  0  0  0  0
    8.9206  -14.7195   16.7765 C   0  0  0  0  0  0  0  0  0  0  0  0
    9.0037  -14.7878   15.4407 N   0  0  0  0  0  0  0  0  0  0  0  0
    7.8921  -14.1940   14.9710 C   0  0  0  0  0  0  0  0  0  0  0  0
    7.1325  -13.7647   15.9945 N   0  0  0  0  0  0  0  0  0  0  0  0
    7.8125  -14.8318   20.7646 C   0  0  0  0  0  0  0  0  0  0  0  0
    7.1293  -14.0258   21.4604 O   0  0  0  0  0  0  0  0  0  0  0  0
    8.0287  -16.1177   21.3302 N   0  0  0  0  0  0  0  0  0  0  0  0
    7.5248  -16.4506   22.6388 C   0  0  1  0  0  0  0  0  0  0  0  0
    7.4514  -17.9022   22.9061 C   0  0  0  0  0  0  0  0  0  0  0  0
    7.0686  -18.3719   24.2502 C   0  0  0  0  0  0  0  0  0  0  0  0
    7.0305  -19.7987   24.5110 C   0  0  0  0  0  0  0  0  0  0  0  0
    8.1332  -20.4471   24.5363 O   0  0  0  0  0  0  0  0  0  0  0  0
    8.2577  -15.6981   23.7104 C   0  0  0  0  0  0  0  0  0  0  0  0
    9.5037  -15.6450   23.7493 O   0  0  0  0  0  0  0  0  0  0  0  0
    5.8769  -20.5313   24.7393 O   0  0  0  0  0  0  0  0  0  0  0  0
    6.9965  -10.7587   26.9647 C   0  0  0  0  0  0  0  0  0  0  0  0
    7.7755  -12.0379   26.8946 C   0  0  0  0  0  0  0  0  0  0  0  0
    7.1751  -13.0430   25.9329 C   0  0  2  0  0  0  0  0  0  0  0  0
    5.8052  -13.3870   26.4268 C   0  0  0  0  0  0  0  0  0  0  0  0
    8.0801  -14.2005   25.7319 C   0  0  2  0  0  0  0  0  0  0  0  0
    7.5019  -15.0419   24.6871 N   0  0  0  0  0  0  0  0  0  0  0  0
    8.3683  -14.9695   26.9536 C   0  0  0  0  0  0  0  0  0  0  0  0
    7.9267  -16.2356   27.2118 O   0  0  0  0  0  0  0  0  0  0  0  0
    9.0860  -14.4101   27.8395 O   0  0  0  0  0  0  0  0  0  0  0  0
  2  9  1  0
  2  1  1  6
  3  2  1  0
  4  3  1  0
  4  5  2  0
  6  5  1  0
  7  8  2  0
  7  6  1  0
  8  4  1  0
  9 11  1  0
 10  9  2  0
 11 12  1  0
 12 13  1  1
 13 14  1  0
 14 15  1  0
 15 19  1  0
 16 15  2  0
 17 12  1  0
 18 17  2  0
 21 20  1  0
 21 22  1  0
 22 24  1  0
 22 23  1  1
 24 25  1  6
 24 26  1  0
 25 17  1  0
 26 27  1  0
 28 26  2  0
M  END
$$$$
