HEI.pdb
     RDKit          3D

 28 28  0  0  1  0  0  0  0  0999 V2000
    9.1060  -15.9573   19.9538 N   0  0  0  0  0  0  0  0  0  0  0  0
    8.3692  -15.0487   20.8081 C   0  0  1  0  0  0  0  0  0  0  0  0
    7.0768  -14.6709   20.1599 C   0  0  0  0  0  0  0  0  0  0  0  0
    7.3956  -14.2372   18.7501 C   0  0  0  0  0  0  0  0  0  0  0  0
    8.0791  -13.0978   18.3768 C   0  0  0  0  0  0  0  0  0  0  0  0
    8.1747  -13.0404   17.0413 N   0  0  0  0  0  0  0  0  0  0  0  0
    7.5533  -14.1400   16.5793 C   0  0  0  0  0  0  0  0  0  0  0  0
    7.0803  -14.8671   17.6072 N   0  0  0  0  0  0  0  0  0  0  0  0
    8.2767  -15.5564   22.1642 C   0  0  0  0  0  0  0  0  0  0  0  0
    7.5199  -14.9545   22.9801 O   0  0  0  0  0  0  0  0  0  0  0  0
    8.9691  -16.6886   22.6728 N   0  0  0  0  0  0  0  0  0  0  0  0
    8.8839  -17.0509   24.0652 C   0  0  1  0  0  0  0  0  0  0  0  0
    9.4019  -18.4009   24.3705 C   0  0  0  0  0  0  0  0  0  0  0  0
    9.4256  -18.8676   25.7689 C   0  0  0  0  0  0  0  0  0  0  0  0
   10.0145  -20.1594   26.0681 C   0  0  0  0  0  0  0  0  0  0  0  0
   10.8062  -20.2554   27.0686 O   0  0  0  0  0  0  0  0  0  0  0  0
    9.4798  -15.9876   24.9403 C   0  0  0  0  0  0  0  0  0  0  0  0
   10.6478  -15.5776   24.7837 O   0  0  0  0  0  0  0  0  0  0  0  0
    9.7862  -21.3199   25.3465 O   0  0  0  0  0  0  0  0  0  0  0  0
    6.7259  -11.7929   25.7178 C   0  0  0  0  0  0  0  0  0  0  0  0
    7.8315  -12.8049   25.6747 C   0  0  0  0  0  0  0  0  0  0  0  0
    8.1389  -13.4018   27.0329 C   0  0  2  0  0  0  0  0  0  0  0  0
    8.4867  -12.2786   27.9583 C   0  0  0  0  0  0  0  0  0  0  0  0
    9.1610  -14.4713   26.9304 C   0  0  2  0  0  0  0  0  0  0  0  0
    8.6842  -15.4515   25.9579 N   0  0  0  0  0  0  0  0  0  0  0  0
    9.5145  -15.1029   28.2122 C   0  0  0  0  0  0  0  0  0  0  0  0
   10.4751  -14.6560   29.0740 O   0  0  0  0  0  0  0  0  0  0  0  0
    8.8744  -16.1485   28.5437 O   0  0  0  0  0  0  0  0  0  0  0  0
  2  9  1  0
  2  1  1  6
  3  2  1  0
  4  3  1  0
  4  5  2  0
  6  5  1  0
  7  8  2  0
  7  6  1  0
  8  4  1  0
  9 11  1  0
 10  9  2  0
 11 12  1  0
 12 13  1  6
 13 14  1  0
 14 15  1  0
 15 19  1  0
 16 15  2  0
 17 12  1  0
 18 17  2  0
 21 20  1  0
 21 22  1  0
 22 24  1  0
 22 23  1  1
 24 25  1  6
 24 26  1  0
 25 17  1  0
 26 27  1  0
 28 26  2  0
M  END
$$$$
