HEI.pdb
     RDKit          3D

 28 28  0  0  1  0  0  0  0  0999 V2000
    8.8893  -16.5592   19.7576 N   0  0  0  0  0  0  0  0  0  0  0  0
    8.7685  -15.4553   20.6878 C   0  0  1  0  0  0  0  0  0  0  0  0
    7.5587  -14.6409   20.3616 C   0  0  0  0  0  0  0  0  0  0  0  0
    7.7327  -14.1293   18.9527 C   0  0  0  0  0  0  0  0  0  0  0  0
    8.4376  -13.0066   18.5684 C   0  0  0  0  0  0  0  0  0  0  0  0
    8.3755  -12.8626   17.2376 N   0  0  0  0  0  0  0  0  0  0  0  0
    7.6343  -13.8914   16.7892 C   0  0  0  0  0  0  0  0  0  0  0  0
    7.2430  -14.6603   17.8210 N   0  0  0  0  0  0  0  0  0  0  0  0
    8.8798  -15.9076   22.0619 C   0  0  0  0  0  0  0  0  0  0  0  0
    7.8174  -16.0589   22.7320 O   0  0  0  0  0  0  0  0  0  0  0  0
   10.0935  -16.2030   22.7400 N   0  0  0  0  0  0  0  0  0  0  0  0
   10.0888  -16.7259   24.0831 C   0  0  1  0  0  0  0  0  0  0  0  0
   10.9993  -17.8716   24.2881 C   0  0  0  0  0  0  0  0  0  0  0  0
   10.9328  -19.0222   23.3685 C   0  0  0  0  0  0  0  0  0  0  0  0
   11.8745  -20.1128   23.5391 C   0  0  0  0  0  0  0  0  0  0  0  0
   11.6701  -20.9582   24.4775 O   0  0  0  0  0  0  0  0  0  0  0  0
   10.2921  -15.6335   25.0916 C   0  0  0  0  0  0  0  0  0  0  0  0
   11.2215  -14.8065   24.9950 O   0  0  0  0  0  0  0  0  0  0  0  0
   12.9981  -20.3187   22.7552 O   0  0  0  0  0  0  0  0  0  0  0  0
    6.5812  -12.5053   26.0396 C   0  0  0  0  0  0  0  0  0  0  0  0
    7.8857  -13.2439   26.0071 C   0  0  0  0  0  0  0  0  0  0  0  0
    8.2623  -13.8367   27.3496 C   0  0  2  0  0  0  0  0  0  0  0  0
    8.2555  -12.7301   28.3566 C   0  0  0  0  0  0  0  0  0  0  0  0
    9.5307  -14.6000   27.2625 C   0  0  2  0  0  0  0  0  0  0  0  0
    9.4007  -15.5567   26.1664 N   0  0  0  0  0  0  0  0  0  0  0  0
    9.9342  -15.2585   28.5157 C   0  0  0  0  0  0  0  0  0  0  0  0
   10.7023  -14.6928   29.4929 O   0  0  0  0  0  0  0  0  0  0  0  0
    9.5357  -16.4497   28.7036 O   0  0  0  0  0  0  0  0  0  0  0  0
  2  9  1  0
  2  1  1  6
  3  2  1  0
  4  3  1  0
  4  5  2  0
  6  5  1  0
  7  8  2  0
  7  6  1  0
  8  4  1  0
  9 11  1  0
 10  9  2  0
 11 12  1  0
 12 13  1  6
 13 14  1  0
 14 15  1  0
 15 19  1  0
 16 15  2  0
 17 12  1  0
 18 17  2  0
 21 20  1  0
 21 22  1  0
 22 24  1  0
 22 23  1  1
 24 25  1  6
 24 26  1  0
 25 17  1  0
 26 27  1  0
 28 26  2  0
M  END
$$$$
