HEI.pdb
     RDKit          3D

 28 28  0  0  1  0  0  0  0  0999 V2000
    7.2926  -16.8551   18.9369 N   0  0  0  0  0  0  0  0  0  0  0  0
    8.3816  -16.9120   19.8904 C   0  0  1  0  0  0  0  0  0  0  0  0
    9.4941  -16.0161   19.4512 C   0  0  0  0  0  0  0  0  0  0  0  0
    8.8644  -14.7531   18.9170 C   0  0  0  0  0  0  0  0  0  0  0  0
    8.7524  -13.5479   19.5804 C   0  0  0  0  0  0  0  0  0  0  0  0
    8.1373  -12.6516   18.7967 N   0  0  0  0  0  0  0  0  0  0  0  0
    7.8649  -13.2927   17.6462 C   0  0  0  0  0  0  0  0  0  0  0  0
    8.3018  -14.5629   17.7130 N   0  0  0  0  0  0  0  0  0  0  0  0
    7.9064  -16.7181   21.2476 C   0  0  0  0  0  0  0  0  0  0  0  0
    6.7556  -16.2199   21.4151 O   0  0  0  0  0  0  0  0  0  0  0  0
    8.6254  -17.0417   22.4302 N   0  0  0  0  0  0  0  0  0  0  0  0
    7.9922  -16.9943   23.7240 C   0  0  1  0  0  0  0  0  0  0  0  0
    7.7444  -18.3219   24.3239 C   0  0  0  0  0  0  0  0  0  0  0  0
    7.1874  -18.4076   25.6863 C   0  0  0  0  0  0  0  0  0  0  0  0
    6.9956  -19.7151   26.2855 C   0  0  0  0  0  0  0  0  0  0  0  0
    7.6806  -20.0211   27.3219 O   0  0  0  0  0  0  0  0  0  0  0  0
    8.7188  -16.0639   24.6502 C   0  0  0  0  0  0  0  0  0  0  0  0
    9.9592  -15.9323   24.6190 O   0  0  0  0  0  0  0  0  0  0  0  0
    6.1153  -20.6782   25.8196 O   0  0  0  0  0  0  0  0  0  0  0  0
    5.5510  -12.0839   26.5056 C   0  0  0  0  0  0  0  0  0  0  0  0
    6.7474  -12.8449   26.0179 C   0  0  0  0  0  0  0  0  0  0  0  0
    7.4569  -13.6011   27.1226 C   0  0  2  0  0  0  0  0  0  0  0  0
    7.8823  -12.6074   28.1572 C   0  0  0  0  0  0  0  0  0  0  0  0
    8.5459  -14.4484   26.5793 C   0  0  2  0  0  0  0  0  0  0  0  0
    7.9636  -15.3294   25.5701 N   0  0  0  0  0  0  0  0  0  0  0  0
    9.2957  -15.2047   27.5956 C   0  0  0  0  0  0  0  0  0  0  0  0
   10.3773  -14.7392   28.2873 O   0  0  0  0  0  0  0  0  0  0  0  0
    8.9053  -16.3862   27.8498 O   0  0  0  0  0  0  0  0  0  0  0  0
  2  9  1  0
  2  1  1  6
  3  2  1  0
  4  3  1  0
  4  5  2  0
  6  5  1  0
  7  8  2  0
  7  6  1  0
  8  4  1  0
  9 11  1  0
 10  9  2  0
 11 12  1  0
 12 13  1  1
 13 14  1  0
 14 15  1  0
 15 19  1  0
 16 15  2  0
 17 12  1  0
 18 17  2  0
 21 20  1  0
 21 22  1  0
 22 24  1  0
 22 23  1  1
 24 25  1  6
 24 26  1  0
 25 17  1  0
 26 27  1  0
 28 26  2  0
M  END
$$$$
