HEI.pdb
     RDKit          3D

 28 28  0  0  1  0  0  0  0  0999 V2000
    7.8552  -16.8144   19.6237 N   0  0  0  0  0  0  0  0  0  0  0  0
    9.0659  -16.6974   20.4103 C   0  0  1  0  0  0  0  0  0  0  0  0
    9.8764  -15.5362   19.9329 C   0  0  0  0  0  0  0  0  0  0  0  0
    8.9177  -14.3996   19.6753 C   0  0  0  0  0  0  0  0  0  0  0  0
    7.5422  -14.4470   19.7782 C   0  0  0  0  0  0  0  0  0  0  0  0
    7.0208  -13.2502   19.4754 N   0  0  0  0  0  0  0  0  0  0  0  0
    8.0660  -12.4555   19.1838 C   0  0  0  0  0  0  0  0  0  0  0  0
    9.2148  -13.1446   19.3028 N   0  0  0  0  0  0  0  0  0  0  0  0
    8.7776  -16.7308   21.8320 C   0  0  0  0  0  0  0  0  0  0  0  0
    7.6907  -16.2247   22.2361 O   0  0  0  0  0  0  0  0  0  0  0  0
    9.6171  -17.2896   22.8335 N   0  0  0  0  0  0  0  0  0  0  0  0
    9.1839  -17.3777   24.2053 C   0  0  1  0  0  0  0  0  0  0  0  0
    9.4736  -18.6768   24.8476 C   0  0  0  0  0  0  0  0  0  0  0  0
    9.6511  -19.8755   24.0078 C   0  0  0  0  0  0  0  0  0  0  0  0
   10.0179  -21.1284   24.6409 C   0  0  0  0  0  0  0  0  0  0  0  0
   11.2553  -21.4494   24.6940 O   0  0  0  0  0  0  0  0  0  0  0  0
    9.6782  -16.2094   25.0068 C   0  0  0  0  0  0  0  0  0  0  0  0
   10.7691  -15.6539   24.7655 O   0  0  0  0  0  0  0  0  0  0  0  0
    9.1222  -22.0231   25.2037 O   0  0  0  0  0  0  0  0  0  0  0  0
    6.2184  -12.5472   25.9890 C   0  0  0  0  0  0  0  0  0  0  0  0
    7.4594  -13.3729   25.8269 C   0  0  0  0  0  0  0  0  0  0  0  0
    8.0645  -13.7957   27.1500 C   0  0  2  0  0  0  0  0  0  0  0  0
    8.3012  -12.5604   27.9604 C   0  0  0  0  0  0  0  0  0  0  0  0
    9.2580  -14.6517   26.9453 C   0  0  2  0  0  0  0  0  0  0  0  0
    8.8757  -15.7432   26.0530 N   0  0  0  0  0  0  0  0  0  0  0  0
    9.8706  -15.1521   28.1868 C   0  0  0  0  0  0  0  0  0  0  0  0
   10.8258  -14.5009   28.9138 O   0  0  0  0  0  0  0  0  0  0  0  0
    9.4792  -16.2811   28.6169 O   0  0  0  0  0  0  0  0  0  0  0  0
  2  9  1  0
  2  1  1  6
  3  2  1  0
  4  3  1  0
  4  5  2  0
  6  5  1  0
  7  8  2  0
  7  6  1  0
  8  4  1  0
  9 11  1  0
 10  9  2  0
 11 12  1  0
 12 13  1  1
 13 14  1  0
 14 15  1  0
 15 19  1  0
 16 15  2  0
 17 12  1  0
 18 17  2  0
 21 20  1  0
 21 22  1  0
 22 24  1  0
 22 23  1  6
 24 25  1  6
 24 26  1  0
 25 17  1  0
 26 27  1  0
 28 26  2  0
M  END
$$$$
