HEI.pdb
     RDKit          3D

 28 28  0  0  1  0  0  0  0  0999 V2000
    7.5521  -17.0853   18.9562 N   0  0  0  0  0  0  0  0  0  0  0  0
    8.0629  -15.9847   19.7474 C   0  0  1  0  0  0  0  0  0  0  0  0
    7.2612  -14.7510   19.4863 C   0  0  0  0  0  0  0  0  0  0  0  0
    7.6270  -14.2661   18.1049 C   0  0  0  0  0  0  0  0  0  0  0  0
    8.5098  -14.8677   17.2310 C   0  0  0  0  0  0  0  0  0  0  0  0
    8.5850  -14.1569   16.0975 N   0  0  0  0  0  0  0  0  0  0  0  0
    7.7522  -13.1134   16.2603 C   0  0  0  0  0  0  0  0  0  0  0  0
    7.1705  -13.1740   17.4714 N   0  0  0  0  0  0  0  0  0  0  0  0
    8.2157  -16.3615   21.1403 C   0  0  0  0  0  0  0  0  0  0  0  0
    7.1722  -16.5069   21.8407 O   0  0  0  0  0  0  0  0  0  0  0  0
    9.4513  -16.5875   21.8055 N   0  0  0  0  0  0  0  0  0  0  0  0
    9.4917  -16.9496   23.1999 C   0  0  1  0  0  0  0  0  0  0  0  0
   10.5003  -17.9789   23.5274 C   0  0  0  0  0  0  0  0  0  0  0  0
   10.4762  -19.2684   22.8129 C   0  0  0  0  0  0  0  0  0  0  0  0
   11.4739  -20.2703   23.1387 C   0  0  0  0  0  0  0  0  0  0  0  0
   12.6547  -20.1367   22.6646 O   0  0  0  0  0  0  0  0  0  0  0  0
    9.5963  -15.7341   24.0736 C   0  0  0  0  0  0  0  0  0  0  0  0
   10.3500  -14.7797   23.7945 O   0  0  0  0  0  0  0  0  0  0  0  0
   11.2497  -21.3811   23.9359 O   0  0  0  0  0  0  0  0  0  0  0  0
    6.9623  -11.3679   26.4712 C   0  0  0  0  0  0  0  0  0  0  0  0
    7.7976  -12.5210   26.9412 C   0  0  0  0  0  0  0  0  0  0  0  0
    7.7463  -13.7089   26.0022 C   0  0  2  0  0  0  0  0  0  0  0  0
    6.3984  -14.3436   26.1405 C   0  0  0  0  0  0  0  0  0  0  0  0
    8.8957  -14.6191   26.2247 C   0  0  2  0  0  0  0  0  0  0  0  0
    8.8155  -15.6886   25.2330 N   0  0  0  0  0  0  0  0  0  0  0  0
    8.9969  -15.1515   27.5933 C   0  0  0  0  0  0  0  0  0  0  0  0
    8.7898  -16.4530   27.9513 O   0  0  0  0  0  0  0  0  0  0  0  0
    9.3014  -14.3341   28.5164 O   0  0  0  0  0  0  0  0  0  0  0  0
  2  9  1  0
  2  1  1  6
  3  2  1  0
  4  3  1  0
  4  5  2  0
  6  5  1  0
  7  8  2  0
  7  6  1  0
  8  4  1  0
  9 11  1  0
 10  9  2  0
 11 12  1  0
 12 13  1  6
 13 14  1  0
 14 15  1  0
 15 19  1  0
 16 15  2  0
 17 12  1  0
 18 17  2  0
 21 20  1  0
 21 22  1  0
 22 24  1  0
 22 23  1  1
 24 25  1  6
 24 26  1  0
 25 17  1  0
 26 27  1  0
 28 26  2  0
M  END
$$$$
