EWS.pdb
     RDKit          3D

 30 31  0  0  1  0  0  0  0  0999 V2000
    7.3011  -17.4280   21.4034 N   0  0  0  0  0  0  0  0  0  0  0  0
    8.3772  -16.6202   20.9613 C   0  0  1  0  0  0  0  0  0  0  0  0
    8.0733  -15.4676   20.0798 C   0  0  0  0  0  0  0  0  0  0  0  0
    7.2489  -15.6893   18.8806 C   0  0  0  0  0  0  0  0  0  0  0  0
    7.8854  -16.5489   17.8803 C   0  0  0  0  0  0  0  0  0  0  0  0
    9.0840  -16.5385   17.5998 O   0  0  0  0  0  0  0  0  0  0  0  0
    9.2227  -16.1114   22.1053 C   0  0  0  0  0  0  0  0  0  0  0  0
   10.1178  -15.2447   21.8292 O   0  0  0  0  0  0  0  0  0  0  0  0
    7.0430  -17.4614   17.1862 O   0  0  0  0  0  0  0  0  0  0  0  0
    9.0878  -16.5257   23.4391 N   0  0  0  0  0  0  0  0  0  0  0  0
   10.0083  -16.0653   24.4983 C   0  0  1  0  0  0  0  0  0  0  0  0
    9.2239  -16.1769   25.7958 C   0  0  0  0  0  0  0  0  0  0  0  0
    7.9716  -15.4291   25.8216 C   0  0  0  0  0  0  0  0  0  0  0  0
    6.7176  -15.9726   25.6373 C   0  0  0  0  0  0  0  0  0  0  0  0
    5.8201  -14.9448   25.7225 N   0  0  0  0  0  0  0  0  0  0  0  0
    6.4929  -13.8044   25.9513 C   0  0  0  0  0  0  0  0  0  0  0  0
    6.0315  -12.5053   26.1129 C   0  0  0  0  0  0  0  0  0  0  0  0
    6.9099  -11.4641   26.3429 C   0  0  0  0  0  0  0  0  0  0  0  0
    8.2637  -11.7189   26.4130 C   0  0  0  0  0  0  0  0  0  0  0  0
    8.7010  -13.0148   26.2500 C   0  0  0  0  0  0  0  0  0  0  0  0
    7.8498  -14.0716   26.0197 C   0  0  0  0  0  0  0  0  0  0  0  0
   11.2504  -16.8362   24.4755 C   0  0  0  0  0  0  0  0  0  0  0  0
   11.1747  -18.1141   24.4708 O   0  0  0  0  0  0  0  0  0  0  0  0
   14.8689  -15.2512   23.5373 O   0  0  0  0  0  0  0  0  0  0  0  0
   14.7010  -16.6180   23.4251 C   0  0  0  0  0  0  0  0  0  0  0  0
   13.7460  -17.1605   24.4985 C   0  0  2  0  0  0  0  0  0  0  0  0
   12.5691  -16.3183   24.4548 N   0  0  0  0  0  0  0  0  0  0  0  0
   14.4729  -17.1411   25.7627 C   0  0  0  0  0  0  0  0  0  0  0  0
   13.9329  -16.4856   26.7153 O   0  0  0  0  0  0  0  0  0  0  0  0
   15.6681  -17.7452   26.0447 O   0  0  0  0  0  0  0  0  0  0  0  0
  2  1  1  1
  2  3  1  0
  4  3  1  0
  5  4  1  0
  6  5  2  0
  7  2  1  0
  7  8  2  0
  9  5  1  0
 10  7  1  0
 11 10  1  0
 12 13  1  0
 11 12  1  1
 13 21  1  0
 14 13  2  0
 14 15  1  0
 15 16  1  0
 16 17  1  0
 17 18  2  0
 19 18  1  0
 20 19  2  0
 21 16  2  0
 21 20  1  0
 22 27  1  0
 22 11  1  0
 23 22  2  0
 24 25  1  0
 26 25  1  6
 26 27  1  0
 26 28  1  0
 28 30  1  0
 29 28  2  0
M  END
$$$$
