EWS.pdb
     RDKit          3D

 30 31  0  0  1  0  0  0  0  0999 V2000
    7.4801  -17.6278   21.8146 N   0  0  0  0  0  0  0  0  0  0  0  0
    8.4218  -16.6509   21.4083 C   0  0  1  0  0  0  0  0  0  0  0  0
    7.9433  -15.5150   20.5846 C   0  0  0  0  0  0  0  0  0  0  0  0
    6.9250  -15.7667   19.5518 C   0  0  0  0  0  0  0  0  0  0  0  0
    7.4656  -15.8099   18.1915 C   0  0  0  0  0  0  0  0  0  0  0  0
    7.9683  -14.8543   17.6003 O   0  0  0  0  0  0  0  0  0  0  0  0
    9.1958  -16.0783   22.5725 C   0  0  0  0  0  0  0  0  0  0  0  0
    9.9789  -15.1007   22.3286 O   0  0  0  0  0  0  0  0  0  0  0  0
    7.3985  -17.0579   17.5117 O   0  0  0  0  0  0  0  0  0  0  0  0
    9.1093  -16.5472   23.8923 N   0  0  0  0  0  0  0  0  0  0  0  0
    9.9869  -16.0346   24.9638 C   0  0  1  0  0  0  0  0  0  0  0  0
    9.1537  -16.0916   26.2342 C   0  0  0  0  0  0  0  0  0  0  0  0
    7.9116  -15.3280   26.1877 C   0  0  0  0  0  0  0  0  0  0  0  0
    6.6693  -15.8487   25.8915 C   0  0  0  0  0  0  0  0  0  0  0  0
    5.7795  -14.8119   25.9400 N   0  0  0  0  0  0  0  0  0  0  0  0
    6.4455  -13.6881   26.2548 C   0  0  0  0  0  0  0  0  0  0  0  0
    5.9876  -12.3884   26.4211 C   0  0  0  0  0  0  0  0  0  0  0  0
    6.8574  -11.3665   26.7497 C   0  0  0  0  0  0  0  0  0  0  0  0
    8.1989  -11.6416   26.9148 C   0  0  0  0  0  0  0  0  0  0  0  0
    8.6330  -12.9378   26.7453 C   0  0  0  0  0  0  0  0  0  0  0  0
    7.7901  -13.9756   26.4181 C   0  0  0  0  0  0  0  0  0  0  0  0
   11.2317  -16.7992   25.0233 C   0  0  0  0  0  0  0  0  0  0  0  0
   12.0337  -16.5832   25.9974 O   0  0  0  0  0  0  0  0  0  0  0  0
   11.7202  -20.0768   22.9432 O   0  0  0  0  0  0  0  0  0  0  0  0
   12.9724  -19.5172   23.1095 C   0  0  0  0  0  0  0  0  0  0  0  0
   12.9638  -18.4213   24.1852 C   0  0  2  0  0  0  0  0  0  0  0  0
   11.6667  -17.7834   24.1016 N   0  0  0  0  0  0  0  0  0  0  0  0
   14.1000  -17.5487   23.9117 C   0  0  0  0  0  0  0  0  0  0  0  0
   13.8328  -16.3152   23.7224 O   0  0  0  0  0  0  0  0  0  0  0  0
   15.4201  -17.9011   23.8345 O   0  0  0  0  0  0  0  0  0  0  0  0
  2  1  1  1
  2  3  1  0
  4  3  1  0
  5  4  1  0
  6  5  2  0
  7  2  1  0
  7  8  2  0
  9  5  1  0
 10  7  1  0
 11 10  1  0
 12 13  1  0
 11 12  1  1
 13 21  1  0
 14 13  2  0
 14 15  1  0
 15 16  1  0
 16 17  1  0
 17 18  2  0
 19 18  1  0
 20 19  2  0
 21 16  2  0
 21 20  1  0
 22 27  1  0
 22 11  1  0
 23 22  2  0
 24 25  1  0
 26 25  1  6
 26 27  1  0
 26 28  1  0
 28 30  1  0
 29 28  2  0
M  END
$$$$
