EWS.pdb
     RDKit          3D

 30 31  0  0  1  0  0  0  0  0999 V2000
    7.5117  -18.3206   21.7433 N   0  0  0  0  0  0  0  0  0  0  0  0
    8.6211  -17.5874   21.2556 C   0  0  1  0  0  0  0  0  0  0  0  0
    8.4056  -16.6641   20.1159 C   0  0  0  0  0  0  0  0  0  0  0  0
    9.0104  -16.9905   18.8141 C   0  0  0  0  0  0  0  0  0  0  0  0
    8.1260  -16.7370   17.6748 C   0  0  0  0  0  0  0  0  0  0  0  0
    7.8506  -17.5561   16.7982 O   0  0  0  0  0  0  0  0  0  0  0  0
    9.3231  -16.8126   22.3462 C   0  0  0  0  0  0  0  0  0  0  0  0
   10.0442  -15.8227   21.9875 O   0  0  0  0  0  0  0  0  0  0  0  0
    7.5470  -15.4405   17.5857 O   0  0  0  0  0  0  0  0  0  0  0  0
    9.2337  -17.1081   23.7150 N   0  0  0  0  0  0  0  0  0  0  0  0
   10.0758  -16.4271   24.7191 C   0  0  1  0  0  0  0  0  0  0  0  0
    9.2468  -16.3980   25.9931 C   0  0  0  0  0  0  0  0  0  0  0  0
    8.0251  -15.6050   25.9119 C   0  0  0  0  0  0  0  0  0  0  0  0
    6.7693  -16.1057   25.6390 C   0  0  0  0  0  0  0  0  0  0  0  0
    5.9071  -15.0448   25.6404 N   0  0  0  0  0  0  0  0  0  0  0  0
    6.6026  -13.9258   25.9046 C   0  0  0  0  0  0  0  0  0  0  0  0
    6.1791  -12.6083   26.0121 C   0  0  0  0  0  0  0  0  0  0  0  0
    7.0757  -11.5959   26.2946 C   0  0  0  0  0  0  0  0  0  0  0  0
    8.4096  -11.8984   26.4724 C   0  0  0  0  0  0  0  0  0  0  0  0
    8.8094  -13.2119   26.3616 C   0  0  0  0  0  0  0  0  0  0  0  0
    7.9393  -14.2409   26.0811 C   0  0  0  0  0  0  0  0  0  0  0  0
   11.3667  -17.1001   24.8540 C   0  0  0  0  0  0  0  0  0  0  0  0
   11.3765  -18.3539   25.1122 O   0  0  0  0  0  0  0  0  0  0  0  0
   14.9816  -15.1961   24.2731 O   0  0  0  0  0  0  0  0  0  0  0  0
   14.9204  -16.5486   23.9978 C   0  0  0  0  0  0  0  0  0  0  0  0
   13.8784  -17.2577   24.8752 C   0  0  2  0  0  0  0  0  0  0  0  0
   12.6481  -16.5091   24.7260 N   0  0  0  0  0  0  0  0  0  0  0  0
   14.4183  -17.2952   26.2295 C   0  0  0  0  0  0  0  0  0  0  0  0
   13.6962  -16.7687   27.1407 O   0  0  0  0  0  0  0  0  0  0  0  0
   15.6107  -17.8301   26.6354 O   0  0  0  0  0  0  0  0  0  0  0  0
  2  1  1  1
  2  3  1  0
  4  3  1  0
  5  4  1  0
  6  5  2  0
  7  2  1  0
  7  8  2  0
  9  5  1  0
 10  7  1  0
 11 10  1  0
 12 13  1  0
 11 12  1  1
 13 21  1  0
 14 13  2  0
 14 15  1  0
 15 16  1  0
 16 17  1  0
 17 18  2  0
 19 18  1  0
 20 19  2  0
 21 16  2  0
 21 20  1  0
 22 27  1  0
 22 11  1  0
 23 22  2  0
 24 25  1  0
 26 25  1  6
 26 27  1  0
 26 28  1  0
 28 30  1  0
 29 28  2  0
M  END
$$$$
