EWS.pdb
     RDKit          3D

 30 31  0  0  1  0  0  0  0  0999 V2000
    9.5660  -16.0731   18.3861 N   0  0  0  0  0  0  0  0  0  0  0  0
   10.1583  -16.8032   19.4455 C   0  0  1  0  0  0  0  0  0  0  0  0
   11.5935  -17.1585   19.3363 C   0  0  0  0  0  0  0  0  0  0  0  0
   12.0887  -17.7312   18.0739 C   0  0  0  0  0  0  0  0  0  0  0  0
   13.4624  -18.2321   18.1545 C   0  0  0  0  0  0  0  0  0  0  0  0
   13.8218  -19.2052   18.8173 O   0  0  0  0  0  0  0  0  0  0  0  0
    9.9514  -16.1406   20.7873 C   0  0  0  0  0  0  0  0  0  0  0  0
   10.6588  -15.1101   21.0448 O   0  0  0  0  0  0  0  0  0  0  0  0
   14.4480  -17.5315   17.4050 O   0  0  0  0  0  0  0  0  0  0  0  0
    9.0397  -16.5805   21.7591 N   0  0  0  0  0  0  0  0  0  0  0  0
    8.8658  -15.8753   23.0450 C   0  0  1  0  0  0  0  0  0  0  0  0
    7.3663  -15.8466   23.2937 C   0  0  0  0  0  0  0  0  0  0  0  0
    6.9682  -15.2789   24.5772 C   0  0  0  0  0  0  0  0  0  0  0  0
    6.4026  -15.9858   25.6175 C   0  0  0  0  0  0  0  0  0  0  0  0
    6.1684  -15.0933   26.6263 N   0  0  0  0  0  0  0  0  0  0  0  0
    6.5739  -13.8763   26.2265 C   0  0  0  0  0  0  0  0  0  0  0  0
    6.5461  -12.6567   26.8888 C   0  0  0  0  0  0  0  0  0  0  0  0
    7.0216  -11.5097   26.2831 C   0  0  0  0  0  0  0  0  0  0  0  0
    7.5309  -11.5772   25.0030 C   0  0  0  0  0  0  0  0  0  0  0  0
    7.5496  -12.7969   24.3632 C   0  0  0  0  0  0  0  0  0  0  0  0
    7.0830  -13.9556   24.9412 C   0  0  0  0  0  0  0  0  0  0  0  0
    9.6406  -16.5255   24.1007 C   0  0  0  0  0  0  0  0  0  0  0  0
    9.7743  -17.7981   24.0631 O   0  0  0  0  0  0  0  0  0  0  0  0
   10.5079  -14.6190   27.5270 O   0  0  0  0  0  0  0  0  0  0  0  0
   11.4637  -15.5752   27.2428 C   0  0  0  0  0  0  0  0  0  0  0  0
   10.9357  -16.6270   26.2563 C   0  0  2  0  0  0  0  0  0  0  0  0
   10.2828  -15.8919   25.1933 N   0  0  0  0  0  0  0  0  0  0  0  0
   10.0667  -17.5209   27.0132 C   0  0  0  0  0  0  0  0  0  0  0  0
    8.8351  -17.5290   26.6788 O   0  0  0  0  0  0  0  0  0  0  0  0
   10.4206  -18.3519   28.0413 O   0  0  0  0  0  0  0  0  0  0  0  0
  2  1  1  6
  2  3  1  0
  4  3  1  0
  5  4  1  0
  6  5  2  0
  7  2  1  0
  7  8  2  0
  9  5  1  0
 10  7  1  0
 11 10  1  0
 12 13  1  0
 11 12  1  1
 13 21  1  0
 14 13  2  0
 14 15  1  0
 15 16  1  0
 16 17  1  0
 17 18  2  0
 19 18  1  0
 20 19  2  0
 21 16  2  0
 21 20  1  0
 22 27  1  0
 22 11  1  0
 23 22  2  0
 24 25  1  0
 26 25  1  1
 26 27  1  0
 26 28  1  0
 28 30  1  0
 29 28  2  0
M  END
$$$$
