EWS.pdb
     RDKit          3D

 30 31  0  0  1  0  0  0  0  0999 V2000
    9.0081  -19.0944   21.6110 N   0  0  0  0  0  0  0  0  0  0  0  0
   10.0240  -18.1140   21.7243 C   0  0  1  0  0  0  0  0  0  0  0  0
   10.0395  -17.0030   20.7428 C   0  0  0  0  0  0  0  0  0  0  0  0
   10.1982  -17.3204   19.3142 C   0  0  0  0  0  0  0  0  0  0  0  0
   10.3009  -16.1375   18.4571 C   0  0  0  0  0  0  0  0  0  0  0  0
    9.3876  -15.6825   17.7686 O   0  0  0  0  0  0  0  0  0  0  0  0
   10.0850  -17.5055   23.1058 C   0  0  0  0  0  0  0  0  0  0  0  0
   10.9702  -16.6093   23.3103 O   0  0  0  0  0  0  0  0  0  0  0  0
   11.5581  -15.4723   18.4263 O   0  0  0  0  0  0  0  0  0  0  0  0
    9.2387  -17.8582   24.1680 N   0  0  0  0  0  0  0  0  0  0  0  0
    9.3929  -17.2779   25.5172 C   0  0  1  0  0  0  0  0  0  0  0  0
    7.9788  -17.0794   26.0389 C   0  0  0  0  0  0  0  0  0  0  0  0
    7.2712  -15.9360   25.4730 C   0  0  0  0  0  0  0  0  0  0  0  0
    6.2805  -16.0088   24.5163 C   0  0  0  0  0  0  0  0  0  0  0  0
    5.8886  -14.7267   24.2485 N   0  0  0  0  0  0  0  0  0  0  0  0
    6.6102  -13.8883   25.0114 C   0  0  0  0  0  0  0  0  0  0  0  0
    6.5814  -12.5034   25.1002 C   0  0  0  0  0  0  0  0  0  0  0  0
    7.4233  -11.8305   25.9645 C   0  0  0  0  0  0  0  0  0  0  0  0
    8.3044  -12.5444   26.7496 C   0  0  0  0  0  0  0  0  0  0  0  0
    8.3173  -13.9179   26.6465 C   0  0  0  0  0  0  0  0  0  0  0  0
    7.4907  -14.6151   25.7949 C   0  0  0  0  0  0  0  0  0  0  0  0
   10.2313  -18.1332   26.3558 C   0  0  0  0  0  0  0  0  0  0  0  0
   10.8617  -19.1000   25.8021 O   0  0  0  0  0  0  0  0  0  0  0  0
   13.8494  -19.0156   28.4536 O   0  0  0  0  0  0  0  0  0  0  0  0
   12.7954  -18.3573   27.8499 C   0  0  0  0  0  0  0  0  0  0  0  0
   11.4484  -18.7607   28.4674 C   0  0  2  0  0  0  0  0  0  0  0  0
   10.4360  -18.0120   27.7525 N   0  0  0  0  0  0  0  0  0  0  0  0
   11.5336  -18.4767   29.8954 C   0  0  0  0  0  0  0  0  0  0  0  0
   10.8261  -17.5036   30.3214 O   0  0  0  0  0  0  0  0  0  0  0  0
   12.2855  -19.1339   30.8310 O   0  0  0  0  0  0  0  0  0  0  0  0
  2  1  1  1
  2  3  1  0
  4  3  1  0
  5  4  1  0
  6  5  2  0
  7  2  1  0
  7  8  2  0
  9  5  1  0
 10  7  1  0
 11 10  1  0
 12 13  1  0
 11 12  1  1
 13 21  1  0
 14 13  2  0
 14 15  1  0
 15 16  1  0
 16 17  1  0
 17 18  2  0
 19 18  1  0
 20 19  2  0
 21 16  2  0
 21 20  1  0
 22 27  1  0
 22 11  1  0
 23 22  2  0
 24 25  1  0
 26 25  1  6
 26 27  1  0
 26 28  1  0
 28 30  1  0
 29 28  2  0
M  END
$$$$
