EWS.pdb
     RDKit          3D

 30 31  0  0  1  0  0  0  0  0999 V2000
    8.1869  -17.5251   22.6423 N   0  0  0  0  0  0  0  0  0  0  0  0
    9.5595  -17.2620   22.4125 C   0  0  1  0  0  0  0  0  0  0  0  0
    9.9298  -16.4524   21.2270 C   0  0  0  0  0  0  0  0  0  0  0  0
    9.3275  -16.7836   19.9253 C   0  0  0  0  0  0  0  0  0  0  0  0
    9.8718  -16.0053   18.8106 C   0  0  0  0  0  0  0  0  0  0  0  0
    9.2388  -15.1845   18.1465 O   0  0  0  0  0  0  0  0  0  0  0  0
   10.2373  -16.6489   23.6155 C   0  0  0  0  0  0  0  0  0  0  0  0
   11.4409  -16.2514   23.4679 O   0  0  0  0  0  0  0  0  0  0  0  0
   11.2381  -16.2239   18.4797 O   0  0  0  0  0  0  0  0  0  0  0  0
    9.6341  -16.4892   24.8723 N   0  0  0  0  0  0  0  0  0  0  0  0
   10.4219  -16.1971   26.0869 C   0  0  1  0  0  0  0  0  0  0  0  0
    9.5714  -15.2363   26.9022 C   0  0  0  0  0  0  0  0  0  0  0  0
    8.2506  -14.9633   26.3463 C   0  0  0  0  0  0  0  0  0  0  0  0
    7.3506  -15.9214   25.9290 C   0  0  0  0  0  0  0  0  0  0  0  0
    6.2482  -15.2590   25.4653 N   0  0  0  0  0  0  0  0  0  0  0  0
    6.4564  -13.9374   25.5903 C   0  0  0  0  0  0  0  0  0  0  0  0
    5.6404  -12.8637   25.2620 C   0  0  0  0  0  0  0  0  0  0  0  0
    6.0572  -11.5642   25.4772 C   0  0  0  0  0  0  0  0  0  0  0  0
    7.3011  -11.3307   26.0257 C   0  0  0  0  0  0  0  0  0  0  0  0
    8.0954  -12.4098   26.3445 C   0  0  0  0  0  0  0  0  0  0  0  0
    7.7070  -13.7146   26.1415 C   0  0  0  0  0  0  0  0  0  0  0  0
   10.7745  -17.4326   26.7846 C   0  0  0  0  0  0  0  0  0  0  0  0
   11.3762  -17.3460   27.9112 O   0  0  0  0  0  0  0  0  0  0  0  0
   10.8915  -21.0846   24.9600 O   0  0  0  0  0  0  0  0  0  0  0  0
   10.4722  -21.1406   26.2752 C   0  0  0  0  0  0  0  0  0  0  0  0
   10.9609  -19.9254   27.0769 C   0  0  2  0  0  0  0  0  0  0  0  0
   10.5180  -18.7557   26.3473 N   0  0  0  0  0  0  0  0  0  0  0  0
   12.4070  -20.0586   27.2111 C   0  0  0  0  0  0  0  0  0  0  0  0
   13.1117  -19.1412   26.6721 O   0  0  0  0  0  0  0  0  0  0  0  0
   13.0951  -21.0550   27.8488 O   0  0  0  0  0  0  0  0  0  0  0  0
  2  1  1  1
  2  3  1  0
  4  3  1  0
  5  4  1  0
  6  5  2  0
  7  2  1  0
  7  8  2  0
  9  5  1  0
 10  7  1  0
 11 10  1  0
 12 13  1  0
 11 12  1  1
 13 21  1  0
 14 13  2  0
 14 15  1  0
 15 16  1  0
 16 17  1  0
 17 18  2  0
 19 18  1  0
 20 19  2  0
 21 16  2  0
 21 20  1  0
 22 27  1  0
 22 11  1  0
 23 22  2  0
 24 25  1  0
 26 25  1  6
 26 27  1  0
 26 28  1  0
 28 30  1  0
 29 28  2  0
M  END
$$$$
