EWS.pdb
     RDKit          3D

 30 31  0  0  1  0  0  0  0  0999 V2000
    7.7446  -12.9704   17.7715 N   0  0  0  0  0  0  0  0  0  0  0  0
    7.6497  -14.2417   18.3888 C   0  0  1  0  0  0  0  0  0  0  0  0
    8.3015  -15.3951   17.7234 C   0  0  0  0  0  0  0  0  0  0  0  0
    9.5283  -15.1640   16.9435 C   0  0  0  0  0  0  0  0  0  0  0  0
   10.0685  -16.3763   16.3244 C   0  0  0  0  0  0  0  0  0  0  0  0
   11.0898  -16.9599   16.6871 O   0  0  0  0  0  0  0  0  0  0  0  0
    8.1144  -14.2196   19.8261 C   0  0  0  0  0  0  0  0  0  0  0  0
    9.1104  -13.4726   20.1063 O   0  0  0  0  0  0  0  0  0  0  0  0
    9.3484  -16.9103   15.2197 O   0  0  0  0  0  0  0  0  0  0  0  0
    7.5265  -14.9599   20.8632 N   0  0  0  0  0  0  0  0  0  0  0  0
    7.9343  -14.7924   22.2727 C   0  0  1  0  0  0  0  0  0  0  0  0
    6.6536  -14.9094   23.0834 C   0  0  0  0  0  0  0  0  0  0  0  0
    6.8321  -14.8186   24.5284 C   0  0  0  0  0  0  0  0  0  0  0  0
    6.9698  -15.8938   25.3811 C   0  0  0  0  0  0  0  0  0  0  0  0
    7.1004  -15.3877   26.6444 N   0  0  0  0  0  0  0  0  0  0  0  0
    7.0457  -14.0468   26.5782 C   0  0  0  0  0  0  0  0  0  0  0  0
    7.1301  -13.0928   27.5830 C   0  0  0  0  0  0  0  0  0  0  0  0
    7.0483  -11.7452   27.2901 C   0  0  0  0  0  0  0  0  0  0  0  0
    6.8806  -11.3421   25.9817 C   0  0  0  0  0  0  0  0  0  0  0  0
    6.7993  -12.3044   24.9995 C   0  0  0  0  0  0  0  0  0  0  0  0
    6.8773  -13.6535   25.2613 C   0  0  0  0  0  0  0  0  0  0  0  0
    8.9669  -15.7633   22.6315 C   0  0  0  0  0  0  0  0  0  0  0  0
    8.7341  -17.0051   22.4252 O   0  0  0  0  0  0  0  0  0  0  0  0
   13.4805  -16.6931   24.2678 O   0  0  0  0  0  0  0  0  0  0  0  0
   12.4820  -15.7974   23.9370 C   0  0  0  0  0  0  0  0  0  0  0  0
   11.1719  -16.5162   23.5828 C   0  0  2  0  0  0  0  0  0  0  0  0
   10.2355  -15.4817   23.1962 N   0  0  0  0  0  0  0  0  0  0  0  0
   10.7841  -17.2940   24.7540 C   0  0  0  0  0  0  0  0  0  0  0  0
   10.9971  -18.5509   24.6938 O   0  0  0  0  0  0  0  0  0  0  0  0
   10.2176  -16.8305   25.9103 O   0  0  0  0  0  0  0  0  0  0  0  0
  2  1  1  6
  2  3  1  0
  4  3  1  0
  5  4  1  0
  6  5  2  0
  7  2  1  0
  7  8  2  0
  9  5  1  0
 10  7  1  0
 11 10  1  0
 12 13  1  0
 11 12  1  1
 13 21  1  0
 14 13  2  0
 14 15  1  0
 15 16  1  0
 16 17  1  0
 17 18  2  0
 19 18  1  0
 20 19  2  0
 21 16  2  0
 21 20  1  0
 22 27  1  0
 22 11  1  0
 23 22  2  0
 24 25  1  0
 26 25  1  1
 26 27  1  0
 26 28  1  0
 28 30  1  0
 29 28  2  0
M  END
$$$$
