EWS.pdb
     RDKit          3D

 30 31  0  0  1  0  0  0  0  0999 V2000
    7.8106  -18.8325   21.8007 N   0  0  0  0  0  0  0  0  0  0  0  0
    8.7243  -17.8651   21.3154 C   0  0  1  0  0  0  0  0  0  0  0  0
    8.2510  -16.9054   20.2894 C   0  0  0  0  0  0  0  0  0  0  0  0
    7.7146  -17.4285   19.0222 C   0  0  0  0  0  0  0  0  0  0  0  0
    7.2251  -16.3870   18.1165 C   0  0  0  0  0  0  0  0  0  0  0  0
    7.3948  -15.1778   18.2730 O   0  0  0  0  0  0  0  0  0  0  0  0
    9.3633  -17.0677   22.4281 C   0  0  0  0  0  0  0  0  0  0  0  0
   10.0982  -16.0803   22.0912 O   0  0  0  0  0  0  0  0  0  0  0  0
    6.4991  -16.8188   16.9718 O   0  0  0  0  0  0  0  0  0  0  0  0
    9.2017  -17.3397   23.7952 N   0  0  0  0  0  0  0  0  0  0  0  0
    9.9480  -16.6008   24.8336 C   0  0  1  0  0  0  0  0  0  0  0  0
    9.0028  -16.5002   26.0200 C   0  0  0  0  0  0  0  0  0  0  0  0
    7.8342  -15.6543   25.8032 C   0  0  0  0  0  0  0  0  0  0  0  0
    6.5832  -16.1056   25.4383 C   0  0  0  0  0  0  0  0  0  0  0  0
    5.7786  -15.0061   25.3261 N   0  0  0  0  0  0  0  0  0  0  0  0
    6.5042  -13.9115   25.6110 C   0  0  0  0  0  0  0  0  0  0  0  0
    6.1400  -12.5723   25.6341 C   0  0  0  0  0  0  0  0  0  0  0  0
    7.0586  -11.5930   25.9589 C   0  0  0  0  0  0  0  0  0  0  0  0
    8.3552  -11.9507   26.2643 C   0  0  0  0  0  0  0  0  0  0  0  0
    8.6964  -13.2849   26.2358 C   0  0  0  0  0  0  0  0  0  0  0  0
    7.8031  -14.2820   25.9159 C   0  0  0  0  0  0  0  0  0  0  0  0
   11.2180  -17.2627   25.1277 C   0  0  0  0  0  0  0  0  0  0  0  0
   11.1903  -18.4508   25.6037 O   0  0  0  0  0  0  0  0  0  0  0  0
   14.8154  -15.3834   24.6991 O   0  0  0  0  0  0  0  0  0  0  0  0
   14.8612  -16.7493   24.4970 C   0  0  0  0  0  0  0  0  0  0  0  0
   13.7239  -17.4690   25.2365 C   0  0  2  0  0  0  0  0  0  0  0  0
   12.5163  -16.7274   24.9396 N   0  0  0  0  0  0  0  0  0  0  0  0
   14.0930  -17.5095   26.6469 C   0  0  0  0  0  0  0  0  0  0  0  0
   13.2769  -16.9613   27.4607 O   0  0  0  0  0  0  0  0  0  0  0  0
   15.2144  -18.0677   27.1978 O   0  0  0  0  0  0  0  0  0  0  0  0
  2  1  1  1
  2  3  1  0
  4  3  1  0
  5  4  1  0
  6  5  2  0
  7  2  1  0
  7  8  2  0
  9  5  1  0
 10  7  1  0
 11 10  1  0
 12 13  1  0
 11 12  1  1
 13 21  1  0
 14 13  2  0
 14 15  1  0
 15 16  1  0
 16 17  1  0
 17 18  2  0
 19 18  1  0
 20 19  2  0
 21 16  2  0
 21 20  1  0
 22 27  1  0
 22 11  1  0
 23 22  2  0
 24 25  1  0
 26 25  1  6
 26 27  1  0
 26 28  1  0
 28 30  1  0
 29 28  2  0
M  END
$$$$
