EWS.pdb
     RDKit          3D

 30 31  0  0  1  0  0  0  0  0999 V2000
    9.6142  -17.9940   21.2188 N   0  0  0  0  0  0  0  0  0  0  0  0
   10.7162  -17.2335   21.6807 C   0  0  1  0  0  0  0  0  0  0  0  0
   11.1231  -16.0415   20.8988 C   0  0  0  0  0  0  0  0  0  0  0  0
   11.1920  -16.1447   19.4320 C   0  0  0  0  0  0  0  0  0  0  0  0
   12.2362  -17.0539   18.9550 C   0  0  0  0  0  0  0  0  0  0  0  0
   13.4372  -16.9411   19.2002 O   0  0  0  0  0  0  0  0  0  0  0  0
   10.5560  -16.8040   23.1203 C   0  0  0  0  0  0  0  0  0  0  0  0
   11.4720  -16.0656   23.6145 O   0  0  0  0  0  0  0  0  0  0  0  0
   11.8174  -18.1473   18.1468 O   0  0  0  0  0  0  0  0  0  0  0  0
    9.4749  -17.1606   23.9407 N   0  0  0  0  0  0  0  0  0  0  0  0
    9.4070  -16.7642   25.3617 C   0  0  1  0  0  0  0  0  0  0  0  0
    7.9380  -16.4860   25.6368 C   0  0  0  0  0  0  0  0  0  0  0  0
    7.4232  -15.2600   25.0367 C   0  0  0  0  0  0  0  0  0  0  0  0
    6.9930  -15.1334   23.7325 C   0  0  0  0  0  0  0  0  0  0  0  0
    6.6035  -13.8338   23.5645 N   0  0  0  0  0  0  0  0  0  0  0  0
    6.7854  -13.1773   24.7228 C   0  0  0  0  0  0  0  0  0  0  0  0
    6.5409  -11.8514   25.0526 C   0  0  0  0  0  0  0  0  0  0  0  0
    6.8044  -11.3763   26.3229 C   0  0  0  0  0  0  0  0  0  0  0  0
    7.3173  -12.2311   27.2762 C   0  0  0  0  0  0  0  0  0  0  0  0
    7.5527  -13.5430   26.9287 C   0  0  0  0  0  0  0  0  0  0  0  0
    7.3002  -14.0442   25.6719 C   0  0  0  0  0  0  0  0  0  0  0  0
    9.9965  -17.7946   26.2152 C   0  0  0  0  0  0  0  0  0  0  0  0
    9.3040  -18.8391   26.4767 O   0  0  0  0  0  0  0  0  0  0  0  0
   13.8719  -17.6220   27.6195 O   0  0  0  0  0  0  0  0  0  0  0  0
   13.3146  -18.8696   27.4157 C   0  0  0  0  0  0  0  0  0  0  0  0
   11.7934  -18.8508   27.6257 C   0  0  2  0  0  0  0  0  0  0  0  0
   11.2855  -17.7730   26.8030 N   0  0  0  0  0  0  0  0  0  0  0  0
   11.5642  -18.6956   29.0576 C   0  0  0  0  0  0  0  0  0  0  0  0
   12.0032  -19.6321   29.8052 O   0  0  0  0  0  0  0  0  0  0  0  0
   10.9319  -17.6606   29.6917 O   0  0  0  0  0  0  0  0  0  0  0  0
  2  1  1  6
  2  3  1  0
  4  3  1  0
  5  4  1  0
  6  5  2  0
  7  2  1  0
  7  8  2  0
  9  5  1  0
 10  7  1  0
 11 10  1  0
 12 13  1  0
 11 12  1  1
 13 21  1  0
 14 13  2  0
 14 15  1  0
 15 16  1  0
 16 17  1  0
 17 18  2  0
 19 18  1  0
 20 19  2  0
 21 16  2  0
 21 20  1  0
 22 27  1  0
 22 11  1  0
 23 22  2  0
 24 25  1  0
 26 25  1  1
 26 27  1  0
 26 28  1  0
 28 30  1  0
 29 28  2  0
M  END
$$$$
