EWS.pdb
     RDKit          3D

 30 31  0  0  1  0  0  0  0  0999 V2000
    7.6676  -17.7585   21.3663 N   0  0  0  0  0  0  0  0  0  0  0  0
    8.8775  -17.0734   21.0958 C   0  0  1  0  0  0  0  0  0  0  0  0
    8.8552  -15.9774   20.0977 C   0  0  0  0  0  0  0  0  0  0  0  0
    8.4848  -16.2908   18.7079 C   0  0  0  0  0  0  0  0  0  0  0  0
    9.5803  -16.8627   17.9222 C   0  0  0  0  0  0  0  0  0  0  0  0
    9.9293  -18.0428   17.9512 O   0  0  0  0  0  0  0  0  0  0  0  0
    9.5281  -16.5377   22.3497 C   0  0  0  0  0  0  0  0  0  0  0  0
   10.4543  -15.6722   22.2027 O   0  0  0  0  0  0  0  0  0  0  0  0
   10.2878  -15.9759   17.0637 O   0  0  0  0  0  0  0  0  0  0  0  0
    9.1824  -16.9262   23.6530 N   0  0  0  0  0  0  0  0  0  0  0  0
    9.9329  -16.4557   24.8347 C   0  0  1  0  0  0  0  0  0  0  0  0
    8.9395  -16.4837   25.9852 C   0  0  0  0  0  0  0  0  0  0  0  0
    7.7493  -15.6636   25.7879 C   0  0  0  0  0  0  0  0  0  0  0  0
    6.5402  -16.1206   25.3069 C   0  0  0  0  0  0  0  0  0  0  0  0
    5.6967  -15.0458   25.2605 N   0  0  0  0  0  0  0  0  0  0  0  0
    6.3583  -13.9607   25.6969 C   0  0  0  0  0  0  0  0  0  0  0  0
    5.9365  -12.6455   25.8347 C   0  0  0  0  0  0  0  0  0  0  0  0
    6.7936  -11.6719   26.3102 C   0  0  0  0  0  0  0  0  0  0  0  0
    8.0859  -12.0113   26.6526 C   0  0  0  0  0  0  0  0  0  0  0  0
    8.4848  -13.3218   26.5085 C   0  0  0  0  0  0  0  0  0  0  0  0
    7.6535  -14.3126   26.0375 C   0  0  0  0  0  0  0  0  0  0  0  0
   11.1271  -17.2718   25.0480 C   0  0  0  0  0  0  0  0  0  0  0  0
   10.9827  -18.4492   25.5295 O   0  0  0  0  0  0  0  0  0  0  0  0
   14.9217  -15.7708   24.7969 O   0  0  0  0  0  0  0  0  0  0  0  0
   14.8170  -17.0913   24.4044 C   0  0  0  0  0  0  0  0  0  0  0  0
   13.5933  -17.7732   25.0338 C   0  0  2  0  0  0  0  0  0  0  0  0
   12.4669  -16.9015   24.7735 N   0  0  0  0  0  0  0  0  0  0  0  0
   13.9011  -17.9801   26.4443 C   0  0  0  0  0  0  0  0  0  0  0  0
   13.1049  -17.4389   27.2821 O   0  0  0  0  0  0  0  0  0  0  0  0
   14.9463  -18.6882   26.9727 O   0  0  0  0  0  0  0  0  0  0  0  0
  2  1  1  1
  2  3  1  0
  4  3  1  0
  5  4  1  0
  6  5  2  0
  7  2  1  0
  7  8  2  0
  9  5  1  0
 10  7  1  0
 11 10  1  0
 12 13  1  0
 11 12  1  1
 13 21  1  0
 14 13  2  0
 14 15  1  0
 15 16  1  0
 16 17  1  0
 17 18  2  0
 19 18  1  0
 20 19  2  0
 21 16  2  0
 21 20  1  0
 22 27  1  0
 22 11  1  0
 23 22  2  0
 24 25  1  0
 26 25  1  6
 26 27  1  0
 26 28  1  0
 28 30  1  0
 29 28  2  0
M  END
$$$$
