EDV.pdb
     RDKit          3D

 25 24  0  0  1  0  0  0  0  0999 V2000
    8.6197  -15.6696   19.5064 N   0  0  0  0  0  0  0  0  0  0  0  0
    7.3872  -15.9992   20.2314 C   0  0  1  0  0  0  0  0  0  0  0  0
    6.9700  -17.3806   19.7782 C   0  0  0  0  0  0  0  0  0  0  0  0
    5.7290  -17.8984   20.4290 C   0  0  0  0  0  0  0  0  0  0  0  0
    5.3570  -19.2540   20.0252 C   0  0  0  0  0  0  0  0  0  0  0  0
    4.7283  -19.9749   20.8312 O   0  0  0  0  0  0  0  0  0  0  0  0
    7.6589  -16.1107   21.6913 C   0  0  0  0  0  0  0  0  0  0  0  0
    6.7094  -16.1671   22.5140 O   0  0  0  0  0  0  0  0  0  0  0  0
    5.6808  -19.7520   18.7888 O   0  0  0  0  0  0  0  0  0  0  0  0
    8.9733  -16.1592   22.2317 N   0  0  0  0  0  0  0  0  0  0  0  0
    9.2680  -16.2978   23.6345 C   0  0  1  0  0  0  0  0  0  0  0  0
   10.6710  -16.8722   23.7535 C   0  0  0  0  0  0  0  0  0  0  0  0
   10.6039  -18.3248   23.4714 C   0  0  0  0  0  0  0  0  0  0  0  0
    9.6579  -18.9825   23.9558 O   0  0  0  0  0  0  0  0  0  0  0  0
    9.1662  -14.9990   24.3588 C   0  0  0  0  0  0  0  0  0  0  0  0
    9.7141  -13.9682   23.8921 O   0  0  0  0  0  0  0  0  0  0  0  0
   11.5673  -18.9173   22.6984 O   0  0  0  0  0  0  0  0  0  0  0  0
    6.0800  -13.5118   26.7905 C   0  0  0  0  0  0  0  0  0  0  0  0
    7.2762  -12.7658   26.1661 C   0  0  2  0  0  0  0  0  0  0  0  0
    6.9795  -12.7113   24.6738 C   0  0  0  0  0  0  0  0  0  0  0  0
    8.4780  -13.6261   26.3668 C   0  0  2  0  0  0  0  0  0  0  0  0
    8.4696  -14.8386   25.5817 N   0  0  0  0  0  0  0  0  0  0  0  0
    8.6292  -13.9579   27.8215 C   0  0  0  0  0  0  0  0  0  0  0  0
    8.8942  -13.0182   28.7969 O   0  0  0  0  0  0  0  0  0  0  0  0
    8.5095  -15.1561   28.1718 O   0  0  0  0  0  0  0  0  0  0  0  0
  2  1  1  6
  3  2  1  0
  4  3  1  0
  5  4  1  0
  5  6  2  0
  7  2  1  0
  7  8  2  0
  9  5  1  0
 10  7  1  0
 11 10  1  0
 11 12  1  6
 12 13  1  0
 13 17  1  0
 14 13  2  0
 15 11  1  0
 16 15  2  0
 19 18  1  1
 19 20  1  0
 19 21  1  0
 21 23  1  0
 21 22  1  6
 22 15  1  0
 23 24  1  0
 25 23  2  0
M  END
$$$$
