EDV.pdb
     RDKit          3D

 25 24  0  0  1  0  0  0  0  0999 V2000
    8.6619  -15.7357   19.6412 N   0  0  0  0  0  0  0  0  0  0  0  0
    7.3957  -15.5589   20.3615 C   0  0  1  0  0  0  0  0  0  0  0  0
    6.4648  -16.6507   19.8828 C   0  0  0  0  0  0  0  0  0  0  0  0
    7.1493  -17.8084   19.2326 C   0  0  0  0  0  0  0  0  0  0  0  0
    6.2422  -18.8334   18.7172 C   0  0  0  0  0  0  0  0  0  0  0  0
    5.8505  -18.7549   17.5319 O   0  0  0  0  0  0  0  0  0  0  0  0
    7.5911  -15.7955   21.8187 C   0  0  0  0  0  0  0  0  0  0  0  0
    6.6278  -15.6778   22.6185 O   0  0  0  0  0  0  0  0  0  0  0  0
    5.8118  -19.8743   19.5002 O   0  0  0  0  0  0  0  0  0  0  0  0
    8.8451  -16.1596   22.3816 N   0  0  0  0  0  0  0  0  0  0  0  0
    9.0604  -16.4173   23.7819 C   0  0  1  0  0  0  0  0  0  0  0  0
   10.2746  -17.3253   23.8995 C   0  0  0  0  0  0  0  0  0  0  0  0
    9.8755  -18.6908   23.4868 C   0  0  0  0  0  0  0  0  0  0  0  0
   10.4565  -19.2117   22.5106 O   0  0  0  0  0  0  0  0  0  0  0  0
    9.2639  -15.1608   24.5575 C   0  0  0  0  0  0  0  0  0  0  0  0
   10.2738  -14.4422   24.3467 O   0  0  0  0  0  0  0  0  0  0  0  0
    8.8877  -19.3508   24.1689 O   0  0  0  0  0  0  0  0  0  0  0  0
    6.2119  -13.2889   26.8341 C   0  0  0  0  0  0  0  0  0  0  0  0
    7.4751  -12.5497   26.3492 C   0  0  2  0  0  0  0  0  0  0  0  0
    7.1963  -12.1910   24.8960 C   0  0  0  0  0  0  0  0  0  0  0  0
    8.5932  -13.5366   26.3749 C   0  0  2  0  0  0  0  0  0  0  0  0
    8.3661  -14.7024   25.5525 N   0  0  0  0  0  0  0  0  0  0  0  0
    8.8727  -13.9525   27.7883 C   0  0  0  0  0  0  0  0  0  0  0  0
    9.3713  -13.0997   28.7522 O   0  0  0  0  0  0  0  0  0  0  0  0
    8.6419  -15.1415   28.1132 O   0  0  0  0  0  0  0  0  0  0  0  0
  2  1  1  6
  3  2  1  0
  4  3  1  0
  5  4  1  0
  5  6  2  0
  7  2  1  0
  7  8  2  0
  9  5  1  0
 10  7  1  0
 11 10  1  0
 11 12  1  6
 12 13  1  0
 13 17  1  0
 14 13  2  0
 15 11  1  0
 16 15  2  0
 19 18  1  6
 19 20  1  0
 19 21  1  0
 21 23  1  0
 21 22  1  6
 22 15  1  0
 23 24  1  0
 25 23  2  0
M  END
$$$$
