EDV.pdb
     RDKit          3D

 25 24  0  0  1  0  0  0  0  0999 V2000
    6.8568  -15.6997   19.4884 N   0  0  0  0  0  0  0  0  0  0  0  0
    7.9410  -14.9990   20.1862 C   0  0  1  0  0  0  0  0  0  0  0  0
    7.6235  -13.5219   20.1148 C   0  0  0  0  0  0  0  0  0  0  0  0
    7.6132  -12.9558   18.7324 C   0  0  0  0  0  0  0  0  0  0  0  0
    8.5913  -13.5579   17.8269 C   0  0  0  0  0  0  0  0  0  0  0  0
    8.2032  -14.4063   16.9938 O   0  0  0  0  0  0  0  0  0  0  0  0
    7.9379  -15.3502   21.6333 C   0  0  0  0  0  0  0  0  0  0  0  0
    6.9153  -15.1468   22.3365 O   0  0  0  0  0  0  0  0  0  0  0  0
    9.9190  -13.2162   17.8701 O   0  0  0  0  0  0  0  0  0  0  0  0
    9.0605  -15.9223   22.2926 N   0  0  0  0  0  0  0  0  0  0  0  0
    9.0567  -16.3638   23.6633 C   0  0  1  0  0  0  0  0  0  0  0  0
   10.1189  -17.4435   23.7999 C   0  0  0  0  0  0  0  0  0  0  0  0
    9.7250  -18.5927   22.9523 C   0  0  0  0  0  0  0  0  0  0  0  0
    8.5669  -19.0484   23.0674 O   0  0  0  0  0  0  0  0  0  0  0  0
    9.3168  -15.2444   24.6126 C   0  0  0  0  0  0  0  0  0  0  0  0
   10.3646  -14.5572   24.5106 O   0  0  0  0  0  0  0  0  0  0  0  0
   10.6237  -19.1330   22.0709 O   0  0  0  0  0  0  0  0  0  0  0  0
    6.3217  -13.5267   26.9003 C   0  0  0  0  0  0  0  0  0  0  0  0
    7.6824  -12.8155   26.7588 C   0  0  2  0  0  0  0  0  0  0  0  0
    7.6180  -12.0898   25.4220 C   0  0  0  0  0  0  0  0  0  0  0  0
    8.7212  -13.8810   26.6563 C   0  0  2  0  0  0  0  0  0  0  0  0
    8.4335  -14.8874   25.6608 N   0  0  0  0  0  0  0  0  0  0  0  0
    8.9223  -14.5263   27.9950 C   0  0  0  0  0  0  0  0  0  0  0  0
    9.4090  -13.8588   29.1006 O   0  0  0  0  0  0  0  0  0  0  0  0
    8.6335  -15.7405   28.1172 O   0  0  0  0  0  0  0  0  0  0  0  0
  2  1  1  6
  3  2  1  0
  4  3  1  0
  5  4  1  0
  5  6  2  0
  7  2  1  0
  7  8  2  0
  9  5  1  0
 10  7  1  0
 11 10  1  0
 11 12  1  6
 12 13  1  0
 13 17  1  0
 14 13  2  0
 15 11  1  0
 16 15  2  0
 19 18  1  6
 19 20  1  0
 19 21  1  0
 21 23  1  0
 21 22  1  6
 22 15  1  0
 23 24  1  0
 25 23  2  0
M  END
$$$$
