EDV.pdb
     RDKit          3D

 25 24  0  0  1  0  0  0  0  0999 V2000
   10.3992  -16.5030   14.0217 N   0  0  0  0  0  0  0  0  0  0  0  0
    9.2981  -15.6634   14.5077 C   0  0  1  0  0  0  0  0  0  0  0  0
    8.0761  -16.0333   13.6969 C   0  0  0  0  0  0  0  0  0  0  0  0
    8.2528  -15.9121   12.2184 C   0  0  0  0  0  0  0  0  0  0  0  0
    7.0858  -16.3189   11.4363 C   0  0  0  0  0  0  0  0  0  0  0  0
    6.7878  -15.6686   10.4102 O   0  0  0  0  0  0  0  0  0  0  0  0
    8.9719  -16.0034   15.9204 C   0  0  0  0  0  0  0  0  0  0  0  0
    7.9717  -15.4910   16.4847 O   0  0  0  0  0  0  0  0  0  0  0  0
    6.3128  -17.3920   11.8004 O   0  0  0  0  0  0  0  0  0  0  0  0
    9.7499  -16.9043   16.6984 N   0  0  0  0  0  0  0  0  0  0  0  0
    9.4208  -17.3079   18.0409 C   0  0  1  0  0  0  0  0  0  0  0  0
   10.1938  -18.5832   18.3387 C   0  0  0  0  0  0  0  0  0  0  0  0
    9.8009  -19.0612   19.6845 C   0  0  0  0  0  0  0  0  0  0  0  0
    8.6456  -18.8122   20.0912 O   0  0  0  0  0  0  0  0  0  0  0  0
    9.7448  -16.2492   19.0390 C   0  0  0  0  0  0  0  0  0  0  0  0
   10.9420  -15.9872   19.3192 O   0  0  0  0  0  0  0  0  0  0  0  0
   10.6974  -19.7555   20.4531 O   0  0  0  0  0  0  0  0  0  0  0  0
    6.6876  -14.0026   21.0133 C   0  0  0  0  0  0  0  0  0  0  0  0
    8.0728  -13.3713   20.7689 C   0  0  2  0  0  0  0  0  0  0  0  0
    7.9919  -12.7531   19.3799 C   0  0  0  0  0  0  0  0  0  0  0  0
    9.0580  -14.4902   20.7197 C   0  0  2  0  0  0  0  0  0  0  0  0
    8.7619  -15.4894   19.7193 N   0  0  0  0  0  0  0  0  0  0  0  0
    9.1662  -15.1329   22.0703 C   0  0  0  0  0  0  0  0  0  0  0  0
    9.7161  -14.5096   23.1721 O   0  0  0  0  0  0  0  0  0  0  0  0
    8.7344  -16.3023   22.2067 O   0  0  0  0  0  0  0  0  0  0  0  0
  2  1  1  6
  3  2  1  0
  4  3  1  0
  5  4  1  0
  5  6  2  0
  7  2  1  0
  7  8  2  0
  9  5  1  0
 10  7  1  0
 11 10  1  0
 11 12  1  1
 12 13  1  0
 13 17  1  0
 14 13  2  0
 15 11  1  0
 16 15  2  0
 19 18  1  6
 19 20  1  0
 19 21  1  0
 21 23  1  0
 21 22  1  6
 22 15  1  0
 23 24  1  0
 25 23  2  0
M  END
$$$$
