EDV.pdb
     RDKit          3D

 25 24  0  0  1  0  0  0  0  0999 V2000
    8.3197  -18.4554   19.3439 N   0  0  0  0  0  0  0  0  0  0  0  0
    8.5812  -17.1121   19.8735 C   0  0  1  0  0  0  0  0  0  0  0  0
    7.8390  -16.1398   18.9840 C   0  0  0  0  0  0  0  0  0  0  0  0
    7.4833  -16.6789   17.6369 C   0  0  0  0  0  0  0  0  0  0  0  0
    8.2850  -16.1378   16.5399 C   0  0  0  0  0  0  0  0  0  0  0  0
    9.5100  -16.3881   16.5044 O   0  0  0  0  0  0  0  0  0  0  0  0
    7.9850  -16.9649   21.2301 C   0  0  0  0  0  0  0  0  0  0  0  0
    6.7390  -17.0278   21.3891 O   0  0  0  0  0  0  0  0  0  0  0  0
    7.7278  -15.3646   15.5534 O   0  0  0  0  0  0  0  0  0  0  0  0
    8.7659  -16.7501   22.3989 N   0  0  0  0  0  0  0  0  0  0  0  0
    8.2322  -16.7223   23.7361 C   0  0  1  0  0  0  0  0  0  0  0  0
    8.6873  -17.9925   24.4377 C   0  0  0  0  0  0  0  0  0  0  0  0
    9.1303  -17.6348   25.8051 C   0  0  0  0  0  0  0  0  0  0  0  0
    8.2776  -17.6039   26.7184 O   0  0  0  0  0  0  0  0  0  0  0  0
    8.6747  -15.5153   24.4905 C   0  0  0  0  0  0  0  0  0  0  0  0
    9.8891  -15.1906   24.5114 O   0  0  0  0  0  0  0  0  0  0  0  0
   10.4475  -17.3441   26.0439 O   0  0  0  0  0  0  0  0  0  0  0  0
    5.9006  -13.0345   26.5989 C   0  0  0  0  0  0  0  0  0  0  0  0
    7.1628  -12.4177   25.9636 C   0  0  2  0  0  0  0  0  0  0  0  0
    6.7707  -12.0912   24.5292 C   0  0  0  0  0  0  0  0  0  0  0  0
    8.1991  -13.4898   25.9264 C   0  0  2  0  0  0  0  0  0  0  0  0
    7.7900  -14.6770   25.2123 N   0  0  0  0  0  0  0  0  0  0  0  0
    8.6115  -13.8478   27.3231 C   0  0  0  0  0  0  0  0  0  0  0  0
    9.1933  -12.9560   28.2012 O   0  0  0  0  0  0  0  0  0  0  0  0
    8.4184  -15.0231   27.7154 O   0  0  0  0  0  0  0  0  0  0  0  0
  2  1  1  6
  3  2  1  0
  4  3  1  0
  5  4  1  0
  5  6  2  0
  7  2  1  0
  7  8  2  0
  9  5  1  0
 10  7  1  0
 11 10  1  0
 11 12  1  1
 12 13  1  0
 13 17  1  0
 14 13  2  0
 15 11  1  0
 16 15  2  0
 19 18  1  1
 19 20  1  0
 19 21  1  0
 21 23  1  0
 21 22  1  1
 22 15  1  0
 23 24  1  0
 25 23  2  0
M  END
$$$$
