DYV.pdb
     RDKit          3D

 28 28  0  0  1  0  0  0  0  0999 V2000
   11.3250  -16.8725   19.7802 N   0  0  0  0  0  0  0  0  0  0  0  0
   11.2007  -17.5329   21.0623 C   0  0  1  0  0  0  0  0  0  0  0  0
   12.4553  -18.2810   21.3757 C   0  0  0  0  0  0  0  0  0  0  0  0
   12.6606  -19.4330   20.4362 C   0  0  0  0  0  0  0  0  0  0  0  0
   11.8942  -19.5834   19.4736 O   0  0  0  0  0  0  0  0  0  0  0  0
   10.8966  -16.5632   22.1170 C   0  0  0  0  0  0  0  0  0  0  0  0
   11.6264  -15.5213   22.2336 O   0  0  0  0  0  0  0  0  0  0  0  0
   13.6886  -20.3299   20.6244 O   0  0  0  0  0  0  0  0  0  0  0  0
    7.1544  -12.9175   18.8581 O   0  0  0  0  0  0  0  0  0  0  0  0
    7.3613  -13.5186   20.0899 C   0  0  0  0  0  0  0  0  0  0  0  0
    8.0515  -12.8699   21.0942 C   0  0  0  0  0  0  0  0  0  0  0  0
    8.2524  -13.4624   22.3008 C   0  0  0  0  0  0  0  0  0  0  0  0
    7.7464  -14.7406   22.5038 C   0  0  0  0  0  0  0  0  0  0  0  0
    7.9821  -15.3837   23.8011 C   0  0  0  0  0  0  0  0  0  0  0  0
    9.4391  -15.7271   23.9434 C   0  0  2  0  0  0  0  0  0  0  0  0
    9.8150  -16.7667   22.9968 N   0  0  0  0  0  0  0  0  0  0  0  0
    9.8406  -16.1519   25.2857 C   0  0  0  0  0  0  0  0  0  0  0  0
   10.1264  -17.3282   25.5531 O   0  0  0  0  0  0  0  0  0  0  0  0
    7.0541  -15.4097   21.5174 C   0  0  0  0  0  0  0  0  0  0  0  0
    6.8639  -14.7939   20.3109 C   0  0  0  0  0  0  0  0  0  0  0  0
   11.2476  -13.3751   28.1533 C   0  0  0  0  0  0  0  0  0  0  0  0
   10.3217  -14.4746   28.6283 C   0  0  1  0  0  0  0  0  0  0  0  0
    8.9246  -13.9904   28.8295 C   0  0  0  0  0  0  0  0  0  0  0  0
   10.3879  -15.6149   27.6370 C   0  0  2  0  0  0  0  0  0  0  0  0
    9.9150  -15.1987   26.3465 N   0  0  0  0  0  0  0  0  0  0  0  0
    9.5041  -16.7204   28.1305 C   0  0  0  0  0  0  0  0  0  0  0  0
    8.3988  -16.9923   27.6015 O   0  0  0  0  0  0  0  0  0  0  0  0
    9.9178  -17.4745   29.2118 O   0  0  0  0  0  0  0  0  0  0  0  0
  2  1  1  6
  2  3  1  0
  3  4  1  0
  4  5  2  0
  6  7  2  0
  6  2  1  0
  8  4  1  0
  9 10  1  0
 10 11  2  0
 10 20  1  0
 11 12  1  0
 12 13  2  0
 13 14  1  0
 15 14  1  1
 15 17  1  0
 15 16  1  0
 16  6  1  0
 17 18  2  0
 19 13  1  0
 20 19  2  0
 22 21  1  6
 23 22  1  0
 24 22  1  0
 24 25  1  6
 25 17  1  0
 26 28  1  0
 26 24  1  0
 27 26  2  0
M  END
$$$$
