DYV.pdb
     RDKit          3D

 28 28  0  0  1  0  0  0  0  0999 V2000
   11.0140  -17.1587   19.5667 N   0  0  0  0  0  0  0  0  0  0  0  0
   11.3264  -17.3460   20.9676 C   0  0  1  0  0  0  0  0  0  0  0  0
   12.8072  -17.3958   21.1589 C   0  0  0  0  0  0  0  0  0  0  0  0
   13.4117  -18.5902   20.4806 C   0  0  0  0  0  0  0  0  0  0  0  0
   12.7010  -19.3180   19.7721 O   0  0  0  0  0  0  0  0  0  0  0  0
   10.7334  -16.2793   21.7775 C   0  0  0  0  0  0  0  0  0  0  0  0
   11.4956  -15.3959   22.2975 O   0  0  0  0  0  0  0  0  0  0  0  0
   14.7464  -18.8941   20.6313 O   0  0  0  0  0  0  0  0  0  0  0  0
    7.5835  -13.3861   16.7451 O   0  0  0  0  0  0  0  0  0  0  0  0
    7.5332  -13.7476   18.0824 C   0  0  0  0  0  0  0  0  0  0  0  0
    7.2080  -15.0342   18.4626 C   0  0  0  0  0  0  0  0  0  0  0  0
    7.1598  -15.3851   19.7748 C   0  0  0  0  0  0  0  0  0  0  0  0
    7.4460  -14.4176   20.7304 C   0  0  0  0  0  0  0  0  0  0  0  0
    7.3742  -14.7959   22.1459 C   0  0  0  0  0  0  0  0  0  0  0  0
    8.7555  -15.0753   22.6704 C   0  0  2  0  0  0  0  0  0  0  0  0
    9.3413  -16.2185   21.9864 N   0  0  0  0  0  0  0  0  0  0  0  0
    8.8277  -15.3087   24.1138 C   0  0  0  0  0  0  0  0  0  0  0  0
    9.5250  -16.2066   24.6081 O   0  0  0  0  0  0  0  0  0  0  0  0
    7.7732  -13.1261   20.3768 C   0  0  0  0  0  0  0  0  0  0  0  0
    7.8157  -12.7956   19.0501 C   0  0  0  0  0  0  0  0  0  0  0  0
    8.5702  -12.7945   28.3064 C   0  0  0  0  0  0  0  0  0  0  0  0
    7.9643  -13.0131   26.9363 C   0  0  1  0  0  0  0  0  0  0  0  0
    8.1385  -11.8291   26.0449 C   0  0  0  0  0  0  0  0  0  0  0  0
    8.5713  -14.2638   26.3406 C   0  0  2  0  0  0  0  0  0  0  0  0
    8.0783  -14.4879   25.0106 N   0  0  0  0  0  0  0  0  0  0  0  0
    8.1775  -15.4314   27.1940 C   0  0  0  0  0  0  0  0  0  0  0  0
    7.0367  -15.9524   27.1455 O   0  0  0  0  0  0  0  0  0  0  0  0
    9.1042  -15.9602   28.0718 O   0  0  0  0  0  0  0  0  0  0  0  0
  2  1  1  6
  2  3  1  0
  3  4  1  0
  4  5  2  0
  6  7  2  0
  6  2  1  0
  8  4  1  0
  9 10  1  0
 10 11  2  0
 10 20  1  0
 11 12  1  0
 12 13  2  0
 13 14  1  0
 15 14  1  6
 15 17  1  0
 15 16  1  0
 16  6  1  0
 17 18  2  0
 19 13  1  0
 20 19  2  0
 22 21  1  1
 23 22  1  0
 24 22  1  0
 24 25  1  6
 25 17  1  0
 26 28  1  0
 26 24  1  0
 27 26  2  0
M  END
$$$$
