DYV.pdb
     RDKit          3D

 28 28  0  0  1  0  0  0  0  0999 V2000
   11.9341  -16.4696   19.9317 N   0  0  0  0  0  0  0  0  0  0  0  0
   11.3371  -17.2412   21.0012 C   0  0  1  0  0  0  0  0  0  0  0  0
   12.3232  -18.2315   21.5290 C   0  0  0  0  0  0  0  0  0  0  0  0
   12.7632  -19.1936   20.4647 C   0  0  0  0  0  0  0  0  0  0  0  0
   13.9681  -19.4538   20.3334 O   0  0  0  0  0  0  0  0  0  0  0  0
   10.8608  -16.3614   22.0709 C   0  0  0  0  0  0  0  0  0  0  0  0
   11.6042  -15.3994   22.4628 O   0  0  0  0  0  0  0  0  0  0  0  0
   11.8498  -19.7951   19.6277 O   0  0  0  0  0  0  0  0  0  0  0  0
    5.9012  -11.8151   27.4347 O   0  0  0  0  0  0  0  0  0  0  0  0
    6.3227  -12.7201   26.4729 C   0  0  0  0  0  0  0  0  0  0  0  0
    6.0275  -14.0645   26.5791 C   0  0  0  0  0  0  0  0  0  0  0  0
    6.4423  -14.9488   25.6342 C   0  0  0  0  0  0  0  0  0  0  0  0
    7.1732  -14.4698   24.5537 C   0  0  0  0  0  0  0  0  0  0  0  0
    7.6351  -15.4307   23.5460 C   0  0  0  0  0  0  0  0  0  0  0  0
    9.1175  -15.6423   23.6842 C   0  0  2  0  0  0  0  0  0  0  0  0
    9.6001  -16.5641   22.6667 N   0  0  0  0  0  0  0  0  0  0  0  0
    9.5475  -16.1296   24.9960 C   0  0  0  0  0  0  0  0  0  0  0  0
    9.8077  -17.3227   25.2096 O   0  0  0  0  0  0  0  0  0  0  0  0
    7.4812  -13.1325   24.4244 C   0  0  0  0  0  0  0  0  0  0  0  0
    7.0532  -12.2606   25.3876 C   0  0  0  0  0  0  0  0  0  0  0  0
   10.7526  -15.1533   29.6694 C   0  0  0  0  0  0  0  0  0  0  0  0
   10.0868  -14.6375   28.4114 C   0  0  1  0  0  0  0  0  0  0  0  0
   10.6354  -13.3182   27.9810 C   0  0  0  0  0  0  0  0  0  0  0  0
   10.2279  -15.6879   27.3324 C   0  0  2  0  0  0  0  0  0  0  0  0
    9.6815  -15.2205   26.0893 N   0  0  0  0  0  0  0  0  0  0  0  0
    9.4637  -16.9054   27.7569 C   0  0  0  0  0  0  0  0  0  0  0  0
    8.2682  -17.1038   27.4300 O   0  0  0  0  0  0  0  0  0  0  0  0
   10.0959  -17.8517   28.5404 O   0  0  0  0  0  0  0  0  0  0  0  0
  2  1  1  6
  2  3  1  0
  3  4  1  0
  4  5  2  0
  6  7  2  0
  6  2  1  0
  8  4  1  0
  9 10  1  0
 10 11  2  0
 10 20  1  0
 11 12  1  0
 12 13  2  0
 13 14  1  0
 15 14  1  1
 15 17  1  0
 15 16  1  0
 16  6  1  0
 17 18  2  0
 19 13  1  0
 20 19  2  0
 22 21  1  1
 23 22  1  0
 24 22  1  0
 24 25  1  6
 25 17  1  0
 26 28  1  0
 26 24  1  0
 27 26  2  0
M  END
$$$$
