RYG.pdb
     RDKit          3D

 28 28  0  0  1  0  0  0  0  0999 V2000
   27.5653  -25.2372  -16.3468 N   0  0  0  0  0  0  0  0  0  0  0  0
   28.8890  -24.6774  -16.3986 C   0  0  0  0  0  0  0  0  0  0  0  0
   29.9078  -25.3958  -16.7121 N   0  0  0  0  0  0  0  0  0  0  0  0
   29.1119  -23.3004  -16.1022 N   0  0  0  0  0  0  0  0  0  0  0  0
   28.0583  -22.4812  -15.5554 C   0  0  0  0  0  0  0  0  0  0  0  0
   27.9261  -21.2452  -16.3991 C   0  0  0  0  0  0  0  0  0  0  0  0
   26.8334  -20.3190  -15.8613 C   0  0  0  0  0  0  0  0  0  0  0  0
   25.5245  -20.8328  -16.3875 C   0  0  2  0  0  0  0  0  0  0  0  0
   25.3640  -20.6463  -17.7929 N   0  0  0  0  0  0  0  0  0  0  0  0
   24.3547  -20.2936  -15.6741 C   0  0  0  0  0  0  0  0  0  0  0  0
   24.3875  -20.3746  -14.3939 O   0  0  0  0  0  0  0  0  0  0  0  0
   30.8577  -24.9801  -16.6784 O   0  0  0  0  0  0  0  0  0  0  0  0
   21.6433  -16.6595  -21.3248 C   0  0  0  0  0  0  0  0  0  0  0  0
   21.6787  -16.9411  -19.9572 C   0  0  0  0  0  0  0  0  0  0  0  0
   20.5743  -17.3715  -19.2616 C   0  0  0  0  0  0  0  0  0  0  0  0
   20.6415  -17.6403  -17.9159 C   0  0  0  0  0  0  0  0  0  0  0  0
   21.8395  -17.4848  -17.2038 C   0  0  0  0  0  0  0  0  0  0  0  0
   21.9192  -17.7673  -15.7750 C   0  0  1  0  0  0  0  0  0  0  0  0
   22.1217  -19.2378  -15.5102 N   0  0  0  0  0  0  0  0  0  0  0  0
   23.2448  -19.7151  -16.3147 C   0  0  0  0  0  0  0  0  0  0  0  0
   20.9532  -20.0848  -15.7189 O   0  0  0  0  0  0  0  0  0  0  0  0
   20.9114  -20.7868  -16.7751 C   0  0  0  0  0  0  0  0  0  0  0  0
   22.9286  -17.0539  -17.9203 C   0  0  0  0  0  0  0  0  0  0  0  0
   22.8788  -16.7778  -19.2798 N   0  0  0  0  0  0  0  0  0  0  0  0
   19.8652  -20.1886  -14.8323 C   0  0  0  0  0  0  0  0  0  0  0  0
   18.7353  -21.0610  -15.0928 C   0  0  0  0  0  0  0  0  0  0  0  0
   17.7368  -21.0710  -14.0284 O   0  0  0  0  0  0  0  0  0  0  0  0
   17.9287  -20.4514  -12.9594 O   0  0  0  0  0  0  0  0  0  0  0  0
  2  1  1  0
  3  2  2  0
  4  2  1  0
  5  4  1  0
  6  5  1  0
  7  6  1  0
  8 10  1  0
  8  7  1  0
  8  9  1  6
 10 11  2  0
 12 13  1  0
 13 23  2  0
 13 14  1  0
 14 15  2  0
 15 16  1  0
 16 17  1  0
 18 17  1  1
 19 18  1  0
 19 10  1  0
 20 21  2  0
 20 18  1  0
 22 16  2  0
 23 22  1  0
 24 20  1  0
 25 24  1  0
 26 28  1  0
 26 25  1  0
 27 26  2  0
M  END
$$$$
