RYG.pdb
     RDKit          3D

 28 28  0  0  1  0  0  0  0  0999 V2000
   22.4188  -21.2254  -17.6004 N   0  0  0  0  0  0  0  0  0  0  0  0
   22.5021  -20.6812  -18.9289 C   0  0  0  0  0  0  0  0  0  0  0  0
   21.5470  -20.8333  -19.7756 N   0  0  0  0  0  0  0  0  0  0  0  0
   23.6535  -19.9521  -19.3488 N   0  0  0  0  0  0  0  0  0  0  0  0
   24.7400  -19.6949  -18.4358 C   0  0  0  0  0  0  0  0  0  0  0  0
   24.9452  -20.9129  -17.5807 C   0  0  0  0  0  0  0  0  0  0  0  0
   24.7022  -20.6019  -16.1024 C   0  0  0  0  0  0  0  0  0  0  0  0
   25.8816  -21.1356  -15.3420 C   0  0  2  0  0  0  0  0  0  0  0  0
   26.4651  -22.2937  -15.9370 N   0  0  0  0  0  0  0  0  0  0  0  0
   25.5938  -21.3937  -13.9212 C   0  0  0  0  0  0  0  0  0  0  0  0
   25.2641  -22.5971  -13.6216 O   0  0  0  0  0  0  0  0  0  0  0  0
   21.6563  -20.4714  -20.7417 O   0  0  0  0  0  0  0  0  0  0  0  0
   31.4541  -22.0801  -11.0973 C   0  0  0  0  0  0  0  0  0  0  0  0
   30.1576  -21.5705  -10.9954 C   0  0  0  0  0  0  0  0  0  0  0  0
   29.6684  -20.6154  -11.8542 C   0  0  0  0  0  0  0  0  0  0  0  0
   28.3879  -20.1340  -11.7276 C   0  0  0  0  0  0  0  0  0  0  0  0
   27.5341  -20.5999  -10.7176 C   0  0  0  0  0  0  0  0  0  0  0  0
   26.1734  -20.0937  -10.5759 C   0  0  2  0  0  0  0  0  0  0  0  0
   25.2339  -20.7437  -11.5599 N   0  0  0  0  0  0  0  0  0  0  0  0
   25.6632  -20.4120  -12.9171 C   0  0  0  0  0  0  0  0  0  0  0  0
   23.8203  -20.4316  -11.3854 O   0  0  0  0  0  0  0  0  0  0  0  0
   23.3668  -19.3958  -11.9613 C   0  0  0  0  0  0  0  0  0  0  0  0
   28.0452  -21.5537   -9.8724 C   0  0  0  0  0  0  0  0  0  0  0  0
   29.3362  -22.0512   -9.9856 N   0  0  0  0  0  0  0  0  0  0  0  0
   22.9139  -21.1972  -10.6284 C   0  0  0  0  0  0  0  0  0  0  0  0
   21.5141  -20.8369  -10.5014 C   0  0  0  0  0  0  0  0  0  0  0  0
   20.6958  -21.2278  -11.6449 O   0  0  0  0  0  0  0  0  0  0  0  0
   21.1997  -21.8157  -12.6267 O   0  0  0  0  0  0  0  0  0  0  0  0
  2  1  1  0
  3  2  2  0
  4  2  1  0
  5  4  1  0
  6  5  1  0
  7  6  1  0
  8 10  1  0
  8  7  1  0
  8  9  1  6
 10 11  2  0
 12 13  1  0
 13 23  2  0
 13 14  1  0
 14 15  2  0
 15 16  1  0
 16 17  1  0
 18 17  1  6
 19 18  1  0
 19 10  1  0
 20 21  2  0
 20 18  1  0
 22 16  2  0
 23 22  1  0
 24 20  1  0
 25 24  1  0
 26 28  1  0
 26 25  1  0
 27 26  2  0
M  END
$$$$
