RYG.pdb
     RDKit          3D

 28 28  0  0  1  0  0  0  0  0999 V2000
   22.8869  -16.2978  -17.2969 N   0  0  0  0  0  0  0  0  0  0  0  0
   22.6498  -17.6171  -16.7759 C   0  0  0  0  0  0  0  0  0  0  0  0
   21.4599  -18.0924  -16.6734 N   0  0  0  0  0  0  0  0  0  0  0  0
   23.7342  -18.4422  -16.3554 N   0  0  0  0  0  0  0  0  0  0  0  0
   25.0998  -18.0039  -16.5076 C   0  0  0  0  0  0  0  0  0  0  0  0
   26.0109  -19.1170  -16.0739 C   0  0  0  0  0  0  0  0  0  0  0  0
   25.6325  -19.6361  -14.6852 C   0  0  0  0  0  0  0  0  0  0  0  0
   26.6117  -20.7207  -14.3403 C   0  0  2  0  0  0  0  0  0  0  0  0
   26.4925  -21.8781  -15.1660 N   0  0  0  0  0  0  0  0  0  0  0  0
   26.5757  -21.1121  -12.9214 C   0  0  0  0  0  0  0  0  0  0  0  0
   25.7865  -22.0788  -12.6222 O   0  0  0  0  0  0  0  0  0  0  0  0
   21.3234  -19.0626  -16.3324 O   0  0  0  0  0  0  0  0  0  0  0  0
   26.9922  -20.3133   -4.1574 C   0  0  0  0  0  0  0  0  0  0  0  0
   27.3027  -20.3039   -5.5192 C   0  0  0  0  0  0  0  0  0  0  0  0
   27.4517  -19.1407   -6.2360 C   0  0  0  0  0  0  0  0  0  0  0  0
   27.7574  -19.1648   -7.5753 C   0  0  0  0  0  0  0  0  0  0  0  0
   27.9284  -20.3772   -8.2588 C   0  0  0  0  0  0  0  0  0  0  0  0
   28.2525  -20.4116   -9.6806 C   0  0  1  0  0  0  0  0  0  0  0  0
   27.0519  -20.7801  -10.5149 N   0  0  0  0  0  0  0  0  0  0  0  0
   27.3424  -20.4932  -11.9183 C   0  0  0  0  0  0  0  0  0  0  0  0
   25.7931  -20.1582  -10.1210 O   0  0  0  0  0  0  0  0  0  0  0  0
   25.6834  -18.9020  -10.2618 C   0  0  0  0  0  0  0  0  0  0  0  0
   27.7747  -21.5253   -7.5215 C   0  0  0  0  0  0  0  0  0  0  0  0
   27.4659  -21.5195   -6.1681 N   0  0  0  0  0  0  0  0  0  0  0  0
   24.6828  -20.8479   -9.5993 C   0  0  0  0  0  0  0  0  0  0  0  0
   23.4627  -20.1667   -9.2084 C   0  0  0  0  0  0  0  0  0  0  0  0
   22.4120  -20.2060  -10.2206 O   0  0  0  0  0  0  0  0  0  0  0  0
   22.6130  -20.7306  -11.3377 O   0  0  0  0  0  0  0  0  0  0  0  0
  2  1  1  0
  3  2  2  0
  4  2  1  0
  5  4  1  0
  6  5  1  0
  7  6  1  0
  8 10  1  0
  8  7  1  0
  8  9  1  6
 10 11  2  0
 12 13  1  0
 13 23  2  0
 13 14  1  0
 14 15  2  0
 15 16  1  0
 16 17  1  0
 18 17  1  6
 19 18  1  0
 19 10  1  0
 20 21  2  0
 20 18  1  0
 22 16  2  0
 23 22  1  0
 24 20  1  0
 25 24  1  0
 26 28  1  0
 26 25  1  0
 27 26  2  0
M  END
$$$$
