RYG.pdb
     RDKit          3D

 28 28  0  0  1  0  0  0  0  0999 V2000
   24.7162  -23.9718  -16.9899 N   0  0  0  0  0  0  0  0  0  0  0  0
   24.4521  -24.9897  -16.0090 C   0  0  0  0  0  0  0  0  0  0  0  0
   24.2434  -26.2110  -16.3513 N   0  0  0  0  0  0  0  0  0  0  0  0
   24.4141  -24.6725  -14.6192 N   0  0  0  0  0  0  0  0  0  0  0  0
   24.8002  -23.3654  -14.1477 C   0  0  0  0  0  0  0  0  0  0  0  0
   26.1571  -23.0377  -14.7033 C   0  0  0  0  0  0  0  0  0  0  0  0
   27.0197  -22.3094  -13.6705 C   0  0  0  0  0  0  0  0  0  0  0  0
   26.0965  -21.4524  -12.8536 C   0  0  2  0  0  0  0  0  0  0  0  0
   26.0298  -20.0998  -13.3028 N   0  0  0  0  0  0  0  0  0  0  0  0
   26.3891  -21.4870  -11.4110 C   0  0  0  0  0  0  0  0  0  0  0  0
   26.5922  -22.6481  -10.9038 O   0  0  0  0  0  0  0  0  0  0  0  0
   24.1077  -26.9324  -15.6183 O   0  0  0  0  0  0  0  0  0  0  0  0
   28.6552  -19.8754   -3.1315 C   0  0  0  0  0  0  0  0  0  0  0  0
   28.4157  -19.7876   -4.5047 C   0  0  0  0  0  0  0  0  0  0  0  0
   29.0408  -20.6023   -5.4183 C   0  0  0  0  0  0  0  0  0  0  0  0
   28.7837  -20.4912   -6.7633 C   0  0  0  0  0  0  0  0  0  0  0  0
   27.8743  -19.5425   -7.2523 C   0  0  0  0  0  0  0  0  0  0  0  0
   27.5962  -19.4175   -8.6788 C   0  0  2  0  0  0  0  0  0  0  0  0
   26.6589  -20.4969   -9.1583 N   0  0  0  0  0  0  0  0  0  0  0  0
   26.4526  -20.3423  -10.5969 C   0  0  0  0  0  0  0  0  0  0  0  0
   25.3767  -20.5734   -8.4681 O   0  0  0  0  0  0  0  0  0  0  0  0
   24.5107  -19.6827   -8.7266 C   0  0  0  0  0  0  0  0  0  0  0  0
   27.2627  -18.7404   -6.3207 C   0  0  0  0  0  0  0  0  0  0  0  0
   27.5104  -18.8389   -4.9583 N   0  0  0  0  0  0  0  0  0  0  0  0
   25.0214  -21.5670   -7.5369 C   0  0  0  0  0  0  0  0  0  0  0  0
   23.7641  -21.5351   -6.8131 C   0  0  0  0  0  0  0  0  0  0  0  0
   22.5860  -21.4985   -7.6738 O   0  0  0  0  0  0  0  0  0  0  0  0
   22.6984  -21.4352   -8.9174 O   0  0  0  0  0  0  0  0  0  0  0  0
  2  1  1  0
  3  2  2  0
  4  2  1  0
  5  4  1  0
  6  5  1  0
  7  6  1  0
  8 10  1  0
  8  7  1  0
  8  9  1  6
 10 11  2  0
 12 13  1  0
 13 23  2  0
 13 14  1  0
 14 15  2  0
 15 16  1  0
 16 17  1  0
 18 17  1  6
 19 18  1  0
 19 10  1  0
 20 21  2  0
 20 18  1  0
 22 16  2  0
 23 22  1  0
 24 20  1  0
 25 24  1  0
 26 28  1  0
 26 25  1  0
 27 26  2  0
M  END
$$$$
