RYG.pdb
     RDKit          3D

 28 28  0  0  1  0  0  0  0  0999 V2000
   22.3687  -24.6111  -16.9976 N   0  0  0  0  0  0  0  0  0  0  0  0
   23.6434  -25.2738  -17.0633 C   0  0  0  0  0  0  0  0  0  0  0  0
   23.7626  -26.5240  -16.7895 N   0  0  0  0  0  0  0  0  0  0  0  0
   24.8197  -24.5593  -17.4367 N   0  0  0  0  0  0  0  0  0  0  0  0
   24.8023  -23.1233  -17.5698 C   0  0  0  0  0  0  0  0  0  0  0  0
   24.4052  -22.5252  -16.2501 C   0  0  0  0  0  0  0  0  0  0  0  0
   25.5865  -21.8188  -15.5817 C   0  0  0  0  0  0  0  0  0  0  0  0
   26.1606  -22.7773  -14.5788 C   0  0  2  0  0  0  0  0  0  0  0  0
   25.7574  -24.1296  -14.7891 N   0  0  0  0  0  0  0  0  0  0  0  0
   25.9007  -22.3887  -13.1826 C   0  0  0  0  0  0  0  0  0  0  0  0
   24.9103  -22.9698  -12.6098 O   0  0  0  0  0  0  0  0  0  0  0  0
   24.6904  -26.9807  -16.8737 O   0  0  0  0  0  0  0  0  0  0  0  0
   26.5247  -19.5776   -4.9067 C   0  0  0  0  0  0  0  0  0  0  0  0
   26.7391  -19.8298   -6.2637 C   0  0  0  0  0  0  0  0  0  0  0  0
   25.9079  -20.6332   -7.0072 C   0  0  0  0  0  0  0  0  0  0  0  0
   26.1460  -20.8620   -8.3408 C   0  0  0  0  0  0  0  0  0  0  0  0
   27.2456  -20.2841   -8.9912 C   0  0  0  0  0  0  0  0  0  0  0  0
   27.5059  -20.5224  -10.4066 C   0  0  2  0  0  0  0  0  0  0  0  0
   26.3041  -21.1120  -11.1004 N   0  0  0  0  0  0  0  0  0  0  0  0
   26.6651  -21.4423  -12.4777 C   0  0  0  0  0  0  0  0  0  0  0  0
   25.0958  -20.2961  -11.0754 O   0  0  0  0  0  0  0  0  0  0  0  0
   25.0561  -19.2732  -11.8252 C   0  0  0  0  0  0  0  0  0  0  0  0
   28.0612  -19.4857   -8.2277 C   0  0  0  0  0  0  0  0  0  0  0  0
   27.8358  -19.2437   -6.8795 N   0  0  0  0  0  0  0  0  0  0  0  0
   23.9623  -20.5597  -10.2839 C   0  0  0  0  0  0  0  0  0  0  0  0
   22.8104  -19.6776  -10.2641 C   0  0  0  0  0  0  0  0  0  0  0  0
   21.7962  -20.0051  -11.2612 O   0  0  0  0  0  0  0  0  0  0  0  0
   22.0663  -19.9951  -12.4820 O   0  0  0  0  0  0  0  0  0  0  0  0
  2  1  1  0
  3  2  2  0
  4  2  1  0
  5  4  1  0
  6  5  1  0
  7  6  1  0
  8 10  1  0
  8  7  1  0
  8  9  1  6
 10 11  2  0
 12 13  1  0
 13 23  2  0
 13 14  1  0
 14 15  2  0
 15 16  1  0
 16 17  1  0
 18 17  1  1
 19 18  1  0
 19 10  1  0
 20 21  2  0
 20 18  1  0
 22 16  2  0
 23 22  1  0
 24 20  1  0
 25 24  1  0
 26 28  1  0
 26 25  1  0
 27 26  2  0
M  END
$$$$
