RYG.pdb
     RDKit          3D

 28 28  0  0  1  0  0  0  0  0999 V2000
   16.0362  -16.3035  -16.8694 N   0  0  0  0  0  0  0  0  0  0  0  0
   17.0391  -17.3037  -17.1185 C   0  0  0  0  0  0  0  0  0  0  0  0
   16.8013  -18.5522  -16.9264 N   0  0  0  0  0  0  0  0  0  0  0  0
   18.3346  -16.9378  -17.5891 N   0  0  0  0  0  0  0  0  0  0  0  0
   18.6903  -15.5526  -17.7754 C   0  0  0  0  0  0  0  0  0  0  0  0
   20.0975  -15.4857  -18.2971 C   0  0  0  0  0  0  0  0  0  0  0  0
   21.0174  -14.7476  -17.3224 C   0  0  0  0  0  0  0  0  0  0  0  0
   20.8276  -13.2785  -17.5670 C   0  0  2  0  0  0  0  0  0  0  0  0
   21.3067  -12.8473  -18.8399 N   0  0  0  0  0  0  0  0  0  0  0  0
   21.3944  -12.4303  -16.5052 C   0  0  0  0  0  0  0  0  0  0  0  0
   21.0589  -12.7304  -15.3035 O   0  0  0  0  0  0  0  0  0  0  0  0
   17.5199  -19.2557  -17.1816 O   0  0  0  0  0  0  0  0  0  0  0  0
   27.0053  -15.1663  -16.6433 C   0  0  0  0  0  0  0  0  0  0  0  0
   26.3218  -13.9617  -16.4619 C   0  0  0  0  0  0  0  0  0  0  0  0
   26.1282  -13.0602  -17.4810 C   0  0  0  0  0  0  0  0  0  0  0  0
   25.4513  -11.8833  -17.2705 C   0  0  0  0  0  0  0  0  0  0  0  0
   24.9337  -11.5598  -16.0081 C   0  0  0  0  0  0  0  0  0  0  0  0
   24.2144  -10.3122  -15.7760 C   0  0  2  0  0  0  0  0  0  0  0  0
   22.7333  -10.5463  -15.6186 N   0  0  0  0  0  0  0  0  0  0  0  0
   22.2562  -11.3456  -16.7455 C   0  0  0  0  0  0  0  0  0  0  0  0
   21.9163   -9.3482  -15.4659 O   0  0  0  0  0  0  0  0  0  0  0  0
   21.3048   -8.9136  -16.4893 C   0  0  0  0  0  0  0  0  0  0  0  0
   25.1397  -12.4759  -15.0063 C   0  0  0  0  0  0  0  0  0  0  0  0
   25.8211  -13.6695  -15.2011 N   0  0  0  0  0  0  0  0  0  0  0  0
   21.7482   -8.6359  -14.2637 C   0  0  0  0  0  0  0  0  0  0  0  0
   20.9890   -7.4012  -14.1955 C   0  0  0  0  0  0  0  0  0  0  0  0
   21.6805   -6.2485  -14.7639 O   0  0  0  0  0  0  0  0  0  0  0  0
   22.7957   -6.3737  -15.3153 O   0  0  0  0  0  0  0  0  0  0  0  0
  2  1  1  0
  3  2  2  0
  4  2  1  0
  5  4  1  0
  6  5  1  0
  7  6  1  0
  8 10  1  0
  8  7  1  0
  8  9  1  6
 10 11  2  0
 12 13  1  0
 13 23  2  0
 13 14  1  0
 14 15  2  0
 15 16  1  0
 16 17  1  0
 18 17  1  1
 19 18  1  0
 19 10  1  0
 20 21  2  0
 20 18  1  0
 22 16  2  0
 23 22  1  0
 24 20  1  0
 25 24  1  0
 26 28  1  0
 26 25  1  0
 27 26  2  0
M  END
$$$$
