RYG.pdb
     RDKit          3D

 28 28  0  0  1  0  0  0  0  0999 V2000
   24.9260  -23.6506  -15.8759 N   0  0  0  0  0  0  0  0  0  0  0  0
   26.0822  -23.3388  -16.6723 C   0  0  0  0  0  0  0  0  0  0  0  0
   27.1543  -24.0444  -16.6008 N   0  0  0  0  0  0  0  0  0  0  0  0
   26.0733  -22.2313  -17.5707 N   0  0  0  0  0  0  0  0  0  0  0  0
   24.8308  -21.6714  -18.0427 C   0  0  0  0  0  0  0  0  0  0  0  0
   23.8978  -21.5239  -16.8745 C   0  0  0  0  0  0  0  0  0  0  0  0
   23.6275  -20.0508  -16.5613 C   0  0  0  0  0  0  0  0  0  0  0  0
   22.6841  -19.5444  -17.6136 C   0  0  2  0  0  0  0  0  0  0  0  0
   23.3408  -18.8960  -18.7018 N   0  0  0  0  0  0  0  0  0  0  0  0
   21.6233  -18.6744  -17.0790 C   0  0  0  0  0  0  0  0  0  0  0  0
   21.7203  -17.4266  -17.3622 O   0  0  0  0  0  0  0  0  0  0  0  0
   27.9917  -23.7601  -17.1431 O   0  0  0  0  0  0  0  0  0  0  0  0
   15.7486  -21.9113  -19.7176 C   0  0  0  0  0  0  0  0  0  0  0  0
   16.4783  -20.8862  -19.1112 C   0  0  0  0  0  0  0  0  0  0  0  0
   15.9118  -19.9955  -18.2310 C   0  0  0  0  0  0  0  0  0  0  0  0
   16.6568  -18.9975  -17.6508 C   0  0  0  0  0  0  0  0  0  0  0  0
   18.0220  -18.8519  -17.9361 C   0  0  0  0  0  0  0  0  0  0  0  0
   18.8200  -17.7948  -17.3249 C   0  0  1  0  0  0  0  0  0  0  0  0
   19.4280  -18.2422  -16.0198 N   0  0  0  0  0  0  0  0  0  0  0  0
   20.5485  -19.1379  -16.2999 C   0  0  0  0  0  0  0  0  0  0  0  0
   18.5083  -18.8625  -15.0733 O   0  0  0  0  0  0  0  0  0  0  0  0
   18.3922  -20.1257  -15.1013 C   0  0  0  0  0  0  0  0  0  0  0  0
   18.5651  -19.7535  -18.8179 C   0  0  0  0  0  0  0  0  0  0  0  0
   17.8275  -20.7676  -19.4132 N   0  0  0  0  0  0  0  0  0  0  0  0
   17.7396  -18.1653  -14.1226 C   0  0  0  0  0  0  0  0  0  0  0  0
   16.9032  -18.8478  -13.1530 C   0  0  0  0  0  0  0  0  0  0  0  0
   15.6767  -19.4037  -13.7159 O   0  0  0  0  0  0  0  0  0  0  0  0
   15.4251  -19.3038  -14.9366 O   0  0  0  0  0  0  0  0  0  0  0  0
  2  1  1  0
  3  2  2  0
  4  2  1  0
  5  4  1  0
  6  5  1  0
  7  6  1  0
  8 10  1  0
  8  7  1  0
  8  9  1  6
 10 11  2  0
 12 13  1  0
 13 23  2  0
 13 14  1  0
 14 15  2  0
 15 16  1  0
 16 17  1  0
 18 17  1  6
 19 18  1  0
 19 10  1  0
 20 21  2  0
 20 18  1  0
 22 16  2  0
 23 22  1  0
 24 20  1  0
 25 24  1  0
 26 28  1  0
 26 25  1  0
 27 26  2  0
M  END
$$$$
