RYG.pdb
     RDKit          3D

 28 28  0  0  1  0  0  0  0  0999 V2000
   19.3117  -23.5470  -15.4126 N   0  0  0  0  0  0  0  0  0  0  0  0
   18.8162  -22.4950  -14.5665 C   0  0  0  0  0  0  0  0  0  0  0  0
   17.8035  -22.6767  -13.7960 N   0  0  0  0  0  0  0  0  0  0  0  0
   19.4377  -21.2115  -14.5568 N   0  0  0  0  0  0  0  0  0  0  0  0
   20.4033  -20.8492  -15.5650 C   0  0  0  0  0  0  0  0  0  0  0  0
   20.8366  -19.4309  -15.3251 C   0  0  0  0  0  0  0  0  0  0  0  0
   22.2419  -19.1782  -15.8752 C   0  0  0  0  0  0  0  0  0  0  0  0
   23.1790  -20.0673  -15.1101 C   0  0  2  0  0  0  0  0  0  0  0  0
   23.1140  -19.8803  -13.6971 N   0  0  0  0  0  0  0  0  0  0  0  0
   24.5766  -19.9731  -15.5639 C   0  0  0  0  0  0  0  0  0  0  0  0
   24.7635  -20.0311  -16.8321 O   0  0  0  0  0  0  0  0  0  0  0  0
   17.4484  -21.8887  -13.2222 O   0  0  0  0  0  0  0  0  0  0  0  0
   26.1689  -13.6763  -17.0725 C   0  0  0  0  0  0  0  0  0  0  0  0
   26.5301  -14.8716  -16.4467 C   0  0  0  0  0  0  0  0  0  0  0  0
   25.9615  -15.2907  -15.2677 C   0  0  0  0  0  0  0  0  0  0  0  0
   26.3385  -16.4722  -14.6767 C   0  0  0  0  0  0  0  0  0  0  0  0
   27.3172  -17.2930  -15.2552 C   0  0  0  0  0  0  0  0  0  0  0  0
   27.7237  -18.5486  -14.6339 C   0  0  2  0  0  0  0  0  0  0  0  0
   27.0205  -19.7287  -15.2553 N   0  0  0  0  0  0  0  0  0  0  0  0
   25.6736  -19.8274  -14.6966 C   0  0  0  0  0  0  0  0  0  0  0  0
   27.7110  -21.0081  -15.1415 O   0  0  0  0  0  0  0  0  0  0  0  0
   27.6119  -21.6393  -14.0452 C   0  0  0  0  0  0  0  0  0  0  0  0
   27.8704  -16.8533  -16.4325 C   0  0  0  0  0  0  0  0  0  0  0  0
   27.5016  -15.6626  -17.0434 N   0  0  0  0  0  0  0  0  0  0  0  0
   28.4782  -21.6026  -16.1606 C   0  0  0  0  0  0  0  0  0  0  0  0
   29.1786  -22.8589  -15.9690 C   0  0  0  0  0  0  0  0  0  0  0  0
   29.8765  -23.3355  -17.1589 O   0  0  0  0  0  0  0  0  0  0  0  0
   29.7324  -22.7649  -18.2621 O   0  0  0  0  0  0  0  0  0  0  0  0
  2  1  1  0
  3  2  2  0
  4  2  1  0
  5  4  1  0
  6  5  1  0
  7  6  1  0
  8 10  1  0
  8  7  1  0
  8  9  1  1
 10 11  2  0
 12 13  1  0
 13 23  2  0
 13 14  1  0
 14 15  2  0
 15 16  1  0
 16 17  1  0
 18 17  1  6
 19 18  1  0
 19 10  1  0
 20 21  2  0
 20 18  1  0
 22 16  2  0
 23 22  1  0
 24 20  1  0
 25 24  1  0
 26 28  1  0
 26 25  1  0
 27 26  2  0
M  END
$$$$
