EMS.pdb
     RDKit          3D

 24 23  0  0  1  0  0  0  0  0999 V2000
   20.0637  -13.5551  -17.4058 N   0  0  0  0  0  0  0  0  0  0  0  0
   20.1302  -12.1476  -17.6867 C   0  0  1  0  0  0  0  0  0  0  0  0
   18.7269  -11.5824  -17.7861 C   0  0  0  0  0  0  0  0  0  0  0  0
   18.0434  -12.1215  -19.0314 C   0  0  0  0  0  0  0  0  0  0  0  0
   16.6657  -11.6264  -19.1435 C   0  0  0  0  0  0  0  0  0  0  0  0
   15.7125  -12.4321  -19.2733 O   0  0  0  0  0  0  0  0  0  0  0  0
   20.8623  -11.4251  -16.5990 C   0  0  0  0  0  0  0  0  0  0  0  0
   20.5623  -11.6031  -15.3961 O   0  0  0  0  0  0  0  0  0  0  0  0
   16.4186  -10.2754  -19.1061 O   0  0  0  0  0  0  0  0  0  0  0  0
   27.4038   -9.7041  -16.8867 C   0  0  0  0  0  0  0  0  0  0  0  0
   26.8121  -10.0580  -15.1915 S   0  0  0  0  0  0  0  0  0  0  0  0
   25.0728   -9.4841  -15.0953 C   0  0  0  0  0  0  0  0  0  0  0  0
   24.2104  -10.2516  -16.0413 C   0  0  0  0  0  0  0  0  0  0  0  0
   22.7613   -9.8181  -16.0680 C   0  0  2  0  0  0  0  0  0  0  0  0
   21.8938  -10.5408  -16.9235 N   0  0  0  0  0  0  0  0  0  0  0  0
   22.6452   -8.3802  -16.1527 C   0  0  0  0  0  0  0  0  0  0  0  0
   22.9449   -7.8258  -17.2605 O   0  0  0  0  0  0  0  0  0  0  0  0
   19.8437   -6.3698  -14.9595 O   0  0  0  0  0  0  0  0  0  0  0  0
   20.7694   -5.7598  -15.8220 C   0  0  0  0  0  0  0  0  0  0  0  0
   22.1814   -6.0864  -15.3248 C   0  0  2  0  0  0  0  0  0  0  0  0
   22.2220   -7.5379  -15.0946 N   0  0  0  0  0  0  0  0  0  0  0  0
   22.4350   -5.3924  -14.0493 C   0  0  0  0  0  0  0  0  0  0  0  0
   22.5946   -6.0535  -12.9880 O   0  0  0  0  0  0  0  0  0  0  0  0
   22.4976   -3.9964  -14.0214 O   0  0  0  0  0  0  0  0  0  0  0  0
  2  1  1  1
  2  3  1  0
  4  5  1  0
  4  3  1  0
  5  6  2  0
  7 15  1  0
  7  2  1  0
  8  7  2  0
  9  5  1  0
 10 11  1  0
 11 12  1  0
 12 13  1  0
 14 13  1  6
 14 15  1  0
 16 21  1  0
 16 14  1  0
 17 16  2  0
 20 19  1  1
 19 18  1  0
 20 21  1  0
 20 22  1  0
 22 24  1  0
 23 22  2  0
M  END
$$$$
