EMS.pdb
     RDKit          3D

 24 23  0  0  1  0  0  0  0  0999 V2000
   27.2439  -35.2733   -6.8578 N   0  0  0  0  0  0  0  0  0  0  0  0
   27.8299  -34.5465   -5.7657 C   0  0  1  0  0  0  0  0  0  0  0  0
   26.8196  -34.4140   -4.6431 C   0  0  0  0  0  0  0  0  0  0  0  0
   25.7174  -33.4528   -5.0554 C   0  0  0  0  0  0  0  0  0  0  0  0
   24.6635  -33.3768   -4.0359 C   0  0  0  0  0  0  0  0  0  0  0  0
   23.7094  -32.5730   -4.1711 O   0  0  0  0  0  0  0  0  0  0  0  0
   29.0373  -35.2605   -5.2425 C   0  0  0  0  0  0  0  0  0  0  0  0
   29.1640  -36.4980   -5.3885 O   0  0  0  0  0  0  0  0  0  0  0  0
   24.7218  -34.1888   -2.9293 O   0  0  0  0  0  0  0  0  0  0  0  0
   34.4531  -33.1195   -7.9870 C   0  0  0  0  0  0  0  0  0  0  0  0
   34.3008  -33.2698   -6.1695 S   0  0  0  0  0  0  0  0  0  0  0  0
   32.7477  -34.1847   -5.8311 C   0  0  0  0  0  0  0  0  0  0  0  0
   32.5119  -34.2994   -4.3617 C   0  0  0  0  0  0  0  0  0  0  0  0
   31.2323  -35.0110   -3.9814 C   0  0  2  0  0  0  0  0  0  0  0  0
   30.0380  -34.5431   -4.5830 N   0  0  0  0  0  0  0  0  0  0  0  0
   31.1548  -35.2246   -2.5544 C   0  0  0  0  0  0  0  0  0  0  0  0
   30.8303  -34.2323   -1.8234 O   0  0  0  0  0  0  0  0  0  0  0  0
   31.6073  -38.8651   -0.7514 O   0  0  0  0  0  0  0  0  0  0  0  0
   30.7583  -37.9394   -0.1227 C   0  0  0  0  0  0  0  0  0  0  0  0
   31.2596  -36.5277   -0.4441 C   0  0  2  0  0  0  0  0  0  0  0  0
   31.4129  -36.4573   -1.9046 N   0  0  0  0  0  0  0  0  0  0  0  0
   32.5740  -36.3086    0.1861 C   0  0  0  0  0  0  0  0  0  0  0  0
   33.5992  -36.1379   -0.5273 O   0  0  0  0  0  0  0  0  0  0  0  0
   32.6792  -36.2912    1.5796 O   0  0  0  0  0  0  0  0  0  0  0  0
  2  1  1  6
  2  3  1  0
  4  5  1  0
  4  3  1  0
  5  6  2  0
  7 15  1  0
  7  2  1  0
  8  7  2  0
  9  5  1  0
 10 11  1  0
 11 12  1  0
 12 13  1  0
 14 13  1  1
 14 15  1  0
 16 21  1  0
 16 14  1  0
 17 16  2  0
 20 19  1  6
 19 18  1  0
 20 21  1  0
 20 22  1  0
 22 24  1  0
 23 22  2  0
M  END
$$$$
