EMS.pdb
     RDKit          3D

 24 23  0  0  1  0  0  0  0  0999 V2000
   18.3577  -11.8028  -19.2706 N   0  0  0  0  0  0  0  0  0  0  0  0
   18.9909  -10.5136  -19.3073 C   0  0  1  0  0  0  0  0  0  0  0  0
   18.1863   -9.5770  -20.1870 C   0  0  0  0  0  0  0  0  0  0  0  0
   18.8838   -8.2300  -20.2752 C   0  0  0  0  0  0  0  0  0  0  0  0
   19.5636   -8.0620  -21.5658 C   0  0  0  0  0  0  0  0  0  0  0  0
   18.9244   -7.6673  -22.5709 O   0  0  0  0  0  0  0  0  0  0  0  0
   19.0754   -9.9264  -17.9328 C   0  0  0  0  0  0  0  0  0  0  0  0
   18.0514   -9.8102  -17.2210 O   0  0  0  0  0  0  0  0  0  0  0  0
   20.9051   -8.3379  -21.6738 O   0  0  0  0  0  0  0  0  0  0  0  0
   23.0941   -9.8002  -11.3154 C   0  0  0  0  0  0  0  0  0  0  0  0
   22.9594  -10.4514  -13.0204 S   0  0  0  0  0  0  0  0  0  0  0  0
   21.8291   -9.3353  -13.9374 C   0  0  0  0  0  0  0  0  0  0  0  0
   21.5989   -9.8395  -15.3232 C   0  0  0  0  0  0  0  0  0  0  0  0
   20.6357   -9.0110  -16.1445 C   0  0  2  0  0  0  0  0  0  0  0  0
   20.3085   -9.5016  -17.4326 N   0  0  0  0  0  0  0  0  0  0  0  0
   20.9751   -7.6073  -16.0930 C   0  0  0  0  0  0  0  0  0  0  0  0
   21.8372   -7.1752  -16.9264 O   0  0  0  0  0  0  0  0  0  0  0  0
   18.9814   -4.4894  -16.4354 O   0  0  0  0  0  0  0  0  0  0  0  0
   19.6325   -4.3967  -15.1942 C   0  0  0  0  0  0  0  0  0  0  0  0
   20.8846   -5.2786  -15.2381 C   0  0  2  0  0  0  0  0  0  0  0  0
   20.4204   -6.6726  -15.1839 N   0  0  0  0  0  0  0  0  0  0  0  0
   21.7274   -5.0088  -14.0593 C   0  0  0  0  0  0  0  0  0  0  0  0
   21.6665   -5.7617  -13.0500 O   0  0  0  0  0  0  0  0  0  0  0  0
   22.5954   -3.9133  -14.0650 O   0  0  0  0  0  0  0  0  0  0  0  0
  2  1  1  1
  2  3  1  0
  4  5  1  0
  4  3  1  0
  5  6  2  0
  7 15  1  0
  7  2  1  0
  8  7  2  0
  9  5  1  0
 10 11  1  0
 11 12  1  0
 12 13  1  0
 14 13  1  6
 14 15  1  0
 16 21  1  0
 16 14  1  0
 17 16  2  0
 20 19  1  1
 19 18  1  0
 20 21  1  0
 20 22  1  0
 22 24  1  0
 23 22  2  0
M  END
$$$$
