EMS.pdb
     RDKit          3D

 24 23  0  0  1  0  0  0  0  0999 V2000
   15.9630  -11.5114  -11.4985 N   0  0  0  0  0  0  0  0  0  0  0  0
   16.4549  -10.5623  -12.4585 C   0  0  1  0  0  0  0  0  0  0  0  0
   15.2870   -9.8657  -13.1289 C   0  0  0  0  0  0  0  0  0  0  0  0
   14.5478  -10.8477  -14.0222 C   0  0  0  0  0  0  0  0  0  0  0  0
   15.1430  -10.9051  -15.3632 C   0  0  0  0  0  0  0  0  0  0  0  0
   16.1725  -10.2382  -15.6275 O   0  0  0  0  0  0  0  0  0  0  0  0
   17.3102   -9.5303  -11.7917 C   0  0  0  0  0  0  0  0  0  0  0  0
   17.1059   -9.2001  -10.6009 O   0  0  0  0  0  0  0  0  0  0  0  0
   14.5705  -11.6922  -16.3329 O   0  0  0  0  0  0  0  0  0  0  0  0
   23.8445  -10.3164  -13.6717 C   0  0  0  0  0  0  0  0  0  0  0  0
   22.8982   -8.7538  -13.7812 S   0  0  0  0  0  0  0  0  0  0  0  0
   21.3710   -8.9763  -12.7902 C   0  0  0  0  0  0  0  0  0  0  0  0
   20.5245   -7.7481  -12.8417 C   0  0  0  0  0  0  0  0  0  0  0  0
   19.2026   -7.8615  -12.1148 C   0  0  2  0  0  0  0  0  0  0  0  0
   18.3504   -8.9252  -12.5009 N   0  0  0  0  0  0  0  0  0  0  0  0
   18.5575   -6.5741  -11.9949 C   0  0  0  0  0  0  0  0  0  0  0  0
   18.1414   -6.0180  -13.0635 O   0  0  0  0  0  0  0  0  0  0  0  0
   15.0429   -4.3857  -11.0072 O   0  0  0  0  0  0  0  0  0  0  0  0
   16.0274   -5.3769  -11.1536 C   0  0  0  0  0  0  0  0  0  0  0  0
   17.3789   -4.7795  -10.7489 C   0  0  2  0  0  0  0  0  0  0  0  0
   18.3519   -5.8814  -10.7758 N   0  0  0  0  0  0  0  0  0  0  0  0
   17.2986   -4.2456   -9.3773 C   0  0  0  0  0  0  0  0  0  0  0  0
   17.7275   -4.9249   -8.4058 O   0  0  0  0  0  0  0  0  0  0  0  0
   16.7442   -2.9815   -9.1579 O   0  0  0  0  0  0  0  0  0  0  0  0
  2  1  1  1
  2  3  1  0
  4  5  1  0
  4  3  1  0
  5  6  2  0
  7 15  1  0
  7  2  1  0
  8  7  2  0
  9  5  1  0
 10 11  1  0
 11 12  1  0
 12 13  1  0
 14 13  1  6
 14 15  1  0
 16 21  1  0
 16 14  1  0
 17 16  2  0
 20 19  1  1
 19 18  1  0
 20 21  1  0
 20 22  1  0
 22 24  1  0
 23 22  2  0
M  END
$$$$
