HSD.pdb
     RDKit          3D

 25 25  0  0  1  0  0  0  0  0999 V2000
   18.1478  -13.6943  -15.9477 N   0  0  0  0  0  0  0  0  0  0  0  0
   17.7911  -12.3409  -16.3303 C   0  0  1  0  0  0  0  0  0  0  0  0
   16.8113  -11.8375  -15.2631 C   0  0  0  0  0  0  0  0  0  0  0  0
   15.4699  -12.4387  -15.4782 C   0  0  0  0  0  0  0  0  0  0  0  0
   15.0764  -13.3126  -16.4756 C   0  0  0  0  0  0  0  0  0  0  0  0
   13.7781  -13.6356  -16.3371 N   0  0  0  0  0  0  0  0  0  0  0  0
   13.3494  -12.9610  -15.2450 C   0  0  0  0  0  0  0  0  0  0  0  0
   14.3574  -12.2415  -14.7248 N   0  0  0  0  0  0  0  0  0  0  0  0
   19.0259  -11.5182  -16.3314 C   0  0  0  0  0  0  0  0  0  0  0  0
   19.8351  -11.5639  -15.3718 O   0  0  0  0  0  0  0  0  0  0  0  0
   19.7710   -8.4536  -19.2597 O   0  0  0  0  0  0  0  0  0  0  0  0
   20.7718   -9.2752  -18.7992 C   0  0  0  0  0  0  0  0  0  0  0  0
   20.5062   -9.7685  -17.3714 C   0  0  2  0  0  0  0  0  0  0  0  0
   19.3550  -10.6443  -17.4068 N   0  0  0  0  0  0  0  0  0  0  0  0
   20.2969   -8.6206  -16.4571 C   0  0  0  0  0  0  0  0  0  0  0  0
   19.1364   -8.2734  -16.1077 O   0  0  0  0  0  0  0  0  0  0  0  0
   21.4033   -7.9014  -15.9663 N   0  0  0  0  0  0  0  0  0  0  0  0
   21.2949   -6.7551  -15.0679 C   0  0  1  0  0  0  0  0  0  0  0  0
   22.6213   -6.4998  -14.3973 C   0  0  0  0  0  0  0  0  0  0  0  0
   22.5051   -5.3578  -13.4579 C   0  0  0  0  0  0  0  0  0  0  0  0
   22.0283   -5.3971  -12.3169 O   0  0  0  0  0  0  0  0  0  0  0  0
   20.9207   -5.5266  -15.8311 C   0  0  0  0  0  0  0  0  0  0  0  0
   20.1496   -4.5117  -15.3318 O   0  0  0  0  0  0  0  0  0  0  0  0
   22.9807   -4.1138  -13.9048 O   0  0  0  0  0  0  0  0  0  0  0  0
   21.3528   -5.4386  -17.0085 O   0  0  0  0  0  0  0  0  0  0  0  0
  2  1  1  1
  3  2  1  0
  4  3  1  0
  5  4  2  0
  6  7  1  0
  6  5  1  0
  7  8  2  0
  8  4  1  0
  9 10  2  0
  9  2  1  0
 11 12  1  0
 13 12  1  6
 13 14  1  0
 14  9  1  0
 15 13  1  0
 15 17  1  0
 16 15  2  0
 18 17  1  0
 18 22  1  0
 18 19  1  6
 19 20  1  0
 20 21  2  0
 22 25  2  0
 22 23  1  0
 24 20  1  0
M  END
$$$$
