HSD.pdb
     RDKit          3D

 25 25  0  0  1  0  0  0  0  0999 V2000
   19.5324  -13.5931  -16.7510 N   0  0  0  0  0  0  0  0  0  0  0  0
   18.7881  -12.3477  -16.7507 C   0  0  1  0  0  0  0  0  0  0  0  0
   18.0890  -12.2660  -15.3880 C   0  0  0  0  0  0  0  0  0  0  0  0
   16.9978  -13.2714  -15.3135 C   0  0  0  0  0  0  0  0  0  0  0  0
   15.9643  -13.4770  -16.2096 C   0  0  0  0  0  0  0  0  0  0  0  0
   15.1730  -14.4832  -15.7969 N   0  0  0  0  0  0  0  0  0  0  0  0
   15.7106  -14.9155  -14.6326 C   0  0  0  0  0  0  0  0  0  0  0  0
   16.8045  -14.1942  -14.3363 N   0  0  0  0  0  0  0  0  0  0  0  0
   19.7521  -11.2308  -16.9079 C   0  0  0  0  0  0  0  0  0  0  0  0
   20.7251  -11.1003  -16.1243 O   0  0  0  0  0  0  0  0  0  0  0  0
   19.0008   -7.9176  -19.4720 O   0  0  0  0  0  0  0  0  0  0  0  0
   20.2612   -8.4631  -19.4224 C   0  0  0  0  0  0  0  0  0  0  0  0
   20.5437   -9.1488  -18.0798 C   0  0  2  0  0  0  0  0  0  0  0  0
   19.6271  -10.2598  -17.9425 N   0  0  0  0  0  0  0  0  0  0  0  0
   20.4076   -8.1814  -16.9649 C   0  0  0  0  0  0  0  0  0  0  0  0
   19.2883   -7.9671  -16.4258 O   0  0  0  0  0  0  0  0  0  0  0  0
   21.5382   -7.4870  -16.4941 N   0  0  0  0  0  0  0  0  0  0  0  0
   21.4944   -6.4874  -15.4302 C   0  0  1  0  0  0  0  0  0  0  0  0
   22.3403   -6.9380  -14.2659 C   0  0  0  0  0  0  0  0  0  0  0  0
   22.3022   -5.9217  -13.1860 C   0  0  0  0  0  0  0  0  0  0  0  0
   21.6332   -4.8809  -13.1869 O   0  0  0  0  0  0  0  0  0  0  0  0
   22.0369   -5.1831  -15.9162 C   0  0  0  0  0  0  0  0  0  0  0  0
   22.6134   -4.9951  -17.1434 O   0  0  0  0  0  0  0  0  0  0  0  0
   23.1005   -6.1626  -12.0555 O   0  0  0  0  0  0  0  0  0  0  0  0
   21.9482   -4.2056  -15.1304 O   0  0  0  0  0  0  0  0  0  0  0  0
  2  1  1  1
  3  2  1  0
  4  3  1  0
  5  4  2  0
  6  7  1  0
  6  5  1  0
  7  8  2  0
  8  4  1  0
  9 10  2  0
  9  2  1  0
 11 12  1  0
 13 12  1  6
 13 14  1  0
 14  9  1  0
 15 13  1  0
 15 17  1  0
 16 15  2  0
 18 17  1  0
 18 22  1  0
 18 19  1  1
 19 20  1  0
 20 21  2  0
 22 25  2  0
 22 23  1  0
 24 20  1  0
M  END
$$$$
