HSD.pdb
     RDKit          3D

 25 25  0  0  1  0  0  0  0  0999 V2000
   24.4936  -12.0201  -17.9620 N   0  0  0  0  0  0  0  0  0  0  0  0
   24.4620  -11.2508  -16.7323 C   0  0  1  0  0  0  0  0  0  0  0  0
   25.7896  -10.4852  -16.6710 C   0  0  0  0  0  0  0  0  0  0  0  0
   26.9179  -11.4347  -16.4913 C   0  0  0  0  0  0  0  0  0  0  0  0
   26.8599  -12.8057  -16.3164 C   0  0  0  0  0  0  0  0  0  0  0  0
   28.0963  -13.3193  -16.1878 N   0  0  0  0  0  0  0  0  0  0  0  0
   28.9403  -12.2655  -16.2822 C   0  0  0  0  0  0  0  0  0  0  0  0
   28.2415  -11.1327  -16.4641 N   0  0  0  0  0  0  0  0  0  0  0  0
   23.3202  -10.3059  -16.8052 C   0  0  0  0  0  0  0  0  0  0  0  0
   23.0691   -9.6742  -17.8614 O   0  0  0  0  0  0  0  0  0  0  0  0
   20.4086   -9.9965  -13.6876 O   0  0  0  0  0  0  0  0  0  0  0  0
   20.1507   -9.8531  -15.0298 C   0  0  0  0  0  0  0  0  0  0  0  0
   21.3140   -9.1879  -15.7759 C   0  0  2  0  0  0  0  0  0  0  0  0
   22.4595  -10.0681  -15.6956 N   0  0  0  0  0  0  0  0  0  0  0  0
   21.6035   -7.8531  -15.1999 C   0  0  0  0  0  0  0  0  0  0  0  0
   22.7336   -7.5916  -14.7060 O   0  0  0  0  0  0  0  0  0  0  0  0
   20.6092   -6.8564  -15.1996 N   0  0  0  0  0  0  0  0  0  0  0  0
   20.8124   -5.5046  -14.6855 C   0  0  1  0  0  0  0  0  0  0  0  0
   21.9857   -4.8608  -15.3806 C   0  0  0  0  0  0  0  0  0  0  0  0
   22.2117   -3.4979  -14.8406 C   0  0  0  0  0  0  0  0  0  0  0  0
   21.5970   -2.9729  -13.9040 O   0  0  0  0  0  0  0  0  0  0  0  0
   19.6061   -4.6614  -14.9415 C   0  0  0  0  0  0  0  0  0  0  0  0
   19.0561   -3.8022  -14.0288 O   0  0  0  0  0  0  0  0  0  0  0  0
   23.2182   -2.7298  -15.4493 O   0  0  0  0  0  0  0  0  0  0  0  0
   19.0758   -4.7626  -16.0770 O   0  0  0  0  0  0  0  0  0  0  0  0
  2  1  1  6
  3  2  1  0
  4  3  1  0
  5  4  2  0
  6  7  1  0
  6  5  1  0
  7  8  2  0
  8  4  1  0
  9 10  2  0
  9  2  1  0
 11 12  1  0
 13 12  1  1
 13 14  1  0
 14  9  1  0
 15 13  1  0
 15 17  1  0
 16 15  2  0
 18 17  1  0
 18 22  1  0
 18 19  1  6
 19 20  1  0
 20 21  2  0
 22 25  2  0
 22 23  1  0
 24 20  1  0
M  END
$$$$
