HSD.pdb
     RDKit          3D

 25 25  0  0  1  0  0  0  0  0999 V2000
   20.0716  -12.2717  -19.0802 N   0  0  0  0  0  0  0  0  0  0  0  0
   21.0415  -11.7107  -18.1584 C   0  0  1  0  0  0  0  0  0  0  0  0
   22.3199  -11.4742  -18.9722 C   0  0  0  0  0  0  0  0  0  0  0  0
   22.8857  -12.7722  -19.4215 C   0  0  0  0  0  0  0  0  0  0  0  0
   23.1775  -13.8867  -18.6558 C   0  0  0  0  0  0  0  0  0  0  0  0
   23.6785  -14.8707  -19.4237 N   0  0  0  0  0  0  0  0  0  0  0  0
   23.7031  -14.3740  -20.6824 C   0  0  0  0  0  0  0  0  0  0  0  0
   23.2296  -13.1169  -20.6891 N   0  0  0  0  0  0  0  0  0  0  0  0
   20.5058  -10.4249  -17.6469 C   0  0  0  0  0  0  0  0  0  0  0  0
   20.5146   -9.3907  -18.3597 O   0  0  0  0  0  0  0  0  0  0  0  0
   19.1693   -9.9494  -13.6020 O   0  0  0  0  0  0  0  0  0  0  0  0
   18.5281   -9.3353  -14.6510 C   0  0  0  0  0  0  0  0  0  0  0  0
   19.4790   -9.0358  -15.8166 C   0  0  2  0  0  0  0  0  0  0  0  0
   19.9603  -10.2969  -16.3375 N   0  0  0  0  0  0  0  0  0  0  0  0
   20.5913   -8.1649  -15.3674 C   0  0  0  0  0  0  0  0  0  0  0  0
   21.7701   -8.6057  -15.2929 O   0  0  0  0  0  0  0  0  0  0  0  0
   20.3382   -6.8251  -15.0167 N   0  0  0  0  0  0  0  0  0  0  0  0
   21.3752   -5.8809  -14.6091 C   0  0  1  0  0  0  0  0  0  0  0  0
   22.3852   -5.7163  -15.7167 C   0  0  0  0  0  0  0  0  0  0  0  0
   23.4194   -4.7298  -15.3197 C   0  0  0  0  0  0  0  0  0  0  0  0
   24.0390   -3.9761  -16.0804 O   0  0  0  0  0  0  0  0  0  0  0  0
   20.7793   -4.5405  -14.3261 C   0  0  0  0  0  0  0  0  0  0  0  0
   21.2100   -3.6965  -13.3382 O   0  0  0  0  0  0  0  0  0  0  0  0
   23.7249   -4.6423  -13.9513 O   0  0  0  0  0  0  0  0  0  0  0  0
   19.8195   -4.1828  -15.0552 O   0  0  0  0  0  0  0  0  0  0  0  0
  2  1  1  6
  3  2  1  0
  4  3  1  0
  5  4  2  0
  6  7  1  0
  6  5  1  0
  7  8  2  0
  8  4  1  0
  9 10  2  0
  9  2  1  0
 11 12  1  0
 13 12  1  1
 13 14  1  0
 14  9  1  0
 15 13  1  0
 15 17  1  0
 16 15  2  0
 18 17  1  0
 18 22  1  0
 18 19  1  6
 19 20  1  0
 20 21  2  0
 22 25  2  0
 22 23  1  0
 24 20  1  0
M  END
$$$$
