HSD.pdb
     RDKit          3D

 25 25  0  0  1  0  0  0  0  0999 V2000
   13.4962  -10.3628  -11.2841 N   0  0  0  0  0  0  0  0  0  0  0  0
   14.8774  -10.2749  -10.8488 C   0  0  1  0  0  0  0  0  0  0  0  0
   15.6767  -11.2089  -11.7660 C   0  0  0  0  0  0  0  0  0  0  0  0
   15.3484  -12.6256  -11.4619 C   0  0  0  0  0  0  0  0  0  0  0  0
   15.9793  -13.4755  -10.5714 C   0  0  0  0  0  0  0  0  0  0  0  0
   15.3919  -14.6854  -10.5745 N   0  0  0  0  0  0  0  0  0  0  0  0
   14.3835  -14.5985  -11.4730 C   0  0  0  0  0  0  0  0  0  0  0  0
   14.3511  -13.3672  -12.0090 N   0  0  0  0  0  0  0  0  0  0  0  0
   15.3284   -8.8712  -11.0164 C   0  0  0  0  0  0  0  0  0  0  0  0
   15.0834   -8.2341  -12.0709 O   0  0  0  0  0  0  0  0  0  0  0  0
   15.4475   -5.9444   -8.3316 O   0  0  0  0  0  0  0  0  0  0  0  0
   16.6962   -6.1521   -8.8668 C   0  0  0  0  0  0  0  0  0  0  0  0
   16.6348   -6.8733  -10.2191 C   0  0  2  0  0  0  0  0  0  0  0  0
   16.0535   -8.1806  -10.0036 N   0  0  0  0  0  0  0  0  0  0  0  0
   17.9869   -6.9639  -10.8199 C   0  0  0  0  0  0  0  0  0  0  0  0
   18.8249   -7.8100  -10.4058 O   0  0  0  0  0  0  0  0  0  0  0  0
   18.3503   -6.0975  -11.8685 N   0  0  0  0  0  0  0  0  0  0  0  0
   19.5793   -6.2318  -12.6460 C   0  0  1  0  0  0  0  0  0  0  0  0
   19.5861   -7.5529  -13.3733 C   0  0  0  0  0  0  0  0  0  0  0  0
   20.7841   -7.6488  -14.2427 C   0  0  0  0  0  0  0  0  0  0  0  0
   21.8584   -7.0592  -14.0723 O   0  0  0  0  0  0  0  0  0  0  0  0
   19.6739   -5.1442  -13.6657 C   0  0  0  0  0  0  0  0  0  0  0  0
   20.8416   -4.5365  -14.0412 O   0  0  0  0  0  0  0  0  0  0  0  0
   20.6913   -8.4877  -15.3656 O   0  0  0  0  0  0  0  0  0  0  0  0
   18.5979   -4.7771  -14.2028 O   0  0  0  0  0  0  0  0  0  0  0  0
  2  1  1  6
  3  2  1  0
  4  3  1  0
  5  4  2  0
  6  7  1  0
  6  5  1  0
  7  8  2  0
  8  4  1  0
  9 10  2  0
  9  2  1  0
 11 12  1  0
 13 12  1  1
 13 14  1  0
 14  9  1  0
 15 13  1  0
 15 17  1  0
 16 15  2  0
 18 17  1  0
 18 22  1  0
 18 19  1  6
 19 20  1  0
 20 21  2  0
 22 25  2  0
 22 23  1  0
 24 20  1  0
M  END
$$$$
