HSD.pdb
     RDKit          3D

 25 25  0  0  1  0  0  0  0  0999 V2000
   18.4958  -12.3347  -15.8553 N   0  0  0  0  0  0  0  0  0  0  0  0
   18.3604  -10.9680  -16.3232 C   0  0  1  0  0  0  0  0  0  0  0  0
   16.8543  -10.6902  -16.4065 C   0  0  0  0  0  0  0  0  0  0  0  0
   16.2519  -11.4738  -17.5155 C   0  0  0  0  0  0  0  0  0  0  0  0
   16.5043  -11.3666  -18.8714 C   0  0  0  0  0  0  0  0  0  0  0  0
   15.7619  -12.2501  -19.5624 N   0  0  0  0  0  0  0  0  0  0  0  0
   15.0362  -12.9191  -18.6366 C   0  0  0  0  0  0  0  0  0  0  0  0
   15.3243  -12.4596  -17.4076 N   0  0  0  0  0  0  0  0  0  0  0  0
   18.9999  -10.0715  -15.3286 C   0  0  0  0  0  0  0  0  0  0  0  0
   18.5804  -10.0126  -14.1462 O   0  0  0  0  0  0  0  0  0  0  0  0
   22.8845   -9.0052  -15.6113 O   0  0  0  0  0  0  0  0  0  0  0  0
   22.1655   -8.8917  -14.4456 C   0  0  0  0  0  0  0  0  0  0  0  0
   20.7432   -8.3723  -14.6898 C   0  0  2  0  0  0  0  0  0  0  0  0
   20.1091   -9.2409  -15.6578 N   0  0  0  0  0  0  0  0  0  0  0  0
   20.7779   -6.9644  -15.1526 C   0  0  0  0  0  0  0  0  0  0  0  0
   20.9332   -6.6868  -16.3725 O   0  0  0  0  0  0  0  0  0  0  0  0
   20.6364   -5.9153  -14.2245 N   0  0  0  0  0  0  0  0  0  0  0  0
   20.8320   -4.5059  -14.5538 C   0  0  1  0  0  0  0  0  0  0  0  0
   20.0236   -3.6421  -13.6186 C   0  0  0  0  0  0  0  0  0  0  0  0
   20.2277   -2.2096  -13.9450 C   0  0  0  0  0  0  0  0  0  0  0  0
   20.0291   -1.6761  -15.0435 O   0  0  0  0  0  0  0  0  0  0  0  0
   22.2695   -4.1287  -14.4024 C   0  0  0  0  0  0  0  0  0  0  0  0
   23.0781   -4.5582  -13.3847 O   0  0  0  0  0  0  0  0  0  0  0  0
   20.6899   -1.3795  -12.9103 O   0  0  0  0  0  0  0  0  0  0  0  0
   22.7494   -3.3651  -15.2785 O   0  0  0  0  0  0  0  0  0  0  0  0
  2  1  1  1
  3  2  1  0
  4  3  1  0
  5  4  2  0
  6  7  1  0
  6  5  1  0
  7  8  2  0
  8  4  1  0
  9 10  2  0
  9  2  1  0
 11 12  1  0
 13 12  1  6
 13 14  1  0
 14  9  1  0
 15 13  1  0
 15 17  1  0
 16 15  2  0
 18 17  1  0
 18 22  1  0
 18 19  1  1
 19 20  1  0
 20 21  2  0
 22 25  2  0
 22 23  1  0
 24 20  1  0
M  END
$$$$
