HSD.pdb
     RDKit          3D

 25 25  0  0  1  0  0  0  0  0999 V2000
   20.1057  -13.9527  -16.3625 N   0  0  0  0  0  0  0  0  0  0  0  0
   19.5333  -12.8294  -17.0806 C   0  0  1  0  0  0  0  0  0  0  0  0
   18.0880  -13.2228  -17.4106 C   0  0  0  0  0  0  0  0  0  0  0  0
   18.0728  -14.2770  -18.4573 C   0  0  0  0  0  0  0  0  0  0  0  0
   17.9841  -15.6469  -18.2875 C   0  0  0  0  0  0  0  0  0  0  0  0
   18.0007  -16.2736  -19.4775 N   0  0  0  0  0  0  0  0  0  0  0  0
   18.1005  -15.2926  -20.4045 C   0  0  0  0  0  0  0  0  0  0  0  0
   18.1442  -14.0933  -19.8008 N   0  0  0  0  0  0  0  0  0  0  0  0
   19.5582  -11.6456  -16.1863 C   0  0  0  0  0  0  0  0  0  0  0  0
   19.0522  -11.6913  -15.0376 O   0  0  0  0  0  0  0  0  0  0  0  0
   21.9234   -8.2092  -14.2836 O   0  0  0  0  0  0  0  0  0  0  0  0
   21.6801   -9.3057  -15.0755 C   0  0  0  0  0  0  0  0  0  0  0  0
   20.2687   -9.2858  -15.6757 C   0  0  2  0  0  0  0  0  0  0  0  0
   20.1497  -10.4106  -16.5780 N   0  0  0  0  0  0  0  0  0  0  0  0
   20.0168   -7.9978  -16.3649 C   0  0  0  0  0  0  0  0  0  0  0  0
   20.5312   -7.7530  -17.4895 O   0  0  0  0  0  0  0  0  0  0  0  0
   19.1928   -7.0275  -15.7633 N   0  0  0  0  0  0  0  0  0  0  0  0
   18.8948   -5.7290  -16.3618 C   0  0  1  0  0  0  0  0  0  0  0  0
   17.7164   -5.0988  -15.6629 C   0  0  0  0  0  0  0  0  0  0  0  0
   16.5004   -5.9218  -15.8733 C   0  0  0  0  0  0  0  0  0  0  0  0
   15.7631   -6.3738  -14.9886 O   0  0  0  0  0  0  0  0  0  0  0  0
   20.0619   -4.8076  -16.2188 C   0  0  0  0  0  0  0  0  0  0  0  0
   20.1619   -3.5868  -16.8298 O   0  0  0  0  0  0  0  0  0  0  0  0
   16.1520   -6.2162  -17.2020 O   0  0  0  0  0  0  0  0  0  0  0  0
   21.0044   -5.1982  -15.4839 O   0  0  0  0  0  0  0  0  0  0  0  0
  2  1  1  1
  3  2  1  0
  4  3  1  0
  5  4  2  0
  6  7  1  0
  6  5  1  0
  7  8  2  0
  8  4  1  0
  9 10  2  0
  9  2  1  0
 11 12  1  0
 13 12  1  6
 13 14  1  0
 14  9  1  0
 15 13  1  0
 15 17  1  0
 16 15  2  0
 18 17  1  0
 18 22  1  0
 18 19  1  1
 19 20  1  0
 20 21  2  0
 22 25  2  0
 22 23  1  0
 24 20  1  0
M  END
$$$$
