HSD.pdb
     RDKit          3D

 25 25  0  0  1  0  0  0  0  0999 V2000
   41.3559   -9.9515   -6.6022 N   0  0  0  0  0  0  0  0  0  0  0  0
   42.3022   -9.1017   -7.3004 C   0  0  1  0  0  0  0  0  0  0  0  0
   42.9912   -9.9921   -8.3420 C   0  0  0  0  0  0  0  0  0  0  0  0
   43.9846  -10.8763   -7.6799 C   0  0  0  0  0  0  0  0  0  0  0  0
   44.2741  -10.9745   -6.3308 C   0  0  0  0  0  0  0  0  0  0  0  0
   45.2363  -11.8900   -6.1185 N   0  0  0  0  0  0  0  0  0  0  0  0
   45.5561  -12.3728   -7.3417 C   0  0  0  0  0  0  0  0  0  0  0  0
   44.8103  -11.7701   -8.2825 N   0  0  0  0  0  0  0  0  0  0  0  0
   41.5449   -8.0133   -7.9666 C   0  0  0  0  0  0  0  0  0  0  0  0
   42.1362   -7.1243   -8.6281 O   0  0  0  0  0  0  0  0  0  0  0  0
   37.3206   -8.0337   -8.0618 O   0  0  0  0  0  0  0  0  0  0  0  0
   38.0681   -7.4760   -9.0711 C   0  0  0  0  0  0  0  0  0  0  0  0
   39.3802   -6.8722   -8.5551 C   0  0  2  0  0  0  0  0  0  0  0  0
   40.1256   -7.9203   -7.8923 N   0  0  0  0  0  0  0  0  0  0  0  0
   39.1049   -5.7333   -7.6470 C   0  0  0  0  0  0  0  0  0  0  0  0
   38.6209   -5.9226   -6.4984 O   0  0  0  0  0  0  0  0  0  0  0  0
   39.3844   -4.4179   -8.0637 N   0  0  0  0  0  0  0  0  0  0  0  0
   39.0725   -3.2304   -7.2729 C   0  0  1  0  0  0  0  0  0  0  0  0
   40.3103   -2.7475   -6.5596 C   0  0  0  0  0  0  0  0  0  0  0  0
   39.9721   -1.6146   -5.6639 C   0  0  0  0  0  0  0  0  0  0  0  0
   38.8364   -1.2885   -5.2970 O   0  0  0  0  0  0  0  0  0  0  0  0
   38.5897   -2.1265   -8.1562 C   0  0  0  0  0  0  0  0  0  0  0  0
   37.8552   -1.0556   -7.7232 O   0  0  0  0  0  0  0  0  0  0  0  0
   41.0410   -0.8380   -5.1868 O   0  0  0  0  0  0  0  0  0  0  0  0
   38.8886   -2.2053   -9.3749 O   0  0  0  0  0  0  0  0  0  0  0  0
  2  1  1  6
  3  2  1  0
  4  3  1  0
  5  4  2  0
  6  7  1  0
  6  5  1  0
  7  8  2  0
  8  4  1  0
  9 10  2  0
  9  2  1  0
 11 12  1  0
 13 12  1  1
 13 14  1  0
 14  9  1  0
 15 13  1  0
 15 17  1  0
 16 15  2  0
 18 17  1  0
 18 22  1  0
 18 19  1  6
 19 20  1  0
 20 21  2  0
 22 25  2  0
 22 23  1  0
 24 20  1  0
M  END
$$$$
