WAM.pdb
     RDKit          3D

 28 29  0  0  1  0  0  0  0  0999 V2000
   34.8862  -30.8099  -20.5243 N   0  0  0  0  0  0  0  0  0  0  0  0
   34.5404  -31.6548  -19.4074 C   0  0  1  0  0  0  0  0  0  0  0  0
   33.9953  -30.7997  -18.2621 C   0  0  0  0  0  0  0  0  0  0  0  0
   35.0208  -29.9189  -17.6945 C   0  0  0  0  0  0  0  0  0  0  0  0
   35.1708  -28.5695  -17.9360 C   0  0  0  0  0  0  0  0  0  0  0  0
   36.2284  -28.1421  -17.2245 N   0  0  0  0  0  0  0  0  0  0  0  0
   36.7619  -29.1701  -16.5351 C   0  0  0  0  0  0  0  0  0  0  0  0
   37.8427  -29.2680  -15.6643 C   0  0  0  0  0  0  0  0  0  0  0  0
   38.1408  -30.4929  -15.1048 C   0  0  0  0  0  0  0  0  0  0  0  0
   37.3952  -31.5987  -15.3928 C   0  0  0  0  0  0  0  0  0  0  0  0
   36.3048  -31.5355  -16.2619 C   0  0  0  0  0  0  0  0  0  0  0  0
   36.0082  -30.3053  -16.8216 C   0  0  0  0  0  0  0  0  0  0  0  0
   33.4593  -32.5802  -19.7890 C   0  0  0  0  0  0  0  0  0  0  0  0
   32.7287  -32.3731  -20.7943 O   0  0  0  0  0  0  0  0  0  0  0  0
   32.4319  -35.9436  -18.5255 C   0  0  0  0  0  0  0  0  0  0  0  0
   32.2339  -34.7494  -19.4355 C   0  0  2  0  0  0  0  0  0  0  0  0
   33.2145  -33.7439  -19.0190 N   0  0  0  0  0  0  0  0  0  0  0  0
   30.8619  -34.2131  -19.2546 C   0  0  0  0  0  0  0  0  0  0  0  0
   29.8395  -34.8203  -19.6544 O   0  0  0  0  0  0  0  0  0  0  0  0
   26.9810  -33.4571  -13.6448 C   0  0  0  0  0  0  0  0  0  0  0  0
   28.0659  -32.3563  -14.5703 S   0  0  0  0  0  0  0  0  0  0  0  0
   28.2422  -32.9773  -16.2826 C   0  0  0  0  0  0  0  0  0  0  0  0
   29.1177  -31.9978  -17.0095 C   0  0  0  0  0  0  0  0  0  0  0  0
   29.3231  -32.4377  -18.4103 C   0  0  2  0  0  0  0  0  0  0  0  0
   30.6708  -32.9740  -18.6108 N   0  0  0  0  0  0  0  0  0  0  0  0
   29.0606  -31.3533  -19.3591 C   0  0  0  0  0  0  0  0  0  0  0  0
   27.8502  -30.7509  -19.5952 O   0  0  0  0  0  0  0  0  0  0  0  0
   30.0409  -30.9073  -20.0516 O   0  0  0  0  0  0  0  0  0  0  0  0
  2 13  1  0
  2  1  1  6
  3  2  1  0
  4 12  1  0
  4  3  1  0
  5  4  2  0
  6  5  1  0
  6  7  1  0
  7  8  1  0
  7 12  2  0
  8  9  2  0
  9 10  1  0
 11 10  2  0
 12 11  1  0
 13 14  2  0
 16 15  1  1
 17 16  1  0
 17 13  1  0
 18 16  1  0
 19 18  2  0
 21 20  1  0
 22 23  1  0
 22 21  1  0
 24 23  1  1
 24 25  1  0
 25 18  1  0
 26 24  1  0
 26 27  1  0
 28 26  2  0
M  END
$$$$
