WAM.pdb
     RDKit          3D

 28 29  0  0  1  0  0  0  0  0999 V2000
   24.4738  -22.5007  -13.1974 N   0  0  0  0  0  0  0  0  0  0  0  0
   25.1111  -21.2773  -12.7752 C   0  0  1  0  0  0  0  0  0  0  0  0
   24.0993  -20.3935  -12.0437 C   0  0  0  0  0  0  0  0  0  0  0  0
   23.0210  -19.9408  -12.9280 C   0  0  0  0  0  0  0  0  0  0  0  0
   21.6712  -20.1692  -12.7619 C   0  0  0  0  0  0  0  0  0  0  0  0
   21.0289  -19.5879  -13.7900 N   0  0  0  0  0  0  0  0  0  0  0  0
   21.9195  -18.9948  -14.6096 C   0  0  0  0  0  0  0  0  0  0  0  0
   21.7853  -18.2702  -15.7899 C   0  0  0  0  0  0  0  0  0  0  0  0
   22.9182  -17.7804  -16.4054 C   0  0  0  0  0  0  0  0  0  0  0  0
   24.1568  -17.9963  -15.8752 C   0  0  0  0  0  0  0  0  0  0  0  0
   24.3269  -18.7187  -14.6931 C   0  0  0  0  0  0  0  0  0  0  0  0
   23.1885  -19.2088  -14.0779 C   0  0  0  0  0  0  0  0  0  0  0  0
   26.1832  -21.5731  -11.8088 C   0  0  0  0  0  0  0  0  0  0  0  0
   26.1181  -22.5539  -11.0208 O   0  0  0  0  0  0  0  0  0  0  0  0
   29.5604  -20.1039  -11.1850 C   0  0  0  0  0  0  0  0  0  0  0  0
   28.4018  -20.9889  -10.7751 C   0  0  2  0  0  0  0  0  0  0  0  0
   27.3309  -20.7451  -11.7447 N   0  0  0  0  0  0  0  0  0  0  0  0
   27.9426  -20.6035   -9.4173 C   0  0  0  0  0  0  0  0  0  0  0  0
   26.9806  -19.8216   -9.2246 O   0  0  0  0  0  0  0  0  0  0  0  0
   31.0800  -20.8018   -2.6551 C   0  0  0  0  0  0  0  0  0  0  0  0
   29.6324  -21.5551   -3.4182 S   0  0  0  0  0  0  0  0  0  0  0  0
   28.8943  -20.3794   -4.6105 C   0  0  0  0  0  0  0  0  0  0  0  0
   29.3277  -20.8218   -5.9782 C   0  0  0  0  0  0  0  0  0  0  0  0
   28.2033  -20.6956   -6.9362 C   0  0  2  0  0  0  0  0  0  0  0  0
   28.5953  -21.1221   -8.2810 N   0  0  0  0  0  0  0  0  0  0  0  0
   27.6748  -19.3301   -6.9692 C   0  0  0  0  0  0  0  0  0  0  0  0
   28.2003  -18.2685   -7.6623 O   0  0  0  0  0  0  0  0  0  0  0  0
   26.6201  -19.0749   -6.2895 O   0  0  0  0  0  0  0  0  0  0  0  0
  2 13  1  0
  2  1  1  1
  3  2  1  0
  4 12  1  0
  4  3  1  0
  5  4  2  0
  6  5  1  0
  6  7  1  0
  7  8  1  0
  7 12  2  0
  8  9  2  0
  9 10  1  0
 11 10  2  0
 12 11  1  0
 13 14  2  0
 16 15  1  6
 17 16  1  0
 17 13  1  0
 18 16  1  0
 19 18  2  0
 21 20  1  0
 22 23  1  0
 22 21  1  0
 24 23  1  1
 24 25  1  0
 25 18  1  0
 26 24  1  0
 26 27  1  0
 28 26  2  0
M  END
$$$$
