WAM.pdb
     RDKit          3D

 28 29  0  0  1  0  0  0  0  0999 V2000
   25.4700  -17.2889  -16.5797 N   0  0  0  0  0  0  0  0  0  0  0  0
   25.0205  -18.4470  -15.8463 C   0  0  1  0  0  0  0  0  0  0  0  0
   24.1580  -19.3287  -16.7511 C   0  0  0  0  0  0  0  0  0  0  0  0
   23.0093  -18.6007  -17.2987 C   0  0  0  0  0  0  0  0  0  0  0  0
   22.8679  -18.1403  -18.5909 C   0  0  0  0  0  0  0  0  0  0  0  0
   21.6741  -17.5281  -18.6781 N   0  0  0  0  0  0  0  0  0  0  0  0
   21.0450  -17.5797  -17.4872 C   0  0  0  0  0  0  0  0  0  0  0  0
   19.8121  -17.1099  -17.0453 C   0  0  0  0  0  0  0  0  0  0  0  0
   19.4453  -17.3282  -15.7337 C   0  0  0  0  0  0  0  0  0  0  0  0
   20.2697  -17.9929  -14.8734 C   0  0  0  0  0  0  0  0  0  0  0  0
   21.5127  -18.4772  -15.2839 C   0  0  0  0  0  0  0  0  0  0  0  0
   21.8779  -18.2568  -16.6002 C   0  0  0  0  0  0  0  0  0  0  0  0
   26.1748  -19.2677  -15.4403 C   0  0  0  0  0  0  0  0  0  0  0  0
   26.8724  -19.8978  -16.2791 O   0  0  0  0  0  0  0  0  0  0  0  0
   28.7619  -19.1750  -13.2480 C   0  0  0  0  0  0  0  0  0  0  0  0
   27.6798  -20.1622  -13.6329 C   0  0  2  0  0  0  0  0  0  0  0  0
   26.5307  -19.3669  -14.0727 N   0  0  0  0  0  0  0  0  0  0  0  0
   27.3029  -20.9691  -12.4456 C   0  0  0  0  0  0  0  0  0  0  0  0
   28.1075  -21.7378  -11.8662 O   0  0  0  0  0  0  0  0  0  0  0  0
   27.1338  -19.9953   -5.4379 C   0  0  0  0  0  0  0  0  0  0  0  0
   27.3456  -19.5772   -7.1774 S   0  0  0  0  0  0  0  0  0  0  0  0
   26.2213  -20.6066   -8.1898 C   0  0  0  0  0  0  0  0  0  0  0  0
   26.6041  -20.3822   -9.6241 C   0  0  0  0  0  0  0  0  0  0  0  0
   25.7322  -21.1826  -10.5168 C   0  0  2  0  0  0  0  0  0  0  0  0
   25.9950  -20.8878  -11.9268 N   0  0  0  0  0  0  0  0  0  0  0  0
   24.3148  -20.9782  -10.2098 C   0  0  0  0  0  0  0  0  0  0  0  0
   23.6710  -21.3355   -9.0516 O   0  0  0  0  0  0  0  0  0  0  0  0
   23.5811  -20.4147  -11.0951 O   0  0  0  0  0  0  0  0  0  0  0  0
  2 13  1  0
  2  1  1  6
  3  2  1  0
  4 12  1  0
  4  3  1  0
  5  4  2  0
  6  5  1  0
  6  7  1  0
  7  8  1  0
  7 12  2  0
  8  9  2  0
  9 10  1  0
 11 10  2  0
 12 11  1  0
 13 14  2  0
 16 15  1  1
 17 16  1  0
 17 13  1  0
 18 16  1  0
 19 18  2  0
 21 20  1  0
 22 23  1  0
 22 21  1  0
 24 23  1  1
 24 25  1  0
 25 18  1  0
 26 24  1  0
 26 27  1  0
 28 26  2  0
M  END
$$$$
