WAM.pdb
     RDKit          3D

 28 29  0  0  1  0  0  0  0  0999 V2000
   21.9272  -21.4795  -17.6260 N   0  0  0  0  0  0  0  0  0  0  0  0
   21.5338  -20.5726  -16.5753 C   0  0  1  0  0  0  0  0  0  0  0  0
   20.3741  -19.6981  -17.0552 C   0  0  0  0  0  0  0  0  0  0  0  0
   20.7743  -18.7977  -18.1409 C   0  0  0  0  0  0  0  0  0  0  0  0
   20.4205  -18.9040  -19.4695 C   0  0  0  0  0  0  0  0  0  0  0  0
   20.9961  -17.8832  -20.1285 N   0  0  0  0  0  0  0  0  0  0  0  0
   21.7066  -17.1261  -19.2690 C   0  0  0  0  0  0  0  0  0  0  0  0
   22.4750  -15.9773  -19.4298 C   0  0  0  0  0  0  0  0  0  0  0  0
   23.0914  -15.4262  -18.3258 C   0  0  0  0  0  0  0  0  0  0  0  0
   22.9574  -15.9893  -17.0902 C   0  0  0  0  0  0  0  0  0  0  0  0
   22.1941  -17.1413  -16.8940 C   0  0  0  0  0  0  0  0  0  0  0  0
   21.5770  -17.6918  -18.0033 C   0  0  0  0  0  0  0  0  0  0  0  0
   21.0336  -21.3299  -15.4147 C   0  0  0  0  0  0  0  0  0  0  0  0
   20.5080  -22.4682  -15.5379 O   0  0  0  0  0  0  0  0  0  0  0  0
   20.9572  -20.6382  -11.7363 C   0  0  0  0  0  0  0  0  0  0  0  0
   20.5809  -21.4718  -12.9435 C   0  0  2  0  0  0  0  0  0  0  0  0
   21.1356  -20.7833  -14.1116 N   0  0  0  0  0  0  0  0  0  0  0  0
   19.1024  -21.5358  -13.0577 C   0  0  0  0  0  0  0  0  0  0  0  0
   18.4231  -20.6172  -13.5760 O   0  0  0  0  0  0  0  0  0  0  0  0
   16.9325  -28.1519  -12.8978 C   0  0  0  0  0  0  0  0  0  0  0  0
   16.2505  -26.6275  -13.5735 S   0  0  0  0  0  0  0  0  0  0  0  0
   16.9725  -25.1965  -12.6904 C   0  0  0  0  0  0  0  0  0  0  0  0
   16.5418  -23.9666  -13.4360 C   0  0  0  0  0  0  0  0  0  0  0  0
   16.9515  -22.7499  -12.6944 C   0  0  2  0  0  0  0  0  0  0  0  0
   18.4081  -22.6623  -12.5728 N   0  0  0  0  0  0  0  0  0  0  0  0
   16.3259  -22.6896  -11.3716 C   0  0  0  0  0  0  0  0  0  0  0  0
   14.9951  -22.4832  -11.1071 O   0  0  0  0  0  0  0  0  0  0  0  0
   17.0742  -22.8381  -10.3432 O   0  0  0  0  0  0  0  0  0  0  0  0
  2 13  1  0
  2  1  1  6
  3  2  1  0
  4 12  1  0
  4  3  1  0
  5  4  2  0
  6  5  1  0
  6  7  1  0
  7  8  1  0
  7 12  2  0
  8  9  2  0
  9 10  1  0
 11 10  2  0
 12 11  1  0
 13 14  2  0
 16 15  1  1
 17 16  1  0
 17 13  1  0
 18 16  1  0
 19 18  2  0
 21 20  1  0
 22 23  1  0
 22 21  1  0
 24 23  1  1
 24 25  1  0
 25 18  1  0
 26 24  1  0
 26 27  1  0
 28 26  2  0
M  END
$$$$
