WAM.pdb
     RDKit          3D

 28 29  0  0  1  0  0  0  0  0999 V2000
   26.1231  -22.7226  -17.2753 N   0  0  0  0  0  0  0  0  0  0  0  0
   25.8200  -23.0957  -15.9151 C   0  0  1  0  0  0  0  0  0  0  0  0
   26.1102  -21.9202  -14.9802 C   0  0  0  0  0  0  0  0  0  0  0  0
   27.2653  -21.1340  -15.4243 C   0  0  0  0  0  0  0  0  0  0  0  0
   28.4994  -21.6242  -15.7963 C   0  0  0  0  0  0  0  0  0  0  0  0
   29.2712  -20.5758  -16.1320 N   0  0  0  0  0  0  0  0  0  0  0  0
   28.5754  -19.4305  -15.9882 C   0  0  0  0  0  0  0  0  0  0  0  0
   28.8973  -18.0931  -16.1979 C   0  0  0  0  0  0  0  0  0  0  0  0
   27.9405  -17.1298  -15.9549 C   0  0  0  0  0  0  0  0  0  0  0  0
   26.6944  -17.4702  -15.5156 C   0  0  0  0  0  0  0  0  0  0  0  0
   26.3386  -18.8018  -15.2951 C   0  0  0  0  0  0  0  0  0  0  0  0
   27.3005  -19.7659  -15.5398 C   0  0  0  0  0  0  0  0  0  0  0  0
   24.3831  -23.3919  -15.7803 C   0  0  0  0  0  0  0  0  0  0  0  0
   23.5210  -22.8682  -16.5351 O   0  0  0  0  0  0  0  0  0  0  0  0
   22.4511  -25.9135  -13.8530 C   0  0  0  0  0  0  0  0  0  0  0  0
   22.5122  -24.6063  -14.6154 C   0  0  2  0  0  0  0  0  0  0  0  0
   23.9328  -24.2889  -14.7804 N   0  0  0  0  0  0  0  0  0  0  0  0
   21.8519  -23.5404  -13.8212 C   0  0  0  0  0  0  0  0  0  0  0  0
   20.6231  -23.5474  -13.5682 O   0  0  0  0  0  0  0  0  0  0  0  0
   26.6521  -19.8498  -10.2720 C   0  0  0  0  0  0  0  0  0  0  0  0
   24.9730  -20.4270   -9.9676 S   0  0  0  0  0  0  0  0  0  0  0  0
   24.1431  -20.7484  -11.5666 C   0  0  0  0  0  0  0  0  0  0  0  0
   22.7455  -21.1937  -11.2463 C   0  0  0  0  0  0  0  0  0  0  0  0
   21.9847  -21.4282  -12.4969 C   0  0  2  0  0  0  0  0  0  0  0  0
   22.6120  -22.4653  -13.3186 N   0  0  0  0  0  0  0  0  0  0  0  0
   21.8251  -20.1942  -13.2694 C   0  0  0  0  0  0  0  0  0  0  0  0
   21.0595  -19.1087  -12.9241 O   0  0  0  0  0  0  0  0  0  0  0  0
   22.4493  -20.0948  -14.3830 O   0  0  0  0  0  0  0  0  0  0  0  0
  2 13  1  0
  2  1  1  6
  3  2  1  0
  4 12  1  0
  4  3  1  0
  5  4  2  0
  6  5  1  0
  6  7  1  0
  7  8  1  0
  7 12  2  0
  8  9  2  0
  9 10  1  0
 11 10  2  0
 12 11  1  0
 13 14  2  0
 16 15  1  1
 17 16  1  0
 17 13  1  0
 18 16  1  0
 19 18  2  0
 21 20  1  0
 22 23  1  0
 22 21  1  0
 24 23  1  1
 24 25  1  0
 25 18  1  0
 26 24  1  0
 26 27  1  0
 28 26  2  0
M  END
$$$$
