WAM.pdb
     RDKit          3D

 28 29  0  0  1  0  0  0  0  0999 V2000
   26.9642  -20.1602  -12.2828 N   0  0  0  0  0  0  0  0  0  0  0  0
   26.2891  -21.4167  -12.0667 C   0  0  1  0  0  0  0  0  0  0  0  0
   25.5687  -21.3906  -10.7175 C   0  0  0  0  0  0  0  0  0  0  0  0
   26.4572  -20.9821   -9.6252 C   0  0  0  0  0  0  0  0  0  0  0  0
   26.1230  -20.1922   -8.5454 C   0  0  0  0  0  0  0  0  0  0  0  0
   27.2216  -20.0573   -7.7822 N   0  0  0  0  0  0  0  0  0  0  0  0
   28.2486  -20.7331   -8.3348 C   0  0  0  0  0  0  0  0  0  0  0  0
   29.5752  -20.9162   -7.9572 C   0  0  0  0  0  0  0  0  0  0  0  0
   30.3970  -21.6841   -8.7557 C   0  0  0  0  0  0  0  0  0  0  0  0
   29.9283  -22.2602   -9.9003 C   0  0  0  0  0  0  0  0  0  0  0  0
   28.6034  -22.0966  -10.3080 C   0  0  0  0  0  0  0  0  0  0  0  0
   27.7815  -21.3259   -9.5049 C   0  0  0  0  0  0  0  0  0  0  0  0
   25.2495  -21.6148  -13.0917 C   0  0  0  0  0  0  0  0  0  0  0  0
   24.6312  -20.6470  -13.6097 O   0  0  0  0  0  0  0  0  0  0  0  0
   23.9102  -24.6334  -14.8482 C   0  0  0  0  0  0  0  0  0  0  0  0
   23.8437  -23.1631  -14.4912 C   0  0  2  0  0  0  0  0  0  0  0  0
   24.9176  -22.9224  -13.5243 N   0  0  0  0  0  0  0  0  0  0  0  0
   22.5317  -22.8664  -13.8638 C   0  0  0  0  0  0  0  0  0  0  0  0
   22.4012  -22.6593  -12.6334 O   0  0  0  0  0  0  0  0  0  0  0  0
   22.1006  -17.9649  -13.4572 C   0  0  0  0  0  0  0  0  0  0  0  0
   20.3417  -17.8707  -13.8356 S   0  0  0  0  0  0  0  0  0  0  0  0
   19.6428  -19.5610  -13.8943 C   0  0  0  0  0  0  0  0  0  0  0  0
   20.7724  -20.4834  -14.2512 C   0  0  0  0  0  0  0  0  0  0  0  0
   20.2852  -21.8815  -14.3284 C   0  0  2  0  0  0  0  0  0  0  0  0
   21.3694  -22.8087  -14.6587 N   0  0  0  0  0  0  0  0  0  0  0  0
   19.1890  -22.0173  -15.2901 C   0  0  0  0  0  0  0  0  0  0  0  0
   17.8465  -21.9786  -15.0077 O   0  0  0  0  0  0  0  0  0  0  0  0
   19.4865  -22.1935  -16.5230 O   0  0  0  0  0  0  0  0  0  0  0  0
  2 13  1  0
  2  1  1  6
  3  2  1  0
  4 12  1  0
  4  3  1  0
  5  4  2  0
  6  5  1  0
  6  7  1  0
  7  8  1  0
  7 12  2  0
  8  9  2  0
  9 10  1  0
 11 10  2  0
 12 11  1  0
 13 14  2  0
 16 15  1  1
 17 16  1  0
 17 13  1  0
 18 16  1  0
 19 18  2  0
 21 20  1  0
 22 23  1  0
 22 21  1  0
 24 23  1  6
 24 25  1  0
 25 18  1  0
 26 24  1  0
 26 27  1  0
 28 26  2  0
M  END
$$$$
