WAM.pdb
     RDKit          3D

 28 29  0  0  1  0  0  0  0  0999 V2000
   26.7792  -19.6464  -11.8040 N   0  0  0  0  0  0  0  0  0  0  0  0
   26.1301  -20.9346  -11.7833 C   0  0  1  0  0  0  0  0  0  0  0  0
   25.7320  -21.2895  -10.3495 C   0  0  0  0  0  0  0  0  0  0  0  0
   26.7697  -20.9212   -9.3814 C   0  0  0  0  0  0  0  0  0  0  0  0
   26.6477  -20.0124   -8.3515 C   0  0  0  0  0  0  0  0  0  0  0  0
   27.8251  -19.9683   -7.7039 N   0  0  0  0  0  0  0  0  0  0  0  0
   28.6979  -20.8169   -8.2826 C   0  0  0  0  0  0  0  0  0  0  0  0
   30.0215  -21.1475   -8.0092 C   0  0  0  0  0  0  0  0  0  0  0  0
   30.6555  -22.0784   -8.8054 C   0  0  0  0  0  0  0  0  0  0  0  0
   30.0057  -22.6728   -9.8476 C   0  0  0  0  0  0  0  0  0  0  0  0
   28.6783  -22.3642  -10.1492 C   0  0  0  0  0  0  0  0  0  0  0  0
   28.0450  -21.4300   -9.3487 C   0  0  0  0  0  0  0  0  0  0  0  0
   24.8812  -20.8841  -12.5633 C   0  0  0  0  0  0  0  0  0  0  0  0
   24.0044  -20.0024  -12.3611 O   0  0  0  0  0  0  0  0  0  0  0  0
   23.5982  -22.5847  -15.5933 C   0  0  0  0  0  0  0  0  0  0  0  0
   23.3382  -21.9377  -14.2489 C   0  0  2  0  0  0  0  0  0  0  0  0
   24.6362  -21.8439  -13.5761 N   0  0  0  0  0  0  0  0  0  0  0  0
   22.4260  -22.7983  -13.4551 C   0  0  0  0  0  0  0  0  0  0  0  0
   22.8290  -23.5287  -12.5180 O   0  0  0  0  0  0  0  0  0  0  0  0
   18.3888  -24.3766   -7.8465 C   0  0  0  0  0  0  0  0  0  0  0  0
   19.4460  -23.3950   -8.9254 S   0  0  0  0  0  0  0  0  0  0  0  0
   19.2654  -23.9822  -10.6492 C   0  0  0  0  0  0  0  0  0  0  0  0
   20.2098  -23.1670  -11.4845 C   0  0  0  0  0  0  0  0  0  0  0  0
   20.1184  -23.5771  -12.9063 C   0  0  2  0  0  0  0  0  0  0  0  0
   21.0467  -22.8150  -13.7440 N   0  0  0  0  0  0  0  0  0  0  0  0
   18.7513  -23.4502  -13.4163 C   0  0  0  0  0  0  0  0  0  0  0  0
   17.7832  -24.4228  -13.4062 O   0  0  0  0  0  0  0  0  0  0  0  0
   18.4010  -22.3311  -13.9307 O   0  0  0  0  0  0  0  0  0  0  0  0
  2 13  1  0
  2  1  1  1
  3  2  1  0
  4 12  1  0
  4  3  1  0
  5  4  2  0
  6  5  1  0
  6  7  1  0
  7  8  1  0
  7 12  2  0
  8  9  2  0
  9 10  1  0
 11 10  2  0
 12 11  1  0
 13 14  2  0
 16 15  1  6
 17 16  1  0
 17 13  1  0
 18 16  1  0
 19 18  2  0
 21 20  1  0
 22 23  1  0
 22 21  1  0
 24 23  1  1
 24 25  1  0
 25 18  1  0
 26 24  1  0
 26 27  1  0
 28 26  2  0
M  END
$$$$
