WAM.pdb
     RDKit          3D

 28 29  0  0  1  0  0  0  0  0999 V2000
   24.8376  -17.7116  -17.6881 N   0  0  0  0  0  0  0  0  0  0  0  0
   25.5298  -17.3901  -16.4639 C   0  0  1  0  0  0  0  0  0  0  0  0
   24.6580  -16.4743  -15.6027 C   0  0  0  0  0  0  0  0  0  0  0  0
   24.6878  -15.0849  -16.0697 C   0  0  0  0  0  0  0  0  0  0  0  0
   23.6385  -14.3805  -16.6216 C   0  0  0  0  0  0  0  0  0  0  0  0
   24.0839  -13.1461  -16.9137 N   0  0  0  0  0  0  0  0  0  0  0  0
   25.3820  -13.0342  -16.5685 C   0  0  0  0  0  0  0  0  0  0  0  0
   26.2990  -11.9912  -16.6542 C   0  0  0  0  0  0  0  0  0  0  0  0
   27.5863  -12.1950  -16.2025 C   0  0  0  0  0  0  0  0  0  0  0  0
   27.9666  -13.3958  -15.6780 C   0  0  0  0  0  0  0  0  0  0  0  0
   27.0721  -14.4625  -15.5775 C   0  0  0  0  0  0  0  0  0  0  0  0
   25.7815  -14.2551  -16.0314 C   0  0  0  0  0  0  0  0  0  0  0  0
   25.7569  -18.6136  -15.6752 C   0  0  0  0  0  0  0  0  0  0  0  0
   24.8733  -19.5038  -15.5567 O   0  0  0  0  0  0  0  0  0  0  0  0
   28.6456  -19.8526  -13.6405 C   0  0  0  0  0  0  0  0  0  0  0  0
   27.2038  -19.9352  -14.0966 C   0  0  2  0  0  0  0  0  0  0  0  0
   26.9971  -18.8182  -15.0216 N   0  0  0  0  0  0  0  0  0  0  0  0
   26.3059  -19.7848  -12.9243 C   0  0  0  0  0  0  0  0  0  0  0  0
   26.0786  -18.6758  -12.3836 O   0  0  0  0  0  0  0  0  0  0  0  0
   19.6680  -21.0811   -9.5095 C   0  0  0  0  0  0  0  0  0  0  0  0
   20.8032  -21.3579  -10.8807 S   0  0  0  0  0  0  0  0  0  0  0  0
   22.5052  -20.9425  -10.3521 C   0  0  0  0  0  0  0  0  0  0  0  0
   23.3867  -21.1211  -11.5543 C   0  0  0  0  0  0  0  0  0  0  0  0
   24.7903  -20.7878  -11.2127 C   0  0  2  0  0  0  0  0  0  0  0  0
   25.6697  -20.9167  -12.3764 N   0  0  0  0  0  0  0  0  0  0  0  0
   25.2854  -21.6110  -10.1071 C   0  0  0  0  0  0  0  0  0  0  0  0
   25.2493  -21.2922   -8.7727 O   0  0  0  0  0  0  0  0  0  0  0  0
   25.8116  -22.7441  -10.3876 O   0  0  0  0  0  0  0  0  0  0  0  0
  2 13  1  0
  2  1  1  6
  3  2  1  0
  4 12  1  0
  4  3  1  0
  5  4  2  0
  6  5  1  0
  6  7  1  0
  7  8  1  0
  7 12  2  0
  8  9  2  0
  9 10  1  0
 11 10  2  0
 12 11  1  0
 13 14  2  0
 16 15  1  1
 17 16  1  0
 17 13  1  0
 18 16  1  0
 19 18  2  0
 21 20  1  0
 22 23  1  0
 22 21  1  0
 24 23  1  6
 24 25  1  0
 25 18  1  0
 26 24  1  0
 26 27  1  0
 28 26  2  0
M  END
$$$$
