WAM.pdb
     RDKit          3D

 28 29  0  0  1  0  0  0  0  0999 V2000
   25.4448  -19.8305  -15.0154 N   0  0  0  0  0  0  0  0  0  0  0  0
   26.6880  -19.4930  -14.3661 C   0  0  1  0  0  0  0  0  0  0  0  0
   26.5272  -18.1840  -13.5909 C   0  0  0  0  0  0  0  0  0  0  0  0
   26.3440  -17.0340  -14.4817 C   0  0  0  0  0  0  0  0  0  0  0  0
   25.4197  -16.0209  -14.3367 C   0  0  0  0  0  0  0  0  0  0  0  0
   25.5831  -15.1687  -15.3636 N   0  0  0  0  0  0  0  0  0  0  0  0
   26.5797  -15.5999  -16.1622 C   0  0  0  0  0  0  0  0  0  0  0  0
   27.1410  -15.0983  -17.3324 C   0  0  0  0  0  0  0  0  0  0  0  0
   28.1773  -15.7887  -17.9254 C   0  0  0  0  0  0  0  0  0  0  0  0
   28.6534  -16.9466  -17.3828 C   0  0  0  0  0  0  0  0  0  0  0  0
   28.1133  -17.4772  -16.2102 C   0  0  0  0  0  0  0  0  0  0  0  0
   27.0738  -16.7823  -15.6176 C   0  0  0  0  0  0  0  0  0  0  0  0
   27.0373  -20.5254  -13.3748 C   0  0  0  0  0  0  0  0  0  0  0  0
   26.2884  -21.5131  -13.1491 O   0  0  0  0  0  0  0  0  0  0  0  0
   30.0963  -21.1276  -11.3079 C   0  0  0  0  0  0  0  0  0  0  0  0
   28.7051  -21.5100  -11.7683 C   0  0  2  0  0  0  0  0  0  0  0  0
   28.2453  -20.4271  -12.6412 N   0  0  0  0  0  0  0  0  0  0  0  0
   27.8076  -21.6170  -10.5910 C   0  0  0  0  0  0  0  0  0  0  0  0
   27.9065  -22.5388   -9.7459 O   0  0  0  0  0  0  0  0  0  0  0  0
   26.5873  -19.4254   -3.9749 C   0  0  0  0  0  0  0  0  0  0  0  0
   26.7381  -18.8571   -5.6778 S   0  0  0  0  0  0  0  0  0  0  0  0
   26.1293  -20.1608   -6.8084 C   0  0  0  0  0  0  0  0  0  0  0  0
   26.3702  -19.6679   -8.2059 C   0  0  0  0  0  0  0  0  0  0  0  0
   25.9576  -20.6978   -9.1892 C   0  0  2  0  0  0  0  0  0  0  0  0
   26.7949  -20.6577  -10.3898 N   0  0  0  0  0  0  0  0  0  0  0  0
   24.5445  -20.5623   -9.5497 C   0  0  0  0  0  0  0  0  0  0  0  0
   23.4690  -20.7421   -8.7163 O   0  0  0  0  0  0  0  0  0  0  0  0
   24.2576  -20.2486  -10.7575 O   0  0  0  0  0  0  0  0  0  0  0  0
  2 13  1  0
  2  1  1  1
  3  2  1  0
  4 12  1  0
  4  3  1  0
  5  4  2  0
  6  5  1  0
  6  7  1  0
  7  8  1  0
  7 12  2  0
  8  9  2  0
  9 10  1  0
 11 10  2  0
 12 11  1  0
 13 14  2  0
 16 15  1  1
 17 16  1  0
 17 13  1  0
 18 16  1  0
 19 18  2  0
 21 20  1  0
 22 23  1  0
 22 21  1  0
 24 23  1  1
 24 25  1  0
 25 18  1  0
 26 24  1  0
 26 27  1  0
 28 26  2  0
M  END
$$$$
