WAM.pdb
     RDKit          3D

 28 29  0  0  1  0  0  0  0  0999 V2000
   23.6531  -21.6557  -15.3189 N   0  0  0  0  0  0  0  0  0  0  0  0
   24.2632  -20.6739  -14.4558 C   0  0  1  0  0  0  0  0  0  0  0  0
   23.2872  -20.2865  -13.3433 C   0  0  0  0  0  0  0  0  0  0  0  0
   22.0288  -19.7533  -13.8741 C   0  0  0  0  0  0  0  0  0  0  0  0
   20.7618  -20.2391  -13.6286 C   0  0  0  0  0  0  0  0  0  0  0  0
   19.8910  -19.4687  -14.3036 N   0  0  0  0  0  0  0  0  0  0  0  0
   20.5552  -18.5060  -14.9734 C   0  0  0  0  0  0  0  0  0  0  0  0
   20.1394  -17.4703  -15.8044 C   0  0  0  0  0  0  0  0  0  0  0  0
   21.0876  -16.6306  -16.3505 C   0  0  0  0  0  0  0  0  0  0  0  0
   22.4154  -16.8024  -16.0876 C   0  0  0  0  0  0  0  0  0  0  0  0
   22.8663  -17.8308  -15.2586 C   0  0  0  0  0  0  0  0  0  0  0  0
   21.9128  -18.6715  -14.7122 C   0  0  0  0  0  0  0  0  0  0  0  0
   25.4461  -21.2494  -13.7922 C   0  0  0  0  0  0  0  0  0  0  0  0
   25.4493  -22.4241  -13.3370 O   0  0  0  0  0  0  0  0  0  0  0  0
   28.7495  -19.7861  -12.8085 C   0  0  0  0  0  0  0  0  0  0  0  0
   27.6554  -20.8235  -12.6655 C   0  0  2  0  0  0  0  0  0  0  0  0
   26.6265  -20.4791  -13.6498 N   0  0  0  0  0  0  0  0  0  0  0  0
   27.0821  -20.7509  -11.2983 C   0  0  0  0  0  0  0  0  0  0  0  0
   26.1229  -19.9971  -11.0057 O   0  0  0  0  0  0  0  0  0  0  0  0
   28.2052  -19.2692   -4.0481 C   0  0  0  0  0  0  0  0  0  0  0  0
   28.7147  -19.3845   -5.7722 S   0  0  0  0  0  0  0  0  0  0  0  0
   27.4999  -20.3930   -6.6974 C   0  0  0  0  0  0  0  0  0  0  0  0
   28.0652  -20.5956   -8.0735 C   0  0  0  0  0  0  0  0  0  0  0  0
   27.1374  -21.4126   -8.8918 C   0  0  2  0  0  0  0  0  0  0  0  0
   27.6173  -21.5502  -10.2683 N   0  0  0  0  0  0  0  0  0  0  0  0
   25.7805  -20.8617   -8.8786 C   0  0  0  0  0  0  0  0  0  0  0  0
   25.4226  -19.5674   -9.1622 O   0  0  0  0  0  0  0  0  0  0  0  0
   24.8147  -21.6445   -8.5720 O   0  0  0  0  0  0  0  0  0  0  0  0
  2 13  1  0
  2  1  1  6
  3  2  1  0
  4 12  1  0
  4  3  1  0
  5  4  2  0
  6  5  1  0
  6  7  1  0
  7  8  1  0
  7 12  2  0
  8  9  2  0
  9 10  1  0
 11 10  2  0
 12 11  1  0
 13 14  2  0
 16 15  1  1
 17 16  1  0
 17 13  1  0
 18 16  1  0
 19 18  2  0
 21 20  1  0
 22 23  1  0
 22 21  1  0
 24 23  1  1
 24 25  1  0
 25 18  1  0
 26 24  1  0
 26 27  1  0
 28 26  2  0
M  END
$$$$
