VVM.pdb
     RDKit          3D

 23 22  0  0  1  0  0  0  0  0999 V2000
   17.6909  -12.8431  -15.3457 C   0  0  0  0  0  0  0  0  0  0  0  0
   18.2035  -12.4276  -16.7072 C   0  0  2  0  0  0  0  0  0  0  0  0
   17.9724  -13.6298  -17.6314 C   0  0  0  0  0  0  0  0  0  0  0  0
   19.6838  -12.1302  -16.7069 C   0  0  2  0  0  0  0  0  0  0  0  0
   20.4693  -13.2981  -16.3680 N   0  0  0  0  0  0  0  0  0  0  0  0
   20.0545  -11.0190  -15.8150 C   0  0  0  0  0  0  0  0  0  0  0  0
   20.4312  -11.2500  -14.6149 O   0  0  0  0  0  0  0  0  0  0  0  0
   21.3024   -6.3148  -15.0487 C   0  0  0  0  0  0  0  0  0  0  0  0
   21.1444   -7.5607  -15.9196 C   0  0  2  0  0  0  0  0  0  0  0  0
   20.6249   -7.1486  -17.2535 C   0  0  0  0  0  0  0  0  0  0  0  0
   20.3034   -8.5818  -15.1916 C   0  0  2  0  0  0  0  0  0  0  0  0
   20.0308   -9.6488  -16.1818 N   0  0  0  0  0  0  0  0  0  0  0  0
   19.0568   -8.0642  -14.6345 C   0  0  0  0  0  0  0  0  0  0  0  0
   18.0248   -7.9375  -15.3798 O   0  0  0  0  0  0  0  0  0  0  0  0
   14.4437   -7.0534   -8.2807 C   0  0  0  0  0  0  0  0  0  0  0  0
   15.9064   -7.7326   -9.0449 S   0  0  0  0  0  0  0  0  0  0  0  0
   16.2135   -7.0894  -10.6766 C   0  0  0  0  0  0  0  0  0  0  0  0
   17.3919   -7.6195  -11.4032 C   0  0  0  0  0  0  0  0  0  0  0  0
   17.6647   -7.0869  -12.7625 C   0  0  2  0  0  0  0  0  0  0  0  0
   18.8847   -7.6769  -13.2870 N   0  0  0  0  0  0  0  0  0  0  0  0
   17.6387   -5.6327  -12.8948 C   0  0  0  0  0  0  0  0  0  0  0  0
   18.7426   -4.9942  -12.8016 O   0  0  0  0  0  0  0  0  0  0  0  0
   16.5234   -4.8596  -13.1117 O   0  0  0  0  0  0  0  0  0  0  0  0
  2  1  1  1
  2  3  1  0
  4  2  1  0
  4  6  1  0
  4  5  1  1
  6  7  2  0
  9 11  1  0
  9  8  1  1
 10  9  1  0
 11 13  1  0
 12  6  1  0
 11 12  1  6
 13 14  2  0
 16 15  1  0
 17 18  1  0
 17 16  1  0
 19 18  1  1
 19 21  1  0
 20 19  1  0
 20 13  1  0
 21 22  2  0
 21 23  1  0
M  END
$$$$
