VVM.pdb
     RDKit          3D

 23 22  0  0  1  0  0  0  0  0999 V2000
   23.6344  -18.2394  -17.3973 C   0  0  0  0  0  0  0  0  0  0  0  0
   22.5856  -19.2040  -16.8890 C   0  0  2  0  0  0  0  0  0  0  0  0
   21.2537  -18.4446  -16.9362 C   0  0  0  0  0  0  0  0  0  0  0  0
   22.8225  -19.6213  -15.4573 C   0  0  2  0  0  0  0  0  0  0  0  0
   22.6187  -18.5248  -14.5343 N   0  0  0  0  0  0  0  0  0  0  0  0
   24.1557  -20.2042  -15.2336 C   0  0  0  0  0  0  0  0  0  0  0  0
   24.4294  -21.3780  -15.6613 O   0  0  0  0  0  0  0  0  0  0  0  0
   27.6235  -18.7431  -15.7994 C   0  0  0  0  0  0  0  0  0  0  0  0
   27.5689  -19.2412  -14.3556 C   0  0  2  0  0  0  0  0  0  0  0  0
   28.9260  -19.7117  -13.9608 C   0  0  0  0  0  0  0  0  0  0  0  0
   26.4694  -20.2667  -14.2169 C   0  0  2  0  0  0  0  0  0  0  0  0
   25.2167  -19.5523  -14.5538 N   0  0  0  0  0  0  0  0  0  0  0  0
   26.3715  -20.8858  -12.8980 C   0  0  0  0  0  0  0  0  0  0  0  0
   26.7704  -22.0885  -12.7226 O   0  0  0  0  0  0  0  0  0  0  0  0
   28.3895  -18.6320   -7.4078 C   0  0  0  0  0  0  0  0  0  0  0  0
   27.0606  -19.6284   -6.7551 S   0  0  0  0  0  0  0  0  0  0  0  0
   26.1936  -20.5545   -8.0046 C   0  0  0  0  0  0  0  0  0  0  0  0
   26.4276  -20.1706   -9.4172 C   0  0  0  0  0  0  0  0  0  0  0  0
   25.6718  -20.8996  -10.4674 C   0  0  2  0  0  0  0  0  0  0  0  0
   25.8545  -20.2434  -11.7510 N   0  0  0  0  0  0  0  0  0  0  0  0
   24.2690  -21.1748  -10.1687 C   0  0  0  0  0  0  0  0  0  0  0  0
   23.3729  -20.6084  -10.8838 O   0  0  0  0  0  0  0  0  0  0  0  0
   23.7998  -21.9974   -9.1728 O   0  0  0  0  0  0  0  0  0  0  0  0
  2  1  1  1
  2  3  1  0
  4  2  1  0
  4  6  1  0
  4  5  1  1
  6  7  2  0
  9 11  1  0
  9  8  1  6
 10  9  1  0
 11 13  1  0
 12  6  1  0
 11 12  1  1
 13 14  2  0
 16 15  1  0
 17 18  1  0
 17 16  1  0
 19 18  1  1
 19 21  1  0
 20 19  1  0
 20 13  1  0
 21 22  2  0
 21 23  1  0
M  END
$$$$
