VVM.pdb
     RDKit          3D

 23 22  0  0  1  0  0  0  0  0999 V2000
   26.9475  -17.5198  -14.4369 C   0  0  0  0  0  0  0  0  0  0  0  0
   27.4969  -18.5166  -15.4337 C   0  0  2  0  0  0  0  0  0  0  0  0
   26.3870  -18.7344  -16.4699 C   0  0  0  0  0  0  0  0  0  0  0  0
   27.8066  -19.8557  -14.8086 C   0  0  2  0  0  0  0  0  0  0  0  0
   28.3823  -20.7779  -15.7646 N   0  0  0  0  0  0  0  0  0  0  0  0
   26.6389  -20.4839  -14.1689 C   0  0  0  0  0  0  0  0  0  0  0  0
   25.8465  -21.2217  -14.8496 O   0  0  0  0  0  0  0  0  0  0  0  0
   25.1830  -19.8387  -10.0623 C   0  0  0  0  0  0  0  0  0  0  0  0
   25.4647  -21.1823  -10.7340 C   0  0  2  0  0  0  0  0  0  0  0  0
   26.8561  -21.5992  -10.4035 C   0  0  0  0  0  0  0  0  0  0  0  0
   25.1586  -21.0830  -12.2092 C   0  0  2  0  0  0  0  0  0  0  0  0
   26.2946  -20.3391  -12.8002 N   0  0  0  0  0  0  0  0  0  0  0  0
   23.8921  -20.4307  -12.5298 C   0  0  0  0  0  0  0  0  0  0  0  0
   23.7487  -19.1752  -12.3310 O   0  0  0  0  0  0  0  0  0  0  0  0
   21.0209  -19.0863  -18.0153 C   0  0  0  0  0  0  0  0  0  0  0  0
   19.7212  -19.8714  -17.0776 S   0  0  0  0  0  0  0  0  0  0  0  0
   20.0017  -19.8401  -15.3195 C   0  0  0  0  0  0  0  0  0  0  0  0
   21.2672  -20.4325  -14.8246 C   0  0  0  0  0  0  0  0  0  0  0  0
   21.5023  -20.4384  -13.3581 C   0  0  2  0  0  0  0  0  0  0  0  0
   22.7654  -21.0941  -13.0644 N   0  0  0  0  0  0  0  0  0  0  0  0
   20.4023  -20.9386  -12.5379 C   0  0  0  0  0  0  0  0  0  0  0  0
   20.5352  -22.0777  -11.9724 O   0  0  0  0  0  0  0  0  0  0  0  0
   19.2087  -20.2980  -12.3068 O   0  0  0  0  0  0  0  0  0  0  0  0
  2  1  1  1
  2  3  1  0
  4  2  1  0
  4  6  1  0
  4  5  1  6
  6  7  2  0
  9 11  1  0
  9  8  1  1
 10  9  1  0
 11 13  1  0
 12  6  1  0
 11 12  1  6
 13 14  2  0
 16 15  1  0
 17 18  1  0
 17 16  1  0
 19 18  1  6
 19 21  1  0
 20 19  1  0
 20 13  1  0
 21 22  2  0
 21 23  1  0
M  END
$$$$
