VVM.pdb
     RDKit          3D

 23 22  0  0  1  0  0  0  0  0999 V2000
   26.1250  -17.8183  -14.6880 C   0  0  0  0  0  0  0  0  0  0  0  0
   26.6347  -18.9063  -15.6076 C   0  0  2  0  0  0  0  0  0  0  0  0
   25.4146  -19.4013  -16.3945 C   0  0  0  0  0  0  0  0  0  0  0  0
   27.2023  -20.0863  -14.8559 C   0  0  2  0  0  0  0  0  0  0  0  0
   27.7726  -21.0723  -15.7494 N   0  0  0  0  0  0  0  0  0  0  0  0
   26.2229  -20.7396  -13.9718 C   0  0  0  0  0  0  0  0  0  0  0  0
   25.4075  -21.6074  -14.4381 O   0  0  0  0  0  0  0  0  0  0  0  0
   25.2848  -19.7264   -9.7584 C   0  0  0  0  0  0  0  0  0  0  0  0
   25.5794  -21.1072  -10.3435 C   0  0  2  0  0  0  0  0  0  0  0  0
   27.0312  -21.3966  -10.1776 C   0  0  0  0  0  0  0  0  0  0  0  0
   25.0709  -21.1725  -11.7637 C   0  0  2  0  0  0  0  0  0  0  0  0
   26.0937  -20.4823  -12.5826 N   0  0  0  0  0  0  0  0  0  0  0  0
   23.7546  -20.5753  -11.9714 C   0  0  0  0  0  0  0  0  0  0  0  0
   23.6163  -19.3038  -11.9498 O   0  0  0  0  0  0  0  0  0  0  0  0
   20.3691  -20.8158  -16.9839 C   0  0  0  0  0  0  0  0  0  0  0  0
   19.0204  -20.4365  -15.8784 S   0  0  0  0  0  0  0  0  0  0  0  0
   19.5297  -20.2469  -14.1828 C   0  0  0  0  0  0  0  0  0  0  0  0
   20.8504  -20.8046  -13.8055 C   0  0  0  0  0  0  0  0  0  0  0  0
   21.2623  -20.7072  -12.3819 C   0  0  2  0  0  0  0  0  0  0  0  0
   22.5720  -21.3116  -12.2057 N   0  0  0  0  0  0  0  0  0  0  0  0
   20.2869  -21.1777  -11.4021 C   0  0  0  0  0  0  0  0  0  0  0  0
   19.2698  -20.4429  -11.1560 O   0  0  0  0  0  0  0  0  0  0  0  0
   20.3512  -22.3559  -10.6976 O   0  0  0  0  0  0  0  0  0  0  0  0
  2  1  1  1
  2  3  1  0
  4  2  1  0
  4  6  1  0
  4  5  1  6
  6  7  2  0
  9 11  1  0
  9  8  1  6
 10  9  1  0
 11 13  1  0
 12  6  1  0
 11 12  1  6
 13 14  2  0
 16 15  1  0
 17 18  1  0
 17 16  1  0
 19 18  1  6
 19 21  1  0
 20 19  1  0
 20 13  1  0
 21 22  2  0
 21 23  1  0
M  END
$$$$
