FYH.pdb
     RDKit          3D

 34 36  0  0  1  0  0  0  0  0999 V2000
   21.0036  -11.8585  -19.5098 N   0  0  0  0  0  0  0  0  0  0  0  0
   20.0304  -11.0910  -18.7277 C   0  0  1  0  0  0  0  0  0  0  0  0
   19.3365  -11.9759  -17.7236 C   0  0  0  0  0  0  0  0  0  0  0  0
   18.4321  -12.9490  -18.3424 C   0  0  0  0  0  0  0  0  0  0  0  0
   18.7571  -14.2870  -18.3755 C   0  0  0  0  0  0  0  0  0  0  0  0
   17.8731  -15.1618  -18.9674 C   0  0  0  0  0  0  0  0  0  0  0  0
   16.6822  -14.7516  -19.5248 C   0  0  0  0  0  0  0  0  0  0  0  0
   16.3698  -13.4140  -19.4852 C   0  0  0  0  0  0  0  0  0  0  0  0
   17.2450  -12.5270  -18.8961 C   0  0  0  0  0  0  0  0  0  0  0  0
   20.7234   -9.9342  -18.1351 C   0  0  0  0  0  0  0  0  0  0  0  0
   21.9195  -10.0223  -17.6871 O   0  0  0  0  0  0  0  0  0  0  0  0
   22.7963   -6.9103  -23.6201 O   0  0  0  0  0  0  0  0  0  0  0  0
   22.2546   -6.7697  -22.3283 C   0  0  0  0  0  0  0  0  0  0  0  0
   20.9862   -7.2296  -22.0375 C   0  0  0  0  0  0  0  0  0  0  0  0
   20.4837   -7.0773  -20.7634 C   0  0  0  0  0  0  0  0  0  0  0  0
   21.1958   -6.4789  -19.7484 C   0  0  0  0  0  0  0  0  0  0  0  0
   20.7199   -6.2922  -18.3949 C   0  0  0  0  0  0  0  0  0  0  0  0
   20.8598   -7.5090  -17.4995 C   0  0  2  0  0  0  0  0  0  0  0  0
   20.1479   -8.6381  -18.0078 N   0  0  0  0  0  0  0  0  0  0  0  0
   20.5279   -7.0756  -16.1429 C   0  0  0  0  0  0  0  0  0  0  0  0
   19.2881   -7.0404  -15.8585 O   0  0  0  0  0  0  0  0  0  0  0  0
   22.4604   -6.0298  -20.0709 C   0  0  0  0  0  0  0  0  0  0  0  0
   22.9887   -6.1690  -21.3378 C   0  0  0  0  0  0  0  0  0  0  0  0
   21.4162   -6.6969  -15.1233 N   0  0  0  0  0  0  0  0  0  0  0  0
   20.9415   -6.2952  -13.8031 C   0  0  1  0  0  0  0  0  0  0  0  0
   21.8114   -6.8313  -12.7145 C   0  0  0  0  0  0  0  0  0  0  0  0
   21.3408   -6.3272  -11.4056 C   0  0  0  0  0  0  0  0  0  0  0  0
   20.2116   -5.5584  -11.1807 C   0  0  0  0  0  0  0  0  0  0  0  0
   20.0780   -5.2741   -9.8775 N   0  0  0  0  0  0  0  0  0  0  0  0
   21.1174   -5.8579   -9.2668 C   0  0  0  0  0  0  0  0  0  0  0  0
   21.8896   -6.4970  -10.1691 N   0  0  0  0  0  0  0  0  0  0  0  0
   20.7916   -4.8267  -13.7524 C   0  0  0  0  0  0  0  0  0  0  0  0
   21.6804   -4.1249  -14.3347 O   0  0  0  0  0  0  0  0  0  0  0  0
   19.7527   -4.1618  -13.1177 O   0  0  0  0  0  0  0  0  0  0  0  0
  2  1  1  1
  2  3  1  0
  4  9  1  0
  4  3  1  0
  5  4  2  0
  6  7  2  0
  6  5  1  0
  7  8  1  0
  8  9  2  0
 10  2  1  0
 10 11  2  0
 12 13  1  0
 13 23  2  0
 14 15  2  0
 14 13  1  0
 15 16  1  0
 16 17  1  0
 16 22  2  0
 18 17  1  6
 18 19  1  0
 19 10  1  0
 20 18  1  0
 21 20  2  0
 23 22  1  0
 24 20  1  0
 25 32  1  0
 25 24  1  0
 26 27  1  0
 25 26  1  1
 27 28  2  0
 28 29  1  0
 30 29  1  0
 31 27  1  0
 31 30  2  0
 32 34  1  0
 33 32  2  0
M  END
$$$$
