FYH.pdb
     RDKit          3D

 34 36  0  0  1  0  0  0  0  0999 V2000
   29.8045  -34.5354   -7.6375 N   0  0  0  0  0  0  0  0  0  0  0  0
   29.1897  -34.3894   -6.3153 C   0  0  1  0  0  0  0  0  0  0  0  0
   27.7084  -34.6616   -6.3830 C   0  0  0  0  0  0  0  0  0  0  0  0
   26.9455  -33.5521   -6.9615 C   0  0  0  0  0  0  0  0  0  0  0  0
   26.8560  -33.3987   -8.3273 C   0  0  0  0  0  0  0  0  0  0  0  0
   26.1260  -32.3405   -8.8217 C   0  0  0  0  0  0  0  0  0  0  0  0
   25.4852  -31.4341   -8.0062 C   0  0  0  0  0  0  0  0  0  0  0  0
   25.5823  -31.5984   -6.6454 C   0  0  0  0  0  0  0  0  0  0  0  0
   26.3095  -32.6528   -6.1365 C   0  0  0  0  0  0  0  0  0  0  0  0
   29.9188  -35.2512   -5.3691 C   0  0  0  0  0  0  0  0  0  0  0  0
   29.7616  -36.5218   -5.3564 O   0  0  0  0  0  0  0  0  0  0  0  0
   35.6230  -37.9869   -7.8692 O   0  0  0  0  0  0  0  0  0  0  0  0
   34.9845  -37.3718   -6.7757 C   0  0  0  0  0  0  0  0  0  0  0  0
   34.8208  -38.0431   -5.5809 C   0  0  0  0  0  0  0  0  0  0  0  0
   34.1915  -37.4140   -4.5287 C   0  0  0  0  0  0  0  0  0  0  0  0
   33.7096  -36.1270   -4.6108 C   0  0  0  0  0  0  0  0  0  0  0  0
   33.0420  -35.4177   -3.5409 C   0  0  0  0  0  0  0  0  0  0  0  0
   31.5393  -35.6192   -3.4868 C   0  0  2  0  0  0  0  0  0  0  0  0
   30.8472  -34.7696   -4.4030 N   0  0  0  0  0  0  0  0  0  0  0  0
   31.1512  -35.5278   -2.0800 C   0  0  0  0  0  0  0  0  0  0  0  0
   30.8672  -34.3618   -1.6565 O   0  0  0  0  0  0  0  0  0  0  0  0
   33.8886  -35.4828   -5.8183 C   0  0  0  0  0  0  0  0  0  0  0  0
   34.5148  -36.0882   -6.8883 C   0  0  0  0  0  0  0  0  0  0  0  0
   31.0554  -36.5740   -1.1480 N   0  0  0  0  0  0  0  0  0  0  0  0
   30.5670  -36.3497    0.2087 C   0  0  1  0  0  0  0  0  0  0  0  0
   29.5025  -37.3275    0.5832 C   0  0  0  0  0  0  0  0  0  0  0  0
   28.2156  -36.9206   -0.0226 C   0  0  0  0  0  0  0  0  0  0  0  0
   27.8153  -35.6258   -0.3055 C   0  0  0  0  0  0  0  0  0  0  0  0
   26.5910  -35.6119   -0.8513 N   0  0  0  0  0  0  0  0  0  0  0  0
   26.2056  -36.8929   -0.9191 C   0  0  0  0  0  0  0  0  0  0  0  0
   27.1694  -37.6967   -0.4252 N   0  0  0  0  0  0  0  0  0  0  0  0
   31.7026  -36.3423    1.1530 C   0  0  0  0  0  0  0  0  0  0  0  0
   32.7168  -37.0534    0.8578 O   0  0  0  0  0  0  0  0  0  0  0  0
   31.7410  -35.6159    2.3341 O   0  0  0  0  0  0  0  0  0  0  0  0
  2  1  1  6
  2  3  1  0
  4  9  1  0
  4  3  1  0
  5  4  2  0
  6  7  2  0
  6  5  1  0
  7  8  1  0
  8  9  2  0
 10  2  1  0
 10 11  2  0
 12 13  1  0
 13 23  2  0
 14 15  2  0
 14 13  1  0
 15 16  1  0
 16 17  1  0
 16 22  2  0
 18 17  1  1
 18 19  1  0
 19 10  1  0
 20 18  1  0
 21 20  2  0
 23 22  1  0
 24 20  1  0
 25 32  1  0
 25 24  1  0
 26 27  1  0
 25 26  1  1
 27 28  2  0
 28 29  1  0
 30 29  1  0
 31 27  1  0
 31 30  2  0
 32 34  1  0
 33 32  2  0
M  END
$$$$
