FYH.pdb
     RDKit          3D

 34 36  0  0  1  0  0  0  0  0999 V2000
   24.8231  -18.5571  -19.2205 N   0  0  0  0  0  0  0  0  0  0  0  0
   23.9607  -17.4527  -18.7914 C   0  0  1  0  0  0  0  0  0  0  0  0
   23.3223  -16.7814  -19.9809 C   0  0  0  0  0  0  0  0  0  0  0  0
   24.2946  -16.1374  -20.8683 C   0  0  0  0  0  0  0  0  0  0  0  0
   24.6846  -16.7453  -22.0411 C   0  0  0  0  0  0  0  0  0  0  0  0
   25.6002  -16.0987  -22.8416 C   0  0  0  0  0  0  0  0  0  0  0  0
   26.1381  -14.8732  -22.5156 C   0  0  0  0  0  0  0  0  0  0  0  0
   25.7406  -14.2775  -21.3428 C   0  0  0  0  0  0  0  0  0  0  0  0
   24.8251  -14.9130  -20.5319 C   0  0  0  0  0  0  0  0  0  0  0  0
   22.9991  -17.9740  -17.8048 C   0  0  0  0  0  0  0  0  0  0  0  0
   22.5673  -19.1782  -17.8561 O   0  0  0  0  0  0  0  0  0  0  0  0
   18.2902  -19.8477  -10.6777 O   0  0  0  0  0  0  0  0  0  0  0  0
   19.1523  -19.2148  -11.5932 C   0  0  0  0  0  0  0  0  0  0  0  0
   19.0854  -17.8525  -11.8046 C   0  0  0  0  0  0  0  0  0  0  0  0
   19.9429  -17.2622  -12.7074 C   0  0  0  0  0  0  0  0  0  0  0  0
   20.8792  -17.9753  -13.4215 C   0  0  0  0  0  0  0  0  0  0  0  0
   21.8034  -17.4098  -14.3804 C   0  0  0  0  0  0  0  0  0  0  0  0
   21.4707  -17.7029  -15.8313 C   0  0  2  0  0  0  0  0  0  0  0  0
   22.4710  -17.2115  -16.7246 N   0  0  0  0  0  0  0  0  0  0  0  0
   20.1021  -17.2383  -16.0531 C   0  0  0  0  0  0  0  0  0  0  0  0
   19.7856  -16.1476  -15.4789 O   0  0  0  0  0  0  0  0  0  0  0  0
   20.9211  -19.3350  -13.1876 C   0  0  0  0  0  0  0  0  0  0  0  0
   20.0749  -19.9526  -12.2898 C   0  0  0  0  0  0  0  0  0  0  0  0
   19.1027  -17.8541  -16.8239 N   0  0  0  0  0  0  0  0  0  0  0  0
   17.8566  -18.3254  -16.2285 C   0  0  1  0  0  0  0  0  0  0  0  0
   18.1016  -19.3379  -15.1588 C   0  0  0  0  0  0  0  0  0  0  0  0
   18.3443  -20.6624  -15.7715 C   0  0  0  0  0  0  0  0  0  0  0  0
   17.3805  -21.5343  -16.2486 C   0  0  0  0  0  0  0  0  0  0  0  0
   17.9433  -22.6475  -16.7397 N   0  0  0  0  0  0  0  0  0  0  0  0
   19.2639  -22.4919  -16.5791 C   0  0  0  0  0  0  0  0  0  0  0  0
   19.5262  -21.3034  -15.9979 N   0  0  0  0  0  0  0  0  0  0  0  0
   17.0597  -17.1729  -15.7613 C   0  0  0  0  0  0  0  0  0  0  0  0
   17.3076  -16.7204  -14.5972 O   0  0  0  0  0  0  0  0  0  0  0  0
   16.0645  -16.5509  -16.5010 O   0  0  0  0  0  0  0  0  0  0  0  0
  2  1  1  6
  2  3  1  0
  4  9  1  0
  4  3  1  0
  5  4  2  0
  6  7  2  0
  6  5  1  0
  7  8  1  0
  8  9  2  0
 10  2  1  0
 10 11  2  0
 12 13  1  0
 13 23  2  0
 14 15  2  0
 14 13  1  0
 15 16  1  0
 16 17  1  0
 16 22  2  0
 18 17  1  1
 18 19  1  0
 19 10  1  0
 20 18  1  0
 21 20  2  0
 23 22  1  0
 24 20  1  0
 25 32  1  0
 25 24  1  0
 26 27  1  0
 25 26  1  1
 27 28  2  0
 28 29  1  0
 30 29  1  0
 31 27  1  0
 31 30  2  0
 32 34  1  0
 33 32  2  0
M  END
$$$$
