FYH.pdb
     RDKit          3D

 34 36  0  0  1  0  0  0  0  0999 V2000
   26.7679  -19.8610  -19.1495 N   0  0  0  0  0  0  0  0  0  0  0  0
   26.8004  -18.9826  -17.9769 C   0  0  1  0  0  0  0  0  0  0  0  0
   26.0510  -17.7029  -18.2484 C   0  0  0  0  0  0  0  0  0  0  0  0
   26.7526  -16.8111  -19.1759 C   0  0  0  0  0  0  0  0  0  0  0  0
   26.3873  -16.7501  -20.5025 C   0  0  0  0  0  0  0  0  0  0  0  0
   27.0769  -15.8951  -21.3336 C   0  0  0  0  0  0  0  0  0  0  0  0
   28.1129  -15.1027  -20.8908 C   0  0  0  0  0  0  0  0  0  0  0  0
   28.4674  -15.1731  -19.5651 C   0  0  0  0  0  0  0  0  0  0  0  0
   27.7862  -16.0242  -18.7217 C   0  0  0  0  0  0  0  0  0  0  0  0
   26.2994  -19.7408  -16.8177 C   0  0  0  0  0  0  0  0  0  0  0  0
   25.4425  -20.6831  -16.9483 O   0  0  0  0  0  0  0  0  0  0  0  0
   24.1912  -21.7644   -8.4174 O   0  0  0  0  0  0  0  0  0  0  0  0
   24.7980  -21.2142   -9.5623 C   0  0  0  0  0  0  0  0  0  0  0  0
   24.4990  -19.9320   -9.9764 C   0  0  0  0  0  0  0  0  0  0  0  0
   25.1097  -19.4215  -11.1013 C   0  0  0  0  0  0  0  0  0  0  0  0
   26.0188  -20.1387  -11.8459 C   0  0  0  0  0  0  0  0  0  0  0  0
   26.6895  -19.6549  -13.0331 C   0  0  0  0  0  0  0  0  0  0  0  0
   26.0194  -20.0354  -14.3400 C   0  0  2  0  0  0  0  0  0  0  0  0
   26.7094  -19.5085  -15.4742 N   0  0  0  0  0  0  0  0  0  0  0  0
   24.6055  -19.6865  -14.2070 C   0  0  0  0  0  0  0  0  0  0  0  0
   24.3419  -18.4424  -14.1636 O   0  0  0  0  0  0  0  0  0  0  0  0
   26.2964  -21.4172  -11.4061 C   0  0  0  0  0  0  0  0  0  0  0  0
   25.7001  -21.9538  -10.2836 C   0  0  0  0  0  0  0  0  0  0  0  0
   23.5112  -20.5627  -14.1234 N   0  0  0  0  0  0  0  0  0  0  0  0
   22.1531  -20.0745  -13.9071 C   0  0  1  0  0  0  0  0  0  0  0  0
   21.4341  -19.8472  -15.1959 C   0  0  0  0  0  0  0  0  0  0  0  0
   21.5695  -18.4304  -15.5997 C   0  0  0  0  0  0  0  0  0  0  0  0
   20.9908  -17.3400  -14.9730 C   0  0  0  0  0  0  0  0  0  0  0  0
   21.3178  -16.1999  -15.5976 N   0  0  0  0  0  0  0  0  0  0  0  0
   22.1037  -16.5559  -16.6222 C   0  0  0  0  0  0  0  0  0  0  0  0
   22.2677  -17.8944  -16.6410 N   0  0  0  0  0  0  0  0  0  0  0  0
   21.4332  -20.9886  -12.9975 C   0  0  0  0  0  0  0  0  0  0  0  0
   21.9553  -22.1287  -12.7761 O   0  0  0  0  0  0  0  0  0  0  0  0
   20.2327  -20.6915  -12.3690 O   0  0  0  0  0  0  0  0  0  0  0  0
  2  1  1  6
  2  3  1  0
  4  9  1  0
  4  3  1  0
  5  4  2  0
  6  7  2  0
  6  5  1  0
  7  8  1  0
  8  9  2  0
 10  2  1  0
 10 11  2  0
 12 13  1  0
 13 23  2  0
 14 15  2  0
 14 13  1  0
 15 16  1  0
 16 17  1  0
 16 22  2  0
 18 17  1  1
 18 19  1  0
 19 10  1  0
 20 18  1  0
 21 20  2  0
 23 22  1  0
 24 20  1  0
 25 32  1  0
 25 24  1  0
 26 27  1  0
 25 26  1  6
 27 28  2  0
 28 29  1  0
 30 29  1  0
 31 27  1  0
 31 30  2  0
 32 34  1  0
 33 32  2  0
M  END
$$$$
