FYH.pdb
     RDKit          3D

 34 36  0  0  1  0  0  0  0  0999 V2000
   24.4506  -17.4660  -17.4351 N   0  0  0  0  0  0  0  0  0  0  0  0
   24.4612  -16.1326  -16.8272 C   0  0  1  0  0  0  0  0  0  0  0  0
   25.8649  -15.5861  -16.7648 C   0  0  0  0  0  0  0  0  0  0  0  0
   26.7611  -16.3959  -15.9350 C   0  0  0  0  0  0  0  0  0  0  0  0
   27.6807  -17.2420  -16.5142 C   0  0  0  0  0  0  0  0  0  0  0  0
   28.5013  -17.9809  -15.6909 C   0  0  0  0  0  0  0  0  0  0  0  0
   28.4376  -17.9064  -14.3170 C   0  0  0  0  0  0  0  0  0  0  0  0
   27.5158  -17.0585  -13.7517 C   0  0  0  0  0  0  0  0  0  0  0  0
   26.6881  -16.3129  -14.5632 C   0  0  0  0  0  0  0  0  0  0  0  0
   23.5143  -15.2803  -17.5665 C   0  0  0  0  0  0  0  0  0  0  0  0
   23.3349  -15.4092  -18.8276 O   0  0  0  0  0  0  0  0  0  0  0  0
   19.0521  -19.0789  -16.1718 O   0  0  0  0  0  0  0  0  0  0  0  0
   19.3864  -17.7476  -16.4845 C   0  0  0  0  0  0  0  0  0  0  0  0
   19.8102  -17.4021  -17.7518 C   0  0  0  0  0  0  0  0  0  0  0  0
   20.1303  -16.0903  -18.0271 C   0  0  0  0  0  0  0  0  0  0  0  0
   20.0472  -15.0898  -17.0852 C   0  0  0  0  0  0  0  0  0  0  0  0
   20.3697  -13.6985  -17.3171 C   0  0  0  0  0  0  0  0  0  0  0  0
   21.8142  -13.4375  -17.7007 C   0  0  2  0  0  0  0  0  0  0  0  0
   22.7245  -14.2583  -16.9674 N   0  0  0  0  0  0  0  0  0  0  0  0
   22.0179  -11.9916  -17.6205 C   0  0  0  0  0  0  0  0  0  0  0  0
   22.2675  -11.5290  -16.4616 O   0  0  0  0  0  0  0  0  0  0  0  0
   19.6204  -15.4673  -15.8280 C   0  0  0  0  0  0  0  0  0  0  0  0
   19.2934  -16.7728  -15.5244 C   0  0  0  0  0  0  0  0  0  0  0  0
   21.9708  -11.0604  -18.6707 N   0  0  0  0  0  0  0  0  0  0  0  0
   20.9661  -10.0029  -18.7130 C   0  0  1  0  0  0  0  0  0  0  0  0
   19.5961  -10.5287  -18.4374 C   0  0  0  0  0  0  0  0  0  0  0  0
   18.9367  -10.8948  -19.7101 C   0  0  0  0  0  0  0  0  0  0  0  0
   19.4843  -10.7901  -20.9773 C   0  0  0  0  0  0  0  0  0  0  0  0
   18.6165  -11.2080  -21.9097 N   0  0  0  0  0  0  0  0  0  0  0  0
   17.5150  -11.5800  -21.2444 C   0  0  0  0  0  0  0  0  0  0  0  0
   17.6874  -11.3993  -19.9191 N   0  0  0  0  0  0  0  0  0  0  0  0
   21.3576   -8.9061  -17.8045 C   0  0  0  0  0  0  0  0  0  0  0  0
   21.5476   -9.1975  -16.5796 O   0  0  0  0  0  0  0  0  0  0  0  0
   21.5331   -7.5859  -18.1924 O   0  0  0  0  0  0  0  0  0  0  0  0
  2  1  1  6
  2  3  1  0
  4  9  1  0
  4  3  1  0
  5  4  2  0
  6  7  2  0
  6  5  1  0
  7  8  1  0
  8  9  2  0
 10  2  1  0
 10 11  2  0
 12 13  1  0
 13 23  2  0
 14 15  2  0
 14 13  1  0
 15 16  1  0
 16 17  1  0
 16 22  2  0
 18 17  1  1
 18 19  1  0
 19 10  1  0
 20 18  1  0
 21 20  2  0
 23 22  1  0
 24 20  1  0
 25 32  1  0
 25 24  1  0
 26 27  1  0
 25 26  1  1
 27 28  2  0
 28 29  1  0
 30 29  1  0
 31 27  1  0
 31 30  2  0
 32 34  1  0
 33 32  2  0
M  END
$$$$
