FYH.pdb
     RDKit          3D

 34 36  0  0  1  0  0  0  0  0999 V2000
   30.4167  -28.4616  -18.9325 N   0  0  0  0  0  0  0  0  0  0  0  0
   31.4987  -29.4067  -19.2217 C   0  0  1  0  0  0  0  0  0  0  0  0
   32.7524  -28.6742  -19.6274 C   0  0  0  0  0  0  0  0  0  0  0  0
   32.7180  -28.1992  -21.0134 C   0  0  0  0  0  0  0  0  0  0  0  0
   32.7732  -29.0902  -22.0623 C   0  0  0  0  0  0  0  0  0  0  0  0
   32.7363  -28.5939  -23.3466 C   0  0  0  0  0  0  0  0  0  0  0  0
   32.6467  -27.2470  -23.6208 C   0  0  0  0  0  0  0  0  0  0  0  0
   32.5924  -26.3687  -22.5654 C   0  0  0  0  0  0  0  0  0  0  0  0
   32.6284  -26.8511  -21.2748 C   0  0  0  0  0  0  0  0  0  0  0  0
   31.6664  -30.2884  -18.0536 C   0  0  0  0  0  0  0  0  0  0  0  0
   31.5004  -29.8616  -16.8580 O   0  0  0  0  0  0  0  0  0  0  0  0
   25.8528  -31.1909  -16.4007 O   0  0  0  0  0  0  0  0  0  0  0  0
   27.1241  -31.7738  -16.5611 C   0  0  0  0  0  0  0  0  0  0  0  0
   27.5671  -32.1778  -17.8043 C   0  0  0  0  0  0  0  0  0  0  0  0
   28.8167  -32.7452  -17.9291 C   0  0  0  0  0  0  0  0  0  0  0  0
   29.6602  -32.9324  -16.8573 C   0  0  0  0  0  0  0  0  0  0  0  0
   30.9798  -33.5214  -16.9288 C   0  0  0  0  0  0  0  0  0  0  0  0
   32.1183  -32.5209  -16.9973 C   0  0  2  0  0  0  0  0  0  0  0  0
   32.0178  -31.6656  -18.1368 N   0  0  0  0  0  0  0  0  0  0  0  0
   33.3585  -33.2816  -16.8504 C   0  0  0  0  0  0  0  0  0  0  0  0
   33.9158  -33.6502  -17.9334 O   0  0  0  0  0  0  0  0  0  0  0  0
   29.1884  -32.5181  -15.6281 C   0  0  0  0  0  0  0  0  0  0  0  0
   27.9419  -31.9472  -15.4739 C   0  0  0  0  0  0  0  0  0  0  0  0
   34.0020  -33.6488  -15.6574 N   0  0  0  0  0  0  0  0  0  0  0  0
   35.2098  -34.4679  -15.6586 C   0  0  1  0  0  0  0  0  0  0  0  0
   35.5672  -34.9301  -14.2846 C   0  0  0  0  0  0  0  0  0  0  0  0
   36.8016  -35.7440  -14.3372 C   0  0  0  0  0  0  0  0  0  0  0  0
   38.0586  -35.3041  -14.7156 C   0  0  0  0  0  0  0  0  0  0  0  0
   38.9537  -36.2998  -14.6502 N   0  0  0  0  0  0  0  0  0  0  0  0
   38.2748  -37.3759  -14.2315 C   0  0  0  0  0  0  0  0  0  0  0  0
   36.9776  -37.0624  -14.0373 N   0  0  0  0  0  0  0  0  0  0  0  0
   35.0585  -35.5785  -16.6205 C   0  0  0  0  0  0  0  0  0  0  0  0
   36.0197  -35.7913  -17.4282 O   0  0  0  0  0  0  0  0  0  0  0  0
   33.9464  -36.4034  -16.7036 O   0  0  0  0  0  0  0  0  0  0  0  0
  2  1  1  1
  2  3  1  0
  4  9  1  0
  4  3  1  0
  5  4  2  0
  6  7  2  0
  6  5  1  0
  7  8  1  0
  8  9  2  0
 10  2  1  0
 10 11  2  0
 12 13  1  0
 13 23  2  0
 14 15  2  0
 14 13  1  0
 15 16  1  0
 16 17  1  0
 16 22  2  0
 18 17  1  6
 18 19  1  0
 19 10  1  0
 20 18  1  0
 21 20  2  0
 23 22  1  0
 24 20  1  0
 25 32  1  0
 25 24  1  0
 26 27  1  0
 25 26  1  1
 27 28  2  0
 28 29  1  0
 30 29  1  0
 31 27  1  0
 31 30  2  0
 32 34  1  0
 33 32  2  0
M  END
$$$$
