FYH.pdb
     RDKit          3D

 34 36  0  0  1  0  0  0  0  0999 V2000
   25.3613  -20.4178  -18.2302 N   0  0  0  0  0  0  0  0  0  0  0  0
   24.2286  -19.5957  -17.7955 C   0  0  1  0  0  0  0  0  0  0  0  0
   23.1757  -19.5265  -18.8723 C   0  0  0  0  0  0  0  0  0  0  0  0
   23.6450  -18.8674  -20.0942 C   0  0  0  0  0  0  0  0  0  0  0  0
   23.7575  -17.4960  -20.1531 C   0  0  0  0  0  0  0  0  0  0  0  0
   24.2046  -16.9246  -21.3239 C   0  0  0  0  0  0  0  0  0  0  0  0
   24.5418  -17.6688  -22.4328 C   0  0  0  0  0  0  0  0  0  0  0  0
   24.4251  -19.0361  -22.3610 C   0  0  0  0  0  0  0  0  0  0  0  0
   23.9790  -19.6217  -21.1958 C   0  0  0  0  0  0  0  0  0  0  0  0
   23.7421  -20.1228  -16.5090 C   0  0  0  0  0  0  0  0  0  0  0  0
   23.5938  -21.3785  -16.3082 O   0  0  0  0  0  0  0  0  0  0  0  0
   22.3020  -21.1248   -7.8782 O   0  0  0  0  0  0  0  0  0  0  0  0
   22.4860  -20.5530   -9.1514 C   0  0  0  0  0  0  0  0  0  0  0  0
   21.4892  -19.8034   -9.7427 C   0  0  0  0  0  0  0  0  0  0  0  0
   21.6995  -19.2566  -10.9900 C   0  0  0  0  0  0  0  0  0  0  0  0
   22.8743  -19.4234  -11.6881 C   0  0  0  0  0  0  0  0  0  0  0  0
   23.1502  -18.8740  -12.9978 C   0  0  0  0  0  0  0  0  0  0  0  0
   22.9339  -19.8385  -14.1489 C   0  0  2  0  0  0  0  0  0  0  0  0
   23.4004  -19.3099  -15.3911 N   0  0  0  0  0  0  0  0  0  0  0  0
   21.5334  -20.2553  -14.0933 C   0  0  0  0  0  0  0  0  0  0  0  0
   20.6830  -19.4019  -14.5030 O   0  0  0  0  0  0  0  0  0  0  0  0
   23.8510  -20.1778  -11.0701 C   0  0  0  0  0  0  0  0  0  0  0  0
   23.6679  -20.7370   -9.8222 C   0  0  0  0  0  0  0  0  0  0  0  0
   21.0224  -21.4834  -13.6431 N   0  0  0  0  0  0  0  0  0  0  0  0
   19.5886  -21.7539  -13.6172 C   0  0  1  0  0  0  0  0  0  0  0  0
   19.2909  -23.1918  -13.8879 C   0  0  0  0  0  0  0  0  0  0  0  0
   19.4103  -23.4617  -15.3377 C   0  0  0  0  0  0  0  0  0  0  0  0
   19.5832  -22.5183  -16.3360 C   0  0  0  0  0  0  0  0  0  0  0  0
   19.6532  -23.1033  -17.5402 N   0  0  0  0  0  0  0  0  0  0  0  0
   19.5256  -24.4178  -17.3169 C   0  0  0  0  0  0  0  0  0  0  0  0
   19.3784  -24.6545  -15.9973 N   0  0  0  0  0  0  0  0  0  0  0  0
   19.0135  -21.2748  -12.3440 C   0  0  0  0  0  0  0  0  0  0  0  0
   17.7480  -21.1479  -12.2818 O   0  0  0  0  0  0  0  0  0  0  0  0
   19.7538  -20.9559  -11.2151 O   0  0  0  0  0  0  0  0  0  0  0  0
  2  1  1  6
  2  3  1  0
  4  9  1  0
  4  3  1  0
  5  4  2  0
  6  7  2  0
  6  5  1  0
  7  8  1  0
  8  9  2  0
 10  2  1  0
 10 11  2  0
 12 13  1  0
 13 23  2  0
 14 15  2  0
 14 13  1  0
 15 16  1  0
 16 17  1  0
 16 22  2  0
 18 17  1  1
 18 19  1  0
 19 10  1  0
 20 18  1  0
 21 20  2  0
 23 22  1  0
 24 20  1  0
 25 32  1  0
 25 24  1  0
 26 27  1  0
 25 26  1  1
 27 28  2  0
 28 29  1  0
 30 29  1  0
 31 27  1  0
 31 30  2  0
 32 34  1  0
 33 32  2  0
M  END
$$$$
