TRC.pdb
     RDKit          3D

 25 24  0  0  1  0  0  0  0  0999 V2000
   23.6080  -11.0093  -14.3567 C   0  0  0  0  0  0  0  0  0  0  0  0
   23.7371  -11.7185  -15.6963 C   0  0  1  0  0  0  0  0  0  0  0  0
   24.5685  -12.8120  -15.6409 O   0  0  0  0  0  0  0  0  0  0  0  0
   22.4210  -11.9381  -16.3706 C   0  0  2  0  0  0  0  0  0  0  0  0
   22.6817  -12.6362  -17.6138 N   0  0  0  0  0  0  0  0  0  0  0  0
   21.5871  -10.7294  -16.5366 C   0  0  0  0  0  0  0  0  0  0  0  0
   21.9056   -9.9598  -17.4802 O   0  0  0  0  0  0  0  0  0  0  0  0
   13.1634  -10.9992  -15.6021 N   0  0  0  0  0  0  0  0  0  0  0  0
   13.8723  -11.4124  -16.7633 C   0  0  0  0  0  0  0  0  0  0  0  0
   13.2423  -12.0476  -17.7275 N   0  0  0  0  0  0  0  0  0  0  0  0
   15.2547  -11.1957  -16.9400 N   0  0  0  0  0  0  0  0  0  0  0  0
   16.1006  -10.5058  -16.0084 C   0  0  0  0  0  0  0  0  0  0  0  0
   17.5137  -10.2660  -16.5074 C   0  0  0  0  0  0  0  0  0  0  0  0
   18.2373   -9.4842  -15.4451 C   0  0  0  0  0  0  0  0  0  0  0  0
   19.6836   -9.1802  -15.8045 C   0  0  2  0  0  0  0  0  0  0  0  0
   20.5028  -10.3604  -15.7574 N   0  0  0  0  0  0  0  0  0  0  0  0
   20.1522   -8.2232  -14.7867 C   0  0  0  0  0  0  0  0  0  0  0  0
   20.6476   -8.6066  -13.7211 O   0  0  0  0  0  0  0  0  0  0  0  0
   13.7997  -12.3087  -18.5878 N   0  0  0  0  0  0  0  0  0  0  0  0
   20.0328   -6.8390  -15.0410 C   0  0  1  0  0  0  0  0  0  0  0  0
   20.5364   -5.8033  -14.1667 C   0  0  0  0  0  0  0  0  0  0  0  0
   22.0514   -5.9446  -13.9681 S   0  0  0  0  0  0  0  0  0  0  0  0
   22.6366   -4.5444  -12.9278 C   0  0  0  0  0  0  0  0  0  0  0  0
   20.2874   -4.4899  -14.7643 O   0  0  0  0  0  0  0  0  0  0  0  0
   19.9986   -3.4259  -13.9345 O   0  0  0  0  0  0  0  0  0  0  0  0
  2  4  1  0
  2  1  1  1
  3  2  1  0
  4  6  1  0
  4  5  1  6
  6 16  1  0
  7  6  2  0
  9  8  1  0
 10  9  2  0
 11  9  1  0
 12 11  1  0
 13 12  1  0
 14 13  1  0
 15 17  1  0
 15 14  1  1
 16 15  1  0
 17 19  1  0
 18 17  2  0
 19 20  1  0
 20 23  1  0
 21 22  1  0
 20 21  1  6
 23 25  2  0
 23 24  1  0
M  END
$$$$
