TRC.pdb
     RDKit          3D

 25 24  0  0  1  0  0  0  0  0999 V2000
   12.5968   -9.2041  -10.0628 C   0  0  0  0  0  0  0  0  0  0  0  0
   13.5203  -10.4107   -9.9899 C   0  0  1  0  0  0  0  0  0  0  0  0
   12.8847  -11.5868  -10.3110 O   0  0  0  0  0  0  0  0  0  0  0  0
   14.8365  -10.1809  -10.6606 C   0  0  2  0  0  0  0  0  0  0  0  0
   15.6479  -11.3614  -10.4397 N   0  0  0  0  0  0  0  0  0  0  0  0
   15.5180   -8.9206  -10.2988 C   0  0  0  0  0  0  0  0  0  0  0  0
   16.1349   -8.9176   -9.2017 O   0  0  0  0  0  0  0  0  0  0  0  0
   21.1305   -7.5472  -12.9456 N   0  0  0  0  0  0  0  0  0  0  0  0
   20.5025   -7.9081  -14.1691 C   0  0  0  0  0  0  0  0  0  0  0  0
   21.0049   -8.8745  -14.9065 N   0  0  0  0  0  0  0  0  0  0  0  0
   19.3527   -7.2597  -14.6657 N   0  0  0  0  0  0  0  0  0  0  0  0
   18.5227   -6.3693  -13.9057 C   0  0  0  0  0  0  0  0  0  0  0  0
   17.9896   -6.9623  -12.6144 C   0  0  0  0  0  0  0  0  0  0  0  0
   16.9242   -6.0325  -12.1008 C   0  0  0  0  0  0  0  0  0  0  0  0
   16.2614   -6.5266  -10.8241 C   0  0  2  0  0  0  0  0  0  0  0  0
   15.5382   -7.7501  -11.0394 N   0  0  0  0  0  0  0  0  0  0  0  0
   15.3160   -5.4665  -10.4324 C   0  0  0  0  0  0  0  0  0  0  0  0
   14.3100   -5.2185  -11.1066 O   0  0  0  0  0  0  0  0  0  0  0  0
   20.5601   -9.0529  -15.8495 N   0  0  0  0  0  0  0  0  0  0  0  0
   15.5683   -4.7227   -9.2584 C   0  0  1  0  0  0  0  0  0  0  0  0
   14.7385   -3.6360   -8.7880 C   0  0  0  0  0  0  0  0  0  0  0  0
   14.4264   -3.7939   -7.2940 S   0  0  0  0  0  0  0  0  0  0  0  0
   13.2853   -5.2218   -7.0841 C   0  0  0  0  0  0  0  0  0  0  0  0
   15.4452   -2.3654   -8.9623 O   0  0  0  0  0  0  0  0  0  0  0  0
   14.7658   -1.1886   -8.7230 O   0  0  0  0  0  0  0  0  0  0  0  0
  2  4  1  0
  2  1  1  6
  3  2  1  0
  4  6  1  0
  4  5  1  1
  6 16  1  0
  7  6  2  0
  9  8  1  0
 10  9  2  0
 11  9  1  0
 12 11  1  0
 13 12  1  0
 14 13  1  0
 15 17  1  0
 15 14  1  6
 16 15  1  0
 17 19  1  0
 18 17  2  0
 19 20  1  0
 20 23  1  0
 21 22  1  0
 20 21  1  6
 23 25  2  0
 23 24  1  0
M  END
$$$$
