TRC.pdb
     RDKit          3D

 25 24  0  0  1  0  0  0  0  0999 V2000
   15.7250  -10.8675  -17.7803 C   0  0  0  0  0  0  0  0  0  0  0  0
   16.6338   -9.9974  -16.9253 C   0  0  1  0  0  0  0  0  0  0  0  0
   15.9767   -8.9226  -16.3747 O   0  0  0  0  0  0  0  0  0  0  0  0
   17.4846  -10.7886  -15.9843 C   0  0  2  0  0  0  0  0  0  0  0  0
   16.5946  -11.4949  -15.0844 N   0  0  0  0  0  0  0  0  0  0  0  0
   18.5390  -10.0213  -15.2893 C   0  0  0  0  0  0  0  0  0  0  0  0
   18.2035   -9.4680  -14.2096 O   0  0  0  0  0  0  0  0  0  0  0  0
   26.5327  -12.1652  -16.8852 N   0  0  0  0  0  0  0  0  0  0  0  0
   25.1673  -12.3848  -17.2154 C   0  0  0  0  0  0  0  0  0  0  0  0
   24.8516  -13.1809  -18.2137 N   0  0  0  0  0  0  0  0  0  0  0  0
   24.1000  -11.7662  -16.5317 N   0  0  0  0  0  0  0  0  0  0  0  0
   24.2287  -11.0363  -15.3028 C   0  0  0  0  0  0  0  0  0  0  0  0
   22.9075  -10.6227  -14.6811 C   0  0  0  0  0  0  0  0  0  0  0  0
   22.2817   -9.6046  -15.5949 C   0  0  0  0  0  0  0  0  0  0  0  0
   20.9271   -9.1136  -15.1077 C   0  0  2  0  0  0  0  0  0  0  0  0
   19.8474   -9.8471  -15.7098 N   0  0  0  0  0  0  0  0  0  0  0  0
   20.8449   -7.7018  -15.5216 C   0  0  0  0  0  0  0  0  0  0  0  0
   20.6343   -7.3861  -16.6980 O   0  0  0  0  0  0  0  0  0  0  0  0
   23.8247  -13.3076  -18.4333 N   0  0  0  0  0  0  0  0  0  0  0  0
   21.0081   -6.6916  -14.5480 C   0  0  1  0  0  0  0  0  0  0  0  0
   20.9408   -5.2741  -14.8251 C   0  0  0  0  0  0  0  0  0  0  0  0
   19.7343   -4.6367  -14.1233 S   0  0  0  0  0  0  0  0  0  0  0  0
   19.8212   -2.8134  -14.3540 C   0  0  0  0  0  0  0  0  0  0  0  0
   22.1473   -4.6156  -14.3202 O   0  0  0  0  0  0  0  0  0  0  0  0
   22.7070   -3.5949  -15.0610 O   0  0  0  0  0  0  0  0  0  0  0  0
  2  4  1  0
  2  1  1  1
  3  2  1  0
  4  6  1  0
  4  5  1  1
  6 16  1  0
  7  6  2  0
  9  8  1  0
 10  9  2  0
 11  9  1  0
 12 11  1  0
 13 12  1  0
 14 13  1  0
 15 17  1  0
 15 14  1  6
 16 15  1  0
 17 19  1  0
 18 17  2  0
 19 20  1  0
 20 23  1  0
 21 22  1  0
 20 21  1  1
 23 25  2  0
 23 24  1  0
M  END
$$$$
