TRC.pdb
     RDKit          3D

 25 24  0  0  1  0  0  0  0  0999 V2000
   24.9031  -23.2379  -12.5434 C   0  0  0  0  0  0  0  0  0  0  0  0
   25.3709  -22.1399  -13.4868 C   0  0  1  0  0  0  0  0  0  0  0  0
   26.6948  -22.2668  -13.8351 O   0  0  0  0  0  0  0  0  0  0  0  0
   24.4233  -21.8976  -14.6174 C   0  0  2  0  0  0  0  0  0  0  0  0
   24.9626  -20.8105  -15.4100 N   0  0  0  0  0  0  0  0  0  0  0  0
   23.0120  -21.6991  -14.2269 C   0  0  0  0  0  0  0  0  0  0  0  0
   22.7340  -20.5951  -13.6898 O   0  0  0  0  0  0  0  0  0  0  0  0
   16.8464  -19.7455  -17.1838 N   0  0  0  0  0  0  0  0  0  0  0  0
   17.6173  -20.0811  -18.3304 C   0  0  0  0  0  0  0  0  0  0  0  0
   17.5116  -19.3632  -19.4274 N   0  0  0  0  0  0  0  0  0  0  0  0
   18.4979  -21.1820  -18.3717 N   0  0  0  0  0  0  0  0  0  0  0  0
   18.6614  -22.1394  -17.3152 C   0  0  0  0  0  0  0  0  0  0  0  0
   19.5535  -21.6707  -16.1804 C   0  0  0  0  0  0  0  0  0  0  0  0
   19.6776  -22.8117  -15.2077 C   0  0  0  0  0  0  0  0  0  0  0  0
   20.5870  -22.4990  -14.0293 C   0  0  2  0  0  0  0  0  0  0  0  0
   21.9754  -22.6041  -14.3864 N   0  0  0  0  0  0  0  0  0  0  0  0
   20.2712  -23.5107  -13.0056 C   0  0  0  0  0  0  0  0  0  0  0  0
   20.5353  -24.7060  -13.1775 O   0  0  0  0  0  0  0  0  0  0  0  0
   18.1237  -19.6296  -20.2480 N   0  0  0  0  0  0  0  0  0  0  0  0
   19.6561  -23.0995  -11.8025 C   0  0  2  0  0  0  0  0  0  0  0  0
   19.3167  -23.9898  -10.7148 C   0  0  0  0  0  0  0  0  0  0  0  0
   19.0670  -23.2024   -9.4217 S   0  0  0  0  0  0  0  0  0  0  0  0
   18.7176  -24.3989   -8.0683 C   0  0  0  0  0  0  0  0  0  0  0  0
   18.0866  -24.7155  -11.0377 O   0  0  0  0  0  0  0  0  0  0  0  0
   18.0284  -26.0707  -10.7849 O   0  0  0  0  0  0  0  0  0  0  0  0
  2  4  1  0
  2  1  1  6
  3  2  1  0
  4  6  1  0
  4  5  1  1
  6 16  1  0
  7  6  2  0
  9  8  1  0
 10  9  2  0
 11  9  1  0
 12 11  1  0
 13 12  1  0
 14 13  1  0
 15 17  1  0
 15 14  1  6
 16 15  1  0
 17 19  1  0
 18 17  2  0
 19 20  1  0
 20 23  1  0
 21 22  1  0
 20 21  1  1
 23 25  2  0
 23 24  1  0
M  END
$$$$
