TRC.pdb
     RDKit          3D

 25 24  0  0  1  0  0  0  0  0999 V2000
   26.4231  -11.8306  -15.3123 C   0  0  0  0  0  0  0  0  0  0  0  0
   26.9616  -12.1188  -16.7056 C   0  0  1  0  0  0  0  0  0  0  0  0
   28.0287  -12.9856  -16.6942 O   0  0  0  0  0  0  0  0  0  0  0  0
   25.8853  -12.4284  -17.6959 C   0  0  2  0  0  0  0  0  0  0  0  0
   26.5304  -12.7205  -18.9605 N   0  0  0  0  0  0  0  0  0  0  0  0
   24.8134  -11.4165  -17.8004 C   0  0  0  0  0  0  0  0  0  0  0  0
   25.1788  -10.2483  -18.0941 O   0  0  0  0  0  0  0  0  0  0  0  0
   17.3266  -12.7979  -15.2610 N   0  0  0  0  0  0  0  0  0  0  0  0
   16.9609  -11.4762  -15.6363 C   0  0  0  0  0  0  0  0  0  0  0  0
   15.9931  -10.8550  -14.9979 N   0  0  0  0  0  0  0  0  0  0  0  0
   17.5757  -10.7781  -16.6963 N   0  0  0  0  0  0  0  0  0  0  0  0
   18.5861  -11.3226  -17.5577 C   0  0  0  0  0  0  0  0  0  0  0  0
   19.8432  -10.4781  -17.6571 C   0  0  0  0  0  0  0  0  0  0  0  0
   21.0188  -11.4123  -17.5651 C   0  0  0  0  0  0  0  0  0  0  0  0
   22.3597  -10.6989  -17.6466 C   0  0  2  0  0  0  0  0  0  0  0  0
   23.4584  -11.6247  -17.6017 N   0  0  0  0  0  0  0  0  0  0  0  0
   22.4148   -9.8225  -16.4633 C   0  0  0  0  0  0  0  0  0  0  0  0
   22.5604  -10.2837  -15.3257 O   0  0  0  0  0  0  0  0  0  0  0  0
   15.7961   -9.8505  -15.2647 N   0  0  0  0  0  0  0  0  0  0  0  0
   22.3013   -8.4257  -16.6392 C   0  0  1  0  0  0  0  0  0  0  0  0
   22.4174   -7.4576  -15.5713 C   0  0  0  0  0  0  0  0  0  0  0  0
   23.6746   -6.5961  -15.7489 S   0  0  0  0  0  0  0  0  0  0  0  0
   25.1414   -7.5992  -15.2722 C   0  0  0  0  0  0  0  0  0  0  0  0
   21.2590   -6.5622  -15.5900 O   0  0  0  0  0  0  0  0  0  0  0  0
   21.0942   -5.6667  -14.5534 O   0  0  0  0  0  0  0  0  0  0  0  0
  2  4  1  0
  2  1  1  1
  3  2  1  0
  4  6  1  0
  4  5  1  6
  6 16  1  0
  7  6  2  0
  9  8  1  0
 10  9  2  0
 11  9  1  0
 12 11  1  0
 13 12  1  0
 14 13  1  0
 15 17  1  0
 15 14  1  1
 16 15  1  0
 17 19  1  0
 18 17  2  0
 19 20  1  0
 20 23  1  0
 21 22  1  0
 20 21  1  6
 23 25  2  0
 23 24  1  0
M  END
$$$$
