TRC.pdb
     RDKit          3D

 25 24  0  0  1  0  0  0  0  0999 V2000
   26.8946  -22.3926  -20.5038 C   0  0  0  0  0  0  0  0  0  0  0  0
   26.2443  -22.8156  -19.1952 C   0  0  1  0  0  0  0  0  0  0  0  0
   26.8307  -23.9315  -18.6466 O   0  0  0  0  0  0  0  0  0  0  0  0
   26.0209  -21.6731  -18.2573 C   0  0  2  0  0  0  0  0  0  0  0  0
   27.3110  -21.0652  -17.9991 N   0  0  0  0  0  0  0  0  0  0  0  0
   25.2675  -22.0023  -17.0294 C   0  0  0  0  0  0  0  0  0  0  0  0
   24.1859  -22.6254  -17.1912 O   0  0  0  0  0  0  0  0  0  0  0  0
   23.2098  -20.0885  -10.0638 N   0  0  0  0  0  0  0  0  0  0  0  0
   24.1253  -20.7127   -9.1729 C   0  0  0  0  0  0  0  0  0  0  0  0
   23.8126  -20.8580   -7.9036 N   0  0  0  0  0  0  0  0  0  0  0  0
   25.3942  -21.1796   -9.5741 N   0  0  0  0  0  0  0  0  0  0  0  0
   25.9289  -21.0590  -10.9004 C   0  0  0  0  0  0  0  0  0  0  0  0
   24.9748  -21.4888  -11.9996 C   0  0  0  0  0  0  0  0  0  0  0  0
   25.7432  -21.4688  -13.2928 C   0  0  0  0  0  0  0  0  0  0  0  0
   24.8902  -21.8172  -14.5029 C   0  0  2  0  0  0  0  0  0  0  0  0
   25.6289  -21.6888  -15.7293 N   0  0  0  0  0  0  0  0  0  0  0  0
   23.7822  -20.8459  -14.4997 C   0  0  0  0  0  0  0  0  0  0  0  0
   23.9926  -19.6279  -14.5177 O   0  0  0  0  0  0  0  0  0  0  0  0
   24.5443  -21.2752   -7.2636 N   0  0  0  0  0  0  0  0  0  0  0  0
   22.4528  -21.3227  -14.4786 C   0  0  1  0  0  0  0  0  0  0  0  0
   21.2825  -20.4736  -14.4616 C   0  0  0  0  0  0  0  0  0  0  0  0
   20.2923  -20.8858  -15.5589 S   0  0  0  0  0  0  0  0  0  0  0  0
   20.9147  -20.2577  -17.1724 C   0  0  0  0  0  0  0  0  0  0  0  0
   20.5980  -20.6037  -13.1738 O   0  0  0  0  0  0  0  0  0  0  0  0
   19.5520  -19.7505  -12.8877 O   0  0  0  0  0  0  0  0  0  0  0  0
  2  4  1  0
  2  1  1  6
  3  2  1  0
  4  6  1  0
  4  5  1  1
  6 16  1  0
  7  6  2  0
  9  8  1  0
 10  9  2  0
 11  9  1  0
 12 11  1  0
 13 12  1  0
 14 13  1  0
 15 17  1  0
 15 14  1  1
 16 15  1  0
 17 19  1  0
 18 17  2  0
 19 20  1  0
 20 23  1  0
 21 22  1  0
 20 21  1  1
 23 25  2  0
 23 24  1  0
M  END
$$$$
