TRC.pdb
     RDKit          3D

 25 24  0  0  1  0  0  0  0  0999 V2000
   27.6309  -22.1282  -16.9073 C   0  0  0  0  0  0  0  0  0  0  0  0
   27.8975  -20.9365  -17.8144 C   0  0  1  0  0  0  0  0  0  0  0  0
   28.3018  -21.3077  -19.0749 O   0  0  0  0  0  0  0  0  0  0  0  0
   26.8166  -19.9052  -17.7576 C   0  0  2  0  0  0  0  0  0  0  0  0
   27.2102  -18.8159  -18.6289 N   0  0  0  0  0  0  0  0  0  0  0  0
   26.4341  -19.4656  -16.3996 C   0  0  0  0  0  0  0  0  0  0  0  0
   27.1811  -18.6066  -15.8626 O   0  0  0  0  0  0  0  0  0  0  0  0
   18.5056  -20.6069  -13.9066 N   0  0  0  0  0  0  0  0  0  0  0  0
   19.4872  -20.6727  -12.8800 C   0  0  0  0  0  0  0  0  0  0  0  0
   19.1197  -20.6692  -11.6171 N   0  0  0  0  0  0  0  0  0  0  0  0
   20.8725  -20.7212  -13.1405 N   0  0  0  0  0  0  0  0  0  0  0  0
   21.4589  -21.1738  -14.3696 C   0  0  0  0  0  0  0  0  0  0  0  0
   22.9765  -21.1729  -14.3748 C   0  0  0  0  0  0  0  0  0  0  0  0
   23.4243  -19.7536  -14.1545 C   0  0  0  0  0  0  0  0  0  0  0  0
   24.9225  -19.5626  -14.3344 C   0  0  2  0  0  0  0  0  0  0  0  0
   25.3470  -19.9078  -15.6636 N   0  0  0  0  0  0  0  0  0  0  0  0
   25.5574  -20.4772  -13.3692 C   0  0  0  0  0  0  0  0  0  0  0  0
   25.7247  -21.6740  -13.6293 O   0  0  0  0  0  0  0  0  0  0  0  0
   19.8797  -20.7479  -10.8856 N   0  0  0  0  0  0  0  0  0  0  0  0
   25.9847  -19.9692  -12.1225 C   0  0  2  0  0  0  0  0  0  0  0  0
   26.5598  -20.7743  -11.0681 C   0  0  0  0  0  0  0  0  0  0  0  0
   27.7015  -20.0246  -10.3689 S   0  0  0  0  0  0  0  0  0  0  0  0
   28.3169  -21.0628   -8.9801 C   0  0  0  0  0  0  0  0  0  0  0  0
   25.5390  -21.0686  -10.0604 O   0  0  0  0  0  0  0  0  0  0  0  0
   25.7662  -22.0919   -9.1631 O   0  0  0  0  0  0  0  0  0  0  0  0
  2  4  1  0
  2  1  1  6
  3  2  1  0
  4  6  1  0
  4  5  1  6
  6 16  1  0
  7  6  2  0
  9  8  1  0
 10  9  2  0
 11  9  1  0
 12 11  1  0
 13 12  1  0
 14 13  1  0
 15 17  1  0
 15 14  1  6
 16 15  1  0
 17 19  1  0
 18 17  2  0
 19 20  1  0
 20 23  1  0
 21 22  1  0
 20 21  1  1
 23 25  2  0
 23 24  1  0
M  END
$$$$
