TRC.pdb
     RDKit          3D

 25 24  0  0  1  0  0  0  0  0999 V2000
   14.7494   -9.0456  -17.1788 C   0  0  0  0  0  0  0  0  0  0  0  0
   15.9620   -8.7775  -16.3003 C   0  0  1  0  0  0  0  0  0  0  0  0
   15.6510   -8.0603  -15.1694 O   0  0  0  0  0  0  0  0  0  0  0  0
   16.8086   -9.9910  -16.0862 C   0  0  2  0  0  0  0  0  0  0  0  0
   15.9922  -10.9743  -15.4024 N   0  0  0  0  0  0  0  0  0  0  0  0
   18.1097   -9.7454  -15.4301 C   0  0  0  0  0  0  0  0  0  0  0  0
   18.1907  -10.0716  -14.2171 O   0  0  0  0  0  0  0  0  0  0  0  0
   26.1749  -12.4030  -16.7686 N   0  0  0  0  0  0  0  0  0  0  0  0
   26.3180  -11.3397  -15.8356 C   0  0  0  0  0  0  0  0  0  0  0  0
   27.4930  -11.0868  -15.3014 N   0  0  0  0  0  0  0  0  0  0  0  0
   25.2410  -10.5298  -15.4192 N   0  0  0  0  0  0  0  0  0  0  0  0
   23.9093  -10.6031  -15.9488 C   0  0  0  0  0  0  0  0  0  0  0  0
   22.9671   -9.5379  -15.4187 C   0  0  0  0  0  0  0  0  0  0  0  0
   21.5972   -9.8413  -15.9614 C   0  0  0  0  0  0  0  0  0  0  0  0
   20.5248   -8.8932  -15.4473 C   0  0  2  0  0  0  0  0  0  0  0  0
   19.2370   -9.1898  -16.0128 N   0  0  0  0  0  0  0  0  0  0  0  0
   20.9456   -7.5481  -15.8775 C   0  0  0  0  0  0  0  0  0  0  0  0
   21.1549   -7.2881  -17.0677 O   0  0  0  0  0  0  0  0  0  0  0  0
   27.5721  -10.2426  -14.6690 N   0  0  0  0  0  0  0  0  0  0  0  0
   21.1089   -6.5372  -14.9047 C   0  0  1  0  0  0  0  0  0  0  0  0
   21.4869   -5.1735  -15.2018 C   0  0  0  0  0  0  0  0  0  0  0  0
   20.2590   -4.2533  -15.1998 S   0  0  0  0  0  0  0  0  0  0  0  0
   19.1013   -4.8224  -16.5117 C   0  0  0  0  0  0  0  0  0  0  0  0
   22.4107   -4.6838  -14.1768 O   0  0  0  0  0  0  0  0  0  0  0  0
   22.9671   -3.4302  -14.3275 O   0  0  0  0  0  0  0  0  0  0  0  0
  2  4  1  0
  2  1  1  1
  3  2  1  0
  4  6  1  0
  4  5  1  1
  6 16  1  0
  7  6  2  0
  9  8  1  0
 10  9  2  0
 11  9  1  0
 12 11  1  0
 13 12  1  0
 14 13  1  0
 15 17  1  0
 15 14  1  6
 16 15  1  0
 17 19  1  0
 18 17  2  0
 19 20  1  0
 20 23  1  0
 21 22  1  0
 20 21  1  1
 23 25  2  0
 23 24  1  0
M  END
$$$$
