TRC.pdb
     RDKit          3D

 25 24  0  0  1  0  0  0  0  0999 V2000
   32.2398  -21.1488   -9.6395 C   0  0  0  0  0  0  0  0  0  0  0  0
   30.9993  -20.8767  -10.4769 C   0  0  1  0  0  0  0  0  0  0  0  0
   31.2898  -20.2689  -11.6754 O   0  0  0  0  0  0  0  0  0  0  0  0
   30.0757  -22.0500  -10.5520 C   0  0  2  0  0  0  0  0  0  0  0  0
   30.8232  -23.1549  -11.1188 N   0  0  0  0  0  0  0  0  0  0  0  0
   28.7886  -21.7977  -11.2327 C   0  0  0  0  0  0  0  0  0  0  0  0
   28.7060  -22.1866  -12.4270 O   0  0  0  0  0  0  0  0  0  0  0  0
   21.4314  -21.6740  -10.7874 N   0  0  0  0  0  0  0  0  0  0  0  0
   21.4439  -21.8234   -9.3735 C   0  0  0  0  0  0  0  0  0  0  0  0
   20.5733  -22.6166   -8.7880 N   0  0  0  0  0  0  0  0  0  0  0  0
   22.3450  -21.1362   -8.5339 N   0  0  0  0  0  0  0  0  0  0  0  0
   23.4565  -20.3531   -8.9930 C   0  0  0  0  0  0  0  0  0  0  0  0
   24.3464  -21.0614   -9.9980 C   0  0  0  0  0  0  0  0  0  0  0  0
   25.4903  -20.1365  -10.3132 C   0  0  0  0  0  0  0  0  0  0  0  0
   26.4690  -20.7156  -11.3232 C   0  0  2  0  0  0  0  0  0  0  0  0
   27.6761  -21.1743  -10.6917 N   0  0  0  0  0  0  0  0  0  0  0  0
   26.7919  -19.6094  -12.2416 C   0  0  0  0  0  0  0  0  0  0  0  0
   27.5679  -18.7049  -11.9135 O   0  0  0  0  0  0  0  0  0  0  0  0
   20.5892  -22.6665   -7.7316 N   0  0  0  0  0  0  0  0  0  0  0  0
   26.2013  -19.5891  -13.5244 C   0  0  2  0  0  0  0  0  0  0  0  0
   26.5591  -18.6586  -14.5718 C   0  0  0  0  0  0  0  0  0  0  0  0
   28.0247  -18.8415  -14.9880 S   0  0  0  0  0  0  0  0  0  0  0  0
   28.3620  -17.7504  -16.4306 C   0  0  0  0  0  0  0  0  0  0  0  0
   25.7282  -18.9025  -15.7525 O   0  0  0  0  0  0  0  0  0  0  0  0
   25.5650  -17.8867  -16.6720 O   0  0  0  0  0  0  0  0  0  0  0  0
  2  4  1  0
  2  1  1  6
  3  2  1  0
  4  6  1  0
  4  5  1  6
  6 16  1  0
  7  6  2  0
  9  8  1  0
 10  9  2  0
 11  9  1  0
 12 11  1  0
 13 12  1  0
 14 13  1  0
 15 17  1  0
 15 14  1  1
 16 15  1  0
 17 19  1  0
 18 17  2  0
 19 20  1  0
 20 23  1  0
 21 22  1  0
 20 21  1  6
 23 25  2  0
 23 24  1  0
M  END
$$$$
