PQV.pdb
     RDKit          3D

 24 24  0  0  1  0  0  0  0  0999 V2000
    8.8624  -14.7864   19.0201 N   0  0  0  0  0  0  0  0  0  0  0  0
    9.0403  -14.0733   17.7547 C   0  0  0  0  0  0  0  0  0  0  0  0
    8.0405  -12.9607   17.7533 C   0  0  0  0  0  0  0  0  0  0  0  0
    7.3695  -13.0634   19.1046 C   0  0  0  0  0  0  0  0  0  0  0  0
    8.4692  -13.7103   19.9142 C   0  0  1  0  0  0  0  0  0  0  0  0
    8.0321  -14.2122   21.2316 C   0  0  0  0  0  0  0  0  0  0  0  0
    7.3883  -13.5124   22.0240 O   0  0  0  0  0  0  0  0  0  0  0  0
    8.5024  -20.3865   23.1155 N   0  0  0  0  0  0  0  0  0  0  0  0
    8.4262  -19.7538   21.8472 C   0  0  0  0  0  0  0  0  0  0  0  0
    8.7744  -20.3892   20.8327 O   0  0  0  0  0  0  0  0  0  0  0  0
    7.9244  -18.3265   21.7687 C   0  0  0  0  0  0  0  0  0  0  0  0
    8.4004  -17.5563   22.9678 C   0  0  0  0  0  0  0  0  0  0  0  0
    7.9521  -16.1239   22.8651 C   0  0  2  0  0  0  0  0  0  0  0  0
    8.3694  -15.5494   21.5879 N   0  0  0  0  0  0  0  0  0  0  0  0
    8.3985  -15.2431   23.9404 C   0  0  0  0  0  0  0  0  0  0  0  0
    9.5719  -14.7406   23.9881 O   0  0  0  0  0  0  0  0  0  0  0  0
    6.0373  -12.5109   25.4331 C   0  0  0  0  0  0  0  0  0  0  0  0
    6.7506  -13.2301   26.5838 C   0  0  2  0  0  0  0  0  0  0  0  0
    7.1029  -12.2147   27.6385 C   0  0  0  0  0  0  0  0  0  0  0  0
    7.9734  -13.9477   26.0358 C   0  0  2  0  0  0  0  0  0  0  0  0
    7.5532  -14.8834   25.0070 N   0  0  0  0  0  0  0  0  0  0  0  0
    8.6499  -14.6176   27.1595 C   0  0  0  0  0  0  0  0  0  0  0  0
    8.3531  -15.8475   27.3800 O   0  0  0  0  0  0  0  0  0  0  0  0
    9.5714  -14.0678   28.0055 O   0  0  0  0  0  0  0  0  0  0  0  0
  1  5  1  0
  1  2  1  0
  2  3  1  0
  4  3  1  0
  5  4  1  0
  5  6  1  1
  6  7  2  0
  9  8  1  0
  9 11  1  0
 10  9  2  0
 12 11  1  0
 13 14  1  0
 13 12  1  1
 14  6  1  0
 15 13  1  0
 16 15  2  0
 18 17  1  6
 18 20  1  0
 19 18  1  0
 20 22  1  0
 20 21  1  6
 21 15  1  0
 22 24  1  0
 23 22  2  0
M  END
$$$$
