PQV.pdb
     RDKit          3D

 24 24  0  0  1  0  0  0  0  0999 V2000
    8.3198  -15.2272   19.2261 N   0  0  0  0  0  0  0  0  0  0  0  0
    8.5271  -14.6700   17.8890 C   0  0  0  0  0  0  0  0  0  0  0  0
    7.7469  -13.3948   17.8379 C   0  0  0  0  0  0  0  0  0  0  0  0
    7.1726  -13.2553   19.2299 C   0  0  0  0  0  0  0  0  0  0  0  0
    8.1958  -14.0247   20.0326 C   0  0  1  0  0  0  0  0  0  0  0  0
    7.7764  -14.3225   21.4160 C   0  0  0  0  0  0  0  0  0  0  0  0
    7.4711  -13.4317   22.2193 O   0  0  0  0  0  0  0  0  0  0  0  0
    7.2808  -20.2359   23.7640 N   0  0  0  0  0  0  0  0  0  0  0  0
    6.7394  -19.4459   24.8117 C   0  0  0  0  0  0  0  0  0  0  0  0
    6.3016  -20.0127   25.8320 O   0  0  0  0  0  0  0  0  0  0  0  0
    6.7114  -17.9393   24.6545 C   0  0  0  0  0  0  0  0  0  0  0  0
    7.2060  -17.5641   23.2863 C   0  0  0  0  0  0  0  0  0  0  0  0
    7.2058  -16.0672   23.1364 C   0  0  2  0  0  0  0  0  0  0  0  0
    7.7254  -15.6860   21.8249 N   0  0  0  0  0  0  0  0  0  0  0  0
    7.9390  -15.3292   24.1607 C   0  0  0  0  0  0  0  0  0  0  0  0
    9.2141  -15.3222   24.2365 O   0  0  0  0  0  0  0  0  0  0  0  0
    6.4316  -11.9237   25.4701 C   0  0  0  0  0  0  0  0  0  0  0  0
    7.0786  -12.6733   26.6405 C   0  0  2  0  0  0  0  0  0  0  0  0
    7.7959  -11.6755   27.5107 C   0  0  0  0  0  0  0  0  0  0  0  0
    8.0105  -13.7403   26.0894 C   0  0  2  0  0  0  0  0  0  0  0  0
    7.2801  -14.5652   25.1425 N   0  0  0  0  0  0  0  0  0  0  0  0
    8.5325  -14.5195   27.2249 C   0  0  0  0  0  0  0  0  0  0  0  0
    7.8797  -15.5700   27.5710 O   0  0  0  0  0  0  0  0  0  0  0  0
    9.6501  -14.2448   27.9614 O   0  0  0  0  0  0  0  0  0  0  0  0
  1  5  1  0
  1  2  1  0
  2  3  1  0
  4  3  1  0
  5  4  1  0
  5  6  1  1
  6  7  2  0
  9  8  1  0
  9 11  1  0
 10  9  2  0
 12 11  1  0
 13 14  1  0
 13 12  1  1
 14  6  1  0
 15 13  1  0
 16 15  2  0
 18 17  1  6
 18 20  1  0
 19 18  1  0
 20 22  1  0
 20 21  1  6
 21 15  1  0
 22 24  1  0
 23 22  2  0
M  END
$$$$
