PQV.pdb
     RDKit          3D

 24 24  0  0  1  0  0  0  0  0999 V2000
    8.2935  -15.3029   19.2890 N   0  0  0  0  0  0  0  0  0  0  0  0
    8.5929  -14.7494   17.9679 C   0  0  0  0  0  0  0  0  0  0  0  0
    7.9001  -13.4255   17.8985 C   0  0  0  0  0  0  0  0  0  0  0  0
    7.2777  -13.2603   19.2668 C   0  0  0  0  0  0  0  0  0  0  0  0
    8.2139  -14.1016   20.1028 C   0  0  1  0  0  0  0  0  0  0  0  0
    7.7179  -14.3829   21.4642 C   0  0  0  0  0  0  0  0  0  0  0  0
    7.4246  -13.4806   22.2593 O   0  0  0  0  0  0  0  0  0  0  0  0
    7.1552  -20.2553   23.8904 N   0  0  0  0  0  0  0  0  0  0  0  0
    6.6692  -19.4422   24.9475 C   0  0  0  0  0  0  0  0  0  0  0  0
    6.3129  -19.9840   26.0123 O   0  0  0  0  0  0  0  0  0  0  0  0
    6.5993  -17.9422   24.7463 C   0  0  0  0  0  0  0  0  0  0  0  0
    7.0955  -17.5927   23.3718 C   0  0  0  0  0  0  0  0  0  0  0  0
    7.0653  -16.1004   23.1827 C   0  0  2  0  0  0  0  0  0  0  0  0
    7.5767  -15.7435   21.8612 N   0  0  0  0  0  0  0  0  0  0  0  0
    7.7840  -15.3213   24.1866 C   0  0  0  0  0  0  0  0  0  0  0  0
    9.0581  -15.2373   24.2231 O   0  0  0  0  0  0  0  0  0  0  0  0
    5.9986  -12.1297   25.8780 C   0  0  0  0  0  0  0  0  0  0  0  0
    6.8316  -12.9095   26.9018 C   0  0  2  0  0  0  0  0  0  0  0  0
    7.5061  -11.9251   27.8203 C   0  0  0  0  0  0  0  0  0  0  0  0
    7.8257  -13.7902   26.1624 C   0  0  2  0  0  0  0  0  0  0  0  0
    7.1110  -14.6004   25.1911 N   0  0  0  0  0  0  0  0  0  0  0  0
    8.5379  -14.6085   27.1585 C   0  0  0  0  0  0  0  0  0  0  0  0
    8.0376  -15.7552   27.4486 O   0  0  0  0  0  0  0  0  0  0  0  0
    9.6884  -14.2782   27.8175 O   0  0  0  0  0  0  0  0  0  0  0  0
  1  5  1  0
  1  2  1  0
  2  3  1  0
  4  3  1  0
  5  4  1  0
  5  6  1  1
  6  7  2  0
  9  8  1  0
  9 11  1  0
 10  9  2  0
 12 11  1  0
 13 14  1  0
 13 12  1  1
 14  6  1  0
 15 13  1  0
 16 15  2  0
 18 17  1  6
 18 20  1  0
 19 18  1  0
 20 22  1  0
 20 21  1  6
 21 15  1  0
 22 24  1  0
 23 22  2  0
M  END
$$$$
