PQV.pdb
     RDKit          3D

 24 24  0  0  1  0  0  0  0  0999 V2000
    8.3058  -15.4932   19.3025 N   0  0  0  0  0  0  0  0  0  0  0  0
    8.6317  -14.9815   17.9709 C   0  0  0  0  0  0  0  0  0  0  0  0
    7.9722  -13.6435   17.8602 C   0  0  0  0  0  0  0  0  0  0  0  0
    7.3405  -13.4279   19.2171 C   0  0  0  0  0  0  0  0  0  0  0  0
    8.2476  -14.2696   20.0844 C   0  0  1  0  0  0  0  0  0  0  0  0
    7.7313  -14.5034   21.4472 C   0  0  0  0  0  0  0  0  0  0  0  0
    7.3628  -13.5774   22.1812 O   0  0  0  0  0  0  0  0  0  0  0  0
    7.6756  -20.0914   24.3674 N   0  0  0  0  0  0  0  0  0  0  0  0
    6.7551  -19.3620   25.1646 C   0  0  0  0  0  0  0  0  0  0  0  0
    6.3029  -19.8881   26.2003 O   0  0  0  0  0  0  0  0  0  0  0  0
    6.3523  -17.9678   24.7294 C   0  0  0  0  0  0  0  0  0  0  0  0
    6.9718  -17.6551   23.3967 C   0  0  0  0  0  0  0  0  0  0  0  0
    7.0704  -16.1647   23.2171 C   0  0  2  0  0  0  0  0  0  0  0  0
    7.6602  -15.8456   21.9187 N   0  0  0  0  0  0  0  0  0  0  0  0
    7.8105  -15.4507   24.2533 C   0  0  0  0  0  0  0  0  0  0  0  0
    9.0776  -15.2924   24.2215 O   0  0  0  0  0  0  0  0  0  0  0  0
    5.9507  -12.4082   26.0377 C   0  0  0  0  0  0  0  0  0  0  0  0
    6.8340  -13.1605   27.0398 C   0  0  2  0  0  0  0  0  0  0  0  0
    7.4719  -12.1571   27.9638 C   0  0  0  0  0  0  0  0  0  0  0  0
    7.8597  -13.9816   26.2754 C   0  0  2  0  0  0  0  0  0  0  0  0
    7.1673  -14.8804   25.3681 N   0  0  0  0  0  0  0  0  0  0  0  0
    8.6871  -14.7041   27.2565 C   0  0  0  0  0  0  0  0  0  0  0  0
    8.3117  -15.8860   27.5904 O   0  0  0  0  0  0  0  0  0  0  0  0
    9.8261  -14.2498   27.8594 O   0  0  0  0  0  0  0  0  0  0  0  0
  1  5  1  0
  1  2  1  0
  2  3  1  0
  4  3  1  0
  5  4  1  0
  5  6  1  1
  6  7  2  0
  9  8  1  0
  9 11  1  0
 10  9  2  0
 12 11  1  0
 13 14  1  0
 13 12  1  1
 14  6  1  0
 15 13  1  0
 16 15  2  0
 18 17  1  6
 18 20  1  0
 19 18  1  0
 20 22  1  0
 20 21  1  6
 21 15  1  0
 22 24  1  0
 23 22  2  0
M  END
$$$$
