PQV.pdb
     RDKit          3D

 24 24  0  0  1  0  0  0  0  0999 V2000
    8.3262  -15.4232   19.3203 N   0  0  0  0  0  0  0  0  0  0  0  0
    8.6698  -14.9476   17.9797 C   0  0  0  0  0  0  0  0  0  0  0  0
    7.9949  -13.6227   17.8164 C   0  0  0  0  0  0  0  0  0  0  0  0
    7.3356  -13.3748   19.1546 C   0  0  0  0  0  0  0  0  0  0  0  0
    8.2375  -14.1774   20.0633 C   0  0  1  0  0  0  0  0  0  0  0  0
    7.6994  -14.3769   21.4231 C   0  0  0  0  0  0  0  0  0  0  0  0
    7.3447  -13.4307   22.1379 O   0  0  0  0  0  0  0  0  0  0  0  0
    6.8032  -20.1777   23.5857 N   0  0  0  0  0  0  0  0  0  0  0  0
    5.9872  -19.5723   22.5946 C   0  0  0  0  0  0  0  0  0  0  0  0
    5.2706  -20.2966   21.8762 O   0  0  0  0  0  0  0  0  0  0  0  0
    6.0146  -18.0652   22.4424 C   0  0  0  0  0  0  0  0  0  0  0  0
    6.9390  -17.4702   23.4666 C   0  0  0  0  0  0  0  0  0  0  0  0
    7.0569  -15.9866   23.2467 C   0  0  2  0  0  0  0  0  0  0  0  0
    7.5900  -15.7093   21.9147 N   0  0  0  0  0  0  0  0  0  0  0  0
    7.8588  -15.2636   24.2294 C   0  0  0  0  0  0  0  0  0  0  0  0
    9.1360  -15.2513   24.2139 O   0  0  0  0  0  0  0  0  0  0  0  0
    6.5454  -11.8686   25.6295 C   0  0  0  0  0  0  0  0  0  0  0  0
    7.2110  -12.6302   26.7816 C   0  0  2  0  0  0  0  0  0  0  0  0
    8.0133  -11.6543   27.6009 C   0  0  0  0  0  0  0  0  0  0  0  0
    8.0661  -13.7477   26.2064 C   0  0  2  0  0  0  0  0  0  0  0  0
    7.2690  -14.5211   25.2699 N   0  0  0  0  0  0  0  0  0  0  0  0
    8.5622  -14.5642   27.3273 C   0  0  0  0  0  0  0  0  0  0  0  0
    7.8450  -15.5649   27.6927 O   0  0  0  0  0  0  0  0  0  0  0  0
    9.7174  -14.3724   28.0314 O   0  0  0  0  0  0  0  0  0  0  0  0
  1  5  1  0
  1  2  1  0
  2  3  1  0
  4  3  1  0
  5  4  1  0
  5  6  1  1
  6  7  2  0
  9  8  1  0
  9 11  1  0
 10  9  2  0
 12 11  1  0
 13 14  1  0
 13 12  1  1
 14  6  1  0
 15 13  1  0
 16 15  2  0
 18 17  1  6
 18 20  1  0
 19 18  1  0
 20 22  1  0
 20 21  1  6
 21 15  1  0
 22 24  1  0
 23 22  2  0
M  END
$$$$
