PQV.pdb
     RDKit          3D

 24 24  0  0  1  0  0  0  0  0999 V2000
    8.3291  -15.3531   19.3020 N   0  0  0  0  0  0  0  0  0  0  0  0
    8.5952  -14.8108   17.9691 C   0  0  0  0  0  0  0  0  0  0  0  0
    7.9133  -13.4808   17.9111 C   0  0  0  0  0  0  0  0  0  0  0  0
    7.3325  -13.3010   19.2957 C   0  0  0  0  0  0  0  0  0  0  0  0
    8.2846  -14.1459   20.1098 C   0  0  1  0  0  0  0  0  0  0  0  0
    7.8256  -14.4138   21.4868 C   0  0  0  0  0  0  0  0  0  0  0  0
    7.5635  -13.5037   22.2839 O   0  0  0  0  0  0  0  0  0  0  0  0
    5.9425  -20.2529   23.9481 N   0  0  0  0  0  0  0  0  0  0  0  0
    6.5657  -19.4490   24.9382 C   0  0  0  0  0  0  0  0  0  0  0  0
    7.0793  -20.0018   25.9305 O   0  0  0  0  0  0  0  0  0  0  0  0
    6.5853  -17.9451   24.7560 C   0  0  0  0  0  0  0  0  0  0  0  0
    7.1049  -17.6082   23.3870 C   0  0  0  0  0  0  0  0  0  0  0  0
    7.1202  -16.1155   23.2003 C   0  0  2  0  0  0  0  0  0  0  0  0
    7.6838  -15.7704   21.8969 N   0  0  0  0  0  0  0  0  0  0  0  0
    7.8258  -15.3569   24.2288 C   0  0  0  0  0  0  0  0  0  0  0  0
    9.0986  -15.2578   24.2720 O   0  0  0  0  0  0  0  0  0  0  0  0
    6.1390  -12.1207   25.8349 C   0  0  0  0  0  0  0  0  0  0  0  0
    6.8561  -12.9380   26.9156 C   0  0  2  0  0  0  0  0  0  0  0  0
    7.5268  -11.9860   27.8703 C   0  0  0  0  0  0  0  0  0  0  0  0
    7.8420  -13.8829   26.2479 C   0  0  2  0  0  0  0  0  0  0  0  0
    7.1407  -14.6740   25.2515 N   0  0  0  0  0  0  0  0  0  0  0  0
    8.4542  -14.7172   27.2959 C   0  0  0  0  0  0  0  0  0  0  0  0
    7.8782  -15.8300   27.5775 O   0  0  0  0  0  0  0  0  0  0  0  0
    9.5831  -14.4345   28.0120 O   0  0  0  0  0  0  0  0  0  0  0  0
  1  5  1  0
  1  2  1  0
  2  3  1  0
  4  3  1  0
  5  4  1  0
  5  6  1  1
  6  7  2  0
  9  8  1  0
  9 11  1  0
 10  9  2  0
 12 11  1  0
 13 14  1  0
 13 12  1  1
 14  6  1  0
 15 13  1  0
 16 15  2  0
 18 17  1  6
 18 20  1  0
 19 18  1  0
 20 22  1  0
 20 21  1  6
 21 15  1  0
 22 24  1  0
 23 22  2  0
M  END
$$$$
