PQV.pdb
     RDKit          3D

 24 24  0  0  1  0  0  0  0  0999 V2000
    7.3958  -15.1554   18.7877 N   0  0  0  0  0  0  0  0  0  0  0  0
    8.0982  -14.5023   17.6825 C   0  0  0  0  0  0  0  0  0  0  0  0
    8.4717  -13.1376   18.1680 C   0  0  0  0  0  0  0  0  0  0  0  0
    8.0042  -13.1146   19.6059 C   0  0  0  0  0  0  0  0  0  0  0  0
    8.0675  -14.5861   19.9437 C   0  0  1  0  0  0  0  0  0  0  0  0
    7.3971  -14.9431   21.2093 C   0  0  0  0  0  0  0  0  0  0  0  0
    6.1792  -14.7972   21.3750 O   0  0  0  0  0  0  0  0  0  0  0  0
    7.6534  -19.9228   24.4038 N   0  0  0  0  0  0  0  0  0  0  0  0
    7.1032  -19.0788   25.4036 C   0  0  0  0  0  0  0  0  0  0  0  0
    6.6434  -19.5922   26.4424 O   0  0  0  0  0  0  0  0  0  0  0  0
    7.0928  -17.5812   25.1745 C   0  0  0  0  0  0  0  0  0  0  0  0
    7.6754  -17.2719   23.8246 C   0  0  0  0  0  0  0  0  0  0  0  0
    7.6111  -15.7908   23.5683 C   0  0  2  0  0  0  0  0  0  0  0  0
    8.1922  -15.4730   22.2657 N   0  0  0  0  0  0  0  0  0  0  0  0
    8.2418  -14.9465   24.5785 C   0  0  0  0  0  0  0  0  0  0  0  0
    9.5084  -14.8364   24.7031 O   0  0  0  0  0  0  0  0  0  0  0  0
    5.8373  -12.8274   27.3364 C   0  0  0  0  0  0  0  0  0  0  0  0
    7.1475  -12.2047   26.8405 C   0  0  2  0  0  0  0  0  0  0  0  0
    6.8379  -11.3001   25.6772 C   0  0  0  0  0  0  0  0  0  0  0  0
    8.1147  -13.3175   26.4705 C   0  0  2  0  0  0  0  0  0  0  0  0
    7.4857  -14.1867   25.4910 N   0  0  0  0  0  0  0  0  0  0  0  0
    8.4772  -14.0347   27.7048 C   0  0  0  0  0  0  0  0  0  0  0  0
    7.9406  -15.1852   27.8994 O   0  0  0  0  0  0  0  0  0  0  0  0
    9.3333  -13.6056   28.6795 O   0  0  0  0  0  0  0  0  0  0  0  0
  1  5  1  0
  1  2  1  0
  2  3  1  0
  4  3  1  0
  5  4  1  0
  5  6  1  1
  6  7  2  0
  9  8  1  0
  9 11  1  0
 10  9  2  0
 12 11  1  0
 13 14  1  0
 13 12  1  1
 14  6  1  0
 15 13  1  0
 16 15  2  0
 18 17  1  6
 18 20  1  0
 19 18  1  0
 20 22  1  0
 20 21  1  6
 21 15  1  0
 22 24  1  0
 23 22  2  0
M  END
$$$$
