PQV.pdb
     RDKit          3D

 24 24  0  0  1  0  0  0  0  0999 V2000
    8.7701  -15.1138   19.2666 N   0  0  0  0  0  0  0  0  0  0  0  0
    9.0563  -14.5063   17.9664 C   0  0  0  0  0  0  0  0  0  0  0  0
    8.1394  -13.3313   17.8388 C   0  0  0  0  0  0  0  0  0  0  0  0
    7.4014  -13.2918   19.1582 C   0  0  0  0  0  0  0  0  0  0  0  0
    8.4140  -13.9525   20.0645 C   0  0  1  0  0  0  0  0  0  0  0  0
    7.8822  -14.3286   21.3890 C   0  0  0  0  0  0  0  0  0  0  0  0
    7.2736  -13.5257   22.1080 O   0  0  0  0  0  0  0  0  0  0  0  0
    4.3771  -18.7529   22.0800 N   0  0  0  0  0  0  0  0  0  0  0  0
    5.4982  -18.5547   22.9278 C   0  0  0  0  0  0  0  0  0  0  0  0
    5.3331  -18.5745   24.1632 O   0  0  0  0  0  0  0  0  0  0  0  0
    6.8589  -18.3252   22.3023 C   0  0  0  0  0  0  0  0  0  0  0  0
    7.7477  -17.6037   23.2754 C   0  0  0  0  0  0  0  0  0  0  0  0
    7.5643  -16.1177   23.1289 C   0  0  2  0  0  0  0  0  0  0  0  0
    8.0836  -15.6644   21.8403 N   0  0  0  0  0  0  0  0  0  0  0  0
    8.1568  -15.3006   24.1836 C   0  0  0  0  0  0  0  0  0  0  0  0
    9.4053  -15.0367   24.2429 O   0  0  0  0  0  0  0  0  0  0  0  0
    6.1330  -12.2687   25.7461 C   0  0  0  0  0  0  0  0  0  0  0  0
    6.8630  -13.0350   26.8551 C   0  0  2  0  0  0  0  0  0  0  0  0
    7.3962  -12.0415   27.8532 C   0  0  0  0  0  0  0  0  0  0  0  0
    7.9622  -13.8795   26.2312 C   0  0  2  0  0  0  0  0  0  0  0  0
    7.3806  -14.7406   25.2159 N   0  0  0  0  0  0  0  0  0  0  0  0
    8.6151  -14.6443   27.3072 C   0  0  0  0  0  0  0  0  0  0  0  0
    8.1774  -15.8291   27.5400 O   0  0  0  0  0  0  0  0  0  0  0  0
    9.6495  -14.2272   28.0966 O   0  0  0  0  0  0  0  0  0  0  0  0
  1  5  1  0
  1  2  1  0
  2  3  1  0
  4  3  1  0
  5  4  1  0
  5  6  1  1
  6  7  2  0
  9  8  1  0
  9 11  1  0
 10  9  2  0
 12 11  1  0
 13 14  1  0
 13 12  1  1
 14  6  1  0
 15 13  1  0
 16 15  2  0
 18 17  1  6
 18 20  1  0
 19 18  1  0
 20 22  1  0
 20 21  1  6
 21 15  1  0
 22 24  1  0
 23 22  2  0
M  END
$$$$
