PQV.pdb
     RDKit          3D

 24 24  0  0  1  0  0  0  0  0999 V2000
    8.0418  -15.0073   18.9921 N   0  0  0  0  0  0  0  0  0  0  0  0
    8.3876  -14.2828   17.7686 C   0  0  0  0  0  0  0  0  0  0  0  0
    7.9947  -12.8577   17.9970 C   0  0  0  0  0  0  0  0  0  0  0  0
    7.4915  -12.8356   19.4229 C   0  0  0  0  0  0  0  0  0  0  0  0
    8.2642  -13.9940   20.0097 C   0  0  1  0  0  0  0  0  0  0  0  0
    7.7874  -14.4248   21.3385 C   0  0  0  0  0  0  0  0  0  0  0  0
    6.8237  -13.8880   21.8998 O   0  0  0  0  0  0  0  0  0  0  0  0
    6.2510  -19.2277   23.3315 N   0  0  0  0  0  0  0  0  0  0  0  0
    6.7124  -18.8704   24.6255 C   0  0  0  0  0  0  0  0  0  0  0  0
    6.1017  -19.2981   25.6246 O   0  0  0  0  0  0  0  0  0  0  0  0
    7.9322  -17.9805   24.7491 C   0  0  0  0  0  0  0  0  0  0  0  0
    8.3329  -17.4798   23.3903 C   0  0  0  0  0  0  0  0  0  0  0  0
    8.0246  -16.0117   23.2762 C   0  0  2  0  0  0  0  0  0  0  0  0
    8.4694  -15.4963   21.9832 N   0  0  0  0  0  0  0  0  0  0  0  0
    8.5770  -15.1660   24.3301 C   0  0  0  0  0  0  0  0  0  0  0  0
    9.8308  -14.9840   24.4925 O   0  0  0  0  0  0  0  0  0  0  0  0
    5.9896  -13.1750   27.0698 C   0  0  0  0  0  0  0  0  0  0  0  0
    7.3411  -12.5711   26.6714 C   0  0  2  0  0  0  0  0  0  0  0  0
    7.1241  -11.6325   25.5140 C   0  0  0  0  0  0  0  0  0  0  0  0
    8.3055  -13.6967   26.3344 C   0  0  2  0  0  0  0  0  0  0  0  0
    7.7531  -14.4848   25.2461 N   0  0  0  0  0  0  0  0  0  0  0  0
    8.5165  -14.4957   27.5535 C   0  0  0  0  0  0  0  0  0  0  0  0
    7.9458  -15.6446   27.6136 O   0  0  0  0  0  0  0  0  0  0  0  0
    9.2629  -14.1451   28.6431 O   0  0  0  0  0  0  0  0  0  0  0  0
  1  5  1  0
  1  2  1  0
  2  3  1  0
  4  3  1  0
  5  4  1  0
  5  6  1  1
  6  7  2  0
  9  8  1  0
  9 11  1  0
 10  9  2  0
 12 11  1  0
 13 14  1  0
 13 12  1  1
 14  6  1  0
 15 13  1  0
 16 15  2  0
 18 17  1  6
 18 20  1  0
 19 18  1  0
 20 22  1  0
 20 21  1  6
 21 15  1  0
 22 24  1  0
 23 22  2  0
M  END
$$$$
