SDE.pdb
     RDKit          3D

 24 23  0  0  1  0  0  0  0  0999 V2000
   14.5580  -10.0939  -15.6933 O   0  0  0  0  0  0  0  0  0  0  0  0
   15.0884  -10.9419  -16.6649 C   0  0  0  0  0  0  0  0  0  0  0  0
   16.1528  -11.8531  -16.0821 C   0  0  2  0  0  0  0  0  0  0  0  0
   15.5691  -12.6944  -15.0464 N   0  0  0  0  0  0  0  0  0  0  0  0
   17.3060  -11.1085  -15.5406 C   0  0  0  0  0  0  0  0  0  0  0  0
   17.2556  -10.7105  -14.3158 O   0  0  0  0  0  0  0  0  0  0  0  0
   18.4683  -10.7992  -16.2694 N   0  0  0  0  0  0  0  0  0  0  0  0
   19.5787  -10.0413  -15.6752 C   0  0  1  0  0  0  0  0  0  0  0  0
   20.8313  -10.7530  -16.0976 C   0  0  0  0  0  0  0  0  0  0  0  0
   22.0818  -10.2420  -15.5695 C   0  0  0  0  0  0  0  0  0  0  0  0
   22.1360   -9.3118  -14.7441 O   0  0  0  0  0  0  0  0  0  0  0  0
   19.5164   -8.6350  -16.1185 C   0  0  0  0  0  0  0  0  0  0  0  0
   19.2567   -8.3384  -17.2973 O   0  0  0  0  0  0  0  0  0  0  0  0
   23.3351  -10.7623  -15.9533 O   0  0  0  0  0  0  0  0  0  0  0  0
   19.7454   -7.5230  -15.2363 N   0  0  0  0  0  0  0  0  0  0  0  0
   19.6552   -6.1610  -15.7225 C   0  0  1  0  0  0  0  0  0  0  0  0
   18.2843   -5.5699  -15.3988 C   0  0  0  0  0  0  0  0  0  0  0  0
   18.1638   -4.1619  -15.9586 C   0  0  0  0  0  0  0  0  0  0  0  0
   16.8061   -3.6260  -15.7830 C   0  0  0  0  0  0  0  0  0  0  0  0
   15.9105   -4.1910  -15.1109 O   0  0  0  0  0  0  0  0  0  0  0  0
   20.7462   -5.2876  -15.2596 C   0  0  0  0  0  0  0  0  0  0  0  0
   20.9156   -4.1087  -15.6895 O   0  0  0  0  0  0  0  0  0  0  0  0
   16.4804   -2.4209  -16.3923 O   0  0  0  0  0  0  0  0  0  0  0  0
   21.6198   -5.7923  -14.3074 O   0  0  0  0  0  0  0  0  0  0  0  0
  2  1  1  0
  2  3  1  0
  3  4  1  1
  5  3  1  0
  5  6  2  0
  7  5  1  0
  8  7  1  0
  8 12  1  0
  8  9  1  6
 10 11  2  0
 10  9  1  0
 12 15  1  0
 13 12  2  0
 14 10  1  0
 15 16  1  0
 16 21  1  0
 16 17  1  1
 18 17  1  0
 19 18  1  0
 19 20  2  0
 21 22  2  0
 21 24  1  0
 23 19  1  0
M  END
$$$$
