SDE.pdb
     RDKit          3D

 24 23  0  0  1  0  0  0  0  0999 V2000
   16.5601  -13.0450  -11.1228 O   0  0  0  0  0  0  0  0  0  0  0  0
   16.4581  -11.6634  -11.2815 C   0  0  0  0  0  0  0  0  0  0  0  0
   15.3203  -11.0943  -10.4542 C   0  0  2  0  0  0  0  0  0  0  0  0
   14.0547  -11.6607  -10.8999 N   0  0  0  0  0  0  0  0  0  0  0  0
   15.2618   -9.6207  -10.5033 C   0  0  0  0  0  0  0  0  0  0  0  0
   14.6533   -9.0661  -11.4949 O   0  0  0  0  0  0  0  0  0  0  0  0
   15.8257   -8.7681   -9.5374 N   0  0  0  0  0  0  0  0  0  0  0  0
   15.7247   -7.3052   -9.6391 C   0  0  1  0  0  0  0  0  0  0  0  0
   15.2990   -6.8296   -8.2803 C   0  0  0  0  0  0  0  0  0  0  0  0
   15.0855   -5.4034   -8.1255 C   0  0  0  0  0  0  0  0  0  0  0  0
   15.2587   -4.5904   -9.0521 O   0  0  0  0  0  0  0  0  0  0  0  0
   17.0150   -6.7460  -10.0869 C   0  0  0  0  0  0  0  0  0  0  0  0
   18.0925   -7.1398   -9.6084 O   0  0  0  0  0  0  0  0  0  0  0  0
   14.6645   -4.8281   -6.9086 O   0  0  0  0  0  0  0  0  0  0  0  0
   17.1209   -5.7239  -11.0926 N   0  0  0  0  0  0  0  0  0  0  0  0
   18.4003   -5.4061  -11.6938 C   0  0  1  0  0  0  0  0  0  0  0  0
   19.0578   -6.6698  -12.2456 C   0  0  0  0  0  0  0  0  0  0  0  0
   20.4461   -6.3597  -12.7811 C   0  0  0  0  0  0  0  0  0  0  0  0
   21.0910   -7.5592  -13.3348 C   0  0  0  0  0  0  0  0  0  0  0  0
   20.6137   -8.7158  -13.2477 O   0  0  0  0  0  0  0  0  0  0  0  0
   18.3361   -4.3404  -12.7075 C   0  0  0  0  0  0  0  0  0  0  0  0
   17.2682   -4.0258  -13.3109 O   0  0  0  0  0  0  0  0  0  0  0  0
   22.3035   -7.4190  -13.9980 O   0  0  0  0  0  0  0  0  0  0  0  0
   19.5066   -3.6572  -13.0036 O   0  0  0  0  0  0  0  0  0  0  0  0
  2  1  1  0
  2  3  1  0
  3  4  1  6
  5  3  1  0
  5  6  2  0
  7  5  1  0
  8  7  1  0
  8 12  1  0
  8  9  1  1
 10 11  2  0
 10  9  1  0
 12 15  1  0
 13 12  2  0
 14 10  1  0
 15 16  1  0
 16 21  1  0
 16 17  1  6
 18 17  1  0
 19 18  1  0
 19 20  2  0
 21 22  2  0
 21 24  1  0
 23 19  1  0
M  END
$$$$
