SDE.pdb
     RDKit          3D

 24 23  0  0  1  0  0  0  0  0999 V2000
   16.4561  -15.1109  -14.6373 O   0  0  0  0  0  0  0  0  0  0  0  0
   16.9436  -13.8213  -14.8460 C   0  0  0  0  0  0  0  0  0  0  0  0
   18.0138  -13.8021  -15.9216 C   0  0  2  0  0  0  0  0  0  0  0  0
   19.1884  -14.5303  -15.4621 N   0  0  0  0  0  0  0  0  0  0  0  0
   18.3912  -12.4339  -16.3254 C   0  0  0  0  0  0  0  0  0  0  0  0
   19.6290  -12.0881  -16.2297 O   0  0  0  0  0  0  0  0  0  0  0  0
   17.4907  -11.4700  -16.8132 N   0  0  0  0  0  0  0  0  0  0  0  0
   17.9508  -10.1952  -17.3824 C   0  0  1  0  0  0  0  0  0  0  0  0
   16.9464   -9.8328  -18.4377 C   0  0  0  0  0  0  0  0  0  0  0  0
   17.1885   -8.6080  -19.1759 C   0  0  0  0  0  0  0  0  0  0  0  0
   18.1512   -7.8556  -18.9379 O   0  0  0  0  0  0  0  0  0  0  0  0
   18.0772   -9.1875  -16.3116 C   0  0  0  0  0  0  0  0  0  0  0  0
   17.2952   -9.1671  -15.3458 O   0  0  0  0  0  0  0  0  0  0  0  0
   16.3480   -8.1754  -20.2224 O   0  0  0  0  0  0  0  0  0  0  0  0
   19.0965   -8.1734  -16.3045 N   0  0  0  0  0  0  0  0  0  0  0  0
   19.2115   -7.2468  -15.1965 C   0  0  1  0  0  0  0  0  0  0  0  0
   20.6589   -6.7848  -15.0369 C   0  0  0  0  0  0  0  0  0  0  0  0
   20.7969   -5.8660  -13.8340 C   0  0  0  0  0  0  0  0  0  0  0  0
   22.1750   -5.3762  -13.6847 C   0  0  0  0  0  0  0  0  0  0  0  0
   22.8130   -5.3948  -12.6050 O   0  0  0  0  0  0  0  0  0  0  0  0
   18.2828   -6.1069  -15.2719 C   0  0  0  0  0  0  0  0  0  0  0  0
   17.5697   -5.7324  -14.2948 O   0  0  0  0  0  0  0  0  0  0  0  0
   22.8236   -4.8588  -14.7988 O   0  0  0  0  0  0  0  0  0  0  0  0
   18.1969   -5.4203  -16.4743 O   0  0  0  0  0  0  0  0  0  0  0  0
  2  1  1  0
  2  3  1  0
  3  4  1  1
  5  3  1  0
  5  6  2  0
  7  5  1  0
  8  7  1  0
  8 12  1  0
  8  9  1  6
 10 11  2  0
 10  9  1  0
 12 15  1  0
 13 12  2  0
 14 10  1  0
 15 16  1  0
 16 21  1  0
 16 17  1  6
 18 17  1  0
 19 18  1  0
 19 20  2  0
 21 22  2  0
 21 24  1  0
 23 19  1  0
M  END
$$$$
