SDE.pdb
     RDKit          3D

 24 23  0  0  1  0  0  0  0  0999 V2000
   28.5502  -18.5374  -17.3606 O   0  0  0  0  0  0  0  0  0  0  0  0
   27.4930  -19.1999  -16.7378 C   0  0  0  0  0  0  0  0  0  0  0  0
   27.9892  -20.3483  -15.8790 C   0  0  2  0  0  0  0  0  0  0  0  0
   28.5019  -21.4143  -16.7287 N   0  0  0  0  0  0  0  0  0  0  0  0
   26.9481  -20.8758  -14.9761 C   0  0  0  0  0  0  0  0  0  0  0  0
   26.2391  -21.8741  -15.3784 O   0  0  0  0  0  0  0  0  0  0  0  0
   26.6705  -20.3652  -13.6955 N   0  0  0  0  0  0  0  0  0  0  0  0
   25.5602  -20.8769  -12.8794 C   0  0  1  0  0  0  0  0  0  0  0  0
   25.9237  -20.5687  -11.4557 C   0  0  0  0  0  0  0  0  0  0  0  0
   24.9817  -20.9892  -10.4361 C   0  0  0  0  0  0  0  0  0  0  0  0
   25.1602  -20.7755   -9.2229 O   0  0  0  0  0  0  0  0  0  0  0  0
   24.2935  -20.2582  -13.3163 C   0  0  0  0  0  0  0  0  0  0  0  0
   24.1461  -19.0241  -13.3292 O   0  0  0  0  0  0  0  0  0  0  0  0
   23.7884  -21.6749  -10.7437 O   0  0  0  0  0  0  0  0  0  0  0  0
   23.1565  -21.0222  -13.7533 N   0  0  0  0  0  0  0  0  0  0  0  0
   21.8975  -20.3708  -14.0532 C   0  0  1  0  0  0  0  0  0  0  0  0
   21.4065  -20.7751  -15.4422 C   0  0  0  0  0  0  0  0  0  0  0  0
   22.4217  -20.3824  -16.5030 C   0  0  0  0  0  0  0  0  0  0  0  0
   21.9231  -20.6637  -17.8571 C   0  0  0  0  0  0  0  0  0  0  0  0
   21.5610  -19.7791  -18.6692 O   0  0  0  0  0  0  0  0  0  0  0  0
   20.8597  -20.5760  -13.0293 C   0  0  0  0  0  0  0  0  0  0  0  0
   20.7636  -21.6389  -12.3479 O   0  0  0  0  0  0  0  0  0  0  0  0
   21.8425  -21.9853  -18.2773 O   0  0  0  0  0  0  0  0  0  0  0  0
   19.9536  -19.5484  -12.8110 O   0  0  0  0  0  0  0  0  0  0  0  0
  2  1  1  0
  2  3  1  0
  3  4  1  6
  5  3  1  0
  5  6  2  0
  7  5  1  0
  8  7  1  0
  8 12  1  0
  8  9  1  1
 10 11  2  0
 10  9  1  0
 12 15  1  0
 13 12  2  0
 14 10  1  0
 15 16  1  0
 16 21  1  0
 16 17  1  6
 18 17  1  0
 19 18  1  0
 19 20  2  0
 21 22  2  0
 21 24  1  0
 23 19  1  0
M  END
$$$$
