SDE.pdb
     RDKit          3D

 24 23  0  0  1  0  0  0  0  0999 V2000
   15.3421  -11.8029  -15.9647 O   0  0  0  0  0  0  0  0  0  0  0  0
   16.5943  -12.1125  -16.4944 C   0  0  0  0  0  0  0  0  0  0  0  0
   17.7104  -11.4929  -15.6739 C   0  0  2  0  0  0  0  0  0  0  0  0
   17.6684  -12.0105  -14.3132 N   0  0  0  0  0  0  0  0  0  0  0  0
   17.6544  -10.0184  -15.6575 C   0  0  0  0  0  0  0  0  0  0  0  0
   17.8381   -9.3877  -16.7664 O   0  0  0  0  0  0  0  0  0  0  0  0
   17.4117   -9.2428  -14.5098 N   0  0  0  0  0  0  0  0  0  0  0  0
   17.2927   -7.7791  -14.5726 C   0  0  1  0  0  0  0  0  0  0  0  0
   16.0838   -7.4319  -13.7529 C   0  0  0  0  0  0  0  0  0  0  0  0
   15.7907   -6.0210  -13.5879 C   0  0  0  0  0  0  0  0  0  0  0  0
   15.3731   -5.5389  -12.5189 O   0  0  0  0  0  0  0  0  0  0  0  0
   18.5391   -7.1559  -14.0864 C   0  0  0  0  0  0  0  0  0  0  0  0
   19.3086   -7.7595  -13.3193 O   0  0  0  0  0  0  0  0  0  0  0  0
   15.9566   -5.0857  -14.6303 O   0  0  0  0  0  0  0  0  0  0  0  0
   18.9501   -5.8291  -14.4579 N   0  0  0  0  0  0  0  0  0  0  0  0
   20.3328   -5.4174  -14.3241 C   0  0  1  0  0  0  0  0  0  0  0  0
   21.2177   -6.2014  -15.2916 C   0  0  0  0  0  0  0  0  0  0  0  0
   22.6653   -5.7526  -15.1751 C   0  0  0  0  0  0  0  0  0  0  0  0
   23.5452   -6.5361  -16.0543 C   0  0  0  0  0  0  0  0  0  0  0  0
   23.3945   -7.7590  -16.2885 O   0  0  0  0  0  0  0  0  0  0  0  0
   20.5394   -3.9656  -14.4542 C   0  0  0  0  0  0  0  0  0  0  0  0
   19.7483   -3.2108  -15.0929 O   0  0  0  0  0  0  0  0  0  0  0  0
   24.6132   -5.8966  -16.6710 O   0  0  0  0  0  0  0  0  0  0  0  0
   21.6551   -3.4130  -13.8424 O   0  0  0  0  0  0  0  0  0  0  0  0
  2  1  1  0
  2  3  1  0
  3  4  1  1
  5  3  1  0
  5  6  2  0
  7  5  1  0
  8  7  1  0
  8 12  1  0
  8  9  1  1
 10 11  2  0
 10  9  1  0
 12 15  1  0
 13 12  2  0
 14 10  1  0
 15 16  1  0
 16 21  1  0
 16 17  1  6
 18 17  1  0
 19 18  1  0
 19 20  2  0
 21 22  2  0
 21 24  1  0
 23 19  1  0
M  END
$$$$
