SDE.pdb
     RDKit          3D

 24 23  0  0  1  0  0  0  0  0999 V2000
   15.5885   -9.2860  -17.6087 O   0  0  0  0  0  0  0  0  0  0  0  0
   16.8117   -9.5625  -18.2183 C   0  0  0  0  0  0  0  0  0  0  0  0
   17.5951  -10.6027  -17.4392 C   0  0  2  0  0  0  0  0  0  0  0  0
   16.6887  -11.6201  -16.9249 N   0  0  0  0  0  0  0  0  0  0  0  0
   18.3787  -10.0165  -16.3347 C   0  0  0  0  0  0  0  0  0  0  0  0
   18.4417  -10.6616  -15.2207 O   0  0  0  0  0  0  0  0  0  0  0  0
   19.0700   -8.7940  -16.4093 N   0  0  0  0  0  0  0  0  0  0  0  0
   19.8777   -8.2892  -15.2898 C   0  0  1  0  0  0  0  0  0  0  0  0
   20.9212   -9.3376  -15.0334 C   0  0  0  0  0  0  0  0  0  0  0  0
   21.9044   -9.0429  -14.0087 C   0  0  0  0  0  0  0  0  0  0  0  0
   23.1144   -9.3043  -14.1392 O   0  0  0  0  0  0  0  0  0  0  0  0
   20.4361   -6.9671  -15.6338 C   0  0  0  0  0  0  0  0  0  0  0  0
   21.0575   -6.7824  -16.6943 O   0  0  0  0  0  0  0  0  0  0  0  0
   21.5621   -8.4361  -12.7825 O   0  0  0  0  0  0  0  0  0  0  0  0
   20.3042   -5.8142  -14.7847 N   0  0  0  0  0  0  0  0  0  0  0  0
   20.9468   -4.5624  -15.1304 C   0  0  1  0  0  0  0  0  0  0  0  0
   19.9664   -3.4008  -14.9776 C   0  0  0  0  0  0  0  0  0  0  0  0
   18.7604   -3.5970  -15.8816 C   0  0  0  0  0  0  0  0  0  0  0  0
   17.8161   -2.4755  -15.7720 C   0  0  0  0  0  0  0  0  0  0  0  0
   17.4108   -1.8017  -16.7491 O   0  0  0  0  0  0  0  0  0  0  0  0
   22.2016   -4.3135  -14.4018 C   0  0  0  0  0  0  0  0  0  0  0  0
   22.5807   -5.0182  -13.4204 O   0  0  0  0  0  0  0  0  0  0  0  0
   17.3342   -2.1294  -14.5159 O   0  0  0  0  0  0  0  0  0  0  0  0
   22.9954   -3.2562  -14.8219 O   0  0  0  0  0  0  0  0  0  0  0  0
  2  1  1  0
  2  3  1  0
  3  4  1  1
  5  3  1  0
  5  6  2  0
  7  5  1  0
  8  7  1  0
  8 12  1  0
  8  9  1  6
 10 11  2  0
 10  9  1  0
 12 15  1  0
 13 12  2  0
 14 10  1  0
 15 16  1  0
 16 21  1  0
 16 17  1  1
 18 17  1  0
 19 18  1  0
 19 20  2  0
 21 22  2  0
 21 24  1  0
 23 19  1  0
M  END
$$$$
