SDE.pdb
     RDKit          3D

 24 23  0  0  1  0  0  0  0  0999 V2000
   14.6298   -5.1166   -8.0698 O   0  0  0  0  0  0  0  0  0  0  0  0
   15.4093   -5.7532   -9.0349 C   0  0  0  0  0  0  0  0  0  0  0  0
   14.9809   -7.1961   -9.2280 C   0  0  2  0  0  0  0  0  0  0  0  0
   15.1155   -7.9231   -7.9732 N   0  0  0  0  0  0  0  0  0  0  0  0
   15.7405   -7.8783  -10.2934 C   0  0  0  0  0  0  0  0  0  0  0  0
   16.9877   -8.1307  -10.0887 O   0  0  0  0  0  0  0  0  0  0  0  0
   15.1980   -8.2786  -11.5276 N   0  0  0  0  0  0  0  0  0  0  0  0
   15.9917   -9.0135  -12.5229 C   0  0  1  0  0  0  0  0  0  0  0  0
   14.9965   -9.6953  -13.4165 C   0  0  0  0  0  0  0  0  0  0  0  0
   14.5781  -11.0290  -13.0291 C   0  0  0  0  0  0  0  0  0  0  0  0
   13.6359  -11.6275  -13.5800 O   0  0  0  0  0  0  0  0  0  0  0  0
   16.8873   -8.0807  -13.2342 C   0  0  0  0  0  0  0  0  0  0  0  0
   16.5240   -6.9279  -13.5236 O   0  0  0  0  0  0  0  0  0  0  0  0
   15.2094  -11.7505  -11.9948 O   0  0  0  0  0  0  0  0  0  0  0  0
   18.2231   -8.4284  -13.6368 N   0  0  0  0  0  0  0  0  0  0  0  0
   19.0873   -7.4475  -14.2616 C   0  0  1  0  0  0  0  0  0  0  0  0
   20.2278   -7.0660  -13.3196 C   0  0  0  0  0  0  0  0  0  0  0  0
   21.0444   -5.9248  -13.9039 C   0  0  0  0  0  0  0  0  0  0  0  0
   22.1260   -5.5156  -12.9962 C   0  0  0  0  0  0  0  0  0  0  0  0
   22.3771   -6.0802  -11.9047 O   0  0  0  0  0  0  0  0  0  0  0  0
   19.5884   -7.8497  -15.5861 C   0  0  0  0  0  0  0  0  0  0  0  0
   19.8505   -9.0511  -15.8888 O   0  0  0  0  0  0  0  0  0  0  0  0
   22.9278   -4.4398  -13.3558 O   0  0  0  0  0  0  0  0  0  0  0  0
   19.7757   -6.8566  -16.5365 O   0  0  0  0  0  0  0  0  0  0  0  0
  2  1  1  0
  2  3  1  0
  3  4  1  1
  5  3  1  0
  5  6  2  0
  7  5  1  0
  8  7  1  0
  8 12  1  0
  8  9  1  6
 10 11  2  0
 10  9  1  0
 12 15  1  0
 13 12  2  0
 14 10  1  0
 15 16  1  0
 16 21  1  0
 16 17  1  1
 18 17  1  0
 19 18  1  0
 19 20  2  0
 21 22  2  0
 21 24  1  0
 23 19  1  0
M  END
$$$$
