SDE.pdb
     RDKit          3D

 24 23  0  0  1  0  0  0  0  0999 V2000
   22.6744  -23.2996  -15.1682 O   0  0  0  0  0  0  0  0  0  0  0  0
   21.3249  -23.4154  -14.8368 C   0  0  0  0  0  0  0  0  0  0  0  0
   21.0126  -24.7839  -14.2601 C   0  0  2  0  0  0  0  0  0  0  0  0
   21.0058  -25.7781  -15.3244 N   0  0  0  0  0  0  0  0  0  0  0  0
   19.7314  -24.8151  -13.5287 C   0  0  0  0  0  0  0  0  0  0  0  0
   18.6391  -24.8571  -14.2114 O   0  0  0  0  0  0  0  0  0  0  0  0
   19.6132  -24.8036  -12.1274 N   0  0  0  0  0  0  0  0  0  0  0  0
   18.3044  -24.7843  -11.4586 C   0  0  1  0  0  0  0  0  0  0  0  0
   18.5445  -25.3162  -10.0754 C   0  0  0  0  0  0  0  0  0  0  0  0
   18.7503  -26.7467   -9.9530 C   0  0  0  0  0  0  0  0  0  0  0  0
   18.5792  -27.5367  -10.8996 O   0  0  0  0  0  0  0  0  0  0  0  0
   17.7527  -23.4156  -11.4813 C   0  0  0  0  0  0  0  0  0  0  0  0
   18.3790  -22.4568  -10.9982 O   0  0  0  0  0  0  0  0  0  0  0  0
   19.1607  -27.3526   -8.7474 O   0  0  0  0  0  0  0  0  0  0  0  0
   16.4739  -23.0942  -12.0547 N   0  0  0  0  0  0  0  0  0  0  0  0
   16.0316  -21.7180  -12.1538 C   0  0  1  0  0  0  0  0  0  0  0  0
   16.7726  -21.0004  -13.2806 C   0  0  0  0  0  0  0  0  0  0  0  0
   16.3096  -19.5568  -13.3902 C   0  0  0  0  0  0  0  0  0  0  0  0
   16.9833  -18.8566  -14.4934 C   0  0  0  0  0  0  0  0  0  0  0  0
   16.9023  -17.6211  -14.6936 O   0  0  0  0  0  0  0  0  0  0  0  0
   14.5727  -21.5668  -12.2806 C   0  0  0  0  0  0  0  0  0  0  0  0
   13.9561  -20.5143  -11.9406 O   0  0  0  0  0  0  0  0  0  0  0  0
   17.7611  -19.5951  -15.3763 O   0  0  0  0  0  0  0  0  0  0  0  0
   13.8539  -22.6338  -12.7995 O   0  0  0  0  0  0  0  0  0  0  0  0
  2  1  1  0
  2  3  1  0
  3  4  1  6
  5  3  1  0
  5  6  2  0
  7  5  1  0
  8  7  1  0
  8 12  1  0
  8  9  1  1
 10 11  2  0
 10  9  1  0
 12 15  1  0
 13 12  2  0
 14 10  1  0
 15 16  1  0
 16 21  1  0
 16 17  1  6
 18 17  1  0
 19 18  1  0
 19 20  2  0
 21 22  2  0
 21 24  1  0
 23 19  1  0
M  END
$$$$
