HQI.pdb
     RDKit          3D

 28 28  0  0  1  0  0  0  0  0999 V2000
    8.5323  -16.4040   19.5186 N   0  0  0  0  0  0  0  0  0  0  0  0
    7.9560  -15.2035   20.1727 C   0  0  1  0  0  0  0  0  0  0  0  0
    6.7767  -14.8321   19.3239 C   0  0  0  0  0  0  0  0  0  0  0  0
    7.3376  -14.5820   17.9484 C   0  0  0  0  0  0  0  0  0  0  0  0
    8.2214  -13.5655   17.6494 C   0  0  0  0  0  0  0  0  0  0  0  0
    8.5210  -13.6155   16.3207 N   0  0  0  0  0  0  0  0  0  0  0  0
    7.8362  -14.6373   15.8281 C   0  0  0  0  0  0  0  0  0  0  0  0
    7.1096  -15.2394   16.8071 N   0  0  0  0  0  0  0  0  0  0  0  0
    7.6583  -15.5813   21.5571 C   0  0  0  0  0  0  0  0  0  0  0  0
    6.9388  -14.7806   22.2363 O   0  0  0  0  0  0  0  0  0  0  0  0
    7.6052  -20.8799   25.2108 N   0  0  0  0  0  0  0  0  0  0  0  0
    7.1971  -19.8320   26.0513 C   0  0  0  0  0  0  0  0  0  0  0  0
    6.8083  -20.1612   27.2213 O   0  0  0  0  0  0  0  0  0  0  0  0
    7.2238  -18.4260   25.5867 C   0  0  0  0  0  0  0  0  0  0  0  0
    7.6046  -18.3691   24.0986 C   0  0  0  0  0  0  0  0  0  0  0  0
    7.7288  -17.0027   23.5718 C   0  0  2  0  0  0  0  0  0  0  0  0
    8.0817  -16.7498   22.2286 N   0  0  0  0  0  0  0  0  0  0  0  0
    8.1995  -15.9882   24.5148 C   0  0  0  0  0  0  0  0  0  0  0  0
    9.4494  -15.7488   24.6658 O   0  0  0  0  0  0  0  0  0  0  0  0
    6.3627  -10.8048   27.4179 C   0  0  0  0  0  0  0  0  0  0  0  0
    7.4431  -11.8903   27.2523 C   0  0  0  0  0  0  0  0  0  0  0  0
    6.9177  -13.0414   26.4420 C   0  0  2  0  0  0  0  0  0  0  0  0
    5.6588  -13.5518   27.1447 C   0  0  0  0  0  0  0  0  0  0  0  0
    7.8915  -14.1148   26.1578 C   0  0  2  0  0  0  0  0  0  0  0  0
    7.3657  -15.1957   25.3433 N   0  0  0  0  0  0  0  0  0  0  0  0
    8.5439  -14.6664   27.3980 C   0  0  0  0  0  0  0  0  0  0  0  0
    8.4731  -16.0302   27.7285 O   0  0  0  0  0  0  0  0  0  0  0  0
    9.1810  -13.9649   28.1995 O   0  0  0  0  0  0  0  0  0  0  0  0
  2  1  1  6
  3  4  1  0
  3  2  1  0
  4  8  1  0
  5  6  1  0
  5  4  2  0
  6  7  1  0
  7  8  2  0
  9  2  1  0
  9 10  2  0
 12 11  1  0
 13 12  2  0
 14 12  1  0
 15 14  1  0
 16 15  1  1
 16 17  1  0
 17  9  1  0
 18 16  1  0
 19 18  2  0
 21 20  1  0
 22 21  1  0
 22 23  1  1
 24 25  1  1
 24 22  1  0
 25 18  1  0
 26 24  1  0
 27 26  1  0
 28 26  2  0
M  END
$$$$
