HQI.pdb
     RDKit          3D

 28 28  0  0  1  0  0  0  0  0999 V2000
   10.0368  -17.1017   19.1108 N   0  0  0  0  0  0  0  0  0  0  0  0
    8.9668  -16.2228   19.6434 C   0  0  1  0  0  0  0  0  0  0  0  0
    7.8510  -16.3284   18.6470 C   0  0  0  0  0  0  0  0  0  0  0  0
    8.0302  -15.1539   17.7208 C   0  0  0  0  0  0  0  0  0  0  0  0
    9.0221  -14.2052   17.8619 C   0  0  0  0  0  0  0  0  0  0  0  0
    8.8960  -13.2812   16.8679 N   0  0  0  0  0  0  0  0  0  0  0  0
    7.8542  -13.6618   16.1428 C   0  0  0  0  0  0  0  0  0  0  0  0
    7.3145  -14.8030   16.6478 N   0  0  0  0  0  0  0  0  0  0  0  0
    8.6671  -16.6982   20.9970 C   0  0  0  0  0  0  0  0  0  0  0  0
    7.9659  -17.7554   21.1000 O   0  0  0  0  0  0  0  0  0  0  0  0
    8.8492  -20.7025   24.6412 N   0  0  0  0  0  0  0  0  0  0  0  0
   10.0300  -20.2008   24.0713 C   0  0  0  0  0  0  0  0  0  0  0  0
   11.0414  -20.9790   24.0832 O   0  0  0  0  0  0  0  0  0  0  0  0
   10.0795  -18.8387   23.4920 C   0  0  0  0  0  0  0  0  0  0  0  0
    8.7152  -18.1484   23.6496 C   0  0  0  0  0  0  0  0  0  0  0  0
    8.7644  -16.6916   23.4617 C   0  0  2  0  0  0  0  0  0  0  0  0
    9.0776  -16.1101   22.2141 N   0  0  0  0  0  0  0  0  0  0  0  0
    9.2060  -15.9071   24.6147 C   0  0  0  0  0  0  0  0  0  0  0  0
   10.4092  -15.4752   24.7045 O   0  0  0  0  0  0  0  0  0  0  0  0
    6.1913  -11.9024   26.3493 C   0  0  0  0  0  0  0  0  0  0  0  0
    7.3359  -12.8341   25.9079 C   0  0  0  0  0  0  0  0  0  0  0  0
    7.9028  -13.5723   27.0874 C   0  0  2  0  0  0  0  0  0  0  0  0
    8.4941  -12.5264   28.0339 C   0  0  0  0  0  0  0  0  0  0  0  0
    8.8536  -14.6546   26.7621 C   0  0  2  0  0  0  0  0  0  0  0  0
    8.3939  -15.5590   25.7234 N   0  0  0  0  0  0  0  0  0  0  0  0
    9.3009  -15.4334   27.9709 C   0  0  0  0  0  0  0  0  0  0  0  0
   10.1727  -14.8836   28.9259 O   0  0  0  0  0  0  0  0  0  0  0  0
    8.9336  -16.5959   28.2039 O   0  0  0  0  0  0  0  0  0  0  0  0
  2  1  1  6
  3  4  1  0
  3  2  1  0
  4  8  1  0
  5  6  1  0
  5  4  2  0
  6  7  1  0
  7  8  2  0
  9  2  1  0
  9 10  2  0
 12 11  1  0
 13 12  2  0
 14 12  1  0
 15 14  1  0
 16 15  1  6
 16 17  1  0
 17  9  1  0
 18 16  1  0
 19 18  2  0
 21 20  1  0
 22 21  1  0
 22 23  1  1
 24 25  1  6
 24 22  1  0
 25 18  1  0
 26 24  1  0
 27 26  1  0
 28 26  2  0
M  END
$$$$
