HQI.pdb
     RDKit          3D

 28 28  0  0  1  0  0  0  0  0999 V2000
    7.5570  -17.3621   19.1988 N   0  0  0  0  0  0  0  0  0  0  0  0
    7.4248  -16.0993   19.9662 C   0  0  1  0  0  0  0  0  0  0  0  0
    6.3687  -15.3184   19.2426 C   0  0  0  0  0  0  0  0  0  0  0  0
    7.0907  -14.6085   18.1271 C   0  0  0  0  0  0  0  0  0  0  0  0
    7.8453  -13.4666   18.3013 C   0  0  0  0  0  0  0  0  0  0  0  0
    8.3505  -13.0813   17.0954 N   0  0  0  0  0  0  0  0  0  0  0  0
    7.9133  -13.9685   16.2137 C   0  0  0  0  0  0  0  0  0  0  0  0
    7.1442  -14.9082   16.8256 N   0  0  0  0  0  0  0  0  0  0  0  0
    7.1121  -16.4773   21.3472 C   0  0  0  0  0  0  0  0  0  0  0  0
    6.1945  -17.3424   21.5196 O   0  0  0  0  0  0  0  0  0  0  0  0
    5.9182  -20.3412   24.4718 N   0  0  0  0  0  0  0  0  0  0  0  0
    7.2655  -20.2185   24.0968 C   0  0  0  0  0  0  0  0  0  0  0  0
    7.9294  -21.3042   24.0013 O   0  0  0  0  0  0  0  0  0  0  0  0
    7.8661  -18.8912   23.8303 C   0  0  0  0  0  0  0  0  0  0  0  0
    6.8161  -17.7869   24.0319 C   0  0  0  0  0  0  0  0  0  0  0  0
    7.3334  -16.4303   23.8035 C   0  0  2  0  0  0  0  0  0  0  0  0
    7.7248  -15.9867   22.5217 N   0  0  0  0  0  0  0  0  0  0  0  0
    8.0993  -15.8389   24.9005 C   0  0  0  0  0  0  0  0  0  0  0  0
    9.3762  -15.9360   24.9489 O   0  0  0  0  0  0  0  0  0  0  0  0
    6.3952  -11.0367   26.8448 C   0  0  0  0  0  0  0  0  0  0  0  0
    7.1523  -12.2407   26.2530 C   0  0  0  0  0  0  0  0  0  0  0  0
    7.7405  -13.0863   27.3469 C   0  0  2  0  0  0  0  0  0  0  0  0
    8.7010  -12.1975   28.1385 C   0  0  0  0  0  0  0  0  0  0  0  0
    8.3608  -14.3524   26.9070 C   0  0  2  0  0  0  0  0  0  0  0  0
    7.5421  -15.1316   25.9955 N   0  0  0  0  0  0  0  0  0  0  0  0
    8.8288  -15.2118   28.0516 C   0  0  0  0  0  0  0  0  0  0  0  0
    9.9906  -14.9068   28.7806 O   0  0  0  0  0  0  0  0  0  0  0  0
    8.2280  -16.2317   28.4250 O   0  0  0  0  0  0  0  0  0  0  0  0
  2  1  1  6
  3  4  1  0
  3  2  1  0
  4  8  1  0
  5  6  1  0
  5  4  2  0
  6  7  1  0
  7  8  2  0
  9  2  1  0
  9 10  2  0
 12 11  1  0
 13 12  2  0
 14 12  1  0
 15 14  1  0
 16 15  1  6
 16 17  1  0
 17  9  1  0
 18 16  1  0
 19 18  2  0
 21 20  1  0
 22 21  1  0
 22 23  1  6
 24 25  1  1
 24 22  1  0
 25 18  1  0
 26 24  1  0
 27 26  1  0
 28 26  2  0
M  END
$$$$
