HQI.pdb
     RDKit          3D

 28 28  0  0  1  0  0  0  0  0999 V2000
    9.1131  -18.4627   18.4512 N   0  0  0  0  0  0  0  0  0  0  0  0
    8.5369  -17.1792   18.9223 C   0  0  1  0  0  0  0  0  0  0  0  0
    7.3301  -16.9599   18.0594 C   0  0  0  0  0  0  0  0  0  0  0  0
    7.8602  -16.3951   16.7673 C   0  0  0  0  0  0  0  0  0  0  0  0
    9.2007  -16.2055   16.5015 C   0  0  0  0  0  0  0  0  0  0  0  0
    9.3340  -15.6732   15.2538 N   0  0  0  0  0  0  0  0  0  0  0  0
    8.1046  -15.5448   14.7762 C   0  0  0  0  0  0  0  0  0  0  0  0
    7.1929  -15.9814   15.6856 N   0  0  0  0  0  0  0  0  0  0  0  0
    8.2819  -17.3343   20.3571 C   0  0  0  0  0  0  0  0  0  0  0  0
    7.2418  -17.9852   20.6957 O   0  0  0  0  0  0  0  0  0  0  0  0
    9.5777  -20.0586   25.3225 N   0  0  0  0  0  0  0  0  0  0  0  0
   10.1682  -20.1908   24.0558 C   0  0  0  0  0  0  0  0  0  0  0  0
   11.0458  -21.1089   23.9315 O   0  0  0  0  0  0  0  0  0  0  0  0
    9.7800  -19.3027   22.9359 C   0  0  0  0  0  0  0  0  0  0  0  0
    8.6397  -18.3694   23.3735 C   0  0  0  0  0  0  0  0  0  0  0  0
    8.7053  -17.0317   22.7682 C   0  0  2  0  0  0  0  0  0  0  0  0
    9.0723  -16.8403   21.4186 N   0  0  0  0  0  0  0  0  0  0  0  0
    9.1046  -15.9405   23.6569 C   0  0  0  0  0  0  0  0  0  0  0  0
   10.2386  -15.3579   23.5276 O   0  0  0  0  0  0  0  0  0  0  0  0
    5.9390  -12.1094   26.7081 C   0  0  0  0  0  0  0  0  0  0  0  0
    6.6078  -13.4486   26.3448 C   0  0  0  0  0  0  0  0  0  0  0  0
    7.9588  -13.2164   25.7296 C   0  0  2  0  0  0  0  0  0  0  0  0
    7.7302  -12.5302   24.3821 C   0  0  0  0  0  0  0  0  0  0  0  0
    8.8234  -14.4093   25.6268 C   0  0  2  0  0  0  0  0  0  0  0  0
    8.3234  -15.4314   24.7248 N   0  0  0  0  0  0  0  0  0  0  0  0
    9.1602  -15.0140   26.9643 C   0  0  0  0  0  0  0  0  0  0  0  0
    9.8217  -14.2806   27.9637 O   0  0  0  0  0  0  0  0  0  0  0  0
    8.8786  -16.1832   27.2713 O   0  0  0  0  0  0  0  0  0  0  0  0
  2  1  1  6
  3  4  1  0
  3  2  1  0
  4  8  1  0
  5  6  1  0
  5  4  2  0
  6  7  1  0
  7  8  2  0
  9  2  1  0
  9 10  2  0
 12 11  1  0
 13 12  2  0
 14 12  1  0
 15 14  1  0
 16 15  1  1
 16 17  1  0
 17  9  1  0
 18 16  1  0
 19 18  2  0
 21 20  1  0
 22 21  1  0
 22 23  1  6
 24 25  1  6
 24 22  1  0
 25 18  1  0
 26 24  1  0
 27 26  1  0
 28 26  2  0
M  END
$$$$
