HQI.pdb
     RDKit          3D

 28 28  0  0  1  0  0  0  0  0999 V2000
    8.5846  -16.2674   19.6836 N   0  0  0  0  0  0  0  0  0  0  0  0
    7.9947  -15.1043   20.3909 C   0  0  1  0  0  0  0  0  0  0  0  0
    6.8104  -14.7093   19.5601 C   0  0  0  0  0  0  0  0  0  0  0  0
    7.3622  -14.4256   18.1873 C   0  0  0  0  0  0  0  0  0  0  0  0
    8.2190  -13.3826   17.9015 C   0  0  0  0  0  0  0  0  0  0  0  0
    8.5175  -13.4062   16.5718 N   0  0  0  0  0  0  0  0  0  0  0  0
    7.8584  -14.4384   16.0658 C   0  0  0  0  0  0  0  0  0  0  0  0
    7.1493  -15.0726   17.0373 N   0  0  0  0  0  0  0  0  0  0  0  0
    7.7028  -15.5470   21.7572 C   0  0  0  0  0  0  0  0  0  0  0  0
    7.1324  -14.7116   22.5296 O   0  0  0  0  0  0  0  0  0  0  0  0
    7.1785  -21.0420   25.0843 N   0  0  0  0  0  0  0  0  0  0  0  0
    6.9667  -20.0102   26.0123 C   0  0  0  0  0  0  0  0  0  0  0  0
    6.6536  -20.3672   27.1968 O   0  0  0  0  0  0  0  0  0  0  0  0
    7.1042  -18.5890   25.6186 C   0  0  0  0  0  0  0  0  0  0  0  0
    7.4619  -18.4869   24.1272 C   0  0  0  0  0  0  0  0  0  0  0  0
    7.6856  -17.1096   23.6658 C   0  0  2  0  0  0  0  0  0  0  0  0
    7.9829  -16.8130   22.3180 N   0  0  0  0  0  0  0  0  0  0  0  0
    8.3047  -16.1991   24.6289 C   0  0  0  0  0  0  0  0  0  0  0  0
    9.5776  -16.1377   24.7635 O   0  0  0  0  0  0  0  0  0  0  0  0
    5.4633  -11.7423   26.6746 C   0  0  0  0  0  0  0  0  0  0  0  0
    6.4716  -12.6393   25.9320 C   0  0  0  0  0  0  0  0  0  0  0  0
    7.3905  -13.3220   26.9052 C   0  0  2  0  0  0  0  0  0  0  0  0
    8.1540  -12.2264   27.6509 C   0  0  0  0  0  0  0  0  0  0  0  0
    8.2800  -14.3486   26.3257 C   0  0  2  0  0  0  0  0  0  0  0  0
    7.5996  -15.3265   25.4956 N   0  0  0  0  0  0  0  0  0  0  0  0
    9.1337  -15.0420   27.3545 C   0  0  0  0  0  0  0  0  0  0  0  0
    8.7257  -16.2357   27.9734 O   0  0  0  0  0  0  0  0  0  0  0  0
   10.2403  -14.6140   27.7189 O   0  0  0  0  0  0  0  0  0  0  0  0
  2  1  1  6
  3  4  1  0
  3  2  1  0
  4  8  1  0
  5  6  1  0
  5  4  2  0
  6  7  1  0
  7  8  2  0
  9  2  1  0
  9 10  2  0
 12 11  1  0
 13 12  2  0
 14 12  1  0
 15 14  1  0
 16 15  1  1
 16 17  1  0
 17  9  1  0
 18 16  1  0
 19 18  2  0
 21 20  1  0
 22 21  1  0
 22 23  1  6
 24 25  1  1
 24 22  1  0
 25 18  1  0
 26 24  1  0
 27 26  1  0
 28 26  2  0
M  END
$$$$
