HQI.pdb
     RDKit          3D

 28 28  0  0  1  0  0  0  0  0999 V2000
    7.3601  -17.8825   18.8324 N   0  0  0  0  0  0  0  0  0  0  0  0
    7.4592  -16.6475   19.6485 C   0  0  1  0  0  0  0  0  0  0  0  0
    6.4789  -15.6972   19.0282 C   0  0  0  0  0  0  0  0  0  0  0  0
    7.2757  -14.8942   18.0334 C   0  0  0  0  0  0  0  0  0  0  0  0
    7.5998  -15.3379   16.7677 C   0  0  0  0  0  0  0  0  0  0  0  0
    8.3292  -14.3763   16.1345 N   0  0  0  0  0  0  0  0  0  0  0  0
    8.4428  -13.3753   16.9952 C   0  0  0  0  0  0  0  0  0  0  0  0
    7.8051  -13.6733   18.1585 N   0  0  0  0  0  0  0  0  0  0  0  0
    7.1881  -17.0370   21.0351 C   0  0  0  0  0  0  0  0  0  0  0  0
    6.3964  -18.0164   21.2197 O   0  0  0  0  0  0  0  0  0  0  0  0
    8.3383  -20.6728   24.5898 N   0  0  0  0  0  0  0  0  0  0  0  0
    7.5548  -19.9933   25.5361 C   0  0  0  0  0  0  0  0  0  0  0  0
    7.4550  -20.5371   26.6862 O   0  0  0  0  0  0  0  0  0  0  0  0
    6.8880  -18.7147   25.1987 C   0  0  0  0  0  0  0  0  0  0  0  0
    7.1314  -18.3664   23.7215 C   0  0  0  0  0  0  0  0  0  0  0  0
    7.4199  -16.9441   23.4891 C   0  0  2  0  0  0  0  0  0  0  0  0
    7.7162  -16.4431   22.2030 N   0  0  0  0  0  0  0  0  0  0  0  0
    8.0962  -16.2371   24.5766 C   0  0  0  0  0  0  0  0  0  0  0  0
    9.3544  -16.3732   24.7780 O   0  0  0  0  0  0  0  0  0  0  0  0
    5.6588  -11.6665   26.7969 C   0  0  0  0  0  0  0  0  0  0  0  0
    6.6495  -12.5723   26.0413 C   0  0  0  0  0  0  0  0  0  0  0  0
    7.4315  -13.4208   27.0037 C   0  0  2  0  0  0  0  0  0  0  0  0
    8.2801  -12.4745   27.8544 C   0  0  0  0  0  0  0  0  0  0  0  0
    8.2221  -14.5089   26.3936 C   0  0  2  0  0  0  0  0  0  0  0  0
    7.4644  -15.3673   25.5008 N   0  0  0  0  0  0  0  0  0  0  0  0
    8.9683  -15.3381   27.4052 C   0  0  0  0  0  0  0  0  0  0  0  0
   10.1841  -14.9087   27.9637 O   0  0  0  0  0  0  0  0  0  0  0  0
    8.5652  -16.4398   27.8104 O   0  0  0  0  0  0  0  0  0  0  0  0
  2  1  1  6
  3  4  1  0
  3  2  1  0
  4  8  1  0
  5  6  1  0
  5  4  2  0
  6  7  1  0
  7  8  2  0
  9  2  1  0
  9 10  2  0
 12 11  1  0
 13 12  2  0
 14 12  1  0
 15 14  1  0
 16 15  1  6
 16 17  1  0
 17  9  1  0
 18 16  1  0
 19 18  2  0
 21 20  1  0
 22 21  1  0
 22 23  1  6
 24 25  1  1
 24 22  1  0
 25 18  1  0
 26 24  1  0
 27 26  1  0
 28 26  2  0
M  END
$$$$
