WRI.pdb
     RDKit          3D

 34 35  0  0  1  0  0  0  0  0999 V2000
    6.9495  -19.8095   25.5934 N   0  0  0  0  0  0  0  0  0  0  0  0
    6.6252  -18.4230   25.3833 C   0  0  1  0  0  0  0  0  0  0  0  0
    6.7414  -17.6656   26.6600 C   0  0  0  0  0  0  0  0  0  0  0  0
    6.1835  -16.3081   26.6532 C   0  0  0  0  0  0  0  0  0  0  0  0
    4.8609  -15.9788   26.3070 C   0  0  0  0  0  0  0  0  0  0  0  0
    4.6951  -14.6775   26.4399 N   0  0  0  0  0  0  0  0  0  0  0  0
    5.8183  -14.0676   26.8580 C   0  0  0  0  0  0  0  0  0  0  0  0
    6.1297  -12.7565   27.1271 C   0  0  0  0  0  0  0  0  0  0  0  0
    7.4005  -12.4440   27.5391 C   0  0  0  0  0  0  0  0  0  0  0  0
    8.3558  -13.4386   27.6810 C   0  0  0  0  0  0  0  0  0  0  0  0
    8.0097  -14.7446   27.4028 C   0  0  0  0  0  0  0  0  0  0  0  0
    6.7561  -15.1027   26.9908 C   0  0  0  0  0  0  0  0  0  0  0  0
    7.5426  -17.8803   24.3265 C   0  0  0  0  0  0  0  0  0  0  0  0
    8.6834  -18.4322   24.1429 O   0  0  0  0  0  0  0  0  0  0  0  0
    9.4904  -14.4180   17.6218 N   0  0  0  0  0  0  0  0  0  0  0  0
    9.2822  -13.1055   18.1198 C   0  0  0  0  0  0  0  0  0  0  0  0
   10.0087  -12.1205   17.7178 N   0  0  0  0  0  0  0  0  0  0  0  0
    8.2690  -12.8036   19.0823 N   0  0  0  0  0  0  0  0  0  0  0  0
    7.4477  -13.8636   19.6160 C   0  0  0  0  0  0  0  0  0  0  0  0
    8.2259  -14.7996   20.5064 C   0  0  0  0  0  0  0  0  0  0  0  0
    7.3133  -15.2053   21.6528 C   0  0  0  0  0  0  0  0  0  0  0  0
    8.0304  -16.2318   22.4579 C   0  0  2  0  0  0  0  0  0  0  0  0
    7.2169  -16.7693   23.5016 N   0  0  0  0  0  0  0  0  0  0  0  0
    9.3464  -15.7859   22.9902 C   0  0  0  0  0  0  0  0  0  0  0  0
   10.2380  -15.4605   22.1745 O   0  0  0  0  0  0  0  0  0  0  0  0
    9.8343  -11.1770   18.0901 C   0  0  0  0  0  0  0  0  0  0  0  0
   11.8267  -13.7756   28.3148 C   0  0  0  0  0  0  0  0  0  0  0  0
   12.0856  -14.2786   26.9211 C   0  0  2  0  0  0  0  0  0  0  0  0
   10.8320  -14.8069   26.3192 C   0  0  0  0  0  0  0  0  0  0  0  0
   10.4314  -16.0399   27.1443 C   0  0  2  0  0  0  0  0  0  0  0  0
   10.9220  -15.2602   24.9034 N   0  0  0  0  0  0  0  0  0  0  0  0
    9.6545  -15.7062   24.3602 C   0  0  0  0  0  0  0  0  0  0  0  0
   12.0194  -16.1987   24.6059 O   0  0  0  0  0  0  0  0  0  0  0  0
   13.3689  -15.8516   24.7258 O   0  0  0  0  0  0  0  0  0  0  0  0
  2  1  1  1
  3  2  1  0
  4  3  1  0
  5  4  2  0
  6  5  1  0
  7  6  1  0
  7 12  2  0
  8  7  1  0
  9  8  2  0
  9 10  1  0
 10 11  2  0
 11 12  1  0
 12  4  1  0
 13 14  2  0
 13  2  1  0
 16 17  2  0
 16 15  1  0
 18 16  1  0
 18 19  1  0
 19 20  1  0
 20 21  1  0
 22 21  1  1
 22 23  1  0
 22 24  1  0
 23 13  1  0
 24 31  1  0
 24 25  2  0
 27 26  1  0
 28 27  1  0
 28 29  1  6
 30 28  1  0
 30 31  1  6
 32 33  1  0
 32 30  1  0
 34 32  2  0
M  END
$$$$
