WRI.pdb
     RDKit          3D

 34 35  0  0  1  0  0  0  0  0999 V2000
    6.0057  -17.3219   25.2375 N   0  0  0  0  0  0  0  0  0  0  0  0
    7.0072  -16.5096   24.5981 C   0  0  1  0  0  0  0  0  0  0  0  0
    7.5331  -15.4925   25.5501 C   0  0  0  0  0  0  0  0  0  0  0  0
    6.5768  -14.4690   25.9880 C   0  0  0  0  0  0  0  0  0  0  0  0
    5.4034  -14.7193   26.7215 C   0  0  0  0  0  0  0  0  0  0  0  0
    4.8003  -13.5730   26.9685 N   0  0  0  0  0  0  0  0  0  0  0  0
    5.4747  -12.5292   26.4546 C   0  0  0  0  0  0  0  0  0  0  0  0
    5.2440  -11.1745   26.4480 C   0  0  0  0  0  0  0  0  0  0  0  0
    6.1382  -10.3489   25.8146 C   0  0  0  0  0  0  0  0  0  0  0  0
    7.2580  -10.8761   25.1902 C   0  0  0  0  0  0  0  0  0  0  0  0
    7.4595  -12.2405   25.2159 C   0  0  0  0  0  0  0  0  0  0  0  0
    6.5963  -13.1011   25.8355 C   0  0  0  0  0  0  0  0  0  0  0  0
    8.0926  -17.4136   24.0909 C   0  0  0  0  0  0  0  0  0  0  0  0
    8.3961  -18.4642   24.7572 O   0  0  0  0  0  0  0  0  0  0  0  0
   10.0606  -12.6884   19.0109 N   0  0  0  0  0  0  0  0  0  0  0  0
    8.9324  -13.4877   18.6904 C   0  0  0  0  0  0  0  0  0  0  0  0
    7.8003  -12.9490   18.3946 N   0  0  0  0  0  0  0  0  0  0  0  0
    8.9854  -14.9164   18.6770 N   0  0  0  0  0  0  0  0  0  0  0  0
   10.0236  -15.6028   19.4077 C   0  0  0  0  0  0  0  0  0  0  0  0
    9.5544  -16.0806   20.7590 C   0  0  0  0  0  0  0  0  0  0  0  0
   10.6934  -16.8678   21.3870 C   0  0  0  0  0  0  0  0  0  0  0  0
   10.2215  -17.3671   22.7077 C   0  0  2  0  0  0  0  0  0  0  0  0
    8.8191  -17.1702   22.8934 N   0  0  0  0  0  0  0  0  0  0  0  0
   10.9871  -16.8441   23.8715 C   0  0  0  0  0  0  0  0  0  0  0  0
   11.7771  -15.8918   23.6837 O   0  0  0  0  0  0  0  0  0  0  0  0
    6.9825  -13.5497   18.2230 C   0  0  0  0  0  0  0  0  0  0  0  0
    9.4694  -14.2171   27.9842 C   0  0  0  0  0  0  0  0  0  0  0  0
   10.3495  -14.8050   26.9154 C   0  0  2  0  0  0  0  0  0  0  0  0
   10.8255  -16.1550   27.3201 C   0  0  0  0  0  0  0  0  0  0  0  0
   11.7234  -15.9559   28.5513 C   0  0  2  0  0  0  0  0  0  0  0  0
   11.6445  -16.8918   26.3179 N   0  0  0  0  0  0  0  0  0  0  0  0
   10.8792  -17.3547   25.1775 C   0  0  0  0  0  0  0  0  0  0  0  0
   12.5238  -17.9411   26.8647 O   0  0  0  0  0  0  0  0  0  0  0  0
   12.3510  -19.3000   26.5824 O   0  0  0  0  0  0  0  0  0  0  0  0
  2  1  1  1
  3  2  1  0
  4  3  1  0
  5  4  2  0
  6  5  1  0
  7  6  1  0
  7 12  2  0
  8  7  1  0
  9  8  2  0
  9 10  1  0
 10 11  2  0
 11 12  1  0
 12  4  1  0
 13 14  2  0
 13  2  1  0
 16 17  2  0
 16 15  1  0
 18 16  1  0
 18 19  1  0
 19 20  1  0
 20 21  1  0
 22 21  1  6
 22 23  1  0
 22 24  1  0
 23 13  1  0
 24 31  1  0
 24 25  2  0
 27 26  1  0
 28 27  1  0
 28 29  1  6
 30 28  1  0
 30 31  1  6
 32 33  1  0
 32 30  1  0
 34 32  2  0
M  END
$$$$
