WRI.pdb
     RDKit          3D

 34 35  0  0  1  0  0  0  0  0999 V2000
    6.1179  -17.6724   25.7672 N   0  0  0  0  0  0  0  0  0  0  0  0
    6.6569  -16.4817   25.1643 C   0  0  1  0  0  0  0  0  0  0  0  0
    7.7515  -15.9256   26.0067 C   0  0  0  0  0  0  0  0  0  0  0  0
    7.3842  -14.8005   26.8746 C   0  0  0  0  0  0  0  0  0  0  0  0
    7.4167  -14.8191   28.2804 C   0  0  0  0  0  0  0  0  0  0  0  0
    7.0540  -13.6347   28.7326 N   0  0  0  0  0  0  0  0  0  0  0  0
    6.7670  -12.7815   27.7336 C   0  0  0  0  0  0  0  0  0  0  0  0
    6.3493  -11.4725   27.7085 C   0  0  0  0  0  0  0  0  0  0  0  0
    6.1276  -10.8665   26.4976 C   0  0  0  0  0  0  0  0  0  0  0  0
    6.3225  -11.5668   25.3172 C   0  0  0  0  0  0  0  0  0  0  0  0
    6.7424  -12.8793   25.3784 C   0  0  0  0  0  0  0  0  0  0  0  0
    6.9768  -13.5234   26.5615 C   0  0  0  0  0  0  0  0  0  0  0  0
    7.1353  -16.8284   23.7845 C   0  0  0  0  0  0  0  0  0  0  0  0
    7.7008  -17.9594   23.5827 O   0  0  0  0  0  0  0  0  0  0  0  0
    9.1343  -14.9929   15.3184 N   0  0  0  0  0  0  0  0  0  0  0  0
    9.2173  -14.3679   16.5898 C   0  0  0  0  0  0  0  0  0  0  0  0
   10.3584  -14.0959   17.1221 N   0  0  0  0  0  0  0  0  0  0  0  0
    8.0566  -14.0083   17.3432 N   0  0  0  0  0  0  0  0  0  0  0  0
    8.2034  -13.4690   18.6738 C   0  0  0  0  0  0  0  0  0  0  0  0
    8.6553  -14.5093   19.6679 C   0  0  0  0  0  0  0  0  0  0  0  0
    7.5889  -14.6045   20.7474 C   0  0  0  0  0  0  0  0  0  0  0  0
    8.0109  -15.6629   21.7055 C   0  0  2  0  0  0  0  0  0  0  0  0
    6.9973  -15.9612   22.6665 N   0  0  0  0  0  0  0  0  0  0  0  0
    9.3135  -15.4012   22.3753 C   0  0  0  0  0  0  0  0  0  0  0  0
    9.9200  -14.3411   22.1021 O   0  0  0  0  0  0  0  0  0  0  0  0
   10.3986  -13.7768   18.0997 C   0  0  0  0  0  0  0  0  0  0  0  0
   10.2870  -14.7273   27.4245 C   0  0  0  0  0  0  0  0  0  0  0  0
   10.4904  -14.6532   25.9360 C   0  0  2  0  0  0  0  0  0  0  0  0
   11.0846  -15.9197   25.4302 C   0  0  0  0  0  0  0  0  0  0  0  0
   12.5213  -15.9808   25.9721 C   0  0  2  0  0  0  0  0  0  0  0  0
   11.1879  -16.0531   23.9504 N   0  0  0  0  0  0  0  0  0  0  0  0
    9.9109  -16.2746   23.3019 C   0  0  0  0  0  0  0  0  0  0  0  0
   12.2285  -16.9792   23.4678 O   0  0  0  0  0  0  0  0  0  0  0  0
   11.9331  -18.1714   22.7987 O   0  0  0  0  0  0  0  0  0  0  0  0
  2  1  1  1
  3  2  1  0
  4  3  1  0
  5  4  2  0
  6  5  1  0
  7  6  1  0
  7 12  2  0
  8  7  1  0
  9  8  2  0
  9 10  1  0
 10 11  2  0
 11 12  1  0
 12  4  1  0
 13 14  2  0
 13  2  1  0
 16 17  2  0
 16 15  1  0
 18 16  1  0
 18 19  1  0
 19 20  1  0
 20 21  1  0
 22 21  1  1
 22 23  1  0
 22 24  1  0
 23 13  1  0
 24 31  1  0
 24 25  2  0
 27 26  1  0
 28 27  1  0
 28 29  1  6
 30 28  1  0
 30 31  1  6
 32 33  1  0
 32 30  1  0
 34 32  2  0
M  END
$$$$
