WRI.pdb
     RDKit          3D

 34 35  0  0  1  0  0  0  0  0999 V2000
    5.6648  -18.0518   25.5764 N   0  0  0  0  0  0  0  0  0  0  0  0
    6.5130  -17.0396   25.0041 C   0  0  1  0  0  0  0  0  0  0  0  0
    7.4342  -16.4918   26.0379 C   0  0  0  0  0  0  0  0  0  0  0  0
    6.8862  -15.4258   26.8849 C   0  0  0  0  0  0  0  0  0  0  0  0
    6.4251  -15.5960   28.2025 C   0  0  0  0  0  0  0  0  0  0  0  0
    6.0315  -14.4285   28.6723 N   0  0  0  0  0  0  0  0  0  0  0  0
    6.1854  -13.4450   27.7683 C   0  0  0  0  0  0  0  0  0  0  0  0
    5.9176  -12.0973   27.7930 C   0  0  0  0  0  0  0  0  0  0  0  0
    6.1849  -11.3437   26.6781 C   0  0  0  0  0  0  0  0  0  0  0  0
    6.7176  -11.9357   25.5433 C   0  0  0  0  0  0  0  0  0  0  0  0
    6.9747  -13.2909   25.5523 C   0  0  0  0  0  0  0  0  0  0  0  0
    6.7255  -14.0807   26.6402 C   0  0  0  0  0  0  0  0  0  0  0  0
    7.2623  -17.6484   23.8548 C   0  0  0  0  0  0  0  0  0  0  0  0
    8.1789  -18.5110   24.0905 O   0  0  0  0  0  0  0  0  0  0  0  0
    9.1319  -12.5881   18.4239 N   0  0  0  0  0  0  0  0  0  0  0  0
    9.8507  -13.6592   17.8320 C   0  0  0  0  0  0  0  0  0  0  0  0
   11.0972  -13.5354   17.5312 N   0  0  0  0  0  0  0  0  0  0  0  0
    9.2429  -14.9197   17.5394 N   0  0  0  0  0  0  0  0  0  0  0  0
    8.1790  -15.4156   18.3792 C   0  0  0  0  0  0  0  0  0  0  0  0
    8.4160  -15.1211   19.8393 C   0  0  0  0  0  0  0  0  0  0  0  0
    7.3089  -15.8012   20.6288 C   0  0  0  0  0  0  0  0  0  0  0  0
    7.9513  -16.7453   21.5839 C   0  0  2  0  0  0  0  0  0  0  0  0
    7.0126  -17.3194   22.4946 N   0  0  0  0  0  0  0  0  0  0  0  0
    9.1185  -16.1812   22.3141 C   0  0  0  0  0  0  0  0  0  0  0  0
   10.1129  -15.8115   21.6501 O   0  0  0  0  0  0  0  0  0  0  0  0
   11.5960  -14.3265   17.1017 C   0  0  0  0  0  0  0  0  0  0  0  0
   10.4685  -13.5039   27.7104 C   0  0  0  0  0  0  0  0  0  0  0  0
   11.0193  -14.2326   26.5154 C   0  0  2  0  0  0  0  0  0  0  0  0
    9.9172  -14.8568   25.7353 C   0  0  0  0  0  0  0  0  0  0  0  0
    9.3321  -15.9738   26.6137 C   0  0  2  0  0  0  0  0  0  0  0  0
   10.3029  -15.4950   24.4461 N   0  0  0  0  0  0  0  0  0  0  0  0
    9.1765  -16.0357   23.7118 C   0  0  0  0  0  0  0  0  0  0  0  0
   11.4299  -16.4426   24.5193 O   0  0  0  0  0  0  0  0  0  0  0  0
   12.6931  -16.0847   25.0014 O   0  0  0  0  0  0  0  0  0  0  0  0
  2  1  1  1
  3  2  1  0
  4  3  1  0
  5  4  2  0
  6  5  1  0
  7  6  1  0
  7 12  2  0
  8  7  1  0
  9  8  2  0
  9 10  1  0
 10 11  2  0
 11 12  1  0
 12  4  1  0
 13 14  2  0
 13  2  1  0
 16 17  2  0
 16 15  1  0
 18 16  1  0
 18 19  1  0
 19 20  1  0
 20 21  1  0
 22 21  1  1
 22 23  1  0
 22 24  1  0
 23 13  1  0
 24 31  1  0
 24 25  2  0
 27 26  1  0
 28 27  1  0
 28 29  1  6
 30 28  1  0
 30 31  1  6
 32 33  1  0
 32 30  1  0
 34 32  2  0
M  END
$$$$
