LIF.pdb
     RDKit          3D

 28 28  0  0  1  0  0  0  0  0999 V2000
   20.0266  -16.5076  -14.6561 C   0  0  0  0  0  0  0  0  0  0  0  0
   21.1631  -17.2435  -15.3144 C   0  0  1  0  0  0  0  0  0  0  0  0
   22.1838  -16.2312  -15.7920 C   0  0  0  0  0  0  0  0  0  0  0  0
   21.8645  -18.2119  -14.4198 C   0  0  0  0  0  0  0  0  0  0  0  0
   23.0900  -18.7473  -15.0995 C   0  0  2  0  0  0  0  0  0  0  0  0
   22.7002  -19.4425  -16.3025 N   0  0  0  0  0  0  0  0  0  0  0  0
   23.8113  -19.6196  -14.1346 C   0  0  0  0  0  0  0  0  0  0  0  0
   23.2083  -20.5398  -13.5215 O   0  0  0  0  0  0  0  0  0  0  0  0
   28.2123  -21.5853  -16.0250 C   0  0  0  0  0  0  0  0  0  0  0  0
   26.8683  -21.3001  -15.3410 C   0  0  0  0  0  0  0  0  0  0  0  0
   27.1760  -20.6796  -14.0053 C   0  0  2  0  0  0  0  0  0  0  0  0
   28.1516  -21.4788  -13.1999 C   0  0  0  0  0  0  0  0  0  0  0  0
   25.9885  -20.3496  -13.1757 C   0  0  2  0  0  0  0  0  0  0  0  0
   25.1836  -19.4010  -13.9145 N   0  0  0  0  0  0  0  0  0  0  0  0
   26.3106  -19.7577  -11.8572 C   0  0  0  0  0  0  0  0  0  0  0  0
   26.7864  -18.5876  -11.7416 O   0  0  0  0  0  0  0  0  0  0  0  0
   26.0920  -20.4955  -10.6709 N   0  0  0  0  0  0  0  0  0  0  0  0
   26.8901  -20.2265   -9.4939 C   0  0  1  0  0  0  0  0  0  0  0  0
   26.0655  -20.0870   -8.2580 C   0  0  0  0  0  0  0  0  0  0  0  0
   26.8627  -19.8419   -7.0445 C   0  0  0  0  0  0  0  0  0  0  0  0
   27.4721  -18.6281   -6.7869 C   0  0  0  0  0  0  0  0  0  0  0  0
   28.2178  -18.4037   -5.6487 C   0  0  0  0  0  0  0  0  0  0  0  0
   28.3858  -19.3995   -4.7095 C   0  0  0  0  0  0  0  0  0  0  0  0
   27.7824  -20.6148   -4.9558 C   0  0  0  0  0  0  0  0  0  0  0  0
   27.0365  -20.8362   -6.0962 C   0  0  0  0  0  0  0  0  0  0  0  0
   27.9213  -21.3078   -9.3027 C   0  0  0  0  0  0  0  0  0  0  0  0
   29.0658  -20.9964   -8.8897 O   0  0  0  0  0  0  0  0  0  0  0  0
   27.6627  -22.6378   -9.5652 O   0  0  0  0  0  0  0  0  0  0  0  0
  2  1  1  1
  2  3  1  0
  4  2  1  0
  5  4  1  0
  5  6  1  6
  7  5  1  0
  8  7  2  0
 10 11  1  0
 10  9  1  0
 11 13  1  0
 11 12  1  1
 13 15  1  0
 13 14  1  6
 14  7  1  0
 15 16  2  0
 17 18  1  0
 17 15  1  0
 18 19  1  1
 19 20  1  0
 20 25  2  0
 21 22  2  0
 21 20  1  0
 22 23  1  0
 23 24  2  0
 25 24  1  0
 26 18  1  0
 27 26  2  0
 28 26  1  0
M  END
$$$$
