LIF.pdb
     RDKit          3D

 28 28  0  0  1  0  0  0  0  0999 V2000
   28.1470  -20.0849   -6.3798 C   0  0  0  0  0  0  0  0  0  0  0  0
   28.4848  -20.5822   -7.7601 C   0  0  1  0  0  0  0  0  0  0  0  0
   29.4809  -21.7167   -7.6361 C   0  0  0  0  0  0  0  0  0  0  0  0
   27.3110  -21.0877   -8.5324 C   0  0  0  0  0  0  0  0  0  0  0  0
   27.6920  -21.3036   -9.9673 C   0  0  2  0  0  0  0  0  0  0  0  0
   29.0291  -20.8057  -10.1835 N   0  0  0  0  0  0  0  0  0  0  0  0
   26.6781  -20.6303  -10.8223 C   0  0  0  0  0  0  0  0  0  0  0  0
   26.3818  -19.4199  -10.6397 O   0  0  0  0  0  0  0  0  0  0  0  0
   27.7779  -20.8134  -15.6998 C   0  0  0  0  0  0  0  0  0  0  0  0
   27.2620  -20.3875  -14.3186 C   0  0  0  0  0  0  0  0  0  0  0  0
   25.8777  -20.9576  -14.1696 C   0  0  2  0  0  0  0  0  0  0  0  0
   24.9504  -20.5361  -15.2658 C   0  0  0  0  0  0  0  0  0  0  0  0
   25.2379  -20.7211  -12.8497 C   0  0  2  0  0  0  0  0  0  0  0  0
   26.0509  -21.3683  -11.8428 N   0  0  0  0  0  0  0  0  0  0  0  0
   23.8571  -21.2441  -12.7383 C   0  0  0  0  0  0  0  0  0  0  0  0
   23.6099  -22.4867  -12.6750 O   0  0  0  0  0  0  0  0  0  0  0  0
   22.7582  -20.3553  -12.6990 N   0  0  0  0  0  0  0  0  0  0  0  0
   21.4083  -20.8751  -12.6522 C   0  0  1  0  0  0  0  0  0  0  0  0
   20.4830  -20.0062  -11.8676 C   0  0  0  0  0  0  0  0  0  0  0  0
   19.0938  -20.4940  -11.8483 C   0  0  0  0  0  0  0  0  0  0  0  0
   18.6396  -21.4104  -10.9182 C   0  0  0  0  0  0  0  0  0  0  0  0
   17.3374  -21.8643  -10.9046 C   0  0  0  0  0  0  0  0  0  0  0  0
   16.4247  -21.4125  -11.8346 C   0  0  0  0  0  0  0  0  0  0  0  0
   16.8664  -20.4980  -12.7675 C   0  0  0  0  0  0  0  0  0  0  0  0
   18.1707  -20.0457  -12.7784 C   0  0  0  0  0  0  0  0  0  0  0  0
   20.8726  -21.0661  -14.0471 C   0  0  0  0  0  0  0  0  0  0  0  0
   21.1359  -20.2093  -14.9269 O   0  0  0  0  0  0  0  0  0  0  0  0
   20.0967  -22.1500  -14.4046 O   0  0  0  0  0  0  0  0  0  0  0  0
  2  1  1  1
  2  3  1  0
  4  2  1  0
  5  4  1  0
  5  6  1  1
  7  5  1  0
  8  7  2  0
 10 11  1  0
 10  9  1  0
 11 13  1  0
 11 12  1  6
 13 15  1  0
 13 14  1  1
 14  7  1  0
 15 16  2  0
 17 18  1  0
 17 15  1  0
 18 19  1  1
 19 20  1  0
 20 25  2  0
 21 22  2  0
 21 20  1  0
 22 23  1  0
 23 24  2  0
 25 24  1  0
 26 18  1  0
 27 26  2  0
 28 26  1  0
M  END
$$$$
