LIF.pdb
     RDKit          3D

 28 28  0  0  1  0  0  0  0  0999 V2000
   27.7190  -17.5365  -16.6436 C   0  0  0  0  0  0  0  0  0  0  0  0
   28.2872  -18.6355  -15.7857 C   0  0  1  0  0  0  0  0  0  0  0  0
   29.3072  -18.0343  -14.8408 C   0  0  0  0  0  0  0  0  0  0  0  0
   27.2710  -19.3559  -14.9621 C   0  0  0  0  0  0  0  0  0  0  0  0
   27.9392  -20.3966  -14.1130 C   0  0  2  0  0  0  0  0  0  0  0  0
   28.5763  -21.3693  -14.9676 N   0  0  0  0  0  0  0  0  0  0  0  0
   26.9117  -20.9953  -13.2196 C   0  0  0  0  0  0  0  0  0  0  0  0
   26.2269  -21.9833  -13.5956 O   0  0  0  0  0  0  0  0  0  0  0  0
   27.5090  -20.1402   -7.8483 C   0  0  0  0  0  0  0  0  0  0  0  0
   27.3221  -20.8128   -9.2152 C   0  0  0  0  0  0  0  0  0  0  0  0
   25.9456  -20.4489   -9.7013 C   0  0  2  0  0  0  0  0  0  0  0  0
   24.8602  -20.8964   -8.7733 C   0  0  0  0  0  0  0  0  0  0  0  0
   25.6328  -20.8810  -11.0880 C   0  0  2  0  0  0  0  0  0  0  0  0
   26.7139  -20.4396  -11.9423 N   0  0  0  0  0  0  0  0  0  0  0  0
   24.3647  -20.3371  -11.6253 C   0  0  0  0  0  0  0  0  0  0  0  0
   24.0782  -19.1033  -11.5581 O   0  0  0  0  0  0  0  0  0  0  0  0
   23.4229  -21.1953  -12.2384 N   0  0  0  0  0  0  0  0  0  0  0  0
   22.2147  -20.6481  -12.8175 C   0  0  1  0  0  0  0  0  0  0  0  0
   22.2628  -20.5952  -14.3081 C   0  0  0  0  0  0  0  0  0  0  0  0
   21.0151  -20.1074  -14.9192 C   0  0  0  0  0  0  0  0  0  0  0  0
   20.6649  -18.7701  -14.9300 C   0  0  0  0  0  0  0  0  0  0  0  0
   19.4949  -18.3184  -15.5036 C   0  0  0  0  0  0  0  0  0  0  0  0
   18.6161  -19.1998  -16.0978 C   0  0  0  0  0  0  0  0  0  0  0  0
   18.9550  -20.5365  -16.0930 C   0  0  0  0  0  0  0  0  0  0  0  0
   20.1270  -20.9854  -15.5179 C   0  0  0  0  0  0  0  0  0  0  0  0
   21.0147  -21.4418  -12.3713 C   0  0  0  0  0  0  0  0  0  0  0  0
   21.1311  -22.6796  -12.1927 O   0  0  0  0  0  0  0  0  0  0  0  0
   19.7810  -20.8646  -12.1495 O   0  0  0  0  0  0  0  0  0  0  0  0
  2  1  1  1
  2  3  1  0
  4  2  1  0
  5  4  1  0
  5  6  1  6
  7  5  1  0
  8  7  2  0
 10 11  1  0
 10  9  1  0
 11 13  1  0
 11 12  1  1
 13 15  1  0
 13 14  1  6
 14  7  1  0
 15 16  2  0
 17 18  1  0
 17 15  1  0
 18 19  1  6
 19 20  1  0
 20 25  2  0
 21 22  2  0
 21 20  1  0
 22 23  1  0
 23 24  2  0
 25 24  1  0
 26 18  1  0
 27 26  2  0
 28 26  1  0
M  END
$$$$
