LIF.pdb
     RDKit          3D

 28 28  0  0  1  0  0  0  0  0999 V2000
   27.6119  -17.4428  -16.6706 C   0  0  0  0  0  0  0  0  0  0  0  0
   28.2424  -18.4079  -15.7022 C   0  0  1  0  0  0  0  0  0  0  0  0
   29.0494  -17.6211  -14.6901 C   0  0  0  0  0  0  0  0  0  0  0  0
   27.2630  -19.2484  -14.9512 C   0  0  0  0  0  0  0  0  0  0  0  0
   27.9850  -20.1536  -13.9973 C   0  0  2  0  0  0  0  0  0  0  0  0
   28.8494  -21.0365  -14.7428 N   0  0  0  0  0  0  0  0  0  0  0  0
   26.9694  -20.8822  -13.1912 C   0  0  0  0  0  0  0  0  0  0  0  0
   26.4432  -21.9422  -13.6222 O   0  0  0  0  0  0  0  0  0  0  0  0
   27.1687  -20.4468   -7.7405 C   0  0  0  0  0  0  0  0  0  0  0  0
   27.0911  -21.0148   -9.1642 C   0  0  0  0  0  0  0  0  0  0  0  0
   25.7604  -20.6018   -9.7320 C   0  0  2  0  0  0  0  0  0  0  0  0
   24.6025  -21.0644   -8.9046 C   0  0  0  0  0  0  0  0  0  0  0  0
   25.5416  -20.9691  -11.1549 C   0  0  2  0  0  0  0  0  0  0  0  0
   26.6024  -20.3680  -11.9340 N   0  0  0  0  0  0  0  0  0  0  0  0
   24.2450  -20.5173  -11.7093 C   0  0  0  0  0  0  0  0  0  0  0  0
   23.8353  -19.3239  -11.5793 O   0  0  0  0  0  0  0  0  0  0  0  0
   23.4148  -21.4216  -12.4109 N   0  0  0  0  0  0  0  0  0  0  0  0
   22.2167  -20.9439  -13.0674 C   0  0  1  0  0  0  0  0  0  0  0  0
   22.1218  -21.3890  -14.4885 C   0  0  0  0  0  0  0  0  0  0  0  0
   20.8610  -21.0009  -15.1428 C   0  0  0  0  0  0  0  0  0  0  0  0
   19.7472  -21.8195  -15.1570 C   0  0  0  0  0  0  0  0  0  0  0  0
   18.5686  -21.4513  -15.7714 C   0  0  0  0  0  0  0  0  0  0  0  0
   18.4563  -20.2315  -16.4051 C   0  0  0  0  0  0  0  0  0  0  0  0
   19.5612  -19.4063  -16.3973 C   0  0  0  0  0  0  0  0  0  0  0  0
   20.7395  -19.7779  -15.7814 C   0  0  0  0  0  0  0  0  0  0  0  0
   20.9927  -21.3864  -12.3089 C   0  0  0  0  0  0  0  0  0  0  0  0
   21.0040  -22.4970  -11.7224 O   0  0  0  0  0  0  0  0  0  0  0  0
   19.8481  -20.6195  -12.2304 O   0  0  0  0  0  0  0  0  0  0  0  0
  2  1  1  6
  2  3  1  0
  4  2  1  0
  5  4  1  0
  5  6  1  6
  7  5  1  0
  8  7  2  0
 10 11  1  0
 10  9  1  0
 11 13  1  0
 11 12  1  1
 13 15  1  0
 13 14  1  6
 14  7  1  0
 15 16  2  0
 17 18  1  0
 17 15  1  0
 18 19  1  6
 19 20  1  0
 20 25  2  0
 21 22  2  0
 21 20  1  0
 22 23  1  0
 23 24  2  0
 25 24  1  0
 26 18  1  0
 27 26  2  0
 28 26  1  0
M  END
$$$$
