LIF.pdb
     RDKit          3D

 28 28  0  0  1  0  0  0  0  0999 V2000
   27.1319  -20.4167   -7.5736 C   0  0  0  0  0  0  0  0  0  0  0  0
   27.3013  -20.8806   -8.9958 C   0  0  1  0  0  0  0  0  0  0  0  0
   27.4256  -22.3903   -9.0014 C   0  0  0  0  0  0  0  0  0  0  0  0
   26.1699  -20.5123   -9.8982 C   0  0  0  0  0  0  0  0  0  0  0  0
   26.4431  -20.9966  -11.2915 C   0  0  2  0  0  0  0  0  0  0  0  0
   27.7315  -20.5079  -11.7200 N   0  0  0  0  0  0  0  0  0  0  0  0
   25.3304  -20.5408  -12.1670 C   0  0  0  0  0  0  0  0  0  0  0  0
   25.1449  -19.3149  -12.3886 O   0  0  0  0  0  0  0  0  0  0  0  0
   25.8252  -22.4047  -15.9203 C   0  0  0  0  0  0  0  0  0  0  0  0
   24.9089  -21.2012  -15.6603 C   0  0  0  0  0  0  0  0  0  0  0  0
   23.6812  -21.7236  -14.9649 C   0  0  2  0  0  0  0  0  0  0  0  0
   22.4527  -21.6547  -15.8166 C   0  0  0  0  0  0  0  0  0  0  0  0
   23.4065  -21.1212  -13.6348 C   0  0  2  0  0  0  0  0  0  0  0  0
   24.4832  -21.5029  -12.7466 N   0  0  0  0  0  0  0  0  0  0  0  0
   22.1271  -21.5482  -13.0240 C   0  0  0  0  0  0  0  0  0  0  0  0
   21.9768  -22.6971  -12.5077 O   0  0  0  0  0  0  0  0  0  0  0  0
   21.0193  -20.6699  -13.0001 N   0  0  0  0  0  0  0  0  0  0  0  0
   19.7564  -21.1126  -12.4489 C   0  0  1  0  0  0  0  0  0  0  0  0
   19.2379  -20.1986  -11.3894 C   0  0  0  0  0  0  0  0  0  0  0  0
   19.0246  -18.8186  -11.8569 C   0  0  0  0  0  0  0  0  0  0  0  0
   17.8148  -18.3837  -12.3652 C   0  0  0  0  0  0  0  0  0  0  0  0
   17.6203  -17.0901  -12.8019 C   0  0  0  0  0  0  0  0  0  0  0  0
   18.6434  -16.1670  -12.7464 C   0  0  0  0  0  0  0  0  0  0  0  0
   19.8550  -16.5896  -12.2410 C   0  0  0  0  0  0  0  0  0  0  0  0
   20.0464  -17.8852  -11.8047 C   0  0  0  0  0  0  0  0  0  0  0  0
   18.7319  -21.2625  -13.5429 C   0  0  0  0  0  0  0  0  0  0  0  0
   17.6446  -21.8378  -13.2891 O   0  0  0  0  0  0  0  0  0  0  0  0
   18.9370  -20.7929  -14.8243 O   0  0  0  0  0  0  0  0  0  0  0  0
  2  1  1  1
  2  3  1  0
  4  2  1  0
  5  4  1  0
  5  6  1  6
  7  5  1  0
  8  7  2  0
 10 11  1  0
 10  9  1  0
 11 13  1  0
 11 12  1  6
 13 15  1  0
 13 14  1  1
 14  7  1  0
 15 16  2  0
 17 18  1  0
 17 15  1  0
 18 19  1  1
 19 20  1  0
 20 25  2  0
 21 22  2  0
 21 20  1  0
 22 23  1  0
 23 24  2  0
 25 24  1  0
 26 18  1  0
 27 26  2  0
 28 26  1  0
M  END
$$$$
