LIF.pdb
     RDKit          3D

 28 28  0  0  1  0  0  0  0  0999 V2000
   29.8275  -17.1378  -16.2507 C   0  0  0  0  0  0  0  0  0  0  0  0
   28.8567  -18.2528  -15.9659 C   0  0  1  0  0  0  0  0  0  0  0  0
   29.6144  -19.5644  -15.9569 C   0  0  0  0  0  0  0  0  0  0  0  0
   28.1469  -18.1267  -14.6582 C   0  0  0  0  0  0  0  0  0  0  0  0
   27.2251  -19.2931  -14.4572 C   0  0  2  0  0  0  0  0  0  0  0  0
   26.3809  -19.4368  -15.6188 N   0  0  0  0  0  0  0  0  0  0  0  0
   26.4543  -19.0643  -13.2059 C   0  0  0  0  0  0  0  0  0  0  0  0
   26.0080  -17.9210  -12.9232 O   0  0  0  0  0  0  0  0  0  0  0  0
   22.1392  -21.0426  -13.2127 C   0  0  0  0  0  0  0  0  0  0  0  0
   23.3776  -20.1843  -12.9209 C   0  0  0  0  0  0  0  0  0  0  0  0
   24.0329  -20.7582  -11.6941 C   0  0  2  0  0  0  0  0  0  0  0  0
   23.0925  -20.8941  -10.5380 C   0  0  0  0  0  0  0  0  0  0  0  0
   25.2708  -20.0623  -11.2575 C   0  0  2  0  0  0  0  0  0  0  0  0
   26.2299  -20.1483  -12.3376 N   0  0  0  0  0  0  0  0  0  0  0  0
   25.8920  -20.6289  -10.0387 C   0  0  0  0  0  0  0  0  0  0  0  0
   26.4398  -21.7729  -10.0308 O   0  0  0  0  0  0  0  0  0  0  0  0
   25.8902  -19.8957   -8.8297 N   0  0  0  0  0  0  0  0  0  0  0  0
   26.1107  -20.5750   -7.5710 C   0  0  1  0  0  0  0  0  0  0  0  0
   26.3052  -19.6301   -6.4325 C   0  0  0  0  0  0  0  0  0  0  0  0
   27.6820  -19.6146   -5.9105 C   0  0  0  0  0  0  0  0  0  0  0  0
   28.2432  -20.6971   -5.2591 C   0  0  0  0  0  0  0  0  0  0  0  0
   29.5332  -20.6774   -4.7719 C   0  0  0  0  0  0  0  0  0  0  0  0
   30.3243  -19.5573   -4.9193 C   0  0  0  0  0  0  0  0  0  0  0  0
   29.7750  -18.4712   -5.5676 C   0  0  0  0  0  0  0  0  0  0  0  0
   28.4833  -18.4942   -6.0541 C   0  0  0  0  0  0  0  0  0  0  0  0
   24.9665  -21.5082   -7.2727 C   0  0  0  0  0  0  0  0  0  0  0  0
   23.8206  -21.2301   -7.7054 O   0  0  0  0  0  0  0  0  0  0  0  0
   25.1220  -22.6653   -6.5369 O   0  0  0  0  0  0  0  0  0  0  0  0
  2  1  1  1
  2  3  1  0
  4  2  1  0
  5  4  1  0
  5  6  1  6
  7  5  1  0
  8  7  2  0
 10 11  1  0
 10  9  1  0
 11 13  1  0
 11 12  1  1
 13 15  1  0
 13 14  1  6
 14  7  1  0
 15 16  2  0
 17 18  1  0
 17 15  1  0
 18 19  1  1
 19 20  1  0
 20 25  2  0
 21 22  2  0
 21 20  1  0
 22 23  1  0
 23 24  2  0
 25 24  1  0
 26 18  1  0
 27 26  2  0
 28 26  1  0
M  END
$$$$
