LIF.pdb
     RDKit          3D

 28 28  0  0  1  0  0  0  0  0999 V2000
   36.5084  -29.9977    1.2929 C   0  0  0  0  0  0  0  0  0  0  0  0
   37.5531  -29.0858    1.8791 C   0  0  1  0  0  0  0  0  0  0  0  0
   37.8379  -27.9755    0.8888 C   0  0  0  0  0  0  0  0  0  0  0  0
   37.1568  -28.4534    3.1725 C   0  0  0  0  0  0  0  0  0  0  0  0
   38.2647  -27.5779    3.6792 C   0  0  2  0  0  0  0  0  0  0  0  0
   39.4556  -28.3735    3.8556 N   0  0  0  0  0  0  0  0  0  0  0  0
   37.8067  -26.9337    4.9392 C   0  0  0  0  0  0  0  0  0  0  0  0
   37.5171  -27.6272    5.9499 O   0  0  0  0  0  0  0  0  0  0  0  0
   40.5453  -22.5399    6.3383 C   0  0  0  0  0  0  0  0  0  0  0  0
   39.3129  -23.1732    5.6783 C   0  0  0  0  0  0  0  0  0  0  0  0
   38.7913  -24.2169    6.6281 C   0  0  2  0  0  0  0  0  0  0  0  0
   39.7930  -25.2873    6.9285 C   0  0  0  0  0  0  0  0  0  0  0  0
   37.4971  -24.8334    6.2375 C   0  0  2  0  0  0  0  0  0  0  0  0
   37.7005  -25.5316    4.9865 N   0  0  0  0  0  0  0  0  0  0  0  0
   36.3909  -23.8662    6.0549 C   0  0  0  0  0  0  0  0  0  0  0  0
   36.3171  -23.1102    5.0390 O   0  0  0  0  0  0  0  0  0  0  0  0
   35.3694  -23.7584    7.0265 N   0  0  0  0  0  0  0  0  0  0  0  0
   34.4688  -22.6256    7.0073 C   0  0  1  0  0  0  0  0  0  0  0  0
   33.0429  -23.0259    6.8251 C   0  0  0  0  0  0  0  0  0  0  0  0
   32.7033  -23.3737    5.4351 C   0  0  0  0  0  0  0  0  0  0  0  0
   32.7234  -24.6743    4.9672 C   0  0  0  0  0  0  0  0  0  0  0  0
   32.4046  -24.9947    3.6643 C   0  0  0  0  0  0  0  0  0  0  0  0
   32.0479  -24.0120    2.7648 C   0  0  0  0  0  0  0  0  0  0  0  0
   32.0243  -22.7106    3.2203 C   0  0  0  0  0  0  0  0  0  0  0  0
   32.3440  -22.3932    4.5253 C   0  0  0  0  0  0  0  0  0  0  0  0
   34.6171  -21.8179    8.2702 C   0  0  0  0  0  0  0  0  0  0  0  0
   35.2572  -22.3031    9.2358 O   0  0  0  0  0  0  0  0  0  0  0  0
   34.0744  -20.5574    8.4156 O   0  0  0  0  0  0  0  0  0  0  0  0
  2  1  1  6
  2  3  1  0
  4  2  1  0
  5  4  1  0
  5  6  1  1
  7  5  1  0
  8  7  2  0
 10 11  1  0
 10  9  1  0
 11 13  1  0
 11 12  1  6
 13 15  1  0
 13 14  1  6
 14  7  1  0
 15 16  2  0
 17 18  1  0
 17 15  1  0
 18 19  1  1
 19 20  1  0
 20 25  2  0
 21 22  2  0
 21 20  1  0
 22 23  1  0
 23 24  2  0
 25 24  1  0
 26 18  1  0
 27 26  2  0
 28 26  1  0
M  END
$$$$
