LIF.pdb
     RDKit          3D

 28 28  0  0  1  0  0  0  0  0999 V2000
   30.1721  -21.0192   -9.2998 C   0  0  0  0  0  0  0  0  0  0  0  0
   29.8604  -20.9290  -10.7700 C   0  0  1  0  0  0  0  0  0  0  0  0
   30.4093  -22.1617  -11.4583 C   0  0  0  0  0  0  0  0  0  0  0  0
   28.4026  -20.8430  -11.0820 C   0  0  0  0  0  0  0  0  0  0  0  0
   28.2036  -20.5544  -12.5406 C   0  0  2  0  0  0  0  0  0  0  0  0
   29.2534  -19.6766  -12.9985 N   0  0  0  0  0  0  0  0  0  0  0  0
   26.8454  -19.9743  -12.7171 C   0  0  0  0  0  0  0  0  0  0  0  0
   26.5692  -18.8307  -12.2675 O   0  0  0  0  0  0  0  0  0  0  0  0
   25.0120  -19.6870  -17.4487 C   0  0  0  0  0  0  0  0  0  0  0  0
   25.3077  -19.3979  -15.9707 C   0  0  0  0  0  0  0  0  0  0  0  0
   24.3611  -20.2394  -15.1586 C   0  0  2  0  0  0  0  0  0  0  0  0
   22.9234  -19.9836  -15.4856 C   0  0  0  0  0  0  0  0  0  0  0  0
   24.5628  -20.1731  -13.6881 C   0  0  2  0  0  0  0  0  0  0  0  0
   25.8683  -20.7247  -13.3964 N   0  0  0  0  0  0  0  0  0  0  0  0
   23.5563  -20.9200  -12.8998 C   0  0  0  0  0  0  0  0  0  0  0  0
   23.5159  -22.1878  -12.8862 O   0  0  0  0  0  0  0  0  0  0  0  0
   22.5964  -20.2263  -12.1274 N   0  0  0  0  0  0  0  0  0  0  0  0
   21.5800  -20.9614  -11.4054 C   0  0  1  0  0  0  0  0  0  0  0  0
   21.1634  -20.2814  -10.1441 C   0  0  0  0  0  0  0  0  0  0  0  0
   20.1019  -20.9952   -9.4148 C   0  0  0  0  0  0  0  0  0  0  0  0
   18.7599  -20.8267   -9.7005 C   0  0  0  0  0  0  0  0  0  0  0  0
   17.7695  -21.4975   -9.0142 C   0  0  0  0  0  0  0  0  0  0  0  0
   18.0874  -22.3765   -8.0000 C   0  0  0  0  0  0  0  0  0  0  0  0
   19.4232  -22.5527   -7.7061 C   0  0  0  0  0  0  0  0  0  0  0  0
   20.4122  -21.8796   -8.3951 C   0  0  0  0  0  0  0  0  0  0  0  0
   20.3784  -21.1928  -12.2839 C   0  0  0  0  0  0  0  0  0  0  0  0
   19.8380  -22.3265  -12.2962 O   0  0  0  0  0  0  0  0  0  0  0  0
   19.8406  -20.2058  -13.0847 O   0  0  0  0  0  0  0  0  0  0  0  0
  2  1  1  1
  2  3  1  0
  4  2  1  0
  5  4  1  0
  5  6  1  1
  7  5  1  0
  8  7  2  0
 10 11  1  0
 10  9  1  0
 11 13  1  0
 11 12  1  1
 13 15  1  0
 13 14  1  6
 14  7  1  0
 15 16  2  0
 17 18  1  0
 17 15  1  0
 18 19  1  1
 19 20  1  0
 20 25  2  0
 21 22  2  0
 21 20  1  0
 22 23  1  0
 23 24  2  0
 25 24  1  0
 26 18  1  0
 27 26  2  0
 28 26  1  0
M  END
$$$$
