LIF.pdb
     RDKit          3D

 28 28  0  0  1  0  0  0  0  0999 V2000
  -26.3789  -60.8722  -33.0516 C   0  0  0  0  0  0  0  0  0  0  0  0
  -25.2888  -60.8946  -34.0898 C   0  0  1  0  0  0  0  0  0  0  0  0
  -25.8908  -60.5345  -35.4324 C   0  0  0  0  0  0  0  0  0  0  0  0
  -24.1691  -59.9436  -33.8217 C   0  0  0  0  0  0  0  0  0  0  0  0
  -24.6098  -58.5368  -34.0994 C   0  0  2  0  0  0  0  0  0  0  0  0
  -25.9545  -58.5550  -34.6227 N   0  0  0  0  0  0  0  0  0  0  0  0
  -23.6322  -57.9214  -35.0363 C   0  0  0  0  0  0  0  0  0  0  0  0
  -22.5038  -58.4471  -35.2280 O   0  0  0  0  0  0  0  0  0  0  0  0
  -23.9106  -58.8789  -35.3317 C   0  0  0  0  0  0  0  0  0  0  0  0
  -24.3444  -59.2597  -36.7537 C   0  0  0  0  0  0  0  0  0  0  0  0
  -25.0904  -58.0812  -37.3178 C   0  0  2  0  0  0  0  0  0  0  0  0
  -25.4111  -58.2333  -38.7716 C   0  0  0  0  0  0  0  0  0  0  0  0
  -24.4547  -56.7599  -37.0777 C   0  0  2  0  0  0  0  0  0  0  0  0
  -23.9869  -56.7375  -35.7086 N   0  0  0  0  0  0  0  0  0  0  0  0
  -25.3567  -55.6031  -37.2792 C   0  0  0  0  0  0  0  0  0  0  0  0
  -25.2505  -54.8319  -38.2807 O   0  0  0  0  0  0  0  0  0  0  0  0
  -26.3786  -55.3231  -36.3429 N   0  0  0  0  0  0  0  0  0  0  0  0
  -27.0438  -54.0378  -36.3603 C   0  0  1  0  0  0  0  0  0  0  0  0
  -26.1032  -52.9053  -36.6045 C   0  0  0  0  0  0  0  0  0  0  0  0
  -25.0863  -53.1966  -37.6289 C   0  0  0  0  0  0  0  0  0  0  0  0
  -24.2705  -52.2188  -38.1668 C   0  0  0  0  0  0  0  0  0  0  0  0
  -23.3196  -52.4968  -39.1262 C   0  0  0  0  0  0  0  0  0  0  0  0
  -23.1450  -53.7830  -39.5923 C   0  0  0  0  0  0  0  0  0  0  0  0
  -23.9534  -54.7669  -39.0629 C   0  0  0  0  0  0  0  0  0  0  0  0
  -24.9043  -54.4853  -38.1025 C   0  0  0  0  0  0  0  0  0  0  0  0
  -28.1370  -54.0286  -37.3966 C   0  0  0  0  0  0  0  0  0  0  0  0
  -28.4189  -52.9525  -37.9798 O   0  0  0  0  0  0  0  0  0  0  0  0
  -28.8507  -55.1600  -37.7359 O   0  0  0  0  0  0  0  0  0  0  0  0
  2  1  1  1
  2  3  1  0
  4  2  1  0
  5  4  1  0
  5  6  1  6
  7  5  1  0
  8  7  2  0
 10 11  1  0
 10  9  1  0
 11 13  1  0
 11 12  1  6
 13 15  1  0
 13 14  1  1
 14  7  1  0
 15 16  2  0
 17 18  1  0
 17 15  1  0
 18 19  1  6
 19 20  1  0
 20 25  2  0
 21 22  2  0
 21 20  1  0
 22 23  1  0
 23 24  2  0
 25 24  1  0
 26 18  1  0
 27 26  2  0
 28 26  1  0
M  END
$$$$
