LIF.pdb
     RDKit          3D

 28 28  0  0  1  0  0  0  0  0999 V2000
   21.5746  -23.4325  -14.6301 C   0  0  0  0  0  0  0  0  0  0  0  0
   22.3462  -24.6537  -14.2058 C   0  0  1  0  0  0  0  0  0  0  0  0
   22.2915  -25.6742  -15.3239 C   0  0  0  0  0  0  0  0  0  0  0  0
   23.7835  -24.3921  -13.8963 C   0  0  0  0  0  0  0  0  0  0  0  0
   24.2968  -23.2660  -14.7442 C   0  0  2  0  0  0  0  0  0  0  0  0
   24.6437  -23.7744  -16.0494 N   0  0  0  0  0  0  0  0  0  0  0  0
   25.4498  -22.6440  -14.0399 C   0  0  0  0  0  0  0  0  0  0  0  0
   26.5274  -23.2770  -13.8829 O   0  0  0  0  0  0  0  0  0  0  0  0
   26.8033  -17.6699  -15.2414 C   0  0  0  0  0  0  0  0  0  0  0  0
   26.8353  -19.1618  -14.8829 C   0  0  0  0  0  0  0  0  0  0  0  0
   26.4835  -19.2726  -13.4242 C   0  0  2  0  0  0  0  0  0  0  0  0
   27.3576  -18.4332  -12.5464 C   0  0  0  0  0  0  0  0  0  0  0  0
   26.4212  -20.6595  -12.8950 C   0  0  2  0  0  0  0  0  0  0  0  0
   25.3193  -21.3322  -13.5485 N   0  0  0  0  0  0  0  0  0  0  0  0
   26.2154  -20.7455  -11.4312 C   0  0  0  0  0  0  0  0  0  0  0  0
   25.0616  -20.6847  -10.9079 O   0  0  0  0  0  0  0  0  0  0  0  0
   27.3206  -20.9003  -10.5629 N   0  0  0  0  0  0  0  0  0  0  0  0
   27.1290  -20.8399   -9.1297 C   0  0  1  0  0  0  0  0  0  0  0  0
   28.3994  -20.5877   -8.3885 C   0  0  0  0  0  0  0  0  0  0  0  0
   28.1999  -20.3236   -6.9537 C   0  0  0  0  0  0  0  0  0  0  0  0
   28.0616  -21.3361   -6.0227 C   0  0  0  0  0  0  0  0  0  0  0  0
   27.8749  -21.0834   -4.6799 C   0  0  0  0  0  0  0  0  0  0  0  0
   27.8182  -19.7885   -4.2085 C   0  0  0  0  0  0  0  0  0  0  0  0
   27.9549  -18.7700   -5.1282 C   0  0  0  0  0  0  0  0  0  0  0  0
   28.1418  -19.0265   -6.4718 C   0  0  0  0  0  0  0  0  0  0  0  0
   26.1141  -19.7825   -8.7817 C   0  0  0  0  0  0  0  0  0  0  0  0
   25.1034  -20.1020   -8.1079 O   0  0  0  0  0  0  0  0  0  0  0  0
   26.2454  -18.4664   -9.1753 O   0  0  0  0  0  0  0  0  0  0  0  0
  2  1  1  6
  2  3  1  0
  4  2  1  0
  5  4  1  0
  5  6  1  6
  7  5  1  0
  8  7  2  0
 10 11  1  0
 10  9  1  0
 11 13  1  0
 11 12  1  1
 13 15  1  0
 13 14  1  6
 14  7  1  0
 15 16  2  0
 17 18  1  0
 17 15  1  0
 18 19  1  1
 19 20  1  0
 20 25  2  0
 21 22  2  0
 21 20  1  0
 22 23  1  0
 23 24  2  0
 25 24  1  0
 26 18  1  0
 27 26  2  0
 28 26  1  0
M  END
$$$$
