LIF.pdb
     RDKit          3D

 28 28  0  0  1  0  0  0  0  0999 V2000
   19.0962  -23.8756   -8.1514 C   0  0  0  0  0  0  0  0  0  0  0  0
   20.1206  -23.3201   -7.1981 C   0  0  1  0  0  0  0  0  0  0  0  0
   20.9576  -24.4647   -6.6653 C   0  0  0  0  0  0  0  0  0  0  0  0
   21.0480  -22.3224   -7.8100 C   0  0  0  0  0  0  0  0  0  0  0  0
   22.0179  -21.8212   -6.7811 C   0  0  2  0  0  0  0  0  0  0  0  0
   21.2920  -21.1397   -5.7365 N   0  0  0  0  0  0  0  0  0  0  0  0
   23.0073  -20.9459   -7.4646 C   0  0  0  0  0  0  0  0  0  0  0  0
   22.6648  -19.8273   -7.9314 O   0  0  0  0  0  0  0  0  0  0  0  0
   27.9617  -20.4730   -5.5380 C   0  0  0  0  0  0  0  0  0  0  0  0
   26.5970  -20.1581   -6.1658 C   0  0  0  0  0  0  0  0  0  0  0  0
   26.6120  -20.7233   -7.5601 C   0  0  2  0  0  0  0  0  0  0  0  0
   27.7282  -20.1836   -8.3980 C   0  0  0  0  0  0  0  0  0  0  0  0
   25.3278  -20.6111   -8.2988 C   0  0  2  0  0  0  0  0  0  0  0  0
   24.3379  -21.3872   -7.5836 N   0  0  0  0  0  0  0  0  0  0  0  0
   25.3820  -21.1013   -9.6950 C   0  0  0  0  0  0  0  0  0  0  0  0
   25.4891  -22.3342   -9.9730 O   0  0  0  0  0  0  0  0  0  0  0  0
   25.3147  -20.1904  -10.7744 N   0  0  0  0  0  0  0  0  0  0  0  0
   25.2151  -20.6828  -12.1317 C   0  0  1  0  0  0  0  0  0  0  0  0
   23.9073  -20.3528  -12.7700 C   0  0  0  0  0  0  0  0  0  0  0  0
   23.8488  -20.6955  -14.2008 C   0  0  0  0  0  0  0  0  0  0  0  0
   24.0532  -19.7611  -15.1989 C   0  0  0  0  0  0  0  0  0  0  0  0
   23.9972  -20.0872  -16.5377 C   0  0  0  0  0  0  0  0  0  0  0  0
   23.7304  -21.3802  -16.9367 C   0  0  0  0  0  0  0  0  0  0  0  0
   23.5246  -22.3210  -15.9497 C   0  0  0  0  0  0  0  0  0  0  0  0
   23.5815  -21.9913  -14.6104 C   0  0  0  0  0  0  0  0  0  0  0  0
   26.3448  -20.1419  -12.9686 C   0  0  0  0  0  0  0  0  0  0  0  0
   26.8925  -20.8906  -13.8154 O   0  0  0  0  0  0  0  0  0  0  0  0
   26.8104  -18.8487  -12.8443 O   0  0  0  0  0  0  0  0  0  0  0  0
  2  1  1  6
  2  3  1  0
  4  2  1  0
  5  4  1  0
  5  6  1  1
  7  5  1  0
  8  7  2  0
 10 11  1  0
 10  9  1  0
 11 13  1  0
 11 12  1  6
 13 15  1  0
 13 14  1  1
 14  7  1  0
 15 16  2  0
 17 18  1  0
 17 15  1  0
 18 19  1  6
 19 20  1  0
 20 25  2  0
 21 22  2  0
 21 20  1  0
 22 23  1  0
 23 24  2  0
 25 24  1  0
 26 18  1  0
 27 26  2  0
 28 26  1  0
M  END
$$$$
