REP.pdb
     RDKit          3D

 28 28  0  0  1  0  0  0  0  0999 V2000
   19.6670  -16.0614  -19.1487 N   0  0  0  0  0  0  0  0  0  0  0  0
   20.5540  -16.7667  -18.2900 C   0  0  0  0  0  0  0  0  0  0  0  0
   20.6489  -18.0624  -18.3265 N   0  0  0  0  0  0  0  0  0  0  0  0
   21.3459  -16.0427  -17.3780 N   0  0  0  0  0  0  0  0  0  0  0  0
   21.3984  -14.6054  -17.3021 C   0  0  0  0  0  0  0  0  0  0  0  0
   20.0710  -14.0507  -16.8657 C   0  0  0  0  0  0  0  0  0  0  0  0
   20.0832  -12.5344  -16.8827 C   0  0  0  0  0  0  0  0  0  0  0  0
   18.7634  -12.0343  -16.3395 C   0  0  2  0  0  0  0  0  0  0  0  0
   17.6786  -12.5948  -17.1201 N   0  0  0  0  0  0  0  0  0  0  0  0
   18.6660  -10.5596  -16.4057 C   0  0  0  0  0  0  0  0  0  0  0  0
   18.4596   -9.9950  -17.4874 O   0  0  0  0  0  0  0  0  0  0  0  0
   21.2537  -18.5933  -17.6636 N   0  0  0  0  0  0  0  0  0  0  0  0
   18.8005   -9.7274  -15.2465 C   0  0  1  0  0  0  0  0  0  0  0  0
   18.7722   -8.3087  -15.2293 C   0  0  0  0  0  0  0  0  0  0  0  0
   17.4827   -7.6442  -14.9188 C   0  0  0  0  0  0  0  0  0  0  0  0
   17.4104   -6.1939  -14.7373 C   0  0  0  0  0  0  0  0  0  0  0  0
   16.1223   -5.5828  -14.4162 O   0  0  0  0  0  0  0  0  0  0  0  0
   15.0913   -6.2662  -14.3073 C   0  0  0  0  0  0  0  0  0  0  0  0
   19.9526   -7.5949  -14.7273 O   0  0  0  0  0  0  0  0  0  0  0  0
   20.4484   -8.0763  -13.6179 O   0  0  0  0  0  0  0  0  0  0  0  0
   16.0266   -4.2183  -14.2258 N   0  0  0  0  0  0  0  0  0  0  0  0
   20.6431   -6.4875  -15.2195 C   0  0  0  0  0  0  0  0  0  0  0  0
   20.3323   -5.6388  -16.3234 C   0  0  0  0  0  0  0  0  0  0  0  0
   21.6874   -5.1745  -16.8272 C   0  0  0  0  0  0  0  0  0  0  0  0
   22.7118   -5.7185  -15.8774 C   0  0  2  0  0  0  0  0  0  0  0  0
   21.8843   -5.9457  -14.6354 C   0  0  0  0  0  0  0  0  0  0  0  0
   21.6331   -4.6295  -14.0084 O   0  0  0  0  0  0  0  0  0  0  0  0
   22.5103   -3.9593  -13.3994 O   0  0  0  0  0  0  0  0  0  0  0  0
  1  2  1  0
  2  3  2  0
  4  5  1  0
  4  2  1  0
  6  5  1  0
  7  6  1  0
  8  7  1  0
  8  9  1  6
 10  8  1  0
 11 10  2  0
 12 10  1  0
 13 12  1  0
 14 15  1  0
 13 14  1  6
 16 15  1  0
 16 20  1  0
 17 16  2  0
 18 21  1  0
 18 13  1  0
 19 18  2  0
 21 22  1  0
 22 23  1  0
 24 23  1  0
 25 21  1  0
 25 24  1  0
 25 26  1  1
 27 26  2  0
 28 26  1  0
M  END
$$$$
