REP.pdb
     RDKit          3D

 28 28  0  0  1  0  0  0  0  0999 V2000
   18.8000  -17.2643  -14.7298 N   0  0  0  0  0  0  0  0  0  0  0  0
   18.3914  -18.5454  -15.1915 C   0  0  0  0  0  0  0  0  0  0  0  0
   17.4870  -18.6786  -16.1153 N   0  0  0  0  0  0  0  0  0  0  0  0
   18.9802  -19.6958  -14.6320 N   0  0  0  0  0  0  0  0  0  0  0  0
   20.3842  -20.0100  -14.6977 C   0  0  0  0  0  0  0  0  0  0  0  0
   20.6082  -21.2632  -15.4974 C   0  0  0  0  0  0  0  0  0  0  0  0
   21.6096  -21.0258  -16.6111 C   0  0  0  0  0  0  0  0  0  0  0  0
   22.9953  -21.3318  -16.0885 C   0  0  2  0  0  0  0  0  0  0  0  0
   22.8987  -21.8251  -14.7293 N   0  0  0  0  0  0  0  0  0  0  0  0
   23.8577  -20.1298  -16.0831 C   0  0  0  0  0  0  0  0  0  0  0  0
   23.7635  -19.2972  -15.1725 O   0  0  0  0  0  0  0  0  0  0  0  0
   17.1421  -19.6130  -16.4237 N   0  0  0  0  0  0  0  0  0  0  0  0
   24.8265  -19.8742  -17.1081 C   0  0  2  0  0  0  0  0  0  0  0  0
   25.7102  -18.7651  -17.1639 C   0  0  0  0  0  0  0  0  0  0  0  0
   26.9632  -18.9150  -17.9439 C   0  0  0  0  0  0  0  0  0  0  0  0
   27.8898  -17.7929  -18.0981 C   0  0  0  0  0  0  0  0  0  0  0  0
   29.1194  -17.9887  -18.8633 O   0  0  0  0  0  0  0  0  0  0  0  0
   29.1119  -18.0124  -20.1048 C   0  0  0  0  0  0  0  0  0  0  0  0
   25.1325  -17.4164  -17.2075 O   0  0  0  0  0  0  0  0  0  0  0  0
   23.9743  -17.3397  -17.8082 O   0  0  0  0  0  0  0  0  0  0  0  0
   30.3264  -18.1529  -18.2126 N   0  0  0  0  0  0  0  0  0  0  0  0
   25.5993  -16.1937  -16.7251 C   0  0  0  0  0  0  0  0  0  0  0  0
   26.8638  -15.8651  -16.1519 C   0  0  0  0  0  0  0  0  0  0  0  0
   26.5502  -14.7391  -15.1826 C   0  0  0  0  0  0  0  0  0  0  0  0
   25.0968  -14.4135  -15.3533 C   0  0  1  0  0  0  0  0  0  0  0  0
   24.8296  -14.9357  -16.7442 C   0  0  0  0  0  0  0  0  0  0  0  0
   25.4168  -13.9811  -17.7098 O   0  0  0  0  0  0  0  0  0  0  0  0
   26.4197  -14.2339  -18.4307 O   0  0  0  0  0  0  0  0  0  0  0  0
  1  2  1  0
  2  3  2  0
  4  5  1  0
  4  2  1  0
  6  5  1  0
  7  6  1  0
  8  7  1  0
  8  9  1  1
 10  8  1  0
 11 10  2  0
 12 10  1  0
 13 12  1  0
 14 15  1  0
 13 14  1  6
 16 15  1  0
 16 20  1  0
 17 16  2  0
 18 21  1  0
 18 13  1  0
 19 18  2  0
 21 22  1  0
 22 23  1  0
 24 23  1  0
 25 21  1  0
 25 24  1  0
 25 26  1  6
 27 26  2  0
 28 26  1  0
M  END
$$$$
