REP.pdb
     RDKit          3D

 28 28  0  0  1  0  0  0  0  0999 V2000
   24.5259  -21.0655   -8.9577 N   0  0  0  0  0  0  0  0  0  0  0  0
   25.8939  -20.6808   -8.9146 C   0  0  0  0  0  0  0  0  0  0  0  0
   26.5036  -20.4623   -7.7878 N   0  0  0  0  0  0  0  0  0  0  0  0
   26.6027  -20.5317  -10.1223 N   0  0  0  0  0  0  0  0  0  0  0  0
   26.0680  -20.8288  -11.4262 C   0  0  0  0  0  0  0  0  0  0  0  0
   27.0717  -20.5002  -12.4961 C   0  0  0  0  0  0  0  0  0  0  0  0
   26.4967  -20.7511  -13.8767 C   0  0  0  0  0  0  0  0  0  0  0  0
   25.4396  -21.8275  -13.7718 C   0  0  2  0  0  0  0  0  0  0  0  0
   25.9876  -23.0865  -14.2354 N   0  0  0  0  0  0  0  0  0  0  0  0
   24.2506  -21.5111  -14.5931 C   0  0  0  0  0  0  0  0  0  0  0  0
   24.3072  -21.5806  -15.8274 O   0  0  0  0  0  0  0  0  0  0  0  0
   27.5138  -20.2080   -7.7437 N   0  0  0  0  0  0  0  0  0  0  0  0
   22.9992  -21.1185  -14.0149 C   0  0  2  0  0  0  0  0  0  0  0  0
   21.7866  -20.8988  -14.7187 C   0  0  0  0  0  0  0  0  0  0  0  0
   20.5135  -21.0590  -13.9740 C   0  0  0  0  0  0  0  0  0  0  0  0
   19.2261  -20.8300  -14.6310 C   0  0  0  0  0  0  0  0  0  0  0  0
   17.9950  -21.0507  -13.8749 O   0  0  0  0  0  0  0  0  0  0  0  0
   18.0101  -21.5952  -12.7590 C   0  0  0  0  0  0  0  0  0  0  0  0
   21.7564  -19.8468  -15.7419 O   0  0  0  0  0  0  0  0  0  0  0  0
   22.3701  -18.7429  -15.4056 O   0  0  0  0  0  0  0  0  0  0  0  0
   16.7782  -20.6535  -14.3933 N   0  0  0  0  0  0  0  0  0  0  0  0
   21.1851  -19.8090  -17.0138 C   0  0  0  0  0  0  0  0  0  0  0  0
   20.3602  -20.7710  -17.6692 C   0  0  0  0  0  0  0  0  0  0  0  0
   20.6804  -20.5917  -19.1426 C   0  0  0  0  0  0  0  0  0  0  0  0
   21.6162  -19.4247  -19.2431 C   0  0  2  0  0  0  0  0  0  0  0  0
   21.3197  -18.6861  -17.9605 C   0  0  0  0  0  0  0  0  0  0  0  0
   20.0264  -17.9871  -18.1259 O   0  0  0  0  0  0  0  0  0  0  0  0
   18.9693  -18.3057  -17.5170 O   0  0  0  0  0  0  0  0  0  0  0  0
  1  2  1  0
  2  3  2  0
  4  5  1  0
  4  2  1  0
  6  5  1  0
  7  6  1  0
  8  7  1  0
  8  9  1  6
 10  8  1  0
 11 10  2  0
 12 10  1  0
 13 12  1  0
 14 15  1  0
 13 14  1  1
 16 15  1  0
 16 20  1  0
 17 16  2  0
 18 21  1  0
 18 13  1  0
 19 18  2  0
 21 22  1  0
 22 23  1  0
 24 23  1  0
 25 21  1  0
 25 24  1  0
 25 26  1  6
 27 26  2  0
 28 26  1  0
M  END
$$$$
