REP.pdb
     RDKit          3D

 28 28  0  0  1  0  0  0  0  0999 V2000
   31.4442  -23.3080  -17.7245 N   0  0  0  0  0  0  0  0  0  0  0  0
   31.9900  -24.2228  -18.6660 C   0  0  0  0  0  0  0  0  0  0  0  0
   32.6205  -23.8126  -19.7259 N   0  0  0  0  0  0  0  0  0  0  0  0
   31.8412  -25.6055  -18.4442 N   0  0  0  0  0  0  0  0  0  0  0  0
   31.1212  -26.1834  -17.3388 C   0  0  0  0  0  0  0  0  0  0  0  0
   29.6424  -26.1747  -17.6094 C   0  0  0  0  0  0  0  0  0  0  0  0
   28.8821  -26.8720  -16.4978 C   0  0  0  0  0  0  0  0  0  0  0  0
   27.4050  -26.8234  -16.8182 C   0  0  2  0  0  0  0  0  0  0  0  0
   26.7818  -25.7611  -16.0545 N   0  0  0  0  0  0  0  0  0  0  0  0
   26.7278  -28.0943  -16.4793 C   0  0  0  0  0  0  0  0  0  0  0  0
   26.3332  -28.3037  -15.3253 O   0  0  0  0  0  0  0  0  0  0  0  0
   33.0439  -24.4750  -20.4108 N   0  0  0  0  0  0  0  0  0  0  0  0
   26.4970  -29.1246  -17.4486 C   0  0  2  0  0  0  0  0  0  0  0  0
   25.8452  -30.3628  -17.2119 C   0  0  0  0  0  0  0  0  0  0  0  0
   24.7287  -30.7425  -18.1121 C   0  0  0  0  0  0  0  0  0  0  0  0
   24.0116  -32.0046  -17.9271 C   0  0  0  0  0  0  0  0  0  0  0  0
   22.9374  -32.3524  -18.8550 O   0  0  0  0  0  0  0  0  0  0  0  0
   22.6799  -33.5350  -19.1323 C   0  0  0  0  0  0  0  0  0  0  0  0
   26.6524  -31.4961  -16.7442 O   0  0  0  0  0  0  0  0  0  0  0  0
   27.8167  -31.6119  -17.3267 O   0  0  0  0  0  0  0  0  0  0  0  0
   22.1803  -31.3610  -19.4475 N   0  0  0  0  0  0  0  0  0  0  0  0
   26.4000  -32.4802  -15.7885 C   0  0  0  0  0  0  0  0  0  0  0  0
   25.2106  -32.7425  -15.0454 C   0  0  0  0  0  0  0  0  0  0  0  0
   25.7124  -33.3248  -13.7359 C   0  0  0  0  0  0  0  0  0  0  0  0
   27.1995  -33.4640  -13.8659 C   0  0  1  0  0  0  0  0  0  0  0  0
   27.3708  -33.5066  -15.3650 C   0  0  0  0  0  0  0  0  0  0  0  0
   26.9504  -34.8453  -15.8338 O   0  0  0  0  0  0  0  0  0  0  0  0
   27.5722  -35.9109  -15.5745 O   0  0  0  0  0  0  0  0  0  0  0  0
  1  2  1  0
  2  3  2  0
  4  5  1  0
  4  2  1  0
  6  5  1  0
  7  6  1  0
  8  7  1  0
  8  9  1  1
 10  8  1  0
 11 10  2  0
 12 10  1  0
 13 12  1  0
 14 15  1  0
 13 14  1  6
 16 15  1  0
 16 20  1  0
 17 16  2  0
 18 21  1  0
 18 13  1  0
 19 18  2  0
 21 22  1  0
 22 23  1  0
 24 23  1  0
 25 21  1  0
 25 24  1  0
 25 26  1  6
 27 26  2  0
 28 26  1  0
M  END
$$$$
