REP.pdb
     RDKit          3D

 28 28  0  0  1  0  0  0  0  0999 V2000
   28.3544  -20.3474  -17.6981 N   0  0  0  0  0  0  0  0  0  0  0  0
   27.1503  -20.1891  -16.9588 C   0  0  0  0  0  0  0  0  0  0  0  0
   26.1257  -19.5616  -17.4544 N   0  0  0  0  0  0  0  0  0  0  0  0
   27.0686  -20.7236  -15.6586 N   0  0  0  0  0  0  0  0  0  0  0  0
   27.2612  -22.1132  -15.3322 C   0  0  0  0  0  0  0  0  0  0  0  0
   27.1604  -22.3258  -13.8474 C   0  0  0  0  0  0  0  0  0  0  0  0
   25.7226  -22.5648  -13.4287 C   0  0  0  0  0  0  0  0  0  0  0  0
   25.2506  -21.3766  -12.6209 C   0  0  2  0  0  0  0  0  0  0  0  0
   25.5833  -21.5812  -11.2253 N   0  0  0  0  0  0  0  0  0  0  0  0
   23.7867  -21.1895  -12.7239 C   0  0  0  0  0  0  0  0  0  0  0  0
   23.0224  -21.8200  -11.9826 O   0  0  0  0  0  0  0  0  0  0  0  0
   25.2660  -19.3743  -16.8950 N   0  0  0  0  0  0  0  0  0  0  0  0
   23.1915  -20.2870  -13.6651 C   0  0  2  0  0  0  0  0  0  0  0  0
   21.8030  -20.1436  -13.9209 C   0  0  0  0  0  0  0  0  0  0  0  0
   21.3636  -18.9833  -14.7343 C   0  0  0  0  0  0  0  0  0  0  0  0
   21.9457  -18.7275  -16.0523 C   0  0  0  0  0  0  0  0  0  0  0  0
   21.4788  -17.5764  -16.8224 O   0  0  0  0  0  0  0  0  0  0  0  0
   20.6681  -16.7654  -16.3461 C   0  0  0  0  0  0  0  0  0  0  0  0
   21.0036  -21.3578  -14.1245 O   0  0  0  0  0  0  0  0  0  0  0  0
   21.6736  -22.3784  -14.5912 O   0  0  0  0  0  0  0  0  0  0  0  0
   21.9355  -17.3671  -18.1087 N   0  0  0  0  0  0  0  0  0  0  0  0
   19.6503  -21.6211  -13.9132 C   0  0  0  0  0  0  0  0  0  0  0  0
   18.6268  -20.7683  -13.4025 C   0  0  0  0  0  0  0  0  0  0  0  0
   17.6650  -21.7172  -12.7096 C   0  0  0  0  0  0  0  0  0  0  0  0
   18.1619  -23.1067  -12.9744 C   0  0  1  0  0  0  0  0  0  0  0  0
   18.9869  -22.9017  -14.2218 C   0  0  0  0  0  0  0  0  0  0  0  0
   18.0575  -22.7448  -15.3621 O   0  0  0  0  0  0  0  0  0  0  0  0
   17.3691  -23.6839  -15.8454 O   0  0  0  0  0  0  0  0  0  0  0  0
  1  2  1  0
  2  3  2  0
  4  5  1  0
  4  2  1  0
  6  5  1  0
  7  6  1  0
  8  7  1  0
  8  9  1  1
 10  8  1  0
 11 10  2  0
 12 10  1  0
 13 12  1  0
 14 15  1  0
 13 14  1  1
 16 15  1  0
 16 20  1  0
 17 16  2  0
 18 21  1  0
 18 13  1  0
 19 18  2  0
 21 22  1  0
 22 23  1  0
 24 23  1  0
 25 21  1  0
 25 24  1  0
 25 26  1  6
 27 26  2  0
 28 26  1  0
M  END
$$$$
