REP.pdb
     RDKit          3D

 28 28  0  0  1  0  0  0  0  0999 V2000
   30.1483  -22.9468  -15.9678 N   0  0  0  0  0  0  0  0  0  0  0  0
   29.3362  -22.3488  -16.9699 C   0  0  0  0  0  0  0  0  0  0  0  0
   29.1569  -22.9138  -18.1265 N   0  0  0  0  0  0  0  0  0  0  0  0
   28.7140  -21.1142  -16.7018 N   0  0  0  0  0  0  0  0  0  0  0  0
   28.9307  -20.3306  -15.5130 C   0  0  0  0  0  0  0  0  0  0  0  0
   29.0214  -21.2193  -14.3039 C   0  0  0  0  0  0  0  0  0  0  0  0
   28.6826  -20.4535  -13.0395 C   0  0  0  0  0  0  0  0  0  0  0  0
   27.1882  -20.2255  -12.9982 C   0  0  2  0  0  0  0  0  0  0  0  0
   26.8340  -19.1852  -13.9430 N   0  0  0  0  0  0  0  0  0  0  0  0
   26.7343  -19.8033  -11.6550 C   0  0  0  0  0  0  0  0  0  0  0  0
   27.1825  -18.7714  -11.1396 O   0  0  0  0  0  0  0  0  0  0  0  0
   28.6047  -22.4605  -18.8859 N   0  0  0  0  0  0  0  0  0  0  0  0
   25.7721  -20.5497  -10.8989 C   0  0  2  0  0  0  0  0  0  0  0  0
   25.5077  -20.4072   -9.5120 C   0  0  0  0  0  0  0  0  0  0  0  0
   24.1532  -20.7647   -9.0236 C   0  0  0  0  0  0  0  0  0  0  0  0
   23.8603  -20.8113   -7.5906 C   0  0  0  0  0  0  0  0  0  0  0  0
   22.5118  -21.1670   -7.1536 O   0  0  0  0  0  0  0  0  0  0  0  0
   21.6225  -21.4566   -7.9704 C   0  0  0  0  0  0  0  0  0  0  0  0
   26.5871  -20.7060   -8.5632 O   0  0  0  0  0  0  0  0  0  0  0  0
   27.2862  -21.7717   -8.8525 O   0  0  0  0  0  0  0  0  0  0  0  0
   22.1979  -21.1880   -5.8090 N   0  0  0  0  0  0  0  0  0  0  0  0
   27.0026  -20.0579   -7.4000 C   0  0  0  0  0  0  0  0  0  0  0  0
   26.4839  -18.8830   -6.7787 C   0  0  0  0  0  0  0  0  0  0  0  0
   27.6894  -18.2617   -6.0957 C   0  0  0  0  0  0  0  0  0  0  0  0
   28.8323  -19.2131   -6.2857 C   0  0  2  0  0  0  0  0  0  0  0  0
   28.1072  -20.5133   -6.5353 C   0  0  0  0  0  0  0  0  0  0  0  0
   27.5865  -21.0006   -5.2392 O   0  0  0  0  0  0  0  0  0  0  0  0
   26.3668  -20.9907   -4.9202 O   0  0  0  0  0  0  0  0  0  0  0  0
  1  2  1  0
  2  3  2  0
  4  5  1  0
  4  2  1  0
  6  5  1  0
  7  6  1  0
  8  7  1  0
  8  9  1  6
 10  8  1  0
 11 10  2  0
 12 10  1  0
 13 12  1  0
 14 15  1  0
 13 14  1  6
 16 15  1  0
 16 20  1  0
 17 16  2  0
 18 21  1  0
 18 13  1  0
 19 18  2  0
 21 22  1  0
 22 23  1  0
 24 23  1  0
 25 21  1  0
 25 24  1  0
 25 26  1  1
 27 26  2  0
 28 26  1  0
M  END
$$$$
