REP.pdb
     RDKit          3D

 28 28  0  0  1  0  0  0  0  0999 V2000
   29.5668  -19.4967  -11.8064 N   0  0  0  0  0  0  0  0  0  0  0  0
   29.6619  -20.9020  -12.0005 C   0  0  0  0  0  0  0  0  0  0  0  0
   30.6101  -21.6015  -11.4522 N   0  0  0  0  0  0  0  0  0  0  0  0
   28.7064  -21.5489  -12.8077 N   0  0  0  0  0  0  0  0  0  0  0  0
   27.8142  -20.8766  -13.7168 C   0  0  0  0  0  0  0  0  0  0  0  0
   26.7727  -20.1019  -12.9583 C   0  0  0  0  0  0  0  0  0  0  0  0
   25.7626  -21.0331  -12.3163 C   0  0  0  0  0  0  0  0  0  0  0  0
   24.7627  -21.4603  -13.3674 C   0  0  2  0  0  0  0  0  0  0  0  0
   24.9990  -20.7145  -14.5873 N   0  0  0  0  0  0  0  0  0  0  0  0
   23.3705  -21.2091  -12.9349 C   0  0  0  0  0  0  0  0  0  0  0  0
   22.9955  -21.5508  -11.8062 O   0  0  0  0  0  0  0  0  0  0  0  0
   30.6942  -22.6308  -11.5955 N   0  0  0  0  0  0  0  0  0  0  0  0
   22.4063  -20.5695  -13.7809 C   0  0  1  0  0  0  0  0  0  0  0  0
   21.0236  -20.4140  -13.5019 C   0  0  0  0  0  0  0  0  0  0  0  0
   20.3493  -19.1889  -13.9976 C   0  0  0  0  0  0  0  0  0  0  0  0
   21.1007  -18.1547  -14.7097 C   0  0  0  0  0  0  0  0  0  0  0  0
   20.3839  -16.9987  -15.2443 O   0  0  0  0  0  0  0  0  0  0  0  0
   20.6012  -16.5769  -16.3917 C   0  0  0  0  0  0  0  0  0  0  0  0
   20.1739  -21.6110  -13.5049 O   0  0  0  0  0  0  0  0  0  0  0  0
   20.5493  -22.5426  -14.3413 O   0  0  0  0  0  0  0  0  0  0  0  0
   19.4409  -16.3466  -14.4745 N   0  0  0  0  0  0  0  0  0  0  0  0
   19.0297  -21.9355  -12.7762 C   0  0  0  0  0  0  0  0  0  0  0  0
   18.3108  -21.1596  -11.8187 C   0  0  0  0  0  0  0  0  0  0  0  0
   17.7220  -22.1911  -10.8726 C   0  0  0  0  0  0  0  0  0  0  0  0
   18.0630  -23.5384  -11.4347 C   0  0  1  0  0  0  0  0  0  0  0  0
   18.2969  -23.2104  -12.8895 C   0  0  0  0  0  0  0  0  0  0  0  0
   16.9786  -22.9981  -13.5262 O   0  0  0  0  0  0  0  0  0  0  0  0
   16.5219  -21.8663  -13.8425 O   0  0  0  0  0  0  0  0  0  0  0  0
  1  2  1  0
  2  3  2  0
  4  5  1  0
  4  2  1  0
  6  5  1  0
  7  6  1  0
  8  7  1  0
  8  9  1  6
 10  8  1  0
 11 10  2  0
 12 10  1  0
 13 12  1  0
 14 15  1  0
 13 14  1  1
 16 15  1  0
 16 20  1  0
 17 16  2  0
 18 21  1  0
 18 13  1  0
 19 18  2  0
 21 22  1  0
 22 23  1  0
 24 23  1  0
 25 21  1  0
 25 24  1  0
 25 26  1  6
 27 26  2  0
 28 26  1  0
M  END
$$$$
