REP.pdb
     RDKit          3D

 28 28  0  0  1  0  0  0  0  0999 V2000
   33.2151  -26.0917  -15.7906 N   0  0  0  0  0  0  0  0  0  0  0  0
   32.9810  -26.3438  -17.1700 C   0  0  0  0  0  0  0  0  0  0  0  0
   33.6371  -27.2624  -17.8143 N   0  0  0  0  0  0  0  0  0  0  0  0
   32.0165  -25.5781  -17.8531 N   0  0  0  0  0  0  0  0  0  0  0  0
   31.3096  -24.4588  -17.2858 C   0  0  0  0  0  0  0  0  0  0  0  0
   30.0329  -24.2044  -18.0378 C   0  0  0  0  0  0  0  0  0  0  0  0
   28.9901  -23.5682  -17.1393 C   0  0  0  0  0  0  0  0  0  0  0  0
   29.5593  -22.2884  -16.5690 C   0  0  2  0  0  0  0  0  0  0  0  0
   30.7643  -22.5890  -15.8219 N   0  0  0  0  0  0  0  0  0  0  0  0
   28.6046  -21.6218  -15.6565 C   0  0  0  0  0  0  0  0  0  0  0  0
   28.6855  -21.7930  -14.4336 O   0  0  0  0  0  0  0  0  0  0  0  0
   33.4263  -27.5019  -18.8069 N   0  0  0  0  0  0  0  0  0  0  0  0
   27.5613  -20.7609  -16.1308 C   0  0  1  0  0  0  0  0  0  0  0  0
   26.6116  -20.0788  -15.3267 C   0  0  0  0  0  0  0  0  0  0  0  0
   25.9932  -18.8476  -15.8770 C   0  0  0  0  0  0  0  0  0  0  0  0
   24.8871  -18.1883  -15.1819 C   0  0  0  0  0  0  0  0  0  0  0  0
   24.2718  -17.0088  -15.7869 O   0  0  0  0  0  0  0  0  0  0  0  0
   24.9608  -16.0930  -16.2648 C   0  0  0  0  0  0  0  0  0  0  0  0
   25.7145  -20.8760  -14.4814 O   0  0  0  0  0  0  0  0  0  0  0  0
   25.1987  -21.9223  -15.0709 O   0  0  0  0  0  0  0  0  0  0  0  0
   22.8970  -16.8893  -15.8390 N   0  0  0  0  0  0  0  0  0  0  0  0
   25.3069  -20.7171  -13.1571 C   0  0  0  0  0  0  0  0  0  0  0  0
   25.5489  -19.6393  -12.2540 C   0  0  0  0  0  0  0  0  0  0  0  0
   25.5697  -20.2989  -10.8865 C   0  0  0  0  0  0  0  0  0  0  0  0
   25.2162  -21.7407  -11.0961 C   0  0  2  0  0  0  0  0  0  0  0  0
   24.4795  -21.6847  -12.4124 C   0  0  0  0  0  0  0  0  0  0  0  0
   23.1323  -21.1295  -12.1572 O   0  0  0  0  0  0  0  0  0  0  0  0
   22.2141  -21.7528  -11.5588 O   0  0  0  0  0  0  0  0  0  0  0  0
  1  2  1  0
  2  3  2  0
  4  5  1  0
  4  2  1  0
  6  5  1  0
  7  6  1  0
  8  7  1  0
  8  9  1  1
 10  8  1  0
 11 10  2  0
 12 10  1  0
 13 12  1  0
 14 15  1  0
 13 14  1  1
 16 15  1  0
 16 20  1  0
 17 16  2  0
 18 21  1  0
 18 13  1  0
 19 18  2  0
 21 22  1  0
 22 23  1  0
 24 23  1  0
 25 21  1  0
 25 24  1  0
 25 26  1  1
 27 26  2  0
 28 26  1  0
M  END
$$$$
