REP.pdb
     RDKit          3D

 28 28  0  0  1  0  0  0  0  0999 V2000
   29.7041  -21.3505  -17.7520 N   0  0  0  0  0  0  0  0  0  0  0  0
   28.4601  -21.1677  -18.4156 C   0  0  0  0  0  0  0  0  0  0  0  0
   28.0659  -21.9742  -19.3555 N   0  0  0  0  0  0  0  0  0  0  0  0
   27.6380  -20.0857  -18.0459 N   0  0  0  0  0  0  0  0  0  0  0  0
   27.8729  -19.2311  -16.9106 C   0  0  0  0  0  0  0  0  0  0  0  0
   27.9333  -20.0395  -15.6446 C   0  0  0  0  0  0  0  0  0  0  0  0
   26.9759  -19.4921  -14.6037 C   0  0  0  0  0  0  0  0  0  0  0  0
   26.2475  -20.6507  -13.9601 C   0  0  2  0  0  0  0  0  0  0  0  0
   25.9864  -21.6687  -14.9580 N   0  0  0  0  0  0  0  0  0  0  0  0
   24.9534  -20.2309  -13.3792 C   0  0  0  0  0  0  0  0  0  0  0  0
   24.9102  -19.3212  -12.5413 O   0  0  0  0  0  0  0  0  0  0  0  0
   27.1523  -21.8535  -19.8433 N   0  0  0  0  0  0  0  0  0  0  0  0
   23.7104  -20.8409  -13.7498 C   0  0  2  0  0  0  0  0  0  0  0  0
   22.4342  -20.5278  -13.2139 C   0  0  0  0  0  0  0  0  0  0  0  0
   21.4499  -19.8675  -14.1062 C   0  0  0  0  0  0  0  0  0  0  0  0
   21.8182  -18.6841  -14.8843 C   0  0  0  0  0  0  0  0  0  0  0  0
   20.8134  -18.0580  -15.7413 O   0  0  0  0  0  0  0  0  0  0  0  0
   19.7150  -18.5978  -15.9508 C   0  0  0  0  0  0  0  0  0  0  0  0
   21.8392  -21.4563  -12.2451 O   0  0  0  0  0  0  0  0  0  0  0  0
   22.0347  -22.7207  -12.5125 O   0  0  0  0  0  0  0  0  0  0  0  0
   21.0699  -16.8408  -16.3410 N   0  0  0  0  0  0  0  0  0  0  0  0
   21.0953  -21.2337  -11.0864 C   0  0  0  0  0  0  0  0  0  0  0  0
   20.6522  -20.0052  -10.5121 C   0  0  0  0  0  0  0  0  0  0  0  0
   20.6081  -20.2876   -9.0208 C   0  0  0  0  0  0  0  0  0  0  0  0
   20.9335  -21.7405   -8.8458 C   0  0  1  0  0  0  0  0  0  0  0  0
   20.5798  -22.2969  -10.2037 C   0  0  0  0  0  0  0  0  0  0  0  0
   19.1053  -22.3778  -10.2929 O   0  0  0  0  0  0  0  0  0  0  0  0
   18.4073  -23.2313   -9.6813 O   0  0  0  0  0  0  0  0  0  0  0  0
  1  2  1  0
  2  3  2  0
  4  5  1  0
  4  2  1  0
  6  5  1  0
  7  6  1  0
  8  7  1  0
  8  9  1  6
 10  8  1  0
 11 10  2  0
 12 10  1  0
 13 12  1  0
 14 15  1  0
 13 14  1  1
 16 15  1  0
 16 20  1  0
 17 16  2  0
 18 21  1  0
 18 13  1  0
 19 18  2  0
 21 22  1  0
 22 23  1  0
 24 23  1  0
 25 21  1  0
 25 24  1  0
 25 26  1  6
 27 26  2  0
 28 26  1  0
M  END
$$$$
