REP.pdb
     RDKit          3D

 28 28  0  0  1  0  0  0  0  0999 V2000
   26.3732  -24.4620  -15.5316 N   0  0  0  0  0  0  0  0  0  0  0  0
   27.1769  -24.9292  -16.6073 C   0  0  0  0  0  0  0  0  0  0  0  0
   27.3165  -26.1982  -16.8505 N   0  0  0  0  0  0  0  0  0  0  0  0
   27.8380  -23.9934  -17.4261 N   0  0  0  0  0  0  0  0  0  0  0  0
   27.5661  -22.5791  -17.4354 C   0  0  0  0  0  0  0  0  0  0  0  0
   28.1271  -21.9254  -16.2033 C   0  0  0  0  0  0  0  0  0  0  0  0
   27.0206  -21.3442  -15.3444 C   0  0  0  0  0  0  0  0  0  0  0  0
   26.4196  -20.1594  -16.0668 C   0  0  2  0  0  0  0  0  0  0  0  0
   27.3297  -19.0344  -15.9857 N   0  0  0  0  0  0  0  0  0  0  0  0
   25.1276  -19.7518  -15.4726 C   0  0  0  0  0  0  0  0  0  0  0  0
   25.0853  -19.2917  -14.3246 O   0  0  0  0  0  0  0  0  0  0  0  0
   27.8741  -26.5504  -17.6580 N   0  0  0  0  0  0  0  0  0  0  0  0
   23.8863  -19.8642  -16.1805 C   0  0  2  0  0  0  0  0  0  0  0  0
   22.5984  -19.5773  -15.6582 C   0  0  0  0  0  0  0  0  0  0  0  0
   21.6513  -18.8281  -16.5200 C   0  0  0  0  0  0  0  0  0  0  0  0
   20.2872  -18.5488  -16.0699 C   0  0  0  0  0  0  0  0  0  0  0  0
   19.3523  -17.9102  -16.9941 O   0  0  0  0  0  0  0  0  0  0  0  0
   18.9409  -18.4986  -18.0071 C   0  0  0  0  0  0  0  0  0  0  0  0
   21.9611  -20.5750  -14.7903 O   0  0  0  0  0  0  0  0  0  0  0  0
   22.1921  -21.8165  -15.1275 O   0  0  0  0  0  0  0  0  0  0  0  0
   18.9041  -16.6261  -16.7552 N   0  0  0  0  0  0  0  0  0  0  0  0
   21.1459  -20.4385  -13.6668 C   0  0  0  0  0  0  0  0  0  0  0  0
   20.5272  -19.2710  -13.1284 C   0  0  0  0  0  0  0  0  0  0  0  0
   20.4547  -19.5443  -11.6365 C   0  0  0  0  0  0  0  0  0  0  0  0
   20.9525  -20.9430  -11.4282 C   0  0  1  0  0  0  0  0  0  0  0  0
   20.7306  -21.5509  -12.7919 C   0  0  0  0  0  0  0  0  0  0  0  0
   19.2832  -21.8181  -12.9415 O   0  0  0  0  0  0  0  0  0  0  0  0
   18.5125  -21.1398  -13.6732 O   0  0  0  0  0  0  0  0  0  0  0  0
  1  2  1  0
  2  3  2  0
  4  5  1  0
  4  2  1  0
  6  5  1  0
  7  6  1  0
  8  7  1  0
  8  9  1  1
 10  8  1  0
 11 10  2  0
 12 10  1  0
 13 12  1  0
 14 15  1  0
 13 14  1  6
 16 15  1  0
 16 20  1  0
 17 16  2  0
 18 21  1  0
 18 13  1  0
 19 18  2  0
 21 22  1  0
 22 23  1  0
 24 23  1  0
 25 21  1  0
 25 24  1  0
 25 26  1  1
 27 26  2  0
 28 26  1  0
M  END
$$$$
