THY.pdb
     RDKit          3D

 30 31  0  0  1  0  0  0  0  0999 V2000
   16.6343   -9.2901  -14.7551 C   0  0  0  0  0  0  0  0  0  0  0  0
   16.8044  -10.7935  -14.7847 C   0  0  1  0  0  0  0  0  0  0  0  0
   15.5541  -11.3509  -14.8424 O   0  0  0  0  0  0  0  0  0  0  0  0
   17.6968  -11.2266  -15.9316 C   0  0  2  0  0  0  0  0  0  0  0  0
   17.7948  -12.6871  -15.8657 N   0  0  0  0  0  0  0  0  0  0  0  0
   19.0406  -10.6377  -15.8553 C   0  0  0  0  0  0  0  0  0  0  0  0
   19.8579  -11.0659  -14.9867 O   0  0  0  0  0  0  0  0  0  0  0  0
   19.5301   -9.5952  -16.6921 N   0  0  0  0  0  0  0  0  0  0  0  0
   20.8221   -8.9518  -16.5243 C   0  0  1  0  0  0  0  0  0  0  0  0
   21.6351   -9.1065  -17.7457 C   0  0  0  0  0  0  0  0  0  0  0  0
   22.2203  -10.4148  -18.0154 C   0  0  0  0  0  0  0  0  0  0  0  0
   22.2560  -11.6070  -17.3483 C   0  0  0  0  0  0  0  0  0  0  0  0
   22.9583  -12.5473  -18.0268 N   0  0  0  0  0  0  0  0  0  0  0  0
   23.3696  -11.9082  -19.1499 C   0  0  0  0  0  0  0  0  0  0  0  0
   22.9364  -10.6418  -19.1526 N   0  0  0  0  0  0  0  0  0  0  0  0
   20.6294   -7.4976  -16.1698 C   0  0  0  0  0  0  0  0  0  0  0  0
   19.9149   -6.7288  -16.8797 O   0  0  0  0  0  0  0  0  0  0  0  0
   17.8440   -8.5055   -9.8082 O   0  0  0  0  0  0  0  0  0  0  0  0
   18.2623   -7.7166  -10.8885 C   0  0  0  0  0  0  0  0  0  0  0  0
   17.9141   -8.1141  -12.1644 C   0  0  0  0  0  0  0  0  0  0  0  0
   18.3049   -7.3679  -13.2441 C   0  0  0  0  0  0  0  0  0  0  0  0
   19.0505   -6.2075  -13.1045 C   0  0  0  0  0  0  0  0  0  0  0  0
   19.4648   -5.4252  -14.2584 C   0  0  0  0  0  0  0  0  0  0  0  0
   20.9564   -5.5694  -14.5727 C   0  0  2  0  0  0  0  0  0  0  0  0
   21.2369   -6.9250  -15.0311 N   0  0  0  0  0  0  0  0  0  0  0  0
   21.8028   -5.1686  -13.4552 C   0  0  0  0  0  0  0  0  0  0  0  0
   22.6667   -6.1090  -12.8397 O   0  0  0  0  0  0  0  0  0  0  0  0
   19.3941   -5.8158  -11.8365 C   0  0  0  0  0  0  0  0  0  0  0  0
   18.9988   -6.5723  -10.7268 C   0  0  0  0  0  0  0  0  0  0  0  0
   21.8510   -4.0206  -12.9548 O   0  0  0  0  0  0  0  0  0  0  0  0
  2  1  1  6
  2  3  1  0
  4  2  1  0
  4  5  1  1
  6  4  1  0
  6  7  2  0
  8  6  1  0
  9  8  1  0
  9 10  1  6
 10 11  1  0
 11 15  1  0
 11 12  2  0
 12 13  1  0
 14 13  1  0
 15 14  2  0
 16  9  1  0
 17 16  2  0
 18 19  1  0
 19 29  2  0
 20 19  1  0
 20 21  2  0
 21 22  1  0
 22 28  2  0
 22 23  1  0
 24 23  1  1
 24 25  1  0
 25 16  1  0
 26 24  1  0
 27 26  1  0
 29 28  1  0
 30 26  2  0
M  END
$$$$
