THY.pdb
     RDKit          3D

 30 31  0  0  1  0  0  0  0  0999 V2000
   26.5373  -12.4046  -15.6277 C   0  0  0  0  0  0  0  0  0  0  0  0
   26.4608  -13.7027  -16.4019 C   0  0  1  0  0  0  0  0  0  0  0  0
   27.4263  -14.5386  -15.9057 O   0  0  0  0  0  0  0  0  0  0  0  0
   25.0702  -14.3039  -16.3374 C   0  0  2  0  0  0  0  0  0  0  0  0
   25.1289  -15.5868  -17.0429 N   0  0  0  0  0  0  0  0  0  0  0  0
   24.0538  -13.4445  -16.9593 C   0  0  0  0  0  0  0  0  0  0  0  0
   24.0518  -13.2959  -18.2178 O   0  0  0  0  0  0  0  0  0  0  0  0
   23.0356  -12.7372  -16.2598 N   0  0  0  0  0  0  0  0  0  0  0  0
   22.1387  -11.7745  -16.8765 C   0  0  1  0  0  0  0  0  0  0  0  0
   20.7480  -12.2648  -16.8291 C   0  0  0  0  0  0  0  0  0  0  0  0
   20.3717  -13.3405  -17.7392 C   0  0  0  0  0  0  0  0  0  0  0  0
   21.0316  -14.0728  -18.6856 C   0  0  0  0  0  0  0  0  0  0  0  0
   20.2174  -14.9725  -19.2899 N   0  0  0  0  0  0  0  0  0  0  0  0
   19.0141  -14.7841  -18.6936 C   0  0  0  0  0  0  0  0  0  0  0  0
   19.0953  -13.8174  -17.7715 N   0  0  0  0  0  0  0  0  0  0  0  0
   22.2754  -10.4351  -16.1946 C   0  0  0  0  0  0  0  0  0  0  0  0
   22.4784  -10.3412  -14.9474 O   0  0  0  0  0  0  0  0  0  0  0  0
   22.5767   -1.5898  -15.3411 O   0  0  0  0  0  0  0  0  0  0  0  0
   22.6746   -2.9067  -15.8110 C   0  0  0  0  0  0  0  0  0  0  0  0
   21.5677   -3.4724  -16.4122 C   0  0  0  0  0  0  0  0  0  0  0  0
   21.6266   -4.7567  -16.8837 C   0  0  0  0  0  0  0  0  0  0  0  0
   22.7751   -5.5261  -16.7791 C   0  0  0  0  0  0  0  0  0  0  0  0
   22.8253   -6.8911  -17.2786 C   0  0  0  0  0  0  0  0  0  0  0  0
   22.2669   -7.9117  -16.2830 C   0  0  2  0  0  0  0  0  0  0  0  0
   22.1828   -9.2238  -16.9139 N   0  0  0  0  0  0  0  0  0  0  0  0
   20.9995   -7.4868  -15.7009 C   0  0  0  0  0  0  0  0  0  0  0  0
   20.9782   -6.7822  -14.4711 O   0  0  0  0  0  0  0  0  0  0  0  0
   23.8721   -4.9612  -16.1818 C   0  0  0  0  0  0  0  0  0  0  0  0
   23.8211   -3.6488  -15.6972 C   0  0  0  0  0  0  0  0  0  0  0  0
   19.8670   -7.6882  -16.1986 O   0  0  0  0  0  0  0  0  0  0  0  0
  2  1  1  1
  2  3  1  0
  4  2  1  0
  4  5  1  6
  6  4  1  0
  6  7  2  0
  8  6  1  0
  9  8  1  0
  9 10  1  1
 10 11  1  0
 11 15  1  0
 11 12  2  0
 12 13  1  0
 14 13  1  0
 15 14  2  0
 16  9  1  0
 17 16  2  0
 18 19  1  0
 19 29  2  0
 20 19  1  0
 20 21  2  0
 21 22  1  0
 22 28  2  0
 22 23  1  0
 24 23  1  6
 24 25  1  0
 25 16  1  0
 26 24  1  0
 27 26  1  0
 29 28  1  0
 30 26  2  0
M  END
$$$$
