THY.pdb
     RDKit          3D

 30 31  0  0  1  0  0  0  0  0999 V2000
   17.2307   -8.1895  -18.0433 C   0  0  0  0  0  0  0  0  0  0  0  0
   17.2782   -9.6676  -17.7221 C   0  0  1  0  0  0  0  0  0  0  0  0
   16.3342  -10.2903  -18.4957 O   0  0  0  0  0  0  0  0  0  0  0  0
   18.6710  -10.2326  -17.9222 C   0  0  2  0  0  0  0  0  0  0  0  0
   18.6008  -11.6603  -17.6000 N   0  0  0  0  0  0  0  0  0  0  0  0
   19.6728   -9.5822  -17.0666 C   0  0  0  0  0  0  0  0  0  0  0  0
   20.1917  -10.2343  -16.1121 O   0  0  0  0  0  0  0  0  0  0  0  0
   20.1324   -8.2427  -17.2114 N   0  0  0  0  0  0  0  0  0  0  0  0
   21.2247   -7.6666  -16.4455 C   0  0  1  0  0  0  0  0  0  0  0  0
   22.4542   -8.4615  -16.6272 C   0  0  0  0  0  0  0  0  0  0  0  0
   22.6372   -9.6385  -15.7856 C   0  0  0  0  0  0  0  0  0  0  0  0
   21.9525  -10.1852  -14.7369 C   0  0  0  0  0  0  0  0  0  0  0  0
   22.5502  -11.3094  -14.2714 N   0  0  0  0  0  0  0  0  0  0  0  0
   23.6418  -11.4566  -15.0623 C   0  0  0  0  0  0  0  0  0  0  0  0
   23.7024  -10.4698  -15.9645 N   0  0  0  0  0  0  0  0  0  0  0  0
   21.4326   -6.2277  -16.8501 C   0  0  0  0  0  0  0  0  0  0  0  0
   21.7372   -5.9079  -18.0378 O   0  0  0  0  0  0  0  0  0  0  0  0
   16.7809   -4.4771  -20.4314 O   0  0  0  0  0  0  0  0  0  0  0  0
   17.6707   -4.0810  -19.4235 C   0  0  0  0  0  0  0  0  0  0  0  0
   17.5050   -4.6083  -18.1580 C   0  0  0  0  0  0  0  0  0  0  0  0
   18.3557   -4.2445  -17.1484 C   0  0  0  0  0  0  0  0  0  0  0  0
   19.3962   -3.3509  -17.3501 C   0  0  0  0  0  0  0  0  0  0  0  0
   20.2908   -2.9673  -16.2695 C   0  0  0  0  0  0  0  0  0  0  0  0
   21.5888   -3.7793  -16.2528 C   0  0  2  0  0  0  0  0  0  0  0  0
   21.2985   -5.1701  -15.9244 N   0  0  0  0  0  0  0  0  0  0  0  0
   22.6001   -3.1959  -15.3796 C   0  0  0  0  0  0  0  0  0  0  0  0
   23.1438   -1.9190  -15.6687 O   0  0  0  0  0  0  0  0  0  0  0  0
   19.5578   -2.8296  -18.6077 C   0  0  0  0  0  0  0  0  0  0  0  0
   18.6931   -3.1960  -19.6459 C   0  0  0  0  0  0  0  0  0  0  0  0
   23.0642   -3.7310  -14.3457 O   0  0  0  0  0  0  0  0  0  0  0  0
  2  1  1  6
  2  3  1  0
  4  2  1  0
  4  5  1  1
  6  4  1  0
  6  7  2  0
  8  6  1  0
  9  8  1  0
  9 10  1  6
 10 11  1  0
 11 15  1  0
 11 12  2  0
 12 13  1  0
 14 13  1  0
 15 14  2  0
 16  9  1  0
 17 16  2  0
 18 19  1  0
 19 29  2  0
 20 19  1  0
 20 21  2  0
 21 22  1  0
 22 28  2  0
 22 23  1  0
 24 23  1  1
 24 25  1  0
 25 16  1  0
 26 24  1  0
 27 26  1  0
 29 28  1  0
 30 26  2  0
M  END
$$$$
