THY.pdb
     RDKit          3D

 30 31  0  0  1  0  0  0  0  0999 V2000
   21.6084  -15.7184  -14.8972 C   0  0  0  0  0  0  0  0  0  0  0  0
   21.2457  -15.3892  -16.3291 C   0  0  1  0  0  0  0  0  0  0  0  0
   20.6756  -14.1433  -16.3362 O   0  0  0  0  0  0  0  0  0  0  0  0
   22.4518  -15.4911  -17.2425 C   0  0  2  0  0  0  0  0  0  0  0  0
   21.9947  -15.1428  -18.5904 N   0  0  0  0  0  0  0  0  0  0  0  0
   23.0403  -16.8373  -17.2532 C   0  0  0  0  0  0  0  0  0  0  0  0
   22.3875  -17.7962  -17.7631 O   0  0  0  0  0  0  0  0  0  0  0  0
   24.3176  -17.1803  -16.7268 N   0  0  0  0  0  0  0  0  0  0  0  0
   24.8327  -18.5370  -16.6518 C   0  0  1  0  0  0  0  0  0  0  0  0
   26.3037  -18.5222  -16.5398 C   0  0  0  0  0  0  0  0  0  0  0  0
   26.9929  -19.8024  -16.4256 C   0  0  0  0  0  0  0  0  0  0  0  0
   26.5917  -21.1075  -16.3700 C   0  0  0  0  0  0  0  0  0  0  0  0
   27.6415  -21.9563  -16.2468 N   0  0  0  0  0  0  0  0  0  0  0  0
   28.7257  -21.1421  -16.2244 C   0  0  0  0  0  0  0  0  0  0  0  0
   28.3512  -19.8615  -16.3300 N   0  0  0  0  0  0  0  0  0  0  0  0
   24.1978  -19.2639  -15.4917 C   0  0  0  0  0  0  0  0  0  0  0  0
   24.2279  -18.7939  -14.3154 O   0  0  0  0  0  0  0  0  0  0  0  0
   18.1248  -18.4772  -11.2849 O   0  0  0  0  0  0  0  0  0  0  0  0
   18.9302  -19.1664  -12.2019 C   0  0  0  0  0  0  0  0  0  0  0  0
   19.4440  -20.3933  -11.8309 C   0  0  0  0  0  0  0  0  0  0  0  0
   20.2345  -21.0955  -12.7011 C   0  0  0  0  0  0  0  0  0  0  0  0
   20.5456  -20.6144  -13.9635 C   0  0  0  0  0  0  0  0  0  0  0  0
   21.3905  -21.3660  -14.8780 C   0  0  0  0  0  0  0  0  0  0  0  0
   22.8832  -21.2140  -14.5727 C   0  0  2  0  0  0  0  0  0  0  0  0
   23.5413  -20.5022  -15.6621 N   0  0  0  0  0  0  0  0  0  0  0  0
   23.5225  -22.4884  -14.2681 C   0  0  0  0  0  0  0  0  0  0  0  0
   24.4772  -23.0402  -15.1590 O   0  0  0  0  0  0  0  0  0  0  0  0
   20.0336  -19.3961  -14.3285 C   0  0  0  0  0  0  0  0  0  0  0  0
   19.2243  -18.6714  -13.4455 C   0  0  0  0  0  0  0  0  0  0  0  0
   23.3071  -23.1846  -13.2485 O   0  0  0  0  0  0  0  0  0  0  0  0
  2  1  1  1
  2  3  1  0
  4  2  1  0
  4  5  1  6
  6  4  1  0
  6  7  2  0
  8  6  1  0
  9  8  1  0
  9 10  1  1
 10 11  1  0
 11 15  1  0
 11 12  2  0
 12 13  1  0
 14 13  1  0
 15 14  2  0
 16  9  1  0
 17 16  2  0
 18 19  1  0
 19 29  2  0
 20 19  1  0
 20 21  2  0
 21 22  1  0
 22 28  2  0
 22 23  1  0
 24 23  1  6
 24 25  1  0
 25 16  1  0
 26 24  1  0
 27 26  1  0
 29 28  1  0
 30 26  2  0
M  END
$$$$
