THY.pdb
     RDKit          3D

 30 31  0  0  1  0  0  0  0  0999 V2000
   19.9834  -12.0113  -19.5769 C   0  0  0  0  0  0  0  0  0  0  0  0
   20.7831  -13.2244  -19.1537 C   0  0  1  0  0  0  0  0  0  0  0  0
   20.6216  -14.1841  -20.1182 O   0  0  0  0  0  0  0  0  0  0  0  0
   22.2375  -12.8708  -18.9111 C   0  0  2  0  0  0  0  0  0  0  0  0
   22.9234  -14.1153  -18.5536 N   0  0  0  0  0  0  0  0  0  0  0  0
   22.4075  -11.8864  -17.8339 C   0  0  0  0  0  0  0  0  0  0  0  0
   22.2326  -12.2454  -16.6313 O   0  0  0  0  0  0  0  0  0  0  0  0
   22.7615  -10.5198  -18.0174 N   0  0  0  0  0  0  0  0  0  0  0  0
   22.8574   -9.5491  -16.9403 C   0  0  1  0  0  0  0  0  0  0  0  0
   24.2477   -9.0770  -16.7970 C   0  0  0  0  0  0  0  0  0  0  0  0
   25.2537  -10.0380  -16.3594 C   0  0  0  0  0  0  0  0  0  0  0  0
   25.2299  -11.3554  -15.9968 C   0  0  0  0  0  0  0  0  0  0  0  0
   26.4591  -11.8078  -15.6475 N   0  0  0  0  0  0  0  0  0  0  0  0
   27.2657  -10.7285  -15.7999 C   0  0  0  0  0  0  0  0  0  0  0  0
   26.5596   -9.6728  -16.2224 N   0  0  0  0  0  0  0  0  0  0  0  0
   21.9087   -8.4035  -17.1956 C   0  0  0  0  0  0  0  0  0  0  0  0
   21.7920   -7.8796  -18.3434 O   0  0  0  0  0  0  0  0  0  0  0  0
   15.1550   -2.8081  -16.5333 O   0  0  0  0  0  0  0  0  0  0  0  0
   16.0585   -3.8723  -16.4081 C   0  0  0  0  0  0  0  0  0  0  0  0
   16.5808   -4.1456  -15.1593 C   0  0  0  0  0  0  0  0  0  0  0  0
   17.4661   -5.1780  -14.9989 C   0  0  0  0  0  0  0  0  0  0  0  0
   17.8665   -5.9746  -16.0606 C   0  0  0  0  0  0  0  0  0  0  0  0
   18.8114   -7.0653  -15.8801 C   0  0  0  0  0  0  0  0  0  0  0  0
   20.2224   -6.7185  -16.3632 C   0  0  2  0  0  0  0  0  0  0  0  0
   21.1073   -7.8611  -16.1676 N   0  0  0  0  0  0  0  0  0  0  0  0
   20.7370   -5.4992  -15.7518 C   0  0  0  0  0  0  0  0  0  0  0  0
   20.5570   -4.2474  -16.3922 O   0  0  0  0  0  0  0  0  0  0  0  0
   17.3458   -5.7004  -17.2988 C   0  0  0  0  0  0  0  0  0  0  0  0
   16.4400   -4.6472  -17.4721 C   0  0  0  0  0  0  0  0  0  0  0  0
   21.3536   -5.4362  -14.6625 O   0  0  0  0  0  0  0  0  0  0  0  0
  2  1  1  6
  2  3  1  0
  4  2  1  0
  4  5  1  1
  6  4  1  0
  6  7  2  0
  8  6  1  0
  9  8  1  0
  9 10  1  6
 10 11  1  0
 11 15  1  0
 11 12  2  0
 12 13  1  0
 14 13  1  0
 15 14  2  0
 16  9  1  0
 17 16  2  0
 18 19  1  0
 19 29  2  0
 20 19  1  0
 20 21  2  0
 21 22  1  0
 22 28  2  0
 22 23  1  0
 24 23  1  1
 24 25  1  0
 25 16  1  0
 26 24  1  0
 27 26  1  0
 29 28  1  0
 30 26  2  0
M  END
$$$$
