THY.pdb
     RDKit          3D

 30 31  0  0  1  0  0  0  0  0999 V2000
   35.9021  -31.4859  -19.1982 C   0  0  0  0  0  0  0  0  0  0  0  0
   35.4879  -30.0503  -18.9576 C   0  0  1  0  0  0  0  0  0  0  0  0
   35.7052  -29.3563  -20.1188 O   0  0  0  0  0  0  0  0  0  0  0  0
   34.0524  -29.9619  -18.4774 C   0  0  2  0  0  0  0  0  0  0  0  0
   33.7911  -28.5520  -18.1762 N   0  0  0  0  0  0  0  0  0  0  0  0
   33.8061  -30.7764  -17.2796 C   0  0  0  0  0  0  0  0  0  0  0  0
   33.9483  -30.2544  -16.1338 O   0  0  0  0  0  0  0  0  0  0  0  0
   33.4101  -32.1438  -17.2825 N   0  0  0  0  0  0  0  0  0  0  0  0
   33.0739  -32.8992  -16.0876 C   0  0  1  0  0  0  0  0  0  0  0  0
   31.9300  -33.7931  -16.3503 C   0  0  0  0  0  0  0  0  0  0  0  0
   30.5887  -33.2249  -16.2788 C   0  0  0  0  0  0  0  0  0  0  0  0
   30.0164  -32.1985  -15.5813 C   0  0  0  0  0  0  0  0  0  0  0  0
   28.6955  -32.0710  -15.8585 N   0  0  0  0  0  0  0  0  0  0  0  0
   28.4484  -33.0560  -16.7572 C   0  0  0  0  0  0  0  0  0  0  0  0
   29.5660  -33.7466  -17.0134 N   0  0  0  0  0  0  0  0  0  0  0  0
   34.2801  -33.6714  -15.6119 C   0  0  0  0  0  0  0  0  0  0  0  0
   35.1698  -34.0779  -16.4173 O   0  0  0  0  0  0  0  0  0  0  0  0
   40.6799  -36.5636  -10.2600 O   0  0  0  0  0  0  0  0  0  0  0  0
   39.5997  -35.9017  -10.8595 C   0  0  0  0  0  0  0  0  0  0  0  0
   38.4096  -35.8247  -10.1633 C   0  0  0  0  0  0  0  0  0  0  0  0
   37.3329  -35.1852  -10.7174 C   0  0  0  0  0  0  0  0  0  0  0  0
   37.3912  -34.6013  -11.9734 C   0  0  0  0  0  0  0  0  0  0  0  0
   36.2400  -33.9291  -12.5548 C   0  0  0  0  0  0  0  0  0  0  0  0
   35.6460  -34.6857  -13.7461 C   0  0  2  0  0  0  0  0  0  0  0  0
   34.4737  -33.9779  -14.2474 N   0  0  0  0  0  0  0  0  0  0  0  0
   35.3679  -36.0830  -13.4365 C   0  0  0  0  0  0  0  0  0  0  0  0
   34.2188  -36.4334  -12.6840 O   0  0  0  0  0  0  0  0  0  0  0  0
   38.5743  -34.6796  -12.6616 C   0  0  0  0  0  0  0  0  0  0  0  0
   39.6803  -35.3310  -12.1029 C   0  0  0  0  0  0  0  0  0  0  0  0
   36.0733  -37.0590  -13.7836 O   0  0  0  0  0  0  0  0  0  0  0  0
  2  1  1  6
  2  3  1  0
  4  2  1  0
  4  5  1  1
  6  4  1  0
  6  7  2  0
  8  6  1  0
  9  8  1  0
  9 10  1  6
 10 11  1  0
 11 15  1  0
 11 12  2  0
 12 13  1  0
 14 13  1  0
 15 14  2  0
 16  9  1  0
 17 16  2  0
 18 19  1  0
 19 29  2  0
 20 19  1  0
 20 21  2  0
 21 22  1  0
 22 28  2  0
 22 23  1  0
 24 23  1  1
 24 25  1  0
 25 16  1  0
 26 24  1  0
 27 26  1  0
 29 28  1  0
 30 26  2  0
M  END
$$$$
