THY.pdb
     RDKit          3D

 30 31  0  0  1  0  0  0  0  0999 V2000
   12.2842  -18.2195  -20.3707 C   0  0  0  0  0  0  0  0  0  0  0  0
   13.0216  -19.5012  -20.0487 C   0  0  1  0  0  0  0  0  0  0  0  0
   12.4578  -20.5023  -20.7951 O   0  0  0  0  0  0  0  0  0  0  0  0
   14.5122  -19.3563  -20.2863 C   0  0  2  0  0  0  0  0  0  0  0  0
   15.1266  -20.6362  -19.9238 N   0  0  0  0  0  0  0  0  0  0  0  0
   15.1095  -18.2779  -19.4870 C   0  0  0  0  0  0  0  0  0  0  0  0
   15.2161  -18.4209  -18.2324 O   0  0  0  0  0  0  0  0  0  0  0  0
   15.5964  -17.0443  -20.0041 N   0  0  0  0  0  0  0  0  0  0  0  0
   16.1755  -15.9890  -19.1900 C   0  0  1  0  0  0  0  0  0  0  0  0
   16.9731  -15.0735  -20.0278 C   0  0  0  0  0  0  0  0  0  0  0  0
   17.7542  -14.0401  -19.3577 C   0  0  0  0  0  0  0  0  0  0  0  0
   17.9181  -13.6515  -18.0578 C   0  0  0  0  0  0  0  0  0  0  0  0
   18.7652  -12.5991  -17.9458 N   0  0  0  0  0  0  0  0  0  0  0  0
   19.1328  -12.3314  -19.2234 C   0  0  0  0  0  0  0  0  0  0  0  0
   18.5381  -13.1815  -20.0690 N   0  0  0  0  0  0  0  0  0  0  0  0
   15.0844  -15.2528  -18.4518 C   0  0  0  0  0  0  0  0  0  0  0  0
   14.0141  -14.8966  -19.0289 O   0  0  0  0  0  0  0  0  0  0  0  0
    9.6037  -18.5061  -16.5735 O   0  0  0  0  0  0  0  0  0  0  0  0
   10.5889  -17.5728  -16.2230 C   0  0  0  0  0  0  0  0  0  0  0  0
   11.9031  -17.9940  -16.1729 C   0  0  0  0  0  0  0  0  0  0  0  0
   12.8925  -17.1097  -15.8347 C   0  0  0  0  0  0  0  0  0  0  0  0
   12.6221  -15.7835  -15.5348 C   0  0  0  0  0  0  0  0  0  0  0  0
   13.6801  -14.8540  -15.1717 C   0  0  0  0  0  0  0  0  0  0  0  0
   14.2425  -14.0909  -16.3741 C   0  0  2  0  0  0  0  0  0  0  0  0
   15.2051  -14.9254  -17.0837 N   0  0  0  0  0  0  0  0  0  0  0  0
   14.7918  -12.7924  -16.0029 C   0  0  0  0  0  0  0  0  0  0  0  0
   16.1509  -12.4889  -16.2683 O   0  0  0  0  0  0  0  0  0  0  0  0
   11.3164  -15.3689  -15.5857 C   0  0  0  0  0  0  0  0  0  0  0  0
   10.2984  -16.2658  -15.9307 C   0  0  0  0  0  0  0  0  0  0  0  0
   14.1569  -11.8667  -15.4455 O   0  0  0  0  0  0  0  0  0  0  0  0
  2  1  1  6
  2  3  1  0
  4  2  1  0
  4  5  1  1
  6  4  1  0
  6  7  2  0
  8  6  1  0
  9  8  1  0
  9 10  1  6
 10 11  1  0
 11 15  1  0
 11 12  2  0
 12 13  1  0
 14 13  1  0
 15 14  2  0
 16  9  1  0
 17 16  2  0
 18 19  1  0
 19 29  2  0
 20 19  1  0
 20 21  2  0
 21 22  1  0
 22 28  2  0
 22 23  1  0
 24 23  1  1
 24 25  1  0
 25 16  1  0
 26 24  1  0
 27 26  1  0
 29 28  1  0
 30 26  2  0
M  END
$$$$
