THY.pdb
     RDKit          3D

 30 31  0  0  1  0  0  0  0  0999 V2000
   29.2481  -18.6692  -19.6704 C   0  0  0  0  0  0  0  0  0  0  0  0
   28.0692  -18.6562  -18.7215 C   0  0  1  0  0  0  0  0  0  0  0  0
   28.5631  -18.5407  -17.4487 O   0  0  0  0  0  0  0  0  0  0  0  0
   27.0868  -17.5566  -19.0751 C   0  0  2  0  0  0  0  0  0  0  0  0
   27.8432  -16.3018  -19.0962 N   0  0  0  0  0  0  0  0  0  0  0  0
   25.9842  -17.4522  -18.1097 C   0  0  0  0  0  0  0  0  0  0  0  0
   26.2264  -17.0546  -16.9311 O   0  0  0  0  0  0  0  0  0  0  0  0
   24.6224  -17.7664  -18.3800 N   0  0  0  0  0  0  0  0  0  0  0  0
   23.5653  -17.7431  -17.3832 C   0  0  1  0  0  0  0  0  0  0  0  0
   22.2516  -17.9451  -18.0233 C   0  0  0  0  0  0  0  0  0  0  0  0
   21.0692  -17.9491  -17.1695 C   0  0  0  0  0  0  0  0  0  0  0  0
   20.8532  -17.8094  -15.8274 C   0  0  0  0  0  0  0  0  0  0  0  0
   19.5381  -17.9039  -15.5125 N   0  0  0  0  0  0  0  0  0  0  0  0
   18.9254  -18.1107  -16.7045 C   0  0  0  0  0  0  0  0  0  0  0  0
   19.8258  -18.1391  -17.6944 N   0  0  0  0  0  0  0  0  0  0  0  0
   23.8318  -18.7882  -16.3276 C   0  0  0  0  0  0  0  0  0  0  0  0
   24.8456  -19.5463  -16.3830 O   0  0  0  0  0  0  0  0  0  0  0  0
   26.2099  -21.7919   -8.6987 O   0  0  0  0  0  0  0  0  0  0  0  0
   25.7861  -21.1087   -9.8468 C   0  0  0  0  0  0  0  0  0  0  0  0
   26.2880  -21.5075  -11.0699 C   0  0  0  0  0  0  0  0  0  0  0  0
   25.8961  -20.8635  -12.2131 C   0  0  0  0  0  0  0  0  0  0  0  0
   24.9987  -19.8070  -12.1909 C   0  0  0  0  0  0  0  0  0  0  0  0
   24.5932  -19.1266  -13.4106 C   0  0  0  0  0  0  0  0  0  0  0  0
   23.3317  -19.7267  -14.0374 C   0  0  2  0  0  0  0  0  0  0  0  0
   22.9637  -18.9712  -15.2293 N   0  0  0  0  0  0  0  0  0  0  0  0
   22.2348  -19.8393  -13.0837 C   0  0  0  0  0  0  0  0  0  0  0  0
   21.9829  -21.0695  -12.4259 O   0  0  0  0  0  0  0  0  0  0  0  0
   24.5024  -19.4140  -10.9749 C   0  0  0  0  0  0  0  0  0  0  0  0
   24.8972  -20.0667   -9.8010 C   0  0  0  0  0  0  0  0  0  0  0  0
   21.4497  -18.9155  -12.7661 O   0  0  0  0  0  0  0  0  0  0  0  0
  2  1  1  6
  2  3  1  0
  4  2  1  0
  4  5  1  1
  6  4  1  0
  6  7  2  0
  8  6  1  0
  9  8  1  0
  9 10  1  6
 10 11  1  0
 11 15  1  0
 11 12  2  0
 12 13  1  0
 14 13  1  0
 15 14  2  0
 16  9  1  0
 17 16  2  0
 18 19  1  0
 19 29  2  0
 20 19  1  0
 20 21  2  0
 21 22  1  0
 22 28  2  0
 22 23  1  0
 24 23  1  1
 24 25  1  0
 25 16  1  0
 26 24  1  0
 27 26  1  0
 29 28  1  0
 30 26  2  0
M  END
$$$$
