THY.pdb
     RDKit          3D

 30 31  0  0  1  0  0  0  0  0999 V2000
   24.5764   -7.9243  -21.8766 C   0  0  0  0  0  0  0  0  0  0  0  0
   23.4450   -7.5762  -20.9337 C   0  0  1  0  0  0  0  0  0  0  0  0
   22.2868   -7.5577  -21.6654 O   0  0  0  0  0  0  0  0  0  0  0  0
   23.3870   -8.5361  -19.7614 C   0  0  2  0  0  0  0  0  0  0  0  0
   23.0959   -9.8624  -20.3122 N   0  0  0  0  0  0  0  0  0  0  0  0
   22.3542   -8.1705  -18.7825 C   0  0  0  0  0  0  0  0  0  0  0  0
   21.2270   -8.7479  -18.8242 O   0  0  0  0  0  0  0  0  0  0  0  0
   22.5027   -7.1954  -17.7561 N   0  0  0  0  0  0  0  0  0  0  0  0
   21.4493   -6.8185  -16.8288 C   0  0  1  0  0  0  0  0  0  0  0  0
   21.7974   -7.2387  -15.4582 C   0  0  0  0  0  0  0  0  0  0  0  0
   21.6520   -8.6496  -15.1187 C   0  0  0  0  0  0  0  0  0  0  0  0
   21.1922   -9.7540  -15.7793 C   0  0  0  0  0  0  0  0  0  0  0  0
   21.2496  -10.8673  -15.0078 N   0  0  0  0  0  0  0  0  0  0  0  0
   21.7617  -10.4295  -13.8310 C   0  0  0  0  0  0  0  0  0  0  0  0
   22.0041   -9.1144  -13.8867 N   0  0  0  0  0  0  0  0  0  0  0  0
   21.2058   -5.3311  -16.9053 C   0  0  0  0  0  0  0  0  0  0  0  0
   22.1620   -4.5039  -16.9891 O   0  0  0  0  0  0  0  0  0  0  0  0
   13.9731   -5.5746  -19.0655 O   0  0  0  0  0  0  0  0  0  0  0  0
   15.2034   -4.9286  -18.8830 C   0  0  0  0  0  0  0  0  0  0  0  0
   16.3449   -5.5465  -19.3543 C   0  0  0  0  0  0  0  0  0  0  0  0
   17.5645   -4.9447  -19.1941 C   0  0  0  0  0  0  0  0  0  0  0  0
   17.7014   -3.7166  -18.5657 C   0  0  0  0  0  0  0  0  0  0  0  0
   19.0022   -3.0887  -18.3962 C   0  0  0  0  0  0  0  0  0  0  0  0
   19.6246   -3.3661  -17.0251 C   0  0  2  0  0  0  0  0  0  0  0  0
   19.9014   -4.7912  -16.8863 N   0  0  0  0  0  0  0  0  0  0  0  0
   18.8171   -2.8422  -15.9300 C   0  0  0  0  0  0  0  0  0  0  0  0
   18.6326   -1.4444  -15.7831 O   0  0  0  0  0  0  0  0  0  0  0  0
   16.5660   -3.1060  -18.0993 C   0  0  0  0  0  0  0  0  0  0  0  0
   15.3150   -3.7136  -18.2587 C   0  0  0  0  0  0  0  0  0  0  0  0
   18.2376   -3.5323  -15.0591 O   0  0  0  0  0  0  0  0  0  0  0  0
  2  1  1  6
  2  3  1  0
  4  2  1  0
  4  5  1  6
  6  4  1  0
  6  7  2  0
  8  6  1  0
  9  8  1  0
  9 10  1  1
 10 11  1  0
 11 15  1  0
 11 12  2  0
 12 13  1  0
 14 13  1  0
 15 14  2  0
 16  9  1  0
 17 16  2  0
 18 19  1  0
 19 29  2  0
 20 19  1  0
 20 21  2  0
 21 22  1  0
 22 28  2  0
 22 23  1  0
 24 23  1  6
 24 25  1  0
 25 16  1  0
 26 24  1  0
 27 26  1  0
 29 28  1  0
 30 26  2  0
M  END
$$$$
