NYC.pdb
     RDKit          3D

 27 27  0  0  1  0  0  0  0  0999 V2000
    9.5132  -17.4132   17.6553 N   0  0  0  0  0  0  0  0  0  0  0  0
    9.8348  -16.1127   18.1025 C   0  0  0  0  0  0  0  0  0  0  0  0
   10.1444  -15.2372   17.2674 O   0  0  0  0  0  0  0  0  0  0  0  0
    9.8062  -15.7901   19.5369 C   0  0  0  0  0  0  0  0  0  0  0  0
    9.4459  -16.9806   20.3921 C   0  0  2  0  0  0  0  0  0  0  0  0
    8.1333  -17.4848   20.1205 N   0  0  0  0  0  0  0  0  0  0  0  0
    9.5283  -16.5750   21.8178 C   0  0  0  0  0  0  0  0  0  0  0  0
   10.6094  -16.0780   22.2415 O   0  0  0  0  0  0  0  0  0  0  0  0
    6.7783  -10.6905   26.2732 O   0  0  0  0  0  0  0  0  0  0  0  0
    6.8922  -12.0112   25.8631 C   0  0  0  0  0  0  0  0  0  0  0  0
    5.8957  -12.8977   26.2151 C   0  0  0  0  0  0  0  0  0  0  0  0
    6.0488  -14.2013   25.7864 C   0  0  0  0  0  0  0  0  0  0  0  0
    7.1412  -14.6061   25.0426 C   0  0  0  0  0  0  0  0  0  0  0  0
    7.2326  -16.0216   24.6271 C   0  0  0  0  0  0  0  0  0  0  0  0
    8.5748  -16.3909   24.0866 C   0  0  2  0  0  0  0  0  0  0  0  0
    8.4334  -16.7363   22.6854 N   0  0  0  0  0  0  0  0  0  0  0  0
    9.2308  -17.5181   24.7739 C   0  0  0  0  0  0  0  0  0  0  0  0
    8.8236  -18.6819   24.5547 O   0  0  0  0  0  0  0  0  0  0  0  0
    8.1102  -13.6928   24.7139 C   0  0  0  0  0  0  0  0  0  0  0  0
    7.9996  -12.3620   25.1246 C   0  0  0  0  0  0  0  0  0  0  0  0
   10.3084  -17.3381   25.6766 N   0  0  0  0  0  0  0  0  0  0  0  0
   10.9470  -18.5100   26.2363 C   0  0  1  0  0  0  0  0  0  0  0  0
   12.4036  -18.5542   25.7693 C   0  0  0  0  0  0  0  0  0  0  0  0
   13.1234  -16.9340   26.1944 S   0  0  0  0  0  0  0  0  0  0  0  0
   10.9450  -18.3876   27.7258 C   0  0  0  0  0  0  0  0  0  0  0  0
   11.4746  -19.3979   28.5188 O   0  0  0  0  0  0  0  0  0  0  0  0
   10.4585  -17.3585   28.2679 O   0  0  0  0  0  0  0  0  0  0  0  0
  2  3  2  0
  2  1  1  0
  4  2  1  0
  5  7  1  0
  5  4  1  0
  5  6  1  6
  7  8  2  0
  9 10  1  0
 10 20  2  0
 10 11  1  0
 11 12  2  0
 12 13  1  0
 13 14  1  0
 15 14  1  1
 16 15  1  0
 16  7  1  0
 17 15  1  0
 18 17  2  0
 19 13  2  0
 20 19  1  0
 21 17  1  0
 22 25  1  0
 22 21  1  0
 22 23  1  6
 24 23  1  0
 25 26  1  0
 27 25  2  0
M  END
$$$$
