NYC.pdb
     RDKit          3D

 27 27  0  0  1  0  0  0  0  0999 V2000
   13.5981  -17.4161   18.2785 N   0  0  0  0  0  0  0  0  0  0  0  0
   12.2554  -17.4815   18.7115 C   0  0  0  0  0  0  0  0  0  0  0  0
   11.4875  -18.3233   18.2001 O   0  0  0  0  0  0  0  0  0  0  0  0
   11.7638  -16.5685   19.7541 C   0  0  0  0  0  0  0  0  0  0  0  0
   11.4202  -17.2851   21.0375 C   0  0  2  0  0  0  0  0  0  0  0  0
   10.3697  -18.2449   20.8756 N   0  0  0  0  0  0  0  0  0  0  0  0
   11.0073  -16.2734   22.0425 C   0  0  0  0  0  0  0  0  0  0  0  0
   11.8109  -15.3405   22.3239 O   0  0  0  0  0  0  0  0  0  0  0  0
    6.0344  -11.4803   27.4085 O   0  0  0  0  0  0  0  0  0  0  0  0
    6.4984  -12.3878   26.4669 C   0  0  0  0  0  0  0  0  0  0  0  0
    6.2361  -13.7283   26.6600 C   0  0  0  0  0  0  0  0  0  0  0  0
    6.7158  -14.5962   25.6992 C   0  0  0  0  0  0  0  0  0  0  0  0
    7.4235  -14.1537   24.5975 C   0  0  0  0  0  0  0  0  0  0  0  0
    7.9071  -15.1485   23.6172 C   0  0  0  0  0  0  0  0  0  0  0  0
    9.3878  -15.3386   23.6530 C   0  0  2  0  0  0  0  0  0  0  0  0
    9.7520  -16.3430   22.6727 N   0  0  0  0  0  0  0  0  0  0  0  0
    9.9277  -15.7549   24.9601 C   0  0  0  0  0  0  0  0  0  0  0  0
   10.0483  -16.9772   25.2049 O   0  0  0  0  0  0  0  0  0  0  0  0
    7.6630  -12.8120   24.4431 C   0  0  0  0  0  0  0  0  0  0  0  0
    7.1977  -11.8947   25.3887 C   0  0  0  0  0  0  0  0  0  0  0  0
   10.3176  -14.8248   25.9557 N   0  0  0  0  0  0  0  0  0  0  0  0
   10.7602  -15.3272   27.2386 C   0  0  1  0  0  0  0  0  0  0  0  0
   10.7100  -14.1912   28.2627 C   0  0  0  0  0  0  0  0  0  0  0  0
   11.3426  -14.8865   29.8249 S   0  0  0  0  0  0  0  0  0  0  0  0
    9.8115  -16.3919   27.6859 C   0  0  0  0  0  0  0  0  0  0  0  0
   10.2850  -17.5647   28.2605 O   0  0  0  0  0  0  0  0  0  0  0  0
    8.5703  -16.2244   27.5408 O   0  0  0  0  0  0  0  0  0  0  0  0
  2  3  2  0
  2  1  1  0
  4  2  1  0
  5  7  1  0
  5  4  1  0
  5  6  1  6
  7  8  2  0
  9 10  1  0
 10 20  2  0
 10 11  1  0
 11 12  2  0
 12 13  1  0
 13 14  1  0
 15 14  1  1
 16 15  1  0
 16  7  1  0
 17 15  1  0
 18 17  2  0
 19 13  2  0
 20 19  1  0
 21 17  1  0
 22 25  1  0
 22 21  1  0
 22 23  1  1
 24 23  1  0
 25 26  1  0
 27 25  2  0
M  END
$$$$
