NYC.pdb
     RDKit          3D

 27 27  0  0  1  0  0  0  0  0999 V2000
    8.6457  -17.1441   16.2771 N   0  0  0  0  0  0  0  0  0  0  0  0
    9.7751  -17.1426   17.1251 C   0  0  0  0  0  0  0  0  0  0  0  0
   10.7640  -17.8457   16.8292 O   0  0  0  0  0  0  0  0  0  0  0  0
    9.7891  -16.3220   18.3454 C   0  0  0  0  0  0  0  0  0  0  0  0
    9.8539  -17.1541   19.6031 C   0  0  2  0  0  0  0  0  0  0  0  0
    8.8041  -18.1248   19.6837 N   0  0  0  0  0  0  0  0  0  0  0  0
    9.7681  -16.2430   20.7721 C   0  0  0  0  0  0  0  0  0  0  0  0
   10.7265  -15.4497   20.9897 O   0  0  0  0  0  0  0  0  0  0  0  0
    6.7498  -12.1959   27.9167 O   0  0  0  0  0  0  0  0  0  0  0  0
    6.9026  -12.8284   26.6911 C   0  0  0  0  0  0  0  0  0  0  0  0
    6.3809  -14.0959   26.5354 C   0  0  0  0  0  0  0  0  0  0  0  0
    6.5553  -14.6882   25.3003 C   0  0  0  0  0  0  0  0  0  0  0  0
    7.2172  -14.0514   24.2674 C   0  0  0  0  0  0  0  0  0  0  0  0
    7.3658  -14.7568   22.9771 C   0  0  0  0  0  0  0  0  0  0  0  0
    8.6710  -15.4700   22.8432 C   0  0  2  0  0  0  0  0  0  0  0  0
    8.6494  -16.2551   21.6242 N   0  0  0  0  0  0  0  0  0  0  0  0
    9.0037  -16.3690   23.9632 C   0  0  0  0  0  0  0  0  0  0  0  0
    8.4292  -17.4790   24.0410 O   0  0  0  0  0  0  0  0  0  0  0  0
    7.7211  -12.7910   24.4639 C   0  0  0  0  0  0  0  0  0  0  0  0
    7.5697  -12.1503   25.6962 C   0  0  0  0  0  0  0  0  0  0  0  0
    9.9513  -16.0272   24.9600 N   0  0  0  0  0  0  0  0  0  0  0  0
   10.4096  -17.0602   25.8640 C   0  0  1  0  0  0  0  0  0  0  0  0
   11.9161  -17.2533   25.6768 C   0  0  0  0  0  0  0  0  0  0  0  0
   12.1100  -18.4521   24.3169 S   0  0  0  0  0  0  0  0  0  0  0  0
   10.1755  -16.6028   27.2675 C   0  0  0  0  0  0  0  0  0  0  0  0
    9.5991  -15.3644   27.5206 O   0  0  0  0  0  0  0  0  0  0  0  0
   10.5038  -17.3474   28.2306 O   0  0  0  0  0  0  0  0  0  0  0  0
  2  3  2  0
  2  1  1  0
  4  2  1  0
  5  7  1  0
  5  4  1  0
  5  6  1  6
  7  8  2  0
  9 10  1  0
 10 20  2  0
 10 11  1  0
 11 12  2  0
 12 13  1  0
 13 14  1  0
 15 14  1  1
 16 15  1  0
 16  7  1  0
 17 15  1  0
 18 17  2  0
 19 13  2  0
 20 19  1  0
 21 17  1  0
 22 25  1  0
 22 21  1  0
 22 23  1  1
 24 23  1  0
 25 26  1  0
 27 25  2  0
M  END
$$$$
