NYC.pdb
     RDKit          3D

 27 27  0  0  1  0  0  0  0  0999 V2000
    9.7012  -18.8687   17.0724 N   0  0  0  0  0  0  0  0  0  0  0  0
   10.0662  -17.5057   17.0106 C   0  0  0  0  0  0  0  0  0  0  0  0
   10.5355  -17.0451   15.9489 O   0  0  0  0  0  0  0  0  0  0  0  0
    9.8963  -16.6353   18.1836 C   0  0  0  0  0  0  0  0  0  0  0  0
    9.3650  -17.3785   19.3852 C   0  0  2  0  0  0  0  0  0  0  0  0
    8.0181  -17.8321   19.2091 N   0  0  0  0  0  0  0  0  0  0  0  0
    9.4262  -16.4732   20.5603 C   0  0  0  0  0  0  0  0  0  0  0  0
   10.5379  -15.9584   20.8673 O   0  0  0  0  0  0  0  0  0  0  0  0
    6.9571  -12.0366   27.7055 O   0  0  0  0  0  0  0  0  0  0  0  0
    6.9928  -12.6979   26.4862 C   0  0  0  0  0  0  0  0  0  0  0  0
    6.4428  -13.9605   26.4061 C   0  0  0  0  0  0  0  0  0  0  0  0
    6.4998  -14.5822   25.1745 C   0  0  0  0  0  0  0  0  0  0  0  0
    7.0763  -13.9781   24.0731 C   0  0  0  0  0  0  0  0  0  0  0  0
    7.1013  -14.7137   22.7913 C   0  0  0  0  0  0  0  0  0  0  0  0
    8.4008  -15.4028   22.5334 C   0  0  2  0  0  0  0  0  0  0  0  0
    8.2782  -16.1889   21.3211 N   0  0  0  0  0  0  0  0  0  0  0  0
    8.8547  -16.2948   23.6158 C   0  0  0  0  0  0  0  0  0  0  0  0
    8.3451  -17.4344   23.7162 O   0  0  0  0  0  0  0  0  0  0  0  0
    7.6121  -12.7215   24.1954 C   0  0  0  0  0  0  0  0  0  0  0  0
    7.5784  -12.0518   25.4211 C   0  0  0  0  0  0  0  0  0  0  0  0
    9.8485  -15.9142   24.5517 N   0  0  0  0  0  0  0  0  0  0  0  0
   10.3118  -16.8959   25.5086 C   0  0  1  0  0  0  0  0  0  0  0  0
   11.8339  -17.0148   25.4028 C   0  0  0  0  0  0  0  0  0  0  0  0
   12.1805  -17.6269   23.7208 S   0  0  0  0  0  0  0  0  0  0  0  0
    9.9828  -16.4124   26.8840 C   0  0  0  0  0  0  0  0  0  0  0  0
   10.0410  -17.2768   27.9699 O   0  0  0  0  0  0  0  0  0  0  0  0
    9.6495  -15.2093   27.0606 O   0  0  0  0  0  0  0  0  0  0  0  0
  2  3  2  0
  2  1  1  0
  4  2  1  0
  5  7  1  0
  5  4  1  0
  5  6  1  6
  7  8  2  0
  9 10  1  0
 10 20  2  0
 10 11  1  0
 11 12  2  0
 12 13  1  0
 13 14  1  0
 15 14  1  1
 16 15  1  0
 16  7  1  0
 17 15  1  0
 18 17  2  0
 19 13  2  0
 20 19  1  0
 21 17  1  0
 22 25  1  0
 22 21  1  0
 22 23  1  1
 24 23  1  0
 25 26  1  0
 27 25  2  0
M  END
$$$$
