NYC.pdb
     RDKit          3D

 27 27  0  0  1  0  0  0  0  0999 V2000
   11.9864  -19.2453   19.3547 N   0  0  0  0  0  0  0  0  0  0  0  0
   11.6298  -17.9708   18.8616 C   0  0  0  0  0  0  0  0  0  0  0  0
   12.0092  -17.6269   17.7224 O   0  0  0  0  0  0  0  0  0  0  0  0
   10.8196  -17.0557   19.6793 C   0  0  0  0  0  0  0  0  0  0  0  0
   10.4692  -17.6382   21.0270 C   0  0  2  0  0  0  0  0  0  0  0  0
    9.3498  -18.5299   20.9746 N   0  0  0  0  0  0  0  0  0  0  0  0
   10.1609  -16.5206   21.9543 C   0  0  0  0  0  0  0  0  0  0  0  0
   11.0851  -15.7137   22.2542 O   0  0  0  0  0  0  0  0  0  0  0  0
    7.4813  -13.0603   17.5478 O   0  0  0  0  0  0  0  0  0  0  0  0
    7.4566  -13.4276   18.8857 C   0  0  0  0  0  0  0  0  0  0  0  0
    6.8038  -14.5911   19.2367 C   0  0  0  0  0  0  0  0  0  0  0  0
    6.8036  -14.9188   20.5780 C   0  0  0  0  0  0  0  0  0  0  0  0
    7.4230  -14.1277   21.5273 C   0  0  0  0  0  0  0  0  0  0  0  0
    7.3726  -14.5467   22.9437 C   0  0  0  0  0  0  0  0  0  0  0  0
    8.6105  -15.2501   23.3940 C   0  0  2  0  0  0  0  0  0  0  0  0
    8.8721  -16.3551   22.4922 N   0  0  0  0  0  0  0  0  0  0  0  0
    8.5565  -15.7811   24.7682 C   0  0  0  0  0  0  0  0  0  0  0  0
    7.9681  -15.1172   25.6521 O   0  0  0  0  0  0  0  0  0  0  0  0
    8.0612  -12.9783   21.1362 C   0  0  0  0  0  0  0  0  0  0  0  0
    8.0886  -12.6046   19.7902 C   0  0  0  0  0  0  0  0  0  0  0  0
    9.1457  -17.0176   25.1319 N   0  0  0  0  0  0  0  0  0  0  0  0
    8.8385  -17.5764   26.4310 C   0  0  1  0  0  0  0  0  0  0  0  0
    7.5368  -18.3753   26.3343 C   0  0  0  0  0  0  0  0  0  0  0  0
    7.2853  -19.1376   27.9713 S   0  0  0  0  0  0  0  0  0  0  0  0
    9.9311  -18.5218   26.8131 C   0  0  0  0  0  0  0  0  0  0  0  0
   10.0028  -19.0355   28.1018 O   0  0  0  0  0  0  0  0  0  0  0  0
   10.7956  -18.8564   25.9584 O   0  0  0  0  0  0  0  0  0  0  0  0
  2  3  2  0
  2  1  1  0
  4  2  1  0
  5  7  1  0
  5  4  1  0
  5  6  1  6
  7  8  2  0
  9 10  1  0
 10 20  2  0
 10 11  1  0
 11 12  2  0
 12 13  1  0
 13 14  1  0
 15 14  1  6
 16 15  1  0
 16  7  1  0
 17 15  1  0
 18 17  2  0
 19 13  2  0
 20 19  1  0
 21 17  1  0
 22 25  1  0
 22 21  1  0
 22 23  1  6
 24 23  1  0
 25 26  1  0
 27 25  2  0
M  END
$$$$
