NYC.pdb
     RDKit          3D

 27 27  0  0  1  0  0  0  0  0999 V2000
    7.4890  -13.7468   16.1405 N   0  0  0  0  0  0  0  0  0  0  0  0
    8.4251  -14.6878   16.6230 C   0  0  0  0  0  0  0  0  0  0  0  0
    8.6520  -15.7213   15.9596 O   0  0  0  0  0  0  0  0  0  0  0  0
    9.1273  -14.4553   17.8940 C   0  0  0  0  0  0  0  0  0  0  0  0
    8.9971  -15.6167   18.8494 C   0  0  2  0  0  0  0  0  0  0  0  0
    7.7518  -16.3111   18.7157 N   0  0  0  0  0  0  0  0  0  0  0  0
    9.1218  -15.0991   20.2352 C   0  0  0  0  0  0  0  0  0  0  0  0
   10.2149  -14.5726   20.5859 O   0  0  0  0  0  0  0  0  0  0  0  0
    7.2662  -12.3780   28.3097 O   0  0  0  0  0  0  0  0  0  0  0  0
    7.1977  -12.8071   26.9919 C   0  0  0  0  0  0  0  0  0  0  0  0
    7.6485  -11.9607   26.0001 C   0  0  0  0  0  0  0  0  0  0  0  0
    7.5621  -12.4273   24.7034 C   0  0  0  0  0  0  0  0  0  0  0  0
    7.0518  -13.6767   24.4051 C   0  0  0  0  0  0  0  0  0  0  0  0
    6.9892  -14.0991   22.9901 C   0  0  0  0  0  0  0  0  0  0  0  0
    8.2434  -14.7562   22.5159 C   0  0  2  0  0  0  0  0  0  0  0  0
    8.0530  -15.1881   21.1449 N   0  0  0  0  0  0  0  0  0  0  0  0
    8.6705  -15.9224   23.3102 C   0  0  0  0  0  0  0  0  0  0  0  0
    8.0743  -17.0128   23.1552 O   0  0  0  0  0  0  0  0  0  0  0  0
    6.6140  -14.4875   25.4210 C   0  0  0  0  0  0  0  0  0  0  0  0
    6.6810  -14.0596   26.7494 C   0  0  0  0  0  0  0  0  0  0  0  0
    9.7328  -15.8602   24.2461 N   0  0  0  0  0  0  0  0  0  0  0  0
   10.0964  -17.0636   24.9631 C   0  0  1  0  0  0  0  0  0  0  0  0
   11.5718  -17.3732   24.7005 C   0  0  0  0  0  0  0  0  0  0  0  0
   11.7348  -17.5802   22.8964 S   0  0  0  0  0  0  0  0  0  0  0  0
    9.9325  -16.8132   26.4274 C   0  0  0  0  0  0  0  0  0  0  0  0
   10.2255  -17.8080   27.3517 O   0  0  0  0  0  0  0  0  0  0  0  0
    9.5248  -15.6893   26.8277 O   0  0  0  0  0  0  0  0  0  0  0  0
  2  3  2  0
  2  1  1  0
  4  2  1  0
  5  7  1  0
  5  4  1  0
  5  6  1  1
  7  8  2  0
  9 10  1  0
 10 20  2  0
 10 11  1  0
 11 12  2  0
 12 13  1  0
 13 14  1  0
 15 14  1  1
 16 15  1  0
 16  7  1  0
 17 15  1  0
 18 17  2  0
 19 13  2  0
 20 19  1  0
 21 17  1  0
 22 25  1  0
 22 21  1  0
 22 23  1  1
 24 23  1  0
 25 26  1  0
 27 25  2  0
M  END
$$$$
