NYC.pdb
     RDKit          3D

 27 27  0  0  1  0  0  0  0  0999 V2000
   11.5543  -18.2110   16.6875 N   0  0  0  0  0  0  0  0  0  0  0  0
   10.3726  -17.5982   17.1595 C   0  0  0  0  0  0  0  0  0  0  0  0
    9.3213  -17.7010   16.4932 O   0  0  0  0  0  0  0  0  0  0  0  0
   10.3773  -16.8458   18.4229 C   0  0  0  0  0  0  0  0  0  0  0  0
    9.7388  -17.6115   19.5563 C   0  0  2  0  0  0  0  0  0  0  0  0
    8.4006  -18.0286   19.2626 N   0  0  0  0  0  0  0  0  0  0  0  0
    9.7269  -16.7426   20.7601 C   0  0  0  0  0  0  0  0  0  0  0  0
   10.8301  -16.3324   21.2182 O   0  0  0  0  0  0  0  0  0  0  0  0
    6.8361  -12.0405   27.5578 O   0  0  0  0  0  0  0  0  0  0  0  0
    6.9440  -12.7350   26.3613 C   0  0  0  0  0  0  0  0  0  0  0  0
    6.4151  -14.0070   26.2889 C   0  0  0  0  0  0  0  0  0  0  0  0
    6.5443  -14.6619   25.0802 C   0  0  0  0  0  0  0  0  0  0  0  0
    7.1698  -14.0806   23.9933 C   0  0  0  0  0  0  0  0  0  0  0  0
    7.2712  -14.8511   22.7361 C   0  0  0  0  0  0  0  0  0  0  0  0
    8.5541  -15.6048   22.6094 C   0  0  2  0  0  0  0  0  0  0  0  0
    8.5201  -16.3788   21.3837 N   0  0  0  0  0  0  0  0  0  0  0  0
    8.8460  -16.5232   23.7251 C   0  0  0  0  0  0  0  0  0  0  0  0
    8.1457  -17.5523   23.8625 O   0  0  0  0  0  0  0  0  0  0  0  0
    7.6824  -12.8135   24.1073 C   0  0  0  0  0  0  0  0  0  0  0  0
    7.5761  -12.1105   25.3100 C   0  0  0  0  0  0  0  0  0  0  0  0
    9.8912  -16.2883   24.6529 N   0  0  0  0  0  0  0  0  0  0  0  0
   10.1640  -17.2925   25.6586 C   0  0  1  0  0  0  0  0  0  0  0  0
   11.5028  -17.9631   25.3425 C   0  0  0  0  0  0  0  0  0  0  0  0
   12.4274  -16.7867   24.3008 S   0  0  0  0  0  0  0  0  0  0  0  0
   10.2906  -16.6157   26.9851 C   0  0  0  0  0  0  0  0  0  0  0  0
   10.1904  -15.2338   27.0860 O   0  0  0  0  0  0  0  0  0  0  0  0
   10.4900  -17.3048   28.0220 O   0  0  0  0  0  0  0  0  0  0  0  0
  2  3  2  0
  2  1  1  0
  4  2  1  0
  5  7  1  0
  5  4  1  0
  5  6  1  6
  7  8  2  0
  9 10  1  0
 10 20  2  0
 10 11  1  0
 11 12  2  0
 12 13  1  0
 13 14  1  0
 15 14  1  1
 16 15  1  0
 16  7  1  0
 17 15  1  0
 18 17  2  0
 19 13  2  0
 20 19  1  0
 21 17  1  0
 22 25  1  0
 22 21  1  0
 22 23  1  6
 24 23  1  0
 25 26  1  0
 27 25  2  0
M  END
$$$$
