WVG.pdb
     RDKit          3D

 26 27  0  0  1  0  0  0  0  0999 V2000
   25.1226  -21.4063   -9.0794 N   0  0  0  0  0  0  0  0  0  0  0  0
   25.8746  -20.2409   -9.4942 C   0  0  1  0  0  0  0  0  0  0  0  0
   27.1982  -20.2840   -8.7645 C   0  0  0  0  0  0  0  0  0  0  0  0
   26.9992  -20.2551   -7.2955 C   0  0  0  0  0  0  0  0  0  0  0  0
   25.8008  -20.5261   -6.6521 C   0  0  0  0  0  0  0  0  0  0  0  0
   25.9773  -20.4082   -5.3149 N   0  0  0  0  0  0  0  0  0  0  0  0
   27.2498  -20.0689   -5.0530 C   0  0  0  0  0  0  0  0  0  0  0  0
   27.9467  -19.8267   -3.8734 C   0  0  0  0  0  0  0  0  0  0  0  0
   29.2633  -19.4949   -3.9560 C   0  0  0  0  0  0  0  0  0  0  0  0
   29.9245  -19.3923   -5.1710 C   0  0  0  0  0  0  0  0  0  0  0  0
   29.2197  -19.6352   -6.3268 C   0  0  0  0  0  0  0  0  0  0  0  0
   27.8970  -19.9710   -6.2898 C   0  0  0  0  0  0  0  0  0  0  0  0
   26.0426  -20.2743  -10.9616 C   0  0  0  0  0  0  0  0  0  0  0  0
   27.1836  -20.2931  -11.4304 O   0  0  0  0  0  0  0  0  0  0  0  0
   25.2514  -21.5794  -15.3511 C   0  0  0  0  0  0  0  0  0  0  0  0
   25.3585  -21.7009  -13.8388 C   0  0  2  0  0  0  0  0  0  0  0  0
   24.3906  -22.7986  -13.4571 C   0  0  0  0  0  0  0  0  0  0  0  0
   25.0078  -20.3781  -13.2664 C   0  0  2  0  0  0  0  0  0  0  0  0
   24.9506  -20.2857  -11.8476 N   0  0  0  0  0  0  0  0  0  0  0  0
   23.6820  -19.9638  -13.8053 C   0  0  0  0  0  0  0  0  0  0  0  0
   22.5882  -20.4139  -13.3324 O   0  0  0  0  0  0  0  0  0  0  0  0
   23.5653  -19.0432  -14.8774 N   0  0  0  0  0  0  0  0  0  0  0  0
   22.2732  -18.5380  -15.2751 C   0  0  0  0  0  0  0  0  0  0  0  0
   21.6150  -19.3892  -16.2686 C   0  0  0  0  0  0  0  0  0  0  0  0
   20.6363  -18.8907  -17.1111 O   0  0  0  0  0  0  0  0  0  0  0  0
   21.9247  -20.6004  -16.3811 O   0  0  0  0  0  0  0  0  0  0  0  0
  2 13  1  0
  2  1  1  1
  3  2  1  0
  4  3  1  0
  5  4  2  0
  6  7  1  0
  6  5  1  0
  7 12  2  0
  8  9  2  0
  8  7  1  0
  9 10  1  0
 10 11  2  0
 12  4  1  0
 12 11  1  0
 13 14  2  0
 16 15  1  6
 17 16  1  0
 18 16  1  0
 18 19  1  1
 19 13  1  0
 20 21  2  0
 20 18  1  0
 22 20  1  0
 23 22  1  0
 24 23  1  0
 25 24  1  0
 26 24  2  0
M  END
$$$$
