WVG.pdb
     RDKit          3D

 26 27  0  0  1  0  0  0  0  0999 V2000
   22.2738  -19.5753  -16.0279 N   0  0  0  0  0  0  0  0  0  0  0  0
   22.8559  -19.8388  -14.7289 C   0  0  1  0  0  0  0  0  0  0  0  0
   22.0303  -20.9301  -14.0858 C   0  0  0  0  0  0  0  0  0  0  0  0
   20.8240  -20.3707  -13.4300 C   0  0  0  0  0  0  0  0  0  0  0  0
   19.6579  -20.0110  -14.0891 C   0  0  0  0  0  0  0  0  0  0  0  0
   18.7650  -19.5384  -13.1876 N   0  0  0  0  0  0  0  0  0  0  0  0
   19.3006  -19.5735  -11.9568 C   0  0  0  0  0  0  0  0  0  0  0  0
   18.8236  -19.2125  -10.7007 C   0  0  0  0  0  0  0  0  0  0  0  0
   19.6406  -19.3786   -9.6258 C   0  0  0  0  0  0  0  0  0  0  0  0
   20.9233  -19.8927   -9.7453 C   0  0  0  0  0  0  0  0  0  0  0  0
   21.3781  -20.2442  -10.9948 C   0  0  0  0  0  0  0  0  0  0  0  0
   20.5916  -20.0942  -12.1004 C   0  0  0  0  0  0  0  0  0  0  0  0
   24.2680  -20.2355  -14.9064 C   0  0  0  0  0  0  0  0  0  0  0  0
   24.5418  -21.1100  -15.7324 O   0  0  0  0  0  0  0  0  0  0  0  0
   27.5427  -17.8570  -14.1432 C   0  0  0  0  0  0  0  0  0  0  0  0
   27.6920  -19.2500  -14.7354 C   0  0  2  0  0  0  0  0  0  0  0  0
   27.4969  -19.0734  -16.2248 C   0  0  0  0  0  0  0  0  0  0  0  0
   26.6618  -20.1088  -14.1019 C   0  0  2  0  0  0  0  0  0  0  0  0
   25.3150  -19.6543  -14.1692 N   0  0  0  0  0  0  0  0  0  0  0  0
   27.0120  -20.2893  -12.6650 C   0  0  0  0  0  0  0  0  0  0  0  0
   28.0426  -20.9406  -12.2958 O   0  0  0  0  0  0  0  0  0  0  0  0
   26.2145  -19.7442  -11.6270 N   0  0  0  0  0  0  0  0  0  0  0  0
   26.6305  -19.8478  -10.2489 C   0  0  0  0  0  0  0  0  0  0  0  0
   25.9927  -20.9647   -9.5485 C   0  0  0  0  0  0  0  0  0  0  0  0
   26.0754  -21.0957   -8.1730 O   0  0  0  0  0  0  0  0  0  0  0  0
   25.3509  -21.8368  -10.1833 O   0  0  0  0  0  0  0  0  0  0  0  0
  2 13  1  0
  2  1  1  6
  3  2  1  0
  4  3  1  0
  5  4  2  0
  6  7  1  0
  6  5  1  0
  7 12  2  0
  8  9  2  0
  8  7  1  0
  9 10  1  0
 10 11  2  0
 12  4  1  0
 12 11  1  0
 13 14  2  0
 16 15  1  1
 17 16  1  0
 18 16  1  0
 18 19  1  1
 19 13  1  0
 20 21  2  0
 20 18  1  0
 22 20  1  0
 23 22  1  0
 24 23  1  0
 25 24  1  0
 26 24  2  0
M  END
$$$$
