WVG.pdb
     RDKit          3D

 26 27  0  0  1  0  0  0  0  0999 V2000
   23.5771  -18.2505  -17.1878 N   0  0  0  0  0  0  0  0  0  0  0  0
   23.8177  -18.1300  -15.7653 C   0  0  1  0  0  0  0  0  0  0  0  0
   22.9941  -16.9614  -15.2734 C   0  0  0  0  0  0  0  0  0  0  0  0
   23.5241  -15.6781  -15.7937 C   0  0  0  0  0  0  0  0  0  0  0  0
   22.7873  -14.7495  -16.5137 C   0  0  0  0  0  0  0  0  0  0  0  0
   23.5816  -13.6995  -16.8292 N   0  0  0  0  0  0  0  0  0  0  0  0
   24.8166  -13.9021  -16.3429 C   0  0  0  0  0  0  0  0  0  0  0  0
   25.9893  -13.1544  -16.3815 C   0  0  0  0  0  0  0  0  0  0  0  0
   27.0978  -13.6572  -15.7743 C   0  0  0  0  0  0  0  0  0  0  0  0
   27.0925  -14.8823  -15.1238 C   0  0  0  0  0  0  0  0  0  0  0  0
   25.9243  -15.6077  -15.0957 C   0  0  0  0  0  0  0  0  0  0  0  0
   24.7886  -15.1408  -15.6922 C   0  0  0  0  0  0  0  0  0  0  0  0
   23.4421  -19.3973  -15.1053 C   0  0  0  0  0  0  0  0  0  0  0  0
   22.6616  -20.1602  -15.6805 O   0  0  0  0  0  0  0  0  0  0  0  0
   24.9580  -20.4914  -11.1603 C   0  0  0  0  0  0  0  0  0  0  0  0
   24.7911  -21.4984  -12.2880 C   0  0  2  0  0  0  0  0  0  0  0  0
   26.1388  -21.5590  -12.9715 C   0  0  0  0  0  0  0  0  0  0  0  0
   23.7050  -20.9981  -13.1657 C   0  0  2  0  0  0  0  0  0  0  0  0
   23.9403  -19.7695  -13.8440 N   0  0  0  0  0  0  0  0  0  0  0  0
   22.4691  -20.8398  -12.3488 C   0  0  0  0  0  0  0  0  0  0  0  0
   22.3020  -19.8559  -11.5571 O   0  0  0  0  0  0  0  0  0  0  0  0
   21.4082  -21.7787  -12.4084 N   0  0  0  0  0  0  0  0  0  0  0  0
   20.2587  -21.6448  -11.5459 C   0  0  0  0  0  0  0  0  0  0  0  0
   19.1967  -22.6006  -11.8673 C   0  0  0  0  0  0  0  0  0  0  0  0
   18.0693  -22.7207  -11.0732 O   0  0  0  0  0  0  0  0  0  0  0  0
   19.2838  -23.3397  -12.8781 O   0  0  0  0  0  0  0  0  0  0  0  0
  2 13  1  0
  2  1  1  6
  3  2  1  0
  4  3  1  0
  5  4  2  0
  6  7  1  0
  6  5  1  0
  7 12  2  0
  8  9  2  0
  8  7  1  0
  9 10  1  0
 10 11  2  0
 12  4  1  0
 12 11  1  0
 13 14  2  0
 16 15  1  1
 17 16  1  0
 18 16  1  0
 18 19  1  1
 19 13  1  0
 20 21  2  0
 20 18  1  0
 22 20  1  0
 23 22  1  0
 24 23  1  0
 25 24  1  0
 26 24  2  0
M  END
$$$$
