WVG.pdb
     RDKit          3D

 26 27  0  0  1  0  0  0  0  0999 V2000
   28.7850  -21.0299   -9.9758 N   0  0  0  0  0  0  0  0  0  0  0  0
   27.3708  -20.7553   -9.8329 C   0  0  1  0  0  0  0  0  0  0  0  0
   27.2464  -19.4115   -9.1511 C   0  0  0  0  0  0  0  0  0  0  0  0
   27.8908  -19.4285   -7.8159 C   0  0  0  0  0  0  0  0  0  0  0  0
   29.1028  -18.8263   -7.5127 C   0  0  0  0  0  0  0  0  0  0  0  0
   29.3903  -19.0381   -6.2067 N   0  0  0  0  0  0  0  0  0  0  0  0
   28.4109  -19.7588   -5.6372 C   0  0  0  0  0  0  0  0  0  0  0  0
   28.2117  -20.2426   -4.3481 C   0  0  0  0  0  0  0  0  0  0  0  0
   27.0832  -20.9579   -4.0924 C   0  0  0  0  0  0  0  0  0  0  0  0
   26.1346  -21.2162   -5.0709 C   0  0  0  0  0  0  0  0  0  0  0  0
   26.3482  -20.7301   -6.3396 C   0  0  0  0  0  0  0  0  0  0  0  0
   27.4669  -20.0076   -6.6399 C   0  0  0  0  0  0  0  0  0  0  0  0
   26.7416  -20.7658  -11.1695 C   0  0  0  0  0  0  0  0  0  0  0  0
   27.4043  -20.3979  -12.1430 O   0  0  0  0  0  0  0  0  0  0  0  0
   23.5877  -22.3968  -14.4013 C   0  0  0  0  0  0  0  0  0  0  0  0
   24.6124  -22.5385  -13.2863 C   0  0  2  0  0  0  0  0  0  0  0  0
   24.0742  -23.6278  -12.3857 C   0  0  0  0  0  0  0  0  0  0  0  0
   24.7192  -21.2183  -12.6183 C   0  0  2  0  0  0  0  0  0  0  0  0
   25.4137  -21.1796  -11.3769 N   0  0  0  0  0  0  0  0  0  0  0  0
   23.3454  -20.6888  -12.3902 C   0  0  0  0  0  0  0  0  0  0  0  0
   22.6290  -21.0658  -11.4066 O   0  0  0  0  0  0  0  0  0  0  0  0
   22.7587  -19.7336  -13.2584 N   0  0  0  0  0  0  0  0  0  0  0  0
   21.4834  -19.1371  -12.9407 C   0  0  0  0  0  0  0  0  0  0  0  0
   20.3534  -19.9040  -13.4695 C   0  0  0  0  0  0  0  0  0  0  0  0
   19.0529  -19.6351  -13.0791 O   0  0  0  0  0  0  0  0  0  0  0  0
   20.5382  -20.8307  -14.2957 O   0  0  0  0  0  0  0  0  0  0  0  0
  2 13  1  0
  2  1  1  6
  3  2  1  0
  4  3  1  0
  5  4  2  0
  6  7  1  0
  6  5  1  0
  7 12  2  0
  8  9  2  0
  8  7  1  0
  9 10  1  0
 10 11  2  0
 12  4  1  0
 12 11  1  0
 13 14  2  0
 16 15  1  6
 17 16  1  0
 18 16  1  0
 18 19  1  1
 19 13  1  0
 20 21  2  0
 20 18  1  0
 22 20  1  0
 23 22  1  0
 24 23  1  0
 25 24  1  0
 26 24  2  0
M  END
$$$$
