WVG.pdb
     RDKit          3D

 26 27  0  0  1  0  0  0  0  0999 V2000
   27.0985  -20.3177  -16.7781 N   0  0  0  0  0  0  0  0  0  0  0  0
   26.9132  -19.6334  -15.5159 C   0  0  1  0  0  0  0  0  0  0  0  0
   26.3584  -18.2627  -15.8316 C   0  0  0  0  0  0  0  0  0  0  0  0
   27.2528  -17.5244  -16.7553 C   0  0  0  0  0  0  0  0  0  0  0  0
   28.6350  -17.6358  -16.7787 C   0  0  0  0  0  0  0  0  0  0  0  0
   29.1304  -16.8236  -17.7421 N   0  0  0  0  0  0  0  0  0  0  0  0
   28.1241  -16.1801  -18.3553 C   0  0  0  0  0  0  0  0  0  0  0  0
   28.0787  -15.2519  -19.3907 C   0  0  0  0  0  0  0  0  0  0  0  0
   26.8648  -14.7826  -19.7864 C   0  0  0  0  0  0  0  0  0  0  0  0
   25.6823  -15.1991  -19.1928 C   0  0  0  0  0  0  0  0  0  0  0  0
   25.7464  -16.1172  -18.1708 C   0  0  0  0  0  0  0  0  0  0  0  0
   26.9434  -16.6142  -17.7422 C   0  0  0  0  0  0  0  0  0  0  0  0
   25.9987  -20.4264  -14.6689 C   0  0  0  0  0  0  0  0  0  0  0  0
   25.2361  -21.2327  -15.2079 O   0  0  0  0  0  0  0  0  0  0  0  0
   25.5133  -20.1120  -10.1692 C   0  0  0  0  0  0  0  0  0  0  0  0
   25.7723  -21.3392  -11.0296 C   0  0  2  0  0  0  0  0  0  0  0  0
   27.2761  -21.4981  -11.0557 C   0  0  0  0  0  0  0  0  0  0  0  0
   25.1828  -21.0717  -12.3642 C   0  0  2  0  0  0  0  0  0  0  0  0
   25.9629  -20.2984  -13.2689 N   0  0  0  0  0  0  0  0  0  0  0  0
   23.8781  -20.3771  -12.1766 C   0  0  0  0  0  0  0  0  0  0  0  0
   23.7584  -19.3507  -11.4317 O   0  0  0  0  0  0  0  0  0  0  0  0
   22.6950  -20.8223  -12.8189 N   0  0  0  0  0  0  0  0  0  0  0  0
   21.4529  -20.1072  -12.6492 C   0  0  0  0  0  0  0  0  0  0  0  0
   20.4030  -20.9329  -12.0485 C   0  0  0  0  0  0  0  0  0  0  0  0
   19.1453  -20.4199  -11.7820 O   0  0  0  0  0  0  0  0  0  0  0  0
   20.6199  -22.1348  -11.7586 O   0  0  0  0  0  0  0  0  0  0  0  0
  2 13  1  0
  2  1  1  6
  3  2  1  0
  4  3  1  0
  5  4  2  0
  6  7  1  0
  6  5  1  0
  7 12  2  0
  8  9  2  0
  8  7  1  0
  9 10  1  0
 10 11  2  0
 12  4  1  0
 12 11  1  0
 13 14  2  0
 16 15  1  1
 17 16  1  0
 18 16  1  0
 18 19  1  6
 19 13  1  0
 20 21  2  0
 20 18  1  0
 22 20  1  0
 23 22  1  0
 24 23  1  0
 25 24  1  0
 26 24  2  0
M  END
$$$$
