WVG.pdb
     RDKit          3D

 26 27  0  0  1  0  0  0  0  0999 V2000
   27.3499  -22.4723  -14.4707 N   0  0  0  0  0  0  0  0  0  0  0  0
   26.3354  -21.8993  -13.6115 C   0  0  1  0  0  0  0  0  0  0  0  0
   26.8182  -20.5235  -13.2113 C   0  0  0  0  0  0  0  0  0  0  0  0
   27.7153  -20.5944  -12.0329 C   0  0  0  0  0  0  0  0  0  0  0  0
   29.0996  -20.5269  -12.0850 C   0  0  0  0  0  0  0  0  0  0  0  0
   29.5973  -20.6234  -10.8295 N   0  0  0  0  0  0  0  0  0  0  0  0
   28.5904  -20.7522   -9.9507 C   0  0  0  0  0  0  0  0  0  0  0  0
   28.5464  -20.8854   -8.5664 C   0  0  0  0  0  0  0  0  0  0  0  0
   27.3314  -20.9973   -7.9652 C   0  0  0  0  0  0  0  0  0  0  0  0
   26.1463  -20.9825   -8.6858 C   0  0  0  0  0  0  0  0  0  0  0  0
   26.2090  -20.8501  -10.0534 C   0  0  0  0  0  0  0  0  0  0  0  0
   27.4070  -20.7349  -10.6975 C   0  0  0  0  0  0  0  0  0  0  0  0
   25.0543  -21.8517  -14.3459 C   0  0  0  0  0  0  0  0  0  0  0  0
   25.0591  -21.5072  -15.5306 O   0  0  0  0  0  0  0  0  0  0  0  0
   23.1015  -24.7499  -14.9521 C   0  0  0  0  0  0  0  0  0  0  0  0
   22.0666  -23.8285  -14.3248 C   0  0  2  0  0  0  0  0  0  0  0  0
   20.8030  -24.0423  -15.1280 C   0  0  0  0  0  0  0  0  0  0  0  0
   22.5977  -22.4464  -14.4149 C   0  0  2  0  0  0  0  0  0  0  0  0
   23.8265  -22.1845  -13.7467 N   0  0  0  0  0  0  0  0  0  0  0  0
   21.5743  -21.5082  -13.8742 C   0  0  0  0  0  0  0  0  0  0  0  0
   21.4369  -21.3029  -12.6245 O   0  0  0  0  0  0  0  0  0  0  0  0
   20.6948  -20.7907  -14.7239 N   0  0  0  0  0  0  0  0  0  0  0  0
   19.6462  -19.9678  -14.1704 C   0  0  0  0  0  0  0  0  0  0  0  0
   19.9430  -18.5367  -14.2620 C   0  0  0  0  0  0  0  0  0  0  0  0
   21.1389  -18.0799  -14.7887 O   0  0  0  0  0  0  0  0  0  0  0  0
   19.1141  -17.6832  -13.8621 O   0  0  0  0  0  0  0  0  0  0  0  0
  2 13  1  0
  2  1  1  6
  3  2  1  0
  4  3  1  0
  5  4  2  0
  6  7  1  0
  6  5  1  0
  7 12  2  0
  8  9  2  0
  8  7  1  0
  9 10  1  0
 10 11  2  0
 12  4  1  0
 12 11  1  0
 13 14  2  0
 16 15  1  6
 17 16  1  0
 18 16  1  0
 18 19  1  1
 19 13  1  0
 20 21  2  0
 20 18  1  0
 22 20  1  0
 23 22  1  0
 24 23  1  0
 25 24  1  0
 26 24  2  0
M  END
$$$$
