WVG.pdb
     RDKit          3D

 26 27  0  0  1  0  0  0  0  0999 V2000
   28.3577  -21.4303  -10.3641 N   0  0  0  0  0  0  0  0  0  0  0  0
   27.0813  -20.8585   -9.9905 C   0  0  1  0  0  0  0  0  0  0  0  0
   27.3718  -19.5987   -9.2065 C   0  0  0  0  0  0  0  0  0  0  0  0
   28.3023  -19.8707   -8.0846 C   0  0  0  0  0  0  0  0  0  0  0  0
   29.6390  -20.2116   -8.2279 C   0  0  0  0  0  0  0  0  0  0  0  0
   30.1869  -20.3881   -7.0024 N   0  0  0  0  0  0  0  0  0  0  0  0
   29.2591  -20.1757   -6.0553 C   0  0  0  0  0  0  0  0  0  0  0  0
   29.2898  -20.2234   -4.6652 C   0  0  0  0  0  0  0  0  0  0  0  0
   28.1459  -19.9476   -3.9827 C   0  0  0  0  0  0  0  0  0  0  0  0
   26.9611  -19.6234   -4.6269 C   0  0  0  0  0  0  0  0  0  0  0  0
   26.9494  -19.5810   -6.0016 C   0  0  0  0  0  0  0  0  0  0  0  0
   28.0746  -19.8508   -6.7260 C   0  0  0  0  0  0  0  0  0  0  0  0
   26.2987  -20.5887  -11.2142 C   0  0  0  0  0  0  0  0  0  0  0  0
   26.8542  -20.0352  -12.1667 O   0  0  0  0  0  0  0  0  0  0  0  0
   23.5617  -23.0815  -12.7741 C   0  0  0  0  0  0  0  0  0  0  0  0
   24.0862  -21.8400  -13.4790 C   0  0  2  0  0  0  0  0  0  0  0  0
   25.4564  -22.2219  -13.9931 C   0  0  0  0  0  0  0  0  0  0  0  0
   24.1142  -20.7458  -12.4778 C   0  0  2  0  0  0  0  0  0  0  0  0
   24.9423  -20.9388  -11.3368 N   0  0  0  0  0  0  0  0  0  0  0  0
   22.7242  -20.5051  -11.9984 C   0  0  0  0  0  0  0  0  0  0  0  0
   22.2852  -21.0088  -10.9138 O   0  0  0  0  0  0  0  0  0  0  0  0
   21.8115  -19.6998  -12.7256 N   0  0  0  0  0  0  0  0  0  0  0  0
   20.4929  -19.4295  -12.2047 C   0  0  0  0  0  0  0  0  0  0  0  0
   19.5480  -20.5173  -12.4667 C   0  0  0  0  0  0  0  0  0  0  0  0
   18.2511  -20.4785  -11.9844 O   0  0  0  0  0  0  0  0  0  0  0  0
   19.8938  -21.5187  -13.1398 O   0  0  0  0  0  0  0  0  0  0  0  0
  2 13  1  0
  2  1  1  6
  3  2  1  0
  4  3  1  0
  5  4  2  0
  6  7  1  0
  6  5  1  0
  7 12  2  0
  8  9  2  0
  8  7  1  0
  9 10  1  0
 10 11  2  0
 12  4  1  0
 12 11  1  0
 13 14  2  0
 16 15  1  1
 17 16  1  0
 18 16  1  0
 18 19  1  1
 19 13  1  0
 20 21  2  0
 20 18  1  0
 22 20  1  0
 23 22  1  0
 24 23  1  0
 25 24  1  0
 26 24  2  0
M  END
$$$$
