WVG.pdb
     RDKit          3D

 26 27  0  0  1  0  0  0  0  0999 V2000
   25.1868  -21.0415   -7.9087 N   0  0  0  0  0  0  0  0  0  0  0  0
   26.1416  -20.4512   -8.8228 C   0  0  1  0  0  0  0  0  0  0  0  0
   27.5117  -20.6271   -8.2080 C   0  0  0  0  0  0  0  0  0  0  0  0
   27.6945  -19.7263   -7.0446 C   0  0  0  0  0  0  0  0  0  0  0  0
   27.2258  -18.4231   -6.9694 C   0  0  0  0  0  0  0  0  0  0  0  0
   27.5691  -17.8954   -5.7707 N   0  0  0  0  0  0  0  0  0  0  0  0
   28.2478  -18.8042   -5.0521 C   0  0  0  0  0  0  0  0  0  0  0  0
   28.8179  -18.7812   -3.7832 C   0  0  0  0  0  0  0  0  0  0  0  0
   29.4525  -19.8992   -3.3384 C   0  0  0  0  0  0  0  0  0  0  0  0
   29.5464  -21.0504   -4.1065 C   0  0  0  0  0  0  0  0  0  0  0  0
   28.9769  -21.0549   -5.3584 C   0  0  0  0  0  0  0  0  0  0  0  0
   28.3306  -19.9549   -5.8441 C   0  0  0  0  0  0  0  0  0  0  0  0
   26.0268  -21.1192  -10.1356 C   0  0  0  0  0  0  0  0  0  0  0  0
   26.2300  -22.3341  -10.2057 O   0  0  0  0  0  0  0  0  0  0  0  0
   24.0953  -19.2523  -13.4862 C   0  0  0  0  0  0  0  0  0  0  0  0
   24.2523  -20.7534  -13.2981 C   0  0  2  0  0  0  0  0  0  0  0  0
   23.0567  -21.1797  -12.4758 C   0  0  0  0  0  0  0  0  0  0  0  0
   25.5498  -20.9765  -12.6146 C   0  0  2  0  0  0  0  0  0  0  0  0
   25.6941  -20.4234  -11.3114 N   0  0  0  0  0  0  0  0  0  0  0  0
   26.6379  -20.4235  -13.4689 C   0  0  0  0  0  0  0  0  0  0  0  0
   26.9404  -19.1861  -13.4636 O   0  0  0  0  0  0  0  0  0  0  0  0
   27.3985  -21.2471  -14.3371 N   0  0  0  0  0  0  0  0  0  0  0  0
   28.4727  -20.6908  -15.1244 C   0  0  0  0  0  0  0  0  0  0  0  0
   28.0201  -20.1899  -16.4240 C   0  0  0  0  0  0  0  0  0  0  0  0
   28.9195  -19.8564  -17.4219 O   0  0  0  0  0  0  0  0  0  0  0  0
   26.7965  -20.0498  -16.6663 O   0  0  0  0  0  0  0  0  0  0  0  0
  2 13  1  0
  2  1  1  1
  3  2  1  0
  4  3  1  0
  5  4  2  0
  6  7  1  0
  6  5  1  0
  7 12  2  0
  8  9  2  0
  8  7  1  0
  9 10  1  0
 10 11  2  0
 12  4  1  0
 12 11  1  0
 13 14  2  0
 16 15  1  1
 17 16  1  0
 18 16  1  0
 18 19  1  1
 19 13  1  0
 20 21  2  0
 20 18  1  0
 22 20  1  0
 23 22  1  0
 24 23  1  0
 25 24  1  0
 26 24  2  0
M  END
$$$$
