WVG.pdb
     RDKit          3D

 26 27  0  0  1  0  0  0  0  0999 V2000
   24.8097  -20.8033  -17.9446 N   0  0  0  0  0  0  0  0  0  0  0  0
   24.4941  -20.2062  -16.6641 C   0  0  1  0  0  0  0  0  0  0  0  0
   23.0042  -20.3598  -16.4580 C   0  0  0  0  0  0  0  0  0  0  0  0
   22.2513  -19.3354  -17.2210 C   0  0  0  0  0  0  0  0  0  0  0  0
   22.1117  -19.3179  -18.6008 C   0  0  0  0  0  0  0  0  0  0  0  0
   21.3654  -18.2465  -18.9588 N   0  0  0  0  0  0  0  0  0  0  0  0
   21.0073  -17.5563  -17.8641 C   0  0  0  0  0  0  0  0  0  0  0  0
   20.2563  -16.4012  -17.6707 C   0  0  0  0  0  0  0  0  0  0  0  0
   20.0752  -15.9523  -16.3994 C   0  0  0  0  0  0  0  0  0  0  0  0
   20.6127  -16.6069  -15.3011 C   0  0  0  0  0  0  0  0  0  0  0  0
   21.3524  -17.7473  -15.5113 C   0  0  0  0  0  0  0  0  0  0  0  0
   21.5590  -18.2328  -16.7703 C   0  0  0  0  0  0  0  0  0  0  0  0
   25.2781  -20.8842  -15.6112 C   0  0  0  0  0  0  0  0  0  0  0  0
   25.4041  -22.1106  -15.6587 O   0  0  0  0  0  0  0  0  0  0  0  0
   28.5048  -20.8462  -11.9699 C   0  0  0  0  0  0  0  0  0  0  0  0
   28.0399  -20.3953  -13.3461 C   0  0  2  0  0  0  0  0  0  0  0  0
   28.2969  -18.9054  -13.3859 C   0  0  0  0  0  0  0  0  0  0  0  0
   26.6045  -20.7508  -13.4626 C   0  0  2  0  0  0  0  0  0  0  0  0
   25.8880  -20.1853  -14.5543 N   0  0  0  0  0  0  0  0  0  0  0  0
   25.9125  -20.3506  -12.2054 C   0  0  0  0  0  0  0  0  0  0  0  0
   25.5240  -19.1553  -11.9972 O   0  0  0  0  0  0  0  0  0  0  0  0
   25.6479  -21.2812  -11.1688 N   0  0  0  0  0  0  0  0  0  0  0  0
   24.9240  -20.8788   -9.9868 C   0  0  0  0  0  0  0  0  0  0  0  0
   23.4734  -20.8708  -10.1879 C   0  0  0  0  0  0  0  0  0  0  0  0
   22.6087  -20.4558   -9.1898 O   0  0  0  0  0  0  0  0  0  0  0  0
   22.9753  -21.2428  -11.2783 O   0  0  0  0  0  0  0  0  0  0  0  0
  2 13  1  0
  2  1  1  6
  3  2  1  0
  4  3  1  0
  5  4  2  0
  6  7  1  0
  6  5  1  0
  7 12  2  0
  8  9  2  0
  8  7  1  0
  9 10  1  0
 10 11  2  0
 12  4  1  0
 12 11  1  0
 13 14  2  0
 16 15  1  1
 17 16  1  0
 18 16  1  0
 18 19  1  6
 19 13  1  0
 20 21  2  0
 20 18  1  0
 22 20  1  0
 23 22  1  0
 24 23  1  0
 25 24  1  0
 26 24  2  0
M  END
$$$$
