WVG.pdb
     RDKit          3D

 26 27  0  0  1  0  0  0  0  0999 V2000
   22.9605  -25.8816  -17.6563 N   0  0  0  0  0  0  0  0  0  0  0  0
   24.0377  -25.9198  -16.6899 C   0  0  1  0  0  0  0  0  0  0  0  0
   23.4685  -26.4969  -15.4135 C   0  0  0  0  0  0  0  0  0  0  0  0
   22.5216  -25.5511  -14.7756 C   0  0  0  0  0  0  0  0  0  0  0  0
   21.1940  -25.8310  -14.4882 C   0  0  0  0  0  0  0  0  0  0  0  0
   20.6257  -24.7465  -13.9103 N   0  0  0  0  0  0  0  0  0  0  0  0
   21.5313  -23.7606  -13.8062 C   0  0  0  0  0  0  0  0  0  0  0  0
   21.4746  -22.4657  -13.3004 C   0  0  0  0  0  0  0  0  0  0  0  0
   22.6002  -21.7033  -13.3458 C   0  0  0  0  0  0  0  0  0  0  0  0
   23.7914  -22.1754  -13.8769 C   0  0  0  0  0  0  0  0  0  0  0  0
   23.8289  -23.4579  -14.3723 C   0  0  0  0  0  0  0  0  0  0  0  0
   22.7227  -24.2574  -14.3466 C   0  0  0  0  0  0  0  0  0  0  0  0
   25.1411  -26.7392  -17.2319 C   0  0  0  0  0  0  0  0  0  0  0  0
   24.8790  -27.6266  -18.0480 O   0  0  0  0  0  0  0  0  0  0  0  0
   29.9848  -27.3173  -17.9186 C   0  0  0  0  0  0  0  0  0  0  0  0
   28.8587  -26.3726  -17.5276 C   0  0  2  0  0  0  0  0  0  0  0  0
   29.2943  -25.7529  -16.2185 C   0  0  0  0  0  0  0  0  0  0  0  0
   27.6232  -27.1856  -17.4146 C   0  0  2  0  0  0  0  0  0  0  0  0
   26.4819  -26.5473  -16.8536 N   0  0  0  0  0  0  0  0  0  0  0  0
   27.9221  -28.3921  -16.5931 C   0  0  0  0  0  0  0  0  0  0  0  0
   28.0947  -28.3273  -15.3326 O   0  0  0  0  0  0  0  0  0  0  0  0
   28.0309  -29.6822  -17.1714 N   0  0  0  0  0  0  0  0  0  0  0  0
   28.3303  -30.8321  -16.3522 C   0  0  0  0  0  0  0  0  0  0  0  0
   29.5970  -31.4707  -16.7159 C   0  0  0  0  0  0  0  0  0  0  0  0
   30.0704  -32.5768  -16.0313 O   0  0  0  0  0  0  0  0  0  0  0  0
   30.2895  -31.0271  -17.6642 O   0  0  0  0  0  0  0  0  0  0  0  0
  2 13  1  0
  2  1  1  6
  3  2  1  0
  4  3  1  0
  5  4  2  0
  6  7  1  0
  6  5  1  0
  7 12  2  0
  8  9  2  0
  8  7  1  0
  9 10  1  0
 10 11  2  0
 12  4  1  0
 12 11  1  0
 13 14  2  0
 16 15  1  1
 17 16  1  0
 18 16  1  0
 18 19  1  1
 19 13  1  0
 20 21  2  0
 20 18  1  0
 22 20  1  0
 23 22  1  0
 24 23  1  0
 25 24  1  0
 26 24  2  0
M  END
$$$$
