WVG.pdb
     RDKit          3D

 26 27  0  0  1  0  0  0  0  0999 V2000
   26.8070  -22.1887  -13.5494 N   0  0  0  0  0  0  0  0  0  0  0  0
   25.9743  -21.0250  -13.7688 C   0  0  1  0  0  0  0  0  0  0  0  0
   26.3331  -20.0152  -12.7022 C   0  0  0  0  0  0  0  0  0  0  0  0
   25.7628  -20.4003  -11.3889 C   0  0  0  0  0  0  0  0  0  0  0  0
   26.4955  -20.5597  -10.2222 C   0  0  0  0  0  0  0  0  0  0  0  0
   25.6602  -20.9135   -9.2171 N   0  0  0  0  0  0  0  0  0  0  0  0
   24.4020  -20.9932   -9.6791 C   0  0  0  0  0  0  0  0  0  0  0  0
   23.1866  -21.3098   -9.0807 C   0  0  0  0  0  0  0  0  0  0  0  0
   22.0644  -21.2991   -9.8494 C   0  0  0  0  0  0  0  0  0  0  0  0
   22.0969  -20.9845  -11.1999 C   0  0  0  0  0  0  0  0  0  0  0  0
   23.3073  -20.6741  -11.7746 C   0  0  0  0  0  0  0  0  0  0  0  0
   24.4580  -20.6727  -11.0402 C   0  0  0  0  0  0  0  0  0  0  0  0
   26.2172  -20.5101  -15.1321 C   0  0  0  0  0  0  0  0  0  0  0  0
   27.2624  -19.8953  -15.3593 O   0  0  0  0  0  0  0  0  0  0  0  0
   24.9526  -22.2603  -18.6607 C   0  0  0  0  0  0  0  0  0  0  0  0
   25.9429  -21.1122  -18.5392 C   0  0  2  0  0  0  0  0  0  0  0  0
   27.2561  -21.7569  -18.1553 C   0  0  0  0  0  0  0  0  0  0  0  0
   25.4156  -20.1853  -17.5081 C   0  0  2  0  0  0  0  0  0  0  0  0
   25.3019  -20.6934  -16.1838 N   0  0  0  0  0  0  0  0  0  0  0  0
   24.0673  -19.7170  -17.9353 C   0  0  0  0  0  0  0  0  0  0  0  0
   23.8727  -19.1466  -19.0576 O   0  0  0  0  0  0  0  0  0  0  0  0
   22.9237  -19.8812  -17.1133 N   0  0  0  0  0  0  0  0  0  0  0  0
   21.6425  -19.3580  -17.5232 C   0  0  0  0  0  0  0  0  0  0  0  0
   21.3427  -18.0588  -16.9175 C   0  0  0  0  0  0  0  0  0  0  0  0
   21.0390  -16.9536  -17.6937 O   0  0  0  0  0  0  0  0  0  0  0  0
   21.3540  -17.9148  -15.6707 O   0  0  0  0  0  0  0  0  0  0  0  0
  2 13  1  0
  2  1  1  1
  3  2  1  0
  4  3  1  0
  5  4  2  0
  6  7  1  0
  6  5  1  0
  7 12  2  0
  8  9  2  0
  8  7  1  0
  9 10  1  0
 10 11  2  0
 12  4  1  0
 12 11  1  0
 13 14  2  0
 16 15  1  1
 17 16  1  0
 18 16  1  0
 18 19  1  1
 19 13  1  0
 20 21  2  0
 20 18  1  0
 22 20  1  0
 23 22  1  0
 24 23  1  0
 25 24  1  0
 26 24  2  0
M  END
$$$$
