PLC.pdb
     RDKit          3D

 22 22  0  0  1  0  0  0  0  0999 V2000
    6.9475  -14.7338   20.8365 N   0  0  0  0  0  0  0  0  0  0  0  0
    6.5341  -14.0694   19.6203 C   0  0  0  0  0  0  0  0  0  0  0  0
    7.4684  -12.9255   19.3842 C   0  0  0  0  0  0  0  0  0  0  0  0
    8.3152  -12.9007   20.6402 C   0  0  0  0  0  0  0  0  0  0  0  0
    8.3176  -14.3687   21.0176 C   0  0  1  0  0  0  0  0  0  0  0  0
    8.7932  -14.5871   22.4091 C   0  0  0  0  0  0  0  0  0  0  0  0
   10.0292  -14.6855   22.6215 O   0  0  0  0  0  0  0  0  0  0  0  0
    7.9915  -11.9241   26.0327 C   0  0  0  0  0  0  0  0  0  0  0  0
    6.8109  -12.7415   25.5052 C   0  0  2  0  0  0  0  0  0  0  0  0
    5.6124  -12.3141   26.3390 C   0  0  0  0  0  0  0  0  0  0  0  0
    7.0394  -14.2098   25.7647 C   0  0  0  0  0  0  0  0  0  0  0  0
    8.1071  -14.8018   24.8494 C   0  0  2  0  0  0  0  0  0  0  0  0
    7.8445  -14.6784   23.4554 N   0  0  0  0  0  0  0  0  0  0  0  0
    8.6255  -16.0791   25.3148 C   0  0  0  0  0  0  0  0  0  0  0  0
    7.8723  -17.0882   25.3707 O   0  0  0  0  0  0  0  0  0  0  0  0
    9.9720  -16.2763   25.7261 N   0  0  0  0  0  0  0  0  0  0  0  0
   10.4424  -17.5724   26.1655 C   0  0  1  0  0  0  0  0  0  0  0  0
   11.8599  -17.8360   25.6738 C   0  0  0  0  0  0  0  0  0  0  0  0
   11.9733  -17.4963   23.9126 S   0  0  0  0  0  0  0  0  0  0  0  0
   10.3721  -17.6838   27.6436 C   0  0  0  0  0  0  0  0  0  0  0  0
   10.7886  -18.8171   28.3058 O   0  0  0  0  0  0  0  0  0  0  0  0
    9.9192  -16.7122   28.2935 O   0  0  0  0  0  0  0  0  0  0  0  0
  1  5  1  0
  2  1  1  0
  3  4  1  0
  3  2  1  0
  4  5  1  0
  5  6  1  1
  6  7  2  0
  9  8  1  1
  9 10  1  0
  9 11  1  0
 12 11  1  1
 12 13  1  0
 12 14  1  0
 13  6  1  0
 14 16  1  0
 15 14  2  0
 16 17  1  0
 17 20  1  0
 17 18  1  1
 19 18  1  0
 20 22  2  0
 20 21  1  0
M  END
$$$$
