PLC.pdb
     RDKit          3D

 22 22  0  0  1  0  0  0  0  0999 V2000
    7.4011  -15.4087   20.5823 N   0  0  0  0  0  0  0  0  0  0  0  0
    6.9682  -15.1213   19.2327 C   0  0  0  0  0  0  0  0  0  0  0  0
    7.5808  -13.8196   18.8236 C   0  0  0  0  0  0  0  0  0  0  0  0
    8.2379  -13.3270   20.0967 C   0  0  0  0  0  0  0  0  0  0  0  0
    8.5916  -14.6395   20.7673 C   0  0  1  0  0  0  0  0  0  0  0  0
    8.9437  -14.4578   22.2002 C   0  0  0  0  0  0  0  0  0  0  0  0
   10.1558  -14.3567   22.5211 O   0  0  0  0  0  0  0  0  0  0  0  0
    5.9109  -12.3590   27.2411 C   0  0  0  0  0  0  0  0  0  0  0  0
    7.1503  -13.0118   26.6264 C   0  0  2  0  0  0  0  0  0  0  0  0
    8.2349  -11.9457   26.6631 C   0  0  0  0  0  0  0  0  0  0  0  0
    6.8961  -13.3457   25.1774 C   0  0  0  0  0  0  0  0  0  0  0  0
    8.0383  -14.1448   24.5570 C   0  0  2  0  0  0  0  0  0  0  0  0
    7.9076  -14.4036   23.1629 N   0  0  0  0  0  0  0  0  0  0  0  0
    8.4984  -15.2427   25.3937 C   0  0  0  0  0  0  0  0  0  0  0  0
    7.6982  -16.1494   25.7489 O   0  0  0  0  0  0  0  0  0  0  0  0
    9.8369  -15.3691   25.8558 N   0  0  0  0  0  0  0  0  0  0  0  0
   10.2621  -16.5194   26.6242 C   0  0  1  0  0  0  0  0  0  0  0  0
   11.6054  -17.0414   26.1306 C   0  0  0  0  0  0  0  0  0  0  0  0
   11.5043  -17.4435   24.3819 S   0  0  0  0  0  0  0  0  0  0  0  0
   10.3275  -16.1909   28.0698 C   0  0  0  0  0  0  0  0  0  0  0  0
   10.6101  -17.1480   29.0187 O   0  0  0  0  0  0  0  0  0  0  0  0
   10.1176  -15.0061   28.4218 O   0  0  0  0  0  0  0  0  0  0  0  0
  1  5  1  0
  2  1  1  0
  3  4  1  0
  3  2  1  0
  4  5  1  0
  5  6  1  1
  6  7  2  0
  9  8  1  6
  9 10  1  0
  9 11  1  0
 12 11  1  1
 12 13  1  0
 12 14  1  0
 13  6  1  0
 14 16  1  0
 15 14  2  0
 16 17  1  0
 17 20  1  0
 17 18  1  6
 19 18  1  0
 20 22  2  0
 20 21  1  0
M  END
$$$$
