PLC.pdb
     RDKit          3D

 22 22  0  0  1  0  0  0  0  0999 V2000
    7.1312  -14.8685   20.1578 N   0  0  0  0  0  0  0  0  0  0  0  0
    6.8627  -14.4120   18.8120 C   0  0  0  0  0  0  0  0  0  0  0  0
    7.7869  -13.2720   18.5232 C   0  0  0  0  0  0  0  0  0  0  0  0
    8.4600  -13.0210   19.8571 C   0  0  0  0  0  0  0  0  0  0  0  0
    8.4545  -14.4152   20.4518 C   0  0  1  0  0  0  0  0  0  0  0  0
    8.7489  -14.4023   21.9090 C   0  0  0  0  0  0  0  0  0  0  0  0
    9.9485  -14.4076   22.2877 O   0  0  0  0  0  0  0  0  0  0  0  0
    5.6145  -12.5857   26.9911 C   0  0  0  0  0  0  0  0  0  0  0  0
    6.8506  -13.2341   26.3649 C   0  0  2  0  0  0  0  0  0  0  0  0
    7.9711  -12.2175   26.5249 C   0  0  0  0  0  0  0  0  0  0  0  0
    6.6361  -13.4386   24.8858 C   0  0  0  0  0  0  0  0  0  0  0  0
    7.7524  -14.2582   24.2453 C   0  0  2  0  0  0  0  0  0  0  0  0
    7.6737  -14.3844   22.8292 N   0  0  0  0  0  0  0  0  0  0  0  0
    8.0977  -15.4544   24.9982 C   0  0  0  0  0  0  0  0  0  0  0  0
    7.2075  -16.2940   25.3004 O   0  0  0  0  0  0  0  0  0  0  0  0
    9.4177  -15.7538   25.4331 N   0  0  0  0  0  0  0  0  0  0  0  0
    9.7325  -17.0151   26.0690 C   0  0  1  0  0  0  0  0  0  0  0  0
   10.9374  -17.6747   25.4103 C   0  0  0  0  0  0  0  0  0  0  0  0
   10.8418  -17.4876   23.6255 S   0  0  0  0  0  0  0  0  0  0  0  0
    9.9683  -16.8268   27.5220 C   0  0  0  0  0  0  0  0  0  0  0  0
    9.9031  -15.5843   28.1120 O   0  0  0  0  0  0  0  0  0  0  0  0
   10.2330  -17.8352   28.2183 O   0  0  0  0  0  0  0  0  0  0  0  0
  1  5  1  0
  2  1  1  0
  3  4  1  0
  3  2  1  0
  4  5  1  0
  5  6  1  1
  6  7  2  0
  9  8  1  6
  9 10  1  0
  9 11  1  0
 12 11  1  1
 12 13  1  0
 12 14  1  0
 13  6  1  0
 14 16  1  0
 15 14  2  0
 16 17  1  0
 17 20  1  0
 17 18  1  6
 19 18  1  0
 20 22  2  0
 20 21  1  0
M  END
$$$$
