PLC.pdb
     RDKit          3D

 22 22  0  0  1  0  0  0  0  0999 V2000
    7.2374  -14.8930   20.1293 N   0  0  0  0  0  0  0  0  0  0  0  0
    6.8557  -14.3187   18.8580 C   0  0  0  0  0  0  0  0  0  0  0  0
    7.5382  -12.9938   18.7317 C   0  0  0  0  0  0  0  0  0  0  0  0
    8.1814  -12.8009   20.0898 C   0  0  0  0  0  0  0  0  0  0  0  0
    8.4561  -14.2375   20.4874 C   0  0  1  0  0  0  0  0  0  0  0  0
    8.7760  -14.3656   21.9336 C   0  0  0  0  0  0  0  0  0  0  0  0
    9.9574  -14.6314   22.2745 O   0  0  0  0  0  0  0  0  0  0  0  0
    5.9432  -12.5692   27.2338 C   0  0  0  0  0  0  0  0  0  0  0  0
    7.1324  -13.2110   26.5168 C   0  0  2  0  0  0  0  0  0  0  0  0
    8.3006  -12.2603   26.7308 C   0  0  0  0  0  0  0  0  0  0  0  0
    6.8703  -13.2753   25.0327 C   0  0  0  0  0  0  0  0  0  0  0  0
    7.8745  -14.1634   24.3039 C   0  0  2  0  0  0  0  0  0  0  0  0
    7.7448  -14.1854   22.8861 N   0  0  0  0  0  0  0  0  0  0  0  0
    8.1094  -15.4370   24.9670 C   0  0  0  0  0  0  0  0  0  0  0  0
    7.1547  -16.2358   25.1650 O   0  0  0  0  0  0  0  0  0  0  0  0
    9.3876  -15.8595   25.4240 N   0  0  0  0  0  0  0  0  0  0  0  0
    9.5996  -17.1966   25.9355 C   0  0  1  0  0  0  0  0  0  0  0  0
   10.4908  -18.0052   25.0014 C   0  0  0  0  0  0  0  0  0  0  0  0
   11.8669  -16.9962   24.4376 S   0  0  0  0  0  0  0  0  0  0  0  0
   10.1778  -17.1514   27.3014 C   0  0  0  0  0  0  0  0  0  0  0  0
   10.3754  -18.2946   28.0432 O   0  0  0  0  0  0  0  0  0  0  0  0
   10.4900  -16.0354   27.7798 O   0  0  0  0  0  0  0  0  0  0  0  0
  1  5  1  0
  2  1  1  0
  3  4  1  0
  3  2  1  0
  4  5  1  0
  5  6  1  1
  6  7  2  0
  9  8  1  1
  9 10  1  0
  9 11  1  0
 12 11  1  1
 12 13  1  0
 12 14  1  0
 13  6  1  0
 14 16  1  0
 15 14  2  0
 16 17  1  0
 17 20  1  0
 17 18  1  6
 19 18  1  0
 20 22  2  0
 20 21  1  0
M  END
$$$$
