PLC.pdb
     RDKit          3D

 22 22  0  0  1  0  0  0  0  0999 V2000
    6.9200  -14.6889   20.9573 N   0  0  0  0  0  0  0  0  0  0  0  0
    6.5072  -14.0542   19.7251 C   0  0  0  0  0  0  0  0  0  0  0  0
    7.4227  -12.8975   19.4778 C   0  0  0  0  0  0  0  0  0  0  0  0
    8.2556  -12.8344   20.7418 C   0  0  0  0  0  0  0  0  0  0  0  0
    8.2811  -14.2951   21.1457 C   0  0  1  0  0  0  0  0  0  0  0  0
    8.7460  -14.4796   22.5457 C   0  0  0  0  0  0  0  0  0  0  0  0
    9.9780  -14.4146   22.7916 O   0  0  0  0  0  0  0  0  0  0  0  0
    8.0452  -12.0740   26.3010 C   0  0  0  0  0  0  0  0  0  0  0  0
    6.8247  -12.7770   25.7041 C   0  0  2  0  0  0  0  0  0  0  0  0
    5.6417  -12.3323   26.5509 C   0  0  0  0  0  0  0  0  0  0  0  0
    6.9566  -14.2712   25.8642 C   0  0  0  0  0  0  0  0  0  0  0  0
    8.0349  -14.8590   24.9587 C   0  0  2  0  0  0  0  0  0  0  0  0
    7.7918  -14.7231   23.5623 N   0  0  0  0  0  0  0  0  0  0  0  0
    8.5429  -16.1419   25.4204 C   0  0  0  0  0  0  0  0  0  0  0  0
    7.7571  -17.1128   25.5895 O   0  0  0  0  0  0  0  0  0  0  0  0
    9.9142  -16.3862   25.7047 N   0  0  0  0  0  0  0  0  0  0  0  0
   10.3657  -17.6761   26.1808 C   0  0  1  0  0  0  0  0  0  0  0  0
   11.7114  -18.0450   25.5696 C   0  0  0  0  0  0  0  0  0  0  0  0
   11.6402  -17.8822   23.7813 S   0  0  0  0  0  0  0  0  0  0  0  0
   10.4419  -17.6924   27.6627 C   0  0  0  0  0  0  0  0  0  0  0  0
   10.8177  -18.8207   28.3569 O   0  0  0  0  0  0  0  0  0  0  0  0
   10.1535  -16.6434   28.2857 O   0  0  0  0  0  0  0  0  0  0  0  0
  1  5  1  0
  2  1  1  0
  3  4  1  0
  3  2  1  0
  4  5  1  0
  5  6  1  1
  6  7  2  0
  9  8  1  1
  9 10  1  0
  9 11  1  0
 12 11  1  1
 12 13  1  0
 12 14  1  0
 13  6  1  0
 14 16  1  0
 15 14  2  0
 16 17  1  0
 17 20  1  0
 17 18  1  6
 19 18  1  0
 20 22  2  0
 20 21  1  0
M  END
$$$$
