PLC.pdb
     RDKit          3D

 22 22  0  0  1  0  0  0  0  0999 V2000
    7.0156  -14.7052   20.8852 N   0  0  0  0  0  0  0  0  0  0  0  0
    6.5288  -14.0852   19.6727 C   0  0  0  0  0  0  0  0  0  0  0  0
    7.3390  -12.8510   19.4334 C   0  0  0  0  0  0  0  0  0  0  0  0
    8.1863  -12.7408   20.6845 C   0  0  0  0  0  0  0  0  0  0  0  0
    8.3419  -14.2013   21.0590 C   0  0  1  0  0  0  0  0  0  0  0  0
    8.8458  -14.3715   22.4474 C   0  0  0  0  0  0  0  0  0  0  0  0
   10.0859  -14.3277   22.6544 O   0  0  0  0  0  0  0  0  0  0  0  0
    8.1264  -12.0156   26.3485 C   0  0  0  0  0  0  0  0  0  0  0  0
    6.9513  -12.7627   25.7151 C   0  0  2  0  0  0  0  0  0  0  0  0
    5.7346  -12.3957   26.5516 C   0  0  0  0  0  0  0  0  0  0  0  0
    7.1534  -14.2521   25.8437 C   0  0  0  0  0  0  0  0  0  0  0  0
    8.2081  -14.7803   24.8760 C   0  0  2  0  0  0  0  0  0  0  0  0
    7.9187  -14.5777   23.4966 N   0  0  0  0  0  0  0  0  0  0  0  0
    8.7445  -16.0784   25.2560 C   0  0  0  0  0  0  0  0  0  0  0  0
    8.0145  -17.1049   25.2128 O   0  0  0  0  0  0  0  0  0  0  0  0
   10.0840  -16.2774   25.6887 N   0  0  0  0  0  0  0  0  0  0  0  0
   10.5803  -17.5965   26.0176 C   0  0  1  0  0  0  0  0  0  0  0  0
   12.0487  -17.7393   25.6382 C   0  0  0  0  0  0  0  0  0  0  0  0
   12.6662  -19.3438   26.1619 S   0  0  0  0  0  0  0  0  0  0  0  0
   10.3815  -17.8887   27.4589 C   0  0  0  0  0  0  0  0  0  0  0  0
   10.2974  -16.8844   28.3973 O   0  0  0  0  0  0  0  0  0  0  0  0
   10.2893  -19.0866   27.8169 O   0  0  0  0  0  0  0  0  0  0  0  0
  1  5  1  0
  2  1  1  0
  3  4  1  0
  3  2  1  0
  4  5  1  0
  5  6  1  1
  6  7  2  0
  9  8  1  1
  9 10  1  0
  9 11  1  0
 12 11  1  1
 12 13  1  0
 12 14  1  0
 13  6  1  0
 14 16  1  0
 15 14  2  0
 16 17  1  0
 17 20  1  0
 17 18  1  1
 19 18  1  0
 20 22  2  0
 20 21  1  0
M  END
$$$$
