PLC.pdb
     RDKit          3D

 22 22  0  0  1  0  0  0  0  0999 V2000
    7.0458  -14.6484   20.9034 N   0  0  0  0  0  0  0  0  0  0  0  0
    6.6534  -14.0461   19.6484 C   0  0  0  0  0  0  0  0  0  0  0  0
    7.5974  -12.9207   19.3666 C   0  0  0  0  0  0  0  0  0  0  0  0
    8.4267  -12.8348   20.6316 C   0  0  0  0  0  0  0  0  0  0  0  0
    8.4153  -14.2811   21.0848 C   0  0  1  0  0  0  0  0  0  0  0  0
    8.8701  -14.4292   22.4925 C   0  0  0  0  0  0  0  0  0  0  0  0
   10.0991  -14.3438   22.7473 O   0  0  0  0  0  0  0  0  0  0  0  0
    8.1461  -11.9714   26.2516 C   0  0  0  0  0  0  0  0  0  0  0  0
    6.9514  -12.6802   25.6110 C   0  0  2  0  0  0  0  0  0  0  0  0
    5.7331  -12.2202   26.3975 C   0  0  0  0  0  0  0  0  0  0  0  0
    7.0714  -14.1721   25.7989 C   0  0  0  0  0  0  0  0  0  0  0  0
    8.1453  -14.7851   24.9049 C   0  0  2  0  0  0  0  0  0  0  0  0
    7.9101  -14.6620   23.5060 N   0  0  0  0  0  0  0  0  0  0  0  0
    8.6335  -16.0695   25.3835 C   0  0  0  0  0  0  0  0  0  0  0  0
    7.8318  -17.0236   25.5723 O   0  0  0  0  0  0  0  0  0  0  0  0
   10.0021  -16.3336   25.6635 N   0  0  0  0  0  0  0  0  0  0  0  0
   10.4511  -17.6565   26.0411 C   0  0  1  0  0  0  0  0  0  0  0  0
   11.8962  -17.8859   25.6172 C   0  0  0  0  0  0  0  0  0  0  0  0
   12.1001  -17.4759   23.8793 S   0  0  0  0  0  0  0  0  0  0  0  0
   10.2943  -17.8681   27.5014 C   0  0  0  0  0  0  0  0  0  0  0  0
   10.6133  -19.0672   28.0987 O   0  0  0  0  0  0  0  0  0  0  0  0
    9.8586  -16.9207   28.1974 O   0  0  0  0  0  0  0  0  0  0  0  0
  1  5  1  0
  2  1  1  0
  3  4  1  0
  3  2  1  0
  4  5  1  0
  5  6  1  1
  6  7  2  0
  9  8  1  1
  9 10  1  0
  9 11  1  0
 12 11  1  1
 12 13  1  0
 12 14  1  0
 13  6  1  0
 14 16  1  0
 15 14  2  0
 16 17  1  0
 17 20  1  0
 17 18  1  1
 19 18  1  0
 20 22  2  0
 20 21  1  0
M  END
$$$$
