PLC.pdb
     RDKit          3D

 22 22  0  0  1  0  0  0  0  0999 V2000
    8.0228  -18.6159   19.7431 N   0  0  0  0  0  0  0  0  0  0  0  0
    7.7293  -19.3102   18.5089 C   0  0  0  0  0  0  0  0  0  0  0  0
    8.7010  -18.8361   17.4755 C   0  0  0  0  0  0  0  0  0  0  0  0
    9.4353  -17.7110   18.1760 C   0  0  0  0  0  0  0  0  0  0  0  0
    9.3782  -18.1799   19.6162 C   0  0  1  0  0  0  0  0  0  0  0  0
    9.7265  -17.0950   20.5712 C   0  0  0  0  0  0  0  0  0  0  0  0
   10.8907  -17.0525   21.0459 O   0  0  0  0  0  0  0  0  0  0  0  0
    8.7326  -12.9969   19.4963 C   0  0  0  0  0  0  0  0  0  0  0  0
    7.5753  -13.7032   20.2047 C   0  0  2  0  0  0  0  0  0  0  0  0
    6.4049  -12.7332   20.1431 C   0  0  0  0  0  0  0  0  0  0  0  0
    7.9092  -13.9139   21.6606 C   0  0  0  0  0  0  0  0  0  0  0  0
    8.8564  -15.0909   21.8744 C   0  0  2  0  0  0  0  0  0  0  0  0
    8.7408  -16.1411   20.9200 N   0  0  0  0  0  0  0  0  0  0  0  0
    8.9942  -15.4773   23.2704 C   0  0  0  0  0  0  0  0  0  0  0  0
    9.3737  -14.6354   24.1282 O   0  0  0  0  0  0  0  0  0  0  0  0
    8.7206  -16.7864   23.7526 N   0  0  0  0  0  0  0  0  0  0  0  0
    8.8838  -17.1226   25.1507 C   0  0  1  0  0  0  0  0  0  0  0  0
    7.7034  -17.9408   25.6585 C   0  0  0  0  0  0  0  0  0  0  0  0
    6.1710  -17.0405   25.3923 S   0  0  0  0  0  0  0  0  0  0  0  0
   10.1583  -17.8501   25.3711 C   0  0  0  0  0  0  0  0  0  0  0  0
   10.5334  -18.2933   26.6198 O   0  0  0  0  0  0  0  0  0  0  0  0
   10.9032  -18.0596   24.3848 O   0  0  0  0  0  0  0  0  0  0  0  0
  1  5  1  0
  2  1  1  0
  3  4  1  0
  3  2  1  0
  4  5  1  0
  5  6  1  1
  6  7  2  0
  9  8  1  6
  9 10  1  0
  9 11  1  0
 12 11  1  1
 12 13  1  0
 12 14  1  0
 13  6  1  0
 14 16  1  0
 15 14  2  0
 16 17  1  0
 17 20  1  0
 17 18  1  6
 19 18  1  0
 20 22  2  0
 20 21  1  0
M  END
$$$$
