PLC.pdb
     RDKit          3D

 22 22  0  0  1  0  0  0  0  0999 V2000
    7.1267  -14.8836   20.9875 N   0  0  0  0  0  0  0  0  0  0  0  0
    6.7786  -14.4066   19.6674 C   0  0  0  0  0  0  0  0  0  0  0  0
    7.6033  -13.1904   19.3886 C   0  0  0  0  0  0  0  0  0  0  0  0
    8.3007  -12.9308   20.7083 C   0  0  0  0  0  0  0  0  0  0  0  0
    8.4212  -14.3394   21.2548 C   0  0  1  0  0  0  0  0  0  0  0  0
    8.7635  -14.3501   22.7016 C   0  0  0  0  0  0  0  0  0  0  0  0
    9.9747  -14.3307   23.0407 O   0  0  0  0  0  0  0  0  0  0  0  0
    7.9626  -11.5106   26.3498 C   0  0  0  0  0  0  0  0  0  0  0  0
    6.7620  -12.0866   25.5970 C   0  0  2  0  0  0  0  0  0  0  0  0
    5.5337  -11.4946   26.2718 C   0  0  0  0  0  0  0  0  0  0  0  0
    6.7013  -13.5822   25.7837 C   0  0  0  0  0  0  0  0  0  0  0  0
    7.8431  -14.3026   25.0728 C   0  0  2  0  0  0  0  0  0  0  0  0
    7.7193  -14.3818   23.6565 N   0  0  0  0  0  0  0  0  0  0  0  0
    8.2930  -15.5002   25.7659 C   0  0  0  0  0  0  0  0  0  0  0  0
    7.8004  -15.8101   26.8840 O   0  0  0  0  0  0  0  0  0  0  0  0
    9.2860  -16.3780   25.2515 N   0  0  0  0  0  0  0  0  0  0  0  0
    9.2173  -17.8060   25.4762 C   0  0  1  0  0  0  0  0  0  0  0  0
    7.9735  -18.4027   24.8302 C   0  0  0  0  0  0  0  0  0  0  0  0
    7.9093  -20.1722   25.1377 S   0  0  0  0  0  0  0  0  0  0  0  0
   10.4415  -18.4768   24.9727 C   0  0  0  0  0  0  0  0  0  0  0  0
   11.0671  -19.4745   25.6866 O   0  0  0  0  0  0  0  0  0  0  0  0
   10.9071  -18.1151   23.8664 O   0  0  0  0  0  0  0  0  0  0  0  0
  1  5  1  0
  2  1  1  0
  3  4  1  0
  3  2  1  0
  4  5  1  0
  5  6  1  1
  6  7  2  0
  9  8  1  1
  9 10  1  0
  9 11  1  0
 12 11  1  1
 12 13  1  0
 12 14  1  0
 13  6  1  0
 14 16  1  0
 15 14  2  0
 16 17  1  0
 17 20  1  0
 17 18  1  6
 19 18  1  0
 20 22  2  0
 20 21  1  0
M  END
$$$$
