PLC.pdb
     RDKit          3D

 22 22  0  0  1  0  0  0  0  0999 V2000
    7.2012  -14.8405   20.1035 N   0  0  0  0  0  0  0  0  0  0  0  0
    6.8384  -14.3099   18.8080 C   0  0  0  0  0  0  0  0  0  0  0  0
    7.6481  -13.0738   18.5772 C   0  0  0  0  0  0  0  0  0  0  0  0
    8.3523  -12.8646   19.9022 C   0  0  0  0  0  0  0  0  0  0  0  0
    8.4918  -14.2944   20.3855 C   0  0  1  0  0  0  0  0  0  0  0  0
    8.8447  -14.3646   21.8280 C   0  0  0  0  0  0  0  0  0  0  0  0
   10.0504  -14.5177   22.1529 O   0  0  0  0  0  0  0  0  0  0  0  0
    6.0426  -12.4873   27.0823 C   0  0  0  0  0  0  0  0  0  0  0  0
    7.2512  -13.1146   26.3851 C   0  0  2  0  0  0  0  0  0  0  0  0
    8.3985  -12.1385   26.5984 C   0  0  0  0  0  0  0  0  0  0  0  0
    7.0053  -13.2026   24.8995 C   0  0  0  0  0  0  0  0  0  0  0  0
    7.9681  -14.1631   24.2077 C   0  0  2  0  0  0  0  0  0  0  0  0
    7.8168  -14.2577   22.7950 N   0  0  0  0  0  0  0  0  0  0  0  0
    8.1695  -15.4062   24.9365 C   0  0  0  0  0  0  0  0  0  0  0  0
    7.1818  -16.1163   25.2667 O   0  0  0  0  0  0  0  0  0  0  0  0
    9.4496  -15.8941   25.3165 N   0  0  0  0  0  0  0  0  0  0  0  0
    9.6213  -17.2367   25.8288 C   0  0  1  0  0  0  0  0  0  0  0  0
   10.4212  -18.0952   24.8573 C   0  0  0  0  0  0  0  0  0  0  0  0
   11.9115  -17.2269   24.3525 S   0  0  0  0  0  0  0  0  0  0  0  0
   10.2717  -17.2113   27.1624 C   0  0  0  0  0  0  0  0  0  0  0  0
   10.5040  -18.3649   27.8777 O   0  0  0  0  0  0  0  0  0  0  0  0
   10.6133  -16.1028   27.6378 O   0  0  0  0  0  0  0  0  0  0  0  0
  1  5  1  0
  2  1  1  0
  3  4  1  0
  3  2  1  0
  4  5  1  0
  5  6  1  1
  6  7  2  0
  9  8  1  1
  9 10  1  0
  9 11  1  0
 12 11  1  1
 12 13  1  0
 12 14  1  0
 13  6  1  0
 14 16  1  0
 15 14  2  0
 16 17  1  0
 17 20  1  0
 17 18  1  6
 19 18  1  0
 20 22  2  0
 20 21  1  0
M  END
$$$$
