PLC.pdb
     RDKit          3D

 22 22  0  0  1  0  0  0  0  0999 V2000
    7.0712  -14.8053   20.7960 N   0  0  0  0  0  0  0  0  0  0  0  0
    6.6837  -14.2609   19.5134 C   0  0  0  0  0  0  0  0  0  0  0  0
    7.5043  -13.0342   19.2707 C   0  0  0  0  0  0  0  0  0  0  0  0
    8.2439  -12.8438   20.5792 C   0  0  0  0  0  0  0  0  0  0  0  0
    8.3757  -14.2787   21.0494 C   0  0  1  0  0  0  0  0  0  0  0  0
    8.7633  -14.3638   22.4822 C   0  0  0  0  0  0  0  0  0  0  0  0
    9.9771  -14.2497   22.7922 O   0  0  0  0  0  0  0  0  0  0  0  0
    7.9467  -11.9862   26.2695 C   0  0  0  0  0  0  0  0  0  0  0  0
    6.7420  -12.6491   25.5990 C   0  0  2  0  0  0  0  0  0  0  0  0
    5.5291  -12.1973   26.3984 C   0  0  0  0  0  0  0  0  0  0  0  0
    6.8350  -14.1489   25.7308 C   0  0  0  0  0  0  0  0  0  0  0  0
    7.9384  -14.7409   24.8590 C   0  0  2  0  0  0  0  0  0  0  0  0
    7.7582  -14.5704   23.4569 N   0  0  0  0  0  0  0  0  0  0  0  0
    8.3992  -16.0441   25.3135 C   0  0  0  0  0  0  0  0  0  0  0  0
    7.5839  -16.9965   25.4433 O   0  0  0  0  0  0  0  0  0  0  0  0
    9.7548  -16.3291   25.6332 N   0  0  0  0  0  0  0  0  0  0  0  0
   10.1642  -17.6473   26.0680 C   0  0  1  0  0  0  0  0  0  0  0  0
   11.4504  -18.0777   25.3744 C   0  0  0  0  0  0  0  0  0  0  0  0
   11.2701  -17.9230   23.5930 S   0  0  0  0  0  0  0  0  0  0  0  0
   10.3261  -17.6878   27.5425 C   0  0  0  0  0  0  0  0  0  0  0  0
   10.6952  -18.8402   28.1999 O   0  0  0  0  0  0  0  0  0  0  0  0
   10.1179  -16.6371   28.1940 O   0  0  0  0  0  0  0  0  0  0  0  0
  1  5  1  0
  2  1  1  0
  3  4  1  0
  3  2  1  0
  4  5  1  0
  5  6  1  1
  6  7  2  0
  9  8  1  1
  9 10  1  0
  9 11  1  0
 12 11  1  1
 12 13  1  0
 12 14  1  0
 13  6  1  0
 14 16  1  0
 15 14  2  0
 16 17  1  0
 17 20  1  0
 17 18  1  6
 19 18  1  0
 20 22  2  0
 20 21  1  0
M  END
$$$$
