PLC.pdb
     RDKit          3D

 22 22  0  0  1  0  0  0  0  0999 V2000
    7.2890  -15.0381   20.2844 N   0  0  0  0  0  0  0  0  0  0  0  0
    7.0061  -14.5814   18.9417 C   0  0  0  0  0  0  0  0  0  0  0  0
    7.7875  -13.3270   18.7115 C   0  0  0  0  0  0  0  0  0  0  0  0
    8.3827  -13.0310   20.0729 C   0  0  0  0  0  0  0  0  0  0  0  0
    8.5350  -14.4309   20.6336 C   0  0  1  0  0  0  0  0  0  0  0  0
    8.7810  -14.4219   22.0998 C   0  0  0  0  0  0  0  0  0  0  0  0
    9.9557  -14.5811   22.5209 O   0  0  0  0  0  0  0  0  0  0  0  0
    5.7620  -12.3313   27.1595 C   0  0  0  0  0  0  0  0  0  0  0  0
    6.9141  -13.1226   26.5377 C   0  0  2  0  0  0  0  0  0  0  0  0
    8.1574  -12.2730   26.7538 C   0  0  0  0  0  0  0  0  0  0  0  0
    6.7105  -13.2521   25.0487 C   0  0  0  0  0  0  0  0  0  0  0  0
    7.7266  -14.1897   24.4033 C   0  0  2  0  0  0  0  0  0  0  0  0
    7.6891  -14.2350   22.9806 N   0  0  0  0  0  0  0  0  0  0  0  0
    7.8702  -15.4577   25.1023 C   0  0  0  0  0  0  0  0  0  0  0  0
    6.8723  -16.2104   25.2645 O   0  0  0  0  0  0  0  0  0  0  0  0
    9.1029  -15.9246   25.6350 N   0  0  0  0  0  0  0  0  0  0  0  0
    9.2114  -17.2318   26.2463 C   0  0  1  0  0  0  0  0  0  0  0  0
    9.8964  -18.2190   25.3098 C   0  0  0  0  0  0  0  0  0  0  0  0
   11.4499  -17.5327   24.7221 S   0  0  0  0  0  0  0  0  0  0  0  0
    9.9346  -17.1491   27.5394 C   0  0  0  0  0  0  0  0  0  0  0  0
   10.0245  -18.2283   28.3901 O   0  0  0  0  0  0  0  0  0  0  0  0
   10.4732  -16.0612   27.8524 O   0  0  0  0  0  0  0  0  0  0  0  0
  1  5  1  0
  2  1  1  0
  3  4  1  0
  3  2  1  0
  4  5  1  0
  5  6  1  1
  6  7  2  0
  9  8  1  1
  9 10  1  0
  9 11  1  0
 12 11  1  1
 12 13  1  0
 12 14  1  0
 13  6  1  0
 14 16  1  0
 15 14  2  0
 16 17  1  0
 17 20  1  0
 17 18  1  6
 19 18  1  0
 20 22  2  0
 20 21  1  0
M  END
$$$$
