PLC.pdb
     RDKit          3D

 22 22  0  0  1  0  0  0  0  0999 V2000
    7.0823  -14.8070   20.9381 N   0  0  0  0  0  0  0  0  0  0  0  0
    6.7765  -14.1925   19.6651 C   0  0  0  0  0  0  0  0  0  0  0  0
    7.7050  -13.0344   19.4818 C   0  0  0  0  0  0  0  0  0  0  0  0
    8.4236  -12.9482   20.8128 C   0  0  0  0  0  0  0  0  0  0  0  0
    8.4199  -14.4027   21.2392 C   0  0  1  0  0  0  0  0  0  0  0  0
    8.7609  -14.5643   22.6772 C   0  0  0  0  0  0  0  0  0  0  0  0
    9.9719  -14.6252   23.0125 O   0  0  0  0  0  0  0  0  0  0  0  0
    8.0026  -11.8257   26.0993 C   0  0  0  0  0  0  0  0  0  0  0  0
    6.7629  -12.5070   25.5170 C   0  0  2  0  0  0  0  0  0  0  0  0
    5.5782  -11.8970   26.2510 C   0  0  0  0  0  0  0  0  0  0  0  0
    6.7815  -13.9807   25.8388 C   0  0  0  0  0  0  0  0  0  0  0  0
    7.8432  -14.7350   25.0438 C   0  0  2  0  0  0  0  0  0  0  0  0
    7.7160  -14.6452   23.6284 N   0  0  0  0  0  0  0  0  0  0  0  0
    8.1622  -16.0419   25.5981 C   0  0  0  0  0  0  0  0  0  0  0  0
    7.2645  -16.9189   25.7147 O   0  0  0  0  0  0  0  0  0  0  0  0
    9.4637  -16.4127   26.0337 N   0  0  0  0  0  0  0  0  0  0  0  0
    9.8675  -17.8008   26.1010 C   0  0  1  0  0  0  0  0  0  0  0  0
    9.8297  -18.4494   24.7231 C   0  0  0  0  0  0  0  0  0  0  0  0
    9.0440  -20.0626   24.8239 S   0  0  0  0  0  0  0  0  0  0  0  0
   11.2185  -17.9268   26.7018 C   0  0  0  0  0  0  0  0  0  0  0  0
   11.5418  -18.9641   27.5479 O   0  0  0  0  0  0  0  0  0  0  0  0
   12.0782  -17.0582   26.4225 O   0  0  0  0  0  0  0  0  0  0  0  0
  1  5  1  0
  2  1  1  0
  3  4  1  0
  3  2  1  0
  4  5  1  0
  5  6  1  1
  6  7  2  0
  9  8  1  1
  9 10  1  0
  9 11  1  0
 12 11  1  1
 12 13  1  0
 12 14  1  0
 13  6  1  0
 14 16  1  0
 15 14  2  0
 16 17  1  0
 17 20  1  0
 17 18  1  6
 19 18  1  0
 20 22  2  0
 20 21  1  0
M  END
$$$$
