EQN.pdb
     RDKit          3D

 27 26  0  0  1  0  0  0  0  0999 V2000
   18.4416  -11.8740  -17.6098 N   0  0  0  0  0  0  0  0  0  0  0  0
   18.6357  -11.7603  -16.1469 C   0  0  1  0  0  0  0  0  0  0  0  0
   19.2320  -13.0634  -15.7359 C   0  0  0  0  0  0  0  0  0  0  0  0
   18.4496  -14.2832  -16.0624 C   0  0  0  0  0  0  0  0  0  0  0  0
   19.2198  -15.4693  -15.5397 C   0  0  0  0  0  0  0  0  0  0  0  0
   18.9473  -15.9624  -14.4182 O   0  0  0  0  0  0  0  0  0  0  0  0
   19.4497  -10.5739  -15.9022 C   0  0  0  0  0  0  0  0  0  0  0  0
   19.7740  -10.2607  -14.7068 O   0  0  0  0  0  0  0  0  0  0  0  0
   20.2425  -16.0451  -16.2757 O   0  0  0  0  0  0  0  0  0  0  0  0
   24.4885   -9.5631  -17.1784 N   0  0  0  0  0  0  0  0  0  0  0  0
   24.2856   -8.1595  -17.1214 C   0  0  0  0  0  0  0  0  0  0  0  0
   25.2545   -7.4247  -16.8229 O   0  0  0  0  0  0  0  0  0  0  0  0
   22.9650   -7.5640  -17.4057 C   0  0  0  0  0  0  0  0  0  0  0  0
   21.9745   -8.6553  -17.6453 C   0  0  0  0  0  0  0  0  0  0  0  0
   20.8230   -8.5928  -16.6326 C   0  0  2  0  0  0  0  0  0  0  0  0
   19.9321   -9.7063  -16.9156 N   0  0  0  0  0  0  0  0  0  0  0  0
   20.0500   -7.3396  -16.8234 C   0  0  0  0  0  0  0  0  0  0  0  0
   19.1890   -7.2166  -17.7473 O   0  0  0  0  0  0  0  0  0  0  0  0
   17.9240   -2.7465  -15.8750 N   0  0  0  0  0  0  0  0  0  0  0  0
   17.2213   -3.9640  -15.6650 C   0  0  0  0  0  0  0  0  0  0  0  0
   16.0024   -3.8972  -15.4349 O   0  0  0  0  0  0  0  0  0  0  0  0
   18.0071   -5.2165  -15.7390 C   0  0  0  0  0  0  0  0  0  0  0  0
   19.4363   -4.9881  -16.1434 C   0  0  2  0  0  0  0  0  0  0  0  0
   20.2217   -6.1964  -15.9864 N   0  0  0  0  0  0  0  0  0  0  0  0
   20.0498   -3.8394  -15.4285 C   0  0  0  0  0  0  0  0  0  0  0  0
   19.8946   -2.5307  -15.8630 O   0  0  0  0  0  0  0  0  0  0  0  0
   20.7405   -4.0124  -14.3910 O   0  0  0  0  0  0  0  0  0  0  0  0
  2  1  1  6
  2  7  1  0
  3  2  1  0
  3  4  1  0
  4  5  1  0
  5  9  1  0
  6  5  2  0
  7  8  2  0
 11 10  1  0
 11 13  1  0
 12 11  2  0
 14 13  1  0
 15 14  1  6
 15 17  1  0
 16  7  1  0
 16 15  1  0
 17 18  2  0
 19 20  1  0
 20 21  2  0
 20 22  1  0
 23 22  1  1
 23 25  1  0
 24 17  1  0
 24 23  1  0
 25 27  2  0
 25 26  1  0
M  END
$$$$
