EQN.pdb
     RDKit          3D

 27 26  0  0  1  0  0  0  0  0999 V2000
   19.5437  -11.2053  -16.0891 N   0  0  0  0  0  0  0  0  0  0  0  0
   18.2205  -10.6754  -16.4879 C   0  0  1  0  0  0  0  0  0  0  0  0
   17.2337  -11.6341  -15.9135 C   0  0  0  0  0  0  0  0  0  0  0  0
   17.3825  -13.0574  -16.3117 C   0  0  0  0  0  0  0  0  0  0  0  0
   16.2471  -13.8251  -15.6835 C   0  0  0  0  0  0  0  0  0  0  0  0
   15.1096  -13.8287  -16.2139 O   0  0  0  0  0  0  0  0  0  0  0  0
   18.1353   -9.2994  -16.0091 C   0  0  0  0  0  0  0  0  0  0  0  0
   17.0660   -8.6259  -16.1967 O   0  0  0  0  0  0  0  0  0  0  0  0
   16.4242  -14.5431  -14.5122 O   0  0  0  0  0  0  0  0  0  0  0  0
   21.7804   -7.1387  -11.5945 N   0  0  0  0  0  0  0  0  0  0  0  0
   20.4285   -7.4517  -11.2959 C   0  0  0  0  0  0  0  0  0  0  0  0
   20.1129   -7.6738  -10.1048 O   0  0  0  0  0  0  0  0  0  0  0  0
   19.4049   -7.5176  -12.3577 C   0  0  0  0  0  0  0  0  0  0  0  0
   20.0137   -7.0980  -13.6548 C   0  0  0  0  0  0  0  0  0  0  0  0
   19.0226   -7.2672  -14.8143 C   0  0  2  0  0  0  0  0  0  0  0  0
   19.1761   -8.6195  -15.3257 N   0  0  0  0  0  0  0  0  0  0  0  0
   19.3662   -6.3301  -15.9135 C   0  0  0  0  0  0  0  0  0  0  0  0
   20.3380   -6.5462  -16.7002 O   0  0  0  0  0  0  0  0  0  0  0  0
   17.4725   -2.7676  -20.1276 N   0  0  0  0  0  0  0  0  0  0  0  0
   18.5573   -3.4625  -19.5272 C   0  0  0  0  0  0  0  0  0  0  0  0
   19.7027   -3.2171  -19.9408 O   0  0  0  0  0  0  0  0  0  0  0  0
   18.2277   -4.4262  -18.4527 C   0  0  0  0  0  0  0  0  0  0  0  0
   19.0045   -4.1830  -17.1895 C   0  0  2  0  0  0  0  0  0  0  0  0
   18.6318   -5.1309  -16.1579 N   0  0  0  0  0  0  0  0  0  0  0  0
   18.8857   -2.7808  -16.7135 C   0  0  0  0  0  0  0  0  0  0  0  0
   18.0795   -2.4309  -15.6396 O   0  0  0  0  0  0  0  0  0  0  0  0
   19.5188   -1.8480  -17.2725 O   0  0  0  0  0  0  0  0  0  0  0  0
  2  1  1  1
  2  7  1  0
  3  2  1  0
  3  4  1  0
  4  5  1  0
  5  9  1  0
  6  5  2  0
  7  8  2  0
 11 10  1  0
 11 13  1  0
 12 11  2  0
 14 13  1  0
 15 14  1  1
 15 17  1  0
 16  7  1  0
 16 15  1  0
 17 18  2  0
 19 20  1  0
 20 21  2  0
 20 22  1  0
 23 22  1  6
 23 25  1  0
 24 17  1  0
 24 23  1  0
 25 27  2  0
 25 26  1  0
M  END
$$$$
