EQN.pdb
     RDKit          3D

 27 26  0  0  1  0  0  0  0  0999 V2000
   17.0839  -11.6775  -15.1333 N   0  0  0  0  0  0  0  0  0  0  0  0
   18.4544  -12.2122  -15.2958 C   0  0  1  0  0  0  0  0  0  0  0  0
   18.2664  -13.6173  -15.7573 C   0  0  0  0  0  0  0  0  0  0  0  0
   17.1427  -13.8619  -16.6977 C   0  0  0  0  0  0  0  0  0  0  0  0
   17.1489  -15.3303  -17.0394 C   0  0  0  0  0  0  0  0  0  0  0  0
   17.4908  -15.7173  -18.1833 O   0  0  0  0  0  0  0  0  0  0  0  0
   19.1673  -11.3245  -16.2088 C   0  0  0  0  0  0  0  0  0  0  0  0
   20.3717  -11.5897  -16.5427 O   0  0  0  0  0  0  0  0  0  0  0  0
   16.7804  -16.2880  -16.1087 O   0  0  0  0  0  0  0  0  0  0  0  0
   17.5518   -8.0318  -21.2063 N   0  0  0  0  0  0  0  0  0  0  0  0
   17.5969   -9.4257  -20.9425 C   0  0  0  0  0  0  0  0  0  0  0  0
   17.1631  -10.2153  -21.8120 O   0  0  0  0  0  0  0  0  0  0  0  0
   18.1414   -9.9482  -19.6737 C   0  0  0  0  0  0  0  0  0  0  0  0
   18.4830   -8.8044  -18.7768 C   0  0  0  0  0  0  0  0  0  0  0  0
   19.3922   -9.2537  -17.6250 C   0  0  2  0  0  0  0  0  0  0  0  0
   18.6173  -10.1486  -16.7810 N   0  0  0  0  0  0  0  0  0  0  0  0
   19.7790   -8.0814  -16.8000 C   0  0  0  0  0  0  0  0  0  0  0  0
   19.1753   -7.7908  -15.7225 O   0  0  0  0  0  0  0  0  0  0  0  0
   22.4839   -4.2774  -14.7152 N   0  0  0  0  0  0  0  0  0  0  0  0
   22.1180   -5.4900  -14.0703 C   0  0  0  0  0  0  0  0  0  0  0  0
   22.3181   -5.5793  -12.8475 O   0  0  0  0  0  0  0  0  0  0  0  0
   21.5254   -6.5506  -14.9164 C   0  0  0  0  0  0  0  0  0  0  0  0
   21.2667   -6.0987  -16.3261 C   0  0  2  0  0  0  0  0  0  0  0  0
   20.8488   -7.2081  -17.1605 N   0  0  0  0  0  0  0  0  0  0  0  0
   22.4274   -5.3798  -16.9118 C   0  0  0  0  0  0  0  0  0  0  0  0
   23.0947   -5.8461  -18.0356 O   0  0  0  0  0  0  0  0  0  0  0  0
   22.8532   -4.3098  -16.4050 O   0  0  0  0  0  0  0  0  0  0  0  0
  2  1  1  6
  2  7  1  0
  3  2  1  0
  3  4  1  0
  4  5  1  0
  5  9  1  0
  6  5  2  0
  7  8  2  0
 11 10  1  0
 11 13  1  0
 12 11  2  0
 14 13  1  0
 15 14  1  6
 15 17  1  0
 16  7  1  0
 16 15  1  0
 17 18  2  0
 19 20  1  0
 20 21  2  0
 20 22  1  0
 23 22  1  1
 23 25  1  0
 24 17  1  0
 24 23  1  0
 25 27  2  0
 25 26  1  0
M  END
$$$$
