EQN.pdb
     RDKit          3D

 27 26  0  0  1  0  0  0  0  0999 V2000
   15.0610  -11.4913  -13.7432 N   0  0  0  0  0  0  0  0  0  0  0  0
   16.4563  -11.0881  -14.0280 C   0  0  1  0  0  0  0  0  0  0  0  0
   16.6860  -11.4762  -15.4490 C   0  0  0  0  0  0  0  0  0  0  0  0
   17.1647  -12.8617  -15.6892 C   0  0  0  0  0  0  0  0  0  0  0  0
   16.0603  -13.8011  -15.2759 C   0  0  0  0  0  0  0  0  0  0  0  0
   15.2126  -14.1959  -16.1129 O   0  0  0  0  0  0  0  0  0  0  0  0
   16.5743   -9.6660  -13.7217 C   0  0  0  0  0  0  0  0  0  0  0  0
   16.1021   -8.7995  -14.5331 O   0  0  0  0  0  0  0  0  0  0  0  0
   15.9493  -14.2525  -13.9709 O   0  0  0  0  0  0  0  0  0  0  0  0
   16.0587   -6.8245   -8.3706 N   0  0  0  0  0  0  0  0  0  0  0  0
   15.0658   -6.9433   -9.3779 C   0  0  0  0  0  0  0  0  0  0  0  0
   13.8693   -6.7434   -9.0677 O   0  0  0  0  0  0  0  0  0  0  0  0
   15.4217   -7.2945  -10.7670 C   0  0  0  0  0  0  0  0  0  0  0  0
   16.9039   -7.4410  -10.8731 C   0  0  0  0  0  0  0  0  0  0  0  0
   17.3329   -7.7150  -12.3209 C   0  0  2  0  0  0  0  0  0  0  0  0
   17.1898   -9.1427  -12.5556 N   0  0  0  0  0  0  0  0  0  0  0  0
   18.7670   -7.3729  -12.4961 C   0  0  0  0  0  0  0  0  0  0  0  0
   19.6807   -7.9511  -11.8321 O   0  0  0  0  0  0  0  0  0  0  0  0
   23.1863   -5.4162  -14.1927 N   0  0  0  0  0  0  0  0  0  0  0  0
   22.4005   -5.7811  -15.3194 C   0  0  0  0  0  0  0  0  0  0  0  0
   22.9514   -5.7870  -16.4327 O   0  0  0  0  0  0  0  0  0  0  0  0
   20.9826   -6.1255  -15.0686 C   0  0  0  0  0  0  0  0  0  0  0  0
   20.6140   -6.0652  -13.6130 C   0  0  2  0  0  0  0  0  0  0  0  0
   19.2120   -6.3774  -13.4170 N   0  0  0  0  0  0  0  0  0  0  0  0
   20.9781   -4.7663  -12.9906 C   0  0  0  0  0  0  0  0  0  0  0  0
   22.2275   -4.5397  -12.4308 O   0  0  0  0  0  0  0  0  0  0  0  0
   20.1580   -3.8130  -12.9474 O   0  0  0  0  0  0  0  0  0  0  0  0
  2  1  1  6
  2  7  1  0
  3  2  1  0
  3  4  1  0
  4  5  1  0
  5  9  1  0
  6  5  2  0
  7  8  2  0
 11 10  1  0
 11 13  1  0
 12 11  2  0
 14 13  1  0
 15 14  1  1
 15 17  1  0
 16  7  1  0
 16 15  1  0
 17 18  2  0
 19 20  1  0
 20 21  2  0
 20 22  1  0
 23 22  1  6
 23 25  1  0
 24 17  1  0
 24 23  1  0
 25 27  2  0
 25 26  1  0
M  END
$$$$
