EQN.pdb
     RDKit          3D

 27 26  0  0  1  0  0  0  0  0999 V2000
   17.2706  -11.5035  -15.1813 N   0  0  0  0  0  0  0  0  0  0  0  0
   18.6457  -11.6838  -15.6983 C   0  0  1  0  0  0  0  0  0  0  0  0
   18.5959  -12.9453  -16.4911 C   0  0  0  0  0  0  0  0  0  0  0  0
   17.6500  -13.9887  -16.0187 C   0  0  0  0  0  0  0  0  0  0  0  0
   17.7909  -15.1772  -16.9356 C   0  0  0  0  0  0  0  0  0  0  0  0
   16.9324  -15.4032  -17.8228 O   0  0  0  0  0  0  0  0  0  0  0  0
   19.0009  -10.4744  -16.4340 C   0  0  0  0  0  0  0  0  0  0  0  0
   20.2214  -10.2505  -16.7381 O   0  0  0  0  0  0  0  0  0  0  0  0
   18.8630  -16.0477  -16.8270 O   0  0  0  0  0  0  0  0  0  0  0  0
   19.3295   -6.5145  -21.0688 N   0  0  0  0  0  0  0  0  0  0  0  0
   18.1230   -7.0726  -20.5712 C   0  0  0  0  0  0  0  0  0  0  0  0
   17.5266   -7.9277  -21.2647 O   0  0  0  0  0  0  0  0  0  0  0  0
   17.5709   -6.6630  -19.2648 C   0  0  0  0  0  0  0  0  0  0  0  0
   17.2597   -7.8806  -18.4586 C   0  0  0  0  0  0  0  0  0  0  0  0
   18.4703   -8.3182  -17.6230 C   0  0  2  0  0  0  0  0  0  0  0  0
   18.0726   -9.4892  -16.8586 N   0  0  0  0  0  0  0  0  0  0  0  0
   18.8285   -7.2508  -16.6552 C   0  0  0  0  0  0  0  0  0  0  0  0
   18.0509   -6.9125  -15.7113 O   0  0  0  0  0  0  0  0  0  0  0  0
   21.2851   -3.5579  -14.0844 N   0  0  0  0  0  0  0  0  0  0  0  0
   22.0724   -4.7411  -14.1009 C   0  0  0  0  0  0  0  0  0  0  0  0
   23.0855   -4.7730  -13.3828 O   0  0  0  0  0  0  0  0  0  0  0  0
   21.6150   -5.8422  -14.9785 C   0  0  0  0  0  0  0  0  0  0  0  0
   20.4041   -5.4790  -15.7909 C   0  0  2  0  0  0  0  0  0  0  0  0
   20.0633   -6.5379  -16.7204 N   0  0  0  0  0  0  0  0  0  0  0  0
   20.5572   -4.1725  -16.4814 C   0  0  0  0  0  0  0  0  0  0  0  0
   20.2120   -2.9722  -15.8765 O   0  0  0  0  0  0  0  0  0  0  0  0
   21.0105   -4.1050  -17.6532 O   0  0  0  0  0  0  0  0  0  0  0  0
  2  1  1  6
  2  7  1  0
  3  2  1  0
  3  4  1  0
  4  5  1  0
  5  9  1  0
  6  5  2  0
  7  8  2  0
 11 10  1  0
 11 13  1  0
 12 11  2  0
 14 13  1  0
 15 14  1  6
 15 17  1  0
 16  7  1  0
 16 15  1  0
 17 18  2  0
 19 20  1  0
 20 21  2  0
 20 22  1  0
 23 22  1  6
 23 25  1  0
 24 17  1  0
 24 23  1  0
 25 27  2  0
 25 26  1  0
M  END
$$$$
