EQN.pdb
     RDKit          3D

 27 26  0  0  1  0  0  0  0  0999 V2000
   18.7103  -14.0375  -16.8353 N   0  0  0  0  0  0  0  0  0  0  0  0
   17.8837  -12.8103  -16.7996 C   0  0  1  0  0  0  0  0  0  0  0  0
   16.4761  -13.2921  -16.8961 C   0  0  0  0  0  0  0  0  0  0  0  0
   16.2285  -14.4385  -17.8078 C   0  0  0  0  0  0  0  0  0  0  0  0
   14.7516  -14.7392  -17.7673 C   0  0  0  0  0  0  0  0  0  0  0  0
   13.9964  -14.1201  -16.9789 O   0  0  0  0  0  0  0  0  0  0  0  0
   18.2326  -12.0803  -15.5850 C   0  0  0  0  0  0  0  0  0  0  0  0
   18.4196  -12.7160  -14.4926 O   0  0  0  0  0  0  0  0  0  0  0  0
   14.1893  -15.6996  -18.5921 O   0  0  0  0  0  0  0  0  0  0  0  0
   21.4901   -6.8693  -15.2836 N   0  0  0  0  0  0  0  0  0  0  0  0
   21.1147   -7.0142  -13.9225 C   0  0  0  0  0  0  0  0  0  0  0  0
   21.5882   -6.2168  -13.0813 O   0  0  0  0  0  0  0  0  0  0  0  0
   20.1860   -8.0784  -13.4928 C   0  0  0  0  0  0  0  0  0  0  0  0
   19.7768   -8.8837  -14.6816 C   0  0  0  0  0  0  0  0  0  0  0  0
   18.7944   -9.9953  -14.2883 C   0  0  2  0  0  0  0  0  0  0  0  0
   18.3899  -10.6725  -15.5096 N   0  0  0  0  0  0  0  0  0  0  0  0
   17.5770   -9.4015  -13.6801 C   0  0  0  0  0  0  0  0  0  0  0  0
   16.7991   -8.6450  -14.3378 O   0  0  0  0  0  0  0  0  0  0  0  0
   13.7825   -8.1196  -10.5000 N   0  0  0  0  0  0  0  0  0  0  0  0
   14.2428   -9.3753  -10.0189 C   0  0  0  0  0  0  0  0  0  0  0  0
   13.5786   -9.9342   -9.1303 O   0  0  0  0  0  0  0  0  0  0  0  0
   15.4829   -9.9141  -10.6219 C   0  0  0  0  0  0  0  0  0  0  0  0
   16.0235   -9.0463  -11.7233 C   0  0  2  0  0  0  0  0  0  0  0  0
   17.2018   -9.6399  -12.3238 N   0  0  0  0  0  0  0  0  0  0  0  0
   16.2809   -7.6544  -11.2721 C   0  0  0  0  0  0  0  0  0  0  0  0
   17.5631   -7.1307  -11.1869 O   0  0  0  0  0  0  0  0  0  0  0  0
   15.3355   -6.8904  -10.9470 O   0  0  0  0  0  0  0  0  0  0  0  0
  2  1  1  1
  2  7  1  0
  3  2  1  0
  3  4  1  0
  4  5  1  0
  5  9  1  0
  6  5  2  0
  7  8  2  0
 11 10  1  0
 11 13  1  0
 12 11  2  0
 14 13  1  0
 15 14  1  6
 15 17  1  0
 16  7  1  0
 16 15  1  0
 17 18  2  0
 19 20  1  0
 20 21  2  0
 20 22  1  0
 23 22  1  1
 23 25  1  0
 24 17  1  0
 24 23  1  0
 25 27  2  0
 25 26  1  0
M  END
$$$$
