EQN.pdb
     RDKit          3D

 27 26  0  0  1  0  0  0  0  0999 V2000
   15.9379  -11.0477   -9.9635 N   0  0  0  0  0  0  0  0  0  0  0  0
   15.5156  -10.5415  -11.2886 C   0  0  1  0  0  0  0  0  0  0  0  0
   14.1574  -11.1170  -11.5048 C   0  0  0  0  0  0  0  0  0  0  0  0
   14.0554  -12.5990  -11.4923 C   0  0  0  0  0  0  0  0  0  0  0  0
   12.6114  -12.9561  -11.7382 C   0  0  0  0  0  0  0  0  0  0  0  0
   12.0677  -13.8893  -11.0989 O   0  0  0  0  0  0  0  0  0  0  0  0
   15.5990   -9.0849  -11.2499 C   0  0  0  0  0  0  0  0  0  0  0  0
   15.3749   -8.4068  -12.3092 O   0  0  0  0  0  0  0  0  0  0  0  0
   11.8484  -12.2707  -12.6693 O   0  0  0  0  0  0  0  0  0  0  0  0
   13.6511   -5.5568   -6.7845 N   0  0  0  0  0  0  0  0  0  0  0  0
   14.4190   -4.5808   -7.4716 C   0  0  0  0  0  0  0  0  0  0  0  0
   14.3069   -3.3809   -7.1322 O   0  0  0  0  0  0  0  0  0  0  0  0
   15.3353   -4.9580   -8.5661 C   0  0  0  0  0  0  0  0  0  0  0  0
   15.3623   -6.4453   -8.6945 C   0  0  0  0  0  0  0  0  0  0  0  0
   15.8781   -6.8746  -10.0748 C   0  0  2  0  0  0  0  0  0  0  0  0
   15.9176   -8.3278  -10.0933 N   0  0  0  0  0  0  0  0  0  0  0  0
   17.2663   -6.3853  -10.2699 C   0  0  0  0  0  0  0  0  0  0  0  0
   18.2221   -6.7652   -9.5269 O   0  0  0  0  0  0  0  0  0  0  0  0
   22.1507   -6.3740  -11.5869 N   0  0  0  0  0  0  0  0  0  0  0  0
   21.0799   -6.2701  -12.5157 C   0  0  0  0  0  0  0  0  0  0  0  0
   21.3606   -6.0046  -13.6963 O   0  0  0  0  0  0  0  0  0  0  0  0
   19.7118   -6.4886  -11.9937 C   0  0  0  0  0  0  0  0  0  0  0  0
   18.9909   -5.2065  -11.6857 C   0  0  2  0  0  0  0  0  0  0  0  0
   17.6171   -5.4610  -11.2993 N   0  0  0  0  0  0  0  0  0  0  0  0
   19.0739   -4.2288  -12.8012 C   0  0  0  0  0  0  0  0  0  0  0  0
   18.0247   -4.0278  -13.6870 O   0  0  0  0  0  0  0  0  0  0  0  0
   20.1099   -3.5392  -12.9863 O   0  0  0  0  0  0  0  0  0  0  0  0
  2  1  1  1
  2  7  1  0
  3  2  1  0
  3  4  1  0
  4  5  1  0
  5  9  1  0
  6  5  2  0
  7  8  2  0
 11 10  1  0
 11 13  1  0
 12 11  2  0
 14 13  1  0
 15 14  1  1
 15 17  1  0
 16  7  1  0
 16 15  1  0
 17 18  2  0
 19 20  1  0
 20 21  2  0
 20 22  1  0
 23 22  1  6
 23 25  1  0
 24 17  1  0
 24 23  1  0
 25 27  2  0
 25 26  1  0
M  END
$$$$
