EQN.pdb
     RDKit          3D

 27 26  0  0  1  0  0  0  0  0999 V2000
   26.2087  -21.8018  -16.1445 N   0  0  0  0  0  0  0  0  0  0  0  0
   26.4373  -21.0007  -14.9211 C   0  0  1  0  0  0  0  0  0  0  0  0
   27.8088  -20.4384  -15.0808 C   0  0  0  0  0  0  0  0  0  0  0  0
   28.0303  -19.5526  -16.2526 C   0  0  0  0  0  0  0  0  0  0  0  0
   28.5923  -20.4027  -17.3638 C   0  0  0  0  0  0  0  0  0  0  0  0
   28.9205  -21.5951  -17.1505 O   0  0  0  0  0  0  0  0  0  0  0  0
   25.3513  -20.0308  -14.8213 C   0  0  0  0  0  0  0  0  0  0  0  0
   25.3332  -19.1936  -13.8565 O   0  0  0  0  0  0  0  0  0  0  0  0
   28.7616  -19.8969  -18.6423 O   0  0  0  0  0  0  0  0  0  0  0  0
   23.2093  -16.4616  -19.0473 N   0  0  0  0  0  0  0  0  0  0  0  0
   22.5127  -16.0053  -17.8980 C   0  0  0  0  0  0  0  0  0  0  0  0
   21.9570  -14.8841  -17.9390 O   0  0  0  0  0  0  0  0  0  0  0  0
   22.4367  -16.8249  -16.6725 C   0  0  0  0  0  0  0  0  0  0  0  0
   23.2325  -18.0734  -16.8654 C   0  0  0  0  0  0  0  0  0  0  0  0
   23.2175  -18.9429  -15.6008 C   0  0  2  0  0  0  0  0  0  0  0  0
   24.2740  -19.9322  -15.7389 N   0  0  0  0  0  0  0  0  0  0  0  0
   21.9284  -19.6733  -15.5053 C   0  0  0  0  0  0  0  0  0  0  0  0
   21.6403  -20.6308  -16.2864 O   0  0  0  0  0  0  0  0  0  0  0  0
   21.6922  -21.5743  -13.4683 N   0  0  0  0  0  0  0  0  0  0  0  0
   20.5328  -21.5192  -12.6480 C   0  0  0  0  0  0  0  0  0  0  0  0
   20.5091  -22.2303  -11.6298 O   0  0  0  0  0  0  0  0  0  0  0  0
   19.4448  -20.6128  -13.0798 C   0  0  0  0  0  0  0  0  0  0  0  0
   19.6645  -20.0476  -14.4548 C   0  0  2  0  0  0  0  0  0  0  0  0
   20.9328  -19.3501  -14.5350 N   0  0  0  0  0  0  0  0  0  0  0  0
   18.5376  -19.1879  -14.8998 C   0  0  0  0  0  0  0  0  0  0  0  0
   17.2636  -19.6935  -15.1168 O   0  0  0  0  0  0  0  0  0  0  0  0
   18.6982  -17.9559  -15.0987 O   0  0  0  0  0  0  0  0  0  0  0  0
  2  1  1  6
  2  7  1  0
  3  2  1  0
  3  4  1  0
  4  5  1  0
  5  9  1  0
  6  5  2  0
  7  8  2  0
 11 10  1  0
 11 13  1  0
 12 11  2  0
 14 13  1  0
 15 14  1  6
 15 17  1  0
 16  7  1  0
 16 15  1  0
 17 18  2  0
 19 20  1  0
 20 21  2  0
 20 22  1  0
 23 22  1  1
 23 25  1  0
 24 17  1  0
 24 23  1  0
 25 27  2  0
 25 26  1  0
M  END
$$$$
