PTY.pdb
     RDKit          3D

 27 28  0  0  1  0  0  0  0  0999 V2000
    8.6124  -15.2045   18.0440 N   0  0  0  0  0  0  0  0  0  0  0  0
    8.7902  -14.6293   16.7287 C   0  0  0  0  0  0  0  0  0  0  0  0
    8.0966  -13.3055   16.7235 C   0  0  0  0  0  0  0  0  0  0  0  0
    7.7079  -13.0551   18.1653 C   0  0  0  0  0  0  0  0  0  0  0  0
    8.5583  -14.0572   18.8975 C   0  0  1  0  0  0  0  0  0  0  0  0
    8.0569  -14.3481   20.2512 C   0  0  0  0  0  0  0  0  0  0  0  0
    8.0716  -13.4231   21.0959 O   0  0  0  0  0  0  0  0  0  0  0  0
    5.0673  -17.2847   20.8819 C   0  0  0  0  0  0  0  0  0  0  0  0
    6.0952  -17.1230   21.9512 C   0  0  1  0  0  0  0  0  0  0  0  0
    7.0293  -18.1749   21.7813 O   0  0  0  0  0  0  0  0  0  0  0  0
    6.8727  -15.8556   21.8999 C   0  0  2  0  0  0  0  0  0  0  0  0
    7.5574  -15.6036   20.6679 N   0  0  0  0  0  0  0  0  0  0  0  0
    7.8583  -15.8529   23.0115 C   0  0  0  0  0  0  0  0  0  0  0  0
    9.0887  -16.0932   22.8183 O   0  0  0  0  0  0  0  0  0  0  0  0
   11.5655  -14.9973   30.9742 O   0  0  0  0  0  0  0  0  0  0  0  0
   10.6857  -14.9557   29.8935 C   0  0  0  0  0  0  0  0  0  0  0  0
    9.7955  -15.9695   29.6158 C   0  0  0  0  0  0  0  0  0  0  0  0
    8.9500  -15.8736   28.5340 C   0  0  0  0  0  0  0  0  0  0  0  0
    8.9581  -14.7819   27.6998 C   0  0  0  0  0  0  0  0  0  0  0  0
    8.0238  -14.7254   26.5372 C   0  0  0  0  0  0  0  0  0  0  0  0
    8.4344  -15.6308   25.4269 C   0  0  2  0  0  0  0  0  0  0  0  0
    7.4567  -15.5759   24.3691 N   0  0  0  0  0  0  0  0  0  0  0  0
    8.5875  -17.0219   25.9539 C   0  0  0  0  0  0  0  0  0  0  0  0
    9.8404  -17.4189   26.3491 O   0  0  0  0  0  0  0  0  0  0  0  0
    9.8419  -13.7621   27.9653 C   0  0  0  0  0  0  0  0  0  0  0  0
   10.6763  -13.8706   29.0438 C   0  0  0  0  0  0  0  0  0  0  0  0
    7.6359  -17.8196   26.0456 O   0  0  0  0  0  0  0  0  0  0  0  0
  1  5  1  0
  1  2  1  0
  2  3  1  0
  4  3  1  0
  5  4  1  0
  6  7  2  0
  5  6  1  1
  9  8  1  6
 10  9  1  0
 11  9  1  0
 11 12  1  6
 12  6  1  0
 13 11  1  0
 14 13  2  0
 16 17  2  0
 16 15  1  0
 18 17  1  0
 19 18  2  0
 21 20  1  1
 20 19  1  0
 21 22  1  0
 22 13  1  0
 23 24  1  0
 23 21  1  0
 25 19  1  0
 25 26  2  0
 26 16  1  0
 27 23  2  0
M  END
$$$$
