PTY.pdb
     RDKit          3D

 27 28  0  0  1  0  0  0  0  0999 V2000
    9.0562  -13.9331   19.4207 N   0  0  0  0  0  0  0  0  0  0  0  0
    8.8563  -12.8663   18.4644 C   0  0  0  0  0  0  0  0  0  0  0  0
    7.4743  -12.3360   18.6704 C   0  0  0  0  0  0  0  0  0  0  0  0
    6.9786  -13.0005   19.9374 C   0  0  0  0  0  0  0  0  0  0  0  0
    8.2550  -13.5272   20.5348 C   0  0  1  0  0  0  0  0  0  0  0  0
    8.0234  -14.5971   21.5198 C   0  0  0  0  0  0  0  0  0  0  0  0
    7.2775  -14.3481   22.4950 O   0  0  0  0  0  0  0  0  0  0  0  0
    8.5264  -19.4043   22.9028 C   0  0  0  0  0  0  0  0  0  0  0  0
    8.8747  -18.2840   21.9810 C   0  0  1  0  0  0  0  0  0  0  0  0
    8.2623  -18.5746   20.7366 O   0  0  0  0  0  0  0  0  0  0  0  0
    8.3782  -16.9434   22.3929 C   0  0  2  0  0  0  0  0  0  0  0  0
    8.5859  -15.8922   21.4432 N   0  0  0  0  0  0  0  0  0  0  0  0
    9.0212  -16.5688   23.6788 C   0  0  0  0  0  0  0  0  0  0  0  0
   10.1603  -16.0126   23.7227 O   0  0  0  0  0  0  0  0  0  0  0  0
    6.4216  -10.7122   25.9787 O   0  0  0  0  0  0  0  0  0  0  0  0
    6.8135  -12.0188   26.2662 C   0  0  0  0  0  0  0  0  0  0  0  0
    5.9606  -13.0951   26.1588 C   0  0  0  0  0  0  0  0  0  0  0  0
    6.4035  -14.3639   26.4562 C   0  0  0  0  0  0  0  0  0  0  0  0
    7.6925  -14.6064   26.8657 C   0  0  0  0  0  0  0  0  0  0  0  0
    8.1249  -16.0000   27.1799 C   0  0  0  0  0  0  0  0  0  0  0  0
    9.0760  -16.5465   26.1712 C   0  0  2  0  0  0  0  0  0  0  0  0
    8.3743  -16.8236   24.9428 N   0  0  0  0  0  0  0  0  0  0  0  0
    9.7225  -17.7793   26.7178 C   0  0  0  0  0  0  0  0  0  0  0  0
   10.6667  -17.6207   27.7010 O   0  0  0  0  0  0  0  0  0  0  0  0
    8.5550  -13.5409   26.9772 C   0  0  0  0  0  0  0  0  0  0  0  0
    8.1014  -12.2854   26.6784 C   0  0  0  0  0  0  0  0  0  0  0  0
    9.4401  -18.9250   26.3201 O   0  0  0  0  0  0  0  0  0  0  0  0
  1  5  1  0
  1  2  1  0
  2  3  1  0
  4  3  1  0
  5  4  1  0
  6  7  2  0
  5  6  1  1
  9  8  1  1
 10  9  1  0
 11  9  1  0
 11 12  1  6
 12  6  1  0
 13 11  1  0
 14 13  2  0
 16 17  2  0
 16 15  1  0
 18 17  1  0
 19 18  2  0
 21 20  1  1
 20 19  1  0
 21 22  1  0
 22 13  1  0
 23 24  1  0
 23 21  1  0
 25 19  1  0
 25 26  2  0
 26 16  1  0
 27 23  2  0
M  END
$$$$
