PTY.pdb
     RDKit          3D

 27 28  0  0  1  0  0  0  0  0999 V2000
    9.1831  -13.9864   19.7784 N   0  0  0  0  0  0  0  0  0  0  0  0
    8.9186  -12.9632   18.7907 C   0  0  0  0  0  0  0  0  0  0  0  0
    7.4608  -12.6413   18.8615 C   0  0  0  0  0  0  0  0  0  0  0  0
    6.9528  -13.3682   20.0887 C   0  0  0  0  0  0  0  0  0  0  0  0
    8.2318  -13.6998   20.8082 C   0  0  1  0  0  0  0  0  0  0  0  0
    8.0691  -14.7894   21.7853 C   0  0  0  0  0  0  0  0  0  0  0  0
    7.1678  -14.6769   22.6481 O   0  0  0  0  0  0  0  0  0  0  0  0
    9.1649  -19.4206   23.3697 C   0  0  0  0  0  0  0  0  0  0  0  0
    9.3966  -18.2939   22.4193 C   0  0  1  0  0  0  0  0  0  0  0  0
    8.8272  -18.6814   21.1810 O   0  0  0  0  0  0  0  0  0  0  0  0
    8.7561  -17.0042   22.7933 C   0  0  2  0  0  0  0  0  0  0  0  0
    8.8618  -15.9599   21.8195 N   0  0  0  0  0  0  0  0  0  0  0  0
    9.3411  -16.5328   24.0750 C   0  0  0  0  0  0  0  0  0  0  0  0
   10.4167  -15.8616   24.1152 O   0  0  0  0  0  0  0  0  0  0  0  0
    5.9746  -11.0279   25.5064 O   0  0  0  0  0  0  0  0  0  0  0  0
    6.5213  -12.2177   25.9848 C   0  0  0  0  0  0  0  0  0  0  0  0
    5.8129  -13.3980   26.0351 C   0  0  0  0  0  0  0  0  0  0  0  0
    6.4052  -14.5427   26.5179 C   0  0  0  0  0  0  0  0  0  0  0  0
    7.7052  -14.5565   26.9625 C   0  0  0  0  0  0  0  0  0  0  0  0
    8.3025  -15.8226   27.4803 C   0  0  0  0  0  0  0  0  0  0  0  0
    9.3328  -16.3875   26.5638 C   0  0  2  0  0  0  0  0  0  0  0  0
    8.7080  -16.8202   25.3390 N   0  0  0  0  0  0  0  0  0  0  0  0
   10.0343  -17.5188   27.2453 C   0  0  0  0  0  0  0  0  0  0  0  0
    9.8929  -18.7730   26.7064 O   0  0  0  0  0  0  0  0  0  0  0  0
    8.4244  -13.3849   26.9180 C   0  0  0  0  0  0  0  0  0  0  0  0
    7.8232  -12.2548   26.4357 C   0  0  0  0  0  0  0  0  0  0  0  0
   10.7302  -17.3669   28.2666 O   0  0  0  0  0  0  0  0  0  0  0  0
  1  5  1  0
  1  2  1  0
  2  3  1  0
  4  3  1  0
  5  4  1  0
  6  7  2  0
  5  6  1  1
  9  8  1  1
 10  9  1  0
 11  9  1  0
 11 12  1  6
 12  6  1  0
 13 11  1  0
 14 13  2  0
 16 17  2  0
 16 15  1  0
 18 17  1  0
 19 18  2  0
 21 20  1  1
 20 19  1  0
 21 22  1  0
 22 13  1  0
 23 24  1  0
 23 21  1  0
 25 19  1  0
 25 26  2  0
 26 16  1  0
 27 23  2  0
M  END
$$$$
