PTY.pdb
     RDKit          3D

 27 28  0  0  1  0  0  0  0  0999 V2000
    8.3943  -18.8960   19.9414 N   0  0  0  0  0  0  0  0  0  0  0  0
    7.6002  -20.0720   19.6606 C   0  0  0  0  0  0  0  0  0  0  0  0
    6.2563  -19.6040   19.2042 C   0  0  0  0  0  0  0  0  0  0  0  0
    6.3970  -18.1072   19.0242 C   0  0  0  0  0  0  0  0  0  0  0  0
    7.8912  -17.9325   19.0106 C   0  0  1  0  0  0  0  0  0  0  0  0
    8.3054  -16.5505   19.3056 C   0  0  0  0  0  0  0  0  0  0  0  0
    8.3179  -15.7257   18.3628 O   0  0  0  0  0  0  0  0  0  0  0  0
    6.9344  -13.7997   19.5521 C   0  0  0  0  0  0  0  0  0  0  0  0
    7.5485  -13.9217   20.9065 C   0  0  1  0  0  0  0  0  0  0  0  0
    6.6095  -14.6033   21.7199 O   0  0  0  0  0  0  0  0  0  0  0  0
    8.8087  -14.7102   20.9650 C   0  0  2  0  0  0  0  0  0  0  0  0
    8.6919  -16.0854   20.5838 N   0  0  0  0  0  0  0  0  0  0  0  0
    9.3578  -14.6342   22.3433 C   0  0  0  0  0  0  0  0  0  0  0  0
    9.3065  -13.5679   23.0284 O   0  0  0  0  0  0  0  0  0  0  0  0
   10.5251  -14.9326   30.7101 O   0  0  0  0  0  0  0  0  0  0  0  0
   10.1972  -15.0447   29.3597 C   0  0  0  0  0  0  0  0  0  0  0  0
    9.9611  -13.9517   28.5553 C   0  0  0  0  0  0  0  0  0  0  0  0
    9.6409  -14.1234   27.2278 C   0  0  0  0  0  0  0  0  0  0  0  0
    9.5447  -15.3703   26.6587 C   0  0  0  0  0  0  0  0  0  0  0  0
    9.1913  -15.5053   25.2149 C   0  0  0  0  0  0  0  0  0  0  0  0
   10.3872  -15.7013   24.3476 C   0  0  2  0  0  0  0  0  0  0  0  0
    9.9786  -15.7771   22.9673 N   0  0  0  0  0  0  0  0  0  0  0  0
   11.1070  -16.9421   24.7703 C   0  0  0  0  0  0  0  0  0  0  0  0
   12.1374  -16.8066   25.6666 O   0  0  0  0  0  0  0  0  0  0  0  0
    9.7780  -16.4706   27.4503 C   0  0  0  0  0  0  0  0  0  0  0  0
   10.0954  -16.2852   28.7679 C   0  0  0  0  0  0  0  0  0  0  0  0
   10.8105  -18.0745   24.3459 O   0  0  0  0  0  0  0  0  0  0  0  0
  1  5  1  0
  1  2  1  0
  2  3  1  0
  4  3  1  0
  5  4  1  0
  6  7  2  0
  5  6  1  1
  9  8  1  6
 10  9  1  0
 11  9  1  0
 11 12  1  1
 12  6  1  0
 13 11  1  0
 14 13  2  0
 16 17  2  0
 16 15  1  0
 18 17  1  0
 19 18  2  0
 21 20  1  1
 20 19  1  0
 21 22  1  0
 22 13  1  0
 23 24  1  0
 23 21  1  0
 25 19  1  0
 25 26  2  0
 26 16  1  0
 27 23  2  0
M  END
$$$$
