PTY.pdb
     RDKit          3D

 27 28  0  0  1  0  0  0  0  0999 V2000
    8.8740  -14.4692   18.2284 N   0  0  0  0  0  0  0  0  0  0  0  0
    8.3629  -13.7015   17.1140 C   0  0  0  0  0  0  0  0  0  0  0  0
    7.1402  -12.9855   17.5892 C   0  0  0  0  0  0  0  0  0  0  0  0
    7.1082  -13.2053   19.0870 C   0  0  0  0  0  0  0  0  0  0  0  0
    8.5091  -13.6788   19.3641 C   0  0  1  0  0  0  0  0  0  0  0  0
    8.6251  -14.3937   20.6462 C   0  0  0  0  0  0  0  0  0  0  0  0
    8.3229  -13.7767   21.6938 O   0  0  0  0  0  0  0  0  0  0  0  0
    8.2531  -18.6164   21.1116 C   0  0  0  0  0  0  0  0  0  0  0  0
    9.3229  -17.9238   21.8876 C   0  0  1  0  0  0  0  0  0  0  0  0
   10.5370  -18.1380   21.1890 O   0  0  0  0  0  0  0  0  0  0  0  0
    9.1636  -16.4502   22.0153 C   0  0  2  0  0  0  0  0  0  0  0  0
    9.0554  -15.7340   20.7802 N   0  0  0  0  0  0  0  0  0  0  0  0
   10.3103  -15.9097   22.7901 C   0  0  0  0  0  0  0  0  0  0  0  0
   11.2473  -15.2584   22.2361 O   0  0  0  0  0  0  0  0  0  0  0  0
    9.7978  -16.3702   31.0465 O   0  0  0  0  0  0  0  0  0  0  0  0
   10.1353  -15.9049   29.7764 C   0  0  0  0  0  0  0  0  0  0  0  0
   11.4373  -15.6888   29.3819 C   0  0  0  0  0  0  0  0  0  0  0  0
   11.7107  -15.2281   28.1140 C   0  0  0  0  0  0  0  0  0  0  0  0
   10.7143  -14.9689   27.2042 C   0  0  0  0  0  0  0  0  0  0  0  0
   11.0610  -14.4674   25.8419 C   0  0  0  0  0  0  0  0  0  0  0  0
   11.5312  -15.5516   24.9341 C   0  0  2  0  0  0  0  0  0  0  0  0
   10.4098  -16.1038   24.2161 N   0  0  0  0  0  0  0  0  0  0  0  0
   12.2319  -16.6004   25.7374 C   0  0  0  0  0  0  0  0  0  0  0  0
   13.4608  -16.2861   26.2612 O   0  0  0  0  0  0  0  0  0  0  0  0
    9.4096  -15.1804   27.5848 C   0  0  0  0  0  0  0  0  0  0  0  0
    9.1524  -15.6384   28.8479 C   0  0  0  0  0  0  0  0  0  0  0  0
   11.7492  -17.7293   25.9449 O   0  0  0  0  0  0  0  0  0  0  0  0
  1  5  1  0
  1  2  1  0
  2  3  1  0
  4  3  1  0
  5  4  1  0
  6  7  2  0
  5  6  1  1
  9  8  1  6
 10  9  1  0
 11  9  1  0
 11 12  1  6
 12  6  1  0
 13 11  1  0
 14 13  2  0
 16 17  2  0
 16 15  1  0
 18 17  1  0
 19 18  2  0
 21 20  1  1
 20 19  1  0
 21 22  1  0
 22 13  1  0
 23 24  1  0
 23 21  1  0
 25 19  1  0
 25 26  2  0
 26 16  1  0
 27 23  2  0
M  END
$$$$
