PTY.pdb
     RDKit          3D

 27 28  0  0  1  0  0  0  0  0999 V2000
    8.8769  -14.8232   17.8729 N   0  0  0  0  0  0  0  0  0  0  0  0
    8.9282  -13.8874   16.7710 C   0  0  0  0  0  0  0  0  0  0  0  0
    8.0599  -12.7258   17.1318 C   0  0  0  0  0  0  0  0  0  0  0  0
    7.6911  -12.9416   18.5844 C   0  0  0  0  0  0  0  0  0  0  0  0
    8.6958  -13.9764   19.0122 C   0  0  1  0  0  0  0  0  0  0  0  0
    8.2865  -14.6983   20.2287 C   0  0  0  0  0  0  0  0  0  0  0  0
    8.2080  -14.0516   21.2987 O   0  0  0  0  0  0  0  0  0  0  0  0
    6.1628  -18.4115   20.0680 C   0  0  0  0  0  0  0  0  0  0  0  0
    7.1106  -18.1963   21.2000 C   0  0  1  0  0  0  0  0  0  0  0  0
    8.2954  -18.9047   20.8801 O   0  0  0  0  0  0  0  0  0  0  0  0
    7.5135  -16.7832   21.4325 C   0  0  2  0  0  0  0  0  0  0  0  0
    7.9742  -16.0766   20.2755 N   0  0  0  0  0  0  0  0  0  0  0  0
    8.5733  -16.7522   22.4732 C   0  0  0  0  0  0  0  0  0  0  0  0
    9.7556  -16.3715   22.2160 O   0  0  0  0  0  0  0  0  0  0  0  0
    7.0665  -10.8285   28.2325 O   0  0  0  0  0  0  0  0  0  0  0  0
    7.0878  -11.8796   27.3170 C   0  0  0  0  0  0  0  0  0  0  0  0
    5.9700  -12.6223   27.0066 C   0  0  0  0  0  0  0  0  0  0  0  0
    6.0508  -13.6495   26.0941 C   0  0  0  0  0  0  0  0  0  0  0  0
    7.2290  -13.9722   25.4653 C   0  0  0  0  0  0  0  0  0  0  0  0
    7.2670  -15.0972   24.4852 C   0  0  0  0  0  0  0  0  0  0  0  0
    8.2352  -16.1621   24.8717 C   0  0  2  0  0  0  0  0  0  0  0  0
    8.3030  -17.1573   23.8311 N   0  0  0  0  0  0  0  0  0  0  0  0
    7.8137  -16.7650   26.1737 C   0  0  0  0  0  0  0  0  0  0  0  0
    8.6215  -16.5562   27.2634 O   0  0  0  0  0  0  0  0  0  0  0  0
    8.3531  -13.2388   25.7657 C   0  0  0  0  0  0  0  0  0  0  0  0
    8.2584  -12.2206   26.6744 C   0  0  0  0  0  0  0  0  0  0  0  0
    6.7742  -17.4382   26.3030 O   0  0  0  0  0  0  0  0  0  0  0  0
  1  5  1  0
  1  2  1  0
  2  3  1  0
  4  3  1  0
  5  4  1  0
  6  7  2  0
  5  6  1  1
  9  8  1  6
 10  9  1  0
 11  9  1  0
 11 12  1  6
 12  6  1  0
 13 11  1  0
 14 13  2  0
 16 17  2  0
 16 15  1  0
 18 17  1  0
 19 18  2  0
 21 20  1  6
 20 19  1  0
 21 22  1  0
 22 13  1  0
 23 24  1  0
 23 21  1  0
 25 19  1  0
 25 26  2  0
 26 16  1  0
 27 23  2  0
M  END
$$$$
