PTY.pdb
     RDKit          3D

 27 28  0  0  1  0  0  0  0  0999 V2000
    8.7151  -19.1210   20.3399 N   0  0  0  0  0  0  0  0  0  0  0  0
    7.9843  -20.2305   19.7675 C   0  0  0  0  0  0  0  0  0  0  0  0
    6.9522  -19.6587   18.8503 C   0  0  0  0  0  0  0  0  0  0  0  0
    7.2780  -18.1831   18.7563 C   0  0  0  0  0  0  0  0  0  0  0  0
    8.6791  -18.1363   19.3022 C   0  0  1  0  0  0  0  0  0  0  0  0
    9.0711  -16.7891   19.7492 C   0  0  0  0  0  0  0  0  0  0  0  0
    9.8141  -16.1134   19.0004 O   0  0  0  0  0  0  0  0  0  0  0  0
    7.1743  -13.5415   19.8947 C   0  0  0  0  0  0  0  0  0  0  0  0
    7.5702  -14.0076   21.2557 C   0  0  1  0  0  0  0  0  0  0  0  0
    6.5246  -14.8433   21.7206 O   0  0  0  0  0  0  0  0  0  0  0  0
    8.8161  -14.8186   21.3130 C   0  0  2  0  0  0  0  0  0  0  0  0
    8.6667  -16.2006   20.9697 N   0  0  0  0  0  0  0  0  0  0  0  0
    9.3908  -14.7180   22.6793 C   0  0  0  0  0  0  0  0  0  0  0  0
    9.6563  -13.5993   23.2151 O   0  0  0  0  0  0  0  0  0  0  0  0
    6.8111  -10.7058   27.6191 O   0  0  0  0  0  0  0  0  0  0  0  0
    7.0345  -11.9194   26.9705 C   0  0  0  0  0  0  0  0  0  0  0  0
    6.0178  -12.7886   26.6413 C   0  0  0  0  0  0  0  0  0  0  0  0
    6.2984  -13.9740   26.0007 C   0  0  0  0  0  0  0  0  0  0  0  0
    7.5820  -14.3344   25.6682 C   0  0  0  0  0  0  0  0  0  0  0  0
    7.8362  -15.6323   24.9765 C   0  0  0  0  0  0  0  0  0  0  0  0
    9.2888  -15.9399   24.8500 C   0  0  2  0  0  0  0  0  0  0  0  0
    9.6750  -15.8960   23.4619 N   0  0  0  0  0  0  0  0  0  0  0  0
    9.5642  -17.2824   25.4485 C   0  0  0  0  0  0  0  0  0  0  0  0
    9.7556  -17.3473   26.8059 O   0  0  0  0  0  0  0  0  0  0  0  0
    8.6070  -13.4760   25.9909 C   0  0  0  0  0  0  0  0  0  0  0  0
    8.3136  -12.3012   26.6275 C   0  0  0  0  0  0  0  0  0  0  0  0
    9.6251  -18.3258   24.7717 O   0  0  0  0  0  0  0  0  0  0  0  0
  1  5  1  0
  1  2  1  0
  2  3  1  0
  4  3  1  0
  5  4  1  0
  6  7  2  0
  5  6  1  1
  9  8  1  6
 10  9  1  0
 11  9  1  0
 11 12  1  1
 12  6  1  0
 13 11  1  0
 14 13  2  0
 16 17  2  0
 16 15  1  0
 18 17  1  0
 19 18  2  0
 21 20  1  6
 20 19  1  0
 21 22  1  0
 22 13  1  0
 23 24  1  0
 23 21  1  0
 25 19  1  0
 25 26  2  0
 26 16  1  0
 27 23  2  0
M  END
$$$$
