PTY.pdb
     RDKit          3D

 27 28  0  0  1  0  0  0  0  0999 V2000
    9.0287  -14.1332   18.2465 N   0  0  0  0  0  0  0  0  0  0  0  0
    8.5889  -13.1162   17.3165 C   0  0  0  0  0  0  0  0  0  0  0  0
    7.2991  -12.5666   17.8340 C   0  0  0  0  0  0  0  0  0  0  0  0
    7.1407  -13.1610   19.2176 C   0  0  0  0  0  0  0  0  0  0  0  0
    8.5294  -13.6645   19.5030 C   0  0  1  0  0  0  0  0  0  0  0  0
    8.5587  -14.6801   20.5689 C   0  0  0  0  0  0  0  0  0  0  0  0
    8.0925  -14.3708   21.6898 O   0  0  0  0  0  0  0  0  0  0  0  0
    8.5752  -18.9040   19.9000 C   0  0  0  0  0  0  0  0  0  0  0  0
    9.4525  -18.3610   20.9779 C   0  0  1  0  0  0  0  0  0  0  0  0
   10.7630  -18.2961   20.4428 O   0  0  0  0  0  0  0  0  0  0  0  0
    9.1166  -16.9873   21.4400 C   0  0  2  0  0  0  0  0  0  0  0  0
    9.0781  -15.9865   20.4168 N   0  0  0  0  0  0  0  0  0  0  0  0
   10.0953  -16.5793   22.4806 C   0  0  0  0  0  0  0  0  0  0  0  0
   10.6608  -15.4440   22.4618 O   0  0  0  0  0  0  0  0  0  0  0  0
   10.6572  -14.3313   30.7133 O   0  0  0  0  0  0  0  0  0  0  0  0
   10.4109  -14.7648   29.4114 C   0  0  0  0  0  0  0  0  0  0  0  0
   10.3007  -13.9003   28.3447 C   0  0  0  0  0  0  0  0  0  0  0  0
   10.0566  -14.3860   27.0802 C   0  0  0  0  0  0  0  0  0  0  0  0
    9.9150  -15.7301   26.8327 C   0  0  0  0  0  0  0  0  0  0  0  0
    9.6479  -16.2082   25.4442 C   0  0  0  0  0  0  0  0  0  0  0  0
   10.8182  -16.9086   24.8437 C   0  0  2  0  0  0  0  0  0  0  0  0
   10.4487  -17.4624   23.5652 N   0  0  0  0  0  0  0  0  0  0  0  0
   11.2916  -17.9735   25.7809 C   0  0  0  0  0  0  0  0  0  0  0  0
   10.9444  -19.2709   25.4983 O   0  0  0  0  0  0  0  0  0  0  0  0
   10.0227  -16.6048   27.8886 C   0  0  0  0  0  0  0  0  0  0  0  0
   10.2655  -16.1082   29.1400 C   0  0  0  0  0  0  0  0  0  0  0  0
   11.9778  -17.7302   26.7910 O   0  0  0  0  0  0  0  0  0  0  0  0
  1  5  1  0
  1  2  1  0
  2  3  1  0
  4  3  1  0
  5  4  1  0
  6  7  2  0
  5  6  1  1
  9  8  1  6
 10  9  1  0
 11  9  1  0
 11 12  1  6
 12  6  1  0
 13 11  1  0
 14 13  2  0
 16 17  2  0
 16 15  1  0
 18 17  1  0
 19 18  2  0
 21 20  1  1
 20 19  1  0
 21 22  1  0
 22 13  1  0
 23 24  1  0
 23 21  1  0
 25 19  1  0
 25 26  2  0
 26 16  1  0
 27 23  2  0
M  END
$$$$
