PTY.pdb
     RDKit          3D

 27 28  0  0  1  0  0  0  0  0999 V2000
    9.2229  -14.2135   19.1456 N   0  0  0  0  0  0  0  0  0  0  0  0
    9.1150  -13.2399   18.0811 C   0  0  0  0  0  0  0  0  0  0  0  0
    7.7944  -12.5570   18.2336 C   0  0  0  0  0  0  0  0  0  0  0  0
    7.2537  -13.0309   19.5661 C   0  0  0  0  0  0  0  0  0  0  0  0
    8.4806  -13.6144   20.2124 C   0  0  1  0  0  0  0  0  0  0  0  0
    8.1592  -14.5454   21.3071 C   0  0  0  0  0  0  0  0  0  0  0  0
    7.4116  -14.1379   22.2260 O   0  0  0  0  0  0  0  0  0  0  0  0
    7.8536  -18.7696   20.8908 C   0  0  0  0  0  0  0  0  0  0  0  0
    8.5605  -18.2400   22.0934 C   0  0  1  0  0  0  0  0  0  0  0  0
    9.9485  -18.3307   21.8233 O   0  0  0  0  0  0  0  0  0  0  0  0
    8.2854  -16.8141   22.4164 C   0  0  2  0  0  0  0  0  0  0  0  0
    8.6366  -15.8735   21.3956 N   0  0  0  0  0  0  0  0  0  0  0  0
    9.0015  -16.4599   23.6690 C   0  0  0  0  0  0  0  0  0  0  0  0
   10.1115  -15.8461   23.6569 O   0  0  0  0  0  0  0  0  0  0  0  0
    6.0022  -10.8342   25.6754 O   0  0  0  0  0  0  0  0  0  0  0  0
    6.5584  -12.0571   26.0476 C   0  0  0  0  0  0  0  0  0  0  0  0
    7.8154  -12.1686   26.5998 C   0  0  0  0  0  0  0  0  0  0  0  0
    8.3131  -13.4036   26.9482 C   0  0  0  0  0  0  0  0  0  0  0  0
    7.5902  -14.5573   26.7631 C   0  0  0  0  0  0  0  0  0  0  0  0
    8.1745  -15.8739   27.1541 C   0  0  0  0  0  0  0  0  0  0  0  0
    9.1562  -16.3848   26.1561 C   0  0  2  0  0  0  0  0  0  0  0  0
    8.4630  -16.8015   24.9629 N   0  0  0  0  0  0  0  0  0  0  0  0
    9.9306  -17.5141   26.7572 C   0  0  0  0  0  0  0  0  0  0  0  0
    9.7731  -18.7600   26.2038 O   0  0  0  0  0  0  0  0  0  0  0  0
    6.3334  -14.4607   26.2127 C   0  0  0  0  0  0  0  0  0  0  0  0
    5.8512  -13.2269   25.8712 C   0  0  0  0  0  0  0  0  0  0  0  0
   10.7001  -17.3676   27.7251 O   0  0  0  0  0  0  0  0  0  0  0  0
  1  5  1  0
  1  2  1  0
  2  3  1  0
  4  3  1  0
  5  4  1  0
  6  7  2  0
  5  6  1  1
  9  8  1  6
 10  9  1  0
 11  9  1  0
 11 12  1  6
 12  6  1  0
 13 11  1  0
 14 13  2  0
 16 17  2  0
 16 15  1  0
 18 17  1  0
 19 18  2  0
 21 20  1  1
 20 19  1  0
 21 22  1  0
 22 13  1  0
 23 24  1  0
 23 21  1  0
 25 19  1  0
 25 26  2  0
 26 16  1  0
 27 23  2  0
M  END
$$$$
