PTY.pdb
     RDKit          3D

 27 28  0  0  1  0  0  0  0  0999 V2000
    9.1762  -14.1759   19.1882 N   0  0  0  0  0  0  0  0  0  0  0  0
    9.1034  -13.2275   18.0984 C   0  0  0  0  0  0  0  0  0  0  0  0
    7.7849  -12.5314   18.2003 C   0  0  0  0  0  0  0  0  0  0  0  0
    7.2064  -12.9690   19.5294 C   0  0  0  0  0  0  0  0  0  0  0  0
    8.4117  -13.5458   20.2209 C   0  0  1  0  0  0  0  0  0  0  0  0
    8.0548  -14.4476   21.3289 C   0  0  0  0  0  0  0  0  0  0  0  0
    7.3140  -14.0019   22.2355 O   0  0  0  0  0  0  0  0  0  0  0  0
    7.5245  -18.6360   20.9130 C   0  0  0  0  0  0  0  0  0  0  0  0
    8.2624  -18.1518   22.1161 C   0  0  1  0  0  0  0  0  0  0  0  0
    9.6428  -18.3152   21.8409 O   0  0  0  0  0  0  0  0  0  0  0  0
    8.0652  -16.7150   22.4479 C   0  0  2  0  0  0  0  0  0  0  0  0
    8.4910  -15.7878   21.4433 N   0  0  0  0  0  0  0  0  0  0  0  0
    8.7760  -16.4145   23.7173 C   0  0  0  0  0  0  0  0  0  0  0  0
    9.8892  -15.8068   23.7356 O   0  0  0  0  0  0  0  0  0  0  0  0
    6.2024  -10.7826   25.9361 O   0  0  0  0  0  0  0  0  0  0  0  0
    6.6383  -12.0694   26.2487 C   0  0  0  0  0  0  0  0  0  0  0  0
    5.8306  -13.1795   26.1360 C   0  0  0  0  0  0  0  0  0  0  0  0
    6.3156  -14.4263   26.4593 C   0  0  0  0  0  0  0  0  0  0  0  0
    7.6034  -14.6133   26.9004 C   0  0  0  0  0  0  0  0  0  0  0  0
    8.0825  -15.9850   27.2417 C   0  0  0  0  0  0  0  0  0  0  0  0
    8.9806  -16.5551   26.1980 C   0  0  2  0  0  0  0  0  0  0  0  0
    8.2284  -16.8041   24.9938 N   0  0  0  0  0  0  0  0  0  0  0  0
    9.6075  -17.8099   26.7165 C   0  0  0  0  0  0  0  0  0  0  0  0
   10.4773  -17.6982   27.7721 O   0  0  0  0  0  0  0  0  0  0  0  0
    8.4211  -13.5136   27.0176 C   0  0  0  0  0  0  0  0  0  0  0  0
    7.9258  -12.2804   26.6928 C   0  0  0  0  0  0  0  0  0  0  0  0
    9.3730  -18.9334   26.2335 O   0  0  0  0  0  0  0  0  0  0  0  0
  1  5  1  0
  1  2  1  0
  2  3  1  0
  4  3  1  0
  5  4  1  0
  6  7  2  0
  5  6  1  1
  9  8  1  6
 10  9  1  0
 11  9  1  0
 11 12  1  6
 12  6  1  0
 13 11  1  0
 14 13  2  0
 16 17  2  0
 16 15  1  0
 18 17  1  0
 19 18  2  0
 21 20  1  1
 20 19  1  0
 21 22  1  0
 22 13  1  0
 23 24  1  0
 23 21  1  0
 25 19  1  0
 25 26  2  0
 26 16  1  0
 27 23  2  0
M  END
$$$$
