YSQ.pdb
     RDKit          3D

 28 28  0  0  1  0  0  0  0  0999 V2000
    8.7682  -22.7927   15.1349 O   0  0  0  0  0  0  0  0  0  0  0  0
    9.4859  -21.8822   15.9289 C   0  0  0  0  0  0  0  0  0  0  0  0
    9.2262  -20.5407   15.8406 C   0  0  0  0  0  0  0  0  0  0  0  0
    9.9472  -19.6489   16.6356 C   0  0  0  0  0  0  0  0  0  0  0  0
   10.9214  -20.0817   17.5147 C   0  0  0  0  0  0  0  0  0  0  0  0
   11.6946  -19.1683   18.3625 C   0  0  0  0  0  0  0  0  0  0  0  0
   11.3716  -19.3338   19.8404 C   0  0  2  0  0  0  0  0  0  0  0  0
    9.9597  -19.2575   20.0940 N   0  0  0  0  0  0  0  0  0  0  0  0
   12.0653  -18.2549   20.5592 C   0  0  0  0  0  0  0  0  0  0  0  0
   13.2237  -17.9348   20.2500 O   0  0  0  0  0  0  0  0  0  0  0  0
   11.1608  -21.4387   17.5817 C   0  0  0  0  0  0  0  0  0  0  0  0
   10.4508  -22.3462   16.7954 C   0  0  0  0  0  0  0  0  0  0  0  0
   10.4019  -16.3628   24.0394 O   0  0  0  0  0  0  0  0  0  0  0  0
   11.0781  -15.6394   23.0481 C   0  0  0  0  0  0  0  0  0  0  0  0
   12.0595  -16.5415   22.3263 C   0  0  2  0  0  0  0  0  0  0  0  0
   11.4021  -17.5850   21.6054 N   0  0  0  0  0  0  0  0  0  0  0  0
   13.0378  -17.0917   23.3060 C   0  0  0  0  0  0  0  0  0  0  0  0
   12.7983  -18.1419   23.9628 O   0  0  0  0  0  0  0  0  0  0  0  0
   16.7535  -20.7595   21.7137 N   0  0  0  0  0  0  0  0  0  0  0  0
   16.1074  -20.6915   22.9714 C   0  0  0  0  0  0  0  0  0  0  0  0
   15.4113  -21.6576   23.3732 O   0  0  0  0  0  0  0  0  0  0  0  0
   16.2587  -19.4957   23.8034 C   0  0  0  0  0  0  0  0  0  0  0  0
   15.7004  -18.2838   23.1554 C   0  0  0  0  0  0  0  0  0  0  0  0
   15.4838  -17.0833   24.0120 C   0  0  2  0  0  0  0  0  0  0  0  0
   14.2622  -16.4250   23.5066 N   0  0  0  0  0  0  0  0  0  0  0  0
   16.5525  -16.1504   24.2320 C   0  0  0  0  0  0  0  0  0  0  0  0
   16.6484  -15.0335   23.3767 O   0  0  0  0  0  0  0  0  0  0  0  0
   17.4320  -16.2154   25.1183 O   0  0  0  0  0  0  0  0  0  0  0  0
  2  1  1  0
  3  2  2  0
  4  3  1  0
  5 11  1  0
  5  4  2  0
  6  5  1  0
  7  6  1  0
  7  8  1  6
  9  7  1  0
  9 10  2  0
 11 12  2  0
 12  2  1  0
 14 13  1  0
 15 16  1  0
 15 14  1  1
 16  9  1  0
 17 15  1  0
 18 17  2  0
 20 19  1  0
 21 20  2  0
 22 20  1  0
 24 23  1  6
 23 22  1  0
 24 25  1  0
 25 17  1  0
 26 24  1  0
 26 27  1  0
 28 26  2  0
M  END
$$$$
