YSQ.pdb
     RDKit          3D

 28 28  0  0  1  0  0  0  0  0999 V2000
    3.1121  -23.8106   25.3942 O   0  0  0  0  0  0  0  0  0  0  0  0
    3.8499  -22.7337   24.8741 C   0  0  0  0  0  0  0  0  0  0  0  0
    3.2417  -21.8116   24.0650 C   0  0  0  0  0  0  0  0  0  0  0  0
    3.9876  -20.7478   23.5561 C   0  0  0  0  0  0  0  0  0  0  0  0
    5.3301  -20.5960   23.8462 C   0  0  0  0  0  0  0  0  0  0  0  0
    6.1390  -19.4886   23.3264 C   0  0  0  0  0  0  0  0  0  0  0  0
    6.2149  -19.4881   21.8064 C   0  0  2  0  0  0  0  0  0  0  0  0
    6.6235  -20.7639   21.2881 N   0  0  0  0  0  0  0  0  0  0  0  0
    7.1915  -18.4585   21.4216 C   0  0  0  0  0  0  0  0  0  0  0  0
    8.2936  -18.7800   20.9504 O   0  0  0  0  0  0  0  0  0  0  0  0
    5.9153  -21.5405   24.6640 C   0  0  0  0  0  0  0  0  0  0  0  0
    5.1868  -22.6111   25.1825 C   0  0  0  0  0  0  0  0  0  0  0  0
    6.0733  -14.4159   21.4150 O   0  0  0  0  0  0  0  0  0  0  0  0
    7.0551  -14.9016   20.5412 C   0  0  0  0  0  0  0  0  0  0  0  0
    7.7721  -16.0799   21.1702 C   0  0  2  0  0  0  0  0  0  0  0  0
    6.8649  -17.0994   21.5925 N   0  0  0  0  0  0  0  0  0  0  0  0
    8.6138  -15.5996   22.3018 C   0  0  0  0  0  0  0  0  0  0  0  0
    8.1022  -15.1536   23.3653 O   0  0  0  0  0  0  0  0  0  0  0  0
    9.3912  -19.3496   25.2230 N   0  0  0  0  0  0  0  0  0  0  0  0
   10.5057  -18.7347   25.8423 C   0  0  0  0  0  0  0  0  0  0  0  0
   10.9357  -19.1724   26.9391 O   0  0  0  0  0  0  0  0  0  0  0  0
   11.1583  -17.5929   25.1975 C   0  0  0  0  0  0  0  0  0  0  0  0
   10.3806  -17.0765   24.0447 C   0  0  0  0  0  0  0  0  0  0  0  0
   10.9290  -15.8960   23.3182 C   0  0  2  0  0  0  0  0  0  0  0  0
   10.0167  -15.6431   22.1848 N   0  0  0  0  0  0  0  0  0  0  0  0
   12.3086  -15.8684   22.9222 C   0  0  0  0  0  0  0  0  0  0  0  0
   13.2850  -15.6825   23.9223 O   0  0  0  0  0  0  0  0  0  0  0  0
   12.7566  -15.9936   21.7617 O   0  0  0  0  0  0  0  0  0  0  0  0
  2  1  1  0
  3  2  2  0
  4  3  1  0
  5 11  1  0
  5  4  2  0
  6  5  1  0
  7  6  1  0
  7  8  1  1
  9  7  1  0
  9 10  2  0
 11 12  2  0
 12  2  1  0
 14 13  1  0
 15 16  1  0
 15 14  1  1
 16  9  1  0
 17 15  1  0
 18 17  2  0
 20 19  1  0
 21 20  2  0
 22 20  1  0
 24 23  1  6
 23 22  1  0
 24 25  1  0
 25 17  1  0
 26 24  1  0
 26 27  1  0
 28 26  2  0
M  END
$$$$
