YSQ.pdb
     RDKit          3D

 28 28  0  0  1  0  0  0  0  0999 V2000
    6.8659  -12.8555   15.3270 O   0  0  0  0  0  0  0  0  0  0  0  0
    7.2533  -13.3182   16.5960 C   0  0  0  0  0  0  0  0  0  0  0  0
    6.7814  -12.7032   17.7247 C   0  0  0  0  0  0  0  0  0  0  0  0
    7.1751  -13.1741   18.9778 C   0  0  0  0  0  0  0  0  0  0  0  0
    8.0323  -14.2492   19.1147 C   0  0  0  0  0  0  0  0  0  0  0  0
    8.4630  -14.7661   20.4178 C   0  0  0  0  0  0  0  0  0  0  0  0
    8.2196  -16.2617   20.5588 C   0  0  2  0  0  0  0  0  0  0  0  0
    6.8188  -16.5798   20.5706 N   0  0  0  0  0  0  0  0  0  0  0  0
    8.8365  -16.6838   21.8250 C   0  0  0  0  0  0  0  0  0  0  0  0
    8.5317  -16.1267   22.8911 O   0  0  0  0  0  0  0  0  0  0  0  0
    8.4911  -14.8483   17.9598 C   0  0  0  0  0  0  0  0  0  0  0  0
    8.1093  -14.3925   16.6979 C   0  0  0  0  0  0  0  0  0  0  0  0
   10.1644  -20.4108   22.5645 O   0  0  0  0  0  0  0  0  0  0  0  0
   10.0321  -19.4292   23.5557 C   0  0  0  0  0  0  0  0  0  0  0  0
   10.4742  -18.0837   23.0152 C   0  0  2  0  0  0  0  0  0  0  0  0
    9.7797  -17.7295   21.8181 N   0  0  0  0  0  0  0  0  0  0  0  0
   11.9488  -18.0962   22.8036 C   0  0  0  0  0  0  0  0  0  0  0  0
   12.4686  -18.6460   21.7940 O   0  0  0  0  0  0  0  0  0  0  0  0
   16.2380  -16.0851   20.2922 N   0  0  0  0  0  0  0  0  0  0  0  0
   15.3169  -15.1600   20.8395 C   0  0  0  0  0  0  0  0  0  0  0  0
   15.2777  -13.9812   20.4058 O   0  0  0  0  0  0  0  0  0  0  0  0
   14.4072  -15.5835   21.9064 C   0  0  0  0  0  0  0  0  0  0  0  0
   14.5649  -17.0191   22.2448 C   0  0  0  0  0  0  0  0  0  0  0  0
   14.2592  -17.4341   23.6435 C   0  0  2  0  0  0  0  0  0  0  0  0
   12.7871  -17.4796   23.7528 N   0  0  0  0  0  0  0  0  0  0  0  0
   14.8653  -16.7482   24.7493 C   0  0  0  0  0  0  0  0  0  0  0  0
   16.2603  -16.8632   24.9207 O   0  0  0  0  0  0  0  0  0  0  0  0
   14.2838  -16.0415   25.6012 O   0  0  0  0  0  0  0  0  0  0  0  0
  2  1  1  0
  3  2  2  0
  4  3  1  0
  5 11  1  0
  5  4  2  0
  6  5  1  0
  7  6  1  0
  7  8  1  1
  9  7  1  0
  9 10  2  0
 11 12  2  0
 12  2  1  0
 14 13  1  0
 15 16  1  0
 15 14  1  6
 16  9  1  0
 17 15  1  0
 18 17  2  0
 20 19  1  0
 21 20  2  0
 22 20  1  0
 24 23  1  6
 23 22  1  0
 24 25  1  0
 25 17  1  0
 26 24  1  0
 26 27  1  0
 28 26  2  0
M  END
$$$$
