YSQ.pdb
     RDKit          3D

 28 28  0  0  1  0  0  0  0  0999 V2000
    5.8427  -10.1494   27.4739 O   0  0  0  0  0  0  0  0  0  0  0  0
    6.3376  -11.3790   27.0075 C   0  0  0  0  0  0  0  0  0  0  0  0
    6.1841  -12.5116   27.7615 C   0  0  0  0  0  0  0  0  0  0  0  0
    6.6809  -13.7254   27.2849 C   0  0  0  0  0  0  0  0  0  0  0  0
    7.3272  -13.8191   26.0672 C   0  0  0  0  0  0  0  0  0  0  0  0
    7.8592  -15.0803   25.5407 C   0  0  0  0  0  0  0  0  0  0  0  0
    6.8255  -15.8569   24.7380 C   0  0  2  0  0  0  0  0  0  0  0  0
    6.2673  -16.9456   25.4908 N   0  0  0  0  0  0  0  0  0  0  0  0
    7.5056  -16.3757   23.5422 C   0  0  0  0  0  0  0  0  0  0  0  0
    8.0796  -17.4755   23.5709 O   0  0  0  0  0  0  0  0  0  0  0  0
    7.4669  -12.6614   25.3300 C   0  0  0  0  0  0  0  0  0  0  0  0
    6.9772  -11.4385   25.7890 C   0  0  0  0  0  0  0  0  0  0  0  0
    8.7884  -15.6254   18.9396 O   0  0  0  0  0  0  0  0  0  0  0  0
    8.0820  -15.1172   20.0378 C   0  0  0  0  0  0  0  0  0  0  0  0
    8.3401  -15.9737   21.2617 C   0  0  2  0  0  0  0  0  0  0  0  0
    7.5005  -15.6115   22.3593 N   0  0  0  0  0  0  0  0  0  0  0  0
    9.7813  -15.8885   21.6297 C   0  0  0  0  0  0  0  0  0  0  0  0
   10.1970  -15.0689   22.4940 O   0  0  0  0  0  0  0  0  0  0  0  0
   10.7571  -18.4895   25.4960 N   0  0  0  0  0  0  0  0  0  0  0  0
   12.1094  -18.7296   25.1529 C   0  0  0  0  0  0  0  0  0  0  0  0
   12.8729  -19.3018   25.9707 O   0  0  0  0  0  0  0  0  0  0  0  0
   12.6118  -18.3152   23.8411 C   0  0  0  0  0  0  0  0  0  0  0  0
   11.5532  -17.7073   22.9984 C   0  0  0  0  0  0  0  0  0  0  0  0
   11.9426  -17.2339   21.6396 C   0  0  2  0  0  0  0  0  0  0  0  0
   10.7059  -16.7432   20.9986 N   0  0  0  0  0  0  0  0  0  0  0  0
   12.7055  -18.0835   20.7696 C   0  0  0  0  0  0  0  0  0  0  0  0
   12.0113  -18.8536   19.8139 O   0  0  0  0  0  0  0  0  0  0  0  0
   13.9479  -18.2235   20.7611 O   0  0  0  0  0  0  0  0  0  0  0  0
  2  1  1  0
  3  2  2  0
  4  3  1  0
  5 11  1  0
  5  4  2  0
  6  5  1  0
  7  6  1  0
  7  8  1  1
  9  7  1  0
  9 10  2  0
 11 12  2  0
 12  2  1  0
 14 13  1  0
 15 16  1  0
 15 14  1  6
 16  9  1  0
 17 15  1  0
 18 17  2  0
 20 19  1  0
 21 20  2  0
 22 20  1  0
 24 23  1  1
 23 22  1  0
 24 25  1  0
 25 17  1  0
 26 24  1  0
 26 27  1  0
 28 26  2  0
M  END
$$$$
