YSQ.pdb
     RDKit          3D

 28 28  0  0  1  0  0  0  0  0999 V2000
   10.6127  -19.6295   19.6628 O   0  0  0  0  0  0  0  0  0  0  0  0
    9.6582  -18.6743   20.0513 C   0  0  0  0  0  0  0  0  0  0  0  0
    9.6171  -18.2319   21.3464 C   0  0  0  0  0  0  0  0  0  0  0  0
    8.6635  -17.2831   21.7171 C   0  0  0  0  0  0  0  0  0  0  0  0
    7.7537  -16.7734   20.8106 C   0  0  0  0  0  0  0  0  0  0  0  0
    6.7408  -15.7758   21.1709 C   0  0  0  0  0  0  0  0  0  0  0  0
    7.3049  -14.3629   21.2091 C   0  0  2  0  0  0  0  0  0  0  0  0
    8.1173  -14.0769   20.0595 N   0  0  0  0  0  0  0  0  0  0  0  0
    8.1153  -14.2526   22.4310 C   0  0  0  0  0  0  0  0  0  0  0  0
    9.3440  -14.4212   22.3898 O   0  0  0  0  0  0  0  0  0  0  0  0
    7.8194  -17.2380   19.5132 C   0  0  0  0  0  0  0  0  0  0  0  0
    8.7653  -18.1862   19.1230 C   0  0  0  0  0  0  0  0  0  0  0  0
    6.1897  -13.9424   26.1357 O   0  0  0  0  0  0  0  0  0  0  0  0
    7.4586  -13.3588   26.0236 C   0  0  0  0  0  0  0  0  0  0  0  0
    8.2209  -13.9916   24.8763 C   0  0  2  0  0  0  0  0  0  0  0  0
    7.4834  -13.9529   23.6534 N   0  0  0  0  0  0  0  0  0  0  0  0
    8.5943  -15.3870   25.2409 C   0  0  0  0  0  0  0  0  0  0  0  0
    8.1967  -16.3768   24.5672 O   0  0  0  0  0  0  0  0  0  0  0  0
   13.9667  -17.7439   23.7674 N   0  0  0  0  0  0  0  0  0  0  0  0
   12.5919  -18.0807   23.7864 C   0  0  0  0  0  0  0  0  0  0  0  0
   11.9969  -18.3531   22.7135 O   0  0  0  0  0  0  0  0  0  0  0  0
   11.8691  -18.1168   25.0598 C   0  0  0  0  0  0  0  0  0  0  0  0
   11.1750  -16.8385   25.3504 C   0  0  0  0  0  0  0  0  0  0  0  0
   10.2707  -16.8002   26.5348 C   0  0  2  0  0  0  0  0  0  0  0  0
    9.4120  -15.6106   26.3657 N   0  0  0  0  0  0  0  0  0  0  0  0
   10.8126  -16.8954   27.8607 C   0  0  0  0  0  0  0  0  0  0  0  0
   11.4398  -18.1003   28.2390 O   0  0  0  0  0  0  0  0  0  0  0  0
   10.7922  -16.0095   28.7428 O   0  0  0  0  0  0  0  0  0  0  0  0
  2  1  1  0
  3  2  2  0
  4  3  1  0
  5 11  1  0
  5  4  2  0
  6  5  1  0
  7  6  1  0
  7  8  1  6
  9  7  1  0
  9 10  2  0
 11 12  2  0
 12  2  1  0
 14 13  1  0
 15 16  1  0
 15 14  1  1
 16  9  1  0
 17 15  1  0
 18 17  2  0
 20 19  1  0
 21 20  2  0
 22 20  1  0
 24 23  1  6
 23 22  1  0
 24 25  1  0
 25 17  1  0
 26 24  1  0
 26 27  1  0
 28 26  2  0
M  END
$$$$
