YSQ.pdb
     RDKit          3D

 28 28  0  0  1  0  0  0  0  0999 V2000
   11.0828  -21.0942   32.5450 O   0  0  0  0  0  0  0  0  0  0  0  0
   10.9734  -21.0037   31.1471 C   0  0  0  0  0  0  0  0  0  0  0  0
   11.9695  -20.4123   30.4171 C   0  0  0  0  0  0  0  0  0  0  0  0
   11.8465  -20.3299   29.0296 C   0  0  0  0  0  0  0  0  0  0  0  0
   10.7427  -20.8305   28.3660 C   0  0  0  0  0  0  0  0  0  0  0  0
   10.5861  -20.7586   26.9096 C   0  0  0  0  0  0  0  0  0  0  0  0
   10.5804  -22.1335   26.2573 C   0  0  2  0  0  0  0  0  0  0  0  0
   11.7246  -22.9141   26.6382 N   0  0  0  0  0  0  0  0  0  0  0  0
   10.5836  -21.9229   24.8021 C   0  0  0  0  0  0  0  0  0  0  0  0
   11.6308  -22.0518   24.1490 O   0  0  0  0  0  0  0  0  0  0  0  0
    9.7556  -21.4207   29.1280 C   0  0  0  0  0  0  0  0  0  0  0  0
    9.8599  -21.5127   30.5160 C   0  0  0  0  0  0  0  0  0  0  0  0
    7.1862  -20.3105   22.9002 O   0  0  0  0  0  0  0  0  0  0  0  0
    7.9861  -21.2091   22.1818 C   0  0  0  0  0  0  0  0  0  0  0  0
    9.3854  -21.2377   22.7642 C   0  0  2  0  0  0  0  0  0  0  0  0
    9.3840  -21.5726   24.1530 N   0  0  0  0  0  0  0  0  0  0  0  0
   10.0481  -19.9254   22.5230 C   0  0  0  0  0  0  0  0  0  0  0  0
   10.2623  -19.4959   21.3563 O   0  0  0  0  0  0  0  0  0  0  0  0
    8.5935  -15.1853   25.6764 N   0  0  0  0  0  0  0  0  0  0  0  0
    9.7983  -14.6325   25.1796 C   0  0  0  0  0  0  0  0  0  0  0  0
   10.0551  -13.4164   25.3655 O   0  0  0  0  0  0  0  0  0  0  0  0
   10.7452  -15.4835   24.4556 C   0  0  0  0  0  0  0  0  0  0  0  0
   10.2432  -16.8692   24.2878 C   0  0  0  0  0  0  0  0  0  0  0  0
   11.0841  -17.8150   23.5000 C   0  0  2  0  0  0  0  0  0  0  0  0
   10.4469  -19.1416   23.6232 N   0  0  0  0  0  0  0  0  0  0  0  0
   12.5024  -17.8712   23.7144 C   0  0  0  0  0  0  0  0  0  0  0  0
   13.3173  -16.9501   23.0246 O   0  0  0  0  0  0  0  0  0  0  0  0
   13.1153  -18.6638   24.4622 O   0  0  0  0  0  0  0  0  0  0  0  0
  2  1  1  0
  3  2  2  0
  4  3  1  0
  5 11  1  0
  5  4  2  0
  6  5  1  0
  7  6  1  0
  7  8  1  1
  9  7  1  0
  9 10  2  0
 11 12  2  0
 12  2  1  0
 14 13  1  0
 15 16  1  0
 15 14  1  1
 16  9  1  0
 17 15  1  0
 18 17  2  0
 20 19  1  0
 21 20  2  0
 22 20  1  0
 24 23  1  1
 23 22  1  0
 24 25  1  0
 25 17  1  0
 26 24  1  0
 26 27  1  0
 28 26  2  0
M  END
$$$$
