WFW.pdb
     RDKit          3D

 40 44  0  0  1  0  0  0  0  0999 V2000
   27.3014  -21.6676  -13.2244 N   0  0  0  0  0  0  0  0  0  0  0  0
   26.8041  -20.5409  -12.4749 C   0  0  1  0  0  0  0  0  0  0  0  0
   25.4928  -20.1040  -13.1107 C   0  0  0  0  0  0  0  0  0  0  0  0
   25.7094  -19.5187  -14.4425 C   0  0  0  0  0  0  0  0  0  0  0  0
   25.2369  -20.0930  -15.6250 C   0  0  0  0  0  0  0  0  0  0  0  0
   25.5980  -19.3163  -16.6543 N   0  0  0  0  0  0  0  0  0  0  0  0
   26.2918  -18.2501  -16.1938 C   0  0  0  0  0  0  0  0  0  0  0  0
   26.8580  -17.1929  -16.8681 C   0  0  0  0  0  0  0  0  0  0  0  0
   27.5146  -16.2380  -16.1054 C   0  0  0  0  0  0  0  0  0  0  0  0
   27.5981  -16.3419  -14.7237 C   0  0  0  0  0  0  0  0  0  0  0  0
   27.0229  -17.4104  -14.0683 C   0  0  0  0  0  0  0  0  0  0  0  0
   26.3666  -18.3673  -14.8164 C   0  0  0  0  0  0  0  0  0  0  0  0
   26.6018  -20.9447  -11.0662 C   0  0  0  0  0  0  0  0  0  0  0  0
   26.4980  -22.1639  -10.7352 O   0  0  0  0  0  0  0  0  0  0  0  0
   26.5229  -19.9513  -10.0641 N   0  0  0  0  0  0  0  0  0  0  0  0
   26.7738  -20.2486   -8.6713 C   0  0  1  0  0  0  0  0  0  0  0  0
   27.5853  -19.2084   -7.9970 C   0  0  0  0  0  0  0  0  0  0  0  0
   27.8482  -19.5660   -6.5809 C   0  0  0  0  0  0  0  0  0  0  0  0
   28.6251  -20.6499   -6.2516 C   0  0  0  0  0  0  0  0  0  0  0  0
   28.8567  -20.9587   -4.9198 C   0  0  0  0  0  0  0  0  0  0  0  0
   28.3228  -20.1999   -3.8889 C   0  0  0  0  0  0  0  0  0  0  0  0
   27.5479  -19.1189   -4.2301 C   0  0  0  0  0  0  0  0  0  0  0  0
   27.3133  -18.8055   -5.5599 C   0  0  0  0  0  0  0  0  0  0  0  0
   25.4960  -20.5613   -8.0068 C   0  0  0  0  0  0  0  0  0  0  0  0
   25.4150  -20.4692   -6.7595 O   0  0  0  0  0  0  0  0  0  0  0  0
   24.3148  -20.9707   -8.6805 N   0  0  0  0  0  0  0  0  0  0  0  0
   23.0806  -21.2740   -7.9825 C   0  0  1  0  0  0  0  0  0  0  0  0
   22.0168  -21.6178   -9.0030 C   0  0  0  0  0  0  0  0  0  0  0  0
   21.6009  -20.4348   -9.7845 C   0  0  0  0  0  0  0  0  0  0  0  0
   21.1742  -19.2234   -9.2847 C   0  0  0  0  0  0  0  0  0  0  0  0
   20.9074  -18.4368  -10.3408 N   0  0  0  0  0  0  0  0  0  0  0  0
   21.1527  -19.1151  -11.4896 C   0  0  0  0  0  0  0  0  0  0  0  0
   21.0534  -18.8113  -12.8408 C   0  0  0  0  0  0  0  0  0  0  0  0
   21.3742  -19.7191  -13.8246 C   0  0  0  0  0  0  0  0  0  0  0  0
   21.8121  -20.9820  -13.4609 C   0  0  0  0  0  0  0  0  0  0  0  0
   21.9242  -21.3219  -12.1301 C   0  0  0  0  0  0  0  0  0  0  0  0
   21.5905  -20.3766  -11.1610 C   0  0  0  0  0  0  0  0  0  0  0  0
   23.2685  -22.4226   -7.0448 C   0  0  0  0  0  0  0  0  0  0  0  0
   22.2841  -22.6487   -6.1001 O   0  0  0  0  0  0  0  0  0  0  0  0
   24.2595  -23.1892   -7.0627 O   0  0  0  0  0  0  0  0  0  0  0  0
  2  1  1  6
  2  3  1  0
  4  3  1  0
  5  4  2  0
  6  5  1  0
  7  6  1  0
  7 12  2  0
  8  7  1  0
  9  8  2  0
  9 10  1  0
 10 11  2  0
 11 12  1  0
 12  4  1  0
 13 15  1  0
 13  2  1  0
 14 13  2  0
 16 24  1  0
 16 17  1  1
 16 15  1  0
 18 17  1  0
 18 23  1  0
 19 18  2  0
 20 19  1  0
 20 21  2  0
 21 22  1  0
 22 23  2  0
 24 25  2  0
 26 27  1  0
 26 24  1  0
 27 38  1  0
 27 28  1  6
 29 30  2  0
 29 28  1  0
 31 30  1  0
 32 37  2  0
 32 31  1  0
 33 32  1  0
 34 33  2  0
 34 35  1  0
 35 36  2  0
 36 37  1  0
 37 29  1  0
 38 40  2  0
 38 39  1  0
M  END
$$$$
