WFW.pdb
     RDKit          3D

 40 44  0  0  1  0  0  0  0  0999 V2000
   25.8196  -23.1945  -11.8882 N   0  0  0  0  0  0  0  0  0  0  0  0
   25.4401  -21.8435  -11.5575 C   0  0  1  0  0  0  0  0  0  0  0  0
   26.5408  -20.9183  -12.0545 C   0  0  0  0  0  0  0  0  0  0  0  0
   27.6982  -20.9231  -11.1470 C   0  0  0  0  0  0  0  0  0  0  0  0
   28.9691  -21.3684  -11.5181 C   0  0  0  0  0  0  0  0  0  0  0  0
   29.7928  -21.2393  -10.4702 N   0  0  0  0  0  0  0  0  0  0  0  0
   29.1113  -20.7248   -9.4210 C   0  0  0  0  0  0  0  0  0  0  0  0
   29.5303  -20.4169   -8.1471 C   0  0  0  0  0  0  0  0  0  0  0  0
   28.5818  -19.8919   -7.2814 C   0  0  0  0  0  0  0  0  0  0  0  0
   27.2682  -19.6854   -7.6798 C   0  0  0  0  0  0  0  0  0  0  0  0
   26.8701  -20.0011   -8.9620 C   0  0  0  0  0  0  0  0  0  0  0  0
   27.8049  -20.5243   -9.8329 C   0  0  0  0  0  0  0  0  0  0  0  0
   24.1487  -21.5281  -12.2067 C   0  0  0  0  0  0  0  0  0  0  0  0
   23.7057  -22.2213  -13.1711 O   0  0  0  0  0  0  0  0  0  0  0  0
   23.3890  -20.4303  -11.7431 N   0  0  0  0  0  0  0  0  0  0  0  0
   21.9431  -20.4502  -11.7347 C   0  0  1  0  0  0  0  0  0  0  0  0
   21.3640  -19.7670  -10.5545 C   0  0  0  0  0  0  0  0  0  0  0  0
   19.8811  -19.7626  -10.6098 C   0  0  0  0  0  0  0  0  0  0  0  0
   19.1451  -20.8008  -10.0925 C   0  0  0  0  0  0  0  0  0  0  0  0
   17.7604  -20.7687  -10.1554 C   0  0  0  0  0  0  0  0  0  0  0  0
   17.0782  -19.7077  -10.7319 C   0  0  0  0  0  0  0  0  0  0  0  0
   17.8242  -18.6757  -11.2457 C   0  0  0  0  0  0  0  0  0  0  0  0
   19.2089  -18.7026  -11.1854 C   0  0  0  0  0  0  0  0  0  0  0  0
   21.4461  -19.9643  -13.0343 C   0  0  0  0  0  0  0  0  0  0  0  0
   21.8459  -18.8589  -13.4691 O   0  0  0  0  0  0  0  0  0  0  0  0
   20.5251  -20.6632  -13.8589 N   0  0  0  0  0  0  0  0  0  0  0  0
   19.9398  -20.0780  -15.0495 C   0  0  1  0  0  0  0  0  0  0  0  0
   20.0531  -21.0717  -16.1857 C   0  0  0  0  0  0  0  0  0  0  0  0
   19.5850  -20.5004  -17.4654 C   0  0  0  0  0  0  0  0  0  0  0  0
   20.2814  -19.6448  -18.2915 C   0  0  0  0  0  0  0  0  0  0  0  0
   19.4878  -19.3853  -19.3442 N   0  0  0  0  0  0  0  0  0  0  0  0
   18.3136  -20.0505  -19.2065 C   0  0  0  0  0  0  0  0  0  0  0  0
   17.1549  -20.1494  -19.9651 C   0  0  0  0  0  0  0  0  0  0  0  0
   16.0822  -20.9180  -19.5731 C   0  0  0  0  0  0  0  0  0  0  0  0
   16.1545  -21.6199  -18.3811 C   0  0  0  0  0  0  0  0  0  0  0  0
   17.2875  -21.5476  -17.6000 C   0  0  0  0  0  0  0  0  0  0  0  0
   18.3546  -20.7592  -18.0287 C   0  0  0  0  0  0  0  0  0  0  0  0
   18.5029  -19.7351  -14.8222 C   0  0  0  0  0  0  0  0  0  0  0  0
   18.0360  -18.5432  -15.3458 O   0  0  0  0  0  0  0  0  0  0  0  0
   17.6998  -20.4587  -14.1885 O   0  0  0  0  0  0  0  0  0  0  0  0
  2  1  1  6
  2  3  1  0
  4  3  1  0
  5  4  2  0
  6  5  1  0
  7  6  1  0
  7 12  2  0
  8  7  1  0
  9  8  2  0
  9 10  1  0
 10 11  2  0
 11 12  1  0
 12  4  1  0
 13 15  1  0
 13  2  1  0
 14 13  2  0
 16 24  1  0
 16 17  1  1
 16 15  1  0
 18 17  1  0
 18 23  1  0
 19 18  2  0
 20 19  1  0
 20 21  2  0
 21 22  1  0
 22 23  2  0
 24 25  2  0
 26 27  1  0
 26 24  1  0
 27 38  1  0
 27 28  1  6
 29 30  2  0
 29 28  1  0
 31 30  1  0
 32 37  2  0
 32 31  1  0
 33 32  1  0
 34 33  2  0
 34 35  1  0
 35 36  2  0
 36 37  1  0
 37 29  1  0
 38 40  2  0
 38 39  1  0
M  END
$$$$
