WFW.pdb
     RDKit          3D

 40 44  0  0  1  0  0  0  0  0999 V2000
   15.9496  -27.0826    3.9766 N   0  0  0  0  0  0  0  0  0  0  0  0
   15.8686  -25.9839    4.9067 C   0  0  1  0  0  0  0  0  0  0  0  0
   14.7835  -26.3144    5.9206 C   0  0  0  0  0  0  0  0  0  0  0  0
   13.4418  -26.1993    5.3293 C   0  0  0  0  0  0  0  0  0  0  0  0
   13.2128  -25.8739    3.9902 C   0  0  0  0  0  0  0  0  0  0  0  0
   11.8917  -25.8536    3.7726 N   0  0  0  0  0  0  0  0  0  0  0  0
   11.2405  -26.1538    4.9197 C   0  0  0  0  0  0  0  0  0  0  0  0
    9.8938  -26.2549    5.1831 C   0  0  0  0  0  0  0  0  0  0  0  0
    9.5285  -26.5865    6.4798 C   0  0  0  0  0  0  0  0  0  0  0  0
   10.4769  -26.8068    7.4691 C   0  0  0  0  0  0  0  0  0  0  0  0
   11.8218  -26.7001    7.1827 C   0  0  0  0  0  0  0  0  0  0  0  0
   12.1979  -26.3708    5.8958 C   0  0  0  0  0  0  0  0  0  0  0  0
   17.1794  -25.8105    5.5703 C   0  0  0  0  0  0  0  0  0  0  0  0
   17.8769  -26.8063    5.9290 O   0  0  0  0  0  0  0  0  0  0  0  0
   17.6683  -24.5065    5.8105 N   0  0  0  0  0  0  0  0  0  0  0  0
   18.9201  -24.2735    6.4961 C   0  0  1  0  0  0  0  0  0  0  0  0
   19.9930  -23.7984    5.5915 C   0  0  0  0  0  0  0  0  0  0  0  0
   20.2932  -24.8018    4.5402 C   0  0  0  0  0  0  0  0  0  0  0  0
   19.7860  -24.6772    3.2697 C   0  0  0  0  0  0  0  0  0  0  0  0
   20.0856  -25.6284    2.3064 C   0  0  0  0  0  0  0  0  0  0  0  0
   20.8932  -26.7213    2.5833 C   0  0  0  0  0  0  0  0  0  0  0  0
   21.3945  -26.8356    3.8565 C   0  0  0  0  0  0  0  0  0  0  0  0
   21.0983  -25.8874    4.8234 C   0  0  0  0  0  0  0  0  0  0  0  0
   18.6758  -23.4140    7.6681 C   0  0  0  0  0  0  0  0  0  0  0  0
   18.3494  -22.2167    7.4930 O   0  0  0  0  0  0  0  0  0  0  0  0
   18.7829  -23.8407    9.0184 N   0  0  0  0  0  0  0  0  0  0  0  0
   18.5478  -22.9534   10.1409 C   0  0  1  0  0  0  0  0  0  0  0  0
   17.1702  -22.3427    9.9976 C   0  0  0  0  0  0  0  0  0  0  0  0
   16.8722  -21.3942   11.0906 C   0  0  0  0  0  0  0  0  0  0  0  0
   17.5849  -20.2607   11.4175 C   0  0  0  0  0  0  0  0  0  0  0  0
   16.9610  -19.6947   12.4642 N   0  0  0  0  0  0  0  0  0  0  0  0
   15.8780  -20.4364   12.8065 C   0  0  0  0  0  0  0  0  0  0  0  0
   14.8966  -20.3347   13.7835 C   0  0  0  0  0  0  0  0  0  0  0  0
   13.8851  -21.2599   13.9094 C   0  0  0  0  0  0  0  0  0  0  0  0
   13.8387  -22.3326   13.0341 C   0  0  0  0  0  0  0  0  0  0  0  0
   14.7945  -22.4687   12.0508 C   0  0  0  0  0  0  0  0  0  0  0  0
   15.8043  -21.5122   11.9531 C   0  0  0  0  0  0  0  0  0  0  0  0
   18.6368  -23.6970   11.4343 C   0  0  0  0  0  0  0  0  0  0  0  0
   18.9661  -22.9771   12.5683 O   0  0  0  0  0  0  0  0  0  0  0  0
   18.4322  -24.9276   11.5525 O   0  0  0  0  0  0  0  0  0  0  0  0
  2  1  1  6
  2  3  1  0
  4  3  1  0
  5  4  2  0
  6  5  1  0
  7  6  1  0
  7 12  2  0
  8  7  1  0
  9  8  2  0
  9 10  1  0
 10 11  2  0
 11 12  1  0
 12  4  1  0
 13 15  1  0
 13  2  1  0
 14 13  2  0
 16 24  1  0
 16 17  1  6
 16 15  1  0
 18 17  1  0
 18 23  1  0
 19 18  2  0
 20 19  1  0
 20 21  2  0
 21 22  1  0
 22 23  2  0
 24 25  2  0
 26 27  1  0
 26 24  1  0
 27 38  1  0
 27 28  1  6
 29 30  2  0
 29 28  1  0
 31 30  1  0
 32 37  2  0
 32 31  1  0
 33 32  1  0
 34 33  2  0
 34 35  1  0
 35 36  2  0
 36 37  1  0
 37 29  1  0
 38 40  2  0
 38 39  1  0
M  END
$$$$
