WFW.pdb
     RDKit          3D

 40 44  0  0  1  0  0  0  0  0999 V2000
   27.3012  -21.5450  -18.1242 N   0  0  0  0  0  0  0  0  0  0  0  0
   27.2040  -20.5279  -17.1070 C   0  0  1  0  0  0  0  0  0  0  0  0
   26.2015  -19.4884  -17.5857 C   0  0  0  0  0  0  0  0  0  0  0  0
   26.7605  -18.6585  -18.6636 C   0  0  0  0  0  0  0  0  0  0  0  0
   26.3196  -18.7126  -19.9881 C   0  0  0  0  0  0  0  0  0  0  0  0
   27.0262  -17.8355  -20.7125 N   0  0  0  0  0  0  0  0  0  0  0  0
   27.9174  -17.2046  -19.9139 C   0  0  0  0  0  0  0  0  0  0  0  0
   28.8466  -16.2324  -20.2046 C   0  0  0  0  0  0  0  0  0  0  0  0
   29.6285  -15.7738  -19.1542 C   0  0  0  0  0  0  0  0  0  0  0  0
   29.4820  -16.2717  -17.8668 C   0  0  0  0  0  0  0  0  0  0  0  0
   28.5437  -17.2462  -17.5980 C   0  0  0  0  0  0  0  0  0  0  0  0
   27.7596  -17.7107  -18.6351 C   0  0  0  0  0  0  0  0  0  0  0  0
   26.7603  -21.1483  -15.8394 C   0  0  0  0  0  0  0  0  0  0  0  0
   25.9428  -22.1170  -15.8268 O   0  0  0  0  0  0  0  0  0  0  0  0
   27.2578  -20.6526  -14.6130 N   0  0  0  0  0  0  0  0  0  0  0  0
   26.5482  -20.8427  -13.3673 C   0  0  1  0  0  0  0  0  0  0  0  0
   27.3784  -20.5376  -12.1787 C   0  0  0  0  0  0  0  0  0  0  0  0
   26.6052  -20.7114  -10.9241 C   0  0  0  0  0  0  0  0  0  0  0  0
   26.2773  -21.9604  -10.4557 C   0  0  0  0  0  0  0  0  0  0  0  0
   25.5566  -22.0929   -9.2786 C   0  0  0  0  0  0  0  0  0  0  0  0
   25.1467  -20.9908   -8.5432 C   0  0  0  0  0  0  0  0  0  0  0  0
   25.4801  -19.7475   -9.0211 C   0  0  0  0  0  0  0  0  0  0  0  0
   26.2007  -19.6092  -10.1972 C   0  0  0  0  0  0  0  0  0  0  0  0
   25.2661  -20.1183  -13.4268 C   0  0  0  0  0  0  0  0  0  0  0  0
   25.2630  -18.8686  -13.3316 O   0  0  0  0  0  0  0  0  0  0  0  0
   23.9970  -20.7353  -13.5868 N   0  0  0  0  0  0  0  0  0  0  0  0
   22.7605  -20.1013  -13.1725 C   0  0  1  0  0  0  0  0  0  0  0  0
   22.1628  -19.3787  -14.3607 C   0  0  0  0  0  0  0  0  0  0  0  0
   22.0373  -20.2639  -15.5371 C   0  0  0  0  0  0  0  0  0  0  0  0
   21.5913  -21.5679  -15.5453 C   0  0  0  0  0  0  0  0  0  0  0  0
   21.6313  -21.9868  -16.8213 N   0  0  0  0  0  0  0  0  0  0  0  0
   22.0885  -20.9874  -17.6164 C   0  0  0  0  0  0  0  0  0  0  0  0
   22.3318  -20.8588  -18.9774 C   0  0  0  0  0  0  0  0  0  0  0  0
   22.8142  -19.6948  -19.5319 C   0  0  0  0  0  0  0  0  0  0  0  0
   23.0681  -18.6098  -18.7091 C   0  0  0  0  0  0  0  0  0  0  0  0
   22.8394  -18.6978  -17.3529 C   0  0  0  0  0  0  0  0  0  0  0  0
   22.3504  -19.8927  -16.8264 C   0  0  0  0  0  0  0  0  0  0  0  0
   21.7894  -21.1147  -12.6590 C   0  0  0  0  0  0  0  0  0  0  0  0
   20.5963  -20.6531  -12.1337 O   0  0  0  0  0  0  0  0  0  0  0  0
   21.9903  -22.3515  -12.6754 O   0  0  0  0  0  0  0  0  0  0  0  0
  2  1  1  6
  2  3  1  0
  4  3  1  0
  5  4  2  0
  6  5  1  0
  7  6  1  0
  7 12  2  0
  8  7  1  0
  9  8  2  0
  9 10  1  0
 10 11  2  0
 11 12  1  0
 12  4  1  0
 13 15  1  0
 13  2  1  0
 14 13  2  0
 16 24  1  0
 16 17  1  1
 16 15  1  0
 18 17  1  0
 18 23  1  0
 19 18  2  0
 20 19  1  0
 20 21  2  0
 21 22  1  0
 22 23  2  0
 24 25  2  0
 26 27  1  0
 26 24  1  0
 27 38  1  0
 27 28  1  6
 29 30  2  0
 29 28  1  0
 31 30  1  0
 32 37  2  0
 32 31  1  0
 33 32  1  0
 34 33  2  0
 34 35  1  0
 35 36  2  0
 36 37  1  0
 37 29  1  0
 38 40  2  0
 38 39  1  0
M  END
$$$$
