WFW.pdb
     RDKit          3D

 40 44  0  0  1  0  0  0  0  0999 V2000
   27.7556  -21.5235  -15.9041 N   0  0  0  0  0  0  0  0  0  0  0  0
   27.4943  -20.7774  -14.6983 C   0  0  1  0  0  0  0  0  0  0  0  0
   26.9696  -19.4085  -15.1051 C   0  0  0  0  0  0  0  0  0  0  0  0
   27.8940  -18.7301  -16.0262 C   0  0  0  0  0  0  0  0  0  0  0  0
   27.5000  -18.1733  -17.2453 C   0  0  0  0  0  0  0  0  0  0  0  0
   28.5725  -17.6328  -17.8376 N   0  0  0  0  0  0  0  0  0  0  0  0
   29.6600  -17.8127  -17.0534 C   0  0  0  0  0  0  0  0  0  0  0  0
   30.9692  -17.4330  -17.2397 C   0  0  0  0  0  0  0  0  0  0  0  0
   31.8703  -17.7652  -16.2384 C   0  0  0  0  0  0  0  0  0  0  0  0
   31.4716  -18.4499  -15.0987 C   0  0  0  0  0  0  0  0  0  0  0  0
   30.1536  -18.8206  -14.9326 C   0  0  0  0  0  0  0  0  0  0  0  0
   29.2474  -18.4957  -15.9222 C   0  0  0  0  0  0  0  0  0  0  0  0
   26.4988  -21.5058  -13.8816 C   0  0  0  0  0  0  0  0  0  0  0  0
   25.6651  -22.3021  -14.4085 O   0  0  0  0  0  0  0  0  0  0  0  0
   26.4746  -21.3122  -12.4819 N   0  0  0  0  0  0  0  0  0  0  0  0
   25.3974  -21.8159  -11.6590 C   0  0  1  0  0  0  0  0  0  0  0  0
   25.8613  -22.3115  -10.3421 C   0  0  0  0  0  0  0  0  0  0  0  0
   26.6468  -21.2768   -9.6247 C   0  0  0  0  0  0  0  0  0  0  0  0
   28.0204  -21.2845   -9.6424 C   0  0  0  0  0  0  0  0  0  0  0  0
   28.7286  -20.3033   -8.9655 C   0  0  0  0  0  0  0  0  0  0  0  0
   28.0898  -19.2958   -8.2581 C   0  0  0  0  0  0  0  0  0  0  0  0
   26.7167  -19.2982   -8.2475 C   0  0  0  0  0  0  0  0  0  0  0  0
   26.0036  -20.2768   -8.9225 C   0  0  0  0  0  0  0  0  0  0  0  0
   24.3258  -20.8060  -11.5955 C   0  0  0  0  0  0  0  0  0  0  0  0
   24.6263  -19.5899  -11.6354 O   0  0  0  0  0  0  0  0  0  0  0  0
   22.9413  -21.1037  -11.4891 N   0  0  0  0  0  0  0  0  0  0  0  0
   21.9151  -20.0800  -11.5285 C   0  0  1  0  0  0  0  0  0  0  0  0
   21.9815  -19.3763  -12.8671 C   0  0  0  0  0  0  0  0  0  0  0  0
   21.7113  -20.2998  -13.9884 C   0  0  0  0  0  0  0  0  0  0  0  0
   20.7478  -21.2842  -14.0334 C   0  0  0  0  0  0  0  0  0  0  0  0
   20.8475  -21.8741  -15.2365 N   0  0  0  0  0  0  0  0  0  0  0  0
   21.8435  -21.2920  -15.9500 C   0  0  0  0  0  0  0  0  0  0  0  0
   22.3790  -21.4891  -17.2159 C   0  0  0  0  0  0  0  0  0  0  0  0
   23.4226  -20.7326  -17.6992 C   0  0  0  0  0  0  0  0  0  0  0  0
   23.9624  -19.7382  -16.9000 C   0  0  0  0  0  0  0  0  0  0  0  0
   23.4584  -19.5117  -15.6375 C   0  0  0  0  0  0  0  0  0  0  0  0
   22.4009  -20.2974  -15.1812 C   0  0  0  0  0  0  0  0  0  0  0  0
   20.5588  -20.6793  -11.3415 C   0  0  0  0  0  0  0  0  0  0  0  0
   19.4875  -19.8152  -11.2056 O   0  0  0  0  0  0  0  0  0  0  0  0
   20.3348  -21.9115  -11.3004 O   0  0  0  0  0  0  0  0  0  0  0  0
  2  1  1  6
  2  3  1  0
  4  3  1  0
  5  4  2  0
  6  5  1  0
  7  6  1  0
  7 12  2  0
  8  7  1  0
  9  8  2  0
  9 10  1  0
 10 11  2  0
 11 12  1  0
 12  4  1  0
 13 15  1  0
 13  2  1  0
 14 13  2  0
 16 24  1  0
 16 17  1  1
 16 15  1  0
 18 17  1  0
 18 23  1  0
 19 18  2  0
 20 19  1  0
 20 21  2  0
 21 22  1  0
 22 23  2  0
 24 25  2  0
 26 27  1  0
 26 24  1  0
 27 38  1  0
 27 28  1  6
 29 30  2  0
 29 28  1  0
 31 30  1  0
 32 37  2  0
 32 31  1  0
 33 32  1  0
 34 33  2  0
 34 35  1  0
 35 36  2  0
 36 37  1  0
 37 29  1  0
 38 40  2  0
 38 39  1  0
M  END
$$$$
