WFW.pdb
     RDKit          3D

 40 44  0  0  1  0  0  0  0  0999 V2000
   24.4608  -17.8601  -15.4944 N   0  0  0  0  0  0  0  0  0  0  0  0
   24.1151  -18.8292  -14.4843 C   0  0  1  0  0  0  0  0  0  0  0  0
   22.8477  -19.5385  -14.9374 C   0  0  0  0  0  0  0  0  0  0  0  0
   21.6838  -18.6405  -14.8936 C   0  0  0  0  0  0  0  0  0  0  0  0
   21.0610  -18.1265  -16.0335 C   0  0  0  0  0  0  0  0  0  0  0  0
   20.0382  -17.3510  -15.6519 N   0  0  0  0  0  0  0  0  0  0  0  0
   19.9634  -17.3347  -14.3013 C   0  0  0  0  0  0  0  0  0  0  0  0
   19.0859  -16.6873  -13.4623 C   0  0  0  0  0  0  0  0  0  0  0  0
   19.2667  -16.8700  -12.0989 C   0  0  0  0  0  0  0  0  0  0  0  0
   20.2863  -17.6694  -11.6008 C   0  0  0  0  0  0  0  0  0  0  0  0
   21.1545  -18.3093  -12.4604 C   0  0  0  0  0  0  0  0  0  0  0  0
   20.9848  -18.1353  -13.8195 C   0  0  0  0  0  0  0  0  0  0  0  0
   25.2315  -19.7870  -14.3266 C   0  0  0  0  0  0  0  0  0  0  0  0
   25.3500  -20.7963  -15.0843 O   0  0  0  0  0  0  0  0  0  0  0  0
   26.1896  -19.5744  -13.3097 N   0  0  0  0  0  0  0  0  0  0  0  0
   27.2725  -20.5032  -13.0733 C   0  0  1  0  0  0  0  0  0  0  0  0
   28.6066  -19.9081  -13.3205 C   0  0  0  0  0  0  0  0  0  0  0  0
   28.7369  -19.4453  -14.7245 C   0  0  0  0  0  0  0  0  0  0  0  0
   29.1735  -20.2898  -15.7161 C   0  0  0  0  0  0  0  0  0  0  0  0
   29.2827  -19.8311  -17.0200 C   0  0  0  0  0  0  0  0  0  0  0  0
   28.9618  -18.5271  -17.3665 C   0  0  0  0  0  0  0  0  0  0  0  0
   28.5266  -17.6921  -16.3672 C   0  0  0  0  0  0  0  0  0  0  0  0
   28.4153  -18.1455  -15.0619 C   0  0  0  0  0  0  0  0  0  0  0  0
   27.1052  -21.1105  -11.7409 C   0  0  0  0  0  0  0  0  0  0  0  0
   27.8368  -22.0727  -11.4095 O   0  0  0  0  0  0  0  0  0  0  0  0
   26.1567  -20.6853  -10.7733 N   0  0  0  0  0  0  0  0  0  0  0  0
   25.9275  -21.4022   -9.5339 C   0  0  1  0  0  0  0  0  0  0  0  0
   27.2387  -21.5105   -8.7853 C   0  0  0  0  0  0  0  0  0  0  0  0
   27.4167  -20.4028   -7.8238 C   0  0  0  0  0  0  0  0  0  0  0  0
   26.9034  -19.1281   -7.9286 C   0  0  0  0  0  0  0  0  0  0  0  0
   27.3021  -18.4549   -6.8362 N   0  0  0  0  0  0  0  0  0  0  0  0
   28.0503  -19.2660   -6.0472 C   0  0  0  0  0  0  0  0  0  0  0  0
   28.7067  -19.1097   -4.8337 C   0  0  0  0  0  0  0  0  0  0  0  0
   29.4168  -20.1312   -4.2445 C   0  0  0  0  0  0  0  0  0  0  0  0
   29.4831  -21.3608   -4.8789 C   0  0  0  0  0  0  0  0  0  0  0  0
   28.8448  -21.5556   -6.0846 C   0  0  0  0  0  0  0  0  0  0  0  0
   28.1348  -20.4982   -6.6518 C   0  0  0  0  0  0  0  0  0  0  0  0
   24.9215  -20.6920   -8.6870 C   0  0  0  0  0  0  0  0  0  0  0  0
   24.5191  -21.3068   -7.5153 O   0  0  0  0  0  0  0  0  0  0  0  0
   24.4229  -19.5787   -8.9733 O   0  0  0  0  0  0  0  0  0  0  0  0
  2  1  1  6
  2  3  1  0
  4  3  1  0
  5  4  2  0
  6  5  1  0
  7  6  1  0
  7 12  2  0
  8  7  1  0
  9  8  2  0
  9 10  1  0
 10 11  2  0
 11 12  1  0
 12  4  1  0
 13 15  1  0
 13  2  1  0
 14 13  2  0
 16 24  1  0
 16 17  1  1
 16 15  1  0
 18 17  1  0
 18 23  1  0
 19 18  2  0
 20 19  1  0
 20 21  2  0
 21 22  1  0
 22 23  2  0
 24 25  2  0
 26 27  1  0
 26 24  1  0
 27 38  1  0
 27 28  1  1
 29 30  2  0
 29 28  1  0
 31 30  1  0
 32 37  2  0
 32 31  1  0
 33 32  1  0
 34 33  2  0
 34 35  1  0
 35 36  2  0
 36 37  1  0
 37 29  1  0
 38 40  2  0
 38 39  1  0
M  END
$$$$
