WFW.pdb
     RDKit          3D

 40 44  0  0  1  0  0  0  0  0999 V2000
   26.7719  -21.6028  -16.2903 N   0  0  0  0  0  0  0  0  0  0  0  0
   25.6301  -21.0277  -15.6239 C   0  0  1  0  0  0  0  0  0  0  0  0
   24.3838  -21.4676  -16.3775 C   0  0  0  0  0  0  0  0  0  0  0  0
   24.3073  -20.8380  -17.7045 C   0  0  0  0  0  0  0  0  0  0  0  0
   24.9751  -21.3253  -18.8305 C   0  0  0  0  0  0  0  0  0  0  0  0
   24.6966  -20.5315  -19.8724 N   0  0  0  0  0  0  0  0  0  0  0  0
   23.8690  -19.5381  -19.4747 C   0  0  0  0  0  0  0  0  0  0  0  0
   23.3163  -18.4969  -20.1843 C   0  0  0  0  0  0  0  0  0  0  0  0
   22.4912  -17.6267  -19.4867 C   0  0  0  0  0  0  0  0  0  0  0  0
   22.2329  -17.7964  -18.1335 C   0  0  0  0  0  0  0  0  0  0  0  0
   22.7976  -18.8476  -17.4418 C   0  0  0  0  0  0  0  0  0  0  0  0
   23.6206  -19.7204  -18.1250 C   0  0  0  0  0  0  0  0  0  0  0  0
   25.5963  -21.4993  -14.2221 C   0  0  0  0  0  0  0  0  0  0  0  0
   26.1005  -22.6126  -13.8857 O   0  0  0  0  0  0  0  0  0  0  0  0
   24.9898  -20.6923  -13.2331 N   0  0  0  0  0  0  0  0  0  0  0  0
   24.9731  -21.0750  -11.8386 C   0  0  1  0  0  0  0  0  0  0  0  0
   25.7150  -20.1292  -10.9724 C   0  0  0  0  0  0  0  0  0  0  0  0
   27.1724  -20.1786  -11.2475 C   0  0  0  0  0  0  0  0  0  0  0  0
   27.7457  -19.3738  -12.2017 C   0  0  0  0  0  0  0  0  0  0  0  0
   29.1109  -19.4389  -12.4354 C   0  0  0  0  0  0  0  0  0  0  0  0
   29.9342  -20.3026  -11.7285 C   0  0  0  0  0  0  0  0  0  0  0  0
   29.3501  -21.1022  -10.7772 C   0  0  0  0  0  0  0  0  0  0  0  0
   27.9857  -21.0411  -10.5393 C   0  0  0  0  0  0  0  0  0  0  0  0
   23.5817  -21.3293  -11.4245 C   0  0  0  0  0  0  0  0  0  0  0  0
   23.2803  -21.2561  -10.2102 O   0  0  0  0  0  0  0  0  0  0  0  0
   22.5232  -21.6604  -12.3115 N   0  0  0  0  0  0  0  0  0  0  0  0
   21.2820  -20.9125  -12.3629 C   0  0  1  0  0  0  0  0  0  0  0  0
   21.6038  -19.4517  -12.5950 C   0  0  0  0  0  0  0  0  0  0  0  0
   21.4972  -19.0846  -14.0222 C   0  0  0  0  0  0  0  0  0  0  0  0
   20.6094  -19.5983  -14.9428 C   0  0  0  0  0  0  0  0  0  0  0  0
   20.8554  -18.9804  -16.1103 N   0  0  0  0  0  0  0  0  0  0  0  0
   21.8702  -18.0940  -15.9534 C   0  0  0  0  0  0  0  0  0  0  0  0
   22.5286  -17.2076  -16.7953 C   0  0  0  0  0  0  0  0  0  0  0  0
   23.5585  -16.4053  -16.3585 C   0  0  0  0  0  0  0  0  0  0  0  0
   23.9571  -16.4797  -15.0340 C   0  0  0  0  0  0  0  0  0  0  0  0
   23.3283  -17.3470  -14.1670 C   0  0  0  0  0  0  0  0  0  0  0  0
   22.2889  -18.1444  -14.6445 C   0  0  0  0  0  0  0  0  0  0  0  0
   20.4034  -21.4153  -13.4625 C   0  0  0  0  0  0  0  0  0  0  0  0
   20.9909  -22.1732  -14.4590 O   0  0  0  0  0  0  0  0  0  0  0  0
   19.1725  -21.1923  -13.5357 O   0  0  0  0  0  0  0  0  0  0  0  0
  2  1  1  6
  2  3  1  0
  4  3  1  0
  5  4  2  0
  6  5  1  0
  7  6  1  0
  7 12  2  0
  8  7  1  0
  9  8  2  0
  9 10  1  0
 10 11  2  0
 11 12  1  0
 12  4  1  0
 13 15  1  0
 13  2  1  0
 14 13  2  0
 16 24  1  0
 16 17  1  1
 16 15  1  0
 18 17  1  0
 18 23  1  0
 19 18  2  0
 20 19  1  0
 20 21  2  0
 21 22  1  0
 22 23  2  0
 24 25  2  0
 26 27  1  0
 26 24  1  0
 27 38  1  0
 27 28  1  6
 29 30  2  0
 29 28  1  0
 31 30  1  0
 32 37  2  0
 32 31  1  0
 33 32  1  0
 34 33  2  0
 34 35  1  0
 35 36  2  0
 36 37  1  0
 37 29  1  0
 38 40  2  0
 38 39  1  0
M  END
$$$$
