WFW.pdb
     RDKit          3D

 40 44  0  0  1  0  0  0  0  0999 V2000
   21.8716  -17.5366  -17.6356 N   0  0  0  0  0  0  0  0  0  0  0  0
   22.0564  -18.4994  -16.5785 C   0  0  1  0  0  0  0  0  0  0  0  0
   22.3890  -17.7332  -15.3069 C   0  0  0  0  0  0  0  0  0  0  0  0
   23.6768  -17.0322  -15.4225 C   0  0  0  0  0  0  0  0  0  0  0  0
   23.8949  -15.7343  -14.9542 C   0  0  0  0  0  0  0  0  0  0  0  0
   25.1643  -15.3929  -15.2094 N   0  0  0  0  0  0  0  0  0  0  0  0
   25.7919  -16.4185  -15.8291 C   0  0  0  0  0  0  0  0  0  0  0  0
   27.0871  -16.5334  -16.2789 C   0  0  0  0  0  0  0  0  0  0  0  0
   27.4407  -17.7315  -16.8826 C   0  0  0  0  0  0  0  0  0  0  0  0
   26.5305  -18.7694  -17.0277 C   0  0  0  0  0  0  0  0  0  0  0  0
   25.2370  -18.6325  -16.5692 C   0  0  0  0  0  0  0  0  0  0  0  0
   24.8731  -17.4449  -15.9666 C   0  0  0  0  0  0  0  0  0  0  0  0
   20.8143  -19.2860  -16.4142 C   0  0  0  0  0  0  0  0  0  0  0  0
   19.6868  -18.7228  -16.2789 O   0  0  0  0  0  0  0  0  0  0  0  0
   20.8827  -20.6976  -16.4083 N   0  0  0  0  0  0  0  0  0  0  0  0
   19.7243  -21.5180  -16.1322 C   0  0  1  0  0  0  0  0  0  0  0  0
   19.2391  -22.2503  -17.3253 C   0  0  0  0  0  0  0  0  0  0  0  0
   18.0444  -23.0698  -17.0039 C   0  0  0  0  0  0  0  0  0  0  0  0
   18.1581  -24.3995  -16.6784 C   0  0  0  0  0  0  0  0  0  0  0  0
   17.0248  -25.1402  -16.3796 C   0  0  0  0  0  0  0  0  0  0  0  0
   15.7571  -24.5780  -16.3976 C   0  0  0  0  0  0  0  0  0  0  0  0
   15.6555  -23.2482  -16.7243 C   0  0  0  0  0  0  0  0  0  0  0  0
   16.7854  -22.5029  -17.0238 C   0  0  0  0  0  0  0  0  0  0  0  0
   20.0016  -22.3654  -14.9587 C   0  0  0  0  0  0  0  0  0  0  0  0
   20.9343  -23.2009  -15.0125 O   0  0  0  0  0  0  0  0  0  0  0  0
   19.2795  -22.3138  -13.7370 N   0  0  0  0  0  0  0  0  0  0  0  0
   19.6402  -23.1101  -12.5801 C   0  0  1  0  0  0  0  0  0  0  0  0
   20.1506  -22.1868  -11.4945 C   0  0  0  0  0  0  0  0  0  0  0  0
   19.2307  -21.0553  -11.2567 C   0  0  0  0  0  0  0  0  0  0  0  0
   18.0652  -21.0792  -10.5216 C   0  0  0  0  0  0  0  0  0  0  0  0
   17.5529  -19.8377  -10.5605 N   0  0  0  0  0  0  0  0  0  0  0  0
   18.3593  -19.0332  -11.2970 C   0  0  0  0  0  0  0  0  0  0  0  0
   18.3259  -17.6952  -11.6667 C   0  0  0  0  0  0  0  0  0  0  0  0
   19.3047  -17.1231  -12.4476 C   0  0  0  0  0  0  0  0  0  0  0  0
   20.3628  -17.9037  -12.8834 C   0  0  0  0  0  0  0  0  0  0  0  0
   20.4318  -19.2359  -12.5375 C   0  0  0  0  0  0  0  0  0  0  0  0
   19.4225  -19.7814  -11.7452 C   0  0  0  0  0  0  0  0  0  0  0  0
   18.4619  -23.8781  -12.0748 C   0  0  0  0  0  0  0  0  0  0  0  0
   18.7022  -24.9221  -11.2001 O   0  0  0  0  0  0  0  0  0  0  0  0
   17.2750  -23.6346  -12.3946 O   0  0  0  0  0  0  0  0  0  0  0  0
  2  1  1  6
  2  3  1  0
  4  3  1  0
  5  4  2  0
  6  5  1  0
  7  6  1  0
  7 12  2  0
  8  7  1  0
  9  8  2  0
  9 10  1  0
 10 11  2  0
 11 12  1  0
 12  4  1  0
 13 15  1  0
 13  2  1  0
 14 13  2  0
 16 24  1  0
 16 17  1  6
 16 15  1  0
 18 17  1  0
 18 23  1  0
 19 18  2  0
 20 19  1  0
 20 21  2  0
 21 22  1  0
 22 23  2  0
 24 25  2  0
 26 27  1  0
 26 24  1  0
 27 38  1  0
 27 28  1  1
 29 30  2  0
 29 28  1  0
 31 30  1  0
 32 37  2  0
 32 31  1  0
 33 32  1  0
 34 33  2  0
 34 35  1  0
 35 36  2  0
 36 37  1  0
 37 29  1  0
 38 40  2  0
 38 39  1  0
M  END
$$$$
