WFW.pdb
     RDKit          3D

 40 44  0  0  1  0  0  0  0  0999 V2000
   24.7502  -18.4432  -11.9884 N   0  0  0  0  0  0  0  0  0  0  0  0
   25.1891  -19.8041  -12.1730 C   0  0  1  0  0  0  0  0  0  0  0  0
   24.5276  -20.6539  -11.0984 C   0  0  0  0  0  0  0  0  0  0  0  0
   24.8873  -20.1912   -9.7494 C   0  0  0  0  0  0  0  0  0  0  0  0
   24.0612  -19.3841   -8.9636 C   0  0  0  0  0  0  0  0  0  0  0  0
   24.6760  -19.1457   -7.7981 N   0  0  0  0  0  0  0  0  0  0  0  0
   25.8779  -19.7664   -7.7864 C   0  0  0  0  0  0  0  0  0  0  0  0
   26.8518  -19.8107   -6.8155 C   0  0  0  0  0  0  0  0  0  0  0  0
   27.9938  -20.5447   -7.1015 C   0  0  0  0  0  0  0  0  0  0  0  0
   28.1496  -21.2058   -8.3120 C   0  0  0  0  0  0  0  0  0  0  0  0
   27.1601  -21.1480   -9.2711 C   0  0  0  0  0  0  0  0  0  0  0  0
   26.0188  -20.4206   -8.9982 C   0  0  0  0  0  0  0  0  0  0  0  0
   24.8003  -20.2615  -13.5250 C   0  0  0  0  0  0  0  0  0  0  0  0
   24.0257  -19.5769  -14.2585 O   0  0  0  0  0  0  0  0  0  0  0  0
   25.3028  -21.4889  -14.0133 N   0  0  0  0  0  0  0  0  0  0  0  0
   25.8301  -21.6203  -15.3534 C   0  0  1  0  0  0  0  0  0  0  0  0
   27.1543  -22.2838  -15.3894 C   0  0  0  0  0  0  0  0  0  0  0  0
   28.1294  -21.5851  -14.5158 C   0  0  0  0  0  0  0  0  0  0  0  0
   28.5257  -20.2962  -14.7775 C   0  0  0  0  0  0  0  0  0  0  0  0
   29.4361  -19.6668  -13.9423 C   0  0  0  0  0  0  0  0  0  0  0  0
   29.9715  -20.3024  -12.8319 C   0  0  0  0  0  0  0  0  0  0  0  0
   29.5682  -21.5906  -12.5802 C   0  0  0  0  0  0  0  0  0  0  0  0
   28.6581  -22.2245  -13.4119 C   0  0  0  0  0  0  0  0  0  0  0  0
   24.8070  -22.2376  -16.2162 C   0  0  0  0  0  0  0  0  0  0  0  0
   25.1246  -22.6189  -17.3672 O   0  0  0  0  0  0  0  0  0  0  0  0
   23.4523  -22.4421  -15.8425 N   0  0  0  0  0  0  0  0  0  0  0  0
   22.4820  -23.0619  -16.7240 C   0  0  1  0  0  0  0  0  0  0  0  0
   21.1527  -23.1415  -16.0044 C   0  0  0  0  0  0  0  0  0  0  0  0
   21.2259  -24.0033  -14.8065 C   0  0  0  0  0  0  0  0  0  0  0  0
   22.1029  -25.0444  -14.5907 C   0  0  0  0  0  0  0  0  0  0  0  0
   21.8251  -25.5441  -13.3747 N   0  0  0  0  0  0  0  0  0  0  0  0
   20.8008  -24.8502  -12.8185 C   0  0  0  0  0  0  0  0  0  0  0  0
   20.1131  -24.9255  -11.6146 C   0  0  0  0  0  0  0  0  0  0  0  0
   19.0805  -24.0704  -11.3024 C   0  0  0  0  0  0  0  0  0  0  0  0
   18.7091  -23.0984  -12.2168 C   0  0  0  0  0  0  0  0  0  0  0  0
   19.3673  -22.9914  -13.4228 C   0  0  0  0  0  0  0  0  0  0  0  0
   20.4085  -23.8747  -13.7048 C   0  0  0  0  0  0  0  0  0  0  0  0
   22.3264  -22.2717  -17.9830 C   0  0  0  0  0  0  0  0  0  0  0  0
   22.7825  -22.8395  -19.1587 O   0  0  0  0  0  0  0  0  0  0  0  0
   21.8102  -21.1312  -18.0372 O   0  0  0  0  0  0  0  0  0  0  0  0
  2  1  1  1
  2  3  1  0
  4  3  1  0
  5  4  2  0
  6  5  1  0
  7  6  1  0
  7 12  2  0
  8  7  1  0
  9  8  2  0
  9 10  1  0
 10 11  2  0
 11 12  1  0
 12  4  1  0
 13 15  1  0
 13  2  1  0
 14 13  2  0
 16 24  1  0
 16 17  1  1
 16 15  1  0
 18 17  1  0
 18 23  1  0
 19 18  2  0
 20 19  1  0
 20 21  2  0
 21 22  1  0
 22 23  2  0
 24 25  2  0
 26 27  1  0
 26 24  1  0
 27 38  1  0
 27 28  1  1
 29 30  2  0
 29 28  1  0
 31 30  1  0
 32 37  2  0
 32 31  1  0
 33 32  1  0
 34 33  2  0
 34 35  1  0
 35 36  2  0
 36 37  1  0
 37 29  1  0
 38 40  2  0
 38 39  1  0
M  END
$$$$
