WFW.pdb
     RDKit          3D

 40 44  0  0  1  0  0  0  0  0999 V2000
   24.8310  -18.8719  -18.6597 N   0  0  0  0  0  0  0  0  0  0  0  0
   24.4660  -19.2484  -17.3166 C   0  0  1  0  0  0  0  0  0  0  0  0
   23.2256  -20.1251  -17.4022 C   0  0  0  0  0  0  0  0  0  0  0  0
   22.0479  -19.3512  -17.8234 C   0  0  0  0  0  0  0  0  0  0  0  0
   21.3962  -19.5392  -19.0446 C   0  0  0  0  0  0  0  0  0  0  0  0
   20.3678  -18.6848  -19.1190 N   0  0  0  0  0  0  0  0  0  0  0  0
   20.3173  -17.9397  -17.9910 C   0  0  0  0  0  0  0  0  0  0  0  0
   19.4446  -16.9446  -17.6152 C   0  0  0  0  0  0  0  0  0  0  0  0
   19.6531  -16.3589  -16.3749 C   0  0  0  0  0  0  0  0  0  0  0  0
   20.6946  -16.7571  -15.5481 C   0  0  0  0  0  0  0  0  0  0  0  0
   21.5576  -17.7570  -15.9451 C   0  0  0  0  0  0  0  0  0  0  0  0
   21.3604  -18.3476  -17.1773 C   0  0  0  0  0  0  0  0  0  0  0  0
   25.5908  -19.9802  -16.6938 C   0  0  0  0  0  0  0  0  0  0  0  0
   26.2148  -20.8904  -17.3174 O   0  0  0  0  0  0  0  0  0  0  0  0
   25.9814  -19.6592  -15.3741 N   0  0  0  0  0  0  0  0  0  0  0  0
   27.1215  -20.2840  -14.7409 C   0  0  1  0  0  0  0  0  0  0  0  0
   28.1123  -19.3027  -14.2404 C   0  0  0  0  0  0  0  0  0  0  0  0
   28.3728  -18.2418  -15.2448 C   0  0  0  0  0  0  0  0  0  0  0  0
   27.6163  -17.0959  -15.2842 C   0  0  0  0  0  0  0  0  0  0  0  0
   27.8841  -16.1197  -16.2318 C   0  0  0  0  0  0  0  0  0  0  0  0
   28.9063  -16.2602  -17.1586 C   0  0  0  0  0  0  0  0  0  0  0  0
   29.6557  -17.4098  -17.1098 C   0  0  0  0  0  0  0  0  0  0  0  0
   29.3924  -18.3888  -16.1644 C   0  0  0  0  0  0  0  0  0  0  0  0
   26.6455  -21.2487  -13.7334 C   0  0  0  0  0  0  0  0  0  0  0  0
   27.1681  -22.3866  -13.6793 O   0  0  0  0  0  0  0  0  0  0  0  0
   25.6142  -20.9900  -12.7921 N   0  0  0  0  0  0  0  0  0  0  0  0
   25.2142  -21.9531  -11.7846 C   0  0  1  0  0  0  0  0  0  0  0  0
   26.3698  -22.1668  -10.8305 C   0  0  0  0  0  0  0  0  0  0  0  0
   26.4647  -21.0841   -9.8295 C   0  0  0  0  0  0  0  0  0  0  0  0
   25.4914  -20.1590   -9.5192 C   0  0  0  0  0  0  0  0  0  0  0  0
   25.9944  -19.3711   -8.5540 N   0  0  0  0  0  0  0  0  0  0  0  0
   27.2536  -19.7713   -8.2471 C   0  0  0  0  0  0  0  0  0  0  0  0
   28.2239  -19.3364   -7.3541 C   0  0  0  0  0  0  0  0  0  0  0  0
   29.4547  -19.9443   -7.2515 C   0  0  0  0  0  0  0  0  0  0  0  0
   29.7421  -21.0284   -8.0645 C   0  0  0  0  0  0  0  0  0  0  0  0
   28.8053  -21.4901   -8.9636 C   0  0  0  0  0  0  0  0  0  0  0  0
   27.5692  -20.8496   -9.0400 C   0  0  0  0  0  0  0  0  0  0  0  0
   24.0204  -21.4667  -11.0283 C   0  0  0  0  0  0  0  0  0  0  0  0
   23.2904  -22.3975  -10.3117 O   0  0  0  0  0  0  0  0  0  0  0  0
   23.6426  -20.2721  -11.0046 O   0  0  0  0  0  0  0  0  0  0  0  0
  2  1  1  6
  2  3  1  0
  4  3  1  0
  5  4  2  0
  6  5  1  0
  7  6  1  0
  7 12  2  0
  8  7  1  0
  9  8  2  0
  9 10  1  0
 10 11  2  0
 11 12  1  0
 12  4  1  0
 13 15  1  0
 13  2  1  0
 14 13  2  0
 16 24  1  0
 16 17  1  1
 16 15  1  0
 18 17  1  0
 18 23  1  0
 19 18  2  0
 20 19  1  0
 20 21  2  0
 21 22  1  0
 22 23  2  0
 24 25  2  0
 26 27  1  0
 26 24  1  0
 27 38  1  0
 27 28  1  1
 29 30  2  0
 29 28  1  0
 31 30  1  0
 32 37  2  0
 32 31  1  0
 33 32  1  0
 34 33  2  0
 34 35  1  0
 35 36  2  0
 36 37  1  0
 37 29  1  0
 38 40  2  0
 38 39  1  0
M  END
$$$$
