WFW.pdb
     RDKit          3D

 40 44  0  0  1  0  0  0  0  0999 V2000
   26.4780  -23.0944  -18.0947 N   0  0  0  0  0  0  0  0  0  0  0  0
   26.2654  -21.8256  -17.4436 C   0  0  1  0  0  0  0  0  0  0  0  0
   25.0329  -21.1864  -18.0658 C   0  0  0  0  0  0  0  0  0  0  0  0
   25.2541  -20.8583  -19.4823 C   0  0  0  0  0  0  0  0  0  0  0  0
   25.4335  -21.8202  -20.4793 C   0  0  0  0  0  0  0  0  0  0  0  0
   25.6066  -21.1969  -21.6518 N   0  0  0  0  0  0  0  0  0  0  0  0
   25.5480  -19.8584  -21.4645 C   0  0  0  0  0  0  0  0  0  0  0  0
   25.6669  -18.8238  -22.3638 C   0  0  0  0  0  0  0  0  0  0  0  0
   25.5575  -17.5356  -21.8603 C   0  0  0  0  0  0  0  0  0  0  0  0
   25.3378  -17.2982  -20.5104 C   0  0  0  0  0  0  0  0  0  0  0  0
   25.2216  -18.3507  -19.6267 C   0  0  0  0  0  0  0  0  0  0  0  0
   25.3287  -19.6374  -20.1157 C   0  0  0  0  0  0  0  0  0  0  0  0
   26.0725  -22.0490  -15.9940 C   0  0  0  0  0  0  0  0  0  0  0  0
   25.4070  -23.0361  -15.5589 O   0  0  0  0  0  0  0  0  0  0  0  0
   26.6425  -21.1435  -15.0707 N   0  0  0  0  0  0  0  0  0  0  0  0
   26.2293  -21.1026  -13.6855 C   0  0  1  0  0  0  0  0  0  0  0  0
   27.2394  -20.4763  -12.8009 C   0  0  0  0  0  0  0  0  0  0  0  0
   26.7692  -20.4333  -11.3940 C   0  0  0  0  0  0  0  0  0  0  0  0
   26.1905  -19.3032  -10.8698 C   0  0  0  0  0  0  0  0  0  0  0  0
   25.7574  -19.2925   -9.5526 C   0  0  0  0  0  0  0  0  0  0  0  0
   25.8895  -20.4009   -8.7296 C   0  0  0  0  0  0  0  0  0  0  0  0
   26.4693  -21.5249   -9.2645 C   0  0  0  0  0  0  0  0  0  0  0  0
   26.9039  -21.5411  -10.5807 C   0  0  0  0  0  0  0  0  0  0  0  0
   24.8827  -20.5097  -13.6008 C   0  0  0  0  0  0  0  0  0  0  0  0
   24.5571  -19.6097  -14.4101 O   0  0  0  0  0  0  0  0  0  0  0  0
   23.8946  -20.8828  -12.6515 N   0  0  0  0  0  0  0  0  0  0  0  0
   22.5469  -20.3481  -12.6728 C   0  0  1  0  0  0  0  0  0  0  0  0
   21.8350  -20.8731  -13.9011 C   0  0  0  0  0  0  0  0  0  0  0  0
   21.8016  -19.8726  -14.9878 C   0  0  0  0  0  0  0  0  0  0  0  0
   22.0269  -18.5180  -14.8702 C   0  0  0  0  0  0  0  0  0  0  0  0
   21.9059  -17.9931  -16.1011 N   0  0  0  0  0  0  0  0  0  0  0  0
   21.6115  -18.9748  -16.9898 C   0  0  0  0  0  0  0  0  0  0  0  0
   21.3793  -19.0129  -18.3582 C   0  0  0  0  0  0  0  0  0  0  0  0
   21.0895  -20.1829  -19.0230 C   0  0  0  0  0  0  0  0  0  0  0  0
   21.0256  -21.3676  -18.3079 C   0  0  0  0  0  0  0  0  0  0  0  0
   21.2500  -21.3712  -16.9482 C   0  0  0  0  0  0  0  0  0  0  0  0
   21.5411  -20.1671  -16.3083 C   0  0  0  0  0  0  0  0  0  0  0  0
   21.7957  -20.7505  -11.4450 C   0  0  0  0  0  0  0  0  0  0  0  0
   22.4611  -21.5192  -10.5074 O   0  0  0  0  0  0  0  0  0  0  0  0
   20.6049  -20.4351  -11.2152 O   0  0  0  0  0  0  0  0  0  0  0  0
  2  1  1  6
  2  3  1  0
  4  3  1  0
  5  4  2  0
  6  5  1  0
  7  6  1  0
  7 12  2  0
  8  7  1  0
  9  8  2  0
  9 10  1  0
 10 11  2  0
 11 12  1  0
 12  4  1  0
 13 15  1  0
 13  2  1  0
 14 13  2  0
 16 24  1  0
 16 17  1  1
 16 15  1  0
 18 17  1  0
 18 23  1  0
 19 18  2  0
 20 19  1  0
 20 21  2  0
 21 22  1  0
 22 23  2  0
 24 25  2  0
 26 27  1  0
 26 24  1  0
 27 38  1  0
 27 28  1  6
 29 30  2  0
 29 28  1  0
 31 30  1  0
 32 37  2  0
 32 31  1  0
 33 32  1  0
 34 33  2  0
 34 35  1  0
 35 36  2  0
 36 37  1  0
 37 29  1  0
 38 40  2  0
 38 39  1  0
M  END
$$$$
