WFW.pdb
     RDKit          3D

 40 44  0  0  1  0  0  0  0  0999 V2000
   26.5787  -22.5772  -14.7033 N   0  0  0  0  0  0  0  0  0  0  0  0
   26.3854  -21.6680  -13.6011 C   0  0  1  0  0  0  0  0  0  0  0  0
   26.6960  -20.2642  -14.0985 C   0  0  0  0  0  0  0  0  0  0  0  0
   28.1392  -19.9844  -14.0531 C   0  0  0  0  0  0  0  0  0  0  0  0
   28.8376  -19.3571  -15.0876 C   0  0  0  0  0  0  0  0  0  0  0  0
   30.1247  -19.2500  -14.7340 N   0  0  0  0  0  0  0  0  0  0  0  0
   30.3010  -19.7838  -13.5036 C   0  0  0  0  0  0  0  0  0  0  0  0
   31.4353  -19.9001  -12.7336 C   0  0  0  0  0  0  0  0  0  0  0  0
   31.2952  -20.5039  -11.4924 C   0  0  0  0  0  0  0  0  0  0  0  0
   30.0670  -20.9707  -11.0449 C   0  0  0  0  0  0  0  0  0  0  0  0
   28.9427  -20.8435  -11.8335 C   0  0  0  0  0  0  0  0  0  0  0  0
   29.0693  -20.2444  -13.0708 C   0  0  0  0  0  0  0  0  0  0  0  0
   24.9869  -21.7661  -13.1290 C   0  0  0  0  0  0  0  0  0  0  0  0
   24.0605  -22.1861  -13.8855 O   0  0  0  0  0  0  0  0  0  0  0  0
   24.6731  -21.3844  -11.8049 N   0  0  0  0  0  0  0  0  0  0  0  0
   23.3269  -21.4685  -11.2837 C   0  0  1  0  0  0  0  0  0  0  0  0
   23.2887  -21.7057   -9.8217 C   0  0  0  0  0  0  0  0  0  0  0  0
   24.4567  -21.0879   -9.1462 C   0  0  0  0  0  0  0  0  0  0  0  0
   24.3858  -19.8238   -8.6131 C   0  0  0  0  0  0  0  0  0  0  0  0
   25.4921  -19.2727   -7.9847 C   0  0  0  0  0  0  0  0  0  0  0  0
   26.6897  -19.9630   -7.8726 C   0  0  0  0  0  0  0  0  0  0  0  0
   26.7488  -21.2256   -8.4091 C   0  0  0  0  0  0  0  0  0  0  0  0
   25.6458  -21.7815   -9.0383 C   0  0  0  0  0  0  0  0  0  0  0  0
   22.5591  -20.2957  -11.7387 C   0  0  0  0  0  0  0  0  0  0  0  0
   22.6255  -19.2282  -11.0852 O   0  0  0  0  0  0  0  0  0  0  0  0
   21.7255  -20.2730  -12.8882 N   0  0  0  0  0  0  0  0  0  0  0  0
   20.5927  -19.3770  -13.0163 C   0  0  1  0  0  0  0  0  0  0  0  0
   20.7579  -18.5621  -14.2812 C   0  0  0  0  0  0  0  0  0  0  0  0
   21.0528  -19.4152  -15.4510 C   0  0  0  0  0  0  0  0  0  0  0  0
   20.1894  -20.2915  -16.0724 C   0  0  0  0  0  0  0  0  0  0  0  0
   20.8646  -20.8491  -17.0915 N   0  0  0  0  0  0  0  0  0  0  0  0
   22.1259  -20.3514  -17.1309 C   0  0  0  0  0  0  0  0  0  0  0  0
   23.2316  -20.5620  -17.9439 C   0  0  0  0  0  0  0  0  0  0  0  0
   24.4246  -19.9034  -17.7485 C   0  0  0  0  0  0  0  0  0  0  0  0
   24.5328  -18.9976  -16.7061 C   0  0  0  0  0  0  0  0  0  0  0  0
   23.4576  -18.7608  -15.8772 C   0  0  0  0  0  0  0  0  0  0  0  0
   22.2649  -19.4460  -16.1051 C   0  0  0  0  0  0  0  0  0  0  0  0
   19.3117  -20.1446  -13.0757 C   0  0  0  0  0  0  0  0  0  0  0  0
   18.1300  -19.4287  -13.0152 O   0  0  0  0  0  0  0  0  0  0  0  0
   19.2441  -21.3918  -13.1763 O   0  0  0  0  0  0  0  0  0  0  0  0
  2  1  1  6
  2  3  1  0
  4  3  1  0
  5  4  2  0
  6  5  1  0
  7  6  1  0
  7 12  2  0
  8  7  1  0
  9  8  2  0
  9 10  1  0
 10 11  2  0
 11 12  1  0
 12  4  1  0
 13 15  1  0
 13  2  1  0
 14 13  2  0
 16 24  1  0
 16 17  1  1
 16 15  1  0
 18 17  1  0
 18 23  1  0
 19 18  2  0
 20 19  1  0
 20 21  2  0
 21 22  1  0
 22 23  2  0
 24 25  2  0
 26 27  1  0
 26 24  1  0
 27 38  1  0
 27 28  1  6
 29 30  2  0
 29 28  1  0
 31 30  1  0
 32 37  2  0
 32 31  1  0
 33 32  1  0
 34 33  2  0
 34 35  1  0
 35 36  2  0
 36 37  1  0
 37 29  1  0
 38 40  2  0
 38 39  1  0
M  END
$$$$
