ECI.pdb
     RDKit          3D

 24 23  0  0  1  0  0  0  0  0999 V2000
   20.3018  -13.1943  -18.3218 N   0  0  0  0  0  0  0  0  0  0  0  0
   21.0694  -11.9783  -18.4773 C   0  0  1  0  0  0  0  0  0  0  0  0
   20.7995  -11.4263  -19.8495 C   0  0  0  0  0  0  0  0  0  0  0  0
   21.4240  -12.2373  -20.9420 C   0  0  0  0  0  0  0  0  0  0  0  0
   21.1884  -11.5676  -22.2373 C   0  0  0  0  0  0  0  0  0  0  0  0
   20.8724  -12.2586  -23.2323 O   0  0  0  0  0  0  0  0  0  0  0  0
   20.6084  -10.9562  -17.4915 C   0  0  0  0  0  0  0  0  0  0  0  0
   19.4288  -10.9632  -17.0376 O   0  0  0  0  0  0  0  0  0  0  0  0
   21.3011  -10.1962  -22.4076 O   0  0  0  0  0  0  0  0  0  0  0  0
   21.4459   -9.9278  -17.0070 N   0  0  0  0  0  0  0  0  0  0  0  0
   21.0692   -8.8967  -16.1023 C   0  0  1  0  0  0  0  0  0  0  0  0
   21.8390   -8.8730  -14.8181 C   0  0  0  0  0  0  0  0  0  0  0  0
   21.2402   -7.5522  -13.7272 S   0  0  0  0  0  0  0  0  0  0  0  0
   21.0604   -7.5770  -16.7846 C   0  0  0  0  0  0  0  0  0  0  0  0
   22.1167   -7.1490  -17.3124 O   0  0  0  0  0  0  0  0  0  0  0  0
   19.2382   -3.9301  -20.6335 C   0  0  0  0  0  0  0  0  0  0  0  0
   18.9183   -3.9105  -19.1718 C   0  0  0  0  0  0  0  0  0  0  0  0
   18.8904   -5.3010  -18.5747 C   0  0  2  0  0  0  0  0  0  0  0  0
   17.5298   -5.6150  -17.9760 C   0  0  0  0  0  0  0  0  0  0  0  0
   19.9081   -5.4413  -17.4717 C   0  0  2  0  0  0  0  0  0  0  0  0
   19.9087   -6.7603  -16.8750 N   0  0  0  0  0  0  0  0  0  0  0  0
   19.7626   -4.3871  -16.4366 C   0  0  0  0  0  0  0  0  0  0  0  0
   20.0732   -3.1985  -16.6736 O   0  0  0  0  0  0  0  0  0  0  0  0
   19.2781   -4.6768  -15.1702 O   0  0  0  0  0  0  0  0  0  0  0  0
  2  1  1  1
  3  2  1  0
  4  3  1  0
  4  5  1  0
  5  6  2  0
  7  2  1  0
  8  7  2  0
  9  5  1  0
 10  7  1  0
 11 10  1  0
 11 14  1  0
 12 13  1  0
 11 12  1  1
 14 21  1  0
 15 14  2  0
 17 16  1  0
 18 20  1  0
 18 17  1  0
 18 19  1  1
 20 22  1  0
 20 21  1  1
 22 23  2  0
 22 24  1  0
M  END
$$$$
