ECI.pdb
     RDKit          3D

 24 23  0  0  1  0  0  0  0  0999 V2000
   20.2484  -12.5211  -17.9144 N   0  0  0  0  0  0  0  0  0  0  0  0
   19.5954  -11.2373  -18.0453 C   0  0  1  0  0  0  0  0  0  0  0  0
   18.4175  -11.2135  -17.1111 C   0  0  0  0  0  0  0  0  0  0  0  0
   17.2689  -12.0440  -17.5931 C   0  0  0  0  0  0  0  0  0  0  0  0
   16.3851  -11.2082  -18.4310 C   0  0  0  0  0  0  0  0  0  0  0  0
   16.6774  -10.0047  -18.6137 O   0  0  0  0  0  0  0  0  0  0  0  0
   20.5223  -10.1489  -17.6149 C   0  0  0  0  0  0  0  0  0  0  0  0
   21.4882  -10.3768  -16.8322 O   0  0  0  0  0  0  0  0  0  0  0  0
   15.2347  -11.6961  -19.0320 O   0  0  0  0  0  0  0  0  0  0  0  0
   20.3850   -8.8115  -18.0466 N   0  0  0  0  0  0  0  0  0  0  0  0
   21.2913   -7.7478  -17.7805 C   0  0  1  0  0  0  0  0  0  0  0  0
   21.6487   -6.9121  -18.9704 C   0  0  0  0  0  0  0  0  0  0  0  0
   22.7323   -5.5363  -18.4949 S   0  0  0  0  0  0  0  0  0  0  0  0
   20.8197   -6.9309  -16.6326 C   0  0  0  0  0  0  0  0  0  0  0  0
   19.6398   -6.5005  -16.6260 O   0  0  0  0  0  0  0  0  0  0  0  0
   20.3931   -8.6047  -11.8712 C   0  0  0  0  0  0  0  0  0  0  0  0
   20.3544   -7.8265  -13.1488 C   0  0  0  0  0  0  0  0  0  0  0  0
   21.2416   -6.6013  -13.0982 C   0  0  2  0  0  0  0  0  0  0  0  0
   20.8110   -5.6562  -11.9894 C   0  0  0  0  0  0  0  0  0  0  0  0
   21.1813   -5.8306  -14.3921 C   0  0  2  0  0  0  0  0  0  0  0  0
   21.6394   -6.6046  -15.5266 N   0  0  0  0  0  0  0  0  0  0  0  0
   21.8979   -4.5333  -14.3065 C   0  0  0  0  0  0  0  0  0  0  0  0
   23.0646   -4.4073  -14.7403 O   0  0  0  0  0  0  0  0  0  0  0  0
   21.3046   -3.4133  -13.7441 O   0  0  0  0  0  0  0  0  0  0  0  0
  2  1  1  1
  3  2  1  0
  4  3  1  0
  4  5  1  0
  5  6  2  0
  7  2  1  0
  8  7  2  0
  9  5  1  0
 10  7  1  0
 11 10  1  0
 11 14  1  0
 12 13  1  0
 11 12  1  6
 14 21  1  0
 15 14  2  0
 17 16  1  0
 18 20  1  0
 18 17  1  0
 18 19  1  1
 20 22  1  0
 20 21  1  6
 22 23  2  0
 22 24  1  0
M  END
$$$$
