ECI.pdb
     RDKit          3D

 24 23  0  0  1  0  0  0  0  0999 V2000
   25.6640  -20.8798  -15.9314 N   0  0  0  0  0  0  0  0  0  0  0  0
   26.6176  -21.0983  -14.8661 C   0  0  1  0  0  0  0  0  0  0  0  0
   27.9917  -20.8018  -15.3994 C   0  0  0  0  0  0  0  0  0  0  0  0
   28.8869  -22.0016  -15.4155 C   0  0  0  0  0  0  0  0  0  0  0  0
   28.4236  -22.9374  -16.4601 C   0  0  0  0  0  0  0  0  0  0  0  0
   28.6500  -22.6702  -17.6621 O   0  0  0  0  0  0  0  0  0  0  0  0
   26.3611  -20.1410  -13.7495 C   0  0  0  0  0  0  0  0  0  0  0  0
   26.0741  -18.9303  -13.9721 O   0  0  0  0  0  0  0  0  0  0  0  0
   27.7426  -24.1104  -16.1722 O   0  0  0  0  0  0  0  0  0  0  0  0
   26.4209  -20.5172  -12.3899 N   0  0  0  0  0  0  0  0  0  0  0  0
   25.5097  -20.1241  -11.3708 C   0  0  1  0  0  0  0  0  0  0  0  0
   24.0635  -20.3021  -11.7158 C   0  0  0  0  0  0  0  0  0  0  0  0
   23.0021  -19.8513  -10.3146 S   0  0  0  0  0  0  0  0  0  0  0  0
   25.8672  -20.7559  -10.0745 C   0  0  0  0  0  0  0  0  0  0  0  0
   25.6480  -21.9809   -9.9048 O   0  0  0  0  0  0  0  0  0  0  0  0
   28.9090  -19.6932   -4.7100 C   0  0  0  0  0  0  0  0  0  0  0  0
   27.9765  -20.4973   -5.5605 C   0  0  0  0  0  0  0  0  0  0  0  0
   27.6827  -19.8211   -6.8823 C   0  0  2  0  0  0  0  0  0  0  0  0
   27.0793  -18.4427   -6.6726 C   0  0  0  0  0  0  0  0  0  0  0  0
   26.6991  -20.6212   -7.6973 C   0  0  2  0  0  0  0  0  0  0  0  0
   26.4509  -20.0427   -9.0011 N   0  0  0  0  0  0  0  0  0  0  0  0
   25.4281  -20.8587   -6.9679 C   0  0  0  0  0  0  0  0  0  0  0  0
   25.3551  -21.7082   -6.0523 O   0  0  0  0  0  0  0  0  0  0  0  0
   24.2751  -20.1508   -7.2713 O   0  0  0  0  0  0  0  0  0  0  0  0
  2  1  1  6
  3  2  1  0
  4  3  1  0
  4  5  1  0
  5  6  2  0
  7  2  1  0
  8  7  2  0
  9  5  1  0
 10  7  1  0
 11 10  1  0
 11 14  1  0
 12 13  1  0
 11 12  1  6
 14 21  1  0
 15 14  2  0
 17 16  1  0
 18 20  1  0
 18 17  1  0
 18 19  1  1
 20 22  1  0
 20 21  1  6
 22 23  2  0
 22 24  1  0
M  END
$$$$
