ECI.pdb
     RDKit          3D

 24 23  0  0  1  0  0  0  0  0999 V2000
   21.5439  -11.9953  -18.7696 N   0  0  0  0  0  0  0  0  0  0  0  0
   20.4918  -11.2942  -18.0672 C   0  0  1  0  0  0  0  0  0  0  0  0
   19.6262  -12.3144  -17.3811 C   0  0  0  0  0  0  0  0  0  0  0  0
   19.1359  -13.3853  -18.3051 C   0  0  0  0  0  0  0  0  0  0  0  0
   18.3797  -14.3874  -17.5269 C   0  0  0  0  0  0  0  0  0  0  0  0
   18.1638  -15.5136  -18.0295 O   0  0  0  0  0  0  0  0  0  0  0  0
   21.0801  -10.4273  -17.0036 C   0  0  0  0  0  0  0  0  0  0  0  0
   20.3488   -9.7812  -16.2003 O   0  0  0  0  0  0  0  0  0  0  0  0
   17.8915  -14.1399  -16.2529 O   0  0  0  0  0  0  0  0  0  0  0  0
   22.4723  -10.2727  -16.8255 N   0  0  0  0  0  0  0  0  0  0  0  0
   23.1066   -9.4536  -15.8507 C   0  0  1  0  0  0  0  0  0  0  0  0
   24.5672   -9.7208  -15.6571 C   0  0  0  0  0  0  0  0  0  0  0  0
   24.8382  -11.3811  -14.9765 S   0  0  0  0  0  0  0  0  0  0  0  0
   22.8196   -8.0180  -16.1040 C   0  0  0  0  0  0  0  0  0  0  0  0
   23.0758   -7.5280  -17.2316 O   0  0  0  0  0  0  0  0  0  0  0  0
   19.0904   -3.6979  -16.7246 C   0  0  0  0  0  0  0  0  0  0  0  0
   20.4354   -3.9915  -16.1378 C   0  0  0  0  0  0  0  0  0  0  0  0
   20.6517   -5.4734  -15.9187 C   0  0  2  0  0  0  0  0  0  0  0  0
   19.6374   -6.0380  -14.9386 C   0  0  0  0  0  0  0  0  0  0  0  0
   22.0216   -5.7465  -15.3525 C   0  0  2  0  0  0  0  0  0  0  0  0
   22.2641   -7.1563  -15.1291 N   0  0  0  0  0  0  0  0  0  0  0  0
   22.2883   -4.9577  -14.1235 C   0  0  0  0  0  0  0  0  0  0  0  0
   22.4427   -3.7170  -14.1703 O   0  0  0  0  0  0  0  0  0  0  0  0
   22.3766   -5.5625  -12.8789 O   0  0  0  0  0  0  0  0  0  0  0  0
  2  1  1  1
  3  2  1  0
  4  3  1  0
  4  5  1  0
  5  6  2  0
  7  2  1  0
  8  7  2  0
  9  5  1  0
 10  7  1  0
 11 10  1  0
 11 14  1  0
 12 13  1  0
 11 12  1  6
 14 21  1  0
 15 14  2  0
 17 16  1  0
 18 20  1  0
 18 17  1  0
 18 19  1  1
 20 22  1  0
 20 21  1  1
 22 23  2  0
 22 24  1  0
M  END
$$$$
