ECI.pdb
     RDKit          3D

 24 23  0  0  1  0  0  0  0  0999 V2000
   23.9797  -21.4327  -15.0546 N   0  0  0  0  0  0  0  0  0  0  0  0
   24.9772  -20.4403  -15.3892 C   0  0  1  0  0  0  0  0  0  0  0  0
   26.1403  -21.1435  -16.0321 C   0  0  0  0  0  0  0  0  0  0  0  0
   27.2703  -20.2214  -16.3697 C   0  0  0  0  0  0  0  0  0  0  0  0
   28.1385  -20.8674  -17.3750 C   0  0  0  0  0  0  0  0  0  0  0  0
   28.1058  -20.4625  -18.5592 O   0  0  0  0  0  0  0  0  0  0  0  0
   24.4269  -19.4856  -16.3965 C   0  0  0  0  0  0  0  0  0  0  0  0
   23.7917  -19.8913  -17.4111 O   0  0  0  0  0  0  0  0  0  0  0  0
   28.9977  -21.9116  -17.0687 O   0  0  0  0  0  0  0  0  0  0  0  0
   24.5765  -18.0859  -16.2859 N   0  0  0  0  0  0  0  0  0  0  0  0
   24.0407  -17.1130  -17.1747 C   0  0  1  0  0  0  0  0  0  0  0  0
   22.5565  -17.1799  -17.3616 C   0  0  0  0  0  0  0  0  0  0  0  0
   21.6963  -17.0665  -15.7678 S   0  0  0  0  0  0  0  0  0  0  0  0
   24.5067  -15.7514  -16.8056 C   0  0  0  0  0  0  0  0  0  0  0  0
   24.3506  -15.3448  -15.6276 O   0  0  0  0  0  0  0  0  0  0  0  0
   29.1143  -12.2483  -16.3927 C   0  0  0  0  0  0  0  0  0  0  0  0
   27.6495  -12.2335  -16.6987 C   0  0  0  0  0  0  0  0  0  0  0  0
   27.1084  -13.6210  -16.9684 C   0  0  2  0  0  0  0  0  0  0  0  0
   27.8564  -14.2907  -18.1087 C   0  0  0  0  0  0  0  0  0  0  0  0
   25.6525  -13.5728  -17.3552 C   0  0  2  0  0  0  0  0  0  0  0  0
   25.1275  -14.8710  -17.7227 N   0  0  0  0  0  0  0  0  0  0  0  0
   25.3869  -12.5696  -18.4168 C   0  0  0  0  0  0  0  0  0  0  0  0
   25.1902  -12.9170  -19.6025 O   0  0  0  0  0  0  0  0  0  0  0  0
   25.3463  -11.2120  -18.1373 O   0  0  0  0  0  0  0  0  0  0  0  0
  2  1  1  6
  3  2  1  0
  4  3  1  0
  4  5  1  0
  5  6  2  0
  7  2  1  0
  8  7  2  0
  9  5  1  0
 10  7  1  0
 11 10  1  0
 11 14  1  0
 12 13  1  0
 11 12  1  1
 14 21  1  0
 15 14  2  0
 17 16  1  0
 18 20  1  0
 18 17  1  0
 18 19  1  6
 20 22  1  0
 20 21  1  6
 22 23  2  0
 22 24  1  0
M  END
$$$$
