ECI.pdb
     RDKit          3D

 24 23  0  0  1  0  0  0  0  0999 V2000
   19.3747  -10.9742  -16.7699 N   0  0  0  0  0  0  0  0  0  0  0  0
   18.2265  -10.1848  -16.3819 C   0  0  1  0  0  0  0  0  0  0  0  0
   17.2627  -11.0840  -15.6586 C   0  0  0  0  0  0  0  0  0  0  0  0
   16.8155  -12.2504  -16.4837 C   0  0  0  0  0  0  0  0  0  0  0  0
   15.9282  -13.1067  -15.6708 C   0  0  0  0  0  0  0  0  0  0  0  0
   14.7083  -12.8328  -15.6059 O   0  0  0  0  0  0  0  0  0  0  0  0
   18.6424   -9.1198  -15.4217 C   0  0  0  0  0  0  0  0  0  0  0  0
   17.7944   -8.3622  -14.8698 O   0  0  0  0  0  0  0  0  0  0  0  0
   16.3845  -14.2115  -14.9681 O   0  0  0  0  0  0  0  0  0  0  0  0
   19.9905   -8.8902  -15.0704 N   0  0  0  0  0  0  0  0  0  0  0  0
   20.4602   -7.9278  -14.1340 C   0  0  1  0  0  0  0  0  0  0  0  0
   21.5001   -8.4310  -13.1813 C   0  0  0  0  0  0  0  0  0  0  0  0
   22.0943   -7.0959  -12.1053 S   0  0  0  0  0  0  0  0  0  0  0  0
   20.8787   -6.6819  -14.8268 C   0  0  0  0  0  0  0  0  0  0  0  0
   21.6801   -6.7524  -15.7913 O   0  0  0  0  0  0  0  0  0  0  0  0
   17.8819   -3.0001  -17.0290 C   0  0  0  0  0  0  0  0  0  0  0  0
   19.0405   -3.8555  -16.6220 C   0  0  0  0  0  0  0  0  0  0  0  0
   19.8328   -3.2418  -15.4879 C   0  0  2  0  0  0  0  0  0  0  0  0
   20.4926   -1.9427  -15.9182 C   0  0  0  0  0  0  0  0  0  0  0  0
   20.9277   -4.1679  -15.0240 C   0  0  2  0  0  0  0  0  0  0  0  0
   20.4173   -5.3973  -14.4547 N   0  0  0  0  0  0  0  0  0  0  0  0
   21.8709   -3.4996  -14.0927 C   0  0  0  0  0  0  0  0  0  0  0  0
   22.8558   -2.8561  -14.5186 O   0  0  0  0  0  0  0  0  0  0  0  0
   21.6986   -3.5616  -12.7183 O   0  0  0  0  0  0  0  0  0  0  0  0
  2  1  1  1
  3  2  1  0
  4  3  1  0
  4  5  1  0
  5  6  2  0
  7  2  1  0
  8  7  2  0
  9  5  1  0
 10  7  1  0
 11 10  1  0
 11 14  1  0
 12 13  1  0
 11 12  1  6
 14 21  1  0
 15 14  2  0
 17 16  1  0
 18 20  1  0
 18 17  1  0
 18 19  1  6
 20 22  1  0
 20 21  1  1
 22 23  2  0
 22 24  1  0
M  END
$$$$
