ECI.pdb
     RDKit          3D

 24 23  0  0  1  0  0  0  0  0999 V2000
   21.0337  -20.8839  -11.2395 N   0  0  0  0  0  0  0  0  0  0  0  0
   21.5030  -21.1769  -12.5759 C   0  0  1  0  0  0  0  0  0  0  0  0
   20.5086  -20.6170  -13.5548 C   0  0  0  0  0  0  0  0  0  0  0  0
   19.8355  -21.6721  -14.3764 C   0  0  0  0  0  0  0  0  0  0  0  0
   18.5916  -22.0924  -13.6998 C   0  0  0  0  0  0  0  0  0  0  0  0
   17.5393  -21.4448  -13.9010 O   0  0  0  0  0  0  0  0  0  0  0  0
   22.8027  -20.4845  -12.8218 C   0  0  0  0  0  0  0  0  0  0  0  0
   23.0035  -19.3003  -12.4281 O   0  0  0  0  0  0  0  0  0  0  0  0
   18.5311  -23.1811  -12.8432 O   0  0  0  0  0  0  0  0  0  0  0  0
   23.8792  -21.0961  -13.5006 N   0  0  0  0  0  0  0  0  0  0  0  0
   25.1878  -20.5593  -13.6519 C   0  0  1  0  0  0  0  0  0  0  0  0
   26.2978  -21.5526  -13.4988 C   0  0  0  0  0  0  0  0  0  0  0  0
   27.9098  -20.7208  -13.4449 S   0  0  0  0  0  0  0  0  0  0  0  0
   25.2928  -19.7787  -14.9116 C   0  0  0  0  0  0  0  0  0  0  0  0
   24.7055  -20.1906  -15.9426 O   0  0  0  0  0  0  0  0  0  0  0  0
   25.9166  -14.1076  -17.0774 C   0  0  0  0  0  0  0  0  0  0  0  0
   26.3420  -15.5313  -17.2558 C   0  0  0  0  0  0  0  0  0  0  0  0
   26.2640  -16.3167  -15.9644 C   0  0  2  0  0  0  0  0  0  0  0  0
   27.5233  -16.1356  -15.1340 C   0  0  0  0  0  0  0  0  0  0  0  0
   26.1125  -17.7922  -16.2320 C   0  0  2  0  0  0  0  0  0  0  0  0
   26.0301  -18.5759  -15.0174 N   0  0  0  0  0  0  0  0  0  0  0  0
   27.1735  -18.3113  -17.1313 C   0  0  0  0  0  0  0  0  0  0  0  0
   27.0513  -18.2598  -18.3754 O   0  0  0  0  0  0  0  0  0  0  0  0
   28.3384  -18.8718  -16.6299 O   0  0  0  0  0  0  0  0  0  0  0  0
  2  1  1  1
  3  2  1  0
  4  3  1  0
  4  5  1  0
  5  6  2  0
  7  2  1  0
  8  7  2  0
  9  5  1  0
 10  7  1  0
 11 10  1  0
 11 14  1  0
 12 13  1  0
 11 12  1  6
 14 21  1  0
 15 14  2  0
 17 16  1  0
 18 20  1  0
 18 17  1  0
 18 19  1  6
 20 22  1  0
 20 21  1  1
 22 23  2  0
 22 24  1  0
M  END
$$$$
