ECI.pdb
     RDKit          3D

 24 23  0  0  1  0  0  0  0  0999 V2000
   19.0073   -9.5410  -15.1993 N   0  0  0  0  0  0  0  0  0  0  0  0
   18.0120   -9.7755  -14.1764 C   0  0  1  0  0  0  0  0  0  0  0  0
   18.0930  -11.2198  -13.7664 C   0  0  0  0  0  0  0  0  0  0  0  0
   16.9353  -12.0343  -14.2537 C   0  0  0  0  0  0  0  0  0  0  0  0
   17.2393  -12.5483  -15.6046 C   0  0  0  0  0  0  0  0  0  0  0  0
   18.3333  -13.1227  -15.8065 O   0  0  0  0  0  0  0  0  0  0  0  0
   18.3216   -8.9554  -12.9679 C   0  0  0  0  0  0  0  0  0  0  0  0
   19.5019   -8.8487  -12.5284 O   0  0  0  0  0  0  0  0  0  0  0  0
   16.3633  -12.4249  -16.6722 O   0  0  0  0  0  0  0  0  0  0  0  0
   17.3321   -8.2540  -12.2449 N   0  0  0  0  0  0  0  0  0  0  0  0
   17.5610   -7.3590  -11.1633 C   0  0  1  0  0  0  0  0  0  0  0  0
   18.5942   -6.3070  -11.4239 C   0  0  0  0  0  0  0  0  0  0  0  0
   18.0486   -5.1716  -12.7302 S   0  0  0  0  0  0  0  0  0  0  0  0
   16.2796   -6.7887  -10.6734 C   0  0  0  0  0  0  0  0  0  0  0  0
   15.4434   -6.3505  -11.5018 O   0  0  0  0  0  0  0  0  0  0  0  0
   11.7081   -7.6061   -7.6425 C   0  0  0  0  0  0  0  0  0  0  0  0
   12.7934   -6.6808   -7.1891 C   0  0  0  0  0  0  0  0  0  0  0  0
   14.1604   -7.1312   -7.6575 C   0  0  2  0  0  0  0  0  0  0  0  0
   15.1928   -6.9955   -6.5511 C   0  0  0  0  0  0  0  0  0  0  0  0
   14.6390   -6.3011   -8.8209 C   0  0  2  0  0  0  0  0  0  0  0  0
   15.9419   -6.7098   -9.3018 N   0  0  0  0  0  0  0  0  0  0  0  0
   14.6123   -4.8473   -8.5214 C   0  0  0  0  0  0  0  0  0  0  0  0
   13.5320   -4.2208   -8.4450 O   0  0  0  0  0  0  0  0  0  0  0  0
   15.7798   -4.1283   -8.3152 O   0  0  0  0  0  0  0  0  0  0  0  0
  2  1  1  6
  3  2  1  0
  4  3  1  0
  4  5  1  0
  5  6  2  0
  7  2  1  0
  8  7  2  0
  9  5  1  0
 10  7  1  0
 11 10  1  0
 11 14  1  0
 12 13  1  0
 11 12  1  6
 14 21  1  0
 15 14  2  0
 17 16  1  0
 18 20  1  0
 18 17  1  0
 18 19  1  1
 20 22  1  0
 20 21  1  1
 22 23  2  0
 22 24  1  0
M  END
$$$$
