TAI.pdb
     RDKit          3D

 21 20  0  0  1  0  0  0  0  0999 V2000
   17.4390  -15.6916  -18.7761 C   0  0  0  0  0  0  0  0  0  0  0  0
   18.6884  -14.8519  -18.4810 C   0  0  1  0  0  0  0  0  0  0  0  0
   19.6683  -15.1237  -19.4480 O   0  0  0  0  0  0  0  0  0  0  0  0
   18.2981  -13.4051  -18.6105 C   0  0  2  0  0  0  0  0  0  0  0  0
   18.1372  -13.1157  -20.0366 N   0  0  0  0  0  0  0  0  0  0  0  0
   19.4367  -12.5774  -18.0692 C   0  0  0  0  0  0  0  0  0  0  0  0
   19.8405  -12.6419  -16.8869 O   0  0  0  0  0  0  0  0  0  0  0  0
   21.5370   -9.8325  -19.5186 C   0  0  0  0  0  0  0  0  0  0  0  0
   21.1556  -10.8043  -18.4296 C   0  0  2  0  0  0  0  0  0  0  0  0
   20.1173  -11.6553  -18.9165 N   0  0  0  0  0  0  0  0  0  0  0  0
   20.6907  -10.0268  -17.2164 C   0  0  0  0  0  0  0  0  0  0  0  0
   19.4770   -9.7544  -17.0382 O   0  0  0  0  0  0  0  0  0  0  0  0
   19.5940   -9.3290  -12.1972 C   0  0  0  0  0  0  0  0  0  0  0  0
   21.0001   -8.9330  -12.5712 C   0  0  0  0  0  0  0  0  0  0  0  0
   21.4861   -9.6976  -13.7992 C   0  0  2  0  0  0  0  0  0  0  0  0
   22.9781   -9.8815  -13.6717 C   0  0  0  0  0  0  0  0  0  0  0  0
   21.2046   -8.8759  -15.0344 C   0  0  2  0  0  0  0  0  0  0  0  0
   21.6158   -9.5804  -16.2394 N   0  0  0  0  0  0  0  0  0  0  0  0
   21.8692   -7.5404  -14.9566 C   0  0  0  0  0  0  0  0  0  0  0  0
   21.4982   -6.6887  -14.1136 O   0  0  0  0  0  0  0  0  0  0  0  0
   22.9101   -7.1699  -15.7895 O   0  0  0  0  0  0  0  0  0  0  0  0
  2  1  1  6
  2  4  1  0
  3  2  1  0
  4  5  1  6
  6  4  1  0
  6 10  1  0
  7  6  2  0
  9 10  1  0
  9  8  1  6
 11  9  1  0
 12 11  2  0
 13 14  1  0
 14 15  1  0
 15 16  1  1
 17 15  1  0
 17 18  1  6
 18 11  1  0
 19 17  1  0
 20 19  2  0
 21 19  1  0
M  END
$$$$
