TAI.pdb
     RDKit          3D

 21 20  0  0  1  0  0  0  0  0999 V2000
   14.7799  -12.0512  -19.3630 C   0  0  0  0  0  0  0  0  0  0  0  0
   16.0486  -11.4162  -18.7797 C   0  0  1  0  0  0  0  0  0  0  0  0
   16.4623  -12.1528  -17.6593 O   0  0  0  0  0  0  0  0  0  0  0  0
   17.1245  -11.5200  -19.8257 C   0  0  2  0  0  0  0  0  0  0  0  0
   17.3563  -12.9424  -20.0831 N   0  0  0  0  0  0  0  0  0  0  0  0
   18.3800  -10.9170  -19.2472 C   0  0  0  0  0  0  0  0  0  0  0  0
   19.1811  -11.5463  -18.5212 O   0  0  0  0  0  0  0  0  0  0  0  0
   20.0897   -7.6199  -19.7297 C   0  0  0  0  0  0  0  0  0  0  0  0
   19.9465   -8.9802  -19.0934 C   0  0  2  0  0  0  0  0  0  0  0  0
   18.7096   -9.5564  -19.5149 N   0  0  0  0  0  0  0  0  0  0  0  0
   19.9838   -8.8260  -17.5877 C   0  0  0  0  0  0  0  0  0  0  0  0
   18.9299   -8.6949  -16.9160 O   0  0  0  0  0  0  0  0  0  0  0  0
   23.6837  -11.5833  -14.8750 C   0  0  0  0  0  0  0  0  0  0  0  0
   22.4300  -10.8472  -15.2754 C   0  0  0  0  0  0  0  0  0  0  0  0
   22.4966   -9.3759  -14.8760 C   0  0  2  0  0  0  0  0  0  0  0  0
   22.4377   -9.2999  -13.3704 C   0  0  0  0  0  0  0  0  0  0  0  0
   21.2961   -8.6566  -15.4431 C   0  0  2  0  0  0  0  0  0  0  0  0
   21.2157   -8.8250  -16.8863 N   0  0  0  0  0  0  0  0  0  0  0  0
   21.3180   -7.2064  -15.0860 C   0  0  0  0  0  0  0  0  0  0  0  0
   21.8574   -6.3675  -15.8470 O   0  0  0  0  0  0  0  0  0  0  0  0
   20.7576   -6.7110  -13.9219 O   0  0  0  0  0  0  0  0  0  0  0  0
  2  1  1  6
  2  4  1  0
  3  2  1  0
  4  5  1  1
  6  4  1  0
  6 10  1  0
  7  6  2  0
  9 10  1  0
  9  8  1  6
 11  9  1  0
 12 11  2  0
 13 14  1  0
 14 15  1  0
 15 16  1  1
 17 15  1  0
 17 18  1  6
 18 11  1  0
 19 17  1  0
 20 19  2  0
 21 19  1  0
M  END
$$$$
