TAI.pdb
     RDKit          3D

 21 20  0  0  1  0  0  0  0  0999 V2000
   19.1895  -25.5167   -7.2260 C   0  0  0  0  0  0  0  0  0  0  0  0
   19.6304  -24.3404   -8.1063 C   0  0  1  0  0  0  0  0  0  0  0  0
   18.7927  -24.2627   -9.2294 O   0  0  0  0  0  0  0  0  0  0  0  0
   19.4448  -23.0831   -7.3018 C   0  0  2  0  0  0  0  0  0  0  0  0
   18.0063  -22.8858   -7.1140 N   0  0  0  0  0  0  0  0  0  0  0  0
   19.9930  -21.9380   -8.1159 C   0  0  0  0  0  0  0  0  0  0  0  0
   19.2775  -21.1425   -8.7641 O   0  0  0  0  0  0  0  0  0  0  0  0
   23.4617  -20.6914   -8.8130 C   0  0  0  0  0  0  0  0  0  0  0  0
   21.9688  -20.7162   -9.0281 C   0  0  2  0  0  0  0  0  0  0  0  0
   21.3992  -21.7144   -8.1804 N   0  0  0  0  0  0  0  0  0  0  0  0
   21.6861  -21.0204  -10.4841 C   0  0  0  0  0  0  0  0  0  0  0  0
   21.5200  -22.1990  -10.8872 O   0  0  0  0  0  0  0  0  0  0  0  0
   18.1895  -20.1947  -14.9955 C   0  0  0  0  0  0  0  0  0  0  0  0
   19.6544  -20.0335  -14.6760 C   0  0  0  0  0  0  0  0  0  0  0  0
   19.8808  -19.8498  -13.1781 C   0  0  2  0  0  0  0  0  0  0  0  0
   19.6796  -18.3902  -12.8533 C   0  0  0  0  0  0  0  0  0  0  0  0
   21.3045  -20.2268  -12.8452 C   0  0  2  0  0  0  0  0  0  0  0  0
   21.5996  -19.9790  -11.4420 N   0  0  0  0  0  0  0  0  0  0  0  0
   22.2733  -19.5004  -13.7198 C   0  0  0  0  0  0  0  0  0  0  0  0
   22.3287  -19.7388  -14.9502 O   0  0  0  0  0  0  0  0  0  0  0  0
   23.1480  -18.5426  -13.2381 O   0  0  0  0  0  0  0  0  0  0  0  0
  2  1  1  1
  2  4  1  0
  3  2  1  0
  4  5  1  6
  6  4  1  0
  6 10  1  0
  7  6  2  0
  9 10  1  0
  9  8  1  6
 11  9  1  0
 12 11  2  0
 13 14  1  0
 14 15  1  0
 15 16  1  6
 17 15  1  0
 17 18  1  1
 18 11  1  0
 19 17  1  0
 20 19  2  0
 21 19  1  0
M  END
$$$$
