TAI.pdb
     RDKit          3D

 21 20  0  0  1  0  0  0  0  0999 V2000
   19.9074  -12.1632  -20.4664 C   0  0  0  0  0  0  0  0  0  0  0  0
   20.4041  -11.3004  -19.2994 C   0  0  1  0  0  0  0  0  0  0  0  0
   19.4300  -10.3404  -18.9857 O   0  0  0  0  0  0  0  0  0  0  0  0
   20.5640  -12.2049  -18.1084 C   0  0  2  0  0  0  0  0  0  0  0  0
   19.2513  -12.7805  -17.8099 N   0  0  0  0  0  0  0  0  0  0  0  0
   20.9991  -11.3504  -16.9443 C   0  0  0  0  0  0  0  0  0  0  0  0
   20.2151  -10.6496  -16.2669 O   0  0  0  0  0  0  0  0  0  0  0  0
   24.2890  -10.7836  -15.2391 C   0  0  0  0  0  0  0  0  0  0  0  0
   22.8341  -10.4778  -15.4953 C   0  0  2  0  0  0  0  0  0  0  0  0
   22.3715  -11.3071  -16.5618 N   0  0  0  0  0  0  0  0  0  0  0  0
   22.6942   -9.0130  -15.8520 C   0  0  0  0  0  0  0  0  0  0  0  0
   22.9662   -8.5900  -17.0036 O   0  0  0  0  0  0  0  0  0  0  0  0
   19.2436   -4.6767  -16.8835 C   0  0  0  0  0  0  0  0  0  0  0  0
   20.5112   -4.9490  -16.1134 C   0  0  0  0  0  0  0  0  0  0  0  0
   20.7099   -6.4437  -15.8784 C   0  0  2  0  0  0  0  0  0  0  0  0
   19.6210   -6.9164  -14.9472 C   0  0  0  0  0  0  0  0  0  0  0  0
   22.0460   -6.6640  -15.2103 C   0  0  2  0  0  0  0  0  0  0  0  0
   22.2494   -8.0693  -14.8923 N   0  0  0  0  0  0  0  0  0  0  0  0
   22.1795   -5.8249  -13.9817 C   0  0  0  0  0  0  0  0  0  0  0  0
   21.9940   -6.3207  -12.8444 O   0  0  0  0  0  0  0  0  0  0  0  0
   22.5085   -4.4815  -14.0218 O   0  0  0  0  0  0  0  0  0  0  0  0
  2  1  1  6
  2  4  1  0
  3  2  1  0
  4  5  1  1
  6  4  1  0
  6 10  1  0
  7  6  2  0
  9 10  1  0
  9  8  1  6
 11  9  1  0
 12 11  2  0
 13 14  1  0
 14 15  1  0
 15 16  1  1
 17 15  1  0
 17 18  1  1
 18 11  1  0
 19 17  1  0
 20 19  2  0
 21 19  1  0
M  END
$$$$
