TAI.pdb
     RDKit          3D

 21 20  0  0  1  0  0  0  0  0999 V2000
   16.6548  -10.1929  -19.6011 C   0  0  0  0  0  0  0  0  0  0  0  0
   17.3817  -10.0021  -18.2639 C   0  0  1  0  0  0  0  0  0  0  0  0
   17.4848  -11.2403  -17.6118 O   0  0  0  0  0  0  0  0  0  0  0  0
   18.7738   -9.5240  -18.5736 C   0  0  2  0  0  0  0  0  0  0  0  0
   19.4856  -10.6252  -19.2247 N   0  0  0  0  0  0  0  0  0  0  0  0
   19.4495   -9.2130  -17.2617 C   0  0  0  0  0  0  0  0  0  0  0  0
   19.0053   -8.3907  -16.4303 O   0  0  0  0  0  0  0  0  0  0  0  0
   22.6937  -10.3082  -15.7293 C   0  0  0  0  0  0  0  0  0  0  0  0
   21.4460   -9.4620  -15.7850 C   0  0  2  0  0  0  0  0  0  0  0  0
   20.6658   -9.8677  -16.9102 N   0  0  0  0  0  0  0  0  0  0  0  0
   21.8436   -8.0057  -15.9019 C   0  0  0  0  0  0  0  0  0  0  0  0
   22.2960   -7.5339  -16.9751 O   0  0  0  0  0  0  0  0  0  0  0  0
   20.5460   -2.6478  -16.5526 C   0  0  0  0  0  0  0  0  0  0  0  0
   21.4568   -3.4608  -15.6675 C   0  0  0  0  0  0  0  0  0  0  0  0
   21.0518   -4.9320  -15.6533 C   0  0  2  0  0  0  0  0  0  0  0  0
   19.7218   -5.0410  -14.9494 C   0  0  0  0  0  0  0  0  0  0  0  0
   22.0774   -5.7178  -14.8720 C   0  0  2  0  0  0  0  0  0  0  0  0
   21.7166   -7.1255  -14.7979 N   0  0  0  0  0  0  0  0  0  0  0  0
   22.2610   -5.1520  -13.5017 C   0  0  0  0  0  0  0  0  0  0  0  0
   22.7508   -4.0082  -13.3415 O   0  0  0  0  0  0  0  0  0  0  0  0
   21.9100   -5.8381  -12.3527 O   0  0  0  0  0  0  0  0  0  0  0  0
  2  1  1  6
  2  4  1  0
  3  2  1  0
  4  5  1  1
  6  4  1  0
  6 10  1  0
  7  6  2  0
  9 10  1  0
  9  8  1  6
 11  9  1  0
 12 11  2  0
 13 14  1  0
 14 15  1  0
 15 16  1  1
 17 15  1  0
 17 18  1  1
 18 11  1  0
 19 17  1  0
 20 19  2  0
 21 19  1  0
M  END
$$$$
