TAI.pdb
     RDKit          3D

 21 20  0  0  1  0  0  0  0  0999 V2000
   19.4395   -9.9956  -18.5771 C   0  0  0  0  0  0  0  0  0  0  0  0
   18.6681  -11.1479  -17.9213 C   0  0  1  0  0  0  0  0  0  0  0  0
   18.0893  -11.9457  -18.9201 O   0  0  0  0  0  0  0  0  0  0  0  0
   19.6669  -11.9903  -17.1761 C   0  0  2  0  0  0  0  0  0  0  0  0
   18.9532  -13.1481  -16.6342 N   0  0  0  0  0  0  0  0  0  0  0  0
   20.1953  -11.1623  -16.0316 C   0  0  0  0  0  0  0  0  0  0  0  0
   19.4645  -10.5270  -15.2396 O   0  0  0  0  0  0  0  0  0  0  0  0
   23.5874  -10.5566  -14.5856 C   0  0  0  0  0  0  0  0  0  0  0  0
   22.1518  -10.1703  -14.8414 C   0  0  2  0  0  0  0  0  0  0  0  0
   21.5992  -11.0682  -15.8047 N   0  0  0  0  0  0  0  0  0  0  0  0
   22.1083   -8.7439  -15.3472 C   0  0  0  0  0  0  0  0  0  0  0  0
   22.4289   -8.4571  -16.5280 O   0  0  0  0  0  0  0  0  0  0  0  0
   18.3204   -6.0711  -16.6935 C   0  0  0  0  0  0  0  0  0  0  0  0
   19.7490   -6.4762  -16.4309 C   0  0  0  0  0  0  0  0  0  0  0  0
   20.2992   -5.7976  -15.1797 C   0  0  2  0  0  0  0  0  0  0  0  0
   20.3503   -4.3125  -15.4408 C   0  0  0  0  0  0  0  0  0  0  0  0
   21.7034   -6.2922  -14.9281 C   0  0  2  0  0  0  0  0  0  0  0  0
   21.7022   -7.6828  -14.4994 N   0  0  0  0  0  0  0  0  0  0  0  0
   22.4051   -5.4362  -13.9250 C   0  0  0  0  0  0  0  0  0  0  0  0
   22.3064   -5.6761  -12.6976 O   0  0  0  0  0  0  0  0  0  0  0  0
   23.1887   -4.3524  -14.2797 O   0  0  0  0  0  0  0  0  0  0  0  0
  2  1  1  6
  2  4  1  0
  3  2  1  0
  4  5  1  1
  6  4  1  0
  6 10  1  0
  7  6  2  0
  9 10  1  0
  9  8  1  6
 11  9  1  0
 12 11  2  0
 13 14  1  0
 14 15  1  0
 15 16  1  6
 17 15  1  0
 17 18  1  1
 18 11  1  0
 19 17  1  0
 20 19  2  0
 21 19  1  0
M  END
$$$$
