TAI.pdb
     RDKit          3D

 21 20  0  0  1  0  0  0  0  0999 V2000
   20.6914  -16.4158  -18.6168 C   0  0  0  0  0  0  0  0  0  0  0  0
   21.1219  -15.4915  -17.4707 C   0  0  1  0  0  0  0  0  0  0  0  0
   22.2082  -16.0673  -16.7944 O   0  0  0  0  0  0  0  0  0  0  0  0
   21.5900  -14.2012  -18.0858 C   0  0  2  0  0  0  0  0  0  0  0  0
   22.8261  -14.4825  -18.8182 N   0  0  0  0  0  0  0  0  0  0  0  0
   21.8956  -13.2458  -16.9597 C   0  0  0  0  0  0  0  0  0  0  0  0
   21.0370  -12.8294  -16.1509 O   0  0  0  0  0  0  0  0  0  0  0  0
   25.0207  -11.5157  -15.8148 C   0  0  0  0  0  0  0  0  0  0  0  0
   23.5284  -11.7363  -15.8264 C   0  0  2  0  0  0  0  0  0  0  0  0
   23.2233  -12.7629  -16.7713 N   0  0  0  0  0  0  0  0  0  0  0  0
   22.8417  -10.4394  -16.1992 C   0  0  0  0  0  0  0  0  0  0  0  0
   22.7695  -10.0559  -17.3937 O   0  0  0  0  0  0  0  0  0  0  0  0
   18.3119   -7.5052  -17.3271 C   0  0  0  0  0  0  0  0  0  0  0  0
   19.5777   -7.3067  -16.5319 C   0  0  0  0  0  0  0  0  0  0  0  0
   20.2595   -8.6379  -16.2290 C   0  0  2  0  0  0  0  0  0  0  0  0
   19.3625   -9.4188  -15.3006 C   0  0  0  0  0  0  0  0  0  0  0  0
   21.5686   -8.3719  -15.5251 C   0  0  2  0  0  0  0  0  0  0  0  0
   22.2562   -9.6141  -15.2065 N   0  0  0  0  0  0  0  0  0  0  0  0
   21.3612   -7.5572  -14.2904 C   0  0  0  0  0  0  0  0  0  0  0  0
   21.0098   -6.3554  -14.3677 O   0  0  0  0  0  0  0  0  0  0  0  0
   21.5391   -8.0661  -13.0161 O   0  0  0  0  0  0  0  0  0  0  0  0
  2  1  1  6
  2  4  1  0
  3  2  1  0
  4  5  1  1
  6  4  1  0
  6 10  1  0
  7  6  2  0
  9 10  1  0
  9  8  1  6
 11  9  1  0
 12 11  2  0
 13 14  1  0
 14 15  1  0
 15 16  1  1
 17 15  1  0
 17 18  1  1
 18 11  1  0
 19 17  1  0
 20 19  2  0
 21 19  1  0
M  END
$$$$
