AFP.pdb
     RDKit          3D

 24 25  0  0  1  0  0  0  0  0999 V2000
    6.6008  -20.5738   22.6864 C   0  0  0  0  0  0  0  0  0  0  0  0
    5.5795  -20.0102   23.6653 C   0  0  2  0  0  0  0  0  0  0  0  0
    4.2609  -20.4680   23.2454 N   0  0  0  0  0  0  0  0  0  0  0  0
    5.6809  -18.5281   23.5989 C   0  0  0  0  0  0  0  0  0  0  0  0
    4.9212  -17.9415   22.8058 O   0  0  0  0  0  0  0  0  0  0  0  0
    6.5729  -17.7923   24.3725 N   0  0  0  0  0  0  0  0  0  0  0  0
    6.6813  -16.3022   24.3104 C   0  0  1  0  0  0  0  0  0  0  0  0
    6.9782  -15.9571   25.7509 C   0  0  0  0  0  0  0  0  0  0  0  0
    7.0634  -14.5687   26.1213 C   0  0  0  0  0  0  0  0  0  0  0  0
    8.2657  -13.9420   26.3329 C   0  0  0  0  0  0  0  0  0  0  0  0
    8.3361  -12.5949   26.6944 C   0  0  0  0  0  0  0  0  0  0  0  0
    7.1864  -11.8579   26.8482 C   0  0  0  0  0  0  0  0  0  0  0  0
    5.9592  -12.4677   26.6400 C   0  0  0  0  0  0  0  0  0  0  0  0
    5.9056  -13.8008   26.2828 C   0  0  0  0  0  0  0  0  0  0  0  0
    7.8409  -16.0600   23.4368 C   0  0  0  0  0  0  0  0  0  0  0  0
    8.9180  -16.7437   23.5996 O   0  0  0  0  0  0  0  0  0  0  0  0
    7.8773  -15.1052   22.3859 N   0  0  0  0  0  0  0  0  0  0  0  0
    6.7707  -14.2848   22.0191 C   0  0  0  0  0  0  0  0  0  0  0  0
    7.4263  -13.0517   21.4397 C   0  0  0  0  0  0  0  0  0  0  0  0
    8.7357  -13.5388   20.8765 C   0  0  0  0  0  0  0  0  0  0  0  0
    8.9555  -14.9018   21.4950 C   0  0  1  0  0  0  0  0  0  0  0  0
   10.3131  -14.9550   22.1108 C   0  0  0  0  0  0  0  0  0  0  0  0
   10.5709  -14.8761   23.4587 O   0  0  0  0  0  0  0  0  0  0  0  0
   11.2796  -15.0816   21.2832 O   0  0  0  0  0  0  0  0  0  0  0  0
  2  1  1  6
  2  4  1  0
  2  3  1  0
  4  5  2  0
  6  7  1  0
  6  4  1  0
  7 15  1  0
  8  9  1  0
  7  8  1  1
  9 10  2  0
 10 11  1  0
 12 11  2  0
 13 12  1  0
 14 13  2  0
 14  9  1  0
 15 17  1  0
 15 16  2  0
 17 21  1  0
 18 17  1  0
 19 20  1  0
 19 18  1  0
 20 21  1  0
 21 22  1  1
 22 24  2  0
 22 23  1  0
M  END
$$$$
