AFP.pdb
     RDKit          3D

 24 25  0  0  1  0  0  0  0  0999 V2000
   11.4459  -18.5527   21.9971 C   0  0  0  0  0  0  0  0  0  0  0  0
   10.7372  -17.3647   21.3605 C   0  0  2  0  0  0  0  0  0  0  0  0
   11.5822  -16.8684   20.2816 N   0  0  0  0  0  0  0  0  0  0  0  0
   10.5624  -16.3387   22.4226 C   0  0  0  0  0  0  0  0  0  0  0  0
   11.4539  -15.4763   22.5319 O   0  0  0  0  0  0  0  0  0  0  0  0
    9.4650  -16.3093   23.2773 N   0  0  0  0  0  0  0  0  0  0  0  0
    9.2392  -15.2328   24.2902 C   0  0  1  0  0  0  0  0  0  0  0  0
    7.7503  -15.0073   24.1699 C   0  0  0  0  0  0  0  0  0  0  0  0
    7.1295  -14.0400   25.0365 C   0  0  0  0  0  0  0  0  0  0  0  0
    7.3311  -12.6908   24.8877 C   0  0  0  0  0  0  0  0  0  0  0  0
    6.7254  -11.7615   25.7362 C   0  0  0  0  0  0  0  0  0  0  0  0
    5.9030  -12.1847   26.7527 C   0  0  0  0  0  0  0  0  0  0  0  0
    5.6831  -13.5424   26.9239 C   0  0  0  0  0  0  0  0  0  0  0  0
    6.2890  -14.4494   26.0769 C   0  0  0  0  0  0  0  0  0  0  0  0
    9.5983  -15.8611   25.5720 C   0  0  0  0  0  0  0  0  0  0  0  0
    9.4385  -17.1273   25.7303 O   0  0  0  0  0  0  0  0  0  0  0  0
   10.1308  -15.1685   26.6918 N   0  0  0  0  0  0  0  0  0  0  0  0
   10.4215  -13.7729   26.6983 C   0  0  0  0  0  0  0  0  0  0  0  0
   10.2642  -13.3896   28.1524 C   0  0  0  0  0  0  0  0  0  0  0  0
   10.6029  -14.6403   28.9205 C   0  0  0  0  0  0  0  0  0  0  0  0
   10.5440  -15.7614   27.9065 C   0  0  1  0  0  0  0  0  0  0  0  0
    9.6624  -16.8497   28.4196 C   0  0  0  0  0  0  0  0  0  0  0  0
    8.3838  -17.1009   27.9816 O   0  0  0  0  0  0  0  0  0  0  0  0
   10.1763  -17.5768   29.3373 O   0  0  0  0  0  0  0  0  0  0  0  0
  2  1  1  1
  2  4  1  0
  2  3  1  0
  4  5  2  0
  6  7  1  0
  6  4  1  0
  7 15  1  0
  8  9  1  0
  7  8  1  1
  9 10  2  0
 10 11  1  0
 12 11  2  0
 13 12  1  0
 14 13  2  0
 14  9  1  0
 15 17  1  0
 15 16  2  0
 17 21  1  0
 18 17  1  0
 19 20  1  0
 19 18  1  0
 20 21  1  0
 21 22  1  1
 22 24  2  0
 22 23  1  0
M  END
$$$$
