AFP.pdb
     RDKit          3D

 24 25  0  0  1  0  0  0  0  0999 V2000
    6.6889  -20.6936   22.9863 C   0  0  0  0  0  0  0  0  0  0  0  0
    5.5311  -20.0635   23.7487 C   0  0  2  0  0  0  0  0  0  0  0  0
    4.2924  -20.4951   23.1133 N   0  0  0  0  0  0  0  0  0  0  0  0
    5.6975  -18.5886   23.6570 C   0  0  0  0  0  0  0  0  0  0  0  0
    5.1120  -18.0076   22.7242 O   0  0  0  0  0  0  0  0  0  0  0  0
    6.4654  -17.8534   24.5543 N   0  0  0  0  0  0  0  0  0  0  0  0
    6.6152  -16.3673   24.4847 C   0  0  1  0  0  0  0  0  0  0  0  0
    6.8452  -16.0149   25.9356 C   0  0  0  0  0  0  0  0  0  0  0  0
    6.9618  -14.6261   26.2953 C   0  0  0  0  0  0  0  0  0  0  0  0
    8.1767  -14.0316   26.5276 C   0  0  0  0  0  0  0  0  0  0  0  0
    8.2776  -12.6836   26.8784 C   0  0  0  0  0  0  0  0  0  0  0  0
    7.1462  -11.9130   27.0003 C   0  0  0  0  0  0  0  0  0  0  0  0
    5.9070  -12.4899   26.7707 C   0  0  0  0  0  0  0  0  0  0  0  0
    5.8232  -13.8242   26.4245 C   0  0  0  0  0  0  0  0  0  0  0  0
    7.8247  -16.1633   23.6710 C   0  0  0  0  0  0  0  0  0  0  0  0
    8.8651  -16.8902   23.8787 O   0  0  0  0  0  0  0  0  0  0  0  0
    7.9495  -15.2017   22.6332 N   0  0  0  0  0  0  0  0  0  0  0  0
    6.8804  -14.3711   22.1868 C   0  0  0  0  0  0  0  0  0  0  0  0
    7.5873  -13.1387   21.6696 C   0  0  0  0  0  0  0  0  0  0  0  0
    8.9337  -13.6310   21.2073 C   0  0  0  0  0  0  0  0  0  0  0  0
    9.0956  -14.9997   21.8311 C   0  0  1  0  0  0  0  0  0  0  0  0
   10.4003  -15.0666   22.5510 C   0  0  0  0  0  0  0  0  0  0  0  0
   11.6259  -15.2227   21.9485 O   0  0  0  0  0  0  0  0  0  0  0  0
   10.3232  -14.9694   23.8237 O   0  0  0  0  0  0  0  0  0  0  0  0
  2  1  1  6
  2  4  1  0
  2  3  1  0
  4  5  2  0
  6  7  1  0
  6  4  1  0
  7 15  1  0
  8  9  1  0
  7  8  1  1
  9 10  2  0
 10 11  1  0
 12 11  2  0
 13 12  1  0
 14 13  2  0
 14  9  1  0
 15 17  1  0
 15 16  2  0
 17 21  1  0
 18 17  1  0
 19 20  1  0
 19 18  1  0
 20 21  1  0
 21 22  1  1
 22 24  2  0
 22 23  1  0
M  END
$$$$
