AFP.pdb
     RDKit          3D

 24 25  0  0  1  0  0  0  0  0999 V2000
    6.4275  -20.6346   22.5545 C   0  0  0  0  0  0  0  0  0  0  0  0
    5.5794  -19.3764   22.4252 C   0  0  2  0  0  0  0  0  0  0  0  0
    5.1207  -19.2889   21.0445 N   0  0  0  0  0  0  0  0  0  0  0  0
    6.4500  -18.2234   22.7772 C   0  0  0  0  0  0  0  0  0  0  0  0
    7.1655  -17.7545   21.8723 O   0  0  0  0  0  0  0  0  0  0  0  0
    6.4923  -17.6642   24.0504 N   0  0  0  0  0  0  0  0  0  0  0  0
    7.2632  -16.4262   24.3803 C   0  0  1  0  0  0  0  0  0  0  0  0
    6.4747  -15.8767   25.5459 C   0  0  0  0  0  0  0  0  0  0  0  0
    6.8175  -14.5745   26.0546 C   0  0  0  0  0  0  0  0  0  0  0  0
    6.1068  -13.4495   25.7194 C   0  0  0  0  0  0  0  0  0  0  0  0
    6.4502  -12.1906   26.2173 C   0  0  0  0  0  0  0  0  0  0  0  0
    7.5225  -12.0499   27.0653 C   0  0  0  0  0  0  0  0  0  0  0  0
    8.2565  -13.1711   27.4193 C   0  0  0  0  0  0  0  0  0  0  0  0
    7.9047  -14.4094   26.9189 C   0  0  0  0  0  0  0  0  0  0  0  0
    8.5849  -16.9231   24.7962 C   0  0  0  0  0  0  0  0  0  0  0  0
    8.6749  -17.7748   25.7555 O   0  0  0  0  0  0  0  0  0  0  0  0
    9.8176  -16.5350   24.2070 N   0  0  0  0  0  0  0  0  0  0  0  0
    9.9203  -15.8062   22.9862 C   0  0  0  0  0  0  0  0  0  0  0  0
   11.2236  -15.0546   23.1360 C   0  0  0  0  0  0  0  0  0  0  0  0
   12.0673  -15.9196   24.0356 C   0  0  0  0  0  0  0  0  0  0  0  0
   11.1025  -16.8950   24.6732 C   0  0  1  0  0  0  0  0  0  0  0  0
   11.2762  -16.8692   26.1544 C   0  0  0  0  0  0  0  0  0  0  0  0
   12.3647  -17.3685   26.8292 O   0  0  0  0  0  0  0  0  0  0  0  0
   10.3132  -16.3350   26.8043 O   0  0  0  0  0  0  0  0  0  0  0  0
  2  1  1  6
  2  4  1  0
  2  3  1  0
  4  5  2  0
  6  7  1  0
  6  4  1  0
  7 15  1  0
  8  9  1  0
  7  8  1  1
  9 10  2  0
 10 11  1  0
 12 11  2  0
 13 12  1  0
 14 13  2  0
 14  9  1  0
 15 17  1  0
 15 16  2  0
 17 21  1  0
 18 17  1  0
 19 20  1  0
 19 18  1  0
 20 21  1  0
 21 22  1  1
 22 24  2  0
 22 23  1  0
M  END
$$$$
