AFP.pdb
     RDKit          3D

 24 25  0  0  1  0  0  0  0  0999 V2000
   11.3024  -18.5770   21.8977 C   0  0  0  0  0  0  0  0  0  0  0  0
   10.6595  -17.3237   21.3192 C   0  0  2  0  0  0  0  0  0  0  0  0
   11.5298  -16.8246   20.2619 N   0  0  0  0  0  0  0  0  0  0  0  0
   10.5418  -16.3401   22.4283 C   0  0  0  0  0  0  0  0  0  0  0  0
   11.5077  -15.5770   22.6160 O   0  0  0  0  0  0  0  0  0  0  0  0
    9.4184  -16.2452   23.2435 N   0  0  0  0  0  0  0  0  0  0  0  0
    9.2324  -15.1707   24.2667 C   0  0  1  0  0  0  0  0  0  0  0  0
    7.7467  -14.9131   24.1727 C   0  0  0  0  0  0  0  0  0  0  0  0
    7.1662  -13.9170   25.0345 C   0  0  0  0  0  0  0  0  0  0  0  0
    6.3166  -14.2451   26.0609 C   0  0  0  0  0  0  0  0  0  0  0  0
    5.7572  -13.2697   26.8893 C   0  0  0  0  0  0  0  0  0  0  0  0
    6.0500  -11.9417   26.6911 C   0  0  0  0  0  0  0  0  0  0  0  0
    6.9057  -11.5842   25.6610 C   0  0  0  0  0  0  0  0  0  0  0  0
    7.4511  -12.5601   24.8501 C   0  0  0  0  0  0  0  0  0  0  0  0
    9.5993  -15.8148   25.5384 C   0  0  0  0  0  0  0  0  0  0  0  0
    9.3857  -17.0722   25.7033 O   0  0  0  0  0  0  0  0  0  0  0  0
   10.1959  -15.1474   26.6411 N   0  0  0  0  0  0  0  0  0  0  0  0
   10.5615  -13.7695   26.6330 C   0  0  0  0  0  0  0  0  0  0  0  0
   10.4610  -13.3724   28.0883 C   0  0  0  0  0  0  0  0  0  0  0  0
   10.7506  -14.6364   28.8547 C   0  0  0  0  0  0  0  0  0  0  0  0
   10.6063  -15.7568   27.8485 C   0  0  1  0  0  0  0  0  0  0  0  0
    9.6802  -16.7938   28.3889 C   0  0  0  0  0  0  0  0  0  0  0  0
   10.0095  -17.7220   29.3479 O   0  0  0  0  0  0  0  0  0  0  0  0
    8.5025  -16.7818   27.8910 O   0  0  0  0  0  0  0  0  0  0  0  0
  2  1  1  1
  2  4  1  0
  2  3  1  0
  4  5  2  0
  6  7  1  0
  6  4  1  0
  7 15  1  0
  8  9  1  0
  7  8  1  1
  9 10  2  0
 10 11  1  0
 12 11  2  0
 13 12  1  0
 14 13  2  0
 14  9  1  0
 15 17  1  0
 15 16  2  0
 17 21  1  0
 18 17  1  0
 19 20  1  0
 19 18  1  0
 20 21  1  0
 21 22  1  1
 22 24  2  0
 22 23  1  0
M  END
$$$$
