AFP.pdb
     RDKit          3D

 24 25  0  0  1  0  0  0  0  0999 V2000
    6.3013  -20.5745   22.6610 C   0  0  0  0  0  0  0  0  0  0  0  0
    5.2688  -19.8326   23.4991 C   0  0  2  0  0  0  0  0  0  0  0  0
    3.9534  -20.1192   22.9407 N   0  0  0  0  0  0  0  0  0  0  0  0
    5.5888  -18.3834   23.4060 C   0  0  0  0  0  0  0  0  0  0  0  0
    5.1092  -17.7563   22.4431 O   0  0  0  0  0  0  0  0  0  0  0  0
    6.3856  -17.7202   24.3338 N   0  0  0  0  0  0  0  0  0  0  0  0
    6.6335  -16.2460   24.3013 C   0  0  1  0  0  0  0  0  0  0  0  0
    6.9203  -15.9522   25.7551 C   0  0  0  0  0  0  0  0  0  0  0  0
    7.0441  -14.5785   26.1671 C   0  0  0  0  0  0  0  0  0  0  0  0
    8.2611  -14.0030   26.4331 C   0  0  0  0  0  0  0  0  0  0  0  0
    8.3690  -12.6696   26.8346 C   0  0  0  0  0  0  0  0  0  0  0  0
    7.2425  -11.8949   26.9739 C   0  0  0  0  0  0  0  0  0  0  0  0
    6.0012  -12.4528   26.7110 C   0  0  0  0  0  0  0  0  0  0  0  0
    5.9105  -13.7727   26.3148 C   0  0  0  0  0  0  0  0  0  0  0  0
    7.8348  -16.0995   23.4634 C   0  0  0  0  0  0  0  0  0  0  0  0
    8.8526  -16.8588   23.6667 O   0  0  0  0  0  0  0  0  0  0  0  0
    7.9747  -15.1617   22.4059 N   0  0  0  0  0  0  0  0  0  0  0  0
    6.9136  -14.3380   21.9287 C   0  0  0  0  0  0  0  0  0  0  0  0
    7.6305  -13.1197   21.3924 C   0  0  0  0  0  0  0  0  0  0  0  0
    8.9805  -13.6264   20.9568 C   0  0  0  0  0  0  0  0  0  0  0  0
    9.1306  -14.9812   21.6129 C   0  0  1  0  0  0  0  0  0  0  0  0
   10.4267  -15.0359   22.3492 C   0  0  0  0  0  0  0  0  0  0  0  0
   11.6607  -15.1873   21.7627 O   0  0  0  0  0  0  0  0  0  0  0  0
   10.3333  -14.9327   23.6202 O   0  0  0  0  0  0  0  0  0  0  0  0
  2  1  1  6
  2  4  1  0
  2  3  1  0
  4  5  2  0
  6  7  1  0
  6  4  1  0
  7 15  1  0
  8  9  1  0
  7  8  1  1
  9 10  2  0
 10 11  1  0
 12 11  2  0
 13 12  1  0
 14 13  2  0
 14  9  1  0
 15 17  1  0
 15 16  2  0
 17 21  1  0
 18 17  1  0
 19 20  1  0
 19 18  1  0
 20 21  1  0
 21 22  1  1
 22 24  2  0
 22 23  1  0
M  END
$$$$
