LER.pdb
     RDKit          3D

 29 28  0  0  1  0  0  0  0  0999 V2000
   28.7258  -21.6220  -12.4059 C   0  0  0  0  0  0  0  0  0  0  0  0
   27.9277  -20.6311  -13.2136 C   0  0  2  0  0  0  0  0  0  0  0  0
   28.8403  -19.4198  -13.4502 C   0  0  0  0  0  0  0  0  0  0  0  0
   26.6597  -20.1829  -12.5167 C   0  0  0  0  0  0  0  0  0  0  0  0
   25.7018  -21.3149  -12.3052 C   0  0  2  0  0  0  0  0  0  0  0  0
   25.9493  -22.3934  -13.2210 N   0  0  0  0  0  0  0  0  0  0  0  0
   24.3099  -20.8109  -12.4869 C   0  0  0  0  0  0  0  0  0  0  0  0
   23.8128  -19.9556  -11.7005 O   0  0  0  0  0  0  0  0  0  0  0  0
   23.4997  -21.2685  -13.5390 N   0  0  0  0  0  0  0  0  0  0  0  0
   22.1254  -20.7587  -13.7629 C   0  0  1  0  0  0  0  0  0  0  0  0
   22.1635  -20.1480  -15.1207 C   0  0  0  0  0  0  0  0  0  0  0  0
   22.3391  -18.6777  -15.1997 C   0  0  0  0  0  0  0  0  0  0  0  0
   22.3469  -18.2760  -16.6545 C   0  0  0  0  0  0  0  0  0  0  0  0
   22.0661  -19.1298  -17.5235 O   0  0  0  0  0  0  0  0  0  0  0  0
   21.1561  -21.8528  -13.5826 C   0  0  0  0  0  0  0  0  0  0  0  0
   21.5380  -23.0332  -13.8862 O   0  0  0  0  0  0  0  0  0  0  0  0
   22.6520  -17.0015  -17.0680 O   0  0  0  0  0  0  0  0  0  0  0  0
   18.8210  -23.7473   -7.5513 N   0  0  0  0  0  0  0  0  0  0  0  0
   17.6433  -24.5394   -7.7079 C   0  0  0  0  0  0  0  0  0  0  0  0
   17.4285  -25.5933   -7.0132 N   0  0  0  0  0  0  0  0  0  0  0  0
   16.6558  -24.1553   -8.6732 N   0  0  0  0  0  0  0  0  0  0  0  0
   16.8295  -23.0734   -9.6184 C   0  0  0  0  0  0  0  0  0  0  0  0
   17.8417  -23.4219  -10.6539 C   0  0  0  0  0  0  0  0  0  0  0  0
   18.0904  -22.4259  -11.7020 C   0  0  0  0  0  0  0  0  0  0  0  0
   18.9521  -22.8457  -12.8430 C   0  0  2  0  0  0  0  0  0  0  0  0
   19.8511  -21.7029  -13.1024 N   0  0  0  0  0  0  0  0  0  0  0  0
   18.1877  -23.1231  -14.0792 C   0  0  0  0  0  0  0  0  0  0  0  0
   17.7405  -24.4153  -14.3260 O   0  0  0  0  0  0  0  0  0  0  0  0
   17.9060  -22.2547  -14.9438 O   0  0  0  0  0  0  0  0  0  0  0  0
  2  4  1  0
  2  3  1  1
  2  1  1  0
  5  6  1  6
  5  4  1  0
  7  5  1  0
  8  7  2  0
  9  7  1  0
 10 15  1  0
 10  9  1  0
 10 11  1  6
 12 11  1  0
 13 12  1  0
 14 13  2  0
 15 16  2  0
 17 13  1  0
 18 19  1  0
 19 21  1  0
 20 19  2  0
 21 22  1  0
 23 24  1  0
 23 22  1  0
 25 24  1  1
 25 27  1  0
 26 25  1  0
 26 15  1  0
 27 29  2  0
 27 28  1  0
M  END
$$$$
