LER.pdb
     RDKit          3D

 29 28  0  0  1  0  0  0  0  0999 V2000
   33.5607  -12.6331  -17.7201 C   0  0  0  0  0  0  0  0  0  0  0  0
   33.5827  -11.1543  -18.0094 C   0  0  2  0  0  0  0  0  0  0  0  0
   34.9998  -10.6631  -17.6825 C   0  0  0  0  0  0  0  0  0  0  0  0
   32.5740  -10.3752  -17.1909 C   0  0  0  0  0  0  0  0  0  0  0  0
   31.1649  -10.7809  -17.4970 C   0  0  2  0  0  0  0  0  0  0  0  0
   31.0692  -11.4328  -18.7733 N   0  0  0  0  0  0  0  0  0  0  0  0
   30.2989   -9.5667  -17.4866 C   0  0  0  0  0  0  0  0  0  0  0  0
   30.1757   -8.8563  -16.4488 O   0  0  0  0  0  0  0  0  0  0  0  0
   29.5879   -9.1679  -18.6304 N   0  0  0  0  0  0  0  0  0  0  0  0
   28.6691   -8.0041  -18.6288 C   0  0  1  0  0  0  0  0  0  0  0  0
   29.0274   -7.2357  -19.8533 C   0  0  0  0  0  0  0  0  0  0  0  0
   28.1851   -6.0626  -20.1900 C   0  0  0  0  0  0  0  0  0  0  0  0
   28.6978   -5.4610  -21.4757 C   0  0  0  0  0  0  0  0  0  0  0  0
   27.9278   -4.7635  -22.1711 O   0  0  0  0  0  0  0  0  0  0  0  0
   27.2752   -8.4740  -18.5558 C   0  0  0  0  0  0  0  0  0  0  0  0
   26.9755   -9.5303  -19.2084 O   0  0  0  0  0  0  0  0  0  0  0  0
   29.9851   -5.6488  -21.9182 O   0  0  0  0  0  0  0  0  0  0  0  0
   21.5478   -9.3523  -11.9325 N   0  0  0  0  0  0  0  0  0  0  0  0
   20.7516   -9.4012  -13.1168 C   0  0  0  0  0  0  0  0  0  0  0  0
   19.5026   -9.6817  -13.0922 N   0  0  0  0  0  0  0  0  0  0  0  0
   21.3567   -9.1291  -14.3874 N   0  0  0  0  0  0  0  0  0  0  0  0
   22.7627   -8.8370  -14.5654 C   0  0  0  0  0  0  0  0  0  0  0  0
   23.1138   -8.7459  -16.0100 C   0  0  0  0  0  0  0  0  0  0  0  0
   24.5021   -8.4012  -16.3361 C   0  0  0  0  0  0  0  0  0  0  0  0
   24.8715   -8.3760  -17.7796 C   0  0  2  0  0  0  0  0  0  0  0  0
   26.2536   -7.8574  -17.8263 N   0  0  0  0  0  0  0  0  0  0  0  0
   24.0132   -7.4792  -18.5849 C   0  0  0  0  0  0  0  0  0  0  0  0
   24.4436   -6.1851  -18.8509 O   0  0  0  0  0  0  0  0  0  0  0  0
   22.8961   -7.8099  -19.0579 O   0  0  0  0  0  0  0  0  0  0  0  0
  2  4  1  0
  2  3  1  1
  2  1  1  0
  5  6  1  6
  5  4  1  0
  7  5  1  0
  8  7  2  0
  9  7  1  0
 10 15  1  0
 10  9  1  0
 10 11  1  6
 12 11  1  0
 13 12  1  0
 14 13  2  0
 15 16  2  0
 17 13  1  0
 18 19  1  0
 19 21  1  0
 20 19  2  0
 21 22  1  0
 23 24  1  0
 23 22  1  0
 25 24  1  1
 25 27  1  0
 26 25  1  0
 26 15  1  0
 27 29  2  0
 27 28  1  0
M  END
$$$$
