LER.pdb
     RDKit          3D

 29 28  0  0  1  0  0  0  0  0999 V2000
   33.3615  -25.9064  -21.9397 C   0  0  0  0  0  0  0  0  0  0  0  0
   34.1471  -27.1485  -21.6066 C   0  0  2  0  0  0  0  0  0  0  0  0
   34.8930  -27.5535  -22.8857 C   0  0  0  0  0  0  0  0  0  0  0  0
   33.2734  -28.2960  -21.1437 C   0  0  0  0  0  0  0  0  0  0  0  0
   32.5106  -27.9581  -19.8997 C   0  0  2  0  0  0  0  0  0  0  0  0
   33.3889  -27.7508  -18.7823 N   0  0  0  0  0  0  0  0  0  0  0  0
   31.5644  -29.0702  -19.5955 C   0  0  0  0  0  0  0  0  0  0  0  0
   30.6725  -29.4183  -20.4203 O   0  0  0  0  0  0  0  0  0  0  0  0
   31.6296  -29.7719  -18.3806 N   0  0  0  0  0  0  0  0  0  0  0  0
   30.6705  -30.8477  -18.0321 C   0  0  1  0  0  0  0  0  0  0  0  0
   31.3583  -31.6426  -16.9770 C   0  0  0  0  0  0  0  0  0  0  0  0
   30.5903  -32.7434  -16.3466 C   0  0  0  0  0  0  0  0  0  0  0  0
   31.5198  -33.9137  -16.1364 C   0  0  0  0  0  0  0  0  0  0  0  0
   32.7351  -33.7807  -16.3980 O   0  0  0  0  0  0  0  0  0  0  0  0
   29.3800  -30.2537  -17.6437 C   0  0  0  0  0  0  0  0  0  0  0  0
   29.4016  -29.3133  -16.7796 O   0  0  0  0  0  0  0  0  0  0  0  0
   31.0839  -35.1289  -15.6659 O   0  0  0  0  0  0  0  0  0  0  0  0
   25.2392  -27.5622  -22.9036 N   0  0  0  0  0  0  0  0  0  0  0  0
   25.6421  -26.6702  -21.8640 C   0  0  0  0  0  0  0  0  0  0  0  0
   26.3489  -25.6270  -22.0912 N   0  0  0  0  0  0  0  0  0  0  0  0
   25.2499  -26.9375  -20.5114 N   0  0  0  0  0  0  0  0  0  0  0  0
   24.4670  -28.0864  -20.1104 C   0  0  0  0  0  0  0  0  0  0  0  0
   25.0152  -28.7041  -18.8709 C   0  0  0  0  0  0  0  0  0  0  0  0
   26.2957  -29.4102  -18.9904 C   0  0  0  0  0  0  0  0  0  0  0  0
   26.8680  -29.9887  -17.7419 C   0  0  2  0  0  0  0  0  0  0  0  0
   28.1325  -30.6351  -18.1478 N   0  0  0  0  0  0  0  0  0  0  0  0
   26.0002  -31.0161  -17.1249 C   0  0  0  0  0  0  0  0  0  0  0  0
   24.8126  -30.6269  -16.5177 O   0  0  0  0  0  0  0  0  0  0  0  0
   26.2647  -32.2453  -17.1091 O   0  0  0  0  0  0  0  0  0  0  0  0
  2  4  1  0
  2  3  1  6
  2  1  1  0
  5  6  1  1
  5  4  1  0
  7  5  1  0
  8  7  2  0
  9  7  1  0
 10 15  1  0
 10  9  1  0
 10 11  1  1
 12 11  1  0
 13 12  1  0
 14 13  2  0
 15 16  2  0
 17 13  1  0
 18 19  1  0
 19 21  1  0
 20 19  2  0
 21 22  1  0
 23 24  1  0
 23 22  1  0
 25 24  1  6
 25 27  1  0
 26 25  1  0
 26 15  1  0
 27 29  2  0
 27 28  1  0
M  END
$$$$
