LER.pdb
     RDKit          3D

 29 28  0  0  1  0  0  0  0  0999 V2000
   27.8412  -16.4389  -16.4926 C   0  0  0  0  0  0  0  0  0  0  0  0
   27.4848  -15.6073  -17.6978 C   0  0  2  0  0  0  0  0  0  0  0  0
   28.7959  -15.3366  -18.4488 C   0  0  0  0  0  0  0  0  0  0  0  0
   26.8259  -14.2921  -17.3365 C   0  0  0  0  0  0  0  0  0  0  0  0
   25.5515  -14.4899  -16.5747 C   0  0  2  0  0  0  0  0  0  0  0  0
   24.9388  -15.7502  -16.8899 N   0  0  0  0  0  0  0  0  0  0  0  0
   24.6133  -13.3785  -16.9046 C   0  0  0  0  0  0  0  0  0  0  0  0
   24.9799  -12.1704  -16.8481 O   0  0  0  0  0  0  0  0  0  0  0  0
   23.2871  -13.6334  -17.2903 N   0  0  0  0  0  0  0  0  0  0  0  0
   22.3827  -12.5650  -17.7794 C   0  0  1  0  0  0  0  0  0  0  0  0
   21.5603  -13.2176  -18.8356 C   0  0  0  0  0  0  0  0  0  0  0  0
   22.2727  -14.0541  -19.8315 C   0  0  0  0  0  0  0  0  0  0  0  0
   21.4185  -15.2596  -20.1398 C   0  0  0  0  0  0  0  0  0  0  0  0
   20.3267  -15.4000  -19.5471 O   0  0  0  0  0  0  0  0  0  0  0  0
   21.6320  -11.9953  -16.6475 C   0  0  0  0  0  0  0  0  0  0  0  0
   21.2375  -12.8009  -15.7382 O   0  0  0  0  0  0  0  0  0  0  0  0
   21.7926  -16.2171  -21.0516 O   0  0  0  0  0  0  0  0  0  0  0  0
   22.5294   -3.6817  -14.4802 N   0  0  0  0  0  0  0  0  0  0  0  0
   21.2005   -3.8643  -14.9694 C   0  0  0  0  0  0  0  0  0  0  0  0
   20.4493   -2.8806  -15.2972 N   0  0  0  0  0  0  0  0  0  0  0  0
   20.6725   -5.1902  -15.1043 N   0  0  0  0  0  0  0  0  0  0  0  0
   21.3918   -6.3873  -14.7259 C   0  0  0  0  0  0  0  0  0  0  0  0
   20.6258   -7.6119  -15.0893 C   0  0  0  0  0  0  0  0  0  0  0  0
   21.2986   -8.9003  -14.8900 C   0  0  0  0  0  0  0  0  0  0  0  0
   20.5652  -10.1212  -15.3286 C   0  0  2  0  0  0  0  0  0  0  0  0
   21.3188  -10.6417  -16.4872 N   0  0  0  0  0  0  0  0  0  0  0  0
   19.1791   -9.8427  -15.7653 C   0  0  0  0  0  0  0  0  0  0  0  0
   18.8622   -9.9272  -17.1156 O   0  0  0  0  0  0  0  0  0  0  0  0
   18.2442   -9.5277  -14.9858 O   0  0  0  0  0  0  0  0  0  0  0  0
  2  4  1  0
  2  3  1  1
  2  1  1  0
  5  6  1  6
  5  4  1  0
  7  5  1  0
  8  7  2  0
  9  7  1  0
 10 15  1  0
 10  9  1  0
 10 11  1  6
 12 11  1  0
 13 12  1  0
 14 13  2  0
 15 16  2  0
 17 13  1  0
 18 19  1  0
 19 21  1  0
 20 19  2  0
 21 22  1  0
 23 24  1  0
 23 22  1  0
 25 24  1  6
 25 27  1  0
 26 25  1  0
 26 15  1  0
 27 29  2  0
 27 28  1  0
M  END
$$$$
