LER.pdb
     RDKit          3D

 29 28  0  0  1  0  0  0  0  0999 V2000
   26.1761  -18.4974  -20.6538 C   0  0  0  0  0  0  0  0  0  0  0  0
   26.8771  -19.4693  -19.7401 C   0  0  2  0  0  0  0  0  0  0  0  0
   26.8244  -20.8390  -20.4310 C   0  0  0  0  0  0  0  0  0  0  0  0
   26.2343  -19.5658  -18.3719 C   0  0  0  0  0  0  0  0  0  0  0  0
   26.1551  -18.2342  -17.6905 C   0  0  2  0  0  0  0  0  0  0  0  0
   27.3690  -17.9292  -16.9860 N   0  0  0  0  0  0  0  0  0  0  0  0
   25.0095  -18.2471  -16.7355 C   0  0  0  0  0  0  0  0  0  0  0  0
   25.1399  -18.6890  -15.5588 O   0  0  0  0  0  0  0  0  0  0  0  0
   23.7430  -17.7683  -17.1088 N   0  0  0  0  0  0  0  0  0  0  0  0
   22.6502  -17.5639  -16.1277 C   0  0  1  0  0  0  0  0  0  0  0  0
   21.8803  -16.4024  -16.6533 C   0  0  0  0  0  0  0  0  0  0  0  0
   20.6175  -16.0538  -15.9585 C   0  0  0  0  0  0  0  0  0  0  0  0
   19.9945  -14.8746  -16.6651 C   0  0  0  0  0  0  0  0  0  0  0  0
   20.7176  -13.9080  -16.9902 O   0  0  0  0  0  0  0  0  0  0  0  0
   21.8883  -18.8142  -15.9676 C   0  0  0  0  0  0  0  0  0  0  0  0
   21.8382  -19.6049  -16.9694 O   0  0  0  0  0  0  0  0  0  0  0  0
   18.6555  -14.8178  -16.9689 O   0  0  0  0  0  0  0  0  0  0  0  0
   19.3325  -23.2136   -8.5318 N   0  0  0  0  0  0  0  0  0  0  0  0
   18.8155  -23.9368   -9.6492 C   0  0  0  0  0  0  0  0  0  0  0  0
   18.1609  -25.0290   -9.5156 N   0  0  0  0  0  0  0  0  0  0  0  0
   19.0283  -23.4360  -10.9754 N   0  0  0  0  0  0  0  0  0  0  0  0
   19.7908  -22.2432  -11.2747 C   0  0  0  0  0  0  0  0  0  0  0  0
   19.9034  -22.0323  -12.7448 C   0  0  0  0  0  0  0  0  0  0  0  0
   20.5871  -20.8132  -13.1909 C   0  0  0  0  0  0  0  0  0  0  0  0
   20.5731  -20.5266  -14.6532 C   0  0  2  0  0  0  0  0  0  0  0  0
   21.2175  -19.2064  -14.8048 N   0  0  0  0  0  0  0  0  0  0  0  0
   19.2077  -20.4426  -15.2174 C   0  0  0  0  0  0  0  0  0  0  0  0
   18.5667  -21.6073  -15.6215 O   0  0  0  0  0  0  0  0  0  0  0  0
   18.5693  -19.3690  -15.3614 O   0  0  0  0  0  0  0  0  0  0  0  0
  2  4  1  0
  2  3  1  6
  2  1  1  0
  5  6  1  1
  5  4  1  0
  7  5  1  0
  8  7  2  0
  9  7  1  0
 10 15  1  0
 10  9  1  0
 10 11  1  6
 12 11  1  0
 13 12  1  0
 14 13  2  0
 15 16  2  0
 17 13  1  0
 18 19  1  0
 19 21  1  0
 20 19  2  0
 21 22  1  0
 23 24  1  0
 23 22  1  0
 25 24  1  1
 25 27  1  0
 26 25  1  0
 26 15  1  0
 27 29  2  0
 27 28  1  0
M  END
$$$$
