LER.pdb
     RDKit          3D

 29 28  0  0  1  0  0  0  0  0999 V2000
   29.0491  -18.3535   -5.4937 C   0  0  0  0  0  0  0  0  0  0  0  0
   28.3375  -19.6817   -5.4733 C   0  0  2  0  0  0  0  0  0  0  0  0
   29.1360  -20.5942   -4.5320 C   0  0  0  0  0  0  0  0  0  0  0  0
   28.2415  -20.3238   -6.8418 C   0  0  0  0  0  0  0  0  0  0  0  0
   27.4389  -19.4962   -7.7982 C   0  0  2  0  0  0  0  0  0  0  0  0
   26.7177  -18.4562   -7.1191 N   0  0  0  0  0  0  0  0  0  0  0  0
   26.4813  -20.3833   -8.5197 C   0  0  0  0  0  0  0  0  0  0  0  0
   26.8592  -21.4685   -9.0455 O   0  0  0  0  0  0  0  0  0  0  0  0
   25.1235  -20.0452   -8.6415 N   0  0  0  0  0  0  0  0  0  0  0  0
   24.1654  -20.8713   -9.4149 C   0  0  1  0  0  0  0  0  0  0  0  0
   23.0605  -21.1649   -8.4605 C   0  0  0  0  0  0  0  0  0  0  0  0
   21.9124  -21.9521   -8.9717 C   0  0  0  0  0  0  0  0  0  0  0  0
   20.9074  -22.1085   -7.8566 C   0  0  0  0  0  0  0  0  0  0  0  0
   20.3545  -23.2167   -7.6862 O   0  0  0  0  0  0  0  0  0  0  0  0
   23.7750  -20.1576  -10.6427 C   0  0  0  0  0  0  0  0  0  0  0  0
   23.4590  -18.9251  -10.5314 O   0  0  0  0  0  0  0  0  0  0  0  0
   20.5716  -21.0764   -7.0138 O   0  0  0  0  0  0  0  0  0  0  0  0
   27.0544  -23.7528  -15.1411 N   0  0  0  0  0  0  0  0  0  0  0  0
   25.6685  -23.9409  -15.4284 C   0  0  0  0  0  0  0  0  0  0  0  0
   25.0977  -25.0832  -15.3348 N   0  0  0  0  0  0  0  0  0  0  0  0
   24.8728  -22.8211  -15.8379 N   0  0  0  0  0  0  0  0  0  0  0  0
   25.3586  -21.4587  -15.8802 C   0  0  0  0  0  0  0  0  0  0  0  0
   24.9315  -20.6982  -14.6728 C   0  0  0  0  0  0  0  0  0  0  0  0
   23.5248  -20.8193  -14.2742 C   0  0  0  0  0  0  0  0  0  0  0  0
   23.0932  -20.0480  -13.0743 C   0  0  2  0  0  0  0  0  0  0  0  0
   23.7254  -20.7211  -11.9217 N   0  0  0  0  0  0  0  0  0  0  0  0
   21.6277  -20.0598  -12.8704 C   0  0  0  0  0  0  0  0  0  0  0  0
   20.8774  -18.9600  -13.2680 O   0  0  0  0  0  0  0  0  0  0  0  0
   20.9958  -21.0150  -12.3513 O   0  0  0  0  0  0  0  0  0  0  0  0
  2  4  1  0
  2  3  1  1
  2  1  1  0
  5  6  1  1
  5  4  1  0
  7  5  1  0
  8  7  2  0
  9  7  1  0
 10 15  1  0
 10  9  1  0
 10 11  1  1
 12 11  1  0
 13 12  1  0
 14 13  2  0
 15 16  2  0
 17 13  1  0
 18 19  1  0
 19 21  1  0
 20 19  2  0
 21 22  1  0
 23 24  1  0
 23 22  1  0
 25 24  1  6
 25 27  1  0
 26 25  1  0
 26 15  1  0
 27 29  2  0
 27 28  1  0
M  END
$$$$
