LER.pdb
     RDKit          3D

 29 28  0  0  1  0  0  0  0  0999 V2000
   20.1678  -14.6876  -20.9919 C   0  0  0  0  0  0  0  0  0  0  0  0
   21.6223  -14.7700  -21.3774 C   0  0  2  0  0  0  0  0  0  0  0  0
   21.6636  -14.9727  -22.8984 C   0  0  0  0  0  0  0  0  0  0  0  0
   22.3531  -15.9072  -20.6938 C   0  0  0  0  0  0  0  0  0  0  0  0
   22.1947  -15.8655  -19.2049 C   0  0  2  0  0  0  0  0  0  0  0  0
   23.0819  -14.9072  -18.6067 N   0  0  0  0  0  0  0  0  0  0  0  0
   22.4727  -17.2219  -18.6507 C   0  0  0  0  0  0  0  0  0  0  0  0
   21.7343  -18.2092  -18.9284 O   0  0  0  0  0  0  0  0  0  0  0  0
   23.5658  -17.4524  -17.7995 N   0  0  0  0  0  0  0  0  0  0  0  0
   23.9343  -18.8096  -17.3295 C   0  0  1  0  0  0  0  0  0  0  0  0
   25.4082  -18.7529  -17.1234 C   0  0  0  0  0  0  0  0  0  0  0  0
   26.2430  -18.3717  -18.2882 C   0  0  0  0  0  0  0  0  0  0  0  0
   27.6800  -18.2818  -17.8358 C   0  0  0  0  0  0  0  0  0  0  0  0
   27.9500  -18.4550  -16.6275 O   0  0  0  0  0  0  0  0  0  0  0  0
   23.1369  -19.1551  -16.1404 C   0  0  0  0  0  0  0  0  0  0  0  0
   22.9744  -18.2472  -15.2568 O   0  0  0  0  0  0  0  0  0  0  0  0
   28.7126  -18.0155  -18.7024 O   0  0  0  0  0  0  0  0  0  0  0  0
   17.4002  -25.8136  -14.2769 N   0  0  0  0  0  0  0  0  0  0  0  0
   17.6184  -25.0977  -13.0609 C   0  0  0  0  0  0  0  0  0  0  0  0
   16.9103  -25.2949  -12.0125 N   0  0  0  0  0  0  0  0  0  0  0  0
   18.6637  -24.1191  -12.9943 N   0  0  0  0  0  0  0  0  0  0  0  0
   19.5123  -23.7676  -14.1124 C   0  0  0  0  0  0  0  0  0  0  0  0
   20.3395  -22.5683  -13.8030 C   0  0  0  0  0  0  0  0  0  0  0  0
   21.1611  -22.0285  -14.8921 C   0  0  0  0  0  0  0  0  0  0  0  0
   21.8498  -20.7312  -14.6406 C   0  0  2  0  0  0  0  0  0  0  0  0
   22.5406  -20.3977  -15.9027 N   0  0  0  0  0  0  0  0  0  0  0  0
   22.8629  -20.8083  -13.5649 C   0  0  0  0  0  0  0  0  0  0  0  0
   22.4985  -20.4843  -12.2637 O   0  0  0  0  0  0  0  0  0  0  0  0
   24.0582  -21.1539  -13.7457 O   0  0  0  0  0  0  0  0  0  0  0  0
  2  4  1  0
  2  3  1  6
  2  1  1  0
  5  6  1  1
  5  4  1  0
  7  5  1  0
  8  7  2  0
  9  7  1  0
 10 15  1  0
 10  9  1  0
 10 11  1  1
 12 11  1  0
 13 12  1  0
 14 13  2  0
 15 16  2  0
 17 13  1  0
 18 19  1  0
 19 21  1  0
 20 19  2  0
 21 22  1  0
 23 24  1  0
 23 22  1  0
 25 24  1  6
 25 27  1  0
 26 25  1  0
 26 15  1  0
 27 29  2  0
 27 28  1  0
M  END
$$$$
