EEE.pdb
     RDKit          3D

 28 27  0  0  1  0  0  0  0  0999 V2000
   16.3041  -11.7653  -15.0474 N   0  0  0  0  0  0  0  0  0  0  0  0
   16.6915  -10.6702  -15.8661 C   0  0  1  0  0  0  0  0  0  0  0  0
   15.6692   -9.6113  -16.1127 C   0  0  0  0  0  0  0  0  0  0  0  0
   14.3706  -10.0843  -16.6475 C   0  0  0  0  0  0  0  0  0  0  0  0
   13.4052   -9.0181  -16.9470 C   0  0  0  0  0  0  0  0  0  0  0  0
   12.2788   -9.3563  -17.4038 O   0  0  0  0  0  0  0  0  0  0  0  0
   17.9328  -10.0448  -15.3569 C   0  0  0  0  0  0  0  0  0  0  0  0
   18.0696   -9.6999  -14.1448 O   0  0  0  0  0  0  0  0  0  0  0  0
   13.6507   -7.6776  -16.7649 O   0  0  0  0  0  0  0  0  0  0  0  0
   19.0139   -9.8094  -16.2036 N   0  0  0  0  0  0  0  0  0  0  0  0
   20.2518   -9.1619  -15.7540 C   0  0  1  0  0  0  0  0  0  0  0  0
   21.4529   -9.8044  -16.3205 C   0  0  0  0  0  0  0  0  0  0  0  0
   22.6989   -9.0390  -15.9596 C   0  0  0  0  0  0  0  0  0  0  0  0
   23.9016   -9.6888  -16.5370 C   0  0  0  0  0  0  0  0  0  0  0  0
   24.7442   -9.0488  -17.1947 O   0  0  0  0  0  0  0  0  0  0  0  0
   20.0682   -7.7297  -16.0874 C   0  0  0  0  0  0  0  0  0  0  0  0
   19.6161   -7.3149  -17.1826 O   0  0  0  0  0  0  0  0  0  0  0  0
   24.1410  -11.0656  -16.3640 O   0  0  0  0  0  0  0  0  0  0  0  0
   20.3998   -6.7095  -15.1655 N   0  0  0  0  0  0  0  0  0  0  0  0
   20.2612   -5.2927  -15.4664 C   0  0  1  0  0  0  0  0  0  0  0  0
   18.8901   -4.7839  -15.2160 C   0  0  0  0  0  0  0  0  0  0  0  0
   18.7984   -3.3250  -15.5618 C   0  0  0  0  0  0  0  0  0  0  0  0
   17.3922   -2.8459  -15.3220 C   0  0  0  0  0  0  0  0  0  0  0  0
   17.1511   -2.0746  -14.3502 O   0  0  0  0  0  0  0  0  0  0  0  0
   21.2089   -4.5650  -14.5949 C   0  0  0  0  0  0  0  0  0  0  0  0
   21.4869   -3.3490  -14.6423 O   0  0  0  0  0  0  0  0  0  0  0  0
   16.3273   -3.2171  -16.1294 O   0  0  0  0  0  0  0  0  0  0  0  0
   21.8733   -5.3246  -13.5993 O   0  0  0  0  0  0  0  0  0  0  0  0
  2  1  1  1
  2  7  1  0
  2  3  1  0
  3  4  1  0
  4  5  1  0
  5  6  2  0
  7  8  2  0
  9  5  1  0
 10 11  1  0
 10  7  1  0
 12 13  1  0
 11 12  1  6
 13 14  1  0
 14 15  2  0
 14 18  1  0
 16 17  2  0
 16 11  1  0
 19 16  1  0
 20 19  1  0
 20 25  1  0
 20 21  1  1
 22 21  1  0
 23 22  1  0
 24 23  2  0
 25 28  1  0
 26 25  2  0
 27 23  1  0
M  END
$$$$
