EEE.pdb
     RDKit          3D

 28 27  0  0  1  0  0  0  0  0999 V2000
   18.4708  -13.4511  -16.3094 N   0  0  0  0  0  0  0  0  0  0  0  0
   18.4612  -12.1584  -16.8995 C   0  0  1  0  0  0  0  0  0  0  0  0
   17.3594  -11.2358  -16.4968 C   0  0  0  0  0  0  0  0  0  0  0  0
   15.9923  -11.6642  -16.8755 C   0  0  0  0  0  0  0  0  0  0  0  0
   15.7839  -11.8469  -18.3184 C   0  0  0  0  0  0  0  0  0  0  0  0
   15.5182  -13.0090  -18.7314 O   0  0  0  0  0  0  0  0  0  0  0  0
   19.7634  -11.4813  -16.7065 C   0  0  0  0  0  0  0  0  0  0  0  0
   20.2910  -11.3413  -15.5625 O   0  0  0  0  0  0  0  0  0  0  0  0
   15.8628  -10.8355  -19.2463 O   0  0  0  0  0  0  0  0  0  0  0  0
   20.4687  -10.9659  -17.7919 N   0  0  0  0  0  0  0  0  0  0  0  0
   21.7911  -10.3434  -17.6595 C   0  0  1  0  0  0  0  0  0  0  0  0
   22.7074  -10.7482  -18.7425 C   0  0  0  0  0  0  0  0  0  0  0  0
   24.0158  -10.0078  -18.6514 C   0  0  0  0  0  0  0  0  0  0  0  0
   24.9561  -10.4693  -19.7027 C   0  0  0  0  0  0  0  0  0  0  0  0
   25.9982   -9.8432  -19.9750 O   0  0  0  0  0  0  0  0  0  0  0  0
   21.5134   -8.8912  -17.5584 C   0  0  0  0  0  0  0  0  0  0  0  0
   20.7282   -8.2709  -18.3165 O   0  0  0  0  0  0  0  0  0  0  0  0
   24.7066  -11.6421  -20.4408 O   0  0  0  0  0  0  0  0  0  0  0  0
   22.1330   -8.0887  -16.5723 N   0  0  0  0  0  0  0  0  0  0  0  0
   21.8931   -6.6590  -16.4472 C   0  0  1  0  0  0  0  0  0  0  0  0
   21.9628   -6.1859  -15.0426 C   0  0  0  0  0  0  0  0  0  0  0  0
   21.7654   -4.6981  -14.9776 C   0  0  0  0  0  0  0  0  0  0  0  0
   21.7962   -4.2561  -13.5395 C   0  0  0  0  0  0  0  0  0  0  0  0
   21.0731   -3.2890  -13.1665 O   0  0  0  0  0  0  0  0  0  0  0  0
   22.9355   -5.9690  -17.2375 C   0  0  0  0  0  0  0  0  0  0  0  0
   24.1391   -6.2872  -17.3286 O   0  0  0  0  0  0  0  0  0  0  0  0
   22.5953   -4.8685  -12.5855 O   0  0  0  0  0  0  0  0  0  0  0  0
   22.5291   -4.8258  -17.9706 O   0  0  0  0  0  0  0  0  0  0  0  0
  2  1  1  1
  2  7  1  0
  2  3  1  0
  3  4  1  0
  4  5  1  0
  5  6  2  0
  7  8  2  0
  9  5  1  0
 10 11  1  0
 10  7  1  0
 12 13  1  0
 11 12  1  6
 13 14  1  0
 14 15  2  0
 14 18  1  0
 16 17  2  0
 16 11  1  0
 19 16  1  0
 20 19  1  0
 20 25  1  0
 20 21  1  1
 22 21  1  0
 23 22  1  0
 24 23  2  0
 25 28  1  0
 26 25  2  0
 27 23  1  0
M  END
$$$$
