EEE.pdb
     RDKit          3D

 28 27  0  0  1  0  0  0  0  0999 V2000
   24.5500  -36.6224   -1.3060 N   0  0  0  0  0  0  0  0  0  0  0  0
   25.6074  -36.2471   -0.4339 C   0  0  1  0  0  0  0  0  0  0  0  0
   26.7408  -35.4813   -1.0306 C   0  0  0  0  0  0  0  0  0  0  0  0
   26.3824  -34.5582   -2.1331 C   0  0  0  0  0  0  0  0  0  0  0  0
   27.5152  -33.8207   -2.7088 C   0  0  0  0  0  0  0  0  0  0  0  0
   27.2647  -32.9519   -3.5887 O   0  0  0  0  0  0  0  0  0  0  0  0
   25.0858  -35.5152    0.7423 C   0  0  0  0  0  0  0  0  0  0  0  0
   24.0376  -34.8044    0.6876 O   0  0  0  0  0  0  0  0  0  0  0  0
   28.8286  -34.0179   -2.3534 O   0  0  0  0  0  0  0  0  0  0  0  0
   25.7369  -35.5821    1.9722 N   0  0  0  0  0  0  0  0  0  0  0  0
   25.1958  -34.9754    3.1941 C   0  0  1  0  0  0  0  0  0  0  0  0
   25.8568  -35.4880    4.4093 C   0  0  0  0  0  0  0  0  0  0  0  0
   25.4172  -36.8962    4.7130 C   0  0  0  0  0  0  0  0  0  0  0  0
   26.1365  -37.4285    5.8969 C   0  0  0  0  0  0  0  0  0  0  0  0
   25.8266  -37.1004    7.0582 O   0  0  0  0  0  0  0  0  0  0  0  0
   25.3051  -33.5149    2.9676 C   0  0  0  0  0  0  0  0  0  0  0  0
   26.2884  -32.9600    2.4187 O   0  0  0  0  0  0  0  0  0  0  0  0
   27.2068  -38.3323    5.7547 O   0  0  0  0  0  0  0  0  0  0  0  0
   24.2782  -32.6279    3.3665 N   0  0  0  0  0  0  0  0  0  0  0  0
   24.3059  -31.2017    3.0792 C   0  0  1  0  0  0  0  0  0  0  0  0
   22.9535  -30.5913    3.0711 C   0  0  0  0  0  0  0  0  0  0  0  0
   22.3104  -30.7182    4.4227 C   0  0  0  0  0  0  0  0  0  0  0  0
   20.9217  -30.1413    4.3673 C   0  0  0  0  0  0  0  0  0  0  0  0
   20.5753  -29.4379    3.3761 O   0  0  0  0  0  0  0  0  0  0  0  0
   25.1160  -30.5576    4.1355 C   0  0  0  0  0  0  0  0  0  0  0  0
   25.4645  -31.0612    5.2233 O   0  0  0  0  0  0  0  0  0  0  0  0
   19.9857  -30.3464    5.3702 O   0  0  0  0  0  0  0  0  0  0  0  0
   25.5443  -29.2286    3.8909 O   0  0  0  0  0  0  0  0  0  0  0  0
  2  1  1  6
  2  7  1  0
  2  3  1  0
  3  4  1  0
  4  5  1  0
  5  6  2  0
  7  8  2  0
  9  5  1  0
 10 11  1  0
 10  7  1  0
 12 13  1  0
 11 12  1  1
 13 14  1  0
 14 15  2  0
 14 18  1  0
 16 17  2  0
 16 11  1  0
 19 16  1  0
 20 19  1  0
 20 25  1  0
 20 21  1  1
 22 21  1  0
 23 22  1  0
 24 23  2  0
 25 28  1  0
 26 25  2  0
 27 23  1  0
M  END
$$$$
