EEE.pdb
     RDKit          3D

 28 27  0  0  1  0  0  0  0  0999 V2000
   15.3905  -14.3497  -14.1198 N   0  0  0  0  0  0  0  0  0  0  0  0
   14.8750  -13.0954  -14.5445 C   0  0  1  0  0  0  0  0  0  0  0  0
   14.0235  -12.3469  -13.5740 C   0  0  0  0  0  0  0  0  0  0  0  0
   12.8686  -13.0943  -13.0232 C   0  0  0  0  0  0  0  0  0  0  0  0
   12.0221  -12.3242  -12.1017 C   0  0  0  0  0  0  0  0  0  0  0  0
   10.7731  -12.4860  -12.1766 O   0  0  0  0  0  0  0  0  0  0  0  0
   15.9630  -12.2138  -15.0245 C   0  0  0  0  0  0  0  0  0  0  0  0
   17.1834  -12.4449  -14.7715 O   0  0  0  0  0  0  0  0  0  0  0  0
   12.5023  -11.4379  -11.1667 O   0  0  0  0  0  0  0  0  0  0  0  0
   15.6818  -11.0805  -15.7846 N   0  0  0  0  0  0  0  0  0  0  0  0
   16.7281  -10.2373  -16.3746 C   0  0  1  0  0  0  0  0  0  0  0  0
   16.3302   -9.6941  -17.6873 C   0  0  0  0  0  0  0  0  0  0  0  0
   17.4510   -8.9035  -18.3096 C   0  0  0  0  0  0  0  0  0  0  0  0
   18.5340   -9.8041  -18.7771 C   0  0  0  0  0  0  0  0  0  0  0  0
   18.3155  -10.7412  -19.5685 O   0  0  0  0  0  0  0  0  0  0  0  0
   17.0361   -9.2345  -15.3279 C   0  0  0  0  0  0  0  0  0  0  0  0
   16.2235   -8.8685  -14.4437 O   0  0  0  0  0  0  0  0  0  0  0  0
   19.8623   -9.6350  -18.3417 O   0  0  0  0  0  0  0  0  0  0  0  0
   18.3023   -8.6083  -15.2562 N   0  0  0  0  0  0  0  0  0  0  0  0
   18.6220   -7.5742  -14.2838 C   0  0  1  0  0  0  0  0  0  0  0  0
   20.0619   -7.2161  -14.2789 C   0  0  0  0  0  0  0  0  0  0  0  0
   20.3399   -6.1659  -13.2415 C   0  0  0  0  0  0  0  0  0  0  0  0
   21.7731   -5.7220  -13.3567 C   0  0  0  0  0  0  0  0  0  0  0  0
   22.6961   -6.5852  -13.3733 O   0  0  0  0  0  0  0  0  0  0  0  0
   17.8316   -6.3766  -14.6419 C   0  0  0  0  0  0  0  0  0  0  0  0
   17.5631   -5.9734  -15.7924 O   0  0  0  0  0  0  0  0  0  0  0  0
   22.1380   -4.3868  -13.4460 O   0  0  0  0  0  0  0  0  0  0  0  0
   17.3232   -5.6025  -13.5687 O   0  0  0  0  0  0  0  0  0  0  0  0
  2  1  1  1
  2  7  1  0
  2  3  1  0
  3  4  1  0
  4  5  1  0
  5  6  2  0
  7  8  2  0
  9  5  1  0
 10 11  1  0
 10  7  1  0
 12 13  1  0
 11 12  1  6
 13 14  1  0
 14 15  2  0
 14 18  1  0
 16 17  2  0
 16 11  1  0
 19 16  1  0
 20 19  1  0
 20 25  1  0
 20 21  1  6
 22 21  1  0
 23 22  1  0
 24 23  2  0
 25 28  1  0
 26 25  2  0
 27 23  1  0
M  END
$$$$
