EEE.pdb
     RDKit          3D

 28 27  0  0  1  0  0  0  0  0999 V2000
   20.9608  -13.0991  -15.6944 N   0  0  0  0  0  0  0  0  0  0  0  0
   20.6224  -12.6120  -16.9858 C   0  0  1  0  0  0  0  0  0  0  0  0
   19.6676  -13.4286  -17.7912 C   0  0  0  0  0  0  0  0  0  0  0  0
   18.4221  -13.8313  -17.0966 C   0  0  0  0  0  0  0  0  0  0  0  0
   17.9597  -15.1914  -17.4048 C   0  0  0  0  0  0  0  0  0  0  0  0
   18.8256  -16.0437  -17.7445 O   0  0  0  0  0  0  0  0  0  0  0  0
   20.1333  -11.2168  -16.9112 C   0  0  0  0  0  0  0  0  0  0  0  0
   19.8835  -10.5303  -17.9471 O   0  0  0  0  0  0  0  0  0  0  0  0
   16.6462  -15.5937  -17.3500 O   0  0  0  0  0  0  0  0  0  0  0  0
   19.9252  -10.5972  -15.6807 N   0  0  0  0  0  0  0  0  0  0  0  0
   19.3616   -9.2481  -15.5533 C   0  0  1  0  0  0  0  0  0  0  0  0
   18.1530   -9.2278  -14.7075 C   0  0  0  0  0  0  0  0  0  0  0  0
   16.9128   -9.4677  -15.5278 C   0  0  0  0  0  0  0  0  0  0  0  0
   15.6937   -9.3176  -14.6948 C   0  0  0  0  0  0  0  0  0  0  0  0
   15.7449   -9.2973  -13.4502 O   0  0  0  0  0  0  0  0  0  0  0  0
   20.4919   -8.4126  -15.0836 C   0  0  0  0  0  0  0  0  0  0  0  0
   21.4152   -8.8306  -14.3428 O   0  0  0  0  0  0  0  0  0  0  0  0
   14.4201   -9.1916  -15.2819 O   0  0  0  0  0  0  0  0  0  0  0  0
   20.6056   -7.0516  -15.4514 N   0  0  0  0  0  0  0  0  0  0  0  0
   21.7880   -6.2506  -15.1728 C   0  0  1  0  0  0  0  0  0  0  0  0
   22.0787   -5.2646  -16.2428 C   0  0  0  0  0  0  0  0  0  0  0  0
   23.3601   -4.5360  -15.9534 C   0  0  0  0  0  0  0  0  0  0  0  0
   23.5828   -3.4863  -17.0084 C   0  0  0  0  0  0  0  0  0  0  0  0
   24.5153   -2.6450  -16.8669 O   0  0  0  0  0  0  0  0  0  0  0  0
   21.5381   -5.5257  -13.9082 C   0  0  0  0  0  0  0  0  0  0  0  0
   20.4312   -5.1624  -13.4597 O   0  0  0  0  0  0  0  0  0  0  0  0
   22.7995   -3.3940  -18.1492 O   0  0  0  0  0  0  0  0  0  0  0  0
   22.6721   -5.2084  -13.1191 O   0  0  0  0  0  0  0  0  0  0  0  0
  2  1  1  1
  2  7  1  0
  2  3  1  0
  3  4  1  0
  4  5  1  0
  5  6  2  0
  7  8  2  0
  9  5  1  0
 10 11  1  0
 10  7  1  0
 12 13  1  0
 11 12  1  1
 13 14  1  0
 14 15  2  0
 14 18  1  0
 16 17  2  0
 16 11  1  0
 19 16  1  0
 20 19  1  0
 20 25  1  0
 20 21  1  6
 22 21  1  0
 23 22  1  0
 24 23  2  0
 25 28  1  0
 26 25  2  0
 27 23  1  0
M  END
$$$$
