EEE.pdb
     RDKit          3D

 28 27  0  0  1  0  0  0  0  0999 V2000
   17.6562  -11.1064  -16.9717 N   0  0  0  0  0  0  0  0  0  0  0  0
   18.4682  -10.9461  -15.8164 C   0  0  1  0  0  0  0  0  0  0  0  0
   18.6437  -12.1400  -14.9383 C   0  0  0  0  0  0  0  0  0  0  0  0
   17.3939  -12.8085  -14.5059 C   0  0  0  0  0  0  0  0  0  0  0  0
   17.0792  -14.0483  -15.2288 C   0  0  0  0  0  0  0  0  0  0  0  0
   16.4824  -13.9480  -16.3358 O   0  0  0  0  0  0  0  0  0  0  0  0
   19.7970  -10.4029  -16.1776 C   0  0  0  0  0  0  0  0  0  0  0  0
   20.6897  -10.1639  -15.3099 O   0  0  0  0  0  0  0  0  0  0  0  0
   17.3899  -15.3088  -14.7760 O   0  0  0  0  0  0  0  0  0  0  0  0
   20.1213  -10.1309  -17.5050 N   0  0  0  0  0  0  0  0  0  0  0  0
   21.4187   -9.5778  -17.9109 C   0  0  1  0  0  0  0  0  0  0  0  0
   21.8923  -10.1489  -19.1860 C   0  0  0  0  0  0  0  0  0  0  0  0
   23.1556   -9.4713  -19.6480 C   0  0  0  0  0  0  0  0  0  0  0  0
   23.6244  -10.0502  -20.9315 C   0  0  0  0  0  0  0  0  0  0  0  0
   24.0186   -9.3343  -21.8718 O   0  0  0  0  0  0  0  0  0  0  0  0
   21.2214   -8.1092  -17.8955 C   0  0  0  0  0  0  0  0  0  0  0  0
   20.3228   -7.5135  -18.5386 O   0  0  0  0  0  0  0  0  0  0  0  0
   23.6424  -11.4426  -21.1403 O   0  0  0  0  0  0  0  0  0  0  0  0
   22.0571   -7.2607  -17.1325 N   0  0  0  0  0  0  0  0  0  0  0  0
   21.8964   -5.8151  -17.0931 C   0  0  1  0  0  0  0  0  0  0  0  0
   21.5610   -5.3114  -15.7384 C   0  0  0  0  0  0  0  0  0  0  0  0
   22.6025   -5.7401  -14.7444 C   0  0  0  0  0  0  0  0  0  0  0  0
   22.2384   -5.2090  -13.3843 C   0  0  0  0  0  0  0  0  0  0  0  0
   21.5294   -4.1672  -13.2886 O   0  0  0  0  0  0  0  0  0  0  0  0
   23.1806   -5.2197  -17.5214 C   0  0  0  0  0  0  0  0  0  0  0  0
   23.4243   -4.0070  -17.6893 O   0  0  0  0  0  0  0  0  0  0  0  0
   22.6515   -5.8174  -12.2083 O   0  0  0  0  0  0  0  0  0  0  0  0
   24.2500   -6.1170  -17.7678 O   0  0  0  0  0  0  0  0  0  0  0  0
  2  1  1  6
  2  7  1  0
  2  3  1  0
  3  4  1  0
  4  5  1  0
  5  6  2  0
  7  8  2  0
  9  5  1  0
 10 11  1  0
 10  7  1  0
 12 13  1  0
 11 12  1  6
 13 14  1  0
 14 15  2  0
 14 18  1  0
 16 17  2  0
 16 11  1  0
 19 16  1  0
 20 19  1  0
 20 25  1  0
 20 21  1  1
 22 21  1  0
 23 22  1  0
 24 23  2  0
 25 28  1  0
 26 25  2  0
 27 23  1  0
M  END
$$$$
