EEE.pdb
     RDKit          3D

 28 27  0  0  1  0  0  0  0  0999 V2000
   29.2891  -34.3410   -0.6649 N   0  0  0  0  0  0  0  0  0  0  0  0
   27.9393  -33.9316   -0.8378 C   0  0  1  0  0  0  0  0  0  0  0  0
   27.1384  -34.6504   -1.8717 C   0  0  0  0  0  0  0  0  0  0  0  0
   27.8119  -34.8598   -3.1749 C   0  0  0  0  0  0  0  0  0  0  0  0
   27.2906  -34.0364   -4.2745 C   0  0  0  0  0  0  0  0  0  0  0  0
   26.3207  -33.2689   -4.0254 O   0  0  0  0  0  0  0  0  0  0  0  0
   27.2119  -33.9564    0.4513 C   0  0  0  0  0  0  0  0  0  0  0  0
   25.9763  -33.6871    0.5371 O   0  0  0  0  0  0  0  0  0  0  0  0
   27.7886  -34.0506   -5.5559 O   0  0  0  0  0  0  0  0  0  0  0  0
   27.8683  -34.2827    1.6361 N   0  0  0  0  0  0  0  0  0  0  0  0
   27.1907  -34.3227    2.9373 C   0  0  1  0  0  0  0  0  0  0  0  0
   27.3651  -35.6212    3.6155 C   0  0  0  0  0  0  0  0  0  0  0  0
   26.3232  -36.6120    3.1667 C   0  0  0  0  0  0  0  0  0  0  0  0
   25.1466  -36.5844    4.0708 C   0  0  0  0  0  0  0  0  0  0  0  0
   24.0502  -36.1150    3.7106 O   0  0  0  0  0  0  0  0  0  0  0  0
   27.7073  -33.1400    3.6656 C   0  0  0  0  0  0  0  0  0  0  0  0
   28.9194  -32.8164    3.7113 O   0  0  0  0  0  0  0  0  0  0  0  0
   25.2224  -37.0911    5.3823 O   0  0  0  0  0  0  0  0  0  0  0  0
   26.8422  -32.2751    4.3756 N   0  0  0  0  0  0  0  0  0  0  0  0
   27.3114  -31.1061    5.1038 C   0  0  1  0  0  0  0  0  0  0  0  0
   26.2105  -30.1878    5.4861 C   0  0  0  0  0  0  0  0  0  0  0  0
   25.1599  -30.9223    6.2691 C   0  0  0  0  0  0  0  0  0  0  0  0
   24.0677  -29.9621    6.6560 C   0  0  0  0  0  0  0  0  0  0  0  0
   24.1591  -28.7451    6.3275 O   0  0  0  0  0  0  0  0  0  0  0  0
   27.9774  -31.5928    6.3313 C   0  0  0  0  0  0  0  0  0  0  0  0
   27.9101  -32.7420    6.8141 O   0  0  0  0  0  0  0  0  0  0  0  0
   22.9451  -30.3541    7.3701 O   0  0  0  0  0  0  0  0  0  0  0  0
   28.7779  -30.6594    7.0366 O   0  0  0  0  0  0  0  0  0  0  0  0
  2  1  1  1
  2  7  1  0
  2  3  1  0
  3  4  1  0
  4  5  1  0
  5  6  2  0
  7  8  2  0
  9  5  1  0
 10 11  1  0
 10  7  1  0
 12 13  1  0
 11 12  1  1
 13 14  1  0
 14 15  2  0
 14 18  1  0
 16 17  2  0
 16 11  1  0
 19 16  1  0
 20 19  1  0
 20 25  1  0
 20 21  1  1
 22 21  1  0
 23 22  1  0
 24 23  2  0
 25 28  1  0
 26 25  2  0
 27 23  1  0
M  END
$$$$
