EEE.pdb
     RDKit          3D

 28 27  0  0  1  0  0  0  0  0999 V2000
   20.4640  -12.2047  -16.8723 N   0  0  0  0  0  0  0  0  0  0  0  0
   19.6983  -11.0081  -16.8373 C   0  0  1  0  0  0  0  0  0  0  0  0
   18.2633  -11.1308  -16.4465 C   0  0  0  0  0  0  0  0  0  0  0  0
   17.9739  -12.0950  -15.3591 C   0  0  0  0  0  0  0  0  0  0  0  0
   16.5514  -12.2223  -15.0141 C   0  0  0  0  0  0  0  0  0  0  0  0
   16.2459  -12.9739  -14.0479 O   0  0  0  0  0  0  0  0  0  0  0  0
   20.3530   -9.9883  -15.9870 C   0  0  0  0  0  0  0  0  0  0  0  0
   19.9689   -9.7451  -14.8037 O   0  0  0  0  0  0  0  0  0  0  0  0
   15.5333  -11.5788  -15.6770 O   0  0  0  0  0  0  0  0  0  0  0  0
   21.4328   -9.2474  -16.4627 N   0  0  0  0  0  0  0  0  0  0  0  0
   22.2383   -8.3717  -15.6035 C   0  0  1  0  0  0  0  0  0  0  0  0
   23.6855   -8.5924  -15.7854 C   0  0  0  0  0  0  0  0  0  0  0  0
   24.0928   -9.9557  -15.2914 C   0  0  0  0  0  0  0  0  0  0  0  0
   25.5698  -10.0994  -15.3005 C   0  0  0  0  0  0  0  0  0  0  0  0
   26.3174   -9.1904  -15.7092 O   0  0  0  0  0  0  0  0  0  0  0  0
   21.7518   -7.0039  -15.9012 C   0  0  0  0  0  0  0  0  0  0  0  0
   21.0602   -6.7065  -16.9058 O   0  0  0  0  0  0  0  0  0  0  0  0
   26.1910  -11.2779  -14.8446 O   0  0  0  0  0  0  0  0  0  0  0  0
   22.0439   -5.9150  -15.0471 N   0  0  0  0  0  0  0  0  0  0  0  0
   21.4492   -4.5971  -15.2101 C   0  0  1  0  0  0  0  0  0  0  0  0
   19.9716   -4.6135  -15.0771 C   0  0  0  0  0  0  0  0  0  0  0  0
   19.4246   -3.2148  -15.1064 C   0  0  0  0  0  0  0  0  0  0  0  0
   17.9581   -3.2626  -15.4403 C   0  0  0  0  0  0  0  0  0  0  0  0
   17.4282   -4.3598  -15.7759 O   0  0  0  0  0  0  0  0  0  0  0  0
   22.0155   -3.7275  -14.1564 C   0  0  0  0  0  0  0  0  0  0  0  0
   22.6709   -4.0910  -13.1580 O   0  0  0  0  0  0  0  0  0  0  0  0
   17.1441   -2.1403  -15.3983 O   0  0  0  0  0  0  0  0  0  0  0  0
   21.7935   -2.3339  -14.2907 O   0  0  0  0  0  0  0  0  0  0  0  0
  2  1  1  1
  2  7  1  0
  2  3  1  0
  3  4  1  0
  4  5  1  0
  5  6  2  0
  7  8  2  0
  9  5  1  0
 10 11  1  0
 10  7  1  0
 12 13  1  0
 11 12  1  6
 13 14  1  0
 14 15  2  0
 14 18  1  0
 16 17  2  0
 16 11  1  0
 19 16  1  0
 20 19  1  0
 20 25  1  0
 20 21  1  1
 22 21  1  0
 23 22  1  0
 24 23  2  0
 25 28  1  0
 26 25  2  0
 27 23  1  0
M  END
$$$$
