EEE.pdb
     RDKit          3D

 28 27  0  0  1  0  0  0  0  0999 V2000
   18.7611   -9.5173  -14.4472 N   0  0  0  0  0  0  0  0  0  0  0  0
   18.7589   -9.5982  -13.0284 C   0  0  1  0  0  0  0  0  0  0  0  0
   19.9652   -9.0832  -12.3166 C   0  0  0  0  0  0  0  0  0  0  0  0
   20.2922   -7.6577  -12.5555 C   0  0  0  0  0  0  0  0  0  0  0  0
   21.2346   -7.4205  -13.6575 C   0  0  0  0  0  0  0  0  0  0  0  0
   21.7000   -8.4267  -14.2598 O   0  0  0  0  0  0  0  0  0  0  0  0
   17.5474   -8.9598  -12.4661 C   0  0  0  0  0  0  0  0  0  0  0  0
   16.9196   -8.0431  -13.0763 O   0  0  0  0  0  0  0  0  0  0  0  0
   21.6438   -6.1751  -14.0719 O   0  0  0  0  0  0  0  0  0  0  0  0
   17.0439   -9.3496  -11.2269 N   0  0  0  0  0  0  0  0  0  0  0  0
   15.7482   -8.8901  -10.7132 C   0  0  1  0  0  0  0  0  0  0  0  0
   14.9936   -9.9749  -10.0574 C   0  0  0  0  0  0  0  0  0  0  0  0
   14.2972  -10.8422  -11.0730 C   0  0  0  0  0  0  0  0  0  0  0  0
   13.4211  -11.8360  -10.4043 C   0  0  0  0  0  0  0  0  0  0  0  0
   13.4408  -12.0064   -9.1703 O   0  0  0  0  0  0  0  0  0  0  0  0
   16.0757   -7.7242   -9.8590 C   0  0  0  0  0  0  0  0  0  0  0  0
   17.0914   -7.6536   -9.1247 O   0  0  0  0  0  0  0  0  0  0  0  0
   12.5256  -12.6330  -11.1429 O   0  0  0  0  0  0  0  0  0  0  0  0
   15.2404   -6.5836   -9.8161 N   0  0  0  0  0  0  0  0  0  0  0  0
   15.5582   -5.3964   -9.0372 C   0  0  1  0  0  0  0  0  0  0  0  0
   15.8758   -4.2211   -9.8854 C   0  0  0  0  0  0  0  0  0  0  0  0
   16.1027   -3.0038   -9.0350 C   0  0  0  0  0  0  0  0  0  0  0  0
   16.4110   -1.8288   -9.9231 C   0  0  0  0  0  0  0  0  0  0  0  0
   16.3840   -1.9695  -11.1788 O   0  0  0  0  0  0  0  0  0  0  0  0
   14.3722   -5.0843   -8.2106 C   0  0  0  0  0  0  0  0  0  0  0  0
   13.2232   -5.5539   -8.3426 O   0  0  0  0  0  0  0  0  0  0  0  0
   16.7306   -0.5756   -9.4220 O   0  0  0  0  0  0  0  0  0  0  0  0
   14.5553   -4.1548   -7.1561 O   0  0  0  0  0  0  0  0  0  0  0  0
  2  1  1  6
  2  7  1  0
  2  3  1  0
  3  4  1  0
  4  5  1  0
  5  6  2  0
  7  8  2  0
  9  5  1  0
 10 11  1  0
 10  7  1  0
 12 13  1  0
 11 12  1  1
 13 14  1  0
 14 15  2  0
 14 18  1  0
 16 17  2  0
 16 11  1  0
 19 16  1  0
 20 19  1  0
 20 25  1  0
 20 21  1  6
 22 21  1  0
 23 22  1  0
 24 23  2  0
 25 28  1  0
 26 25  2  0
 27 23  1  0
M  END
$$$$
