KCY.pdb
     RDKit          3D

 28 28  0  0  1  0  0  0  0  0999 V2000
    8.7899  -15.5012   18.1776 N   0  0  0  0  0  0  0  0  0  0  0  0
    8.4004  -14.2945   18.8731 C   0  0  1  0  0  0  0  0  0  0  0  0
    7.4412  -13.5138   18.0245 C   0  0  0  0  0  0  0  0  0  0  0  0
    7.3779  -14.1379   16.6554 C   0  0  0  0  0  0  0  0  0  0  0  0
    8.2658  -13.3936   15.7048 C   0  0  0  0  0  0  0  0  0  0  0  0
    8.1461  -13.9314   14.2877 C   0  0  0  0  0  0  0  0  0  0  0  0
    9.0488  -13.1534   13.4591 N   0  0  0  0  0  0  0  0  0  0  0  0
    7.6658  -14.6650   20.1381 C   0  0  0  0  0  0  0  0  0  0  0  0
    7.1658  -13.8035   20.8947 O   0  0  0  0  0  0  0  0  0  0  0  0
    7.5344  -16.0357   20.4867 N   0  0  0  0  0  0  0  0  0  0  0  0
    6.8851  -16.3754   21.7386 C   0  0  1  0  0  0  0  0  0  0  0  0
    6.5842  -17.8723   21.7912 C   0  0  0  0  0  0  0  0  0  0  0  0
    5.8227  -18.3176   23.3692 S   0  0  0  0  0  0  0  0  0  0  0  0
    7.8947  -16.1347   22.8324 C   0  0  0  0  0  0  0  0  0  0  0  0
    9.1078  -16.4453   22.6891 O   0  0  0  0  0  0  0  0  0  0  0  0
   11.4959  -14.9616   30.6104 O   0  0  0  0  0  0  0  0  0  0  0  0
   10.5689  -14.9639   29.5522 C   0  0  0  0  0  0  0  0  0  0  0  0
   10.5752  -13.8565   28.7402 C   0  0  0  0  0  0  0  0  0  0  0  0
    9.6796  -13.7905   27.6675 C   0  0  0  0  0  0  0  0  0  0  0  0
    8.8226  -14.8312   27.4576 C   0  0  0  0  0  0  0  0  0  0  0  0
    7.8655  -14.8010   26.3381 C   0  0  0  0  0  0  0  0  0  0  0  0
    8.4785  -15.5226   25.1593 C   0  0  2  0  0  0  0  0  0  0  0  0
    7.5260  -15.5510   24.0651 N   0  0  0  0  0  0  0  0  0  0  0  0
    8.8268  -16.9335   25.4599 C   0  0  0  0  0  0  0  0  0  0  0  0
    7.9158  -17.7999   25.4923 O   0  0  0  0  0  0  0  0  0  0  0  0
    8.8382  -15.9309   28.2891 C   0  0  0  0  0  0  0  0  0  0  0  0
    9.7127  -16.0289   29.3615 C   0  0  0  0  0  0  0  0  0  0  0  0
   10.1180  -17.3755   25.7139 O   0  0  0  0  0  0  0  0  0  0  0  0
  2  1  1  6
  3  2  1  0
  4  5  1  0
  4  3  1  0
  5  6  1  0
  7  6  1  0
  8 10  1  0
  8  2  1  0
  9  8  2  0
 11 10  1  0
 11 12  1  6
 13 12  1  0
 14 11  1  0
 15 14  2  0
 16 17  1  0
 17 27  2  0
 17 18  1  0
 18 19  2  0
 19 20  1  0
 20 21  1  0
 22 21  1  1
 22 24  1  0
 22 23  1  0
 23 14  1  0
 24 28  1  0
 25 24  2  0
 26 20  2  0
 27 26  1  0
M  END
$$$$
