KCY.pdb
     RDKit          3D

 28 28  0  0  1  0  0  0  0  0999 V2000
    8.7336  -16.2763   18.1135 N   0  0  0  0  0  0  0  0  0  0  0  0
    9.3991  -15.0911   18.6076 C   0  0  1  0  0  0  0  0  0  0  0  0
    9.2261  -13.9719   17.6242 C   0  0  0  0  0  0  0  0  0  0  0  0
    9.1596  -14.5468   16.2338 C   0  0  0  0  0  0  0  0  0  0  0  0
    7.8572  -14.1871   15.5857 C   0  0  0  0  0  0  0  0  0  0  0  0
    7.7368  -14.7907   14.1954 C   0  0  0  0  0  0  0  0  0  0  0  0
    8.8447  -14.2773   13.4107 N   0  0  0  0  0  0  0  0  0  0  0  0
    8.7418  -14.6514   19.8928 C   0  0  0  0  0  0  0  0  0  0  0  0
    9.0443  -13.5799   20.4630 O   0  0  0  0  0  0  0  0  0  0  0  0
    7.7460  -15.4771   20.4795 N   0  0  0  0  0  0  0  0  0  0  0  0
    7.0297  -14.9840   21.6405 C   0  0  1  0  0  0  0  0  0  0  0  0
    5.6689  -15.6690   21.7548 C   0  0  0  0  0  0  0  0  0  0  0  0
    5.8659  -17.4261   22.1320 S   0  0  0  0  0  0  0  0  0  0  0  0
    7.8038  -15.4341   22.8537 C   0  0  0  0  0  0  0  0  0  0  0  0
    8.5791  -16.4269   22.8095 O   0  0  0  0  0  0  0  0  0  0  0  0
   11.2027  -16.2634   30.7477 O   0  0  0  0  0  0  0  0  0  0  0  0
   10.5155  -15.7874   29.6162 C   0  0  0  0  0  0  0  0  0  0  0  0
   10.2421  -14.4419   29.5962 C   0  0  0  0  0  0  0  0  0  0  0  0
    9.5611  -13.8991   28.5013 C   0  0  0  0  0  0  0  0  0  0  0  0
    9.1868  -14.7242   27.4811 C   0  0  0  0  0  0  0  0  0  0  0  0
    8.4696  -14.1914   26.3098 C   0  0  0  0  0  0  0  0  0  0  0  0
    8.4176  -15.2649   25.2464 C   0  0  2  0  0  0  0  0  0  0  0  0
    7.6946  -14.7635   24.0925 N   0  0  0  0  0  0  0  0  0  0  0  0
    7.7114  -16.4911   25.6938 C   0  0  0  0  0  0  0  0  0  0  0  0
    6.4545  -16.5238   25.6651 O   0  0  0  0  0  0  0  0  0  0  0  0
    9.4745  -16.0718   27.5278 C   0  0  0  0  0  0  0  0  0  0  0  0
   10.1479  -16.6428   28.5978 C   0  0  0  0  0  0  0  0  0  0  0  0
    8.3552  -17.6321   26.1528 O   0  0  0  0  0  0  0  0  0  0  0  0
  2  1  1  6
  3  2  1  0
  4  5  1  0
  4  3  1  0
  5  6  1  0
  7  6  1  0
  8 10  1  0
  8  2  1  0
  9  8  2  0
 11 10  1  0
 11 12  1  1
 13 12  1  0
 14 11  1  0
 15 14  2  0
 16 17  1  0
 17 27  2  0
 17 18  1  0
 18 19  2  0
 19 20  1  0
 20 21  1  0
 22 21  1  1
 22 24  1  0
 22 23  1  0
 23 14  1  0
 24 28  1  0
 25 24  2  0
 26 20  2  0
 27 26  1  0
M  END
$$$$
