KCY.pdb
     RDKit          3D

 28 28  0  0  1  0  0  0  0  0999 V2000
    9.1408  -19.9434   16.8894 N   0  0  0  0  0  0  0  0  0  0  0  0
    9.3418  -18.6528   17.5104 C   0  0  1  0  0  0  0  0  0  0  0  0
    8.4953  -17.6260   16.8185 C   0  0  0  0  0  0  0  0  0  0  0  0
    9.0709  -17.3552   15.4535 C   0  0  0  0  0  0  0  0  0  0  0  0
    8.1982  -16.3949   14.7039 C   0  0  0  0  0  0  0  0  0  0  0  0
    8.7330  -16.1241   13.3066 C   0  0  0  0  0  0  0  0  0  0  0  0
    7.8263  -15.1804   12.6788 N   0  0  0  0  0  0  0  0  0  0  0  0
    8.8746  -18.7129   18.9440 C   0  0  0  0  0  0  0  0  0  0  0  0
    7.7445  -19.1473   19.2587 O   0  0  0  0  0  0  0  0  0  0  0  0
    9.7420  -18.2628   19.9748 N   0  0  0  0  0  0  0  0  0  0  0  0
    9.3101  -18.3941   21.3534 C   0  0  1  0  0  0  0  0  0  0  0  0
   10.1026  -19.4958   22.0550 C   0  0  0  0  0  0  0  0  0  0  0  0
   11.8676  -19.3442   21.6946 S   0  0  0  0  0  0  0  0  0  0  0  0
    9.6987  -17.1173   22.0551 C   0  0  0  0  0  0  0  0  0  0  0  0
   10.7982  -16.5465   21.8233 O   0  0  0  0  0  0  0  0  0  0  0  0
    7.2749  -13.0813   18.0889 O   0  0  0  0  0  0  0  0  0  0  0  0
    7.4486  -13.4072   19.4463 C   0  0  0  0  0  0  0  0  0  0  0  0
    8.4748  -12.7661   20.0957 C   0  0  0  0  0  0  0  0  0  0  0  0
    8.7059  -13.0416   21.4477 C   0  0  0  0  0  0  0  0  0  0  0  0
    7.9028  -13.9419   22.0850 C   0  0  0  0  0  0  0  0  0  0  0  0
    8.1121  -14.2583   23.5084 C   0  0  0  0  0  0  0  0  0  0  0  0
    9.2451  -15.2532   23.6203 C   0  0  2  0  0  0  0  0  0  0  0  0
    8.8481  -16.5048   23.0026 N   0  0  0  0  0  0  0  0  0  0  0  0
    9.6066  -15.5654   25.0253 C   0  0  0  0  0  0  0  0  0  0  0  0
    9.2310  -16.6538   25.5312 O   0  0  0  0  0  0  0  0  0  0  0  0
    6.8796  -14.5709   21.4079 C   0  0  0  0  0  0  0  0  0  0  0  0
    6.6228  -14.3213   20.0677 C   0  0  0  0  0  0  0  0  0  0  0  0
   10.3478  -14.7209   25.8406 O   0  0  0  0  0  0  0  0  0  0  0  0
  2  1  1  6
  3  2  1  0
  4  5  1  0
  4  3  1  0
  5  6  1  0
  7  6  1  0
  8 10  1  0
  8  2  1  0
  9  8  2  0
 11 10  1  0
 11 12  1  1
 13 12  1  0
 14 11  1  0
 15 14  2  0
 16 17  1  0
 17 27  2  0
 17 18  1  0
 18 19  2  0
 19 20  1  0
 20 21  1  0
 22 21  1  1
 22 24  1  0
 22 23  1  0
 23 14  1  0
 24 28  1  0
 25 24  2  0
 26 20  2  0
 27 26  1  0
M  END
$$$$
