KCY.pdb
     RDKit          3D

 28 28  0  0  1  0  0  0  0  0999 V2000
    7.2434  -18.8909   18.9511 N   0  0  0  0  0  0  0  0  0  0  0  0
    7.0386  -18.4505   20.3133 C   0  0  1  0  0  0  0  0  0  0  0  0
    7.2349  -19.6062   21.2490 C   0  0  0  0  0  0  0  0  0  0  0  0
    6.2819  -20.7096   20.8718 C   0  0  0  0  0  0  0  0  0  0  0  0
    6.4745  -21.8916   21.7727 C   0  0  0  0  0  0  0  0  0  0  0  0
    5.5938  -23.0605   21.3606 C   0  0  0  0  0  0  0  0  0  0  0  0
    5.8885  -24.1560   22.2660 N   0  0  0  0  0  0  0  0  0  0  0  0
    8.0828  -17.4193   20.6646 C   0  0  0  0  0  0  0  0  0  0  0  0
    9.2439  -17.4625   20.2013 O   0  0  0  0  0  0  0  0  0  0  0  0
    7.7422  -16.3622   21.5501 N   0  0  0  0  0  0  0  0  0  0  0  0
    8.7258  -15.3279   21.8087 C   0  0  1  0  0  0  0  0  0  0  0  0
    8.2511  -13.9908   21.2423 C   0  0  0  0  0  0  0  0  0  0  0  0
    6.5565  -13.6390   21.7647 S   0  0  0  0  0  0  0  0  0  0  0  0
    8.7700  -15.1326   23.3032 C   0  0  0  0  0  0  0  0  0  0  0  0
    8.1448  -14.1926   23.8636 O   0  0  0  0  0  0  0  0  0  0  0  0
    6.2796  -10.5685   26.7851 O   0  0  0  0  0  0  0  0  0  0  0  0
    6.7743  -11.8764   26.6302 C   0  0  0  0  0  0  0  0  0  0  0  0
    5.9226  -12.7796   26.0433 C   0  0  0  0  0  0  0  0  0  0  0  0
    6.3482  -14.0992   25.8575 C   0  0  0  0  0  0  0  0  0  0  0  0
    7.6013  -14.4528   26.2656 C   0  0  0  0  0  0  0  0  0  0  0  0
    8.0877  -15.8316   26.0862 C   0  0  0  0  0  0  0  0  0  0  0  0
    9.5099  -15.7791   25.5758 C   0  0  2  0  0  0  0  0  0  0  0  0
    9.5136  -15.9939   24.1408 N   0  0  0  0  0  0  0  0  0  0  0  0
   10.3778  -16.8276   26.1674 C   0  0  0  0  0  0  0  0  0  0  0  0
   10.5482  -16.8563   27.4131 O   0  0  0  0  0  0  0  0  0  0  0  0
    8.4354  -13.5248   26.8522 C   0  0  0  0  0  0  0  0  0  0  0  0
    8.0455  -12.2085   27.0516 C   0  0  0  0  0  0  0  0  0  0  0  0
   11.0306  -17.8025   25.4254 O   0  0  0  0  0  0  0  0  0  0  0  0
  2  1  1  6
  3  2  1  0
  4  5  1  0
  4  3  1  0
  5  6  1  0
  7  6  1  0
  8 10  1  0
  8  2  1  0
  9  8  2  0
 11 10  1  0
 11 12  1  6
 13 12  1  0
 14 11  1  0
 15 14  2  0
 16 17  1  0
 17 27  2  0
 17 18  1  0
 18 19  2  0
 19 20  1  0
 20 21  1  0
 22 21  1  1
 22 24  1  0
 22 23  1  0
 23 14  1  0
 24 28  1  0
 25 24  2  0
 26 20  2  0
 27 26  1  0
M  END
$$$$
