FQD.pdb
     RDKit          3D

 29 29  0  0  1  0  0  0  0  0999 V2000
    6.3015  -17.4784   26.0031 N   0  0  0  0  0  0  0  0  0  0  0  0
    6.6329  -16.1893   25.3867 C   0  0  1  0  0  0  0  0  0  0  0  0
    7.5075  -15.4441   26.3678 C   0  0  0  0  0  0  0  0  0  0  0  0
    7.0342  -14.0581   26.5952 C   0  0  0  0  0  0  0  0  0  0  0  0
    7.7373  -13.2260   27.4536 C   0  0  0  0  0  0  0  0  0  0  0  0
    7.3089  -11.9335   27.6746 C   0  0  0  0  0  0  0  0  0  0  0  0
    6.1734  -11.4532   27.0427 C   0  0  0  0  0  0  0  0  0  0  0  0
    5.4724  -12.2804   26.1879 C   0  0  0  0  0  0  0  0  0  0  0  0
    5.9165  -13.5765   25.9768 C   0  0  0  0  0  0  0  0  0  0  0  0
    7.4331  -16.3988   24.1448 C   0  0  0  0  0  0  0  0  0  0  0  0
    8.1608  -17.4330   24.0889 O   0  0  0  0  0  0  0  0  0  0  0  0
    7.6148  -12.5359   18.8692 N   0  0  0  0  0  0  0  0  0  0  0  0
    8.2313  -13.7531   18.5079 C   0  0  0  0  0  0  0  0  0  0  0  0
    8.5318  -13.9341   17.3086 O   0  0  0  0  0  0  0  0  0  0  0  0
    8.5208  -14.7948   19.5110 C   0  0  0  0  0  0  0  0  0  0  0  0
    7.9125  -14.5788   20.8470 C   0  0  0  0  0  0  0  0  0  0  0  0
    8.1407  -15.6813   21.8481 C   0  0  2  0  0  0  0  0  0  0  0  0
    7.3936  -15.4889   23.0596 N   0  0  0  0  0  0  0  0  0  0  0  0
    9.5973  -15.6967   22.1318 C   0  0  0  0  0  0  0  0  0  0  0  0
   10.1019  -14.7443   22.7535 O   0  0  0  0  0  0  0  0  0  0  0  0
   10.4004  -16.7702   21.7056 N   0  0  0  0  0  0  0  0  0  0  0  0
   11.8204  -16.8194   22.0559 C   0  0  1  0  0  0  0  0  0  0  0  0
   12.2053  -18.2018   22.4499 C   0  0  0  0  0  0  0  0  0  0  0  0
   12.4413  -18.3838   23.8759 C   0  0  0  0  0  0  0  0  0  0  0  0
   12.4690  -17.3201   24.6000 O   0  0  0  0  0  0  0  0  0  0  0  0
   12.5782  -16.2743   20.9118 C   0  0  0  0  0  0  0  0  0  0  0  0
   13.8139  -16.0100   21.0889 O   0  0  0  0  0  0  0  0  0  0  0  0
   12.6422  -19.5500   24.5616 O   0  0  0  0  0  0  0  0  0  0  0  0
   12.0846  -16.0178   19.6565 O   0  0  0  0  0  0  0  0  0  0  0  0
  2  1  1  1
  2  3  1  0
  3  4  1  0
  4  9  2  0
  5  6  2  0
  5  4  1  0
  6  7  1  0
  7  8  2  0
  9  8  1  0
 10 11  2  0
 10  2  1  0
 12 13  1  0
 13 14  2  0
 15 13  1  0
 15 16  1  0
 17 16  1  6
 17 18  1  0
 18 10  1  0
 19 17  1  0
 19 21  1  0
 20 19  2  0
 22 21  1  0
 22 26  1  0
 23 24  1  0
 22 23  1  6
 24 25  2  0
 26 29  1  0
 27 26  2  0
 28 24  1  0
M  END
$$$$
