FQD.pdb
     RDKit          3D

 29 29  0  0  1  0  0  0  0  0999 V2000
    9.0344  -16.9068   19.2434 N   0  0  0  0  0  0  0  0  0  0  0  0
   10.2590  -16.1314   19.4681 C   0  0  1  0  0  0  0  0  0  0  0  0
    9.9832  -15.1977   20.6234 C   0  0  0  0  0  0  0  0  0  0  0  0
    8.9145  -14.2205   20.3073 C   0  0  0  0  0  0  0  0  0  0  0  0
    8.8290  -13.0406   21.0312 C   0  0  0  0  0  0  0  0  0  0  0  0
    7.8400  -12.1216   20.7480 C   0  0  0  0  0  0  0  0  0  0  0  0
    6.9227  -12.3667   19.7390 C   0  0  0  0  0  0  0  0  0  0  0  0
    7.0066  -13.5409   19.0176 C   0  0  0  0  0  0  0  0  0  0  0  0
    8.0066  -14.4538   19.3149 C   0  0  0  0  0  0  0  0  0  0  0  0
   11.3753  -17.0324   19.8787 C   0  0  0  0  0  0  0  0  0  0  0  0
   11.2776  -18.2567   19.5725 O   0  0  0  0  0  0  0  0  0  0  0  0
   14.9861  -13.3528   17.7383 N   0  0  0  0  0  0  0  0  0  0  0  0
   15.7624  -14.5256   17.6179 C   0  0  0  0  0  0  0  0  0  0  0  0
   16.9029  -14.4345   17.1155 O   0  0  0  0  0  0  0  0  0  0  0  0
   15.2532  -15.8335   18.0708 C   0  0  0  0  0  0  0  0  0  0  0  0
   13.9262  -15.8051   18.7341 C   0  0  0  0  0  0  0  0  0  0  0  0
   13.8347  -16.5654   20.0316 C   0  0  2  0  0  0  0  0  0  0  0  0
   12.5086  -16.5564   20.5832 N   0  0  0  0  0  0  0  0  0  0  0  0
   14.7910  -15.9202   20.9652 C   0  0  0  0  0  0  0  0  0  0  0  0
   15.9762  -15.7785   20.6137 O   0  0  0  0  0  0  0  0  0  0  0  0
   14.3686  -15.4741   22.2307 N   0  0  0  0  0  0  0  0  0  0  0  0
   14.8539  -16.1263   23.4476 C   0  0  1  0  0  0  0  0  0  0  0  0
   14.2415  -17.4753   23.5872 C   0  0  0  0  0  0  0  0  0  0  0  0
   14.7013  -18.2348   24.7423 C   0  0  0  0  0  0  0  0  0  0  0  0
   15.1171  -19.4325   24.5212 O   0  0  0  0  0  0  0  0  0  0  0  0
   16.3294  -16.1253   23.3925 C   0  0  0  0  0  0  0  0  0  0  0  0
   16.9558  -15.4155   24.2482 O   0  0  0  0  0  0  0  0  0  0  0  0
   14.7511  -17.8426   26.0516 O   0  0  0  0  0  0  0  0  0  0  0  0
   17.1113  -16.8196   22.5027 O   0  0  0  0  0  0  0  0  0  0  0  0
  2  1  1  1
  2  3  1  0
  3  4  1  0
  4  9  2  0
  5  6  2  0
  5  4  1  0
  6  7  1  0
  7  8  2  0
  9  8  1  0
 10 11  2  0
 10  2  1  0
 12 13  1  0
 13 14  2  0
 15 13  1  0
 15 16  1  0
 17 16  1  6
 17 18  1  0
 18 10  1  0
 19 17  1  0
 19 21  1  0
 20 19  2  0
 22 21  1  0
 22 26  1  0
 23 24  1  0
 22 23  1  6
 24 25  2  0
 26 29  1  0
 27 26  2  0
 28 24  1  0
M  END
$$$$
