FQD.pdb
     RDKit          3D

 29 29  0  0  1  0  0  0  0  0999 V2000
    6.0456  -18.2479   21.2183 N   0  0  0  0  0  0  0  0  0  0  0  0
    7.1562  -17.3029   21.0603 C   0  0  1  0  0  0  0  0  0  0  0  0
    6.8879  -16.1478   21.9965 C   0  0  0  0  0  0  0  0  0  0  0  0
    7.2402  -14.8434   21.3873 C   0  0  0  0  0  0  0  0  0  0  0  0
    7.5149  -13.7572   22.2048 C   0  0  0  0  0  0  0  0  0  0  0  0
    7.8445  -12.5371   21.6520 C   0  0  0  0  0  0  0  0  0  0  0  0
    7.9046  -12.3835   20.2764 C   0  0  0  0  0  0  0  0  0  0  0  0
    7.6313  -13.4638   19.4613 C   0  0  0  0  0  0  0  0  0  0  0  0
    7.3018  -14.6830   20.0330 C   0  0  0  0  0  0  0  0  0  0  0  0
    8.4391  -17.9346   21.4865 C   0  0  0  0  0  0  0  0  0  0  0  0
    8.3754  -19.0848   22.0111 O   0  0  0  0  0  0  0  0  0  0  0  0
   12.7588  -18.7473   17.2085 N   0  0  0  0  0  0  0  0  0  0  0  0
   11.3623  -18.6013   17.0636 C   0  0  0  0  0  0  0  0  0  0  0  0
   10.8757  -18.6516   15.9137 O   0  0  0  0  0  0  0  0  0  0  0  0
   10.4863  -18.3949   18.2319 C   0  0  0  0  0  0  0  0  0  0  0  0
   11.0132  -17.4723   19.2677 C   0  0  0  0  0  0  0  0  0  0  0  0
   10.8183  -17.9200   20.6930 C   0  0  2  0  0  0  0  0  0  0  0  0
    9.6895  -17.2899   21.3189 N   0  0  0  0  0  0  0  0  0  0  0  0
   12.0698  -17.5815   21.4149 C   0  0  0  0  0  0  0  0  0  0  0  0
   13.1447  -18.0702   21.0227 O   0  0  0  0  0  0  0  0  0  0  0  0
   12.0464  -16.7211   22.5277 N   0  0  0  0  0  0  0  0  0  0  0  0
   13.1734  -16.6834   23.4604 C   0  0  1  0  0  0  0  0  0  0  0  0
   13.3348  -18.0047   24.1256 C   0  0  0  0  0  0  0  0  0  0  0  0
   12.9142  -18.0385   25.5200 C   0  0  0  0  0  0  0  0  0  0  0  0
   12.8087  -16.9059   26.1220 O   0  0  0  0  0  0  0  0  0  0  0  0
   14.3580  -16.2278   22.7059 C   0  0  0  0  0  0  0  0  0  0  0  0
   14.4900  -16.6350   21.5039 O   0  0  0  0  0  0  0  0  0  0  0  0
   12.6124  -19.1278   26.2900 O   0  0  0  0  0  0  0  0  0  0  0  0
   15.3489  -15.3981   23.1696 O   0  0  0  0  0  0  0  0  0  0  0  0
  2  1  1  1
  2  3  1  0
  3  4  1  0
  4  9  2  0
  5  6  2  0
  5  4  1  0
  6  7  1  0
  7  8  2  0
  9  8  1  0
 10 11  2  0
 10  2  1  0
 12 13  1  0
 13 14  2  0
 15 13  1  0
 15 16  1  0
 17 16  1  6
 17 18  1  0
 18 10  1  0
 19 17  1  0
 19 21  1  0
 20 19  2  0
 22 21  1  0
 22 26  1  0
 23 24  1  0
 22 23  1  6
 24 25  2  0
 26 29  1  0
 27 26  2  0
 28 24  1  0
M  END
$$$$
