FQD.pdb
     RDKit          3D

 29 29  0  0  1  0  0  0  0  0999 V2000
    6.0001  -18.0338   25.8033 N   0  0  0  0  0  0  0  0  0  0  0  0
    6.2743  -16.6192   25.5292 C   0  0  1  0  0  0  0  0  0  0  0  0
    6.8896  -16.0394   26.7814 C   0  0  0  0  0  0  0  0  0  0  0  0
    7.0621  -14.5702   26.6888 C   0  0  0  0  0  0  0  0  0  0  0  0
    5.9469  -13.7461   26.7189 C   0  0  0  0  0  0  0  0  0  0  0  0
    6.0921  -12.3770   26.6341 C   0  0  0  0  0  0  0  0  0  0  0  0
    7.3513  -11.8109   26.5179 C   0  0  0  0  0  0  0  0  0  0  0  0
    8.4623  -12.6300   26.4877 C   0  0  0  0  0  0  0  0  0  0  0  0
    8.2989  -14.0039   26.5742 C   0  0  0  0  0  0  0  0  0  0  0  0
    7.2806  -16.4885   24.4353 C   0  0  0  0  0  0  0  0  0  0  0  0
    8.1814  -17.3750   24.3643 O   0  0  0  0  0  0  0  0  0  0  0  0
    6.8774  -13.2661   19.1030 N   0  0  0  0  0  0  0  0  0  0  0  0
    8.2690  -13.4829   19.1970 C   0  0  0  0  0  0  0  0  0  0  0  0
    8.9617  -13.3530   18.1652 O   0  0  0  0  0  0  0  0  0  0  0  0
    8.9039  -13.8531   20.4756 C   0  0  0  0  0  0  0  0  0  0  0  0
    7.9747  -14.0416   21.6169 C   0  0  0  0  0  0  0  0  0  0  0  0
    8.1775  -15.3031   22.4152 C   0  0  2  0  0  0  0  0  0  0  0  0
    7.2467  -15.4228   23.5025 N   0  0  0  0  0  0  0  0  0  0  0  0
    9.5705  -15.2585   22.9252 C   0  0  0  0  0  0  0  0  0  0  0  0
    9.9481  -14.2601   23.5647 O   0  0  0  0  0  0  0  0  0  0  0  0
   10.4552  -16.3269   22.6912 N   0  0  0  0  0  0  0  0  0  0  0  0
   11.8335  -16.2695   23.1795 C   0  0  1  0  0  0  0  0  0  0  0  0
   12.2678  -17.6119   23.6526 C   0  0  0  0  0  0  0  0  0  0  0  0
   11.6232  -18.0618   24.8793 C   0  0  0  0  0  0  0  0  0  0  0  0
   11.8704  -17.3859   25.9463 O   0  0  0  0  0  0  0  0  0  0  0  0
   12.6636  -15.7023   22.0980 C   0  0  0  0  0  0  0  0  0  0  0  0
   13.8745  -15.4067   22.3708 O   0  0  0  0  0  0  0  0  0  0  0  0
   10.7781  -19.1226   25.0549 O   0  0  0  0  0  0  0  0  0  0  0  0
   12.2626  -15.4556   20.8083 O   0  0  0  0  0  0  0  0  0  0  0  0
  2  1  1  1
  2  3  1  0
  3  4  1  0
  4  9  2  0
  5  6  2  0
  5  4  1  0
  6  7  1  0
  7  8  2  0
  9  8  1  0
 10 11  2  0
 10  2  1  0
 12 13  1  0
 13 14  2  0
 15 13  1  0
 15 16  1  0
 17 16  1  1
 17 18  1  0
 18 10  1  0
 19 17  1  0
 19 21  1  0
 20 19  2  0
 22 21  1  0
 22 26  1  0
 23 24  1  0
 22 23  1  6
 24 25  2  0
 26 29  1  0
 27 26  2  0
 28 24  1  0
M  END
$$$$
