FQD.pdb
     RDKit          3D

 29 29  0  0  1  0  0  0  0  0999 V2000
    6.3732  -17.4375   25.9290 N   0  0  0  0  0  0  0  0  0  0  0  0
    6.0055  -16.7687   24.6765 C   0  0  1  0  0  0  0  0  0  0  0  0
    5.3797  -15.4456   25.0511 C   0  0  0  0  0  0  0  0  0  0  0  0
    6.3168  -14.5795   25.8052 C   0  0  0  0  0  0  0  0  0  0  0  0
    7.0103  -15.0999   26.8878 C   0  0  0  0  0  0  0  0  0  0  0  0
    7.8861  -14.3059   27.5988 C   0  0  0  0  0  0  0  0  0  0  0  0
    8.0821  -12.9821   27.2400 C   0  0  0  0  0  0  0  0  0  0  0  0
    7.3924  -12.4628   26.1626 C   0  0  0  0  0  0  0  0  0  0  0  0
    6.5162  -13.2742   25.4588 C   0  0  0  0  0  0  0  0  0  0  0  0
    7.2250  -16.4733   23.8689 C   0  0  0  0  0  0  0  0  0  0  0  0
    8.2461  -17.1933   24.0722 O   0  0  0  0  0  0  0  0  0  0  0  0
    8.7249  -12.5718   18.7099 N   0  0  0  0  0  0  0  0  0  0  0  0
    7.8085  -13.6376   18.5803 C   0  0  0  0  0  0  0  0  0  0  0  0
    7.2881  -13.8414   17.4626 O   0  0  0  0  0  0  0  0  0  0  0  0
    7.4649  -14.4988   19.7271 C   0  0  0  0  0  0  0  0  0  0  0  0
    8.0998  -14.1266   21.0156 C   0  0  0  0  0  0  0  0  0  0  0  0
    8.3371  -15.2654   21.9730 C   0  0  2  0  0  0  0  0  0  0  0  0
    7.2593  -15.4334   22.9074 N   0  0  0  0  0  0  0  0  0  0  0  0
    9.6014  -14.9580   22.6868 C   0  0  0  0  0  0  0  0  0  0  0  0
    9.5725  -14.1849   23.6613 O   0  0  0  0  0  0  0  0  0  0  0  0
   10.8177  -15.5297   22.2711 N   0  0  0  0  0  0  0  0  0  0  0  0
   11.8491  -15.8737   23.2506 C   0  0  1  0  0  0  0  0  0  0  0  0
   11.3153  -16.8508   24.2379 C   0  0  0  0  0  0  0  0  0  0  0  0
   12.2972  -17.3485   25.1921 C   0  0  0  0  0  0  0  0  0  0  0  0
   12.4413  -16.6766   26.2804 O   0  0  0  0  0  0  0  0  0  0  0  0
   13.0324  -16.3425   22.5021 C   0  0  0  0  0  0  0  0  0  0  0  0
   14.0705  -16.6629   23.1712 O   0  0  0  0  0  0  0  0  0  0  0  0
   13.1010  -18.4500   25.0871 O   0  0  0  0  0  0  0  0  0  0  0  0
   13.1346  -16.4720   21.1390 O   0  0  0  0  0  0  0  0  0  0  0  0
  2  1  1  1
  2  3  1  0
  3  4  1  0
  4  9  2  0
  5  6  2  0
  5  4  1  0
  6  7  1  0
  7  8  2  0
  9  8  1  0
 10 11  2  0
 10  2  1  0
 12 13  1  0
 13 14  2  0
 15 13  1  0
 15 16  1  0
 17 16  1  6
 17 18  1  0
 18 10  1  0
 19 17  1  0
 19 21  1  0
 20 19  2  0
 22 21  1  0
 22 26  1  0
 23 24  1  0
 22 23  1  1
 24 25  2  0
 26 29  1  0
 27 26  2  0
 28 24  1  0
M  END
$$$$
