FQD.pdb
     RDKit          3D

 29 29  0  0  1  0  0  0  0  0999 V2000
    6.5928  -15.6975   21.4276 N   0  0  0  0  0  0  0  0  0  0  0  0
    7.2773  -14.9847   22.5115 C   0  0  1  0  0  0  0  0  0  0  0  0
    6.2614  -14.7727   23.6095 C   0  0  0  0  0  0  0  0  0  0  0  0
    6.8274  -14.0219   24.7552 C   0  0  0  0  0  0  0  0  0  0  0  0
    7.2332  -12.7073   24.5796 C   0  0  0  0  0  0  0  0  0  0  0  0
    7.7615  -11.9959   25.6368 C   0  0  0  0  0  0  0  0  0  0  0  0
    7.8924  -12.5858   26.8836 C   0  0  0  0  0  0  0  0  0  0  0  0
    7.4889  -13.8944   27.0598 C   0  0  0  0  0  0  0  0  0  0  0  0
    6.9600  -14.5951   25.9870 C   0  0  0  0  0  0  0  0  0  0  0  0
    8.3738  -15.8260   23.0740 C   0  0  0  0  0  0  0  0  0  0  0  0
    8.0727  -16.9941   23.4578 O   0  0  0  0  0  0  0  0  0  0  0  0
   15.4629  -16.7715   22.0785 N   0  0  0  0  0  0  0  0  0  0  0  0
   14.6051  -15.9803   22.8727 C   0  0  0  0  0  0  0  0  0  0  0  0
   14.9623  -14.8168   23.1556 O   0  0  0  0  0  0  0  0  0  0  0  0
   13.3152  -16.5007   23.3629 C   0  0  0  0  0  0  0  0  0  0  0  0
   12.1313  -15.6612   23.0541 C   0  0  0  0  0  0  0  0  0  0  0  0
   10.8102  -16.2035   23.5343 C   0  0  2  0  0  0  0  0  0  0  0  0
    9.7058  -15.3555   23.1823 N   0  0  0  0  0  0  0  0  0  0  0  0
   10.9192  -16.3311   25.0088 C   0  0  0  0  0  0  0  0  0  0  0  0
   10.1933  -15.6249   25.7317 O   0  0  0  0  0  0  0  0  0  0  0  0
   11.8288  -17.2359   25.5858 N   0  0  0  0  0  0  0  0  0  0  0  0
   11.5653  -17.8139   26.9042 C   0  0  1  0  0  0  0  0  0  0  0  0
   10.2307  -18.4719   26.9197 C   0  0  0  0  0  0  0  0  0  0  0  0
    9.9202  -19.1872   28.1503 C   0  0  0  0  0  0  0  0  0  0  0  0
   10.5969  -20.2562   28.3868 O   0  0  0  0  0  0  0  0  0  0  0  0
   12.6940  -18.7086   27.2294 C   0  0  0  0  0  0  0  0  0  0  0  0
   13.2227  -19.3698   26.2747 O   0  0  0  0  0  0  0  0  0  0  0  0
    8.9913  -18.8735   29.1039 O   0  0  0  0  0  0  0  0  0  0  0  0
   13.2436  -18.9070   28.4719 O   0  0  0  0  0  0  0  0  0  0  0  0
  2  1  1  6
  2  3  1  0
  3  4  1  0
  4  9  2  0
  5  6  2  0
  5  4  1  0
  6  7  1  0
  7  8  2  0
  9  8  1  0
 10 11  2  0
 10  2  1  0
 12 13  1  0
 13 14  2  0
 15 13  1  0
 15 16  1  0
 17 16  1  1
 17 18  1  0
 18 10  1  0
 19 17  1  0
 19 21  1  0
 20 19  2  0
 22 21  1  0
 22 26  1  0
 23 24  1  0
 22 23  1  6
 24 25  2  0
 26 29  1  0
 27 26  2  0
 28 24  1  0
M  END
$$$$
