FQD.pdb
     RDKit          3D

 29 29  0  0  1  0  0  0  0  0999 V2000
    8.8264  -15.0691   25.4038 N   0  0  0  0  0  0  0  0  0  0  0  0
    7.7309  -15.7323   24.6888 C   0  0  1  0  0  0  0  0  0  0  0  0
    6.4568  -15.0184   25.0756 C   0  0  0  0  0  0  0  0  0  0  0  0
    6.7191  -13.8267   25.9169 C   0  0  0  0  0  0  0  0  0  0  0  0
    7.5877  -13.9258   26.9936 C   0  0  0  0  0  0  0  0  0  0  0  0
    7.8417  -12.8250   27.7852 C   0  0  0  0  0  0  0  0  0  0  0  0
    7.2329  -11.6104   27.5139 C   0  0  0  0  0  0  0  0  0  0  0  0
    6.3679  -11.5103   26.4425 C   0  0  0  0  0  0  0  0  0  0  0  0
    6.1237  -12.6261   25.6570 C   0  0  0  0  0  0  0  0  0  0  0  0
    7.9022  -15.5732   23.2151 C   0  0  0  0  0  0  0  0  0  0  0  0
    7.0401  -16.1200   22.4666 O   0  0  0  0  0  0  0  0  0  0  0  0
    8.4797  -14.3289   18.0310 N   0  0  0  0  0  0  0  0  0  0  0  0
    7.6570  -13.5051   18.8292 C   0  0  0  0  0  0  0  0  0  0  0  0
    6.5242  -13.2008   18.3985 O   0  0  0  0  0  0  0  0  0  0  0  0
    8.1098  -13.0092   20.1422 C   0  0  0  0  0  0  0  0  0  0  0  0
    9.4051  -13.5555   20.6170 C   0  0  0  0  0  0  0  0  0  0  0  0
    9.3360  -14.9135   21.2659 C   0  0  2  0  0  0  0  0  0  0  0  0
    8.9793  -14.8427   22.6554 N   0  0  0  0  0  0  0  0  0  0  0  0
   10.6780  -15.5258   21.1036 C   0  0  0  0  0  0  0  0  0  0  0  0
   11.0342  -15.9104   19.9752 O   0  0  0  0  0  0  0  0  0  0  0  0
   11.5386  -15.6719   22.2069 N   0  0  0  0  0  0  0  0  0  0  0  0
   12.7098  -16.5453   22.1239 C   0  0  1  0  0  0  0  0  0  0  0  0
   13.9547  -15.7321   22.0666 C   0  0  0  0  0  0  0  0  0  0  0  0
   14.1825  -15.0584   20.7952 C   0  0  0  0  0  0  0  0  0  0  0  0
   14.2957  -13.7768   20.8295 O   0  0  0  0  0  0  0  0  0  0  0  0
   12.6431  -17.4854   23.2605 C   0  0  0  0  0  0  0  0  0  0  0  0
   13.5979  -18.3206   23.3981 O   0  0  0  0  0  0  0  0  0  0  0  0
   14.2931  -15.6109   19.5490 O   0  0  0  0  0  0  0  0  0  0  0  0
   11.6449  -17.5563   24.2007 O   0  0  0  0  0  0  0  0  0  0  0  0
  2  1  1  1
  2  3  1  0
  3  4  1  0
  4  9  2  0
  5  6  2  0
  5  4  1  0
  6  7  1  0
  7  8  2  0
  9  8  1  0
 10 11  2  0
 10  2  1  0
 12 13  1  0
 13 14  2  0
 15 13  1  0
 15 16  1  0
 17 16  1  1
 17 18  1  0
 18 10  1  0
 19 17  1  0
 19 21  1  0
 20 19  2  0
 22 21  1  0
 22 26  1  0
 23 24  1  0
 22 23  1  1
 24 25  2  0
 26 29  1  0
 27 26  2  0
 28 24  1  0
M  END
$$$$
