FQD.pdb
     RDKit          3D

 29 29  0  0  1  0  0  0  0  0999 V2000
    6.3729  -17.3242   25.7861 N   0  0  0  0  0  0  0  0  0  0  0  0
    6.6461  -16.0284   25.1555 C   0  0  1  0  0  0  0  0  0  0  0  0
    7.6282  -15.3037   26.0461 C   0  0  0  0  0  0  0  0  0  0  0  0
    7.1773  -13.9296   26.3705 C   0  0  0  0  0  0  0  0  0  0  0  0
    8.0922  -12.8872   26.3572 C   0  0  0  0  0  0  0  0  0  0  0  0
    7.6870  -11.6031   26.6566 C   0  0  0  0  0  0  0  0  0  0  0  0
    6.3640  -11.3408   26.9735 C   0  0  0  0  0  0  0  0  0  0  0  0
    5.4522  -12.3775   26.9872 C   0  0  0  0  0  0  0  0  0  0  0  0
    5.8758  -13.6621   26.6837 C   0  0  0  0  0  0  0  0  0  0  0  0
    7.3049  -16.2248   23.8312 C   0  0  0  0  0  0  0  0  0  0  0  0
    7.8823  -17.3326   23.6270 O   0  0  0  0  0  0  0  0  0  0  0  0
    9.9263  -12.9346   19.0757 N   0  0  0  0  0  0  0  0  0  0  0  0
    8.6319  -13.2937   18.6421 C   0  0  0  0  0  0  0  0  0  0  0  0
    8.0668  -12.5698   17.7948 O   0  0  0  0  0  0  0  0  0  0  0  0
    7.9511  -14.4922   19.1669 C   0  0  0  0  0  0  0  0  0  0  0  0
    7.4019  -14.3628   20.5392 C   0  0  0  0  0  0  0  0  0  0  0  0
    7.8341  -15.4285   21.5125 C   0  0  2  0  0  0  0  0  0  0  0  0
    7.2955  -15.2243   22.8282 N   0  0  0  0  0  0  0  0  0  0  0  0
    9.3172  -15.3911   21.5457 C   0  0  0  0  0  0  0  0  0  0  0  0
    9.8857  -14.4051   22.0485 O   0  0  0  0  0  0  0  0  0  0  0  0
   10.0741  -16.4526   21.0171 N   0  0  0  0  0  0  0  0  0  0  0  0
   11.5315  -16.3530   20.9288 C   0  0  1  0  0  0  0  0  0  0  0  0
   11.9292  -14.9776   20.5231 C   0  0  0  0  0  0  0  0  0  0  0  0
   13.3674  -14.7605   20.4403 C   0  0  0  0  0  0  0  0  0  0  0  0
   14.0481  -14.9656   21.5133 O   0  0  0  0  0  0  0  0  0  0  0  0
   12.0852  -16.7945   22.2244 C   0  0  0  0  0  0  0  0  0  0  0  0
   13.1105  -17.5538   22.2050 O   0  0  0  0  0  0  0  0  0  0  0  0
   14.1053  -14.3606   19.3605 O   0  0  0  0  0  0  0  0  0  0  0  0
   11.6047  -16.4684   23.4686 O   0  0  0  0  0  0  0  0  0  0  0  0
  2  1  1  1
  2  3  1  0
  3  4  1  0
  4  9  2  0
  5  6  2  0
  5  4  1  0
  6  7  1  0
  7  8  2  0
  9  8  1  0
 10 11  2  0
 10  2  1  0
 12 13  1  0
 13 14  2  0
 15 13  1  0
 15 16  1  0
 17 16  1  6
 17 18  1  0
 18 10  1  0
 19 17  1  0
 19 21  1  0
 20 19  2  0
 22 21  1  0
 22 26  1  0
 23 24  1  0
 22 23  1  1
 24 25  2  0
 26 29  1  0
 27 26  2  0
 28 24  1  0
M  END
$$$$
