VMY.pdb
     RDKit          3D

 28 28  0  0  1  0  0  0  0  0999 V2000
    9.7347  -19.2782   20.3643 C   0  0  0  0  0  0  0  0  0  0  0  0
    8.3954  -18.7457   19.9800 C   0  0  2  0  0  0  0  0  0  0  0  0
    7.8874  -19.5220   18.7704 C   0  0  0  0  0  0  0  0  0  0  0  0
    8.3879  -17.2888   19.6064 C   0  0  2  0  0  0  0  0  0  0  0  0
    9.2253  -17.0599   18.4423 N   0  0  0  0  0  0  0  0  0  0  0  0
    8.7937  -16.3911   20.6888 C   0  0  0  0  0  0  0  0  0  0  0  0
    9.9720  -15.9569   20.7563 O   0  0  0  0  0  0  0  0  0  0  0  0
    6.6509  -11.5468   26.5684 C   0  0  0  0  0  0  0  0  0  0  0  0
    6.1314  -12.8511   25.4519 S   0  0  0  0  0  0  0  0  0  0  0  0
    7.5175  -13.5061   24.5171 C   0  0  0  0  0  0  0  0  0  0  0  0
    7.1411  -14.5447   23.5312 C   0  0  0  0  0  0  0  0  0  0  0  0
    8.3194  -15.1482   22.8255 C   0  0  2  0  0  0  0  0  0  0  0  0
    7.8985  -15.9535   21.7236 N   0  0  0  0  0  0  0  0  0  0  0  0
    9.1606  -15.8806   23.8002 C   0  0  0  0  0  0  0  0  0  0  0  0
    8.9159  -17.0590   24.1576 O   0  0  0  0  0  0  0  0  0  0  0  0
   11.6026  -16.6217   31.9453 O   0  0  0  0  0  0  0  0  0  0  0  0
   11.1532  -16.3373   30.6590 C   0  0  0  0  0  0  0  0  0  0  0  0
   10.9661  -15.0454   30.2241 C   0  0  0  0  0  0  0  0  0  0  0  0
   10.5188  -14.7986   28.9407 C   0  0  0  0  0  0  0  0  0  0  0  0
   10.2392  -15.8122   28.0387 C   0  0  0  0  0  0  0  0  0  0  0  0
    9.7609  -15.5091   26.6770 C   0  0  0  0  0  0  0  0  0  0  0  0
   10.8559  -15.5709   25.6531 C   0  0  2  0  0  0  0  0  0  0  0  0
   10.2806  -15.2302   24.3494 N   0  0  0  0  0  0  0  0  0  0  0  0
   11.5684  -16.8544   25.5902 C   0  0  0  0  0  0  0  0  0  0  0  0
   12.8206  -16.8562   25.6731 O   0  0  0  0  0  0  0  0  0  0  0  0
   10.4305  -17.1120   28.4850 C   0  0  0  0  0  0  0  0  0  0  0  0
   10.8770  -17.3596   29.7656 C   0  0  0  0  0  0  0  0  0  0  0  0
   10.9208  -18.0659   25.4439 O   0  0  0  0  0  0  0  0  0  0  0  0
  2  1  1  6
  2  3  1  0
  4  2  1  0
  4  5  1  6
  6  4  1  0
  6  7  2  0
  9  8  1  0
 10 11  1  0
 10  9  1  0
 12 11  1  1
 13 12  1  0
 13  6  1  0
 14 15  2  0
 14 12  1  0
 16 17  1  0
 17 18  2  0
 18 19  1  0
 20 21  1  0
 20 19  2  0
 22 21  1  1
 22 23  1  0
 22 24  1  0
 23 14  1  0
 24 25  2  0
 24 28  1  0
 26 20  1  0
 27 26  2  0
 27 17  1  0
M  END
$$$$
