VMY.pdb
     RDKit          3D

 28 28  0  0  1  0  0  0  0  0999 V2000
    9.1598  -19.2706   20.9369 C   0  0  0  0  0  0  0  0  0  0  0  0
    7.7616  -18.7809   20.7633 C   0  0  2  0  0  0  0  0  0  0  0  0
    6.9969  -19.7764   19.8983 C   0  0  0  0  0  0  0  0  0  0  0  0
    7.6502  -17.4375   20.0961 C   0  0  2  0  0  0  0  0  0  0  0  0
    8.2116  -17.4882   18.7578 N   0  0  0  0  0  0  0  0  0  0  0  0
    8.2669  -16.3431   20.8472 C   0  0  0  0  0  0  0  0  0  0  0  0
    9.4925  -16.0895   20.7245 O   0  0  0  0  0  0  0  0  0  0  0  0
    7.3224  -11.3956   27.0128 C   0  0  0  0  0  0  0  0  0  0  0  0
    6.5290  -12.4238   25.7755 S   0  0  0  0  0  0  0  0  0  0  0  0
    7.7367  -13.2368   24.7245 C   0  0  0  0  0  0  0  0  0  0  0  0
    7.1403  -14.0713   23.6567 C   0  0  0  0  0  0  0  0  0  0  0  0
    8.1621  -14.7527   22.7953 C   0  0  2  0  0  0  0  0  0  0  0  0
    7.5352  -15.5027   21.7539 N   0  0  0  0  0  0  0  0  0  0  0  0
    9.0640  -15.5661   23.6432 C   0  0  0  0  0  0  0  0  0  0  0  0
    8.7152  -16.6601   24.1507 O   0  0  0  0  0  0  0  0  0  0  0  0
   10.4644  -14.9433   31.1268 O   0  0  0  0  0  0  0  0  0  0  0  0
   10.4720  -15.3530   29.7965 C   0  0  0  0  0  0  0  0  0  0  0  0
   10.0297  -14.5351   28.7823 C   0  0  0  0  0  0  0  0  0  0  0  0
   10.0510  -14.9733   27.4724 C   0  0  0  0  0  0  0  0  0  0  0  0
   10.5075  -16.2308   27.1123 C   0  0  0  0  0  0  0  0  0  0  0  0
   10.5126  -16.6639   25.7026 C   0  0  0  0  0  0  0  0  0  0  0  0
   11.2984  -15.7416   24.8178 C   0  0  2  0  0  0  0  0  0  0  0  0
   10.3660  -15.0945   23.8913 N   0  0  0  0  0  0  0  0  0  0  0  0
   12.4016  -16.3805   24.0872 C   0  0  0  0  0  0  0  0  0  0  0  0
   13.5821  -16.1057   24.4121 O   0  0  0  0  0  0  0  0  0  0  0  0
   10.9517  -17.0492   28.1409 C   0  0  0  0  0  0  0  0  0  0  0  0
   10.9310  -16.6129   29.4485 C   0  0  0  0  0  0  0  0  0  0  0  0
   12.1989  -17.2750   23.0540 O   0  0  0  0  0  0  0  0  0  0  0  0
  2  1  1  6
  2  3  1  0
  4  2  1  0
  4  5  1  6
  6  4  1  0
  6  7  2  0
  9  8  1  0
 10 11  1  0
 10  9  1  0
 12 11  1  1
 13 12  1  0
 13  6  1  0
 14 15  2  0
 14 12  1  0
 16 17  1  0
 17 18  2  0
 18 19  1  0
 20 21  1  0
 20 19  2  0
 22 21  1  6
 22 23  1  0
 22 24  1  0
 23 14  1  0
 24 25  2  0
 24 28  1  0
 26 20  1  0
 27 26  2  0
 27 17  1  0
M  END
$$$$
