VMY.pdb
     RDKit          3D

 28 28  0  0  1  0  0  0  0  0999 V2000
    5.6662  -20.0624   23.1046 C   0  0  0  0  0  0  0  0  0  0  0  0
    4.9296  -18.8133   22.7549 C   0  0  2  0  0  0  0  0  0  0  0  0
    3.8897  -19.1390   21.6889 C   0  0  0  0  0  0  0  0  0  0  0  0
    5.7953  -17.7120   22.2072 C   0  0  2  0  0  0  0  0  0  0  0  0
    6.4554  -18.1450   20.9883 N   0  0  0  0  0  0  0  0  0  0  0  0
    6.7912  -17.2067   23.1532 C   0  0  0  0  0  0  0  0  0  0  0  0
    7.9853  -17.5976   23.0998 O   0  0  0  0  0  0  0  0  0  0  0  0
    7.2841  -10.4920   25.5039 C   0  0  0  0  0  0  0  0  0  0  0  0
    6.9723  -12.0156   26.3978 S   0  0  0  0  0  0  0  0  0  0  0  0
    7.1429  -13.4497   25.3308 C   0  0  0  0  0  0  0  0  0  0  0  0
    6.9061  -14.7408   26.0158 C   0  0  0  0  0  0  0  0  0  0  0  0
    7.3928  -15.9254   25.2345 C   0  0  2  0  0  0  0  0  0  0  0  0
    6.4837  -16.2533   24.1829 N   0  0  0  0  0  0  0  0  0  0  0  0
    7.6558  -17.0546   26.1564 C   0  0  0  0  0  0  0  0  0  0  0  0
    6.7677  -17.8738   26.4971 O   0  0  0  0  0  0  0  0  0  0  0  0
    5.2299  -23.3058   27.0215 O   0  0  0  0  0  0  0  0  0  0  0  0
    6.2525  -22.3859   26.8083 C   0  0  0  0  0  0  0  0  0  0  0  0
    7.5024  -22.5485   27.3602 C   0  0  0  0  0  0  0  0  0  0  0  0
    8.4948  -21.6161   27.1282 C   0  0  0  0  0  0  0  0  0  0  0  0
    8.2947  -20.4904   26.3458 C   0  0  0  0  0  0  0  0  0  0  0  0
    9.3787  -19.5156   26.1229 C   0  0  0  0  0  0  0  0  0  0  0  0
    9.4596  -18.4836   27.2088 C   0  0  2  0  0  0  0  0  0  0  0  0
    8.9544  -17.2171   26.6726 N   0  0  0  0  0  0  0  0  0  0  0  0
   10.7965  -18.3073   27.7925 C   0  0  0  0  0  0  0  0  0  0  0  0
   11.6010  -17.5213   27.2360 O   0  0  0  0  0  0  0  0  0  0  0  0
    7.0317  -20.3340   25.7930 C   0  0  0  0  0  0  0  0  0  0  0  0
    6.0404  -21.2639   26.0238 C   0  0  0  0  0  0  0  0  0  0  0  0
   11.2113  -18.9694   28.9319 O   0  0  0  0  0  0  0  0  0  0  0  0
  2  1  1  6
  2  3  1  0
  4  2  1  0
  4  5  1  6
  6  4  1  0
  6  7  2  0
  9  8  1  0
 10 11  1  0
 10  9  1  0
 12 11  1  1
 13 12  1  0
 13  6  1  0
 14 15  2  0
 14 12  1  0
 16 17  1  0
 17 18  2  0
 18 19  1  0
 20 21  1  0
 20 19  2  0
 22 21  1  6
 22 23  1  0
 22 24  1  0
 23 14  1  0
 24 25  2  0
 24 28  1  0
 26 20  1  0
 27 26  2  0
 27 17  1  0
M  END
$$$$
