VMY.pdb
     RDKit          3D

 28 28  0  0  1  0  0  0  0  0999 V2000
    6.6844  -14.4054   18.7699 C   0  0  0  0  0  0  0  0  0  0  0  0
    7.8275  -15.3120   18.4597 C   0  0  2  0  0  0  0  0  0  0  0  0
    7.3990  -16.2863   17.3683 C   0  0  0  0  0  0  0  0  0  0  0  0
    8.3045  -16.1345   19.6252 C   0  0  2  0  0  0  0  0  0  0  0  0
    7.2977  -17.1107   20.0023 N   0  0  0  0  0  0  0  0  0  0  0  0
    8.6888  -15.3461   20.7969 C   0  0  0  0  0  0  0  0  0  0  0  0
    9.7179  -14.6236   20.7764 O   0  0  0  0  0  0  0  0  0  0  0  0
    6.7499  -11.1377   27.0528 C   0  0  0  0  0  0  0  0  0  0  0  0
    6.1996  -12.3460   25.8467 S   0  0  0  0  0  0  0  0  0  0  0  0
    7.5859  -13.0795   24.9723 C   0  0  0  0  0  0  0  0  0  0  0  0
    7.1906  -14.0115   23.8918 C   0  0  0  0  0  0  0  0  0  0  0  0
    8.3598  -14.6358   23.1891 C   0  0  2  0  0  0  0  0  0  0  0  0
    7.9376  -15.3415   22.0214 N   0  0  0  0  0  0  0  0  0  0  0  0
    9.1199  -15.4782   24.1413 C   0  0  0  0  0  0  0  0  0  0  0  0
    8.7569  -16.6363   24.4626 O   0  0  0  0  0  0  0  0  0  0  0  0
   12.1735  -17.1975   31.9667 O   0  0  0  0  0  0  0  0  0  0  0  0
   11.6190  -16.8420   30.7405 C   0  0  0  0  0  0  0  0  0  0  0  0
   11.1917  -17.7863   29.8356 C   0  0  0  0  0  0  0  0  0  0  0  0
   10.6458  -17.3987   28.6273 C   0  0  0  0  0  0  0  0  0  0  0  0
   10.5004  -16.0695   28.2648 C   0  0  0  0  0  0  0  0  0  0  0  0
    9.9148  -15.6947   26.9642 C   0  0  0  0  0  0  0  0  0  0  0  0
   10.9491  -15.5383   25.8887 C   0  0  2  0  0  0  0  0  0  0  0  0
   10.2977  -14.9605   24.7104 N   0  0  0  0  0  0  0  0  0  0  0  0
   11.6638  -16.7732   25.5374 C   0  0  0  0  0  0  0  0  0  0  0  0
   11.1341  -17.8776   25.8103 O   0  0  0  0  0  0  0  0  0  0  0  0
   10.9337  -15.1236   29.1829 C   0  0  0  0  0  0  0  0  0  0  0  0
   11.4786  -15.5092   30.3892 C   0  0  0  0  0  0  0  0  0  0  0  0
   12.8980  -16.7753   24.9165 O   0  0  0  0  0  0  0  0  0  0  0  0
  2  1  1  1
  2  3  1  0
  4  2  1  0
  4  5  1  1
  6  4  1  0
  6  7  2  0
  9  8  1  0
 10 11  1  0
 10  9  1  0
 12 11  1  1
 13 12  1  0
 13  6  1  0
 14 15  2  0
 14 12  1  0
 16 17  1  0
 17 18  2  0
 18 19  1  0
 20 21  1  0
 20 19  2  0
 22 21  1  1
 22 23  1  0
 22 24  1  0
 23 14  1  0
 24 25  2  0
 24 28  1  0
 26 20  1  0
 27 26  2  0
 27 17  1  0
M  END
$$$$
