VMY.pdb
     RDKit          3D

 28 28  0  0  1  0  0  0  0  0999 V2000
    9.3010  -18.5172   19.5522 C   0  0  0  0  0  0  0  0  0  0  0  0
    7.8774  -18.0907   19.4244 C   0  0  2  0  0  0  0  0  0  0  0  0
    7.2117  -18.9233   18.3346 C   0  0  0  0  0  0  0  0  0  0  0  0
    7.6910  -16.6450   19.0532 C   0  0  2  0  0  0  0  0  0  0  0  0
    8.1850  -16.3990   17.7100 N   0  0  0  0  0  0  0  0  0  0  0  0
    8.3109  -15.7028   19.9859 C   0  0  0  0  0  0  0  0  0  0  0  0
    8.5213  -14.5094   19.6495 O   0  0  0  0  0  0  0  0  0  0  0  0
    6.7586  -12.4550   26.2733 C   0  0  0  0  0  0  0  0  0  0  0  0
    6.7540  -13.7751   25.0588 S   0  0  0  0  0  0  0  0  0  0  0  0
    7.5849  -13.2789   23.5464 C   0  0  0  0  0  0  0  0  0  0  0  0
    7.5420  -14.2989   22.4740 C   0  0  0  0  0  0  0  0  0  0  0  0
    8.7933  -15.1219   22.3870 C   0  0  2  0  0  0  0  0  0  0  0  0
    8.7125  -16.0644   21.3169 N   0  0  0  0  0  0  0  0  0  0  0  0
    9.0685  -15.7480   23.7010 C   0  0  0  0  0  0  0  0  0  0  0  0
    8.2464  -16.4991   24.2807 O   0  0  0  0  0  0  0  0  0  0  0  0
   11.1982  -13.8810   31.1946 O   0  0  0  0  0  0  0  0  0  0  0  0
   10.8828  -14.5504   30.0157 C   0  0  0  0  0  0  0  0  0  0  0  0
   10.1113  -13.9702   29.0352 C   0  0  0  0  0  0  0  0  0  0  0  0
    9.8172  -14.6631   27.8769 C   0  0  0  0  0  0  0  0  0  0  0  0
   10.2704  -15.9508   27.6406 C   0  0  0  0  0  0  0  0  0  0  0  0
    9.9333  -16.6594   26.3919 C   0  0  0  0  0  0  0  0  0  0  0  0
   10.9230  -16.3989   25.2948 C   0  0  2  0  0  0  0  0  0  0  0  0
   10.3020  -15.4912   24.3268 N   0  0  0  0  0  0  0  0  0  0  0  0
   11.4339  -17.6041   24.6273 C   0  0  0  0  0  0  0  0  0  0  0  0
   10.7742  -18.0973   23.6806 O   0  0  0  0  0  0  0  0  0  0  0  0
   11.0477  -16.5285   28.6342 C   0  0  0  0  0  0  0  0  0  0  0  0
   11.3420  -15.8380   29.7906 C   0  0  0  0  0  0  0  0  0  0  0  0
   12.6133  -18.2227   24.9948 O   0  0  0  0  0  0  0  0  0  0  0  0
  2  1  1  6
  2  3  1  0
  4  2  1  0
  4  5  1  6
  6  4  1  0
  6  7  2  0
  9  8  1  0
 10 11  1  0
 10  9  1  0
 12 11  1  1
 13 12  1  0
 13  6  1  0
 14 15  2  0
 14 12  1  0
 16 17  1  0
 17 18  2  0
 18 19  1  0
 20 21  1  0
 20 19  2  0
 22 21  1  1
 22 23  1  0
 22 24  1  0
 23 14  1  0
 24 25  2  0
 24 28  1  0
 26 20  1  0
 27 26  2  0
 27 17  1  0
M  END
$$$$
