VMY.pdb
     RDKit          3D

 28 28  0  0  1  0  0  0  0  0999 V2000
    6.4729  -15.1454   18.3239 C   0  0  0  0  0  0  0  0  0  0  0  0
    7.1325  -14.4641   19.4752 C   0  0  2  0  0  0  0  0  0  0  0  0
    8.2621  -13.5881   18.9454 C   0  0  0  0  0  0  0  0  0  0  0  0
    7.7343  -15.3972   20.4898 C   0  0  2  0  0  0  0  0  0  0  0  0
    6.7402  -16.3469   20.9573 N   0  0  0  0  0  0  0  0  0  0  0  0
    8.3467  -14.7220   21.6350 C   0  0  0  0  0  0  0  0  0  0  0  0
    9.3607  -13.9935   21.4850 O   0  0  0  0  0  0  0  0  0  0  0  0
    5.7369  -12.0994   27.1814 C   0  0  0  0  0  0  0  0  0  0  0  0
    6.2103  -11.3114   25.6410 S   0  0  0  0  0  0  0  0  0  0  0  0
    6.8103  -12.5108   24.4471 C   0  0  0  0  0  0  0  0  0  0  0  0
    7.5480  -13.6437   25.0511 C   0  0  0  0  0  0  0  0  0  0  0  0
    8.5202  -14.2891   24.1084 C   0  0  2  0  0  0  0  0  0  0  0  0
    7.8462  -14.8403   22.9763 N   0  0  0  0  0  0  0  0  0  0  0  0
    9.3411  -15.2798   24.8425 C   0  0  0  0  0  0  0  0  0  0  0  0
    8.8697  -16.0204   25.7400 O   0  0  0  0  0  0  0  0  0  0  0  0
   11.0700  -15.3339   31.5436 O   0  0  0  0  0  0  0  0  0  0  0  0
   11.0121  -15.7901   30.2299 C   0  0  0  0  0  0  0  0  0  0  0  0
   11.2770  -17.1003   29.9038 C   0  0  0  0  0  0  0  0  0  0  0  0
   11.2104  -17.5199   28.5894 C   0  0  0  0  0  0  0  0  0  0  0  0
   10.8812  -16.6672   27.5483 C   0  0  0  0  0  0  0  0  0  0  0  0
   10.8226  -17.1518   26.1567 C   0  0  0  0  0  0  0  0  0  0  0  0
   11.6252  -16.3030   25.2153 C   0  0  2  0  0  0  0  0  0  0  0  0
   10.7059  -15.3969   24.5221 N   0  0  0  0  0  0  0  0  0  0  0  0
   12.4424  -17.0547   24.2527 C   0  0  0  0  0  0  0  0  0  0  0  0
   13.3994  -17.7447   24.6801 O   0  0  0  0  0  0  0  0  0  0  0  0
   10.6155  -15.3478   27.8857 C   0  0  0  0  0  0  0  0  0  0  0  0
   10.6815  -14.9279   29.1971 C   0  0  0  0  0  0  0  0  0  0  0  0
   12.2046  -17.0376   22.8919 O   0  0  0  0  0  0  0  0  0  0  0  0
  2  1  1  6
  2  3  1  0
  4  2  1  0
  4  5  1  1
  6  4  1  0
  6  7  2  0
  9  8  1  0
 10 11  1  0
 10  9  1  0
 12 11  1  1
 13 12  1  0
 13  6  1  0
 14 15  2  0
 14 12  1  0
 16 17  1  0
 17 18  2  0
 18 19  1  0
 20 21  1  0
 20 19  2  0
 22 21  1  6
 22 23  1  0
 22 24  1  0
 23 14  1  0
 24 25  2  0
 24 28  1  0
 26 20  1  0
 27 26  2  0
 27 17  1  0
M  END
$$$$
