LKI.pdb
     RDKit          3D

 26 25  0  0  1  0  0  0  0  0999 V2000
    9.3697  -14.0578   18.7031 C   0  0  0  0  0  0  0  0  0  0  0  0
    8.2626  -13.9316   19.7031 C   0  0  1  0  0  0  0  0  0  0  0  0
    7.7661  -12.5144   19.8459 C   0  0  0  0  0  0  0  0  0  0  0  0
    7.0936  -14.8264   19.2678 C   0  0  0  0  0  0  0  0  0  0  0  0
    7.3599  -16.1806   19.8967 C   0  0  2  0  0  0  0  0  0  0  0  0
    6.7358  -17.2468   19.1593 N   0  0  0  0  0  0  0  0  0  0  0  0
    6.9855  -16.2070   21.3302 C   0  0  0  0  0  0  0  0  0  0  0  0
    5.9718  -15.5574   21.6876 O   0  0  0  0  0  0  0  0  0  0  0  0
    7.7535  -16.9462   22.2657 N   0  0  0  0  0  0  0  0  0  0  0  0
    7.4095  -17.0260   23.6696 C   0  0  1  0  0  0  0  0  0  0  0  0
    7.5835  -18.4354   24.2009 C   0  0  0  0  0  0  0  0  0  0  0  0
    7.3004  -18.5413   25.6578 C   0  0  0  0  0  0  0  0  0  0  0  0
    7.4413  -19.9728   26.1016 C   0  0  0  0  0  0  0  0  0  0  0  0
    6.9804  -20.2263   27.4967 C   0  0  0  0  0  0  0  0  0  0  0  0
    7.3548  -21.6095   27.8329 N   0  0  0  0  0  0  0  0  0  0  0  0
    8.2127  -16.0727   24.4827 C   0  0  0  0  0  0  0  0  0  0  0  0
    9.4446  -15.9820   24.2069 O   0  0  0  0  0  0  0  0  0  0  0  0
    5.8832  -11.8636   27.6871 C   0  0  0  0  0  0  0  0  0  0  0  0
    6.4661  -13.1225   27.1985 C   0  0  0  0  0  0  0  0  0  0  0  0
    7.7198  -13.1208   26.4325 C   0  0  2  0  0  0  0  0  0  0  0  0
    7.5706  -12.4486   25.0671 C   0  0  0  0  0  0  0  0  0  0  0  0
    8.5267  -14.3678   26.3189 C   0  0  2  0  0  0  0  0  0  0  0  0
    7.6673  -15.2921   25.5162 N   0  0  0  0  0  0  0  0  0  0  0  0
    8.9243  -15.0639   27.5224 C   0  0  0  0  0  0  0  0  0  0  0  0
    8.4227  -16.1383   27.8984 O   0  0  0  0  0  0  0  0  0  0  0  0
    9.9270  -14.5441   28.3498 O   0  0  0  0  0  0  0  0  0  0  0  0
  2  3  1  6
  2  1  1  0
  4  2  1  0
  5  6  1  6
  5  4  1  0
  7  9  1  0
  7  5  1  0
  8  7  2  0
 10  9  1  0
 10 11  1  1
 11 12  1  0
 12 13  1  0
 13 14  1  0
 15 14  1  0
 16 10  1  0
 17 16  2  0
 18 19  1  0
 20 19  1  0
 20 22  1  0
 20 21  1  6
 22 24  1  0
 22 23  1  6
 23 16  1  0
 24 26  1  0
 25 24  2  0
M  END
$$$$
