LKI.pdb
     RDKit          3D

 26 25  0  0  1  0  0  0  0  0999 V2000
    7.9568  -12.3057   18.4247 C   0  0  0  0  0  0  0  0  0  0  0  0
    8.1554  -13.7770   18.6183 C   0  0  1  0  0  0  0  0  0  0  0  0
    9.5531  -14.1213   19.0690 C   0  0  0  0  0  0  0  0  0  0  0  0
    7.1560  -14.2807   19.6691 C   0  0  0  0  0  0  0  0  0  0  0  0
    7.5196  -15.7323   19.9156 C   0  0  2  0  0  0  0  0  0  0  0  0
    6.7352  -16.6268   19.1065 N   0  0  0  0  0  0  0  0  0  0  0  0
    7.4497  -16.0827   21.3536 C   0  0  0  0  0  0  0  0  0  0  0  0
    6.3779  -15.8513   21.9662 O   0  0  0  0  0  0  0  0  0  0  0  0
    8.5638  -16.6620   22.0128 N   0  0  0  0  0  0  0  0  0  0  0  0
    8.5461  -17.0102   23.4179 C   0  0  1  0  0  0  0  0  0  0  0  0
    9.4516  -18.1920   23.7047 C   0  0  0  0  0  0  0  0  0  0  0  0
    9.5078  -18.5376   25.1508 C   0  0  0  0  0  0  0  0  0  0  0  0
   10.3706  -19.7547   25.3508 C   0  0  0  0  0  0  0  0  0  0  0  0
   10.4065  -20.2519   26.7560 C   0  0  0  0  0  0  0  0  0  0  0  0
   11.3357  -21.3930   26.7891 N   0  0  0  0  0  0  0  0  0  0  0  0
    8.9329  -15.8537   24.2710 C   0  0  0  0  0  0  0  0  0  0  0  0
    9.9726  -15.2158   23.9332 O   0  0  0  0  0  0  0  0  0  0  0  0
    6.2105  -11.3864   27.2598 C   0  0  0  0  0  0  0  0  0  0  0  0
    7.4229  -12.2088   27.1289 C   0  0  0  0  0  0  0  0  0  0  0  0
    7.3790  -13.5043   26.4373 C   0  0  2  0  0  0  0  0  0  0  0  0
    6.2693  -14.4134   26.9671 C   0  0  0  0  0  0  0  0  0  0  0  0
    8.6336  -14.2778   26.2214 C   0  0  2  0  0  0  0  0  0  0  0  0
    8.2055  -15.4562   25.4058 N   0  0  0  0  0  0  0  0  0  0  0  0
    9.3646  -14.7725   27.3669 C   0  0  0  0  0  0  0  0  0  0  0  0
   10.0904  -14.0616   28.0847 O   0  0  0  0  0  0  0  0  0  0  0  0
    9.2875  -16.1210   27.7351 O   0  0  0  0  0  0  0  0  0  0  0  0
  2  3  1  1
  2  1  1  0
  4  2  1  0
  5  6  1  6
  5  4  1  0
  7  9  1  0
  7  5  1  0
  8  7  2  0
 10  9  1  0
 10 11  1  6
 11 12  1  0
 12 13  1  0
 13 14  1  0
 15 14  1  0
 16 10  1  0
 17 16  2  0
 18 19  1  0
 20 19  1  0
 20 22  1  0
 20 21  1  1
 22 24  1  0
 22 23  1  6
 23 16  1  0
 24 26  1  0
 25 24  2  0
M  END
$$$$
