LKI.pdb
     RDKit          3D

 26 25  0  0  1  0  0  0  0  0999 V2000
    9.6947  -13.8175   19.6371 C   0  0  0  0  0  0  0  0  0  0  0  0
    8.2050  -13.7104   19.7438 C   0  0  1  0  0  0  0  0  0  0  0  0
    7.6881  -12.3542   19.3330 C   0  0  0  0  0  0  0  0  0  0  0  0
    7.5633  -14.7793   18.8480 C   0  0  0  0  0  0  0  0  0  0  0  0
    7.8988  -16.1093   19.4951 C   0  0  2  0  0  0  0  0  0  0  0  0
    7.4973  -17.2214   18.6752 N   0  0  0  0  0  0  0  0  0  0  0  0
    7.3512  -16.2091   20.8684 C   0  0  0  0  0  0  0  0  0  0  0  0
    6.1178  -16.0325   21.0263 O   0  0  0  0  0  0  0  0  0  0  0  0
    8.2004  -16.4957   21.9675 N   0  0  0  0  0  0  0  0  0  0  0  0
    7.6947  -16.7527   23.2994 C   0  0  1  0  0  0  0  0  0  0  0  0
    7.8032  -18.2222   23.6566 C   0  0  0  0  0  0  0  0  0  0  0  0
    7.2634  -18.5281   25.0090 C   0  0  0  0  0  0  0  0  0  0  0  0
    7.3393  -20.0095   25.2649 C   0  0  0  0  0  0  0  0  0  0  0  0
    6.6432  -20.4496   26.5078 C   0  0  0  0  0  0  0  0  0  0  0  0
    6.9219  -21.8850   26.6764 N   0  0  0  0  0  0  0  0  0  0  0  0
    8.3989  -15.9277   24.3184 C   0  0  0  0  0  0  0  0  0  0  0  0
    9.6547  -15.8225   24.2012 O   0  0  0  0  0  0  0  0  0  0  0  0
    5.6854  -11.6782   26.1856 C   0  0  0  0  0  0  0  0  0  0  0  0
    6.7368  -12.6197   25.7716 C   0  0  0  0  0  0  0  0  0  0  0  0
    7.4833  -13.3966   26.7706 C   0  0  2  0  0  0  0  0  0  0  0  0
    8.0522  -12.5207   27.8875 C   0  0  0  0  0  0  0  0  0  0  0  0
    8.4862  -14.4072   26.3328 C   0  0  2  0  0  0  0  0  0  0  0  0
    7.7378  -15.2800   25.3760 N   0  0  0  0  0  0  0  0  0  0  0  0
    9.1062  -15.2614   27.3213 C   0  0  0  0  0  0  0  0  0  0  0  0
    8.5915  -16.3088   27.7517 O   0  0  0  0  0  0  0  0  0  0  0  0
   10.3579  -14.9391   27.8592 O   0  0  0  0  0  0  0  0  0  0  0  0
  2  3  1  6
  2  1  1  0
  4  2  1  0
  5  6  1  6
  5  4  1  0
  7  9  1  0
  7  5  1  0
  8  7  2  0
 10  9  1  0
 10 11  1  1
 11 12  1  0
 12 13  1  0
 13 14  1  0
 15 14  1  0
 16 10  1  0
 17 16  2  0
 18 19  1  0
 20 19  1  0
 20 22  1  0
 20 21  1  1
 22 24  1  0
 22 23  1  6
 23 16  1  0
 24 26  1  0
 25 24  2  0
M  END
$$$$
