LKI.pdb
     RDKit          3D

 26 25  0  0  1  0  0  0  0  0999 V2000
    7.8873  -12.3507   18.9274 C   0  0  0  0  0  0  0  0  0  0  0  0
    8.0098  -13.8364   19.0673 C   0  0  1  0  0  0  0  0  0  0  0  0
    9.3216  -14.2570   19.6817 C   0  0  0  0  0  0  0  0  0  0  0  0
    6.8614  -14.3503   19.9471 C   0  0  0  0  0  0  0  0  0  0  0  0
    7.1582  -15.8176   20.1897 C   0  0  2  0  0  0  0  0  0  0  0  0
    6.4885  -16.6650   19.2391 N   0  0  0  0  0  0  0  0  0  0  0  0
    6.8669  -16.2164   21.5868 C   0  0  0  0  0  0  0  0  0  0  0  0
    5.7312  -15.9497   22.0522 O   0  0  0  0  0  0  0  0  0  0  0  0
    7.8461  -16.8793   22.3698 N   0  0  0  0  0  0  0  0  0  0  0  0
    7.6268  -17.2389   23.7549 C   0  0  1  0  0  0  0  0  0  0  0  0
    7.9054  -18.7100   23.9935 C   0  0  0  0  0  0  0  0  0  0  0  0
    7.7730  -19.0971   25.4242 C   0  0  0  0  0  0  0  0  0  0  0  0
    7.9951  -20.5783   25.5739 C   0  0  0  0  0  0  0  0  0  0  0  0
    7.8811  -21.0729   26.9759 C   0  0  0  0  0  0  0  0  0  0  0  0
    6.4458  -21.1984   27.2766 N   0  0  0  0  0  0  0  0  0  0  0  0
    8.4550  -16.4087   24.6713 C   0  0  0  0  0  0  0  0  0  0  0  0
    9.6898  -16.3229   24.4070 O   0  0  0  0  0  0  0  0  0  0  0  0
    6.5196  -11.7309   25.9522 C   0  0  0  0  0  0  0  0  0  0  0  0
    7.4483  -12.8507   25.7354 C   0  0  0  0  0  0  0  0  0  0  0  0
    7.9472  -13.6412   26.8688 C   0  0  2  0  0  0  0  0  0  0  0  0
    8.5557  -12.7694   27.9679 C   0  0  0  0  0  0  0  0  0  0  0  0
    8.7905  -14.8448   26.6254 C   0  0  2  0  0  0  0  0  0  0  0  0
    7.9296  -15.7360   25.7877 N   0  0  0  0  0  0  0  0  0  0  0  0
    9.2628  -15.6163   27.7537 C   0  0  0  0  0  0  0  0  0  0  0  0
   10.2793  -15.3301   28.4111 O   0  0  0  0  0  0  0  0  0  0  0  0
    8.5750  -16.7609   28.1741 O   0  0  0  0  0  0  0  0  0  0  0  0
  2  3  1  1
  2  1  1  0
  4  2  1  0
  5  6  1  6
  5  4  1  0
  7  9  1  0
  7  5  1  0
  8  7  2  0
 10  9  1  0
 10 11  1  6
 11 12  1  0
 12 13  1  0
 13 14  1  0
 15 14  1  0
 16 10  1  0
 17 16  2  0
 18 19  1  0
 20 19  1  0
 20 22  1  0
 20 21  1  1
 22 24  1  0
 22 23  1  6
 23 16  1  0
 24 26  1  0
 25 24  2  0
M  END
$$$$
