LKI.pdb
     RDKit          3D

 26 25  0  0  1  0  0  0  0  0999 V2000
    6.3009  -11.5184   27.1772 C   0  0  0  0  0  0  0  0  0  0  0  0
    6.1333  -12.1128   25.8132 C   0  0  1  0  0  0  0  0  0  0  0  0
    6.1279  -11.0719   24.7215 C   0  0  0  0  0  0  0  0  0  0  0  0
    7.2817  -13.0983   25.5548 C   0  0  0  0  0  0  0  0  0  0  0  0
    6.6537  -14.2776   24.8371 C   0  0  2  0  0  0  0  0  0  0  0  0
    5.3083  -14.5234   25.2841 N   0  0  0  0  0  0  0  0  0  0  0  0
    7.4970  -15.4926   24.9284 C   0  0  0  0  0  0  0  0  0  0  0  0
    7.4208  -16.1870   25.9722 O   0  0  0  0  0  0  0  0  0  0  0  0
    8.3626  -15.8548   23.8650 N   0  0  0  0  0  0  0  0  0  0  0  0
    9.3481  -16.9087   23.9840 C   0  0  1  0  0  0  0  0  0  0  0  0
    9.9195  -17.2848   22.6309 C   0  0  0  0  0  0  0  0  0  0  0  0
    8.8814  -17.7686   21.6810 C   0  0  0  0  0  0  0  0  0  0  0  0
    9.5258  -18.1611   20.3785 C   0  0  0  0  0  0  0  0  0  0  0  0
    8.5757  -18.7133   19.3708 C   0  0  0  0  0  0  0  0  0  0  0  0
    9.3749  -19.1517   18.2152 N   0  0  0  0  0  0  0  0  0  0  0  0
   10.4467  -16.5254   24.9119 C   0  0  0  0  0  0  0  0  0  0  0  0
   11.2110  -15.5885   24.5378 O   0  0  0  0  0  0  0  0  0  0  0  0
    9.6712  -14.9854   29.9102 C   0  0  0  0  0  0  0  0  0  0  0  0
   10.1337  -15.9853   28.9357 C   0  0  0  0  0  0  0  0  0  0  0  0
   11.1056  -15.6242   27.8947 C   0  0  2  0  0  0  0  0  0  0  0  0
   10.6164  -14.4772   27.0096 C   0  0  0  0  0  0  0  0  0  0  0  0
   11.7464  -16.6871   27.0710 C   0  0  2  0  0  0  0  0  0  0  0  0
   10.6593  -17.1490   26.1532 N   0  0  0  0  0  0  0  0  0  0  0  0
   12.2990  -17.8518   27.7263 C   0  0  0  0  0  0  0  0  0  0  0  0
   11.7335  -18.9592   27.7626 O   0  0  0  0  0  0  0  0  0  0  0  0
   13.5390  -17.7862   28.3729 O   0  0  0  0  0  0  0  0  0  0  0  0
  2  3  1  6
  2  1  1  0
  4  2  1  0
  5  6  1  1
  5  4  1  0
  7  9  1  0
  7  5  1  0
  8  7  2  0
 10  9  1  0
 10 11  1  6
 11 12  1  0
 12 13  1  0
 13 14  1  0
 15 14  1  0
 16 10  1  0
 17 16  2  0
 18 19  1  0
 20 19  1  0
 20 22  1  0
 20 21  1  6
 22 24  1  0
 22 23  1  6
 23 16  1  0
 24 26  1  0
 25 24  2  0
M  END
$$$$
