LKI.pdb
     RDKit          3D

 26 25  0  0  1  0  0  0  0  0999 V2000
    7.2765  -12.3049   18.4658 C   0  0  0  0  0  0  0  0  0  0  0  0
    7.7941  -13.6414   18.8990 C   0  0  1  0  0  0  0  0  0  0  0  0
    9.1637  -13.5598   19.5258 C   0  0  0  0  0  0  0  0  0  0  0  0
    6.8173  -14.2481   19.9162 C   0  0  0  0  0  0  0  0  0  0  0  0
    7.5356  -15.4457   20.5077 C   0  0  2  0  0  0  0  0  0  0  0  0
    7.2917  -16.6451   19.7512 N   0  0  0  0  0  0  0  0  0  0  0  0
    7.2201  -15.6247   21.9444 C   0  0  0  0  0  0  0  0  0  0  0  0
    6.8018  -14.6291   22.5855 O   0  0  0  0  0  0  0  0  0  0  0  0
    7.3880  -16.8860   22.5709 N   0  0  0  0  0  0  0  0  0  0  0  0
    7.0324  -17.1250   23.9538 C   0  0  1  0  0  0  0  0  0  0  0  0
    6.9309  -18.6089   24.2486 C   0  0  0  0  0  0  0  0  0  0  0  0
    5.9676  -19.3092   23.3567 C   0  0  0  0  0  0  0  0  0  0  0  0
    5.9244  -20.7735   23.7031 C   0  0  0  0  0  0  0  0  0  0  0  0
    4.9111  -21.5517   22.9346 C   0  0  0  0  0  0  0  0  0  0  0  0
    5.0715  -22.9653   23.3122 N   0  0  0  0  0  0  0  0  0  0  0  0
    8.0024  -16.4863   24.8843 C   0  0  0  0  0  0  0  0  0  0  0  0
    9.2284  -16.5755   24.5828 O   0  0  0  0  0  0  0  0  0  0  0  0
    6.3876  -11.8510   26.7500 C   0  0  0  0  0  0  0  0  0  0  0  0
    7.2381  -12.9728   26.3238 C   0  0  0  0  0  0  0  0  0  0  0  0
    7.8933  -13.8361   27.3158 C   0  0  2  0  0  0  0  0  0  0  0  0
    8.7331  -13.0432   28.3180 C   0  0  0  0  0  0  0  0  0  0  0  0
    8.6175  -15.0614   26.8764 C   0  0  2  0  0  0  0  0  0  0  0  0
    7.6163  -15.8069   26.0524 N   0  0  0  0  0  0  0  0  0  0  0  0
    9.1372  -15.9706   27.8736 C   0  0  0  0  0  0  0  0  0  0  0  0
   10.2635  -15.8615   28.3900 O   0  0  0  0  0  0  0  0  0  0  0  0
    8.3711  -17.0539   28.3206 O   0  0  0  0  0  0  0  0  0  0  0  0
  2  3  1  1
  2  1  1  0
  4  2  1  0
  5  6  1  6
  5  4  1  0
  7  9  1  0
  7  5  1  0
  8  7  2  0
 10  9  1  0
 10 11  1  6
 11 12  1  0
 12 13  1  0
 13 14  1  0
 15 14  1  0
 16 10  1  0
 17 16  2  0
 18 19  1  0
 20 19  1  0
 20 22  1  0
 20 21  1  6
 22 24  1  0
 22 23  1  6
 23 16  1  0
 24 26  1  0
 25 24  2  0
M  END
$$$$
