LKI.pdb
     RDKit          3D

 26 25  0  0  1  0  0  0  0  0999 V2000
    8.3950  -11.6554   18.9576 C   0  0  0  0  0  0  0  0  0  0  0  0
    8.8353  -13.0803   18.8249 C   0  0  1  0  0  0  0  0  0  0  0  0
   10.0656  -13.3878   19.6416 C   0  0  0  0  0  0  0  0  0  0  0  0
    7.6933  -13.9992   19.2813 C   0  0  0  0  0  0  0  0  0  0  0  0
    8.3436  -15.3322   19.5979 C   0  0  2  0  0  0  0  0  0  0  0  0
    8.0028  -16.3392   18.6284 N   0  0  0  0  0  0  0  0  0  0  0  0
    8.0504  -15.7751   20.9812 C   0  0  0  0  0  0  0  0  0  0  0  0
    6.8495  -15.8129   21.3469 O   0  0  0  0  0  0  0  0  0  0  0  0
    9.0997  -16.1440   21.8612 N   0  0  0  0  0  0  0  0  0  0  0  0
    8.8585  -16.7397   23.1584 C   0  0  1  0  0  0  0  0  0  0  0  0
    9.5893  -18.0602   23.3034 C   0  0  0  0  0  0  0  0  0  0  0  0
    9.0669  -19.1116   22.3894 C   0  0  0  0  0  0  0  0  0  0  0  0
    9.7639  -20.4173   22.6633 C   0  0  0  0  0  0  0  0  0  0  0  0
    9.2974  -21.5477   21.8103 C   0  0  0  0  0  0  0  0  0  0  0  0
   10.0918  -22.7294   22.1831 N   0  0  0  0  0  0  0  0  0  0  0  0
    9.2466  -15.8192   24.2616 C   0  0  0  0  0  0  0  0  0  0  0  0
   10.3498  -15.2113   24.1383 O   0  0  0  0  0  0  0  0  0  0  0  0
    5.6072  -12.6933   26.5520 C   0  0  0  0  0  0  0  0  0  0  0  0
    6.8489  -13.3300   26.0871 C   0  0  0  0  0  0  0  0  0  0  0  0
    7.7106  -14.0650   27.0230 C   0  0  2  0  0  0  0  0  0  0  0  0
    8.0127  -13.2658   28.2913 C   0  0  0  0  0  0  0  0  0  0  0  0
    8.9379  -14.7485   26.5278 C   0  0  2  0  0  0  0  0  0  0  0  0
    8.4541  -15.6072   25.4027 N   0  0  0  0  0  0  0  0  0  0  0  0
    9.6939  -15.5860   27.4323 C   0  0  0  0  0  0  0  0  0  0  0  0
    9.4522  -16.7908   27.6256 O   0  0  0  0  0  0  0  0  0  0  0  0
   10.7706  -15.0628   28.1583 O   0  0  0  0  0  0  0  0  0  0  0  0
  2  3  1  1
  2  1  1  0
  4  2  1  0
  5  6  1  6
  5  4  1  0
  7  9  1  0
  7  5  1  0
  8  7  2  0
 10  9  1  0
 10 11  1  6
 11 12  1  0
 12 13  1  0
 13 14  1  0
 15 14  1  0
 16 10  1  0
 17 16  2  0
 18 19  1  0
 20 19  1  0
 20 22  1  0
 20 21  1  1
 22 24  1  0
 22 23  1  6
 23 16  1  0
 24 26  1  0
 25 24  2  0
M  END
$$$$
