VVS.pdb
     RDKit          3D

 21 20  0  0  1  0  0  0  0  0999 V2000
    8.2281  -17.1692   21.8690 C   0  0  0  0  0  0  0  0  0  0  0  0
    6.8507  -16.5195   21.7545 C   0  0  2  0  0  0  0  0  0  0  0  0
    6.3119  -16.9136   20.4162 C   0  0  0  0  0  0  0  0  0  0  0  0
    7.0028  -14.9922   21.8176 C   0  0  2  0  0  0  0  0  0  0  0  0
    7.8551  -14.6669   20.6547 N   0  0  0  0  0  0  0  0  0  0  0  0
    7.6906  -14.5475   23.0338 C   0  0  0  0  0  0  0  0  0  0  0  0
    8.9569  -14.5689   23.0541 O   0  0  0  0  0  0  0  0  0  0  0  0
    6.3920  -11.6298   25.6757 C   0  0  0  0  0  0  0  0  0  0  0  0
    6.9022  -12.8808   26.2893 C   0  0  2  0  0  0  0  0  0  0  0  0
    7.5967  -12.4909   27.6017 C   0  0  0  0  0  0  0  0  0  0  0  0
    7.8161  -13.7159   25.4298 C   0  0  2  0  0  0  0  0  0  0  0  0
    7.0773  -14.0876   24.2073 N   0  0  0  0  0  0  0  0  0  0  0  0
    8.3868  -14.8907   26.0789 C   0  0  0  0  0  0  0  0  0  0  0  0
    7.6603  -15.9133   26.3746 O   0  0  0  0  0  0  0  0  0  0  0  0
   12.2163  -17.6077   26.9616 O   0  0  0  0  0  0  0  0  0  0  0  0
   11.6641  -16.4548   26.3959 C   0  0  0  0  0  0  0  0  0  0  0  0
   10.2803  -16.2521   27.0281 C   0  0  2  0  0  0  0  0  0  0  0  0
    9.7462  -15.0409   26.4431 N   0  0  0  0  0  0  0  0  0  0  0  0
   10.4824  -16.0360   28.4652 C   0  0  0  0  0  0  0  0  0  0  0  0
   10.4487  -14.8745   28.9323 O   0  0  0  0  0  0  0  0  0  0  0  0
   10.7123  -17.1050   29.3229 O   0  0  0  0  0  0  0  0  0  0  0  0
  2  1  1  6
  2  3  1  0
  2  4  1  0
  4  6  1  0
  4  5  1  6
  6 12  1  0
  6  7  2  0
  9  8  1  6
  9 11  1  0
 10  9  1  0
 11 13  1  0
 11 12  1  6
 13 14  2  0
 15 16  1  0
 17 16  1  6
 17 19  1  0
 18 13  1  0
 18 17  1  0
 19 21  1  0
 20 19  2  0
M  END
$$$$
