VVS.pdb
     RDKit          3D

 21 20  0  0  1  0  0  0  0  0999 V2000
    7.6069  -12.4025   20.9823 C   0  0  0  0  0  0  0  0  0  0  0  0
    8.3181  -13.6223   20.4003 C   0  0  2  0  0  0  0  0  0  0  0  0
    7.6795  -13.8859   19.0740 C   0  0  0  0  0  0  0  0  0  0  0  0
    8.0972  -14.8285   21.3257 C   0  0  2  0  0  0  0  0  0  0  0  0
    6.6402  -15.0690   21.2620 N   0  0  0  0  0  0  0  0  0  0  0  0
    8.4579  -14.5403   22.7173 C   0  0  0  0  0  0  0  0  0  0  0  0
    9.6835  -14.4096   23.0093 O   0  0  0  0  0  0  0  0  0  0  0  0
    6.5319  -12.0782   25.1763 C   0  0  0  0  0  0  0  0  0  0  0  0
    6.9183  -13.3371   25.8600 C   0  0  2  0  0  0  0  0  0  0  0  0
    7.3433  -12.9651   27.2876 C   0  0  0  0  0  0  0  0  0  0  0  0
    7.9850  -14.1587   25.1829 C   0  0  2  0  0  0  0  0  0  0  0  0
    7.5646  -14.3887   23.7868 N   0  0  0  0  0  0  0  0  0  0  0  0
    8.3247  -15.4131   25.8448 C   0  0  0  0  0  0  0  0  0  0  0  0
    7.4368  -16.3237   26.0534 O   0  0  0  0  0  0  0  0  0  0  0  0
   11.9518  -16.8417   25.8258 O   0  0  0  0  0  0  0  0  0  0  0  0
   10.9219  -17.7448   26.1047 C   0  0  0  0  0  0  0  0  0  0  0  0
    9.8982  -17.0145   26.9848 C   0  0  2  0  0  0  0  0  0  0  0  0
    9.6130  -15.7641   26.3141 N   0  0  0  0  0  0  0  0  0  0  0  0
   10.5493  -16.7271   28.2679 C   0  0  0  0  0  0  0  0  0  0  0  0
   10.8113  -15.5438   28.5834 O   0  0  0  0  0  0  0  0  0  0  0  0
   10.8826  -17.7521   29.1452 O   0  0  0  0  0  0  0  0  0  0  0  0
  2  1  1  1
  2  3  1  0
  2  4  1  0
  4  6  1  0
  4  5  1  1
  6 12  1  0
  6  7  2  0
  9  8  1  6
  9 11  1  0
 10  9  1  0
 11 13  1  0
 11 12  1  6
 13 14  2  0
 15 16  1  0
 17 16  1  6
 17 19  1  0
 18 13  1  0
 18 17  1  0
 19 21  1  0
 20 19  2  0
M  END
$$$$
