VVS.pdb
     RDKit          3D

 21 20  0  0  1  0  0  0  0  0999 V2000
    8.1301  -16.4298   21.3539 C   0  0  0  0  0  0  0  0  0  0  0  0
    6.8007  -15.6805   21.4141 C   0  0  2  0  0  0  0  0  0  0  0  0
    6.1750  -15.8288   20.0638 C   0  0  0  0  0  0  0  0  0  0  0  0
    7.0678  -14.1942   21.6960 C   0  0  2  0  0  0  0  0  0  0  0  0
    7.9176  -13.7606   20.5670 N   0  0  0  0  0  0  0  0  0  0  0  0
    7.8122  -13.9854   22.9419 C   0  0  0  0  0  0  0  0  0  0  0  0
    9.0779  -14.0080   22.9006 O   0  0  0  0  0  0  0  0  0  0  0  0
    5.8913  -13.2877   26.7374 C   0  0  0  0  0  0  0  0  0  0  0  0
    7.2972  -12.9005   26.4632 C   0  0  2  0  0  0  0  0  0  0  0  0
    7.2842  -11.4294   26.0244 C   0  0  0  0  0  0  0  0  0  0  0  0
    8.0351  -13.7498   25.4604 C   0  0  2  0  0  0  0  0  0  0  0  0
    7.2550  -13.7558   24.2074 N   0  0  0  0  0  0  0  0  0  0  0  0
    8.3446  -15.1070   25.8956 C   0  0  0  0  0  0  0  0  0  0  0  0
    7.4366  -16.0206   25.9410 O   0  0  0  0  0  0  0  0  0  0  0  0
   10.8595  -17.3935   24.7030 O   0  0  0  0  0  0  0  0  0  0  0  0
   11.1321  -17.3920   26.0740 C   0  0  0  0  0  0  0  0  0  0  0  0
    9.8675  -16.9007   26.7918 C   0  0  2  0  0  0  0  0  0  0  0  0
    9.6223  -15.5618   26.2998 N   0  0  0  0  0  0  0  0  0  0  0  0
   10.1759  -16.8309   28.2245 C   0  0  0  0  0  0  0  0  0  0  0  0
   10.3471  -17.8855   28.8779 O   0  0  0  0  0  0  0  0  0  0  0  0
   10.2822  -15.6067   28.8736 O   0  0  0  0  0  0  0  0  0  0  0  0
  2  1  1  6
  2  3  1  0
  2  4  1  0
  4  6  1  0
  4  5  1  6
  6 12  1  0
  6  7  2  0
  9  8  1  6
  9 11  1  0
 10  9  1  0
 11 13  1  0
 11 12  1  6
 13 14  2  0
 15 16  1  0
 17 16  1  6
 17 19  1  0
 18 13  1  0
 18 17  1  0
 19 21  1  0
 20 19  2  0
M  END
$$$$
