VVS.pdb
     RDKit          3D

 21 20  0  0  1  0  0  0  0  0999 V2000
    7.5254  -20.7443   23.8784 C   0  0  0  0  0  0  0  0  0  0  0  0
    6.4316  -20.2096   24.8005 C   0  0  2  0  0  0  0  0  0  0  0  0
    5.4230  -21.3058   24.9331 C   0  0  0  0  0  0  0  0  0  0  0  0
    5.7744  -18.9826   24.1505 C   0  0  2  0  0  0  0  0  0  0  0  0
    5.1934  -19.5073   22.8967 N   0  0  0  0  0  0  0  0  0  0  0  0
    6.7480  -17.9410   23.8085 C   0  0  0  0  0  0  0  0  0  0  0  0
    7.2956  -17.9769   22.6669 O   0  0  0  0  0  0  0  0  0  0  0  0
    8.0729  -14.7364   26.5230 C   0  0  0  0  0  0  0  0  0  0  0  0
    7.9491  -14.6430   25.0472 C   0  0  2  0  0  0  0  0  0  0  0  0
    6.5468  -14.0965   24.7443 C   0  0  0  0  0  0  0  0  0  0  0  0
    8.2038  -15.9143   24.2789 C   0  0  2  0  0  0  0  0  0  0  0  0
    7.1459  -16.8804   24.6340 N   0  0  0  0  0  0  0  0  0  0  0  0
    9.5297  -16.4966   24.4523 C   0  0  0  0  0  0  0  0  0  0  0  0
    9.8614  -17.0971   25.5433 O   0  0  0  0  0  0  0  0  0  0  0  0
   12.3372  -16.1256   21.5977 O   0  0  0  0  0  0  0  0  0  0  0  0
   12.3720  -17.3754   22.2228 C   0  0  0  0  0  0  0  0  0  0  0  0
   11.8079  -17.1950   23.6389 C   0  0  2  0  0  0  0  0  0  0  0  0
   10.5626  -16.4736   23.4851 N   0  0  0  0  0  0  0  0  0  0  0  0
   12.7535  -16.3561   24.3837 C   0  0  0  0  0  0  0  0  0  0  0  0
   12.4308  -15.1908   24.7100 O   0  0  0  0  0  0  0  0  0  0  0  0
   14.0096  -16.8353   24.7358 O   0  0  0  0  0  0  0  0  0  0  0  0
  2  1  1  6
  2  3  1  0
  2  4  1  0
  4  6  1  0
  4  5  1  6
  6 12  1  0
  6  7  2  0
  9  8  1  1
  9 11  1  0
 10  9  1  0
 11 13  1  0
 11 12  1  1
 13 14  2  0
 15 16  1  0
 17 16  1  6
 17 19  1  0
 18 13  1  0
 18 17  1  0
 19 21  1  0
 20 19  2  0
M  END
$$$$
