VVS.pdb
     RDKit          3D

 21 20  0  0  1  0  0  0  0  0999 V2000
    7.5709  -13.0800   21.0617 C   0  0  0  0  0  0  0  0  0  0  0  0
    8.2629  -14.4147   20.7930 C   0  0  2  0  0  0  0  0  0  0  0  0
    7.5894  -15.0014   19.5935 C   0  0  0  0  0  0  0  0  0  0  0  0
    8.0619  -15.3430   22.0004 C   0  0  2  0  0  0  0  0  0  0  0  0
    6.5939  -15.4720   22.1149 N   0  0  0  0  0  0  0  0  0  0  0  0
    8.5735  -14.7614   23.2454 C   0  0  0  0  0  0  0  0  0  0  0  0
    9.8164  -14.5372   23.3416 O   0  0  0  0  0  0  0  0  0  0  0  0
    6.0871  -13.4232   26.5674 C   0  0  0  0  0  0  0  0  0  0  0  0
    7.4549  -12.9449   26.2480 C   0  0  2  0  0  0  0  0  0  0  0  0
    7.3049  -11.7321   25.3186 C   0  0  0  0  0  0  0  0  0  0  0  0
    8.3904  -13.9635   25.6491 C   0  0  2  0  0  0  0  0  0  0  0  0
    7.8107  -14.4171   24.3697 N   0  0  0  0  0  0  0  0  0  0  0  0
    8.7197  -15.0943   26.5093 C   0  0  0  0  0  0  0  0  0  0  0  0
    7.8124  -15.9140   26.9167 O   0  0  0  0  0  0  0  0  0  0  0  0
   12.3823  -16.4754   26.8018 O   0  0  0  0  0  0  0  0  0  0  0  0
   11.3813  -17.3494   27.2353 C   0  0  0  0  0  0  0  0  0  0  0  0
   10.2848  -16.5000   27.8927 C   0  0  2  0  0  0  0  0  0  0  0  0
   10.0173  -15.4123   26.9763 N   0  0  0  0  0  0  0  0  0  0  0  0
   10.8419  -15.9494   29.1334 C   0  0  0  0  0  0  0  0  0  0  0  0
   11.0205  -14.7146   29.2430 O   0  0  0  0  0  0  0  0  0  0  0  0
   11.1770  -16.7796   30.1962 O   0  0  0  0  0  0  0  0  0  0  0  0
  2  1  1  1
  2  3  1  0
  2  4  1  0
  4  6  1  0
  4  5  1  1
  6 12  1  0
  6  7  2  0
  9  8  1  6
  9 11  1  0
 10  9  1  0
 11 13  1  0
 11 12  1  6
 13 14  2  0
 15 16  1  0
 17 16  1  6
 17 19  1  0
 18 13  1  0
 18 17  1  0
 19 21  1  0
 20 19  2  0
M  END
$$$$
