SAW.pdb
     RDKit          3D

 26 27  0  0  1  0  0  0  0  0999 V2000
    8.0746  -19.2156   23.0650 O   0  0  0  0  0  0  0  0  0  0  0  0
    6.7465  -19.0052   22.6603 C   0  0  0  0  0  0  0  0  0  0  0  0
    6.7482  -18.7166   21.1535 C   0  0  2  0  0  0  0  0  0  0  0  0
    7.2768  -19.8495   20.5017 N   0  0  0  0  0  0  0  0  0  0  0  0
    7.5954  -17.5156   20.8768 C   0  0  0  0  0  0  0  0  0  0  0  0
    8.6907  -17.6518   20.3022 O   0  0  0  0  0  0  0  0  0  0  0  0
    7.0208  -13.7799   21.0584 C   0  0  0  0  0  0  0  0  0  0  0  0
    7.9198  -15.0234   21.0140 C   0  0  2  0  0  0  0  0  0  0  0  0
    7.1474  -16.2213   21.2709 N   0  0  0  0  0  0  0  0  0  0  0  0
    8.8922  -14.8632   22.1206 C   0  0  0  0  0  0  0  0  0  0  0  0
    9.6911  -13.8901   22.1731 O   0  0  0  0  0  0  0  0  0  0  0  0
    8.9521  -15.8015   23.1533 N   0  0  0  0  0  0  0  0  0  0  0  0
    9.8293  -15.7077   24.3019 C   0  0  1  0  0  0  0  0  0  0  0  0
    9.1724  -16.1220   25.5754 C   0  0  0  0  0  0  0  0  0  0  0  0
    7.8726  -15.4142   25.6885 C   0  0  0  0  0  0  0  0  0  0  0  0
    6.5911  -15.9039   25.4669 C   0  0  0  0  0  0  0  0  0  0  0  0
    5.6997  -14.9230   25.6788 N   0  0  0  0  0  0  0  0  0  0  0  0
    6.3452  -13.8094   26.0305 C   0  0  0  0  0  0  0  0  0  0  0  0
    5.8845  -12.5444   26.3494 C   0  0  0  0  0  0  0  0  0  0  0  0
    6.7490  -11.5271   26.6886 C   0  0  0  0  0  0  0  0  0  0  0  0
    8.1131  -11.7971   26.7053 C   0  0  0  0  0  0  0  0  0  0  0  0
    8.5581  -13.0624   26.3853 C   0  0  0  0  0  0  0  0  0  0  0  0
    7.6963  -14.0841   26.0451 C   0  0  0  0  0  0  0  0  0  0  0  0
   11.0322  -16.5097   24.0427 C   0  0  0  0  0  0  0  0  0  0  0  0
   12.0822  -16.4579   24.9470 O   0  0  0  0  0  0  0  0  0  0  0  0
   11.1568  -17.2518   23.0249 O   0  0  0  0  0  0  0  0  0  0  0  0
  2  3  1  0
  2  1  1  0
  3  4  1  6
  5  6  2  0
  5  3  1  0
  8  7  1  1
  8  9  1  0
  8 10  1  0
  9  5  1  0
 10 11  2  0
 12 10  1  0
 12 13  1  0
 13 14  1  1
 15 16  2  0
 15 14  1  0
 17 16  1  0
 18 23  2  0
 18 17  1  0
 19 18  1  0
 20 19  2  0
 20 21  1  0
 21 22  2  0
 22 23  1  0
 23 15  1  0
 24 25  1  0
 24 13  1  0
 26 24  2  0
M  END
$$$$
