SAW.pdb
     RDKit          3D

 26 27  0  0  1  0  0  0  0  0999 V2000
   10.4857  -13.4684   18.9224 O   0  0  0  0  0  0  0  0  0  0  0  0
    9.7480  -14.2015   17.9790 C   0  0  0  0  0  0  0  0  0  0  0  0
    8.2580  -13.9307   18.2251 C   0  0  2  0  0  0  0  0  0  0  0  0
    8.0596  -12.5366   18.1562 N   0  0  0  0  0  0  0  0  0  0  0  0
    7.8746  -14.4439   19.5766 C   0  0  0  0  0  0  0  0  0  0  0  0
    7.7782  -13.6533   20.5327 O   0  0  0  0  0  0  0  0  0  0  0  0
    7.0005  -17.8925   20.9476 C   0  0  0  0  0  0  0  0  0  0  0  0
    7.3145  -16.3946   21.0652 C   0  0  2  0  0  0  0  0  0  0  0  0
    7.6213  -15.8336   19.7658 N   0  0  0  0  0  0  0  0  0  0  0  0
    8.5339  -16.2981   21.9017 C   0  0  0  0  0  0  0  0  0  0  0  0
    9.6910  -16.3489   21.4053 O   0  0  0  0  0  0  0  0  0  0  0  0
    8.4337  -16.1460   23.2864 N   0  0  0  0  0  0  0  0  0  0  0  0
    9.5622  -16.0131   24.1844 C   0  0  1  0  0  0  0  0  0  0  0  0
    9.5421  -14.7425   24.9655 C   0  0  0  0  0  0  0  0  0  0  0  0
    8.1512  -14.4874   25.4167 C   0  0  0  0  0  0  0  0  0  0  0  0
    7.1036  -15.3883   25.5646 C   0  0  0  0  0  0  0  0  0  0  0  0
    6.0134  -14.7330   25.9934 N   0  0  0  0  0  0  0  0  0  0  0  0
    6.3040  -13.4382   26.1327 C   0  0  0  0  0  0  0  0  0  0  0  0
    5.5333  -12.3641   26.5407 C   0  0  0  0  0  0  0  0  0  0  0  0
    6.0520  -11.0900   26.6098 C   0  0  0  0  0  0  0  0  0  0  0  0
    7.3835  -10.8986   26.2573 C   0  0  0  0  0  0  0  0  0  0  0  0
    8.1400  -11.9781   25.8525 C   0  0  0  0  0  0  0  0  0  0  0  0
    7.6249  -13.2556   25.7817 C   0  0  0  0  0  0  0  0  0  0  0  0
    9.5952  -17.1804   25.0754 C   0  0  0  0  0  0  0  0  0  0  0  0
   10.7325  -17.4154   25.8332 O   0  0  0  0  0  0  0  0  0  0  0  0
    8.6271  -17.9883   25.1851 O   0  0  0  0  0  0  0  0  0  0  0  0
  2  3  1  0
  2  1  1  0
  3  4  1  1
  5  6  2  0
  5  3  1  0
  8  7  1  6
  8  9  1  0
  8 10  1  0
  9  5  1  0
 10 11  2  0
 12 10  1  0
 12 13  1  0
 13 14  1  1
 15 16  2  0
 15 14  1  0
 17 16  1  0
 18 23  2  0
 18 17  1  0
 19 18  1  0
 20 19  2  0
 20 21  1  0
 21 22  2  0
 22 23  1  0
 23 15  1  0
 24 25  1  0
 24 13  1  0
 26 24  2  0
M  END
$$$$
