SAW.pdb
     RDKit          3D

 26 27  0  0  1  0  0  0  0  0999 V2000
   10.3249  -13.0405   19.1490 O   0  0  0  0  0  0  0  0  0  0  0  0
    9.8753  -13.8815   18.1183 C   0  0  0  0  0  0  0  0  0  0  0  0
    8.3639  -14.0807   18.2916 C   0  0  2  0  0  0  0  0  0  0  0  0
    7.7567  -12.8092   18.2438 N   0  0  0  0  0  0  0  0  0  0  0  0
    8.0952  -14.7356   19.6091 C   0  0  0  0  0  0  0  0  0  0  0  0
    7.8127  -14.0371   20.5995 O   0  0  0  0  0  0  0  0  0  0  0  0
    8.0426  -18.3585   20.7982 C   0  0  0  0  0  0  0  0  0  0  0  0
    7.9378  -16.8383   20.9833 C   0  0  2  0  0  0  0  0  0  0  0  0
    8.1632  -16.1542   19.7269 N   0  0  0  0  0  0  0  0  0  0  0  0
    9.0335  -16.4637   21.9080 C   0  0  0  0  0  0  0  0  0  0  0  0
   10.1848  -16.1629   21.4936 O   0  0  0  0  0  0  0  0  0  0  0  0
    8.8177  -16.4333   23.2876 N   0  0  0  0  0  0  0  0  0  0  0  0
    9.8256  -16.0971   24.2719 C   0  0  1  0  0  0  0  0  0  0  0  0
    9.6644  -14.7227   24.8286 C   0  0  0  0  0  0  0  0  0  0  0  0
    8.2796  -14.5811   25.3437 C   0  0  0  0  0  0  0  0  0  0  0  0
    7.2884  -15.5485   25.4570 C   0  0  0  0  0  0  0  0  0  0  0  0
    6.1812  -14.9897   25.9704 N   0  0  0  0  0  0  0  0  0  0  0  0
    6.4064  -13.6945   26.1985 C   0  0  0  0  0  0  0  0  0  0  0  0
    5.5944  -12.6992   26.7126 C   0  0  0  0  0  0  0  0  0  0  0  0
    6.0458  -11.4064   26.8616 C   0  0  0  0  0  0  0  0  0  0  0  0
    7.3510  -11.1141   26.4808 C   0  0  0  0  0  0  0  0  0  0  0  0
    8.1490  -12.1158   25.9700 C   0  0  0  0  0  0  0  0  0  0  0  0
    7.7015  -13.4117   25.8189 C   0  0  0  0  0  0  0  0  0  0  0  0
    9.7968  -17.1059   25.3390 C   0  0  0  0  0  0  0  0  0  0  0  0
    8.8244  -18.0940   25.3036 O   0  0  0  0  0  0  0  0  0  0  0  0
   10.6240  -17.1163   26.2970 O   0  0  0  0  0  0  0  0  0  0  0  0
  2  3  1  0
  2  1  1  0
  3  4  1  1
  5  6  2  0
  5  3  1  0
  8  7  1  6
  8  9  1  0
  8 10  1  0
  9  5  1  0
 10 11  2  0
 12 10  1  0
 12 13  1  0
 13 14  1  1
 15 16  2  0
 15 14  1  0
 17 16  1  0
 18 23  2  0
 18 17  1  0
 19 18  1  0
 20 19  2  0
 20 21  1  0
 21 22  2  0
 22 23  1  0
 23 15  1  0
 24 25  1  0
 24 13  1  0
 26 24  2  0
M  END
$$$$
