SAW.pdb
     RDKit          3D

 26 27  0  0  1  0  0  0  0  0999 V2000
    7.6739  -18.6838   22.8291 O   0  0  0  0  0  0  0  0  0  0  0  0
    7.5702  -19.4670   21.6683 C   0  0  0  0  0  0  0  0  0  0  0  0
    6.9741  -18.5938   20.5565 C   0  0  2  0  0  0  0  0  0  0  0  0
    7.0385  -19.3283   19.3548 N   0  0  0  0  0  0  0  0  0  0  0  0
    7.7658  -17.3306   20.4362 C   0  0  0  0  0  0  0  0  0  0  0  0
    8.8521  -17.3382   19.8292 O   0  0  0  0  0  0  0  0  0  0  0  0
    7.0297  -13.6828   21.0168 C   0  0  0  0  0  0  0  0  0  0  0  0
    7.9961  -14.8715   20.9212 C   0  0  2  0  0  0  0  0  0  0  0  0
    7.2755  -16.1243   21.0156 N   0  0  0  0  0  0  0  0  0  0  0  0
    8.8866  -14.7690   22.1012 C   0  0  0  0  0  0  0  0  0  0  0  0
    9.6753  -13.7995   22.2615 O   0  0  0  0  0  0  0  0  0  0  0  0
    8.8771  -15.7604   23.0849 N   0  0  0  0  0  0  0  0  0  0  0  0
    9.6923  -15.7411   24.2818 C   0  0  1  0  0  0  0  0  0  0  0  0
    8.9610  -16.2069   25.4956 C   0  0  0  0  0  0  0  0  0  0  0  0
    7.7389  -15.3799   25.6571 C   0  0  0  0  0  0  0  0  0  0  0  0
    6.4078  -15.7563   25.5243 C   0  0  0  0  0  0  0  0  0  0  0  0
    5.6221  -14.6921   25.7521 N   0  0  0  0  0  0  0  0  0  0  0  0
    6.3845  -13.6326   26.0289 C   0  0  0  0  0  0  0  0  0  0  0  0
    6.0589  -12.3221   26.3297 C   0  0  0  0  0  0  0  0  0  0  0  0
    7.0297  -11.3789   26.5851 C   0  0  0  0  0  0  0  0  0  0  0  0
    8.3627  -11.7722   26.5347 C   0  0  0  0  0  0  0  0  0  0  0  0
    8.6727  -13.0816   26.2337 C   0  0  0  0  0  0  0  0  0  0  0  0
    7.7040  -14.0295   25.9773 C   0  0  0  0  0  0  0  0  0  0  0  0
   10.8944  -16.5515   24.0461 C   0  0  0  0  0  0  0  0  0  0  0  0
   11.8907  -16.5722   25.0104 O   0  0  0  0  0  0  0  0  0  0  0  0
   11.0654  -17.2373   22.9960 O   0  0  0  0  0  0  0  0  0  0  0  0
  2  3  1  0
  2  1  1  0
  3  4  1  6
  5  6  2  0
  5  3  1  0
  8  7  1  1
  8  9  1  0
  8 10  1  0
  9  5  1  0
 10 11  2  0
 12 10  1  0
 12 13  1  0
 13 14  1  1
 15 16  2  0
 15 14  1  0
 17 16  1  0
 18 23  2  0
 18 17  1  0
 19 18  1  0
 20 19  2  0
 20 21  1  0
 21 22  2  0
 22 23  1  0
 23 15  1  0
 24 25  1  0
 24 13  1  0
 26 24  2  0
M  END
$$$$
