YDD.pdb
     RDKit          3D

 29 29  0  0  1  0  0  0  0  0999 V2000
    9.9732  -13.7547   29.6310 O   0  0  0  0  0  0  0  0  0  0  0  0
    9.2639  -13.8305   28.4168 C   0  0  0  0  0  0  0  0  0  0  0  0
    7.8914  -13.6768   28.3853 C   0  0  0  0  0  0  0  0  0  0  0  0
    7.2413  -13.7595   27.1699 C   0  0  0  0  0  0  0  0  0  0  0  0
    7.9022  -13.9888   25.9869 C   0  0  0  0  0  0  0  0  0  0  0  0
    7.1561  -14.0638   24.7112 C   0  0  0  0  0  0  0  0  0  0  0  0
    6.7049  -15.4676   24.3981 C   0  0  2  0  0  0  0  0  0  0  0  0
    6.2246  -16.1528   25.5774 N   0  0  0  0  0  0  0  0  0  0  0  0
    7.7886  -16.2599   23.7215 C   0  0  0  0  0  0  0  0  0  0  0  0
    8.0843  -17.3945   24.1693 O   0  0  0  0  0  0  0  0  0  0  0  0
    9.2676  -14.1403   26.0290 C   0  0  0  0  0  0  0  0  0  0  0  0
    9.9535  -14.0624   27.2387 C   0  0  0  0  0  0  0  0  0  0  0  0
    8.4820  -15.7581   22.5932 N   0  0  0  0  0  0  0  0  0  0  0  0
    9.4252  -16.4640   21.7744 C   0  0  1  0  0  0  0  0  0  0  0  0
    9.4127  -16.0567   20.3041 C   0  0  0  0  0  0  0  0  0  0  0  0
   10.2719  -16.9298   19.4799 C   0  0  0  0  0  0  0  0  0  0  0  0
   10.0742  -18.1322   19.2805 O   0  0  0  0  0  0  0  0  0  0  0  0
   10.7456  -16.6577   22.3426 C   0  0  0  0  0  0  0  0  0  0  0  0
   11.5931  -17.4123   21.7467 O   0  0  0  0  0  0  0  0  0  0  0  0
   11.4196  -16.3951   18.8513 O   0  0  0  0  0  0  0  0  0  0  0  0
   11.2196  -16.0750   23.5411 N   0  0  0  0  0  0  0  0  0  0  0  0
   12.5964  -16.3526   24.0437 C   0  0  1  0  0  0  0  0  0  0  0  0
   12.5679  -17.8294   24.3463 C   0  0  0  0  0  0  0  0  0  0  0  0
   12.4966  -18.1960   25.7500 C   0  0  0  0  0  0  0  0  0  0  0  0
   13.0117  -19.2454   26.1955 O   0  0  0  0  0  0  0  0  0  0  0  0
   13.5498  -16.0483   22.9676 C   0  0  0  0  0  0  0  0  0  0  0  0
   14.9223  -16.0375   23.1761 O   0  0  0  0  0  0  0  0  0  0  0  0
   11.8434  -17.3962   26.7042 O   0  0  0  0  0  0  0  0  0  0  0  0
   13.1451  -15.7882   21.8223 O   0  0  0  0  0  0  0  0  0  0  0  0
  2  1  1  0
  3  2  2  0
  4  3  1  0
  5 11  1  0
  5  4  2  0
  6  5  1  0
  7  9  1  0
  7  6  1  0
  7  8  1  1
  9 10  2  0
 11 12  2  0
 12  2  1  0
 13 14  1  0
 13  9  1  0
 14 15  1  6
 16 15  1  0
 17 16  2  0
 18 19  2  0
 18 14  1  0
 20 16  1  0
 21 18  1  0
 22 21  1  0
 22 26  1  0
 22 23  1  6
 24 23  1  0
 24 28  1  0
 25 24  2  0
 26 27  1  0
 29 26  2  0
M  END
$$$$
