YDD.pdb
     RDKit          3D

 29 29  0  0  1  0  0  0  0  0999 V2000
    5.1759  -11.1324   28.0310 O   0  0  0  0  0  0  0  0  0  0  0  0
    6.0236  -11.9087   27.2175 C   0  0  0  0  0  0  0  0  0  0  0  0
    7.1335  -12.5388   27.7460 C   0  0  0  0  0  0  0  0  0  0  0  0
    7.9339  -13.2890   26.9074 C   0  0  0  0  0  0  0  0  0  0  0  0
    7.6737  -13.4363   25.5660 C   0  0  0  0  0  0  0  0  0  0  0  0
    8.5629  -14.2560   24.7132 C   0  0  0  0  0  0  0  0  0  0  0  0
    7.8676  -15.4833   24.1815 C   0  0  2  0  0  0  0  0  0  0  0  0
    7.3612  -16.3179   25.2483 N   0  0  0  0  0  0  0  0  0  0  0  0
    8.7592  -16.2704   23.2621 C   0  0  0  0  0  0  0  0  0  0  0  0
    9.2816  -17.3322   23.6807 O   0  0  0  0  0  0  0  0  0  0  0  0
    6.5670  -12.8054   25.0499 C   0  0  0  0  0  0  0  0  0  0  0  0
    5.7391  -12.0413   25.8689 C   0  0  0  0  0  0  0  0  0  0  0  0
    9.0229  -15.8439   21.9376 N   0  0  0  0  0  0  0  0  0  0  0  0
    9.9521  -16.4250   21.0116 C   0  0  1  0  0  0  0  0  0  0  0  0
    9.6491  -16.1299   19.5456 C   0  0  0  0  0  0  0  0  0  0  0  0
    8.4044  -16.7833   19.0946 C   0  0  0  0  0  0  0  0  0  0  0  0
    8.1046  -17.9612   19.3129 O   0  0  0  0  0  0  0  0  0  0  0  0
   11.3539  -16.3393   21.3741 C   0  0  0  0  0  0  0  0  0  0  0  0
   12.0753  -15.3848   20.9148 O   0  0  0  0  0  0  0  0  0  0  0  0
    7.4529  -16.0465   18.3531 O   0  0  0  0  0  0  0  0  0  0  0  0
   12.0417  -17.2400   22.2204 N   0  0  0  0  0  0  0  0  0  0  0  0
   13.5158  -17.1358   22.4249 C   0  0  1  0  0  0  0  0  0  0  0  0
   13.7147  -17.6727   23.8197 C   0  0  0  0  0  0  0  0  0  0  0  0
   14.3135  -16.7614   24.7793 C   0  0  0  0  0  0  0  0  0  0  0  0
   14.7935  -15.6558   24.4441 O   0  0  0  0  0  0  0  0  0  0  0  0
   14.1805  -17.9862   21.4277 C   0  0  0  0  0  0  0  0  0  0  0  0
   13.5715  -19.1128   20.8919 O   0  0  0  0  0  0  0  0  0  0  0  0
   14.3946  -17.0598   26.1509 O   0  0  0  0  0  0  0  0  0  0  0  0
   15.3259  -17.7141   21.0309 O   0  0  0  0  0  0  0  0  0  0  0  0
  2  1  1  0
  3  2  2  0
  4  3  1  0
  5 11  1  0
  5  4  2  0
  6  5  1  0
  7  9  1  0
  7  6  1  0
  7  8  1  1
  9 10  2  0
 11 12  2  0
 12  2  1  0
 13 14  1  0
 13  9  1  0
 14 15  1  6
 16 15  1  0
 17 16  2  0
 18 19  2  0
 18 14  1  0
 20 16  1  0
 21 18  1  0
 22 21  1  0
 22 26  1  0
 22 23  1  1
 24 23  1  0
 24 28  1  0
 25 24  2  0
 26 27  1  0
 29 26  2  0
M  END
$$$$
