YDD.pdb
     RDKit          3D

 29 29  0  0  1  0  0  0  0  0999 V2000
    6.5515  -12.4646   16.4392 O   0  0  0  0  0  0  0  0  0  0  0  0
    7.2040  -12.8244   17.6341 C   0  0  0  0  0  0  0  0  0  0  0  0
    6.5511  -13.5559   18.6073 C   0  0  0  0  0  0  0  0  0  0  0  0
    7.2339  -13.8841   19.7617 C   0  0  0  0  0  0  0  0  0  0  0  0
    8.5383  -13.5135   19.9854 C   0  0  0  0  0  0  0  0  0  0  0  0
    9.2241  -13.8960   21.2396 C   0  0  0  0  0  0  0  0  0  0  0  0
   10.0765  -15.1275   21.0688 C   0  0  2  0  0  0  0  0  0  0  0  0
    9.3157  -16.2381   20.5409 N   0  0  0  0  0  0  0  0  0  0  0  0
   10.7625  -15.5087   22.3509 C   0  0  0  0  0  0  0  0  0  0  0  0
   11.5048  -14.6702   22.9179 O   0  0  0  0  0  0  0  0  0  0  0  0
    9.1789  -12.7859   19.0111 C   0  0  0  0  0  0  0  0  0  0  0  0
    8.5185  -12.4386   17.8349 C   0  0  0  0  0  0  0  0  0  0  0  0
   10.5914  -16.7882   22.9334 N   0  0  0  0  0  0  0  0  0  0  0  0
   11.3946  -17.3835   23.9624 C   0  0  1  0  0  0  0  0  0  0  0  0
   10.7879  -18.6341   24.5916 C   0  0  0  0  0  0  0  0  0  0  0  0
   11.5294  -19.0654   25.7932 C   0  0  0  0  0  0  0  0  0  0  0  0
   12.3360  -19.9997   25.8292 O   0  0  0  0  0  0  0  0  0  0  0  0
   12.8181  -17.4639   23.6960 C   0  0  0  0  0  0  0  0  0  0  0  0
   13.5750  -18.1507   24.4692 O   0  0  0  0  0  0  0  0  0  0  0  0
   11.3351  -18.3890   27.0192 O   0  0  0  0  0  0  0  0  0  0  0  0
   13.4914  -16.8348   22.6229 N   0  0  0  0  0  0  0  0  0  0  0  0
   14.9628  -16.9928   22.4348 C   0  0  1  0  0  0  0  0  0  0  0  0
   15.2152  -16.3531   21.0929 C   0  0  0  0  0  0  0  0  0  0  0  0
   16.6010  -16.2887   20.6626 C   0  0  0  0  0  0  0  0  0  0  0  0
   17.0959  -15.2614   20.1482 O   0  0  0  0  0  0  0  0  0  0  0  0
   15.6460  -16.2604   23.5101 C   0  0  0  0  0  0  0  0  0  0  0  0
   16.9993  -16.4241   23.7731 O   0  0  0  0  0  0  0  0  0  0  0  0
   17.4812  -17.3771   20.7950 O   0  0  0  0  0  0  0  0  0  0  0  0
   15.0190  -15.4611   24.2251 O   0  0  0  0  0  0  0  0  0  0  0  0
  2  1  1  0
  3  2  2  0
  4  3  1  0
  5 11  1  0
  5  4  2  0
  6  5  1  0
  7  9  1  0
  7  6  1  0
  7  8  1  1
  9 10  2  0
 11 12  2  0
 12  2  1  0
 13 14  1  0
 13  9  1  0
 14 15  1  6
 16 15  1  0
 17 16  2  0
 18 19  2  0
 18 14  1  0
 20 16  1  0
 21 18  1  0
 22 21  1  0
 22 26  1  0
 22 23  1  6
 24 23  1  0
 24 28  1  0
 25 24  2  0
 26 27  1  0
 29 26  2  0
M  END
$$$$
