HCK.pdb
     RDKit          3D

 26 26  0  0  1  0  0  0  0  0999 V2000
   25.7107  -12.0006  -19.8780 N   0  0  0  0  0  0  0  0  0  0  0  0
   24.5856  -12.4456  -19.0987 C   0  0  1  0  0  0  0  0  0  0  0  0
   23.3457  -12.5473  -19.9341 C   0  0  0  0  0  0  0  0  0  0  0  0
   22.9240  -11.2634  -20.5397 C   0  0  0  0  0  0  0  0  0  0  0  0
   21.9278  -10.4821  -20.0123 C   0  0  0  0  0  0  0  0  0  0  0  0
   21.7695   -9.3864  -20.7763 N   0  0  0  0  0  0  0  0  0  0  0  0
   22.6655   -9.4814  -21.7816 C   0  0  0  0  0  0  0  0  0  0  0  0
   23.3582  -10.6145  -21.6346 N   0  0  0  0  0  0  0  0  0  0  0  0
   24.8720  -13.7558  -18.4399 C   0  0  0  0  0  0  0  0  0  0  0  0
   26.0309  -14.2307  -18.5746 O   0  0  0  0  0  0  0  0  0  0  0  0
   23.8990  -14.4489  -17.6910 N   0  0  0  0  0  0  0  0  0  0  0  0
   24.2725  -15.5386  -16.8498 C   0  0  1  0  0  0  0  0  0  0  0  0
   25.2637  -15.0608  -15.8229 C   0  0  0  0  0  0  0  0  0  0  0  0
   25.6711  -16.3447  -14.6154 S   0  0  0  0  0  0  0  0  0  0  0  0
   23.1039  -16.2436  -16.2629 C   0  0  0  0  0  0  0  0  0  0  0  0
   22.2607  -15.5724  -15.5702 O   0  0  0  0  0  0  0  0  0  0  0  0
   22.8211  -17.6206  -16.3938 N   0  0  0  0  0  0  0  0  0  0  0  0
   21.5846  -18.2269  -16.0358 C   0  0  1  0  0  0  0  0  0  0  0  0
   21.0742  -19.3291  -16.8783 C   0  0  0  0  0  0  0  0  0  0  0  0
   21.0382  -19.0723  -18.3561 C   0  0  0  0  0  0  0  0  0  0  0  0
   20.4797  -20.2966  -19.0490 C   0  0  0  0  0  0  0  0  0  0  0  0
   20.3167  -20.1390  -20.5262 C   0  0  0  0  0  0  0  0  0  0  0  0
   19.6395  -21.2564  -21.1508 N   0  0  0  0  0  0  0  0  0  0  0  0
   21.6692  -18.7943  -14.6230 C   0  0  0  0  0  0  0  0  0  0  0  0
   22.7783  -18.9111  -14.0649 O   0  0  0  0  0  0  0  0  0  0  0  0
   20.5164  -19.1778  -13.9662 O   0  0  0  0  0  0  0  0  0  0  0  0
  2  1  1  6
  2  9  1  0
  3  2  1  0
  3  4  1  0
  4  5  2  0
  4  8  1  0
  5  6  1  0
  6  7  1  0
  8  7  2  0
  9 10  2  0
 11  9  1  0
 11 12  1  0
 12 15  1  0
 12 13  1  1
 14 13  1  0
 15 16  2  0
 17 15  1  0
 17 18  1  0
 18 24  1  0
 18 19  1  6
 20 19  1  0
 21 22  1  0
 21 20  1  0
 22 23  1  0
 24 25  2  0
 24 26  1  0
M  END
$$$$
