HCK.pdb
     RDKit          3D

 26 26  0  0  1  0  0  0  0  0999 V2000
   29.7066  -18.1674  -19.9094 N   0  0  0  0  0  0  0  0  0  0  0  0
   28.5793  -17.3701  -19.5037 C   0  0  1  0  0  0  0  0  0  0  0  0
   27.5868  -17.2174  -20.6160 C   0  0  0  0  0  0  0  0  0  0  0  0
   28.1505  -16.6099  -21.8433 C   0  0  0  0  0  0  0  0  0  0  0  0
   27.9649  -17.1445  -23.0925 C   0  0  0  0  0  0  0  0  0  0  0  0
   28.5928  -16.3784  -24.0025 N   0  0  0  0  0  0  0  0  0  0  0  0
   29.1714  -15.3649  -23.3239 C   0  0  0  0  0  0  0  0  0  0  0  0
   28.9023  -15.5096  -22.0231 N   0  0  0  0  0  0  0  0  0  0  0  0
   27.9160  -17.9508  -18.2973 C   0  0  0  0  0  0  0  0  0  0  0  0
   28.5958  -18.7353  -17.5837 O   0  0  0  0  0  0  0  0  0  0  0  0
   26.5837  -17.6447  -17.9517 N   0  0  0  0  0  0  0  0  0  0  0  0
   26.2295  -17.3778  -16.5961 C   0  0  1  0  0  0  0  0  0  0  0  0
   27.1820  -16.3643  -16.0207 C   0  0  0  0  0  0  0  0  0  0  0  0
   26.8751  -16.0562  -14.2647 S   0  0  0  0  0  0  0  0  0  0  0  0
   24.8001  -17.0074  -16.4334 C   0  0  0  0  0  0  0  0  0  0  0  0
   24.3689  -16.7043  -15.2658 O   0  0  0  0  0  0  0  0  0  0  0  0
   23.8392  -16.9559  -17.4666 N   0  0  0  0  0  0  0  0  0  0  0  0
   22.4331  -16.8955  -17.2570 C   0  0  1  0  0  0  0  0  0  0  0  0
   21.8886  -17.4382  -15.9944 C   0  0  0  0  0  0  0  0  0  0  0  0
   21.9635  -18.9271  -15.8256 C   0  0  0  0  0  0  0  0  0  0  0  0
   21.0812  -19.3298  -14.6635 C   0  0  0  0  0  0  0  0  0  0  0  0
   21.0339  -20.8030  -14.4168 C   0  0  0  0  0  0  0  0  0  0  0  0
   20.2882  -21.1617  -13.2283 N   0  0  0  0  0  0  0  0  0  0  0  0
   21.9555  -15.4489  -17.3229 C   0  0  0  0  0  0  0  0  0  0  0  0
   22.7870  -14.5200  -17.3531 O   0  0  0  0  0  0  0  0  0  0  0  0
   20.6026  -15.1723  -17.3483 O   0  0  0  0  0  0  0  0  0  0  0  0
  2  1  1  6
  2  9  1  0
  3  2  1  0
  3  4  1  0
  4  5  2  0
  4  8  1  0
  5  6  1  0
  6  7  1  0
  8  7  2  0
  9 10  2  0
 11  9  1  0
 11 12  1  0
 12 15  1  0
 12 13  1  6
 14 13  1  0
 15 16  2  0
 17 15  1  0
 17 18  1  0
 18 24  1  0
 18 19  1  1
 20 19  1  0
 21 22  1  0
 21 20  1  0
 22 23  1  0
 24 25  2  0
 24 26  1  0
M  END
$$$$
