HCK.pdb
     RDKit          3D

 26 26  0  0  1  0  0  0  0  0999 V2000
   27.2510   -9.5410  -18.0405 N   0  0  0  0  0  0  0  0  0  0  0  0
   26.0161   -8.8259  -18.2271 C   0  0  1  0  0  0  0  0  0  0  0  0
   25.5037   -8.9725  -19.6276 C   0  0  0  0  0  0  0  0  0  0  0  0
   26.4544   -8.5112  -20.6651 C   0  0  0  0  0  0  0  0  0  0  0  0
   26.1042   -7.6349  -21.6603 C   0  0  0  0  0  0  0  0  0  0  0  0
   27.1705   -7.4057  -22.4474 N   0  0  0  0  0  0  0  0  0  0  0  0
   28.1877   -8.1380  -21.9460 C   0  0  0  0  0  0  0  0  0  0  0  0
   27.7506   -8.8027  -20.8724 N   0  0  0  0  0  0  0  0  0  0  0  0
   24.9802   -9.2770  -17.2494 C   0  0  0  0  0  0  0  0  0  0  0  0
   25.2920  -10.2123  -16.4653 O   0  0  0  0  0  0  0  0  0  0  0  0
   23.6989   -8.6916  -17.1884 N   0  0  0  0  0  0  0  0  0  0  0  0
   22.8149   -8.9930  -16.1103 C   0  0  1  0  0  0  0  0  0  0  0  0
   23.5168   -8.7415  -14.8028 C   0  0  0  0  0  0  0  0  0  0  0  0
   22.4414   -9.0419  -13.3796 S   0  0  0  0  0  0  0  0  0  0  0  0
   21.5061   -8.2993  -16.2238 C   0  0  0  0  0  0  0  0  0  0  0  0
   21.4747   -7.0212  -16.1425 O   0  0  0  0  0  0  0  0  0  0  0  0
   20.2554   -8.9254  -16.4161 N   0  0  0  0  0  0  0  0  0  0  0  0
   19.0139   -8.2355  -16.5036 C   0  0  1  0  0  0  0  0  0  0  0  0
   17.7837   -9.0293  -16.7080 C   0  0  0  0  0  0  0  0  0  0  0  0
   16.4983   -8.2576  -16.7651 C   0  0  0  0  0  0  0  0  0  0  0  0
   15.3640   -9.2216  -17.0391 C   0  0  0  0  0  0  0  0  0  0  0  0
   14.0283   -8.5662  -17.1789 C   0  0  0  0  0  0  0  0  0  0  0  0
   12.9319   -9.5095  -17.2545 N   0  0  0  0  0  0  0  0  0  0  0  0
   18.7744   -7.4251  -15.2344 C   0  0  0  0  0  0  0  0  0  0  0  0
   19.0321   -7.9232  -14.1204 O   0  0  0  0  0  0  0  0  0  0  0  0
   18.2722   -6.1417  -15.3229 O   0  0  0  0  0  0  0  0  0  0  0  0
  2  1  1  6
  2  9  1  0
  3  2  1  0
  3  4  1  0
  4  5  2  0
  4  8  1  0
  5  6  1  0
  6  7  1  0
  8  7  2  0
  9 10  2  0
 11  9  1  0
 11 12  1  0
 12 15  1  0
 12 13  1  1
 14 13  1  0
 15 16  2  0
 17 15  1  0
 17 18  1  0
 18 24  1  0
 18 19  1  1
 20 19  1  0
 21 22  1  0
 21 20  1  0
 22 23  1  0
 24 25  2  0
 24 26  1  0
M  END
$$$$
