HCK.pdb
     RDKit          3D

 26 26  0  0  1  0  0  0  0  0999 V2000
   25.1856  -11.2992  -17.6300 N   0  0  0  0  0  0  0  0  0  0  0  0
   25.1030  -10.1659  -16.7468 C   0  0  1  0  0  0  0  0  0  0  0  0
   25.9741   -9.0404  -17.2159 C   0  0  0  0  0  0  0  0  0  0  0  0
   27.4125   -9.3853  -17.2874 C   0  0  0  0  0  0  0  0  0  0  0  0
   28.0929   -9.9637  -16.2465 C   0  0  0  0  0  0  0  0  0  0  0  0
   29.3751  -10.1557  -16.6047 N   0  0  0  0  0  0  0  0  0  0  0  0
   29.4979   -9.6978  -17.8686 C   0  0  0  0  0  0  0  0  0  0  0  0
   28.3125   -9.2341  -18.2750 N   0  0  0  0  0  0  0  0  0  0  0  0
   23.6912   -9.6989  -16.6017 C   0  0  0  0  0  0  0  0  0  0  0  0
   22.9261   -9.8510  -17.5908 O   0  0  0  0  0  0  0  0  0  0  0  0
   23.2128   -9.1104  -15.4130 N   0  0  0  0  0  0  0  0  0  0  0  0
   21.8207   -8.8510  -15.2419 C   0  0  1  0  0  0  0  0  0  0  0  0
   21.4183   -9.1905  -13.8318 C   0  0  0  0  0  0  0  0  0  0  0  0
   21.4995  -10.9680  -13.5059 S   0  0  0  0  0  0  0  0  0  0  0  0
   21.4327   -7.4777  -15.6550 C   0  0  0  0  0  0  0  0  0  0  0  0
   22.2152   -6.5032  -15.3737 O   0  0  0  0  0  0  0  0  0  0  0  0
   20.2521   -7.1272  -16.3454 N   0  0  0  0  0  0  0  0  0  0  0  0
   19.8654   -5.7933  -16.6548 C   0  0  1  0  0  0  0  0  0  0  0  0
   18.9719   -5.5728  -17.8117 C   0  0  0  0  0  0  0  0  0  0  0  0
   18.6876   -4.1432  -18.1671 C   0  0  0  0  0  0  0  0  0  0  0  0
   17.7740   -4.1145  -19.3736 C   0  0  0  0  0  0  0  0  0  0  0  0
   17.4856   -2.7407  -19.8863 C   0  0  0  0  0  0  0  0  0  0  0  0
   16.5384   -2.7246  -20.9817 N   0  0  0  0  0  0  0  0  0  0  0  0
   19.1559   -5.1634  -15.4611 C   0  0  0  0  0  0  0  0  0  0  0  0
   18.2758   -5.8034  -14.8519 O   0  0  0  0  0  0  0  0  0  0  0  0
   19.4901   -3.8852  -15.0590 O   0  0  0  0  0  0  0  0  0  0  0  0
  2  1  1  6
  2  9  1  0
  3  2  1  0
  3  4  1  0
  4  5  2  0
  4  8  1  0
  5  6  1  0
  6  7  1  0
  8  7  2  0
  9 10  2  0
 11  9  1  0
 11 12  1  0
 12 15  1  0
 12 13  1  1
 14 13  1  0
 15 16  2  0
 17 15  1  0
 17 18  1  0
 18 24  1  0
 18 19  1  6
 20 19  1  0
 21 22  1  0
 21 20  1  0
 22 23  1  0
 24 25  2  0
 24 26  1  0
M  END
$$$$
