HCK.pdb
     RDKit          3D

 26 26  0  0  1  0  0  0  0  0999 V2000
   15.8710  -10.1035  -12.4910 N   0  0  0  0  0  0  0  0  0  0  0  0
   16.6620   -9.0121  -11.9869 C   0  0  1  0  0  0  0  0  0  0  0  0
   17.3518   -8.2767  -13.0955 C   0  0  0  0  0  0  0  0  0  0  0  0
   18.3204   -9.1034  -13.8514 C   0  0  0  0  0  0  0  0  0  0  0  0
   19.6779   -8.9993  -13.6859 C   0  0  0  0  0  0  0  0  0  0  0  0
   20.2944   -9.8708  -14.5042 N   0  0  0  0  0  0  0  0  0  0  0  0
   19.3240  -10.5200  -15.1820 C   0  0  0  0  0  0  0  0  0  0  0  0
   18.1365  -10.0534  -14.7852 N   0  0  0  0  0  0  0  0  0  0  0  0
   15.8269   -8.0684  -11.1839 C   0  0  0  0  0  0  0  0  0  0  0  0
   14.7752   -7.6271  -11.7186 O   0  0  0  0  0  0  0  0  0  0  0  0
   16.1824   -7.6758   -9.8772 N   0  0  0  0  0  0  0  0  0  0  0  0
   15.3455   -6.7927   -9.1328 C   0  0  1  0  0  0  0  0  0  0  0  0
   15.2140   -7.2992   -7.7215 C   0  0  0  0  0  0  0  0  0  0  0  0
   14.3160   -6.1421   -6.6598 S   0  0  0  0  0  0  0  0  0  0  0  0
   15.7813   -5.3749   -9.2158 C   0  0  0  0  0  0  0  0  0  0  0  0
   17.0070   -5.0897   -8.9757 O   0  0  0  0  0  0  0  0  0  0  0  0
   14.9559   -4.2765   -9.5405 N   0  0  0  0  0  0  0  0  0  0  0  0
   15.4023   -2.9275   -9.6155 C   0  0  1  0  0  0  0  0  0  0  0  0
   15.1358   -2.1688  -10.8560 C   0  0  0  0  0  0  0  0  0  0  0  0
   15.6039   -0.7435  -10.8752 C   0  0  0  0  0  0  0  0  0  0  0  0
   15.4337   -0.1945  -12.2754 C   0  0  0  0  0  0  0  0  0  0  0  0
   15.9210    1.2083  -12.4428 C   0  0  0  0  0  0  0  0  0  0  0  0
   16.6707    1.4128  -13.6649 N   0  0  0  0  0  0  0  0  0  0  0  0
   14.7814   -2.1070   -8.4902 C   0  0  0  0  0  0  0  0  0  0  0  0
   15.1619   -0.9362   -8.2909 O   0  0  0  0  0  0  0  0  0  0  0  0
   13.7994   -2.6639   -7.6947 O   0  0  0  0  0  0  0  0  0  0  0  0
  2  1  1  6
  2  9  1  0
  3  2  1  0
  3  4  1  0
  4  5  2  0
  4  8  1  0
  5  6  1  0
  6  7  1  0
  8  7  2  0
  9 10  2  0
 11  9  1  0
 11 12  1  0
 12 15  1  0
 12 13  1  1
 14 13  1  0
 15 16  2  0
 17 15  1  0
 17 18  1  0
 18 24  1  0
 18 19  1  6
 20 19  1  0
 21 22  1  0
 21 20  1  0
 22 23  1  0
 24 25  2  0
 24 26  1  0
M  END
$$$$
