HCK.pdb
     RDKit          3D

 26 26  0  0  1  0  0  0  0  0999 V2000
   28.4610  -21.2572  -16.1998 N   0  0  0  0  0  0  0  0  0  0  0  0
   27.8475  -20.2831  -15.3362 C   0  0  1  0  0  0  0  0  0  0  0  0
   27.1471  -19.2169  -16.1225 C   0  0  0  0  0  0  0  0  0  0  0  0
   28.0510  -18.4051  -16.9693 C   0  0  0  0  0  0  0  0  0  0  0  0
   27.9904  -18.4071  -18.3394 C   0  0  0  0  0  0  0  0  0  0  0  0
   28.9309  -17.5789  -18.8280 N   0  0  0  0  0  0  0  0  0  0  0  0
   29.5802  -17.0587  -17.7649 C   0  0  0  0  0  0  0  0  0  0  0  0
   29.0464  -17.5603  -16.6474 N   0  0  0  0  0  0  0  0  0  0  0  0
   26.8951  -20.9316  -14.3849 C   0  0  0  0  0  0  0  0  0  0  0  0
   26.3514  -22.0068  -14.7524 O   0  0  0  0  0  0  0  0  0  0  0  0
   26.6037  -20.3801  -13.1204 N   0  0  0  0  0  0  0  0  0  0  0  0
   25.6892  -21.0299  -12.2396 C   0  0  1  0  0  0  0  0  0  0  0  0
   25.9787  -20.6139  -10.8223 C   0  0  0  0  0  0  0  0  0  0  0  0
   24.7348  -21.2276   -9.6610 S   0  0  0  0  0  0  0  0  0  0  0  0
   24.2699  -20.8396  -12.6353 C   0  0  0  0  0  0  0  0  0  0  0  0
   23.8622  -19.6606  -12.9270 O   0  0  0  0  0  0  0  0  0  0  0  0
   23.2952  -21.8571  -12.7233 N   0  0  0  0  0  0  0  0  0  0  0  0
   21.9272  -21.6367  -13.0471 C   0  0  1  0  0  0  0  0  0  0  0  0
   21.0878  -22.8076  -13.3785 C   0  0  0  0  0  0  0  0  0  0  0  0
   19.6752  -22.5154  -13.7909 C   0  0  0  0  0  0  0  0  0  0  0  0
   18.9793  -23.8230  -14.1029 C   0  0  0  0  0  0  0  0  0  0  0  0
   17.5400  -23.6728  -14.4758 C   0  0  0  0  0  0  0  0  0  0  0  0
   16.8914  -24.9321  -14.7771 N   0  0  0  0  0  0  0  0  0  0  0  0
   21.2210  -20.9386  -11.8900 C   0  0  0  0  0  0  0  0  0  0  0  0
   21.5399  -21.2058  -10.7143 O   0  0  0  0  0  0  0  0  0  0  0  0
   20.2296  -20.0125  -12.1481 O   0  0  0  0  0  0  0  0  0  0  0  0
  2  1  1  6
  2  9  1  0
  3  2  1  0
  3  4  1  0
  4  5  2  0
  4  8  1  0
  5  6  1  0
  6  7  1  0
  8  7  2  0
  9 10  2  0
 11  9  1  0
 11 12  1  0
 12 15  1  0
 12 13  1  1
 14 13  1  0
 15 16  2  0
 17 15  1  0
 17 18  1  0
 18 24  1  0
 18 19  1  1
 20 19  1  0
 21 22  1  0
 21 20  1  0
 22 23  1  0
 24 25  2  0
 24 26  1  0
M  END
$$$$
