HCK.pdb
     RDKit          3D

 26 26  0  0  1  0  0  0  0  0999 V2000
   22.6623  -19.9017  -14.0660 N   0  0  0  0  0  0  0  0  0  0  0  0
   22.8759  -19.4670  -15.4211 C   0  0  1  0  0  0  0  0  0  0  0  0
   21.6361  -19.6214  -16.2485 C   0  0  0  0  0  0  0  0  0  0  0  0
   21.1158  -21.0071  -16.2960 C   0  0  0  0  0  0  0  0  0  0  0  0
   21.6010  -21.9562  -17.1589 C   0  0  0  0  0  0  0  0  0  0  0  0
   20.9356  -23.1100  -16.9717 N   0  0  0  0  0  0  0  0  0  0  0  0
   20.0342  -22.8839  -15.9926 C   0  0  0  0  0  0  0  0  0  0  0  0
   20.1466  -21.6149  -15.5893 N   0  0  0  0  0  0  0  0  0  0  0  0
   23.3506  -18.0508  -15.4633 C   0  0  0  0  0  0  0  0  0  0  0  0
   22.6081  -17.1754  -14.9445 O   0  0  0  0  0  0  0  0  0  0  0  0
   24.5783  -17.6870  -16.0534 N   0  0  0  0  0  0  0  0  0  0  0  0
   25.0023  -16.3251  -16.0636 C   0  0  1  0  0  0  0  0  0  0  0  0
   26.4711  -16.2561  -15.7424 C   0  0  0  0  0  0  0  0  0  0  0  0
   26.8079  -16.6051  -13.9996 S   0  0  0  0  0  0  0  0  0  0  0  0
   24.6349  -15.6139  -17.3151 C   0  0  0  0  0  0  0  0  0  0  0  0
   24.2183  -16.2975  -18.3153 O   0  0  0  0  0  0  0  0  0  0  0  0
   24.7024  -14.2187  -17.5205 N   0  0  0  0  0  0  0  0  0  0  0  0
   23.9408  -13.5093  -18.4907 C   0  0  1  0  0  0  0  0  0  0  0  0
   22.4662  -13.5626  -18.4004 C   0  0  0  0  0  0  0  0  0  0  0  0
   21.7512  -14.1658  -19.5734 C   0  0  0  0  0  0  0  0  0  0  0  0
   20.3904  -14.6477  -19.1183 C   0  0  0  0  0  0  0  0  0  0  0  0
   19.6089  -15.3541  -20.1782 C   0  0  0  0  0  0  0  0  0  0  0  0
   20.1377  -16.6622  -20.5047 N   0  0  0  0  0  0  0  0  0  0  0  0
   24.3015  -12.0281  -18.4591 C   0  0  0  0  0  0  0  0  0  0  0  0
   24.2270  -11.3473  -19.5013 O   0  0  0  0  0  0  0  0  0  0  0  0
   24.7102  -11.4454  -17.2756 O   0  0  0  0  0  0  0  0  0  0  0  0
  2  1  1  1
  2  9  1  0
  3  2  1  0
  3  4  1  0
  4  5  2  0
  4  8  1  0
  5  6  1  0
  6  7  1  0
  8  7  2  0
  9 10  2  0
 11  9  1  0
 11 12  1  0
 12 15  1  0
 12 13  1  6
 14 13  1  0
 15 16  2  0
 17 15  1  0
 17 18  1  0
 18 24  1  0
 18 19  1  1
 20 19  1  0
 21 22  1  0
 21 20  1  0
 22 23  1  0
 24 25  2  0
 24 26  1  0
M  END
$$$$
