HCK.pdb
     RDKit          3D

 26 26  0  0  1  0  0  0  0  0999 V2000
   24.2745  -12.3948  -18.4102 N   0  0  0  0  0  0  0  0  0  0  0  0
   22.8547  -12.1959  -18.5355 C   0  0  1  0  0  0  0  0  0  0  0  0
   22.1223  -13.5012  -18.6075 C   0  0  0  0  0  0  0  0  0  0  0  0
   22.4927  -14.3328  -19.7756 C   0  0  0  0  0  0  0  0  0  0  0  0
   23.5378  -15.2207  -19.7570 C   0  0  0  0  0  0  0  0  0  0  0  0
   23.6300  -15.8249  -20.9552 N   0  0  0  0  0  0  0  0  0  0  0  0
   22.6439  -15.3157  -21.7238 C   0  0  0  0  0  0  0  0  0  0  0  0
   21.9619  -14.4167  -21.0082 N   0  0  0  0  0  0  0  0  0  0  0  0
   22.3257  -11.3696  -17.4086 C   0  0  0  0  0  0  0  0  0  0  0  0
   21.0888  -11.1317  -17.3956 O   0  0  0  0  0  0  0  0  0  0  0  0
   23.1599  -10.8678  -16.3886 N   0  0  0  0  0  0  0  0  0  0  0  0
   22.6487   -9.9584  -15.4159 C   0  0  1  0  0  0  0  0  0  0  0  0
   23.5547   -9.9501  -14.2141 C   0  0  0  0  0  0  0  0  0  0  0  0
   23.5104  -11.5177  -13.3125 S   0  0  0  0  0  0  0  0  0  0  0  0
   22.3864   -8.6052  -15.9702 C   0  0  0  0  0  0  0  0  0  0  0  0
   23.2741   -8.0597  -16.7157 O   0  0  0  0  0  0  0  0  0  0  0  0
   21.2235   -7.8355  -15.7502 N   0  0  0  0  0  0  0  0  0  0  0  0
   20.9758   -6.5636  -16.3381 C   0  0  1  0  0  0  0  0  0  0  0  0
   20.0184   -6.4852  -17.4618 C   0  0  0  0  0  0  0  0  0  0  0  0
   19.8445   -5.1348  -18.0919 C   0  0  0  0  0  0  0  0  0  0  0  0
   18.8644   -5.2559  -19.2390 C   0  0  0  0  0  0  0  0  0  0  0  0
   18.7157   -4.0076  -20.0471 C   0  0  0  0  0  0  0  0  0  0  0  0
   17.8311   -4.1621  -21.1833 N   0  0  0  0  0  0  0  0  0  0  0  0
   20.4542   -5.5923  -15.2848 C   0  0  0  0  0  0  0  0  0  0  0  0
   20.3197   -4.3845  -15.5646 O   0  0  0  0  0  0  0  0  0  0  0  0
   20.1329   -6.0538  -14.0234 O   0  0  0  0  0  0  0  0  0  0  0  0
  2  1  1  1
  2  9  1  0
  3  2  1  0
  3  4  1  0
  4  5  2  0
  4  8  1  0
  5  6  1  0
  6  7  1  0
  8  7  2  0
  9 10  2  0
 11  9  1  0
 11 12  1  0
 12 15  1  0
 12 13  1  1
 14 13  1  0
 15 16  2  0
 17 15  1  0
 17 18  1  0
 18 24  1  0
 18 19  1  6
 20 19  1  0
 21 22  1  0
 21 20  1  0
 22 23  1  0
 24 25  2  0
 24 26  1  0
M  END
$$$$
