HCK.pdb
     RDKit          3D

 26 26  0  0  1  0  0  0  0  0999 V2000
   21.8807  -13.5359  -17.3449 N   0  0  0  0  0  0  0  0  0  0  0  0
   21.5047  -12.3277  -18.0304 C   0  0  1  0  0  0  0  0  0  0  0  0
   20.0741  -12.3714  -18.4740 C   0  0  0  0  0  0  0  0  0  0  0  0
   19.7991  -13.3916  -19.5117 C   0  0  0  0  0  0  0  0  0  0  0  0
   18.8572  -14.3764  -19.3576 C   0  0  0  0  0  0  0  0  0  0  0  0
   18.8361  -15.1486  -20.4587 N   0  0  0  0  0  0  0  0  0  0  0  0
   19.7641  -14.6482  -21.3018 C   0  0  0  0  0  0  0  0  0  0  0  0
   20.3418  -13.5898  -20.7260 N   0  0  0  0  0  0  0  0  0  0  0  0
   21.7421  -11.1269  -17.1735 C   0  0  0  0  0  0  0  0  0  0  0  0
   21.2844  -11.1529  -16.0002 O   0  0  0  0  0  0  0  0  0  0  0  0
   22.4496   -9.9996  -17.6390 N   0  0  0  0  0  0  0  0  0  0  0  0
   22.6908   -8.8887  -16.7774 C   0  0  1  0  0  0  0  0  0  0  0  0
   24.1738   -8.7184  -16.5843 C   0  0  0  0  0  0  0  0  0  0  0  0
   24.8727   -9.9851  -15.4983 S   0  0  0  0  0  0  0  0  0  0  0  0
   22.0049   -7.6493  -17.2250 C   0  0  0  0  0  0  0  0  0  0  0  0
   22.0178   -7.3510  -18.4709 O   0  0  0  0  0  0  0  0  0  0  0  0
   21.3212   -6.7384  -16.3908 N   0  0  0  0  0  0  0  0  0  0  0  0
   20.6540   -5.5688  -16.8510 C   0  0  1  0  0  0  0  0  0  0  0  0
   19.2068   -5.6552  -17.1398 C   0  0  0  0  0  0  0  0  0  0  0  0
   18.5530   -4.3985  -17.6342 C   0  0  0  0  0  0  0  0  0  0  0  0
   17.0915   -4.6846  -17.9047 C   0  0  0  0  0  0  0  0  0  0  0  0
   16.3537   -3.5454  -18.5304 C   0  0  0  0  0  0  0  0  0  0  0  0
   15.5027   -2.8333  -17.5998 N   0  0  0  0  0  0  0  0  0  0  0  0
   20.8036   -4.4450  -15.8313 C   0  0  0  0  0  0  0  0  0  0  0  0
   20.7325   -4.6977  -14.6121 O   0  0  0  0  0  0  0  0  0  0  0  0
   21.0170   -3.1503  -16.2619 O   0  0  0  0  0  0  0  0  0  0  0  0
  2  1  1  1
  2  9  1  0
  3  2  1  0
  3  4  1  0
  4  5  2  0
  4  8  1  0
  5  6  1  0
  6  7  1  0
  8  7  2  0
  9 10  2  0
 11  9  1  0
 11 12  1  0
 12 15  1  0
 12 13  1  6
 14 13  1  0
 15 16  2  0
 17 15  1  0
 17 18  1  0
 18 24  1  0
 18 19  1  1
 20 19  1  0
 21 22  1  0
 21 20  1  0
 22 23  1  0
 24 25  2  0
 24 26  1  0
M  END
$$$$
