HYS.pdb
     RDKit          3D

 29 30  0  0  1  0  0  0  0  0999 V2000
   25.2819  -10.6261  -18.6775 N   0  0  0  0  0  0  0  0  0  0  0  0
   25.2324   -9.6446  -17.6431 C   0  0  1  0  0  0  0  0  0  0  0  0
   26.2819   -8.5740  -17.9229 C   0  0  0  0  0  0  0  0  0  0  0  0
   27.6201   -9.2201  -17.8893 C   0  0  0  0  0  0  0  0  0  0  0  0
   27.8982  -10.5412  -17.6577 C   0  0  0  0  0  0  0  0  0  0  0  0
   29.2492  -10.7149  -17.7144 N   0  0  0  0  0  0  0  0  0  0  0  0
   29.8013   -9.5354  -17.9744 C   0  0  0  0  0  0  0  0  0  0  0  0
   28.8259   -8.6185  -18.0832 N   0  0  0  0  0  0  0  0  0  0  0  0
   23.8906   -9.0326  -17.4762 C   0  0  0  0  0  0  0  0  0  0  0  0
   23.2020   -8.8394  -18.5057 O   0  0  0  0  0  0  0  0  0  0  0  0
   19.5440  -13.9472  -16.7795 O   0  0  0  0  0  0  0  0  0  0  0  0
   20.0087  -12.7152  -16.3137 C   0  0  0  0  0  0  0  0  0  0  0  0
   19.3170  -11.5396  -16.5196 C   0  0  0  0  0  0  0  0  0  0  0  0
   19.7967  -10.3366  -16.0499 C   0  0  0  0  0  0  0  0  0  0  0  0
   20.9950  -10.2554  -15.3501 C   0  0  0  0  0  0  0  0  0  0  0  0
   21.4797   -8.9391  -14.8575 C   0  0  0  0  0  0  0  0  0  0  0  0
   22.1237   -8.2123  -15.9788 C   0  0  2  0  0  0  0  0  0  0  0  0
   23.4714   -8.7043  -16.1599 N   0  0  0  0  0  0  0  0  0  0  0  0
   22.1529   -6.7584  -15.8745 C   0  0  0  0  0  0  0  0  0  0  0  0
   23.0118   -6.2101  -15.1457 O   0  0  0  0  0  0  0  0  0  0  0  0
   21.6697  -11.4406  -15.1554 C   0  0  0  0  0  0  0  0  0  0  0  0
   21.1901  -12.6474  -15.6257 C   0  0  0  0  0  0  0  0  0  0  0  0
   21.8167   -2.4816  -17.6780 O   0  0  0  0  0  0  0  0  0  0  0  0
   21.6966   -3.8524  -17.8323 C   0  0  0  0  0  0  0  0  0  0  0  0
   21.4036   -4.4551  -16.4754 C   0  0  2  0  0  0  0  0  0  0  0  0
   21.2580   -5.8863  -16.5539 N   0  0  0  0  0  0  0  0  0  0  0  0
   20.1564   -3.8817  -15.9348 C   0  0  0  0  0  0  0  0  0  0  0  0
   19.0865   -4.5266  -16.0172 O   0  0  0  0  0  0  0  0  0  0  0  0
   20.1826   -2.6220  -15.3351 O   0  0  0  0  0  0  0  0  0  0  0  0
  2  1  1  6
  2  9  1  0
  3  2  1  0
  3  4  1  0
  4  5  2  0
  4  8  1  0
  5  6  1  0
  6  7  1  0
  8  7  2  0
  9 18  1  0
  9 10  2  0
 11 12  1  0
 12 22  2  0
 13 12  1  0
 13 14  2  0
 14 15  1  0
 15 21  2  0
 15 16  1  0
 17 16  1  1
 18 17  1  0
 19 17  1  0
 19 20  2  0
 22 21  1  0
 23 24  1  0
 25 24  1  6
 25 26  1  0
 26 19  1  0
 27 25  1  0
 28 27  2  0
 29 27  1  0
M  END
$$$$
