HYS.pdb
     RDKit          3D

 29 30  0  0  1  0  0  0  0  0999 V2000
   42.5571   -8.1228   -6.4572 N   0  0  0  0  0  0  0  0  0  0  0  0
   41.6864   -7.0539   -6.0898 C   0  0  1  0  0  0  0  0  0  0  0  0
   42.5026   -5.7730   -5.9513 C   0  0  0  0  0  0  0  0  0  0  0  0
   43.4691   -5.9601   -4.8376 C   0  0  0  0  0  0  0  0  0  0  0  0
   43.2708   -5.6814   -3.5112 C   0  0  0  0  0  0  0  0  0  0  0  0
   44.4075   -5.9984   -2.8284 N   0  0  0  0  0  0  0  0  0  0  0  0
   45.2924   -6.4625   -3.7031 C   0  0  0  0  0  0  0  0  0  0  0  0
   44.7379   -6.4455   -4.9263 N   0  0  0  0  0  0  0  0  0  0  0  0
   40.5612   -6.8588   -7.0379 C   0  0  0  0  0  0  0  0  0  0  0  0
   40.7827   -7.0468   -8.2573 O   0  0  0  0  0  0  0  0  0  0  0  0
   38.5858  -12.5540   -8.3299 O   0  0  0  0  0  0  0  0  0  0  0  0
   38.2215  -11.2448   -8.0067 C   0  0  0  0  0  0  0  0  0  0  0  0
   38.1474  -10.7997   -6.7032 C   0  0  0  0  0  0  0  0  0  0  0  0
   37.7854   -9.5031   -6.4104 C   0  0  0  0  0  0  0  0  0  0  0  0
   37.4800   -8.5898   -7.4128 C   0  0  0  0  0  0  0  0  0  0  0  0
   37.0947   -7.1985   -7.0578 C   0  0  0  0  0  0  0  0  0  0  0  0
   38.2037   -6.2834   -7.4225 C   0  0  2  0  0  0  0  0  0  0  0  0
   39.3042   -6.4712   -6.5033 N   0  0  0  0  0  0  0  0  0  0  0  0
   37.8742   -4.8650   -7.4941 C   0  0  0  0  0  0  0  0  0  0  0  0
   38.1755   -4.1135   -6.5382 O   0  0  0  0  0  0  0  0  0  0  0  0
   37.5601   -9.0547   -8.7072 C   0  0  0  0  0  0  0  0  0  0  0  0
   37.9229  -10.3542   -9.0023 C   0  0  0  0  0  0  0  0  0  0  0  0
   38.3438   -0.8141   -8.9317 O   0  0  0  0  0  0  0  0  0  0  0  0
   38.5065   -2.1832   -8.8041 C   0  0  0  0  0  0  0  0  0  0  0  0
   37.1341   -2.8135   -8.7071 C   0  0  2  0  0  0  0  0  0  0  0  0
   37.2185   -4.2474   -8.5948 N   0  0  0  0  0  0  0  0  0  0  0  0
   36.3465   -2.4787   -9.9088 C   0  0  0  0  0  0  0  0  0  0  0  0
   36.2199   -3.3212  -10.8262 O   0  0  0  0  0  0  0  0  0  0  0  0
   35.7488   -1.2220  -10.0107 O   0  0  0  0  0  0  0  0  0  0  0  0
  2  1  1  6
  2  9  1  0
  3  2  1  0
  3  4  1  0
  4  5  2  0
  4  8  1  0
  5  6  1  0
  6  7  1  0
  8  7  2  0
  9 18  1  0
  9 10  2  0
 11 12  1  0
 12 22  2  0
 13 12  1  0
 13 14  2  0
 14 15  1  0
 15 21  2  0
 15 16  1  0
 17 16  1  1
 18 17  1  0
 19 17  1  0
 19 20  2  0
 22 21  1  0
 23 24  1  0
 25 24  1  6
 25 26  1  0
 26 19  1  0
 27 25  1  0
 28 27  2  0
 29 27  1  0
M  END
$$$$
