HYS.pdb
     RDKit          3D

 29 30  0  0  1  0  0  0  0  0999 V2000
   24.5855  -18.0772  -19.0968 N   0  0  0  0  0  0  0  0  0  0  0  0
   23.7969  -16.8939  -18.9803 C   0  0  1  0  0  0  0  0  0  0  0  0
   23.7334  -16.2029  -20.3384 C   0  0  0  0  0  0  0  0  0  0  0  0
   25.1186  -15.8380  -20.7354 C   0  0  0  0  0  0  0  0  0  0  0  0
   25.9088  -14.8620  -20.1882 C   0  0  0  0  0  0  0  0  0  0  0  0
   27.1046  -14.8566  -20.8429 N   0  0  0  0  0  0  0  0  0  0  0  0
   27.0639  -15.8027  -21.7739 C   0  0  0  0  0  0  0  0  0  0  0  0
   25.8655  -16.4069  -21.7212 N   0  0  0  0  0  0  0  0  0  0  0  0
   22.4315  -17.1458  -18.4557 C   0  0  0  0  0  0  0  0  0  0  0  0
   21.8279  -18.1678  -18.8586 O   0  0  0  0  0  0  0  0  0  0  0  0
   21.4938  -22.0524  -14.1461 O   0  0  0  0  0  0  0  0  0  0  0  0
   21.2962  -20.7109  -14.4812 C   0  0  0  0  0  0  0  0  0  0  0  0
   22.2921  -19.7646  -14.3569 C   0  0  0  0  0  0  0  0  0  0  0  0
   22.0720  -18.4471  -14.6942 C   0  0  0  0  0  0  0  0  0  0  0  0
   20.8406  -18.0155  -15.1731 C   0  0  0  0  0  0  0  0  0  0  0  0
   20.6414  -16.5857  -15.5282 C   0  0  0  0  0  0  0  0  0  0  0  0
   20.5708  -16.4609  -17.0046 C   0  0  2  0  0  0  0  0  0  0  0  0
   21.8949  -16.2123  -17.5300 N   0  0  0  0  0  0  0  0  0  0  0  0
   19.6508  -15.4569  -17.5251 C   0  0  0  0  0  0  0  0  0  0  0  0
   20.0273  -14.2656  -17.6180 O   0  0  0  0  0  0  0  0  0  0  0  0
   19.8601  -18.9763  -15.2897 C   0  0  0  0  0  0  0  0  0  0  0  0
   20.0792  -20.2974  -14.9519 C   0  0  0  0  0  0  0  0  0  0  0  0
   15.7984  -14.1368  -20.0083 O   0  0  0  0  0  0  0  0  0  0  0  0
   16.4673  -15.2147  -19.4533 C   0  0  0  0  0  0  0  0  0  0  0  0
   17.4651  -14.6826  -18.4476 C   0  0  2  0  0  0  0  0  0  0  0  0
   18.3206  -15.7289  -17.9485 N   0  0  0  0  0  0  0  0  0  0  0  0
   16.7493  -14.0740  -17.3102 C   0  0  0  0  0  0  0  0  0  0  0  0
   16.0492  -13.0516  -17.4890 O   0  0  0  0  0  0  0  0  0  0  0  0
   16.8605  -14.6464  -16.0425 O   0  0  0  0  0  0  0  0  0  0  0  0
  2  1  1  6
  2  9  1  0
  3  2  1  0
  3  4  1  0
  4  5  2  0
  4  8  1  0
  5  6  1  0
  6  7  1  0
  8  7  2  0
  9 18  1  0
  9 10  2  0
 11 12  1  0
 12 22  2  0
 13 12  1  0
 13 14  2  0
 14 15  1  0
 15 21  2  0
 15 16  1  0
 17 16  1  1
 18 17  1  0
 19 17  1  0
 19 20  2  0
 22 21  1  0
 23 24  1  0
 25 24  1  6
 25 26  1  0
 26 19  1  0
 27 25  1  0
 28 27  2  0
 29 27  1  0
M  END
$$$$
