HYS.pdb
     RDKit          3D

 29 30  0  0  1  0  0  0  0  0999 V2000
   23.4615  -17.3065  -19.2667 N   0  0  0  0  0  0  0  0  0  0  0  0
   22.4124  -16.7729  -18.4603 C   0  0  1  0  0  0  0  0  0  0  0  0
   21.2920  -16.2752  -19.3675 C   0  0  0  0  0  0  0  0  0  0  0  0
   21.8311  -15.1699  -20.2024 C   0  0  0  0  0  0  0  0  0  0  0  0
   22.2913  -15.2510  -21.4901 C   0  0  0  0  0  0  0  0  0  0  0  0
   22.6951  -14.0099  -21.8836 N   0  0  0  0  0  0  0  0  0  0  0  0
   22.4934  -13.1752  -20.8706 C   0  0  0  0  0  0  0  0  0  0  0  0
   21.9696  -13.8640  -19.8435 N   0  0  0  0  0  0  0  0  0  0  0  0
   21.8888  -17.7379  -17.4615 C   0  0  0  0  0  0  0  0  0  0  0  0
   22.0447  -18.9605  -17.6897 O   0  0  0  0  0  0  0  0  0  0  0  0
   18.7777  -21.1083  -10.0678 O   0  0  0  0  0  0  0  0  0  0  0  0
   19.3614  -20.2729  -11.0231 C   0  0  0  0  0  0  0  0  0  0  0  0
   18.8550  -19.0246  -11.3200 C   0  0  0  0  0  0  0  0  0  0  0  0
   19.4493  -18.2193  -12.2668 C   0  0  0  0  0  0  0  0  0  0  0  0
   20.5814  -18.6285  -12.9618 C   0  0  0  0  0  0  0  0  0  0  0  0
   21.1955  -17.7309  -13.9754 C   0  0  0  0  0  0  0  0  0  0  0  0
   20.7466  -18.1502  -15.3256 C   0  0  2  0  0  0  0  0  0  0  0  0
   21.2439  -17.2147  -16.3098 N   0  0  0  0  0  0  0  0  0  0  0  0
   19.3097  -18.3186  -15.5056 C   0  0  0  0  0  0  0  0  0  0  0  0
   18.5897  -17.3103  -15.6910 O   0  0  0  0  0  0  0  0  0  0  0  0
   21.0707  -19.8780  -12.6501 C   0  0  0  0  0  0  0  0  0  0  0  0
   20.4761  -20.6865  -11.7013 C   0  0  0  0  0  0  0  0  0  0  0  0
   17.6417  -21.7243  -16.7545 O   0  0  0  0  0  0  0  0  0  0  0  0
   16.8979  -20.5635  -16.8832 C   0  0  0  0  0  0  0  0  0  0  0  0
   17.2188  -19.6658  -15.7080 C   0  0  2  0  0  0  0  0  0  0  0  0
   18.6395  -19.5729  -15.4871 N   0  0  0  0  0  0  0  0  0  0  0  0
   16.5840  -20.1978  -14.4872 C   0  0  0  0  0  0  0  0  0  0  0  0
   17.2949  -20.6481  -13.5602 O   0  0  0  0  0  0  0  0  0  0  0  0
   15.1929  -20.1935  -14.3781 O   0  0  0  0  0  0  0  0  0  0  0  0
  2  1  1  6
  2  9  1  0
  3  2  1  0
  3  4  1  0
  4  5  2  0
  4  8  1  0
  5  6  1  0
  6  7  1  0
  8  7  2  0
  9 18  1  0
  9 10  2  0
 11 12  1  0
 12 22  2  0
 13 12  1  0
 13 14  2  0
 14 15  1  0
 15 21  2  0
 15 16  1  0
 17 16  1  1
 18 17  1  0
 19 17  1  0
 19 20  2  0
 22 21  1  0
 23 24  1  0
 25 24  1  6
 25 26  1  0
 26 19  1  0
 27 25  1  0
 28 27  2  0
 29 27  1  0
M  END
$$$$
