HYS.pdb
     RDKit          3D

 29 30  0  0  1  0  0  0  0  0999 V2000
   29.6740  -22.1999  -17.6164 N   0  0  0  0  0  0  0  0  0  0  0  0
   28.3066  -21.8678  -17.8522 C   0  0  1  0  0  0  0  0  0  0  0  0
   27.7016  -22.8966  -18.8016 C   0  0  0  0  0  0  0  0  0  0  0  0
   28.4042  -22.7888  -20.1070 C   0  0  0  0  0  0  0  0  0  0  0  0
   28.3262  -21.7609  -21.0091 C   0  0  0  0  0  0  0  0  0  0  0  0
   29.1259  -22.0575  -22.0726 N   0  0  0  0  0  0  0  0  0  0  0  0
   29.6887  -23.2381  -21.8426 C   0  0  0  0  0  0  0  0  0  0  0  0
   29.2608  -23.6945  -20.6541 N   0  0  0  0  0  0  0  0  0  0  0  0
   27.5029  -21.7654  -16.6086 C   0  0  0  0  0  0  0  0  0  0  0  0
   27.9539  -22.3081  -15.5726 O   0  0  0  0  0  0  0  0  0  0  0  0
   26.7643  -14.8074  -17.2079 O   0  0  0  0  0  0  0  0  0  0  0  0
   26.6871  -16.0502  -16.5750 C   0  0  0  0  0  0  0  0  0  0  0  0
   27.6528  -17.0219  -16.7362 C   0  0  0  0  0  0  0  0  0  0  0  0
   27.5536  -18.2402  -16.1007 C   0  0  0  0  0  0  0  0  0  0  0  0
   26.4793  -18.5423  -15.2720 C   0  0  0  0  0  0  0  0  0  0  0  0
   26.4077  -19.8675  -14.6021 C   0  0  0  0  0  0  0  0  0  0  0  0
   25.5842  -20.7823  -15.4300 C   0  0  2  0  0  0  0  0  0  0  0  0
   26.2730  -21.0587  -16.6712 N   0  0  0  0  0  0  0  0  0  0  0  0
   24.2253  -20.3425  -15.7221 C   0  0  0  0  0  0  0  0  0  0  0  0
   24.0018  -19.6818  -16.7628 O   0  0  0  0  0  0  0  0  0  0  0  0
   25.5264  -17.5583  -15.1247 C   0  0  0  0  0  0  0  0  0  0  0  0
   25.6244  -16.3365  -15.7611 C   0  0  0  0  0  0  0  0  0  0  0  0
   20.8815  -22.2055  -14.5036 O   0  0  0  0  0  0  0  0  0  0  0  0
   20.7155  -20.8338  -14.4141 C   0  0  0  0  0  0  0  0  0  0  0  0
   21.7773  -20.1742  -15.2671 C   0  0  2  0  0  0  0  0  0  0  0  0
   23.0991  -20.6113  -14.8960 N   0  0  0  0  0  0  0  0  0  0  0  0
   21.7023  -18.7092  -15.1109 C   0  0  0  0  0  0  0  0  0  0  0  0
   22.2866  -18.1533  -14.1534 O   0  0  0  0  0  0  0  0  0  0  0  0
   20.9782  -17.9557  -16.0356 O   0  0  0  0  0  0  0  0  0  0  0  0
  2  1  1  1
  2  9  1  0
  3  2  1  0
  3  4  1  0
  4  5  2  0
  4  8  1  0
  5  6  1  0
  6  7  1  0
  8  7  2  0
  9 18  1  0
  9 10  2  0
 11 12  1  0
 12 22  2  0
 13 12  1  0
 13 14  2  0
 14 15  1  0
 15 21  2  0
 15 16  1  0
 17 16  1  6
 18 17  1  0
 19 17  1  0
 19 20  2  0
 22 21  1  0
 23 24  1  0
 25 24  1  1
 25 26  1  0
 26 19  1  0
 27 25  1  0
 28 27  2  0
 29 27  1  0
M  END
$$$$
