HYS.pdb
     RDKit          3D

 29 30  0  0  1  0  0  0  0  0999 V2000
   28.1469  -20.7696  -14.9296 N   0  0  0  0  0  0  0  0  0  0  0  0
   27.0649  -19.9701  -14.4543 C   0  0  1  0  0  0  0  0  0  0  0  0
   26.4264  -19.2453  -15.6345 C   0  0  0  0  0  0  0  0  0  0  0  0
   27.4223  -18.2865  -16.1806 C   0  0  0  0  0  0  0  0  0  0  0  0
   28.1607  -18.4197  -17.3266 C   0  0  0  0  0  0  0  0  0  0  0  0
   28.9518  -17.3176  -17.4615 N   0  0  0  0  0  0  0  0  0  0  0  0
   28.7151  -16.5170  -16.4288 C   0  0  0  0  0  0  0  0  0  0  0  0
   27.7895  -17.0909  -15.6428 N   0  0  0  0  0  0  0  0  0  0  0  0
   26.0470  -20.7447  -13.7015 C   0  0  0  0  0  0  0  0  0  0  0  0
   25.9142  -21.9605  -13.9761 O   0  0  0  0  0  0  0  0  0  0  0  0
   28.9109  -20.7073   -7.5464 O   0  0  0  0  0  0  0  0  0  0  0  0
   27.7397  -20.5681   -8.2947 C   0  0  0  0  0  0  0  0  0  0  0  0
   26.9230  -19.4616   -8.1883 C   0  0  0  0  0  0  0  0  0  0  0  0
   25.7726  -19.3480   -8.9377 C   0  0  0  0  0  0  0  0  0  0  0  0
   25.3861  -20.3403   -9.8310 C   0  0  0  0  0  0  0  0  0  0  0  0
   24.1385  -20.1814  -10.6236 C   0  0  0  0  0  0  0  0  0  0  0  0
   24.3255  -20.8188  -11.9500 C   0  0  2  0  0  0  0  0  0  0  0  0
   25.2873  -20.0589  -12.7173 N   0  0  0  0  0  0  0  0  0  0  0  0
   23.1215  -21.0154  -12.7481 C   0  0  0  0  0  0  0  0  0  0  0  0
   22.6929  -20.0764  -13.4582 O   0  0  0  0  0  0  0  0  0  0  0  0
   26.2157  -21.4365   -9.9220 C   0  0  0  0  0  0  0  0  0  0  0  0
   27.3692  -21.5519   -9.1714 C   0  0  0  0  0  0  0  0  0  0  0  0
   19.3546  -23.6888  -14.1703 O   0  0  0  0  0  0  0  0  0  0  0  0
   20.5658  -23.7046  -13.4995 C   0  0  0  0  0  0  0  0  0  0  0  0
   21.0825  -22.2841  -13.4269 C   0  0  2  0  0  0  0  0  0  0  0  0
   22.3718  -22.2234  -12.7867 N   0  0  0  0  0  0  0  0  0  0  0  0
   20.1358  -21.4483  -12.6642 C   0  0  0  0  0  0  0  0  0  0  0  0
   20.2228  -21.3873  -11.4168 O   0  0  0  0  0  0  0  0  0  0  0  0
   19.1498  -20.7320  -13.3437 O   0  0  0  0  0  0  0  0  0  0  0  0
  2  1  1  6
  2  9  1  0
  3  2  1  0
  3  4  1  0
  4  5  2  0
  4  8  1  0
  5  6  1  0
  6  7  1  0
  8  7  2  0
  9 18  1  0
  9 10  2  0
 11 12  1  0
 12 22  2  0
 13 12  1  0
 13 14  2  0
 14 15  1  0
 15 21  2  0
 15 16  1  0
 17 16  1  1
 18 17  1  0
 19 17  1  0
 19 20  2  0
 22 21  1  0
 23 24  1  0
 25 24  1  1
 25 26  1  0
 26 19  1  0
 27 25  1  0
 28 27  2  0
 29 27  1  0
M  END
$$$$
