HYS.pdb
     RDKit          3D

 29 30  0  0  1  0  0  0  0  0999 V2000
   21.6746  -10.8879  -16.4676 N   0  0  0  0  0  0  0  0  0  0  0  0
   20.4571  -10.1825  -16.7041 C   0  0  1  0  0  0  0  0  0  0  0  0
   19.2939  -10.9984  -16.1498 C   0  0  0  0  0  0  0  0  0  0  0  0
   19.2016  -12.2595  -16.9310 C   0  0  0  0  0  0  0  0  0  0  0  0
   18.9760  -12.3879  -18.2760 C   0  0  0  0  0  0  0  0  0  0  0  0
   18.9660  -13.7151  -18.5877 N   0  0  0  0  0  0  0  0  0  0  0  0
   19.1793  -14.3982  -17.4691 C   0  0  0  0  0  0  0  0  0  0  0  0
   19.3242  -13.5293  -16.4553 N   0  0  0  0  0  0  0  0  0  0  0  0
   20.4522   -8.8105  -16.1378 C   0  0  0  0  0  0  0  0  0  0  0  0
   20.8315   -8.6643  -14.9520 O   0  0  0  0  0  0  0  0  0  0  0  0
   26.2690   -7.6964  -17.1430 O   0  0  0  0  0  0  0  0  0  0  0  0
   24.9701   -7.1860  -17.2010 C   0  0  0  0  0  0  0  0  0  0  0  0
   24.0879   -7.5253  -18.2057 C   0  0  0  0  0  0  0  0  0  0  0  0
   22.8115   -7.0079  -18.2405 C   0  0  0  0  0  0  0  0  0  0  0  0
   22.3587   -6.1243  -17.2678 C   0  0  0  0  0  0  0  0  0  0  0  0
   20.9739   -5.5880  -17.3382 C   0  0  0  0  0  0  0  0  0  0  0  0
   20.0970   -6.4008  -16.4603 C   0  0  2  0  0  0  0  0  0  0  0  0
   20.0179   -7.7497  -16.9757 N   0  0  0  0  0  0  0  0  0  0  0  0
   18.7491   -5.8901  -16.2417 C   0  0  0  0  0  0  0  0  0  0  0  0
   17.8933   -6.0012  -17.1499 O   0  0  0  0  0  0  0  0  0  0  0  0
   23.2553   -5.7987  -16.2738 C   0  0  0  0  0  0  0  0  0  0  0  0
   24.5352   -6.3165  -16.2375 C   0  0  0  0  0  0  0  0  0  0  0  0
   16.2655   -6.4869  -13.4715 O   0  0  0  0  0  0  0  0  0  0  0  0
   16.3895   -5.1099  -13.5493 C   0  0  0  0  0  0  0  0  0  0  0  0
   16.9675   -4.7649  -14.9046 C   0  0  2  0  0  0  0  0  0  0  0  0
   18.3145   -5.2567  -15.0447 N   0  0  0  0  0  0  0  0  0  0  0  0
   16.9776   -3.3006  -15.0835 C   0  0  0  0  0  0  0  0  0  0  0  0
   18.0637   -2.6998  -15.2474 O   0  0  0  0  0  0  0  0  0  0  0  0
   15.7721   -2.5980  -15.0679 O   0  0  0  0  0  0  0  0  0  0  0  0
  2  1  1  1
  2  9  1  0
  3  2  1  0
  3  4  1  0
  4  5  2  0
  4  8  1  0
  5  6  1  0
  6  7  1  0
  8  7  2  0
  9 18  1  0
  9 10  2  0
 11 12  1  0
 12 22  2  0
 13 12  1  0
 13 14  2  0
 14 15  1  0
 15 21  2  0
 15 16  1  0
 17 16  1  6
 18 17  1  0
 19 17  1  0
 19 20  2  0
 22 21  1  0
 23 24  1  0
 25 24  1  1
 25 26  1  0
 26 19  1  0
 27 25  1  0
 28 27  2  0
 29 27  1  0
M  END
$$$$
