HYS.pdb
     RDKit          3D

 29 30  0  0  1  0  0  0  0  0999 V2000
   15.9769  -17.3405    5.2225 N   0  0  0  0  0  0  0  0  0  0  0  0
   17.3971  -17.4333    5.3244 C   0  0  1  0  0  0  0  0  0  0  0  0
   17.9454  -16.1107    5.8498 C   0  0  0  0  0  0  0  0  0  0  0  0
   17.7982  -15.0919    4.7776 C   0  0  0  0  0  0  0  0  0  0  0  0
   16.9469  -14.0188    4.7637 C   0  0  0  0  0  0  0  0  0  0  0  0
   17.1293  -13.3376    3.5970 N   0  0  0  0  0  0  0  0  0  0  0  0
   18.0684  -13.9667    2.9001 C   0  0  0  0  0  0  0  0  0  0  0  0
   18.4841  -15.0330    3.6031 N   0  0  0  0  0  0  0  0  0  0  0  0
   17.8539  -18.5637    6.1709 C   0  0  0  0  0  0  0  0  0  0  0  0
   17.0926  -18.9557    7.0864 O   0  0  0  0  0  0  0  0  0  0  0  0
   15.5144  -24.0087    3.6823 O   0  0  0  0  0  0  0  0  0  0  0  0
   16.6265  -23.3473    4.2085 C   0  0  0  0  0  0  0  0  0  0  0  0
   17.2812  -22.3446    3.5238 C   0  0  0  0  0  0  0  0  0  0  0  0
   18.3763  -21.7074    4.0648 C   0  0  0  0  0  0  0  0  0  0  0  0
   18.8675  -22.0460    5.3202 C   0  0  0  0  0  0  0  0  0  0  0  0
   20.0509  -21.3347    5.8715 C   0  0  0  0  0  0  0  0  0  0  0  0
   19.5854  -20.2158    6.7268 C   0  0  2  0  0  0  0  0  0  0  0  0
   19.1253  -19.1299    5.8900 N   0  0  0  0  0  0  0  0  0  0  0  0
   20.5445  -19.7018    7.6970 C   0  0  0  0  0  0  0  0  0  0  0  0
   21.5561  -19.0820    7.2944 O   0  0  0  0  0  0  0  0  0  0  0  0
   18.1993  -23.0495    5.9868 C   0  0  0  0  0  0  0  0  0  0  0  0
   17.1013  -23.6894    5.4459 C   0  0  0  0  0  0  0  0  0  0  0  0
   21.7719  -17.6444   11.6494 O   0  0  0  0  0  0  0  0  0  0  0  0
   20.7838  -18.1562   10.8255 C   0  0  0  0  0  0  0  0  0  0  0  0
   21.3867  -19.2776   10.0076 C   0  0  2  0  0  0  0  0  0  0  0  0
   20.4206  -19.8517    9.1059 N   0  0  0  0  0  0  0  0  0  0  0  0
   21.8836  -20.3373   10.9057 C   0  0  0  0  0  0  0  0  0  0  0  0
   22.7645  -20.0727   11.7550 O   0  0  0  0  0  0  0  0  0  0  0  0
   21.3646  -21.6282   10.7986 O   0  0  0  0  0  0  0  0  0  0  0  0
  2  1  1  1
  2  9  1  0
  3  2  1  0
  3  4  1  0
  4  5  2  0
  4  8  1  0
  5  6  1  0
  6  7  1  0
  8  7  2  0
  9 18  1  0
  9 10  2  0
 11 12  1  0
 12 22  2  0
 13 12  1  0
 13 14  2  0
 14 15  1  0
 15 21  2  0
 15 16  1  0
 17 16  1  6
 18 17  1  0
 19 17  1  0
 19 20  2  0
 22 21  1  0
 23 24  1  0
 25 24  1  1
 25 26  1  0
 26 19  1  0
 27 25  1  0
 28 27  2  0
 29 27  1  0
M  END
$$$$
