PSI.pdb
     RDKit          3D

 22 22  0  0  1  0  0  0  0  0999 V2000
    8.5286  -15.1987   18.7255 N   0  0  0  0  0  0  0  0  0  0  0  0
    8.8186  -14.5534   17.4539 C   0  0  0  0  0  0  0  0  0  0  0  0
    8.0920  -13.2439   17.4734 C   0  0  0  0  0  0  0  0  0  0  0  0
    7.6289  -13.0900   18.9188 C   0  0  0  0  0  0  0  0  0  0  0  0
    8.5408  -14.0677   19.6305 C   0  0  1  0  0  0  0  0  0  0  0  0
    7.9739  -14.4086   20.9558 C   0  0  0  0  0  0  0  0  0  0  0  0
    7.9061  -13.4935   21.8073 O   0  0  0  0  0  0  0  0  0  0  0  0
    7.5837  -18.2492   22.7873 O   0  0  0  0  0  0  0  0  0  0  0  0
    6.4730  -17.4649   22.6039 C   0  0  0  0  0  0  0  0  0  0  0  0
    6.8721  -16.0064   22.5683 C   0  0  2  0  0  0  0  0  0  0  0  0
    7.5149  -15.7156   21.2812 N   0  0  0  0  0  0  0  0  0  0  0  0
    7.7450  -15.5946   23.6714 C   0  0  0  0  0  0  0  0  0  0  0  0
    8.9862  -15.5266   23.4694 O   0  0  0  0  0  0  0  0  0  0  0  0
    5.8639  -11.6632   26.6461 C   0  0  0  0  0  0  0  0  0  0  0  0
    6.8381  -12.4674   25.8119 C   0  0  0  0  0  0  0  0  0  0  0  0
    7.4707  -13.4964   26.6893 C   0  0  2  0  0  0  0  0  0  0  0  0
    8.4677  -12.8360   27.6029 C   0  0  0  0  0  0  0  0  0  0  0  0
    8.1722  -14.5889   25.9291 C   0  0  2  0  0  0  0  0  0  0  0  0
    7.3170  -15.2553   24.9812 N   0  0  0  0  0  0  0  0  0  0  0  0
    8.6659  -15.5846   26.9041 C   0  0  0  0  0  0  0  0  0  0  0  0
    9.6637  -15.3828   27.6445 O   0  0  0  0  0  0  0  0  0  0  0  0
    8.0082  -16.7955   27.0147 O   0  0  0  0  0  0  0  0  0  0  0  0
  2  1  1  0
  3  2  1  0
  4  3  1  0
  4  5  1  0
  5  1  1  0
  5  6  1  1
  6 11  1  0
  7  6  2  0
  8  9  1  0
 10  9  1  1
 10 11  1  0
 10 12  1  0
 12 13  2  0
 12 19  1  0
 15 14  1  0
 16 17  1  1
 16 15  1  0
 18 16  1  0
 18 19  1  6
 20 18  1  0
 20 22  1  0
 21 20  2  0
M  END
$$$$
