PSI.pdb
     RDKit          3D

 22 22  0  0  1  0  0  0  0  0999 V2000
    8.6277  -15.1390   18.8105 N   0  0  0  0  0  0  0  0  0  0  0  0
    8.8627  -14.4801   17.5346 C   0  0  0  0  0  0  0  0  0  0  0  0
    7.9588  -13.2862   17.5069 C   0  0  0  0  0  0  0  0  0  0  0  0
    7.4348  -13.1756   18.9353 C   0  0  0  0  0  0  0  0  0  0  0  0
    8.4530  -14.0028   19.6921 C   0  0  1  0  0  0  0  0  0  0  0  0
    7.8995  -14.3986   21.0078 C   0  0  0  0  0  0  0  0  0  0  0  0
    7.7433  -13.4979   21.8629 O   0  0  0  0  0  0  0  0  0  0  0  0
    7.8776  -18.2728   22.8618 O   0  0  0  0  0  0  0  0  0  0  0  0
    6.7059  -17.5916   22.6481 C   0  0  0  0  0  0  0  0  0  0  0  0
    6.9727  -16.1030   22.6212 C   0  0  2  0  0  0  0  0  0  0  0  0
    7.5486  -15.7417   21.3204 N   0  0  0  0  0  0  0  0  0  0  0  0
    7.8380  -15.6274   23.7044 C   0  0  0  0  0  0  0  0  0  0  0  0
    9.0588  -15.4327   23.4641 O   0  0  0  0  0  0  0  0  0  0  0  0
    5.8085  -12.0115   27.0255 C   0  0  0  0  0  0  0  0  0  0  0  0
    6.7968  -12.6800   26.0938 C   0  0  0  0  0  0  0  0  0  0  0  0
    7.5387  -13.7217   26.8642 C   0  0  2  0  0  0  0  0  0  0  0  0
    8.5312  -13.0592   27.7811 C   0  0  0  0  0  0  0  0  0  0  0  0
    8.2754  -14.7045   25.9953 C   0  0  2  0  0  0  0  0  0  0  0  0
    7.4237  -15.3569   25.0345 N   0  0  0  0  0  0  0  0  0  0  0  0
    8.8771  -15.7326   26.8708 C   0  0  0  0  0  0  0  0  0  0  0  0
    8.3786  -16.8781   27.0259 O   0  0  0  0  0  0  0  0  0  0  0  0
   10.0403  -15.4315   27.5544 O   0  0  0  0  0  0  0  0  0  0  0  0
  2  1  1  0
  3  2  1  0
  4  3  1  0
  4  5  1  0
  5  1  1  0
  5  6  1  1
  6 11  1  0
  7  6  2  0
  8  9  1  0
 10  9  1  6
 10 11  1  0
 10 12  1  0
 12 13  2  0
 12 19  1  0
 15 14  1  0
 16 17  1  1
 16 15  1  0
 18 16  1  0
 18 19  1  6
 20 18  1  0
 20 22  1  0
 21 20  2  0
M  END
$$$$
