PSI.pdb
     RDKit          3D

 22 22  0  0  1  0  0  0  0  0999 V2000
    8.4587  -15.3765   18.6613 N   0  0  0  0  0  0  0  0  0  0  0  0
    8.7135  -14.7829   17.3574 C   0  0  0  0  0  0  0  0  0  0  0  0
    8.0551  -13.4378   17.3736 C   0  0  0  0  0  0  0  0  0  0  0  0
    7.6765  -13.2198   18.8352 C   0  0  0  0  0  0  0  0  0  0  0  0
    8.5746  -14.2225   19.5293 C   0  0  1  0  0  0  0  0  0  0  0  0
    8.0616  -14.4965   20.8916 C   0  0  0  0  0  0  0  0  0  0  0  0
    8.1006  -13.5607   21.7221 O   0  0  0  0  0  0  0  0  0  0  0  0
    7.7500  -18.1446   22.9912 O   0  0  0  0  0  0  0  0  0  0  0  0
    6.5959  -17.4413   22.7546 C   0  0  0  0  0  0  0  0  0  0  0  0
    6.9130  -15.9720   22.5859 C   0  0  2  0  0  0  0  0  0  0  0  0
    7.5379  -15.7630   21.2744 N   0  0  0  0  0  0  0  0  0  0  0  0
    7.7623  -15.4149   23.6427 C   0  0  0  0  0  0  0  0  0  0  0  0
    9.0121  -15.4337   23.4892 O   0  0  0  0  0  0  0  0  0  0  0  0
    5.7861  -11.9794   27.7888 C   0  0  0  0  0  0  0  0  0  0  0  0
    6.2808  -13.2568   27.1444 C   0  0  0  0  0  0  0  0  0  0  0  0
    7.5456  -12.9544   26.4112 C   0  0  2  0  0  0  0  0  0  0  0  0
    7.2740  -11.9375   25.3355 C   0  0  0  0  0  0  0  0  0  0  0  0
    8.1784  -14.1624   25.7756 C   0  0  2  0  0  0  0  0  0  0  0  0
    7.3016  -14.8401   24.8557 N   0  0  0  0  0  0  0  0  0  0  0  0
    8.5565  -15.1038   26.8510 C   0  0  0  0  0  0  0  0  0  0  0  0
    9.3752  -14.8116   27.7614 O   0  0  0  0  0  0  0  0  0  0  0  0
    7.9903  -16.3649   26.8656 O   0  0  0  0  0  0  0  0  0  0  0  0
  2  1  1  0
  3  2  1  0
  4  3  1  0
  4  5  1  0
  5  1  1  0
  5  6  1  1
  6 11  1  0
  7  6  2  0
  8  9  1  0
 10  9  1  1
 10 11  1  0
 10 12  1  0
 12 13  2  0
 12 19  1  0
 15 14  1  0
 16 17  1  6
 16 15  1  0
 18 16  1  0
 18 19  1  6
 20 18  1  0
 20 22  1  0
 21 20  2  0
M  END
$$$$
