PSI.pdb
     RDKit          3D

 22 22  0  0  1  0  0  0  0  0999 V2000
    8.7971  -14.9111   18.8053 N   0  0  0  0  0  0  0  0  0  0  0  0
    8.9357  -14.1704   17.5605 C   0  0  0  0  0  0  0  0  0  0  0  0
    7.9193  -13.0716   17.6114 C   0  0  0  0  0  0  0  0  0  0  0  0
    7.4216  -13.0836   19.0534 C   0  0  0  0  0  0  0  0  0  0  0  0
    8.5336  -13.8424   19.7472 C   0  0  1  0  0  0  0  0  0  0  0  0
    8.0534  -14.3551   21.0512 C   0  0  0  0  0  0  0  0  0  0  0  0
    7.7378  -13.5127   21.9217 O   0  0  0  0  0  0  0  0  0  0  0  0
    8.6821  -18.2321   22.5518 O   0  0  0  0  0  0  0  0  0  0  0  0
    7.4030  -17.7393   22.6111 C   0  0  0  0  0  0  0  0  0  0  0  0
    7.4334  -16.2272   22.6254 C   0  0  2  0  0  0  0  0  0  0  0  0
    7.9430  -15.7448   21.3362 N   0  0  0  0  0  0  0  0  0  0  0  0
    8.2158  -15.6517   23.7232 C   0  0  0  0  0  0  0  0  0  0  0  0
    9.4108  -15.3186   23.5063 O   0  0  0  0  0  0  0  0  0  0  0  0
    6.0931  -11.8202   26.5495 C   0  0  0  0  0  0  0  0  0  0  0  0
    7.0910  -12.6544   25.7749 C   0  0  0  0  0  0  0  0  0  0  0  0
    7.7213  -13.6273   26.7157 C   0  0  2  0  0  0  0  0  0  0  0  0
    8.6363  -12.8950   27.6598 C   0  0  0  0  0  0  0  0  0  0  0  0
    8.5119  -14.7067   26.0276 C   0  0  2  0  0  0  0  0  0  0  0  0
    7.7458  -15.4264   25.0431 N   0  0  0  0  0  0  0  0  0  0  0  0
    8.9796  -15.6612   27.0551 C   0  0  0  0  0  0  0  0  0  0  0  0
    8.3766  -16.7342   27.3191 O   0  0  0  0  0  0  0  0  0  0  0  0
   10.1307  -15.3708   27.7634 O   0  0  0  0  0  0  0  0  0  0  0  0
  2  1  1  0
  3  2  1  0
  4  3  1  0
  4  5  1  0
  5  1  1  0
  5  6  1  1
  6 11  1  0
  7  6  2  0
  8  9  1  0
 10  9  1  6
 10 11  1  0
 10 12  1  0
 12 13  2  0
 12 19  1  0
 15 14  1  0
 16 17  1  1
 16 15  1  0
 18 16  1  0
 18 19  1  6
 20 18  1  0
 20 22  1  0
 21 20  2  0
M  END
$$$$
