PSI.pdb
     RDKit          3D

 22 22  0  0  1  0  0  0  0  0999 V2000
    8.7363  -15.1599   19.1702 N   0  0  0  0  0  0  0  0  0  0  0  0
    8.8990  -14.4996   17.8837 C   0  0  0  0  0  0  0  0  0  0  0  0
    7.8645  -13.4178   17.8342 C   0  0  0  0  0  0  0  0  0  0  0  0
    7.3258  -13.3444   19.2595 C   0  0  0  0  0  0  0  0  0  0  0  0
    8.4292  -14.0367   20.0321 C   0  0  1  0  0  0  0  0  0  0  0  0
    7.9197  -14.4715   21.3532 C   0  0  0  0  0  0  0  0  0  0  0  0
    7.6488  -13.5800   22.1892 O   0  0  0  0  0  0  0  0  0  0  0  0
    8.2452  -18.3675   23.0647 O   0  0  0  0  0  0  0  0  0  0  0  0
    7.0228  -17.7461   23.0184 C   0  0  0  0  0  0  0  0  0  0  0  0
    7.2081  -16.2450   23.0010 C   0  0  2  0  0  0  0  0  0  0  0  0
    7.7338  -15.8411   21.6916 N   0  0  0  0  0  0  0  0  0  0  0  0
    8.0710  -15.7331   24.0696 C   0  0  0  0  0  0  0  0  0  0  0  0
    9.2881  -15.5277   23.8200 O   0  0  0  0  0  0  0  0  0  0  0  0
    6.2713  -11.6792   26.8463 C   0  0  0  0  0  0  0  0  0  0  0  0
    7.1524  -12.6226   26.0554 C   0  0  0  0  0  0  0  0  0  0  0  0
    7.7807  -13.5873   27.0059 C   0  0  2  0  0  0  0  0  0  0  0  0
    8.7670  -12.8624   27.8814 C   0  0  0  0  0  0  0  0  0  0  0  0
    8.4930  -14.7257   26.3275 C   0  0  2  0  0  0  0  0  0  0  0  0
    7.6580  -15.4377   25.3948 N   0  0  0  0  0  0  0  0  0  0  0  0
    8.9509  -15.6690   27.3698 C   0  0  0  0  0  0  0  0  0  0  0  0
    8.3673  -16.7574   27.6135 O   0  0  0  0  0  0  0  0  0  0  0  0
   10.0701  -15.3498   28.1157 O   0  0  0  0  0  0  0  0  0  0  0  0
  2  1  1  0
  3  2  1  0
  4  3  1  0
  4  5  1  0
  5  1  1  0
  5  6  1  1
  6 11  1  0
  7  6  2  0
  8  9  1  0
 10  9  1  6
 10 11  1  0
 10 12  1  0
 12 13  2  0
 12 19  1  0
 15 14  1  0
 16 17  1  6
 16 15  1  0
 18 16  1  0
 18 19  1  6
 20 18  1  0
 20 22  1  0
 21 20  2  0
M  END
$$$$
