PSI.pdb
     RDKit          3D

 22 22  0  0  1  0  0  0  0  0999 V2000
    7.8998  -14.9958   17.9315 N   0  0  0  0  0  0  0  0  0  0  0  0
    8.3521  -13.9714   17.0023 C   0  0  0  0  0  0  0  0  0  0  0  0
    8.3861  -12.6895   17.7760 C   0  0  0  0  0  0  0  0  0  0  0  0
    8.2023  -13.1194   19.2281 C   0  0  0  0  0  0  0  0  0  0  0  0
    8.5635  -14.5883   19.1530 C   0  0  1  0  0  0  0  0  0  0  0  0
    8.0309  -15.2971   20.3395 C   0  0  0  0  0  0  0  0  0  0  0  0
    6.8009  -15.5280   20.3700 O   0  0  0  0  0  0  0  0  0  0  0  0
    9.9809  -17.8861   22.8325 O   0  0  0  0  0  0  0  0  0  0  0  0
    8.6207  -17.7181   22.7694 C   0  0  0  0  0  0  0  0  0  0  0  0
    8.2874  -16.2466   22.6633 C   0  0  2  0  0  0  0  0  0  0  0  0
    8.8575  -15.7134   21.4203 N   0  0  0  0  0  0  0  0  0  0  0  0
    8.7337  -15.4449   23.8063 C   0  0  0  0  0  0  0  0  0  0  0  0
    9.8680  -14.8998   23.7586 O   0  0  0  0  0  0  0  0  0  0  0  0
    5.5811  -11.9085   26.2467 C   0  0  0  0  0  0  0  0  0  0  0  0
    6.7378  -12.6312   25.5898 C   0  0  0  0  0  0  0  0  0  0  0  0
    7.4164  -13.4688   26.6227 C   0  0  2  0  0  0  0  0  0  0  0  0
    8.0519  -12.5782   27.6561 C   0  0  0  0  0  0  0  0  0  0  0  0
    8.4757  -14.3782   26.0617 C   0  0  2  0  0  0  0  0  0  0  0  0
    7.9924  -15.2159   24.9945 N   0  0  0  0  0  0  0  0  0  0  0  0
    8.9685  -15.2414   27.1560 C   0  0  0  0  0  0  0  0  0  0  0  0
    8.5779  -16.4264   27.3233 O   0  0  0  0  0  0  0  0  0  0  0  0
    9.9008  -14.7328   28.0410 O   0  0  0  0  0  0  0  0  0  0  0  0
  2  1  1  0
  3  2  1  0
  4  3  1  0
  4  5  1  0
  5  1  1  0
  5  6  1  1
  6 11  1  0
  7  6  2  0
  8  9  1  0
 10  9  1  1
 10 11  1  0
 10 12  1  0
 12 13  2  0
 12 19  1  0
 15 14  1  0
 16 17  1  1
 16 15  1  0
 18 16  1  0
 18 19  1  6
 20 18  1  0
 20 22  1  0
 21 20  2  0
M  END
$$$$
