PSI.pdb
     RDKit          3D

 22 22  0  0  1  0  0  0  0  0999 V2000
    9.1122  -14.8494   18.5466 N   0  0  0  0  0  0  0  0  0  0  0  0
    9.2303  -14.1267   17.2891 C   0  0  0  0  0  0  0  0  0  0  0  0
    8.0528  -13.2035   17.2243 C   0  0  0  0  0  0  0  0  0  0  0  0
    7.4510  -13.2595   18.6249 C   0  0  0  0  0  0  0  0  0  0  0  0
    8.6104  -13.8137   19.4264 C   0  0  1  0  0  0  0  0  0  0  0  0
    8.1154  -14.3644   20.7093 C   0  0  0  0  0  0  0  0  0  0  0  0
    7.6524  -13.5551   21.5445 O   0  0  0  0  0  0  0  0  0  0  0  0
    9.1218  -18.0961   22.5901 O   0  0  0  0  0  0  0  0  0  0  0  0
    7.8165  -17.7783   22.3112 C   0  0  0  0  0  0  0  0  0  0  0  0
    7.6454  -16.2757   22.2883 C   0  0  2  0  0  0  0  0  0  0  0  0
    8.1502  -15.7542   21.0125 N   0  0  0  0  0  0  0  0  0  0  0  0
    8.2889  -15.5800   23.4065 C   0  0  0  0  0  0  0  0  0  0  0  0
    9.4256  -15.0679   23.2285 O   0  0  0  0  0  0  0  0  0  0  0  0
    6.8477  -11.1879   26.9908 C   0  0  0  0  0  0  0  0  0  0  0  0
    7.7963  -12.3669   26.9467 C   0  0  0  0  0  0  0  0  0  0  0  0
    7.3195  -13.3150   25.8966 C   0  0  2  0  0  0  0  0  0  0  0  0
    5.9756  -13.8672   26.2888 C   0  0  0  0  0  0  0  0  0  0  0  0
    8.2556  -14.4677   25.6543 C   0  0  2  0  0  0  0  0  0  0  0  0
    7.7415  -15.4221   24.7062 N   0  0  0  0  0  0  0  0  0  0  0  0
    8.4831  -15.1552   26.9432 C   0  0  0  0  0  0  0  0  0  0  0  0
    8.0067  -16.2898   27.2084 O   0  0  0  0  0  0  0  0  0  0  0  0
    9.2527  -14.5313   27.9073 O   0  0  0  0  0  0  0  0  0  0  0  0
  2  1  1  0
  3  2  1  0
  4  3  1  0
  4  5  1  0
  5  1  1  0
  5  6  1  1
  6 11  1  0
  7  6  2  0
  8  9  1  0
 10  9  1  1
 10 11  1  0
 10 12  1  0
 12 13  2  0
 12 19  1  0
 15 14  1  0
 16 17  1  1
 16 15  1  0
 18 16  1  0
 18 19  1  6
 20 18  1  0
 20 22  1  0
 21 20  2  0
M  END
$$$$
