PSI.pdb
     RDKit          3D

 22 22  0  0  1  0  0  0  0  0999 V2000
    8.5608  -15.1159   18.7769 N   0  0  0  0  0  0  0  0  0  0  0  0
    8.8165  -14.4372   17.5154 C   0  0  0  0  0  0  0  0  0  0  0  0
    8.0192  -13.1699   17.5523 C   0  0  0  0  0  0  0  0  0  0  0  0
    7.5465  -13.0627   18.9988 C   0  0  0  0  0  0  0  0  0  0  0  0
    8.5097  -13.9991   19.6982 C   0  0  1  0  0  0  0  0  0  0  0  0
    7.9606  -14.3898   21.0172 C   0  0  0  0  0  0  0  0  0  0  0  0
    7.8424  -13.4925   21.8820 O   0  0  0  0  0  0  0  0  0  0  0  0
    7.8846  -18.2507   22.7900 O   0  0  0  0  0  0  0  0  0  0  0  0
    6.7058  -17.5624   22.6511 C   0  0  0  0  0  0  0  0  0  0  0  0
    6.9783  -16.0750   22.6179 C   0  0  2  0  0  0  0  0  0  0  0  0
    7.5728  -15.7244   21.3226 N   0  0  0  0  0  0  0  0  0  0  0  0
    7.8308  -15.5953   23.7095 C   0  0  0  0  0  0  0  0  0  0  0  0
    9.0538  -15.3987   23.4820 O   0  0  0  0  0  0  0  0  0  0  0  0
    5.6956  -12.0628   26.9891 C   0  0  0  0  0  0  0  0  0  0  0  0
    6.7711  -12.6486   26.0991 C   0  0  0  0  0  0  0  0  0  0  0  0
    7.5024  -13.6957   26.8721 C   0  0  2  0  0  0  0  0  0  0  0  0
    8.4874  -13.0400   27.8020 C   0  0  0  0  0  0  0  0  0  0  0  0
    8.2452  -14.6765   26.0063 C   0  0  2  0  0  0  0  0  0  0  0  0
    7.4015  -15.3227   25.0343 N   0  0  0  0  0  0  0  0  0  0  0  0
    8.8358  -15.7100   26.8832 C   0  0  0  0  0  0  0  0  0  0  0  0
    9.8188  -15.4887   27.6377 O   0  0  0  0  0  0  0  0  0  0  0  0
    8.2902  -16.9802   26.8812 O   0  0  0  0  0  0  0  0  0  0  0  0
  2  1  1  0
  3  2  1  0
  4  3  1  0
  4  5  1  0
  5  1  1  0
  5  6  1  1
  6 11  1  0
  7  6  2  0
  8  9  1  0
 10  9  1  6
 10 11  1  0
 10 12  1  0
 12 13  2  0
 12 19  1  0
 15 14  1  0
 16 17  1  1
 16 15  1  0
 18 16  1  0
 18 19  1  6
 20 18  1  0
 20 22  1  0
 21 20  2  0
M  END
$$$$
