CQK.pdb
     RDKit          3D

 25 24  0  0  1  0  0  0  0  0999 V2000
    8.8531  -18.3848   15.5589 N   0  0  0  0  0  0  0  0  0  0  0  0
    8.4428  -18.1450   16.9209 C   0  0  1  0  0  0  0  0  0  0  0  0
    8.2000  -19.4664   17.5994 C   0  0  0  0  0  0  0  0  0  0  0  0
    7.7916  -19.1627   19.3294 S   0  0  0  0  0  0  0  0  0  0  0  0
    9.4234  -17.3104   17.6799 C   0  0  0  0  0  0  0  0  0  0  0  0
   10.6146  -17.2551   17.2951 O   0  0  0  0  0  0  0  0  0  0  0  0
    8.6404  -11.6210   19.3394 N   0  0  0  0  0  0  0  0  0  0  0  0
    7.6941  -12.6406   19.5819 C   0  0  0  0  0  0  0  0  0  0  0  0
    6.4860  -12.3268   19.6919 O   0  0  0  0  0  0  0  0  0  0  0  0
    8.0620  -14.0708   19.7132 C   0  0  0  0  0  0  0  0  0  0  0  0
    9.5479  -14.2674   19.4878 C   0  0  0  0  0  0  0  0  0  0  0  0
    9.8569  -15.7133   19.6239 C   0  0  2  0  0  0  0  0  0  0  0  0
    9.0494  -16.5731   18.8296 N   0  0  0  0  0  0  0  0  0  0  0  0
   10.0676  -16.1760   21.0356 C   0  0  0  0  0  0  0  0  0  0  0  0
    9.1393  -16.2279   21.8826 O   0  0  0  0  0  0  0  0  0  0  0  0
   11.3675  -16.5859   21.4767 N   0  0  0  0  0  0  0  0  0  0  0  0
   11.5780  -17.0172   22.8648 C   0  0  1  0  0  0  0  0  0  0  0  0
   11.8111  -18.5121   22.8802 C   0  0  0  0  0  0  0  0  0  0  0  0
   11.9334  -19.0519   24.2854 C   0  0  0  0  0  0  0  0  0  0  0  0
   12.1154  -20.5503   24.1585 C   0  0  0  0  0  0  0  0  0  0  0  0
   12.0954  -21.2435   25.4982 C   0  0  0  0  0  0  0  0  0  0  0  0
   12.1208  -22.6729   25.2385 N   0  0  0  0  0  0  0  0  0  0  0  0
   12.7147  -16.2809   23.4701 C   0  0  0  0  0  0  0  0  0  0  0  0
   13.5066  -15.4222   22.7289 O   0  0  0  0  0  0  0  0  0  0  0  0
   12.9818  -16.4274   24.6872 O   0  0  0  0  0  0  0  0  0  0  0  0
  2  1  1  6
  2  5  1  0
  3  2  1  0
  4  3  1  0
  5  6  2  0
  7  8  1  0
  8  9  2  0
  8 10  1  0
 10 11  1  0
 12 11  1  1
 13  5  1  0
 13 12  1  0
 14 12  1  0
 14 15  2  0
 16 14  1  0
 17 16  1  0
 17 23  1  0
 17 18  1  6
 19 18  1  0
 20 19  1  0
 21 20  1  0
 21 22  1  0
 23 24  1  0
 25 23  2  0
M  END
$$$$
