CQK.pdb
     RDKit          3D

 25 24  0  0  1  0  0  0  0  0999 V2000
   13.2617  -18.8549   17.2230 N   0  0  0  0  0  0  0  0  0  0  0  0
   12.9012  -19.1902   18.5788 C   0  0  1  0  0  0  0  0  0  0  0  0
   12.9887  -20.6826   18.7543 C   0  0  0  0  0  0  0  0  0  0  0  0
   11.4625  -21.4274   18.1479 S   0  0  0  0  0  0  0  0  0  0  0  0
   13.7312  -18.4690   19.5913 C   0  0  0  0  0  0  0  0  0  0  0  0
   14.8528  -18.0181   19.2614 O   0  0  0  0  0  0  0  0  0  0  0  0
   14.9548  -14.5733   22.0631 N   0  0  0  0  0  0  0  0  0  0  0  0
   15.1531  -15.2528   23.2848 C   0  0  0  0  0  0  0  0  0  0  0  0
   16.2360  -15.0917   23.8943 O   0  0  0  0  0  0  0  0  0  0  0  0
   14.1380  -16.1518   23.8843 C   0  0  0  0  0  0  0  0  0  0  0  0
   13.2272  -16.7234   22.8162 C   0  0  0  0  0  0  0  0  0  0  0  0
   14.0025  -17.7005   22.0107 C   0  0  2  0  0  0  0  0  0  0  0  0
   13.2898  -18.2757   20.9229 N   0  0  0  0  0  0  0  0  0  0  0  0
   14.8093  -18.6742   22.8184 C   0  0  0  0  0  0  0  0  0  0  0  0
   14.3062  -19.3998   23.7142 O   0  0  0  0  0  0  0  0  0  0  0  0
   16.2165  -18.8141   22.5891 N   0  0  0  0  0  0  0  0  0  0  0  0
   16.9977  -19.7985   23.3493 C   0  0  1  0  0  0  0  0  0  0  0  0
   17.9484  -20.5004   22.4043 C   0  0  0  0  0  0  0  0  0  0  0  0
   17.2298  -21.0969   21.2175 C   0  0  0  0  0  0  0  0  0  0  0  0
   18.2978  -21.6685   20.3081 C   0  0  0  0  0  0  0  0  0  0  0  0
   18.0912  -23.1382   20.0379 C   0  0  0  0  0  0  0  0  0  0  0  0
   19.1110  -23.5437   19.0856 N   0  0  0  0  0  0  0  0  0  0  0  0
   17.7225  -19.1378   24.4623 C   0  0  0  0  0  0  0  0  0  0  0  0
   17.6840  -17.7673   24.6476 O   0  0  0  0  0  0  0  0  0  0  0  0
   18.3952  -19.8237   25.2692 O   0  0  0  0  0  0  0  0  0  0  0  0
  2  1  1  6
  2  5  1  0
  3  2  1  0
  4  3  1  0
  5  6  2  0
  7  8  1  0
  8  9  2  0
  8 10  1  0
 10 11  1  0
 12 11  1  1
 13  5  1  0
 13 12  1  0
 14 12  1  0
 14 15  2  0
 16 14  1  0
 17 16  1  0
 17 23  1  0
 17 18  1  6
 19 18  1  0
 20 19  1  0
 21 20  1  0
 21 22  1  0
 23 24  1  0
 25 23  2  0
M  END
$$$$
