CQK.pdb
     RDKit          3D

 25 24  0  0  1  0  0  0  0  0999 V2000
   10.7804  -18.2374   16.8688 N   0  0  0  0  0  0  0  0  0  0  0  0
   11.4707  -18.9685   17.9031 C   0  0  1  0  0  0  0  0  0  0  0  0
   12.8129  -18.3304   18.1418 C   0  0  0  0  0  0  0  0  0  0  0  0
   13.6417  -19.2089   19.4809 S   0  0  0  0  0  0  0  0  0  0  0  0
   10.6777  -19.0677   19.1662 C   0  0  0  0  0  0  0  0  0  0  0  0
   10.1654  -18.0343   19.6558 O   0  0  0  0  0  0  0  0  0  0  0  0
    8.6107  -23.9156   22.1260 N   0  0  0  0  0  0  0  0  0  0  0  0
    8.0234  -22.8685   22.8693 C   0  0  0  0  0  0  0  0  0  0  0  0
    7.4572  -23.1436   23.9527 O   0  0  0  0  0  0  0  0  0  0  0  0
    8.0442  -21.4532   22.4283 C   0  0  0  0  0  0  0  0  0  0  0  0
    8.6105  -21.3341   21.0274 C   0  0  0  0  0  0  0  0  0  0  0  0
    9.8574  -20.5306   21.0911 C   0  0  2  0  0  0  0  0  0  0  0  0
   10.4836  -20.3006   19.8352 N   0  0  0  0  0  0  0  0  0  0  0  0
   10.7931  -20.9176   22.1983 C   0  0  0  0  0  0  0  0  0  0  0  0
   11.5449  -21.9241   22.1362 O   0  0  0  0  0  0  0  0  0  0  0  0
   10.8639  -20.1320   23.3942 N   0  0  0  0  0  0  0  0  0  0  0  0
   11.7900  -20.5034   24.4720 C   0  0  1  0  0  0  0  0  0  0  0  0
   13.1843  -20.0552   24.0920 C   0  0  0  0  0  0  0  0  0  0  0  0
   14.2185  -20.5108   25.0938 C   0  0  0  0  0  0  0  0  0  0  0  0
   15.5666  -20.0933   24.5436 C   0  0  0  0  0  0  0  0  0  0  0  0
   16.7048  -20.5165   25.4387 C   0  0  0  0  0  0  0  0  0  0  0  0
   17.9376  -20.1597   24.7576 N   0  0  0  0  0  0  0  0  0  0  0  0
   11.3556  -19.9053   25.7582 C   0  0  0  0  0  0  0  0  0  0  0  0
   10.2544  -19.0721   25.8416 O   0  0  0  0  0  0  0  0  0  0  0  0
   11.9917  -20.1498   26.8117 O   0  0  0  0  0  0  0  0  0  0  0  0
  2  1  1  6
  2  5  1  0
  3  2  1  0
  4  3  1  0
  5  6  2  0
  7  8  1  0
  8  9  2  0
  8 10  1  0
 10 11  1  0
 12 11  1  6
 13  5  1  0
 13 12  1  0
 14 12  1  0
 14 15  2  0
 16 14  1  0
 17 16  1  0
 17 23  1  0
 17 18  1  6
 19 18  1  0
 20 19  1  0
 21 20  1  0
 21 22  1  0
 23 24  1  0
 25 23  2  0
M  END
$$$$
