CQK.pdb
     RDKit          3D

 25 24  0  0  1  0  0  0  0  0999 V2000
    8.6444  -14.6276   17.1536 N   0  0  0  0  0  0  0  0  0  0  0  0
    8.8063  -14.1474   18.5042 C   0  0  1  0  0  0  0  0  0  0  0  0
    8.0944  -12.8286   18.6440 C   0  0  0  0  0  0  0  0  0  0  0  0
    8.2659  -12.2555   20.3452 S   0  0  0  0  0  0  0  0  0  0  0  0
    8.3406  -15.1335   19.5263 C   0  0  0  0  0  0  0  0  0  0  0  0
    7.5559  -16.0496   19.1872 O   0  0  0  0  0  0  0  0  0  0  0  0
   10.2700  -19.9132   20.6429 N   0  0  0  0  0  0  0  0  0  0  0  0
   11.1469  -18.8364   20.8988 C   0  0  0  0  0  0  0  0  0  0  0  0
   12.3805  -19.0243   20.7834 O   0  0  0  0  0  0  0  0  0  0  0  0
   10.6772  -17.4885   21.2992 C   0  0  0  0  0  0  0  0  0  0  0  0
    9.1631  -17.4376   21.3450 C   0  0  0  0  0  0  0  0  0  0  0  0
    8.7525  -16.1037   21.8516 C   0  0  2  0  0  0  0  0  0  0  0  0
    8.7594  -15.0677   20.8775 N   0  0  0  0  0  0  0  0  0  0  0  0
    9.3529  -15.7267   23.1740 C   0  0  0  0  0  0  0  0  0  0  0  0
   10.5424  -15.3370   23.2974 O   0  0  0  0  0  0  0  0  0  0  0  0
    8.5700  -15.7991   24.3716 N   0  0  0  0  0  0  0  0  0  0  0  0
    9.1173  -15.3159   25.6460 C   0  0  1  0  0  0  0  0  0  0  0  0
    8.0131  -14.6318   26.4220 C   0  0  0  0  0  0  0  0  0  0  0  0
    7.5136  -13.3906   25.7216 C   0  0  0  0  0  0  0  0  0  0  0  0
    6.4400  -12.7957   26.6093 C   0  0  0  0  0  0  0  0  0  0  0  0
    5.9385  -11.4712   26.0898 C   0  0  0  0  0  0  0  0  0  0  0  0
    4.9855  -10.9653   27.0630 N   0  0  0  0  0  0  0  0  0  0  0  0
    9.7107  -16.4376   26.4143 C   0  0  0  0  0  0  0  0  0  0  0  0
   10.5244  -16.2214   27.5121 O   0  0  0  0  0  0  0  0  0  0  0  0
    9.4802  -17.6233   26.0750 O   0  0  0  0  0  0  0  0  0  0  0  0
  2  1  1  6
  2  5  1  0
  3  2  1  0
  4  3  1  0
  5  6  2  0
  7  8  1  0
  8  9  2  0
  8 10  1  0
 10 11  1  0
 12 11  1  6
 13  5  1  0
 13 12  1  0
 14 12  1  0
 14 15  2  0
 16 14  1  0
 17 16  1  0
 17 23  1  0
 17 18  1  1
 19 18  1  0
 20 19  1  0
 21 20  1  0
 21 22  1  0
 23 24  1  0
 25 23  2  0
M  END
$$$$
