CQK.pdb
     RDKit          3D

 25 24  0  0  1  0  0  0  0  0999 V2000
    5.0064  -13.2968   26.5445 N   0  0  0  0  0  0  0  0  0  0  0  0
    6.1322  -12.7730   25.8103 C   0  0  1  0  0  0  0  0  0  0  0  0
    7.1720  -12.2908   26.7859 C   0  0  0  0  0  0  0  0  0  0  0  0
    6.8330  -10.5659   27.1880 S   0  0  0  0  0  0  0  0  0  0  0  0
    6.7018  -13.7623   24.8454 C   0  0  0  0  0  0  0  0  0  0  0  0
    6.7503  -14.9740   25.1607 O   0  0  0  0  0  0  0  0  0  0  0  0
    8.1976  -12.7401   18.5634 N   0  0  0  0  0  0  0  0  0  0  0  0
    8.4039  -14.1011   18.8778 C   0  0  0  0  0  0  0  0  0  0  0  0
    8.5849  -14.9143   17.9418 O   0  0  0  0  0  0  0  0  0  0  0  0
    8.4169  -14.6172   20.2676 C   0  0  0  0  0  0  0  0  0  0  0  0
    7.8710  -13.5824   21.2312 C   0  0  0  0  0  0  0  0  0  0  0  0
    7.8132  -14.1862   22.5864 C   0  0  2  0  0  0  0  0  0  0  0  0
    7.1933  -13.3739   23.5754 N   0  0  0  0  0  0  0  0  0  0  0  0
    9.0829  -14.8535   23.0268 C   0  0  0  0  0  0  0  0  0  0  0  0
   10.0370  -14.2254   23.5531 O   0  0  0  0  0  0  0  0  0  0  0  0
    9.2544  -16.2658   22.8589 N   0  0  0  0  0  0  0  0  0  0  0  0
   10.4344  -16.9411   23.4148 C   0  0  1  0  0  0  0  0  0  0  0  0
   10.0173  -18.2980   23.9383 C   0  0  0  0  0  0  0  0  0  0  0  0
   11.1866  -19.0732   24.4976 C   0  0  0  0  0  0  0  0  0  0  0  0
   10.6324  -20.3921   24.9954 C   0  0  0  0  0  0  0  0  0  0  0  0
   11.6713  -21.2109   25.7206 C   0  0  0  0  0  0  0  0  0  0  0  0
   11.0445  -22.4711   26.0817 N   0  0  0  0  0  0  0  0  0  0  0  0
   11.4985  -17.0555   22.3876 C   0  0  0  0  0  0  0  0  0  0  0  0
   11.2343  -16.8879   21.0400 O   0  0  0  0  0  0  0  0  0  0  0  0
   12.6781  -17.3108   22.7304 O   0  0  0  0  0  0  0  0  0  0  0  0
  2  1  1  1
  2  5  1  0
  3  2  1  0
  4  3  1  0
  5  6  2  0
  7  8  1  0
  8  9  2  0
  8 10  1  0
 10 11  1  0
 12 11  1  6
 13  5  1  0
 13 12  1  0
 14 12  1  0
 14 15  2  0
 16 14  1  0
 17 16  1  0
 17 23  1  0
 17 18  1  6
 19 18  1  0
 20 19  1  0
 21 20  1  0
 21 22  1  0
 23 24  1  0
 25 23  2  0
M  END
$$$$
