CQK.pdb
     RDKit          3D

 25 24  0  0  1  0  0  0  0  0999 V2000
    3.5572  -19.8786   20.6067 N   0  0  0  0  0  0  0  0  0  0  0  0
    3.7746  -18.6654   21.3561 C   0  0  1  0  0  0  0  0  0  0  0  0
    3.3709  -18.8948   22.7879 C   0  0  0  0  0  0  0  0  0  0  0  0
    1.5744  -19.0292   22.8685 S   0  0  0  0  0  0  0  0  0  0  0  0
    5.1811  -18.1696   21.2552 C   0  0  0  0  0  0  0  0  0  0  0  0
    6.1263  -18.9922   21.2494 O   0  0  0  0  0  0  0  0  0  0  0  0
    7.2129  -12.4833   18.9946 N   0  0  0  0  0  0  0  0  0  0  0  0
    8.3431  -13.1934   19.4553 C   0  0  0  0  0  0  0  0  0  0  0  0
    9.4836  -12.7460   19.1920 O   0  0  0  0  0  0  0  0  0  0  0  0
    8.2456  -14.4481   20.2390 C   0  0  0  0  0  0  0  0  0  0  0  0
    6.7984  -14.8649   20.4102 C   0  0  0  0  0  0  0  0  0  0  0  0
    6.7658  -16.1731   21.1118 C   0  0  2  0  0  0  0  0  0  0  0  0
    5.4854  -16.7896   21.1650 N   0  0  0  0  0  0  0  0  0  0  0  0
    7.5347  -16.2097   22.3997 C   0  0  0  0  0  0  0  0  0  0  0  0
    7.1244  -15.6630   23.4555 O   0  0  0  0  0  0  0  0  0  0  0  0
    8.7948  -16.8875   22.4715 N   0  0  0  0  0  0  0  0  0  0  0  0
    9.5437  -16.9294   23.7343 C   0  0  1  0  0  0  0  0  0  0  0  0
   10.0423  -18.3403   23.9581 C   0  0  0  0  0  0  0  0  0  0  0  0
   10.8157  -18.4696   25.2489 C   0  0  0  0  0  0  0  0  0  0  0  0
   11.1928  -19.9306   25.3822 C   0  0  0  0  0  0  0  0  0  0  0  0
   11.9794  -20.2049   26.6400 C   0  0  0  0  0  0  0  0  0  0  0  0
   12.1647  -21.6438   26.7210 N   0  0  0  0  0  0  0  0  0  0  0  0
   10.6604  -15.9532   23.7078 C   0  0  0  0  0  0  0  0  0  0  0  0
   11.1758  -15.4010   24.8669 O   0  0  0  0  0  0  0  0  0  0  0  0
   11.1656  -15.6056   22.6132 O   0  0  0  0  0  0  0  0  0  0  0  0
  2  1  1  6
  2  5  1  0
  3  2  1  0
  4  3  1  0
  5  6  2  0
  7  8  1  0
  8  9  2  0
  8 10  1  0
 10 11  1  0
 12 11  1  1
 13  5  1  0
 13 12  1  0
 14 12  1  0
 14 15  2  0
 16 14  1  0
 17 16  1  0
 17 23  1  0
 17 18  1  6
 19 18  1  0
 20 19  1  0
 21 20  1  0
 21 22  1  0
 23 24  1  0
 25 23  2  0
M  END
$$$$
