CQK.pdb
     RDKit          3D

 25 24  0  0  1  0  0  0  0  0999 V2000
    7.8157  -14.4845   17.3090 N   0  0  0  0  0  0  0  0  0  0  0  0
    8.7103  -13.7986   18.2090 C   0  0  1  0  0  0  0  0  0  0  0  0
    7.9324  -13.3269   19.4082 C   0  0  0  0  0  0  0  0  0  0  0  0
    7.1151  -11.7738   18.9939 S   0  0  0  0  0  0  0  0  0  0  0  0
    9.8805  -14.6379   18.6095 C   0  0  0  0  0  0  0  0  0  0  0  0
    9.7753  -15.8865   18.6027 O   0  0  0  0  0  0  0  0  0  0  0  0
   16.9082  -13.7609   18.6985 N   0  0  0  0  0  0  0  0  0  0  0  0
   15.9275  -14.6571   18.2202 C   0  0  0  0  0  0  0  0  0  0  0  0
   16.0725  -15.1555   17.0797 O   0  0  0  0  0  0  0  0  0  0  0  0
   14.7292  -15.0388   19.0052 C   0  0  0  0  0  0  0  0  0  0  0  0
   13.5190  -14.2407   18.5628 C   0  0  0  0  0  0  0  0  0  0  0  0
   12.3336  -14.7305   19.3108 C   0  0  2  0  0  0  0  0  0  0  0  0
   11.1156  -14.0656   18.9999 N   0  0  0  0  0  0  0  0  0  0  0  0
   12.5697  -14.9570   20.7751 C   0  0  0  0  0  0  0  0  0  0  0  0
   12.9464  -14.0449   21.5549 O   0  0  0  0  0  0  0  0  0  0  0  0
   12.3675  -16.2540   21.3489 N   0  0  0  0  0  0  0  0  0  0  0  0
   12.6161  -16.4796   22.7788 C   0  0  1  0  0  0  0  0  0  0  0  0
   11.9512  -17.7749   23.1902 C   0  0  0  0  0  0  0  0  0  0  0  0
   12.4902  -18.9576   22.4210 C   0  0  0  0  0  0  0  0  0  0  0  0
   11.8109  -20.1874   22.9871 C   0  0  0  0  0  0  0  0  0  0  0  0
   12.2704  -21.4556   22.3117 C   0  0  0  0  0  0  0  0  0  0  0  0
   11.5584  -22.5551   22.9404 N   0  0  0  0  0  0  0  0  0  0  0  0
   14.0735  -16.5020   23.0547 C   0  0  0  0  0  0  0  0  0  0  0  0
   14.5756  -16.3942   24.3394 O   0  0  0  0  0  0  0  0  0  0  0  0
   14.8903  -16.6214   22.1099 O   0  0  0  0  0  0  0  0  0  0  0  0
  2  1  1  6
  2  5  1  0
  3  2  1  0
  4  3  1  0
  5  6  2  0
  7  8  1  0
  8  9  2  0
  8 10  1  0
 10 11  1  0
 12 11  1  1
 13  5  1  0
 13 12  1  0
 14 12  1  0
 14 15  2  0
 16 14  1  0
 17 16  1  0
 17 23  1  0
 17 18  1  6
 19 18  1  0
 20 19  1  0
 21 20  1  0
 21 22  1  0
 23 24  1  0
 25 23  2  0
M  END
$$$$
