CQK.pdb
     RDKit          3D

 25 24  0  0  1  0  0  0  0  0999 V2000
    9.7153  -19.4607   19.5493 N   0  0  0  0  0  0  0  0  0  0  0  0
   11.0399  -19.0155   19.1916 C   0  0  1  0  0  0  0  0  0  0  0  0
   11.1522  -18.9671   17.6914 C   0  0  0  0  0  0  0  0  0  0  0  0
    9.7996  -17.9670   17.0414 S   0  0  0  0  0  0  0  0  0  0  0  0
   11.3935  -17.7019   19.8110 C   0  0  0  0  0  0  0  0  0  0  0  0
   12.5404  -17.2275   19.6389 O   0  0  0  0  0  0  0  0  0  0  0  0
    7.5778  -12.9333   20.4492 N   0  0  0  0  0  0  0  0  0  0  0  0
    7.3315  -14.3223   20.3878 C   0  0  0  0  0  0  0  0  0  0  0  0
    6.1697  -14.7169   20.1334 O   0  0  0  0  0  0  0  0  0  0  0  0
    8.3852  -15.3411   20.6105 C   0  0  0  0  0  0  0  0  0  0  0  0
    9.6891  -14.6862   21.0209 C   0  0  0  0  0  0  0  0  0  0  0  0
   10.6838  -15.7529   21.2994 C   0  0  2  0  0  0  0  0  0  0  0  0
   10.4686  -16.9682   20.5930 N   0  0  0  0  0  0  0  0  0  0  0  0
   11.0279  -15.9218   22.7500 C   0  0  0  0  0  0  0  0  0  0  0  0
   11.2732  -14.9507   23.5109 O   0  0  0  0  0  0  0  0  0  0  0  0
   11.0890  -17.2294   23.3321 N   0  0  0  0  0  0  0  0  0  0  0  0
   11.4764  -17.3978   24.7388 C   0  0  1  0  0  0  0  0  0  0  0  0
   10.7769  -18.6194   25.2936 C   0  0  0  0  0  0  0  0  0  0  0  0
   11.1688  -18.8949   26.7259 C   0  0  0  0  0  0  0  0  0  0  0  0
   10.5878  -20.2482   27.0803 C   0  0  0  0  0  0  0  0  0  0  0  0
   10.7930  -20.5948   28.5341 C   0  0  0  0  0  0  0  0  0  0  0  0
   10.2560  -21.9301   28.7334 N   0  0  0  0  0  0  0  0  0  0  0  0
   12.9505  -17.5099   24.8611 C   0  0  0  0  0  0  0  0  0  0  0  0
   13.6298  -17.0372   25.9698 O   0  0  0  0  0  0  0  0  0  0  0  0
   13.6184  -18.0453   23.9438 O   0  0  0  0  0  0  0  0  0  0  0  0
  2  1  1  6
  2  5  1  0
  3  2  1  0
  4  3  1  0
  5  6  2  0
  7  8  1  0
  8  9  2  0
  8 10  1  0
 10 11  1  0
 12 11  1  1
 13  5  1  0
 13 12  1  0
 14 12  1  0
 14 15  2  0
 16 14  1  0
 17 16  1  0
 17 23  1  0
 17 18  1  6
 19 18  1  0
 20 19  1  0
 21 20  1  0
 21 22  1  0
 23 24  1  0
 25 23  2  0
M  END
$$$$
