DKY.pdb
     RDKit          3D

 30 30  0  0  1  0  0  0  0  0999 V2000
   27.0995  -21.1404  -17.2554 N   0  0  0  0  0  0  0  0  0  0  0  0
   27.3736  -19.8147  -16.7394 C   0  0  1  0  0  0  0  0  0  0  0  0
   27.8788  -18.8882  -17.8188 C   0  0  0  0  0  0  0  0  0  0  0  0
   29.1588  -19.3904  -18.3527 C   0  0  0  0  0  0  0  0  0  0  0  0
   29.4601  -20.5894  -18.1759 O   0  0  0  0  0  0  0  0  0  0  0  0
   26.1548  -19.3056  -16.0817 C   0  0  0  0  0  0  0  0  0  0  0  0
   26.1012  -18.1399  -15.5679 O   0  0  0  0  0  0  0  0  0  0  0  0
   30.0491  -18.5767  -19.0494 O   0  0  0  0  0  0  0  0  0  0  0  0
   24.9834  -20.0791  -15.9850 N   0  0  0  0  0  0  0  0  0  0  0  0
   23.7449  -19.6191  -15.3304 C   0  0  1  0  0  0  0  0  0  0  0  0
   22.6711  -19.9382  -16.3361 C   0  0  0  0  0  0  0  0  0  0  0  0
   21.2968  -19.5272  -16.0030 C   0  0  0  0  0  0  0  0  0  0  0  0
   20.2024  -19.8921  -16.9305 C   0  0  0  0  0  0  0  0  0  0  0  0
   18.8598  -19.4081  -16.4864 C   0  0  0  0  0  0  0  0  0  0  0  0
   17.8590  -19.6531  -17.4709 N   0  0  0  0  0  0  0  0  0  0  0  0
   23.6530  -20.4373  -14.0873 C   0  0  0  0  0  0  0  0  0  0  0  0
   23.8236  -21.7074  -14.0867 O   0  0  0  0  0  0  0  0  0  0  0  0
   29.7864  -20.7110  -11.6682 O   0  0  0  0  0  0  0  0  0  0  0  0
   28.4282  -20.5809  -11.4111 C   0  0  0  0  0  0  0  0  0  0  0  0
   27.5300  -21.5410  -11.8296 C   0  0  0  0  0  0  0  0  0  0  0  0
   26.1670  -21.4080  -11.5703 C   0  0  0  0  0  0  0  0  0  0  0  0
   25.6537  -20.3248  -10.8916 C   0  0  0  0  0  0  0  0  0  0  0  0
   24.2173  -20.1544  -10.6076 C   0  0  0  0  0  0  0  0  0  0  0  0
   23.2885  -20.7474  -11.6086 C   0  0  2  0  0  0  0  0  0  0  0  0
   23.3732  -19.8930  -12.8069 N   0  0  0  0  0  0  0  0  0  0  0  0
   21.9067  -20.7043  -11.0915 C   0  0  0  0  0  0  0  0  0  0  0  0
   21.0794  -19.8516  -11.5466 O   0  0  0  0  0  0  0  0  0  0  0  0
   26.5686  -19.3615  -10.4734 C   0  0  0  0  0  0  0  0  0  0  0  0
   27.9157  -19.4959  -10.7312 C   0  0  0  0  0  0  0  0  0  0  0  0
   21.4563  -21.5662  -10.1141 O   0  0  0  0  0  0  0  0  0  0  0  0
  2  3  1  0
  2  1  1  6
  3  4  1  0
  4  5  2  0
  4  8  1  0
  6  2  1  0
  6  7  2  0
  9  6  1  0
 10 16  1  0
 10  9  1  0
 10 11  1  6
 12 11  1  0
 13 12  1  0
 14 13  1  0
 15 14  1  0
 16 25  1  0
 17 16  2  0
 18 19  1  0
 19 29  2  0
 20 19  1  0
 20 21  2  0
 21 22  1  0
 22 28  2  0
 22 23  1  0
 24 23  1  1
 24 25  1  0
 24 26  1  0
 26 27  2  0
 26 30  1  0
 29 28  1  0
M  END
$$$$
