DKY.pdb
     RDKit          3D

 30 30  0  0  1  0  0  0  0  0999 V2000
   29.1302  -23.9647  -17.2386 N   0  0  0  0  0  0  0  0  0  0  0  0
   29.3139  -22.5508  -17.4958 C   0  0  1  0  0  0  0  0  0  0  0  0
   29.5305  -22.2732  -18.9637 C   0  0  0  0  0  0  0  0  0  0  0  0
   30.8261  -22.8314  -19.3942 C   0  0  0  0  0  0  0  0  0  0  0  0
   31.4179  -23.6363  -18.6449 O   0  0  0  0  0  0  0  0  0  0  0  0
   28.1561  -21.8194  -16.9466 C   0  0  0  0  0  0  0  0  0  0  0  0
   28.1641  -20.5526  -16.8017 O   0  0  0  0  0  0  0  0  0  0  0  0
   31.4186  -22.4949  -20.6090 O   0  0  0  0  0  0  0  0  0  0  0  0
   26.9781  -22.4800  -16.5519 N   0  0  0  0  0  0  0  0  0  0  0  0
   25.7896  -21.7927  -16.0141 C   0  0  1  0  0  0  0  0  0  0  0  0
   24.6375  -22.5876  -16.5686 C   0  0  0  0  0  0  0  0  0  0  0  0
   24.0621  -22.1328  -17.8455 C   0  0  0  0  0  0  0  0  0  0  0  0
   22.9335  -22.8943  -18.4265 C   0  0  0  0  0  0  0  0  0  0  0  0
   22.4379  -22.3304  -19.7189 C   0  0  0  0  0  0  0  0  0  0  0  0
   21.4132  -23.1403  -20.2890 N   0  0  0  0  0  0  0  0  0  0  0  0
   25.9293  -21.9074  -14.5341 C   0  0  0  0  0  0  0  0  0  0  0  0
   26.5595  -22.8738  -13.9763 O   0  0  0  0  0  0  0  0  0  0  0  0
   27.8231  -20.2248   -6.1693 O   0  0  0  0  0  0  0  0  0  0  0  0
   27.5503  -20.2528   -7.5303 C   0  0  0  0  0  0  0  0  0  0  0  0
   28.1565  -21.1749   -8.3584 C   0  0  0  0  0  0  0  0  0  0  0  0
   27.8809  -21.2008   -9.7244 C   0  0  0  0  0  0  0  0  0  0  0  0
   27.0005  -20.3180  -10.3100 C   0  0  0  0  0  0  0  0  0  0  0  0
   26.6935  -20.3179  -11.7518 C   0  0  0  0  0  0  0  0  0  0  0  0
   25.5257  -21.1455  -12.1613 C   0  0  2  0  0  0  0  0  0  0  0  0
   25.3859  -20.9693  -13.6183 N   0  0  0  0  0  0  0  0  0  0  0  0
   24.3043  -20.6423  -11.5029 C   0  0  0  0  0  0  0  0  0  0  0  0
   24.0903  -20.8922  -10.2740 O   0  0  0  0  0  0  0  0  0  0  0  0
   26.3938  -19.3914   -9.4656 C   0  0  0  0  0  0  0  0  0  0  0  0
   26.6683  -19.3684   -8.1152 C   0  0  0  0  0  0  0  0  0  0  0  0
   23.3590  -19.8939  -12.1721 O   0  0  0  0  0  0  0  0  0  0  0  0
  2  3  1  0
  2  1  1  6
  3  4  1  0
  4  5  2  0
  4  8  1  0
  6  2  1  0
  6  7  2  0
  9  6  1  0
 10 16  1  0
 10  9  1  0
 10 11  1  6
 12 11  1  0
 13 12  1  0
 14 13  1  0
 15 14  1  0
 16 25  1  0
 17 16  2  0
 18 19  1  0
 19 29  2  0
 20 19  1  0
 20 21  2  0
 21 22  1  0
 22 28  2  0
 22 23  1  0
 24 23  1  1
 24 25  1  0
 24 26  1  0
 26 27  2  0
 26 30  1  0
 29 28  1  0
M  END
$$$$
