DKY.pdb
     RDKit          3D

 30 30  0  0  1  0  0  0  0  0999 V2000
   21.6084  -16.2517  -17.0813 N   0  0  0  0  0  0  0  0  0  0  0  0
   21.5149  -17.6715  -16.8087 C   0  0  1  0  0  0  0  0  0  0  0  0
   20.2684  -18.2750  -17.4094 C   0  0  0  0  0  0  0  0  0  0  0  0
   19.0719  -17.6915  -16.7742 C   0  0  0  0  0  0  0  0  0  0  0  0
   18.9018  -16.4552  -16.8236 O   0  0  0  0  0  0  0  0  0  0  0  0
   22.7477  -18.3241  -17.2896 C   0  0  0  0  0  0  0  0  0  0  0  0
   22.9067  -19.5882  -17.2391 O   0  0  0  0  0  0  0  0  0  0  0  0
   18.1196  -18.4680  -16.1184 O   0  0  0  0  0  0  0  0  0  0  0  0
   23.8170  -17.5870  -17.8309 N   0  0  0  0  0  0  0  0  0  0  0  0
   25.1095  -18.1784  -18.2232 C   0  0  1  0  0  0  0  0  0  0  0  0
   25.7647  -17.0943  -19.0367 C   0  0  0  0  0  0  0  0  0  0  0  0
   26.1137  -17.4195  -20.4299 C   0  0  0  0  0  0  0  0  0  0  0  0
   26.5691  -18.7921  -20.7456 C   0  0  0  0  0  0  0  0  0  0  0  0
   26.9717  -18.9718  -22.1738 C   0  0  0  0  0  0  0  0  0  0  0  0
   27.2752  -20.3326  -22.4687 N   0  0  0  0  0  0  0  0  0  0  0  0
   25.8035  -18.4503  -16.9319 C   0  0  0  0  0  0  0  0  0  0  0  0
   26.2636  -17.5131  -16.1887 O   0  0  0  0  0  0  0  0  0  0  0  0
   25.9236  -20.5807   -8.5958 O   0  0  0  0  0  0  0  0  0  0  0  0
   25.8141  -20.2832   -9.9475 C   0  0  0  0  0  0  0  0  0  0  0  0
   26.6771  -19.3924  -10.5519 C   0  0  0  0  0  0  0  0  0  0  0  0
   26.5651  -19.0955  -11.9090 C   0  0  0  0  0  0  0  0  0  0  0  0
   25.5989  -19.6688  -12.7060 C   0  0  0  0  0  0  0  0  0  0  0  0
   25.4527  -19.3702  -14.1421 C   0  0  0  0  0  0  0  0  0  0  0  0
   26.4871  -19.9656  -15.0320 C   0  0  2  0  0  0  0  0  0  0  0  0
   26.0150  -19.7539  -16.4125 N   0  0  0  0  0  0  0  0  0  0  0  0
   26.5835  -21.4168  -14.7807 C   0  0  0  0  0  0  0  0  0  0  0  0
   27.5107  -21.8782  -14.0418 O   0  0  0  0  0  0  0  0  0  0  0  0
   24.7328  -20.5665  -12.0865 C   0  0  0  0  0  0  0  0  0  0  0  0
   24.8463  -20.8582  -10.7444 C   0  0  0  0  0  0  0  0  0  0  0  0
   25.6938  -22.3211  -15.3211 O   0  0  0  0  0  0  0  0  0  0  0  0
  2  3  1  0
  2  1  1  6
  3  4  1  0
  4  5  2  0
  4  8  1  0
  6  2  1  0
  6  7  2  0
  9  6  1  0
 10 16  1  0
 10  9  1  0
 10 11  1  6
 12 11  1  0
 13 12  1  0
 14 13  1  0
 15 14  1  0
 16 25  1  0
 17 16  2  0
 18 19  1  0
 19 29  2  0
 20 19  1  0
 20 21  2  0
 21 22  1  0
 22 28  2  0
 22 23  1  0
 24 23  1  1
 24 25  1  0
 24 26  1  0
 26 27  2  0
 26 30  1  0
 29 28  1  0
M  END
$$$$
