DKY.pdb
     RDKit          3D

 30 30  0  0  1  0  0  0  0  0999 V2000
   22.2855  -13.6568  -19.3040 N   0  0  0  0  0  0  0  0  0  0  0  0
   21.7086  -13.3996  -18.0002 C   0  0  1  0  0  0  0  0  0  0  0  0
   22.6239  -13.8464  -16.8860 C   0  0  0  0  0  0  0  0  0  0  0  0
   22.6587  -15.3198  -16.8255 C   0  0  0  0  0  0  0  0  0  0  0  0
   21.9829  -15.9758  -17.6455 O   0  0  0  0  0  0  0  0  0  0  0  0
   21.3677  -11.9667  -17.9119 C   0  0  0  0  0  0  0  0  0  0  0  0
   21.7989  -11.1163  -18.7585 O   0  0  0  0  0  0  0  0  0  0  0  0
   23.4189  -16.0117  -15.8857 O   0  0  0  0  0  0  0  0  0  0  0  0
   20.5474  -11.4590  -16.8876 N   0  0  0  0  0  0  0  0  0  0  0  0
   20.0571  -10.0693  -16.8382 C   0  0  1  0  0  0  0  0  0  0  0  0
   18.6388  -10.2094  -16.3530 C   0  0  0  0  0  0  0  0  0  0  0  0
   17.5771   -9.6729  -17.2210 C   0  0  0  0  0  0  0  0  0  0  0  0
   16.1670   -9.8377  -16.8021 C   0  0  0  0  0  0  0  0  0  0  0  0
   15.1856   -9.2891  -17.7869 C   0  0  0  0  0  0  0  0  0  0  0  0
   13.8464   -9.3944  -17.3110 N   0  0  0  0  0  0  0  0  0  0  0  0
   20.9532   -9.3914  -15.8582 C   0  0  0  0  0  0  0  0  0  0  0  0
   21.1381   -9.8397  -14.6719 O   0  0  0  0  0  0  0  0  0  0  0  0
   26.6412  -12.1262  -17.3902 O   0  0  0  0  0  0  0  0  0  0  0  0
   25.9712  -10.9716  -17.0087 C   0  0  0  0  0  0  0  0  0  0  0  0
   25.9454  -10.5670  -15.6899 C   0  0  0  0  0  0  0  0  0  0  0  0
   25.2721   -9.4075  -15.3096 C   0  0  0  0  0  0  0  0  0  0  0  0
   24.6060   -8.6164  -16.2195 C   0  0  0  0  0  0  0  0  0  0  0  0
   23.8811   -7.3884  -15.8463 C   0  0  0  0  0  0  0  0  0  0  0  0
   22.5802   -7.5947  -15.1524 C   0  0  2  0  0  0  0  0  0  0  0  0
   21.6756   -8.2039  -16.1444 N   0  0  0  0  0  0  0  0  0  0  0  0
   22.0241   -6.2910  -14.7405 C   0  0  0  0  0  0  0  0  0  0  0  0
   21.0399   -5.7874  -15.3700 O   0  0  0  0  0  0  0  0  0  0  0  0
   24.6381   -9.0334  -17.5480 C   0  0  0  0  0  0  0  0  0  0  0  0
   25.3050  -10.1803  -17.9210 C   0  0  0  0  0  0  0  0  0  0  0  0
   22.5319   -5.5735  -13.6782 O   0  0  0  0  0  0  0  0  0  0  0  0
  2  3  1  0
  2  1  1  6
  3  4  1  0
  4  5  2  0
  4  8  1  0
  6  2  1  0
  6  7  2  0
  9  6  1  0
 10 16  1  0
 10  9  1  0
 10 11  1  1
 12 11  1  0
 13 12  1  0
 14 13  1  0
 15 14  1  0
 16 25  1  0
 17 16  2  0
 18 19  1  0
 19 29  2  0
 20 19  1  0
 20 21  2  0
 21 22  1  0
 22 28  2  0
 22 23  1  0
 24 23  1  6
 24 25  1  0
 24 26  1  0
 26 27  2  0
 26 30  1  0
 29 28  1  0
M  END
$$$$
