DKY.pdb
     RDKit          3D

 30 30  0  0  1  0  0  0  0  0999 V2000
   16.7590  -10.1598  -16.0874 N   0  0  0  0  0  0  0  0  0  0  0  0
   17.1824  -10.2413  -14.7043 C   0  0  1  0  0  0  0  0  0  0  0  0
   18.6743  -10.0574  -14.5648 C   0  0  0  0  0  0  0  0  0  0  0  0
   19.3804  -11.1915  -15.1899 C   0  0  0  0  0  0  0  0  0  0  0  0
   19.2040  -12.3406  -14.7337 O   0  0  0  0  0  0  0  0  0  0  0  0
   16.4151   -9.2553  -13.9194 C   0  0  0  0  0  0  0  0  0  0  0  0
   16.2252   -8.0638  -14.3319 O   0  0  0  0  0  0  0  0  0  0  0  0
   20.2400  -11.0311  -16.2740 O   0  0  0  0  0  0  0  0  0  0  0  0
   15.8501   -9.5755  -12.6712 N   0  0  0  0  0  0  0  0  0  0  0  0
   15.0428   -8.6387  -11.8682 C   0  0  1  0  0  0  0  0  0  0  0  0
   14.0161   -9.5241  -11.2139 C   0  0  0  0  0  0  0  0  0  0  0  0
   13.1085   -8.8930  -10.2411 C   0  0  0  0  0  0  0  0  0  0  0  0
   12.1432   -9.7470   -9.5132 C   0  0  0  0  0  0  0  0  0  0  0  0
   11.3935   -9.0199   -8.4440 C   0  0  0  0  0  0  0  0  0  0  0  0
   10.4302   -9.8587   -7.8121 N   0  0  0  0  0  0  0  0  0  0  0  0
   16.0111   -8.0429  -10.9035 C   0  0  0  0  0  0  0  0  0  0  0  0
   16.6765   -8.7539  -10.0705 O   0  0  0  0  0  0  0  0  0  0  0  0
   21.8580   -8.4897  -13.4463 O   0  0  0  0  0  0  0  0  0  0  0  0
   20.9729   -7.7261  -12.6972 C   0  0  0  0  0  0  0  0  0  0  0  0
   20.8356   -7.9248  -11.3388 C   0  0  0  0  0  0  0  0  0  0  0  0
   19.9463   -7.1569  -10.5891 C   0  0  0  0  0  0  0  0  0  0  0  0
   19.1686   -6.1731  -11.1590 C   0  0  0  0  0  0  0  0  0  0  0  0
   18.2160   -5.3493  -10.3930 C   0  0  0  0  0  0  0  0  0  0  0  0
   17.1073   -6.0926   -9.7338 C   0  0  2  0  0  0  0  0  0  0  0  0
   16.2829   -6.6525  -10.8202 N   0  0  0  0  0  0  0  0  0  0  0  0
   16.2815   -5.1575   -8.9451 C   0  0  0  0  0  0  0  0  0  0  0  0
   15.1366   -4.8004   -9.3695 O   0  0  0  0  0  0  0  0  0  0  0  0
   19.3147   -5.9805  -12.5306 C   0  0  0  0  0  0  0  0  0  0  0  0
   20.1951   -6.7412  -13.2692 C   0  0  0  0  0  0  0  0  0  0  0  0
   16.7009   -4.6388   -7.7383 O   0  0  0  0  0  0  0  0  0  0  0  0
  2  3  1  0
  2  1  1  6
  3  4  1  0
  4  5  2  0
  4  8  1  0
  6  2  1  0
  6  7  2  0
  9  6  1  0
 10 16  1  0
 10  9  1  0
 10 11  1  1
 12 11  1  0
 13 12  1  0
 14 13  1  0
 15 14  1  0
 16 25  1  0
 17 16  2  0
 18 19  1  0
 19 29  2  0
 20 19  1  0
 20 21  2  0
 21 22  1  0
 22 28  2  0
 22 23  1  0
 24 23  1  6
 24 25  1  0
 24 26  1  0
 26 27  2  0
 26 30  1  0
 29 28  1  0
M  END
$$$$
