DKY.pdb
     RDKit          3D

 30 30  0  0  1  0  0  0  0  0999 V2000
   21.6363  -13.0407  -20.4174 N   0  0  0  0  0  0  0  0  0  0  0  0
   22.6262  -13.0179  -19.3598 C   0  0  1  0  0  0  0  0  0  0  0  0
   23.6178  -14.1477  -19.4978 C   0  0  0  0  0  0  0  0  0  0  0  0
   22.9442  -15.4384  -19.2611 C   0  0  0  0  0  0  0  0  0  0  0  0
   23.4142  -16.4715  -19.7821 O   0  0  0  0  0  0  0  0  0  0  0  0
   23.2756  -11.6930  -19.3529 C   0  0  0  0  0  0  0  0  0  0  0  0
   24.1115  -11.3550  -18.4514 O   0  0  0  0  0  0  0  0  0  0  0  0
   21.7993  -15.5513  -18.4760 O   0  0  0  0  0  0  0  0  0  0  0  0
   23.0079  -10.7283  -20.3417 N   0  0  0  0  0  0  0  0  0  0  0  0
   23.7437   -9.4572  -20.4723 C   0  0  1  0  0  0  0  0  0  0  0  0
   23.4550   -9.0224  -21.8844 C   0  0  0  0  0  0  0  0  0  0  0  0
   24.2798   -9.6152  -22.9506 C   0  0  0  0  0  0  0  0  0  0  0  0
   24.0388   -9.1968  -24.3498 C   0  0  0  0  0  0  0  0  0  0  0  0
   24.9085   -9.9020  -25.3400 C   0  0  0  0  0  0  0  0  0  0  0  0
   25.1344  -11.2597  -24.9704 N   0  0  0  0  0  0  0  0  0  0  0  0
   23.1361   -8.5660  -19.4430 C   0  0  0  0  0  0  0  0  0  0  0  0
   21.8939   -8.6220  -19.1327 O   0  0  0  0  0  0  0  0  0  0  0  0
   22.5365   -2.8005  -12.6178 O   0  0  0  0  0  0  0  0  0  0  0  0
   22.9143   -3.7221  -13.5850 C   0  0  0  0  0  0  0  0  0  0  0  0
   22.5222   -5.0423  -13.5011 C   0  0  0  0  0  0  0  0  0  0  0  0
   22.9028   -5.9655  -14.4734 C   0  0  0  0  0  0  0  0  0  0  0  0
   23.6803   -5.6115  -15.5540 C   0  0  0  0  0  0  0  0  0  0  0  0
   24.1028   -6.5664  -16.5944 C   0  0  0  0  0  0  0  0  0  0  0  0
   23.2020   -6.6721  -17.7750 C   0  0  2  0  0  0  0  0  0  0  0  0
   23.8668   -7.5874  -18.7204 N   0  0  0  0  0  0  0  0  0  0  0  0
   23.0623   -5.3490  -18.4140 C   0  0  0  0  0  0  0  0  0  0  0  0
   23.8925   -4.9769  -19.3032 O   0  0  0  0  0  0  0  0  0  0  0  0
   24.0707   -4.2767  -15.6294 C   0  0  0  0  0  0  0  0  0  0  0  0
   23.6926   -3.3661  -14.6665 C   0  0  0  0  0  0  0  0  0  0  0  0
   22.0486   -4.4736  -18.0864 O   0  0  0  0  0  0  0  0  0  0  0  0
  2  3  1  0
  2  1  1  6
  3  4  1  0
  4  5  2  0
  4  8  1  0
  6  2  1  0
  6  7  2  0
  9  6  1  0
 10 16  1  0
 10  9  1  0
 10 11  1  6
 12 11  1  0
 13 12  1  0
 14 13  1  0
 15 14  1  0
 16 25  1  0
 17 16  2  0
 18 19  1  0
 19 29  2  0
 20 19  1  0
 20 21  2  0
 21 22  1  0
 22 28  2  0
 22 23  1  0
 24 23  1  1
 24 25  1  0
 24 26  1  0
 26 27  2  0
 26 30  1  0
 29 28  1  0
M  END
$$$$
