DKY.pdb
     RDKit          3D

 30 30  0  0  1  0  0  0  0  0999 V2000
   17.9190  -11.8518  -17.2833 N   0  0  0  0  0  0  0  0  0  0  0  0
   18.9510  -11.9643  -16.2728 C   0  0  1  0  0  0  0  0  0  0  0  0
   19.7081  -13.2651  -16.3894 C   0  0  0  0  0  0  0  0  0  0  0  0
   18.8309  -14.3913  -16.0180 C   0  0  0  0  0  0  0  0  0  0  0  0
   17.6133  -14.1777  -15.8402 O   0  0  0  0  0  0  0  0  0  0  0  0
   19.8334  -10.7856  -16.3697 C   0  0  0  0  0  0  0  0  0  0  0  0
   20.8223  -10.6157  -15.5830 O   0  0  0  0  0  0  0  0  0  0  0  0
   19.3087  -15.6896  -15.8570 O   0  0  0  0  0  0  0  0  0  0  0  0
   19.6320   -9.7831  -17.3362 N   0  0  0  0  0  0  0  0  0  0  0  0
   20.5482   -8.6473  -17.5475 C   0  0  1  0  0  0  0  0  0  0  0  0
   20.1435   -8.1093  -18.8941 C   0  0  0  0  0  0  0  0  0  0  0  0
   20.8326   -8.6628  -20.0719 C   0  0  0  0  0  0  0  0  0  0  0  0
   20.5245   -8.0978  -21.4049 C   0  0  0  0  0  0  0  0  0  0  0  0
   21.3272   -8.7062  -22.5092 C   0  0  0  0  0  0  0  0  0  0  0  0
   21.0771   -8.0656  -23.7574 N   0  0  0  0  0  0  0  0  0  0  0  0
   20.2511   -7.7134  -16.4238 C   0  0  0  0  0  0  0  0  0  0  0  0
   19.1269   -7.7146  -15.8084 O   0  0  0  0  0  0  0  0  0  0  0  0
   19.8642   -5.0244   -8.3660 O   0  0  0  0  0  0  0  0  0  0  0  0
   20.1019   -5.5117   -9.6441 C   0  0  0  0  0  0  0  0  0  0  0  0
   19.0591   -5.8179  -10.4940 C   0  0  0  0  0  0  0  0  0  0  0  0
   19.3006   -6.3070  -11.7766 C   0  0  0  0  0  0  0  0  0  0  0  0
   20.5766   -6.5073  -12.2550 C   0  0  0  0  0  0  0  0  0  0  0  0
   20.8626   -7.0281  -13.6040 C   0  0  0  0  0  0  0  0  0  0  0  0
   20.9248   -6.0090  -14.6876 C   0  0  2  0  0  0  0  0  0  0  0  0
   21.1731   -6.7505  -15.9374 N   0  0  0  0  0  0  0  0  0  0  0  0
   22.0575   -5.0942  -14.4454 C   0  0  0  0  0  0  0  0  0  0  0  0
   22.0268   -4.2830  -13.4659 O   0  0  0  0  0  0  0  0  0  0  0  0
   21.6222   -6.1951  -11.3895 C   0  0  0  0  0  0  0  0  0  0  0  0
   21.3803   -5.7115  -10.1219 C   0  0  0  0  0  0  0  0  0  0  0  0
   23.1774   -5.0758  -15.2496 O   0  0  0  0  0  0  0  0  0  0  0  0
  2  3  1  0
  2  1  1  6
  3  4  1  0
  4  5  2  0
  4  8  1  0
  6  2  1  0
  6  7  2  0
  9  6  1  0
 10 16  1  0
 10  9  1  0
 10 11  1  6
 12 11  1  0
 13 12  1  0
 14 13  1  0
 15 14  1  0
 16 25  1  0
 17 16  2  0
 18 19  1  0
 19 29  2  0
 20 19  1  0
 20 21  2  0
 21 22  1  0
 22 28  2  0
 22 23  1  0
 24 23  1  1
 24 25  1  0
 24 26  1  0
 26 27  2  0
 26 30  1  0
 29 28  1  0
M  END
$$$$
