DKY.pdb
     RDKit          3D

 30 30  0  0  1  0  0  0  0  0999 V2000
   26.3492  -17.7036  -17.6941 N   0  0  0  0  0  0  0  0  0  0  0  0
   25.9829  -18.9958  -18.2371 C   0  0  1  0  0  0  0  0  0  0  0  0
   26.7677  -19.3206  -19.4851 C   0  0  0  0  0  0  0  0  0  0  0  0
   26.4985  -18.3093  -20.5245 C   0  0  0  0  0  0  0  0  0  0  0  0
   25.3972  -17.7204  -20.5259 O   0  0  0  0  0  0  0  0  0  0  0  0
   26.1517  -20.0134  -17.1820 C   0  0  0  0  0  0  0  0  0  0  0  0
   25.9193  -21.2494  -17.3921 O   0  0  0  0  0  0  0  0  0  0  0  0
   27.4281  -17.9834  -21.5092 O   0  0  0  0  0  0  0  0  0  0  0  0
   26.5786  -19.6758  -15.8845 N   0  0  0  0  0  0  0  0  0  0  0  0
   26.7926  -20.6587  -14.8064 C   0  0  1  0  0  0  0  0  0  0  0  0
   28.0035  -20.1341  -14.0817 C   0  0  0  0  0  0  0  0  0  0  0  0
   28.5307  -20.9526  -12.9770 C   0  0  0  0  0  0  0  0  0  0  0  0
   29.7056  -20.4575  -12.2249 C   0  0  0  0  0  0  0  0  0  0  0  0
   30.1631  -21.3929  -11.1526 C   0  0  0  0  0  0  0  0  0  0  0  0
   31.3780  -20.9523  -10.5519 N   0  0  0  0  0  0  0  0  0  0  0  0
   25.5445  -20.5990  -13.9929 C   0  0  0  0  0  0  0  0  0  0  0  0
   24.8542  -19.5260  -13.8715 O   0  0  0  0  0  0  0  0  0  0  0  0
   27.4018  -20.7276   -7.0519 O   0  0  0  0  0  0  0  0  0  0  0  0
   26.5805  -20.6365   -8.1677 C   0  0  0  0  0  0  0  0  0  0  0  0
   26.3646  -21.7284   -8.9830 C   0  0  0  0  0  0  0  0  0  0  0  0
   25.5397  -21.6344  -10.1024 C   0  0  0  0  0  0  0  0  0  0  0  0
   24.9060  -20.4611  -10.4477 C   0  0  0  0  0  0  0  0  0  0  0  0
   24.0327  -20.3301  -11.6280 C   0  0  0  0  0  0  0  0  0  0  0  0
   23.8286  -21.5747  -12.4190 C   0  0  2  0  0  0  0  0  0  0  0  0
   25.0117  -21.7096  -13.2882 N   0  0  0  0  0  0  0  0  0  0  0  0
   22.6296  -21.4333  -13.2680 C   0  0  0  0  0  0  0  0  0  0  0  0
   22.7461  -21.3566  -14.5325 O   0  0  0  0  0  0  0  0  0  0  0  0
   25.1303  -19.3648   -9.6184 C   0  0  0  0  0  0  0  0  0  0  0  0
   25.9464  -19.4611   -8.5121 C   0  0  0  0  0  0  0  0  0  0  0  0
   21.3553  -21.3798  -12.7440 O   0  0  0  0  0  0  0  0  0  0  0  0
  2  3  1  0
  2  1  1  1
  3  4  1  0
  4  5  2  0
  4  8  1  0
  6  2  1  0
  6  7  2  0
  9  6  1  0
 10 16  1  0
 10  9  1  0
 10 11  1  1
 12 11  1  0
 13 12  1  0
 14 13  1  0
 15 14  1  0
 16 25  1  0
 17 16  2  0
 18 19  1  0
 19 29  2  0
 20 19  1  0
 20 21  2  0
 21 22  1  0
 22 28  2  0
 22 23  1  0
 24 23  1  1
 24 25  1  0
 24 26  1  0
 26 27  2  0
 26 30  1  0
 29 28  1  0
M  END
$$$$
