SQN.pdb
     RDKit          3D

 24 23  0  0  1  0  0  0  0  0999 V2000
   13.7686   -7.1036  -14.3999 O   0  0  0  0  0  0  0  0  0  0  0  0
   13.7827   -7.8081  -15.5786 C   0  0  0  0  0  0  0  0  0  0  0  0
   14.1491   -9.2661  -15.3755 C   0  0  2  0  0  0  0  0  0  0  0  0
   13.1154   -9.9084  -14.6302 N   0  0  0  0  0  0  0  0  0  0  0  0
   15.4732   -9.4246  -14.7397 C   0  0  0  0  0  0  0  0  0  0  0  0
   15.6234   -9.4607  -13.4900 O   0  0  0  0  0  0  0  0  0  0  0  0
   19.8026  -12.7697  -17.4256 N   0  0  0  0  0  0  0  0  0  0  0  0
   18.9808  -13.1424  -16.3129 C   0  0  0  0  0  0  0  0  0  0  0  0
   18.8362  -14.3605  -16.1005 O   0  0  0  0  0  0  0  0  0  0  0  0
   18.3259  -12.1564  -15.4438 C   0  0  0  0  0  0  0  0  0  0  0  0
   18.6459  -10.7631  -15.9206 C   0  0  0  0  0  0  0  0  0  0  0  0
   17.9678   -9.7237  -15.0683 C   0  0  2  0  0  0  0  0  0  0  0  0
   16.6203   -9.5397  -15.5620 N   0  0  0  0  0  0  0  0  0  0  0  0
   18.7656   -8.4755  -15.1733 C   0  0  0  0  0  0  0  0  0  0  0  0
   18.4279   -7.6559  -16.0588 O   0  0  0  0  0  0  0  0  0  0  0  0
   22.3642   -4.6942  -14.6699 N   0  0  0  0  0  0  0  0  0  0  0  0
   22.1130   -5.3602  -13.4372 C   0  0  0  0  0  0  0  0  0  0  0  0
   22.7006   -4.8567  -12.4137 O   0  0  0  0  0  0  0  0  0  0  0  0
   21.2535   -6.5420  -13.2657 C   0  0  0  0  0  0  0  0  0  0  0  0
   20.6254   -6.9378  -14.5673 C   0  0  2  0  0  0  0  0  0  0  0  0
   19.8652   -8.1862  -14.3299 N   0  0  0  0  0  0  0  0  0  0  0  0
   21.7169   -7.2501  -15.5495 C   0  0  0  0  0  0  0  0  0  0  0  0
   22.1662   -8.4444  -15.6455 O   0  0  0  0  0  0  0  0  0  0  0  0
   22.2961   -6.3308  -16.3849 O   0  0  0  0  0  0  0  0  0  0  0  0
  2  1  1  0
  2  3  1  0
  3  4  1  1
  5  3  1  0
  5  6  2  0
  7  8  1  0
  8 10  1  0
  9  8  2  0
 10 11  1  0
 12 11  1  6
 12 13  1  0
 13  5  1  0
 14 12  1  0
 15 14  2  0
 16 17  1  0
 17 19  1  0
 18 17  2  0
 20 19  1  1
 20 21  1  0
 20 22  1  0
 21 14  1  0
 22 24  1  0
 23 22  2  0
M  END
$$$$
