SQN.pdb
     RDKit          3D

 24 23  0  0  1  0  0  0  0  0999 V2000
   22.4443  -12.3960  -14.5774 O   0  0  0  0  0  0  0  0  0  0  0  0
   22.3875  -12.8872  -15.8586 C   0  0  0  0  0  0  0  0  0  0  0  0
   23.7033  -12.7287  -16.5966 C   0  0  2  0  0  0  0  0  0  0  0  0
   24.7226  -13.4370  -15.8924 N   0  0  0  0  0  0  0  0  0  0  0  0
   24.0567  -11.3097  -16.8070 C   0  0  0  0  0  0  0  0  0  0  0  0
   24.9791  -10.7404  -16.1664 O   0  0  0  0  0  0  0  0  0  0  0  0
   23.0941   -8.6127  -22.3108 N   0  0  0  0  0  0  0  0  0  0  0  0
   23.6416   -7.5507  -21.5205 C   0  0  0  0  0  0  0  0  0  0  0  0
   23.9812   -6.5155  -22.1231 O   0  0  0  0  0  0  0  0  0  0  0  0
   23.8072   -7.6480  -20.0647 C   0  0  0  0  0  0  0  0  0  0  0  0
   23.3776   -9.0129  -19.5921 C   0  0  0  0  0  0  0  0  0  0  0  0
   23.6247   -9.1841  -18.1169 C   0  0  2  0  0  0  0  0  0  0  0  0
   23.3333  -10.5565  -17.7635 N   0  0  0  0  0  0  0  0  0  0  0  0
   22.7329   -8.2334  -17.4051 C   0  0  0  0  0  0  0  0  0  0  0  0
   21.5006   -8.4506  -17.4693 O   0  0  0  0  0  0  0  0  0  0  0  0
   20.7123   -4.3595  -14.4978 N   0  0  0  0  0  0  0  0  0  0  0  0
   22.0534   -4.6644  -14.1311 C   0  0  0  0  0  0  0  0  0  0  0  0
   22.4659   -4.1060  -13.0519 O   0  0  0  0  0  0  0  0  0  0  0  0
   22.9628   -5.5470  -14.8788 C   0  0  0  0  0  0  0  0  0  0  0  0
   22.2319   -6.2593  -15.9759 C   0  0  2  0  0  0  0  0  0  0  0  0
   23.2135   -7.1196  -16.6752 N   0  0  0  0  0  0  0  0  0  0  0  0
   21.7374   -5.2402  -16.9611 C   0  0  0  0  0  0  0  0  0  0  0  0
   22.5675   -4.6364  -17.7253 O   0  0  0  0  0  0  0  0  0  0  0  0
   20.4226   -4.8871  -17.1191 O   0  0  0  0  0  0  0  0  0  0  0  0
  2  1  1  0
  2  3  1  0
  3  4  1  1
  5  3  1  0
  5  6  2  0
  7  8  1  0
  8 10  1  0
  9  8  2  0
 10 11  1  0
 12 11  1  6
 12 13  1  0
 13  5  1  0
 14 12  1  0
 15 14  2  0
 16 17  1  0
 17 19  1  0
 18 17  2  0
 20 19  1  1
 20 21  1  0
 20 22  1  0
 21 14  1  0
 22 24  1  0
 23 22  2  0
M  END
$$$$
