SQN.pdb
     RDKit          3D

 24 23  0  0  1  0  0  0  0  0999 V2000
   17.0208  -12.6702  -16.0485 O   0  0  0  0  0  0  0  0  0  0  0  0
   17.9348  -11.6454  -16.0353 C   0  0  0  0  0  0  0  0  0  0  0  0
   18.9394  -11.7531  -17.1668 C   0  0  2  0  0  0  0  0  0  0  0  0
   19.6616  -12.9770  -17.0357 N   0  0  0  0  0  0  0  0  0  0  0  0
   19.8376  -10.5818  -17.2280 C   0  0  0  0  0  0  0  0  0  0  0  0
   20.8847  -10.4954  -16.5340 O   0  0  0  0  0  0  0  0  0  0  0  0
   19.6477   -6.8002  -22.0840 N   0  0  0  0  0  0  0  0  0  0  0  0
   20.5169   -6.0681  -21.2118 C   0  0  0  0  0  0  0  0  0  0  0  0
   21.1728   -5.1387  -21.7177 O   0  0  0  0  0  0  0  0  0  0  0  0
   20.6499   -6.3754  -19.7820 C   0  0  0  0  0  0  0  0  0  0  0  0
   19.7563   -7.5347  -19.4237 C   0  0  0  0  0  0  0  0  0  0  0  0
   20.3181   -8.3228  -18.2705 C   0  0  2  0  0  0  0  0  0  0  0  0
   19.5128   -9.5123  -18.0976 N   0  0  0  0  0  0  0  0  0  0  0  0
   20.2694   -7.4485  -17.0709 C   0  0  0  0  0  0  0  0  0  0  0  0
   19.1356   -7.1368  -16.6383 O   0  0  0  0  0  0  0  0  0  0  0  0
   22.0709   -9.1735  -13.6913 N   0  0  0  0  0  0  0  0  0  0  0  0
   21.5716   -7.8493  -13.5396 C   0  0  0  0  0  0  0  0  0  0  0  0
   20.5287   -7.7393  -12.8001 O   0  0  0  0  0  0  0  0  0  0  0  0
   22.1526   -6.6432  -14.1499 C   0  0  0  0  0  0  0  0  0  0  0  0
   21.2573   -6.1051  -15.2243 C   0  0  2  0  0  0  0  0  0  0  0  0
   21.4286   -6.9677  -16.4157 N   0  0  0  0  0  0  0  0  0  0  0  0
   21.7250   -4.7263  -15.5903 C   0  0  0  0  0  0  0  0  0  0  0  0
   21.7131   -3.7948  -14.7130 O   0  0  0  0  0  0  0  0  0  0  0  0
   22.1815   -4.3651  -16.8310 O   0  0  0  0  0  0  0  0  0  0  0  0
  2  1  1  0
  2  3  1  0
  3  4  1  1
  5  3  1  0
  5  6  2  0
  7  8  1  0
  8 10  1  0
  9  8  2  0
 10 11  1  0
 12 11  1  6
 12 13  1  0
 13  5  1  0
 14 12  1  0
 15 14  2  0
 16 17  1  0
 17 19  1  0
 18 17  2  0
 20 19  1  1
 20 21  1  0
 20 22  1  0
 21 14  1  0
 22 24  1  0
 23 22  2  0
M  END
$$$$
