SQN.pdb
     RDKit          3D

 24 23  0  0  1  0  0  0  0  0999 V2000
   15.0307   -9.9801  -15.4366 O   0  0  0  0  0  0  0  0  0  0  0  0
   15.1953  -11.3242  -15.6651 C   0  0  0  0  0  0  0  0  0  0  0  0
   16.5738  -11.6534  -16.2058 C   0  0  2  0  0  0  0  0  0  0  0  0
   16.6582  -13.0573  -16.4476 N   0  0  0  0  0  0  0  0  0  0  0  0
   17.6507  -11.1776  -15.3134 C   0  0  0  0  0  0  0  0  0  0  0  0
   17.8980  -11.7187  -14.2036 O   0  0  0  0  0  0  0  0  0  0  0  0
   22.6882   -8.3069  -17.5568 N   0  0  0  0  0  0  0  0  0  0  0  0
   22.8624   -9.4724  -16.7422 C   0  0  0  0  0  0  0  0  0  0  0  0
   23.9568  -10.0601  -16.8238 O   0  0  0  0  0  0  0  0  0  0  0  0
   21.8171   -9.9756  -15.8419 C   0  0  0  0  0  0  0  0  0  0  0  0
   20.6070   -9.0804  -15.9138 C   0  0  0  0  0  0  0  0  0  0  0  0
   19.5384   -9.5264  -14.9516 C   0  0  2  0  0  0  0  0  0  0  0  0
   18.4370  -10.0707  -15.7158 N   0  0  0  0  0  0  0  0  0  0  0  0
   19.1251   -8.3359  -14.1657 C   0  0  0  0  0  0  0  0  0  0  0  0
   18.4220   -7.4811  -14.7529 O   0  0  0  0  0  0  0  0  0  0  0  0
   18.1879   -4.7507  -10.4770 N   0  0  0  0  0  0  0  0  0  0  0  0
   18.5548   -6.0039   -9.9108 C   0  0  0  0  0  0  0  0  0  0  0  0
   18.5472   -6.0481   -8.6284 O   0  0  0  0  0  0  0  0  0  0  0  0
   18.9256   -7.2079  -10.6710 C   0  0  0  0  0  0  0  0  0  0  0  0
   19.0329   -6.9025  -12.1341 C   0  0  2  0  0  0  0  0  0  0  0  0
   19.4877   -8.1382  -12.8115 N   0  0  0  0  0  0  0  0  0  0  0  0
   20.0956   -5.8601  -12.3283 C   0  0  0  0  0  0  0  0  0  0  0  0
   21.3183   -6.2130  -12.4629 O   0  0  0  0  0  0  0  0  0  0  0  0
   19.8604   -4.5108  -12.3758 O   0  0  0  0  0  0  0  0  0  0  0  0
  2  1  1  0
  2  3  1  0
  3  4  1  1
  5  3  1  0
  5  6  2  0
  7  8  1  0
  8 10  1  0
  9  8  2  0
 10 11  1  0
 12 11  1  6
 12 13  1  0
 13  5  1  0
 14 12  1  0
 15 14  2  0
 16 17  1  0
 17 19  1  0
 18 17  2  0
 20 19  1  1
 20 21  1  0
 20 22  1  0
 21 14  1  0
 22 24  1  0
 23 22  2  0
M  END
$$$$
