SQN.pdb
     RDKit          3D

 24 23  0  0  1  0  0  0  0  0999 V2000
   13.8332  -12.5114  -10.5716 O   0  0  0  0  0  0  0  0  0  0  0  0
   13.9517  -11.2180  -11.0178 C   0  0  0  0  0  0  0  0  0  0  0  0
   15.3265  -10.6372  -10.7463 C   0  0  2  0  0  0  0  0  0  0  0  0
   15.7495  -11.0279   -9.4405 N   0  0  0  0  0  0  0  0  0  0  0  0
   15.3572   -9.1710  -10.9247 C   0  0  0  0  0  0  0  0  0  0  0  0
   15.0378   -8.6147  -12.0083 O   0  0  0  0  0  0  0  0  0  0  0  0
   13.5914   -5.3161   -6.6581 N   0  0  0  0  0  0  0  0  0  0  0  0
   14.4123   -4.4278   -7.4257 C   0  0  0  0  0  0  0  0  0  0  0  0
   14.3304   -3.2137   -7.1625 O   0  0  0  0  0  0  0  0  0  0  0  0
   15.3193   -4.8970   -8.4810 C   0  0  0  0  0  0  0  0  0  0  0  0
   15.3072   -6.4030   -8.5321 C   0  0  0  0  0  0  0  0  0  0  0  0
   15.7870   -6.9092   -9.8663 C   0  0  2  0  0  0  0  0  0  0  0  0
   15.7613   -8.3556   -9.8397 N   0  0  0  0  0  0  0  0  0  0  0  0
   17.1632   -6.3888  -10.0687 C   0  0  0  0  0  0  0  0  0  0  0  0
   17.9976   -6.6156   -9.1619 O   0  0  0  0  0  0  0  0  0  0  0  0
   22.1120   -6.2128  -11.5226 N   0  0  0  0  0  0  0  0  0  0  0  0
   20.9712   -6.7048  -12.2171 C   0  0  0  0  0  0  0  0  0  0  0  0
   21.1842   -7.0721  -13.4280 O   0  0  0  0  0  0  0  0  0  0  0  0
   19.6151   -6.8184  -11.6576 C   0  0  0  0  0  0  0  0  0  0  0  0
   19.0019   -5.4645  -11.4671 C   0  0  2  0  0  0  0  0  0  0  0  0
   17.5556   -5.6649  -11.2203 N   0  0  0  0  0  0  0  0  0  0  0  0
   19.1420   -4.6918  -12.7466 C   0  0  0  0  0  0  0  0  0  0  0  0
   18.2080   -4.7303  -13.6206 O   0  0  0  0  0  0  0  0  0  0  0  0
   20.2257   -3.9187  -13.0721 O   0  0  0  0  0  0  0  0  0  0  0  0
  2  1  1  0
  2  3  1  0
  3  4  1  1
  5  3  1  0
  5  6  2  0
  7  8  1  0
  8 10  1  0
  9  8  2  0
 10 11  1  0
 12 11  1  1
 12 13  1  0
 13  5  1  0
 14 12  1  0
 15 14  2  0
 16 17  1  0
 17 19  1  0
 18 17  2  0
 20 19  1  6
 20 21  1  0
 20 22  1  0
 21 14  1  0
 22 24  1  0
 23 22  2  0
M  END
$$$$
