SQN.pdb
     RDKit          3D

 24 23  0  0  1  0  0  0  0  0999 V2000
   20.4868  -14.4741  -15.6672 O   0  0  0  0  0  0  0  0  0  0  0  0
   20.2967  -13.2342  -16.2261 C   0  0  0  0  0  0  0  0  0  0  0  0
   18.8341  -12.9448  -16.5054 C   0  0  2  0  0  0  0  0  0  0  0  0
   18.3490  -13.8774  -17.4705 N   0  0  0  0  0  0  0  0  0  0  0  0
   18.6130  -11.5456  -16.9248 C   0  0  0  0  0  0  0  0  0  0  0  0
   18.7575  -11.1659  -18.1166 O   0  0  0  0  0  0  0  0  0  0  0  0
   14.3467   -7.3105  -16.1765 N   0  0  0  0  0  0  0  0  0  0  0  0
   14.4912   -8.5203  -16.9300 C   0  0  0  0  0  0  0  0  0  0  0  0
   13.5281   -8.8612  -17.6413 O   0  0  0  0  0  0  0  0  0  0  0  0
   15.7072   -9.3424  -16.8868 C   0  0  0  0  0  0  0  0  0  0  0  0
   16.6786   -8.7650  -15.8899 C   0  0  0  0  0  0  0  0  0  0  0  0
   18.0933   -9.1722  -16.2054 C   0  0  2  0  0  0  0  0  0  0  0  0
   18.2249  -10.5908  -15.9535 N   0  0  0  0  0  0  0  0  0  0  0  0
   18.9896   -8.3744  -15.3301 C   0  0  0  0  0  0  0  0  0  0  0  0
   19.0709   -8.7221  -14.1291 O   0  0  0  0  0  0  0  0  0  0  0  0
   22.1621   -4.7163  -13.3046 N   0  0  0  0  0  0  0  0  0  0  0  0
   22.3725   -4.8762  -14.7033 C   0  0  0  0  0  0  0  0  0  0  0  0
   23.3650   -4.2212  -15.1856 O   0  0  0  0  0  0  0  0  0  0  0  0
   21.5590   -5.7141  -15.5982 C   0  0  0  0  0  0  0  0  0  0  0  0
   20.5613   -6.5149  -14.8180 C   0  0  2  0  0  0  0  0  0  0  0  0
   19.7362   -7.2642  -15.7929 N   0  0  0  0  0  0  0  0  0  0  0  0
   19.6540   -5.5675  -14.0878 C   0  0  0  0  0  0  0  0  0  0  0  0
   18.7184   -4.9654  -14.7200 O   0  0  0  0  0  0  0  0  0  0  0  0
   19.7446   -5.2809  -12.7507 O   0  0  0  0  0  0  0  0  0  0  0  0
  2  1  1  0
  2  3  1  0
  3  4  1  6
  5  3  1  0
  5  6  2  0
  7  8  1  0
  8 10  1  0
  9  8  2  0
 10 11  1  0
 12 11  1  1
 12 13  1  0
 13  5  1  0
 14 12  1  0
 15 14  2  0
 16 17  1  0
 17 19  1  0
 18 17  2  0
 20 19  1  6
 20 21  1  0
 20 22  1  0
 21 14  1  0
 22 24  1  0
 23 22  2  0
M  END
$$$$
