SQN.pdb
     RDKit          3D

 24 23  0  0  1  0  0  0  0  0999 V2000
   27.9911  -18.9450  -17.1680 O   0  0  0  0  0  0  0  0  0  0  0  0
   27.2677  -20.1122  -17.1572 C   0  0  0  0  0  0  0  0  0  0  0  0
   27.7997  -21.1119  -16.1479 C   0  0  2  0  0  0  0  0  0  0  0  0
   28.4502  -22.1758  -16.8420 N   0  0  0  0  0  0  0  0  0  0  0  0
   26.7427  -21.6045  -15.2410 C   0  0  0  0  0  0  0  0  0  0  0  0
   26.1801  -22.7196  -15.4007 O   0  0  0  0  0  0  0  0  0  0  0  0
   26.3728  -20.5400   -9.2023 N   0  0  0  0  0  0  0  0  0  0  0  0
   25.1056  -21.1358   -9.5049 C   0  0  0  0  0  0  0  0  0  0  0  0
   24.4291  -21.5437   -8.5428 O   0  0  0  0  0  0  0  0  0  0  0  0
   24.5999  -21.2730  -10.8767 C   0  0  0  0  0  0  0  0  0  0  0  0
   25.6570  -20.8339  -11.8568 C   0  0  0  0  0  0  0  0  0  0  0  0
   25.2269  -21.0900  -13.2768 C   0  0  2  0  0  0  0  0  0  0  0  0
   26.3425  -20.7955  -14.1497 N   0  0  0  0  0  0  0  0  0  0  0  0
   24.0657  -20.2066  -13.5540 C   0  0  0  0  0  0  0  0  0  0  0  0
   24.3073  -19.0958  -14.0809 O   0  0  0  0  0  0  0  0  0  0  0  0
   20.4411  -19.3007  -17.4681 N   0  0  0  0  0  0  0  0  0  0  0  0
   20.7681  -19.1713  -16.0889 C   0  0  0  0  0  0  0  0  0  0  0  0
   20.1038  -18.2782  -15.4506 O   0  0  0  0  0  0  0  0  0  0  0  0
   21.7780  -19.9668  -15.3731 C   0  0  0  0  0  0  0  0  0  0  0  0
   21.6339  -19.8020  -13.8907 C   0  0  2  0  0  0  0  0  0  0  0  0
   22.7300  -20.5661  -13.2523 N   0  0  0  0  0  0  0  0  0  0  0  0
   20.3366  -20.4256  -13.4642 C   0  0  0  0  0  0  0  0  0  0  0  0
   19.3098  -19.6885  -13.2644 O   0  0  0  0  0  0  0  0  0  0  0  0
   20.1497  -21.7683  -13.2628 O   0  0  0  0  0  0  0  0  0  0  0  0
  2  1  1  0
  2  3  1  0
  3  4  1  6
  5  3  1  0
  5  6  2  0
  7  8  1  0
  8 10  1  0
  9  8  2  0
 10 11  1  0
 12 11  1  1
 12 13  1  0
 13  5  1  0
 14 12  1  0
 15 14  2  0
 16 17  1  0
 17 19  1  0
 18 17  2  0
 20 19  1  6
 20 21  1  0
 20 22  1  0
 21 14  1  0
 22 24  1  0
 23 22  2  0
M  END
$$$$
