FID.pdb
     RDKit          3D

 28 28  0  0  1  0  0  0  0  0999 V2000
   28.3447  -20.4057  -15.1389 N   0  0  0  0  0  0  0  0  0  0  0  0
   27.5745  -19.5169  -14.3010 C   0  0  1  0  0  0  0  0  0  0  0  0
   26.7138  -18.6092  -15.1733 C   0  0  0  0  0  0  0  0  0  0  0  0
   27.4908  -17.5138  -15.7819 C   0  0  0  0  0  0  0  0  0  0  0  0
   27.6966  -16.3814  -15.0252 C   0  0  0  0  0  0  0  0  0  0  0  0
   28.4199  -15.3241  -15.5510 C   0  0  0  0  0  0  0  0  0  0  0  0
   28.9247  -15.4268  -16.8341 C   0  0  0  0  0  0  0  0  0  0  0  0
   28.7162  -16.5595  -17.5848 C   0  0  0  0  0  0  0  0  0  0  0  0
   28.0016  -17.6031  -17.0645 C   0  0  0  0  0  0  0  0  0  0  0  0
   26.6320  -20.3289  -13.4917 C   0  0  0  0  0  0  0  0  0  0  0  0
   26.1969  -21.3936  -14.0003 O   0  0  0  0  0  0  0  0  0  0  0  0
   27.0110  -20.5578   -8.1835 C   0  0  0  0  0  0  0  0  0  0  0  0
   26.6807  -20.9603   -9.5802 C   0  0  0  0  0  0  0  0  0  0  0  0
   25.2966  -20.4981  -10.0187 C   0  0  2  0  0  0  0  0  0  0  0  0
   24.2859  -21.2665   -9.2395 C   0  0  0  0  0  0  0  0  0  0  0  0
   25.1842  -20.7778  -11.5071 C   0  0  2  0  0  0  0  0  0  0  0  0
   26.2118  -19.9629  -12.1995 N   0  0  0  0  0  0  0  0  0  0  0  0
   23.8651  -20.4798  -12.0823 C   0  0  0  0  0  0  0  0  0  0  0  0
   23.4228  -19.3048  -12.0240 O   0  0  0  0  0  0  0  0  0  0  0  0
   23.0879  -21.4719  -12.6985 N   0  0  0  0  0  0  0  0  0  0  0  0
   21.7972  -21.1034  -13.2880 C   0  0  1  0  0  0  0  0  0  0  0  0
   21.6362  -21.8559  -14.5865 C   0  0  0  0  0  0  0  0  0  0  0  0
   20.3106  -21.6930  -15.2133 C   0  0  0  0  0  0  0  0  0  0  0  0
   19.4638  -20.9147  -14.7556 O   0  0  0  0  0  0  0  0  0  0  0  0
   20.7082  -21.4355  -12.3523 C   0  0  0  0  0  0  0  0  0  0  0  0
   19.6618  -20.5798  -12.1346 O   0  0  0  0  0  0  0  0  0  0  0  0
   19.9941  -22.4289  -16.3491 O   0  0  0  0  0  0  0  0  0  0  0  0
   20.7355  -22.5221  -11.7400 O   0  0  0  0  0  0  0  0  0  0  0  0
  2  1  1  6
  3  2  1  0
  4  3  1  0
  5  4  2  0
  6  5  1  0
  7  6  2  0
  7  8  1  0
  8  9  2  0
  9  4  1  0
 10 11  2  0
 10  2  1  0
 12 13  1  0
 13 14  1  0
 14 16  1  0
 14 15  1  1
 16 18  1  0
 16 17  1  6
 17 10  1  0
 18 20  1  0
 19 18  2  0
 20 21  1  0
 21 22  1  6
 21 25  1  0
 22 23  1  0
 23 27  1  0
 23 24  2  0
 25 28  2  0
 25 26  1  0
M  END
$$$$
