FID.pdb
     RDKit          3D

 28 28  0  0  1  0  0  0  0  0999 V2000
   28.4506  -20.5653  -14.6168 N   0  0  0  0  0  0  0  0  0  0  0  0
   27.5374  -19.6604  -13.9591 C   0  0  1  0  0  0  0  0  0  0  0  0
   26.6545  -18.9789  -14.9992 C   0  0  0  0  0  0  0  0  0  0  0  0
   27.2874  -17.7767  -15.5721 C   0  0  0  0  0  0  0  0  0  0  0  0
   27.9518  -17.9159  -16.7706 C   0  0  0  0  0  0  0  0  0  0  0  0
   28.5632  -16.8170  -17.3505 C   0  0  0  0  0  0  0  0  0  0  0  0
   28.4941  -15.5934  -16.7104 C   0  0  0  0  0  0  0  0  0  0  0  0
   27.8296  -15.4604  -15.5143 C   0  0  0  0  0  0  0  0  0  0  0  0
   27.2261  -16.5464  -14.9424 C   0  0  0  0  0  0  0  0  0  0  0  0
   26.6257  -20.4530  -13.0970 C   0  0  0  0  0  0  0  0  0  0  0  0
   26.2726  -21.5866  -13.5116 O   0  0  0  0  0  0  0  0  0  0  0  0
   27.0374  -20.6241   -7.8716 C   0  0  0  0  0  0  0  0  0  0  0  0
   26.6980  -20.9154   -9.2935 C   0  0  0  0  0  0  0  0  0  0  0  0
   25.2716  -20.5204   -9.6554 C   0  0  2  0  0  0  0  0  0  0  0  0
   24.3423  -21.3606   -8.8494 C   0  0  0  0  0  0  0  0  0  0  0  0
   25.1033  -20.7726  -11.1435 C   0  0  2  0  0  0  0  0  0  0  0  0
   26.1475  -19.9961  -11.8548 N   0  0  0  0  0  0  0  0  0  0  0  0
   23.7836  -20.4052  -11.6755 C   0  0  0  0  0  0  0  0  0  0  0  0
   23.2567  -19.3231  -11.3131 O   0  0  0  0  0  0  0  0  0  0  0  0
   23.0977  -21.2290  -12.5805 N   0  0  0  0  0  0  0  0  0  0  0  0
   21.7581  -20.8365  -13.0283 C   0  0  1  0  0  0  0  0  0  0  0  0
   21.8747  -20.2428  -14.4111 C   0  0  0  0  0  0  0  0  0  0  0  0
   22.6220  -21.0856  -15.3641 C   0  0  0  0  0  0  0  0  0  0  0  0
   23.1397  -22.1564  -15.0211 O   0  0  0  0  0  0  0  0  0  0  0  0
   20.8702  -22.0127  -13.0369 C   0  0  0  0  0  0  0  0  0  0  0  0
   21.3487  -23.2759  -12.8136 O   0  0  0  0  0  0  0  0  0  0  0  0
   22.7539  -20.6750  -16.6853 O   0  0  0  0  0  0  0  0  0  0  0  0
   19.6511  -21.8595  -13.2532 O   0  0  0  0  0  0  0  0  0  0  0  0
  2  1  1  6
  3  2  1  0
  4  3  1  0
  5  4  2  0
  6  5  1  0
  7  6  2  0
  7  8  1  0
  8  9  2  0
  9  4  1  0
 10 11  2  0
 10  2  1  0
 12 13  1  0
 13 14  1  0
 14 16  1  0
 14 15  1  1
 16 18  1  0
 16 17  1  6
 17 10  1  0
 18 20  1  0
 19 18  2  0
 20 21  1  0
 21 22  1  6
 21 25  1  0
 22 23  1  0
 23 27  1  0
 23 24  2  0
 25 28  2  0
 25 26  1  0
M  END
$$$$
