FID.pdb
     RDKit          3D

 28 28  0  0  1  0  0  0  0  0999 V2000
   19.7765  -13.2276  -16.9286 N   0  0  0  0  0  0  0  0  0  0  0  0
   20.3331  -12.1915  -17.7664 C   0  0  1  0  0  0  0  0  0  0  0  0
   19.2347  -11.5947  -18.6399 C   0  0  0  0  0  0  0  0  0  0  0  0
   18.7370  -12.5498  -19.6470 C   0  0  0  0  0  0  0  0  0  0  0  0
   19.4917  -12.7264  -20.7856 C   0  0  0  0  0  0  0  0  0  0  0  0
   19.0677  -13.6121  -21.7620 C   0  0  0  0  0  0  0  0  0  0  0  0
   17.8870  -14.3064  -21.5733 C   0  0  0  0  0  0  0  0  0  0  0  0
   17.1378  -14.1260  -20.4348 C   0  0  0  0  0  0  0  0  0  0  0  0
   17.5574  -13.2510  -19.4711 C   0  0  0  0  0  0  0  0  0  0  0  0
   20.8159  -11.0895  -16.8974 C   0  0  0  0  0  0  0  0  0  0  0  0
   20.1226  -10.7973  -15.8897 O   0  0  0  0  0  0  0  0  0  0  0  0
   25.6304  -10.8890  -15.1306 C   0  0  0  0  0  0  0  0  0  0  0  0
   24.1727  -10.6317  -15.3060 C   0  0  0  0  0  0  0  0  0  0  0  0
   23.8849   -9.3273  -16.0390 C   0  0  2  0  0  0  0  0  0  0  0  0
   24.3727   -8.2044  -15.1902 C   0  0  0  0  0  0  0  0  0  0  0  0
   22.3825   -9.2561  -16.2490 C   0  0  2  0  0  0  0  0  0  0  0  0
   21.9984  -10.3696  -17.1500 N   0  0  0  0  0  0  0  0  0  0  0  0
   21.9095   -7.9881  -16.8215 C   0  0  0  0  0  0  0  0  0  0  0  0
   22.3325   -7.6298  -17.9495 O   0  0  0  0  0  0  0  0  0  0  0  0
   20.9948   -7.1683  -16.1436 N   0  0  0  0  0  0  0  0  0  0  0  0
   20.6302   -5.8731  -16.7254 C   0  0  1  0  0  0  0  0  0  0  0  0
   19.1271   -5.7412  -16.6860 C   0  0  0  0  0  0  0  0  0  0  0  0
   18.6297   -4.4209  -17.1174 C   0  0  0  0  0  0  0  0  0  0  0  0
   18.0895   -3.6369  -16.3263 O   0  0  0  0  0  0  0  0  0  0  0  0
   21.2710   -4.7860  -15.9644 C   0  0  0  0  0  0  0  0  0  0  0  0
   21.8580   -5.0096  -14.7478 O   0  0  0  0  0  0  0  0  0  0  0  0
   18.7667   -4.0373  -18.4462 O   0  0  0  0  0  0  0  0  0  0  0  0
   21.2815   -3.6308  -16.4354 O   0  0  0  0  0  0  0  0  0  0  0  0
  2  1  1  1
  3  2  1  0
  4  3  1  0
  5  4  2  0
  6  5  1  0
  7  6  2  0
  7  8  1  0
  8  9  2  0
  9  4  1  0
 10 11  2  0
 10  2  1  0
 12 13  1  0
 13 14  1  0
 14 16  1  0
 14 15  1  1
 16 18  1  0
 16 17  1  6
 17 10  1  0
 18 20  1  0
 19 18  2  0
 20 21  1  0
 21 22  1  1
 21 25  1  0
 22 23  1  0
 23 27  1  0
 23 24  2  0
 25 28  2  0
 25 26  1  0
M  END
$$$$
