FID.pdb
     RDKit          3D

 28 28  0  0  1  0  0  0  0  0999 V2000
   16.1424  -25.2280    0.9923 N   0  0  0  0  0  0  0  0  0  0  0  0
   15.2521  -24.8607    2.0683 C   0  0  1  0  0  0  0  0  0  0  0  0
   14.9144  -26.0956    2.8970 C   0  0  0  0  0  0  0  0  0  0  0  0
   14.0234  -27.0264    2.1801 C   0  0  0  0  0  0  0  0  0  0  0  0
   14.4636  -28.3192    2.0007 C   0  0  0  0  0  0  0  0  0  0  0  0
   13.6642  -29.2323    1.3337 C   0  0  0  0  0  0  0  0  0  0  0  0
   12.4315  -28.8253    0.8578 C   0  0  0  0  0  0  0  0  0  0  0  0
   11.9973  -27.5336    1.0398 C   0  0  0  0  0  0  0  0  0  0  0  0
   12.7876  -26.6326    1.6987 C   0  0  0  0  0  0  0  0  0  0  0  0
   15.9690  -23.9339    2.9793 C   0  0  0  0  0  0  0  0  0  0  0  0
   17.1913  -24.1485    3.1829 O   0  0  0  0  0  0  0  0  0  0  0  0
   15.7850  -18.9448    2.0011 C   0  0  0  0  0  0  0  0  0  0  0  0
   16.0964  -20.3084    2.5163 C   0  0  0  0  0  0  0  0  0  0  0  0
   15.7455  -20.4800    3.9891 C   0  0  2  0  0  0  0  0  0  0  0  0
   16.4839  -19.4428    4.7626 C   0  0  0  0  0  0  0  0  0  0  0  0
   16.1713  -21.8821    4.3882 C   0  0  2  0  0  0  0  0  0  0  0  0
   15.3479  -22.8425    3.6143 N   0  0  0  0  0  0  0  0  0  0  0  0
   16.0313  -22.1735    5.8218 C   0  0  0  0  0  0  0  0  0  0  0  0
   14.9100  -22.5235    6.2690 O   0  0  0  0  0  0  0  0  0  0  0  0
   17.1176  -22.0750    6.7041 N   0  0  0  0  0  0  0  0  0  0  0  0
   16.8865  -22.2442    8.1418 C   0  0  1  0  0  0  0  0  0  0  0  0
   17.8650  -23.2688    8.6625 C   0  0  0  0  0  0  0  0  0  0  0  0
   17.7765  -23.4968   10.1175 C   0  0  0  0  0  0  0  0  0  0  0  0
   18.2648  -22.7038   10.9329 O   0  0  0  0  0  0  0  0  0  0  0  0
   17.0638  -20.9537    8.8310 C   0  0  0  0  0  0  0  0  0  0  0  0
   17.7533  -19.9204    8.2554 O   0  0  0  0  0  0  0  0  0  0  0  0
   17.1294  -24.6300   10.5957 O   0  0  0  0  0  0  0  0  0  0  0  0
   16.5759  -20.7934    9.9679 O   0  0  0  0  0  0  0  0  0  0  0  0
  2  1  1  6
  3  2  1  0
  4  3  1  0
  5  4  2  0
  6  5  1  0
  7  6  2  0
  7  8  1  0
  8  9  2  0
  9  4  1  0
 10 11  2  0
 10  2  1  0
 12 13  1  0
 13 14  1  0
 14 16  1  0
 14 15  1  1
 16 18  1  0
 16 17  1  6
 17 10  1  0
 18 20  1  0
 19 18  2  0
 20 21  1  0
 21 22  1  1
 21 25  1  0
 22 23  1  0
 23 27  1  0
 23 24  2  0
 25 28  2  0
 25 26  1  0
M  END
$$$$
