FID.pdb
     RDKit          3D

 28 28  0  0  1  0  0  0  0  0999 V2000
   28.0844  -21.5029  -16.4968 N   0  0  0  0  0  0  0  0  0  0  0  0
   27.6624  -20.4351  -15.6209 C   0  0  1  0  0  0  0  0  0  0  0  0
   26.9232  -19.3732  -16.4281 C   0  0  0  0  0  0  0  0  0  0  0  0
   27.8344  -18.5615  -17.2557 C   0  0  0  0  0  0  0  0  0  0  0  0
   27.8082  -18.7632  -18.6180 C   0  0  0  0  0  0  0  0  0  0  0  0
   28.6447  -18.0261  -19.4393 C   0  0  0  0  0  0  0  0  0  0  0  0
   29.4955  -17.0958  -18.8716 C   0  0  0  0  0  0  0  0  0  0  0  0
   29.5173  -16.8987  -17.5112 C   0  0  0  0  0  0  0  0  0  0  0  0
   28.6908  -17.6272  -16.7010 C   0  0  0  0  0  0  0  0  0  0  0  0
   26.6781  -20.9793  -14.6526 C   0  0  0  0  0  0  0  0  0  0  0  0
   25.9328  -21.9136  -15.0442 O   0  0  0  0  0  0  0  0  0  0  0  0
   25.2591  -21.2850   -8.6384 C   0  0  0  0  0  0  0  0  0  0  0  0
   24.9545  -21.4850  -10.0837 C   0  0  0  0  0  0  0  0  0  0  0  0
   25.9665  -20.8106  -11.0017 C   0  0  2  0  0  0  0  0  0  0  0  0
   25.9311  -19.3464  -10.7297 C   0  0  0  0  0  0  0  0  0  0  0  0
   25.5514  -21.1232  -12.4287 C   0  0  2  0  0  0  0  0  0  0  0  0
   26.5462  -20.5011  -13.3357 N   0  0  0  0  0  0  0  0  0  0  0  0
   24.2083  -20.6472  -12.7878 C   0  0  0  0  0  0  0  0  0  0  0  0
   24.0720  -19.4830  -13.2414 O   0  0  0  0  0  0  0  0  0  0  0  0
   23.0741  -21.4597  -12.6411 N   0  0  0  0  0  0  0  0  0  0  0  0
   21.7772  -20.9665  -13.1143 C   0  0  1  0  0  0  0  0  0  0  0  0
   21.2165  -21.9690  -14.0935 C   0  0  0  0  0  0  0  0  0  0  0  0
   19.8709  -21.6297  -14.5944 C   0  0  0  0  0  0  0  0  0  0  0  0
   19.6941  -20.7439  -15.4407 O   0  0  0  0  0  0  0  0  0  0  0  0
   20.8650  -20.7851  -11.9711 C   0  0  0  0  0  0  0  0  0  0  0  0
   19.8503  -19.8664  -12.0002 O   0  0  0  0  0  0  0  0  0  0  0  0
   18.7650  -22.3175  -14.1090 O   0  0  0  0  0  0  0  0  0  0  0  0
   21.0169  -21.4831  -10.9484 O   0  0  0  0  0  0  0  0  0  0  0  0
  2  1  1  6
  3  2  1  0
  4  3  1  0
  5  4  2  0
  6  5  1  0
  7  6  2  0
  7  8  1  0
  8  9  2  0
  9  4  1  0
 10 11  2  0
 10  2  1  0
 12 13  1  0
 13 14  1  0
 14 16  1  0
 14 15  1  6
 16 18  1  0
 16 17  1  6
 17 10  1  0
 18 20  1  0
 19 18  2  0
 20 21  1  0
 21 22  1  6
 21 25  1  0
 22 23  1  0
 23 27  1  0
 23 24  2  0
 25 28  2  0
 25 26  1  0
M  END
$$$$
