FID.pdb
     RDKit          3D

 28 28  0  0  1  0  0  0  0  0999 V2000
   23.2237  -15.2672  -17.7657 N   0  0  0  0  0  0  0  0  0  0  0  0
   23.2270  -13.9795  -18.4193 C   0  0  1  0  0  0  0  0  0  0  0  0
   21.8704  -13.7329  -19.0707 C   0  0  0  0  0  0  0  0  0  0  0  0
   21.6137  -14.6487  -20.1975 C   0  0  0  0  0  0  0  0  0  0  0  0
   22.2012  -14.3509  -21.4073 C   0  0  0  0  0  0  0  0  0  0  0  0
   21.9913  -15.1794  -22.4969 C   0  0  0  0  0  0  0  0  0  0  0  0
   21.1907  -16.2967  -22.3477 C   0  0  0  0  0  0  0  0  0  0  0  0
   20.6070  -16.5889  -21.1378 C   0  0  0  0  0  0  0  0  0  0  0  0
   20.8149  -15.7700  -20.0624 C   0  0  0  0  0  0  0  0  0  0  0  0
   23.3884  -12.9258  -17.3867 C   0  0  0  0  0  0  0  0  0  0  0  0
   22.8087  -13.0986  -16.2841 O   0  0  0  0  0  0  0  0  0  0  0  0
   28.0657  -11.6638  -16.1688 C   0  0  0  0  0  0  0  0  0  0  0  0
   26.5829  -11.8142  -16.1441 C   0  0  0  0  0  0  0  0  0  0  0  0
   25.8498  -10.5028  -16.3980 C   0  0  2  0  0  0  0  0  0  0  0  0
   26.1646   -9.5743  -15.2764 C   0  0  0  0  0  0  0  0  0  0  0  0
   24.3669  -10.8253  -16.4559 C   0  0  2  0  0  0  0  0  0  0  0  0
   24.1510  -11.7602  -17.5867 N   0  0  0  0  0  0  0  0  0  0  0  0
   23.4975   -9.6530  -16.6274 C   0  0  0  0  0  0  0  0  0  0  0  0
   23.3817   -9.1379  -17.7681 O   0  0  0  0  0  0  0  0  0  0  0  0
   22.7900   -9.0956  -15.5518 N   0  0  0  0  0  0  0  0  0  0  0  0
   21.9406   -7.9241  -15.7871 C   0  0  1  0  0  0  0  0  0  0  0  0
   20.6882   -8.3804  -16.4953 C   0  0  0  0  0  0  0  0  0  0  0  0
   19.6707   -7.3239  -16.6539 C   0  0  0  0  0  0  0  0  0  0  0  0
   19.8755   -6.3199  -17.3483 O   0  0  0  0  0  0  0  0  0  0  0  0
   21.6107   -7.2809  -14.5029 C   0  0  0  0  0  0  0  0  0  0  0  0
   20.9683   -6.0731  -14.4482 O   0  0  0  0  0  0  0  0  0  0  0  0
   18.4454   -7.4499  -16.0103 O   0  0  0  0  0  0  0  0  0  0  0  0
   21.9227   -7.8464  -13.4355 O   0  0  0  0  0  0  0  0  0  0  0  0
  2  1  1  1
  3  2  1  0
  4  3  1  0
  5  4  2  0
  6  5  1  0
  7  6  2  0
  7  8  1  0
  8  9  2  0
  9  4  1  0
 10 11  2  0
 10  2  1  0
 12 13  1  0
 13 14  1  0
 14 16  1  0
 14 15  1  1
 16 18  1  0
 16 17  1  6
 17 10  1  0
 18 20  1  0
 19 18  2  0
 20 21  1  0
 21 22  1  1
 21 25  1  0
 22 23  1  0
 23 27  1  0
 23 24  2  0
 25 28  2  0
 25 26  1  0
M  END
$$$$
