FID.pdb
     RDKit          3D

 28 28  0  0  1  0  0  0  0  0999 V2000
   28.3640  -20.6722  -15.0375 N   0  0  0  0  0  0  0  0  0  0  0  0
   27.5198  -19.7433  -14.3235 C   0  0  1  0  0  0  0  0  0  0  0  0
   26.6939  -18.9342  -15.3180 C   0  0  0  0  0  0  0  0  0  0  0  0
   27.4924  -17.8993  -16.0003 C   0  0  0  0  0  0  0  0  0  0  0  0
   27.5317  -16.6459  -15.4304 C   0  0  0  0  0  0  0  0  0  0  0  0
   28.2673  -15.6387  -16.0323 C   0  0  0  0  0  0  0  0  0  0  0  0
   28.9525  -15.9133  -17.2014 C   0  0  0  0  0  0  0  0  0  0  0  0
   28.9096  -17.1662  -17.7656 C   0  0  0  0  0  0  0  0  0  0  0  0
   28.1828  -18.1601  -17.1704 C   0  0  0  0  0  0  0  0  0  0  0  0
   26.5484  -20.5164  -13.5105 C   0  0  0  0  0  0  0  0  0  0  0  0
   26.1838  -21.6369  -13.9502 O   0  0  0  0  0  0  0  0  0  0  0  0
   26.7923  -20.5910   -8.2453 C   0  0  0  0  0  0  0  0  0  0  0  0
   26.4856  -20.9903   -9.6482 C   0  0  0  0  0  0  0  0  0  0  0  0
   25.1000  -20.5470  -10.1014 C   0  0  2  0  0  0  0  0  0  0  0  0
   24.0917  -21.3074   -9.3112 C   0  0  0  0  0  0  0  0  0  0  0  0
   24.9958  -20.8568  -11.5844 C   0  0  2  0  0  0  0  0  0  0  0  0
   26.0266  -20.0554  -12.2875 N   0  0  0  0  0  0  0  0  0  0  0  0
   23.6797  -20.5715  -12.1726 C   0  0  0  0  0  0  0  0  0  0  0  0
   23.3334  -19.3761  -12.3482 O   0  0  0  0  0  0  0  0  0  0  0  0
   22.8007  -21.5987  -12.5471 N   0  0  0  0  0  0  0  0  0  0  0  0
   21.5041  -21.2491  -13.1353 C   0  0  1  0  0  0  0  0  0  0  0  0
   21.1837  -22.2577  -14.2116 C   0  0  0  0  0  0  0  0  0  0  0  0
   19.8646  -22.0620  -14.8428 C   0  0  0  0  0  0  0  0  0  0  0  0
   19.1660  -23.0179  -15.2041 O   0  0  0  0  0  0  0  0  0  0  0  0
   20.4652  -21.2514  -12.0901 C   0  0  0  0  0  0  0  0  0  0  0  0
   19.3107  -20.5274  -12.2229 O   0  0  0  0  0  0  0  0  0  0  0  0
   19.3840  -20.7731  -15.0416 O   0  0  0  0  0  0  0  0  0  0  0  0
   20.6369  -21.9277  -11.0559 O   0  0  0  0  0  0  0  0  0  0  0  0
  2  1  1  6
  3  2  1  0
  4  3  1  0
  5  4  2  0
  6  5  1  0
  7  6  2  0
  7  8  1  0
  8  9  2  0
  9  4  1  0
 10 11  2  0
 10  2  1  0
 12 13  1  0
 13 14  1  0
 14 16  1  0
 14 15  1  1
 16 18  1  0
 16 17  1  6
 17 10  1  0
 18 20  1  0
 19 18  2  0
 20 21  1  0
 21 22  1  6
 21 25  1  0
 22 23  1  0
 23 27  1  0
 23 24  2  0
 25 28  2  0
 25 26  1  0
M  END
$$$$
