FID.pdb
     RDKit          3D

 28 28  0  0  1  0  0  0  0  0999 V2000
   20.3371  -17.4857  -18.3842 N   0  0  0  0  0  0  0  0  0  0  0  0
   19.3446  -17.0120  -17.4483 C   0  0  1  0  0  0  0  0  0  0  0  0
   20.0143  -16.6708  -16.1214 C   0  0  0  0  0  0  0  0  0  0  0  0
   20.5878  -17.8574  -15.4603 C   0  0  0  0  0  0  0  0  0  0  0  0
   21.9572  -17.9102  -15.3216 C   0  0  0  0  0  0  0  0  0  0  0  0
   22.5453  -19.0034  -14.7078 C   0  0  0  0  0  0  0  0  0  0  0  0
   21.7406  -20.0273  -14.2432 C   0  0  0  0  0  0  0  0  0  0  0  0
   20.3744  -19.9692  -14.3844 C   0  0  0  0  0  0  0  0  0  0  0  0
   19.7946  -18.8891  -14.9908 C   0  0  0  0  0  0  0  0  0  0  0  0
   18.7767  -15.7417  -17.9645 C   0  0  0  0  0  0  0  0  0  0  0  0
   19.5586  -14.9522  -18.5536 O   0  0  0  0  0  0  0  0  0  0  0  0
   14.1331  -16.0062  -20.3668 C   0  0  0  0  0  0  0  0  0  0  0  0
   15.4945  -15.5457  -19.9717 C   0  0  0  0  0  0  0  0  0  0  0  0
   15.4659  -14.4531  -18.9100 C   0  0  2  0  0  0  0  0  0  0  0  0
   14.8258  -13.2475  -19.5068 C   0  0  0  0  0  0  0  0  0  0  0  0
   16.9058  -14.1808  -18.5117 C   0  0  2  0  0  0  0  0  0  0  0  0
   17.4214  -15.3896  -17.8245 N   0  0  0  0  0  0  0  0  0  0  0  0
   17.0824  -13.0155  -17.6340 C   0  0  0  0  0  0  0  0  0  0  0  0
   16.7430  -13.1009  -16.4268 O   0  0  0  0  0  0  0  0  0  0  0  0
   17.6236  -11.8107  -18.1073 N   0  0  0  0  0  0  0  0  0  0  0  0
   17.6772  -10.6520  -17.2109 C   0  0  1  0  0  0  0  0  0  0  0  0
   18.8974   -9.8360  -17.5624 C   0  0  0  0  0  0  0  0  0  0  0  0
   18.9792   -8.5444  -16.8541 C   0  0  0  0  0  0  0  0  0  0  0  0
   18.0954   -8.1727  -16.0711 O   0  0  0  0  0  0  0  0  0  0  0  0
   16.4504   -9.8491  -17.3591 C   0  0  0  0  0  0  0  0  0  0  0  0
   15.5975   -9.6394  -16.3088 O   0  0  0  0  0  0  0  0  0  0  0  0
   20.0743   -7.7150  -17.0648 O   0  0  0  0  0  0  0  0  0  0  0  0
   16.1767   -9.3459  -18.4674 O   0  0  0  0  0  0  0  0  0  0  0  0
  2  1  1  6
  3  2  1  0
  4  3  1  0
  5  4  2  0
  6  5  1  0
  7  6  2  0
  7  8  1  0
  8  9  2  0
  9  4  1  0
 10 11  2  0
 10  2  1  0
 12 13  1  0
 13 14  1  0
 14 16  1  0
 14 15  1  6
 16 18  1  0
 16 17  1  1
 17 10  1  0
 18 20  1  0
 19 18  2  0
 20 21  1  0
 21 22  1  6
 21 25  1  0
 22 23  1  0
 23 27  1  0
 23 24  2  0
 25 28  2  0
 25 26  1  0
M  END
$$$$
