AKK.pdb
     RDKit          3D

 24 23  0  0  1  0  0  0  0  0999 V2000
   27.8295  -19.1729  -17.0034 C   0  0  0  0  0  0  0  0  0  0  0  0
   28.1239  -20.3817  -16.1734 C   0  0  2  0  0  0  0  0  0  0  0  0
   28.6949  -21.4509  -16.9735 N   0  0  0  0  0  0  0  0  0  0  0  0
   26.9539  -20.8538  -15.3884 C   0  0  0  0  0  0  0  0  0  0  0  0
   26.1055  -21.6013  -15.9393 O   0  0  0  0  0  0  0  0  0  0  0  0
   26.7378  -20.5034  -14.0336 N   0  0  0  0  0  0  0  0  0  0  0  0
   25.5771  -21.0407  -13.2733 C   0  0  1  0  0  0  0  0  0  0  0  0
   25.8498  -20.7699  -11.8433 C   0  0  0  0  0  0  0  0  0  0  0  0
   24.8790  -21.1915  -10.8295 C   0  0  0  0  0  0  0  0  0  0  0  0
   25.2271  -20.8562   -9.4116 C   0  0  0  0  0  0  0  0  0  0  0  0
   24.1177  -21.4675   -8.5495 C   0  0  0  0  0  0  0  0  0  0  0  0
   24.2579  -21.1249   -7.1677 N   0  0  0  0  0  0  0  0  0  0  0  0
   24.3878  -20.3007  -13.7646 C   0  0  0  0  0  0  0  0  0  0  0  0
   24.4410  -19.0256  -13.9150 O   0  0  0  0  0  0  0  0  0  0  0  0
   23.1486  -20.8956  -14.0995 N   0  0  0  0  0  0  0  0  0  0  0  0
   22.0166  -20.0799  -14.6012 C   0  0  1  0  0  0  0  0  0  0  0  0
   21.8209  -20.4933  -16.0404 C   0  0  0  0  0  0  0  0  0  0  0  0
   20.6712  -19.7397  -16.6535 C   0  0  0  0  0  0  0  0  0  0  0  0
   20.4883  -20.2129  -18.0981 C   0  0  0  0  0  0  0  0  0  0  0  0
   19.4198  -19.4156  -18.7919 C   0  0  0  0  0  0  0  0  0  0  0  0
   19.3069  -19.8719  -20.1770 N   0  0  0  0  0  0  0  0  0  0  0  0
   20.8401  -20.3159  -13.7733 C   0  0  0  0  0  0  0  0  0  0  0  0
   20.6326  -21.4952  -13.1064 O   0  0  0  0  0  0  0  0  0  0  0  0
   19.9516  -19.4091  -13.6473 O   0  0  0  0  0  0  0  0  0  0  0  0
  2  1  1  6
  2  3  1  0
  4  2  1  0
  4  5  2  0
  6  4  1  0
  7  6  1  0
  8  9  1  0
  7  8  1  1
  9 10  1  0
 11 12  1  0
 11 10  1  0
 13 15  1  0
 13  7  1  0
 14 13  2  0
 16 15  1  0
 16 22  1  0
 16 17  1  6
 18 17  1  0
 19 18  1  0
 20 19  1  0
 21 20  1  0
 22 24  2  0
 22 23  1  0
M  END
$$$$
