AKK.pdb
     RDKit          3D

 24 23  0  0  1  0  0  0  0  0999 V2000
   19.7183  -21.8542  -19.9774 C   0  0  0  0  0  0  0  0  0  0  0  0
   20.9330  -21.2787  -19.3218 C   0  0  2  0  0  0  0  0  0  0  0  0
   22.0562  -21.2188  -20.2406 N   0  0  0  0  0  0  0  0  0  0  0  0
   21.2996  -21.9677  -18.0573 C   0  0  0  0  0  0  0  0  0  0  0  0
   21.3991  -23.2215  -18.0471 O   0  0  0  0  0  0  0  0  0  0  0  0
   21.5469  -21.2803  -16.8443 N   0  0  0  0  0  0  0  0  0  0  0  0
   22.0552  -21.9949  -15.6422 C   0  0  1  0  0  0  0  0  0  0  0  0
   23.2574  -21.2570  -15.1918 C   0  0  0  0  0  0  0  0  0  0  0  0
   23.9725  -21.7030  -13.9927 C   0  0  0  0  0  0  0  0  0  0  0  0
   25.1348  -20.8567  -13.5721 C   0  0  0  0  0  0  0  0  0  0  0  0
   25.7750  -21.5808  -12.3832 C   0  0  0  0  0  0  0  0  0  0  0  0
   26.9796  -20.9434  -11.9485 N   0  0  0  0  0  0  0  0  0  0  0  0
   20.9604  -21.9423  -14.6412 C   0  0  0  0  0  0  0  0  0  0  0  0
   20.1930  -20.9133  -14.5813 O   0  0  0  0  0  0  0  0  0  0  0  0
   20.6696  -22.9657  -13.7085 N   0  0  0  0  0  0  0  0  0  0  0  0
   19.5704  -22.8174  -12.7244 C   0  0  1  0  0  0  0  0  0  0  0  0
   19.5992  -24.0735  -11.8868 C   0  0  0  0  0  0  0  0  0  0  0  0
   18.4891  -24.0548  -10.8705 C   0  0  0  0  0  0  0  0  0  0  0  0
   18.4862  -25.3902  -10.1215 C   0  0  0  0  0  0  0  0  0  0  0  0
   17.4744  -25.3790   -9.0102 C   0  0  0  0  0  0  0  0  0  0  0  0
   17.4152  -26.7093   -8.4049 N   0  0  0  0  0  0  0  0  0  0  0  0
   19.7751  -21.6039  -11.9430 C   0  0  0  0  0  0  0  0  0  0  0  0
   18.7347  -20.8469  -11.4708 O   0  0  0  0  0  0  0  0  0  0  0  0
   20.9569  -21.2055  -11.6741 O   0  0  0  0  0  0  0  0  0  0  0  0
  2  1  1  6
  2  3  1  0
  4  2  1  0
  4  5  2  0
  6  4  1  0
  7  6  1  0
  8  9  1  0
  7  8  1  1
  9 10  1  0
 11 12  1  0
 11 10  1  0
 13 15  1  0
 13  7  1  0
 14 13  2  0
 16 15  1  0
 16 22  1  0
 16 17  1  1
 18 17  1  0
 19 18  1  0
 20 19  1  0
 21 20  1  0
 22 24  2  0
 22 23  1  0
M  END
$$$$
