AKK.pdb
     RDKit          3D

 24 23  0  0  1  0  0  0  0  0999 V2000
   18.1634  -20.5659  -12.8625 C   0  0  0  0  0  0  0  0  0  0  0  0
   19.0001  -20.6332  -14.1003 C   0  0  2  0  0  0  0  0  0  0  0  0
   18.8507  -21.9106  -14.7751 N   0  0  0  0  0  0  0  0  0  0  0  0
   20.4300  -20.3075  -13.8607 C   0  0  0  0  0  0  0  0  0  0  0  0
   20.7476  -19.1332  -13.5413 O   0  0  0  0  0  0  0  0  0  0  0  0
   21.4709  -21.2608  -13.9738 N   0  0  0  0  0  0  0  0  0  0  0  0
   22.8986  -20.8639  -13.8394 C   0  0  1  0  0  0  0  0  0  0  0  0
   23.6281  -22.0680  -13.3805 C   0  0  0  0  0  0  0  0  0  0  0  0
   25.0901  -22.0343  -13.2828 C   0  0  0  0  0  0  0  0  0  0  0  0
   25.6505  -21.2630  -12.1274 C   0  0  0  0  0  0  0  0  0  0  0  0
   27.1742  -21.3388  -12.2695 C   0  0  0  0  0  0  0  0  0  0  0  0
   27.8491  -20.6287  -11.2271 N   0  0  0  0  0  0  0  0  0  0  0  0
   23.3320  -20.4301  -15.1912 C   0  0  0  0  0  0  0  0  0  0  0  0
   22.9122  -21.0556  -16.2324 O   0  0  0  0  0  0  0  0  0  0  0  0
   24.1999  -19.3433  -15.4506 N   0  0  0  0  0  0  0  0  0  0  0  0
   24.5733  -18.9735  -16.8371 C   0  0  1  0  0  0  0  0  0  0  0  0
   24.7711  -17.4765  -16.8219 C   0  0  0  0  0  0  0  0  0  0  0  0
   25.1694  -16.9836  -18.1872 C   0  0  0  0  0  0  0  0  0  0  0  0
   25.2911  -15.4580  -18.1425 C   0  0  0  0  0  0  0  0  0  0  0  0
   25.7540  -14.9184  -19.4667 C   0  0  0  0  0  0  0  0  0  0  0  0
   25.6394  -13.4602  -19.4546 N   0  0  0  0  0  0  0  0  0  0  0  0
   25.7712  -19.7047  -17.2316 C   0  0  0  0  0  0  0  0  0  0  0  0
   26.0180  -20.0700  -18.5294 O   0  0  0  0  0  0  0  0  0  0  0  0
   26.6401  -20.0326  -16.3569 O   0  0  0  0  0  0  0  0  0  0  0  0
  2  1  1  1
  2  3  1  0
  4  2  1  0
  4  5  2  0
  6  4  1  0
  7  6  1  0
  8  9  1  0
  7  8  1  6
  9 10  1  0
 11 12  1  0
 11 10  1  0
 13 15  1  0
 13  7  1  0
 14 13  2  0
 16 15  1  0
 16 22  1  0
 16 17  1  1
 18 17  1  0
 19 18  1  0
 20 19  1  0
 21 20  1  0
 22 24  2  0
 22 23  1  0
M  END
$$$$
