AKK.pdb
     RDKit          3D

 24 23  0  0  1  0  0  0  0  0999 V2000
   23.9605  -12.7915  -18.4168 C   0  0  0  0  0  0  0  0  0  0  0  0
   24.2719  -11.6537  -17.4975 C   0  0  2  0  0  0  0  0  0  0  0  0
   24.6051  -12.1224  -16.1638 N   0  0  0  0  0  0  0  0  0  0  0  0
   23.2052  -10.6198  -17.4610 C   0  0  0  0  0  0  0  0  0  0  0  0
   22.9147   -9.9989  -18.5156 O   0  0  0  0  0  0  0  0  0  0  0  0
   22.4866  -10.2896  -16.2864 N   0  0  0  0  0  0  0  0  0  0  0  0
   21.4066   -9.2662  -16.3046 C   0  0  1  0  0  0  0  0  0  0  0  0
   20.3221   -9.7844  -15.4398 C   0  0  0  0  0  0  0  0  0  0  0  0
   18.9789   -9.9687  -15.9966 C   0  0  0  0  0  0  0  0  0  0  0  0
   17.9416  -10.4814  -15.0452 C   0  0  0  0  0  0  0  0  0  0  0  0
   16.6339  -10.5441  -15.8413 C   0  0  0  0  0  0  0  0  0  0  0  0
   15.5468  -11.0396  -15.0545 N   0  0  0  0  0  0  0  0  0  0  0  0
   22.0101   -8.0244  -15.7594 C   0  0  0  0  0  0  0  0  0  0  0  0
   22.8250   -8.0873  -14.7678 O   0  0  0  0  0  0  0  0  0  0  0  0
   21.7623   -6.7221  -16.2538 N   0  0  0  0  0  0  0  0  0  0  0  0
   22.3748   -5.5306  -15.6183 C   0  0  1  0  0  0  0  0  0  0  0  0
   22.2305   -4.4120  -16.6223 C   0  0  0  0  0  0  0  0  0  0  0  0
   22.7572   -3.1219  -16.0533 C   0  0  0  0  0  0  0  0  0  0  0  0
   22.6164   -2.0244  -17.1116 C   0  0  0  0  0  0  0  0  0  0  0  0
   23.1017   -0.7042  -16.5822 C   0  0  0  0  0  0  0  0  0  0  0  0
   22.9004    0.3231  -17.6038 N   0  0  0  0  0  0  0  0  0  0  0  0
   21.7055   -5.2537  -14.3533 C   0  0  0  0  0  0  0  0  0  0  0  0
   22.3528   -4.6901  -13.2846 O   0  0  0  0  0  0  0  0  0  0  0  0
   20.4706   -5.5378  -14.2049 O   0  0  0  0  0  0  0  0  0  0  0  0
  2  1  1  6
  2  3  1  0
  4  2  1  0
  4  5  2  0
  6  4  1  0
  7  6  1  0
  8  9  1  0
  7  8  1  1
  9 10  1  0
 11 12  1  0
 11 10  1  0
 13 15  1  0
 13  7  1  0
 14 13  2  0
 16 15  1  0
 16 22  1  0
 16 17  1  6
 18 17  1  0
 19 18  1  0
 20 19  1  0
 21 20  1  0
 22 24  2  0
 22 23  1  0
M  END
$$$$
