AKK.pdb
     RDKit          3D

 24 23  0  0  1  0  0  0  0  0999 V2000
   14.1429  -16.9185    4.5208 C   0  0  0  0  0  0  0  0  0  0  0  0
   15.5295  -17.0260    3.9709 C   0  0  2  0  0  0  0  0  0  0  0  0
   15.7576  -18.3193    3.3505 N   0  0  0  0  0  0  0  0  0  0  0  0
   16.5832  -16.7073    4.9691 C   0  0  0  0  0  0  0  0  0  0  0  0
   17.2173  -17.6467    5.5146 O   0  0  0  0  0  0  0  0  0  0  0  0
   16.9179  -15.3842    5.3462 N   0  0  0  0  0  0  0  0  0  0  0  0
   17.9644  -15.1147    6.3691 C   0  0  1  0  0  0  0  0  0  0  0  0
   18.4005  -13.7144    6.1652 C   0  0  0  0  0  0  0  0  0  0  0  0
   19.7096  -13.2846    6.6651 C   0  0  0  0  0  0  0  0  0  0  0  0
   20.0443  -11.8386    6.4622 C   0  0  0  0  0  0  0  0  0  0  0  0
   21.4679  -11.6564    6.9986 C   0  0  0  0  0  0  0  0  0  0  0  0
   21.8799  -10.2866    6.9801 N   0  0  0  0  0  0  0  0  0  0  0  0
   17.3088  -15.3089    7.6866 C   0  0  0  0  0  0  0  0  0  0  0  0
   16.0356  -15.1742    7.7972 O   0  0  0  0  0  0  0  0  0  0  0  0
   17.9850  -15.6459    8.8828 N   0  0  0  0  0  0  0  0  0  0  0  0
   17.2374  -15.9783   10.1194 C   0  0  1  0  0  0  0  0  0  0  0  0
   16.4464  -17.2235    9.7968 C   0  0  0  0  0  0  0  0  0  0  0  0
   15.7540  -17.7419   11.0286 C   0  0  0  0  0  0  0  0  0  0  0  0
   14.9807  -19.0110   10.6601 C   0  0  0  0  0  0  0  0  0  0  0  0
   14.2556  -19.5626   11.8554 C   0  0  0  0  0  0  0  0  0  0  0  0
   13.4211  -20.6865   11.4310 N   0  0  0  0  0  0  0  0  0  0  0  0
   18.1739  -16.1649   11.2208 C   0  0  0  0  0  0  0  0  0  0  0  0
   17.8199  -15.9701   12.5306 O   0  0  0  0  0  0  0  0  0  0  0  0
   19.3765  -16.5212   10.9874 O   0  0  0  0  0  0  0  0  0  0  0  0
  2  1  1  1
  2  3  1  0
  4  2  1  0
  4  5  2  0
  6  4  1  0
  7  6  1  0
  8  9  1  0
  7  8  1  1
  9 10  1  0
 11 12  1  0
 11 10  1  0
 13 15  1  0
 13  7  1  0
 14 13  2  0
 16 15  1  0
 16 22  1  0
 16 17  1  6
 18 17  1  0
 19 18  1  0
 20 19  1  0
 21 20  1  0
 22 24  2  0
 22 23  1  0
M  END
$$$$
