AKK.pdb
     RDKit          3D

 24 23  0  0  1  0  0  0  0  0999 V2000
   25.7232  -18.1447  -23.1231 C   0  0  0  0  0  0  0  0  0  0  0  0
   25.2068  -17.1760  -22.1074 C   0  0  2  0  0  0  0  0  0  0  0  0
   26.0003  -17.2059  -20.8913 N   0  0  0  0  0  0  0  0  0  0  0  0
   23.7592  -17.3451  -21.8177 C   0  0  0  0  0  0  0  0  0  0  0  0
   22.9291  -17.2505  -22.7580 O   0  0  0  0  0  0  0  0  0  0  0  0
   23.2546  -17.6111  -20.5217 N   0  0  0  0  0  0  0  0  0  0  0  0
   21.8053  -17.8592  -20.2938 C   0  0  1  0  0  0  0  0  0  0  0  0
   21.7078  -18.6826  -19.0670 C   0  0  0  0  0  0  0  0  0  0  0  0
   20.3895  -19.0882  -18.5712 C   0  0  0  0  0  0  0  0  0  0  0  0
   20.3851  -19.8879  -17.3045 C   0  0  0  0  0  0  0  0  0  0  0  0
   18.9220  -20.2640  -17.0487 C   0  0  0  0  0  0  0  0  0  0  0  0
   18.7633  -21.0286  -15.8502 N   0  0  0  0  0  0  0  0  0  0  0  0
   21.1835  -16.5226  -20.1199 C   0  0  0  0  0  0  0  0  0  0  0  0
   21.7868  -15.6169  -19.4364 O   0  0  0  0  0  0  0  0  0  0  0  0
   19.9353  -16.1362  -20.6626 N   0  0  0  0  0  0  0  0  0  0  0  0
   19.4056  -14.7650  -20.4685 C   0  0  1  0  0  0  0  0  0  0  0  0
   18.3698  -14.5699  -21.5499 C   0  0  0  0  0  0  0  0  0  0  0  0
   17.7407  -13.2071  -21.4374 C   0  0  0  0  0  0  0  0  0  0  0  0
   16.7351  -13.0345  -22.5790 C   0  0  0  0  0  0  0  0  0  0  0  0
   16.1515  -11.6495  -22.5741 C   0  0  0  0  0  0  0  0  0  0  0  0
   15.0854  -11.5769  -23.5730 N   0  0  0  0  0  0  0  0  0  0  0  0
   18.8586  -14.6389  -19.1231 C   0  0  0  0  0  0  0  0  0  0  0  0
   18.3976  -15.7153  -18.4109 O   0  0  0  0  0  0  0  0  0  0  0  0
   18.7919  -13.4951  -18.5621 O   0  0  0  0  0  0  0  0  0  0  0  0
  2  1  1  6
  2  3  1  0
  4  2  1  0
  4  5  2  0
  6  4  1  0
  7  6  1  0
  8  9  1  0
  7  8  1  1
  9 10  1  0
 11 12  1  0
 11 10  1  0
 13 15  1  0
 13  7  1  0
 14 13  2  0
 16 15  1  0
 16 22  1  0
 16 17  1  6
 18 17  1  0
 19 18  1  0
 20 19  1  0
 21 20  1  0
 22 24  2  0
 22 23  1  0
M  END
$$$$
