AKK.pdb
     RDKit          3D

 24 23  0  0  1  0  0  0  0  0999 V2000
   14.7353  -19.9120    0.8167 C   0  0  0  0  0  0  0  0  0  0  0  0
   14.5017  -19.6923    2.2774 C   0  0  2  0  0  0  0  0  0  0  0  0
   13.3453  -18.8450    2.5103 N   0  0  0  0  0  0  0  0  0  0  0  0
   15.7011  -19.1863    2.9941 C   0  0  0  0  0  0  0  0  0  0  0  0
   16.7613  -19.8626    2.9715 O   0  0  0  0  0  0  0  0  0  0  0  0
   15.7167  -17.9659    3.7121 N   0  0  0  0  0  0  0  0  0  0  0  0
   16.9565  -17.4749    4.3723 C   0  0  1  0  0  0  0  0  0  0  0  0
   16.7980  -16.0110    4.5282 C   0  0  0  0  0  0  0  0  0  0  0  0
   17.8898  -15.2230    5.1070 C   0  0  0  0  0  0  0  0  0  0  0  0
   17.6511  -13.7473    5.2038 C   0  0  0  0  0  0  0  0  0  0  0  0
   18.9562  -13.1431    5.7322 C   0  0  0  0  0  0  0  0  0  0  0  0
   18.8480  -11.7335    5.9512 N   0  0  0  0  0  0  0  0  0  0  0  0
   17.0266  -18.1713    5.6813 C   0  0  0  0  0  0  0  0  0  0  0  0
   15.9496  -18.4134    6.3392 O   0  0  0  0  0  0  0  0  0  0  0  0
   18.2209  -18.6147    6.2968 N   0  0  0  0  0  0  0  0  0  0  0  0
   18.1911  -19.3880    7.5616 C   0  0  1  0  0  0  0  0  0  0  0  0
   18.0435  -20.8343    7.1533 C   0  0  0  0  0  0  0  0  0  0  0  0
   17.3947  -21.6292    8.2546 C   0  0  0  0  0  0  0  0  0  0  0  0
   17.3704  -23.1047    7.8465 C   0  0  0  0  0  0  0  0  0  0  0  0
   16.6695  -23.9361    8.8840 C   0  0  0  0  0  0  0  0  0  0  0  0
   16.5957  -25.3202    8.4170 N   0  0  0  0  0  0  0  0  0  0  0  0
   19.4084  -19.1293    8.3208 C   0  0  0  0  0  0  0  0  0  0  0  0
   19.5177  -19.4121    9.6575 O   0  0  0  0  0  0  0  0  0  0  0  0
   20.4267  -18.6189    7.7463 O   0  0  0  0  0  0  0  0  0  0  0  0
  2  1  1  6
  2  3  1  0
  4  2  1  0
  4  5  2  0
  6  4  1  0
  7  6  1  0
  8  9  1  0
  7  8  1  1
  9 10  1  0
 11 12  1  0
 11 10  1  0
 13 15  1  0
 13  7  1  0
 14 13  2  0
 16 15  1  0
 16 22  1  0
 16 17  1  6
 18 17  1  0
 19 18  1  0
 20 19  1  0
 21 20  1  0
 22 24  2  0
 22 23  1  0
M  END
$$$$
