AKK.pdb
     RDKit          3D

 24 23  0  0  1  0  0  0  0  0999 V2000
   19.8914  -20.3988  -17.5712 C   0  0  0  0  0  0  0  0  0  0  0  0
   19.8617  -20.4327  -16.0763 C   0  0  2  0  0  0  0  0  0  0  0  0
   18.7923  -19.6052  -15.5461 N   0  0  0  0  0  0  0  0  0  0  0  0
   21.1692  -20.0969  -15.4554 C   0  0  0  0  0  0  0  0  0  0  0  0
   21.7002  -18.9842  -15.7044 O   0  0  0  0  0  0  0  0  0  0  0  0
   21.8614  -20.9739  -14.5854 N   0  0  0  0  0  0  0  0  0  0  0  0
   23.1537  -20.5807  -13.9614 C   0  0  1  0  0  0  0  0  0  0  0  0
   23.2118  -21.2643  -12.6491 C   0  0  0  0  0  0  0  0  0  0  0  0
   24.4361  -21.1871  -11.8471 C   0  0  0  0  0  0  0  0  0  0  0  0
   24.2880  -20.5824  -10.4846 C   0  0  0  0  0  0  0  0  0  0  0  0
   25.6936  -20.5684   -9.8748 C   0  0  0  0  0  0  0  0  0  0  0  0
   25.6846  -20.1433   -8.5089 N   0  0  0  0  0  0  0  0  0  0  0  0
   24.2151  -21.0541  -14.8848 C   0  0  0  0  0  0  0  0  0  0  0  0
   24.0993  -22.1939  -15.4670 O   0  0  0  0  0  0  0  0  0  0  0  0
   25.3919  -20.3341  -15.1988 N   0  0  0  0  0  0  0  0  0  0  0  0
   26.3472  -20.8320  -16.2177 C   0  0  1  0  0  0  0  0  0  0  0  0
   27.0956  -19.6147  -16.7060 C   0  0  0  0  0  0  0  0  0  0  0  0
   28.0841  -19.9974  -17.7746 C   0  0  0  0  0  0  0  0  0  0  0  0
   28.8011  -18.7330  -18.2560 C   0  0  0  0  0  0  0  0  0  0  0  0
   29.7242  -19.0435  -19.4006 C   0  0  0  0  0  0  0  0  0  0  0  0
   30.3079  -17.7968  -19.8951 N   0  0  0  0  0  0  0  0  0  0  0  0
   27.2179  -21.8373  -15.6205 C   0  0  0  0  0  0  0  0  0  0  0  0
   27.8048  -22.8344  -16.3552 O   0  0  0  0  0  0  0  0  0  0  0  0
   27.4596  -21.8146  -14.3681 O   0  0  0  0  0  0  0  0  0  0  0  0
  2  1  1  6
  2  3  1  0
  4  2  1  0
  4  5  2  0
  6  4  1  0
  7  6  1  0
  8  9  1  0
  7  8  1  1
  9 10  1  0
 11 12  1  0
 11 10  1  0
 13 15  1  0
 13  7  1  0
 14 13  2  0
 16 15  1  0
 16 22  1  0
 16 17  1  1
 18 17  1  0
 19 18  1  0
 20 19  1  0
 21 20  1  0
 22 24  2  0
 22 23  1  0
M  END
$$$$
