AKK.pdb
     RDKit          3D

 24 23  0  0  1  0  0  0  0  0999 V2000
   18.3711  -15.2325  -18.3552 C   0  0  0  0  0  0  0  0  0  0  0  0
   19.0179  -14.5898  -17.1698 C   0  0  2  0  0  0  0  0  0  0  0  0
   18.2734  -14.8504  -15.9504 N   0  0  0  0  0  0  0  0  0  0  0  0
   19.2697  -13.1370  -17.3544 C   0  0  0  0  0  0  0  0  0  0  0  0
   20.1292  -12.7640  -18.1936 O   0  0  0  0  0  0  0  0  0  0  0  0
   18.5850  -12.1337  -16.6267 N   0  0  0  0  0  0  0  0  0  0  0  0
   18.8721  -10.6901  -16.8453 C   0  0  1  0  0  0  0  0  0  0  0  0
   17.6875   -9.9475  -16.3576 C   0  0  0  0  0  0  0  0  0  0  0  0
   17.7121   -8.4823  -16.3334 C   0  0  0  0  0  0  0  0  0  0  0  0
   16.4631   -7.8155  -15.8441 C   0  0  0  0  0  0  0  0  0  0  0  0
   16.7508   -6.3108  -15.8702 C   0  0  0  0  0  0  0  0  0  0  0  0
   15.5833   -5.5335  -15.5892 N   0  0  0  0  0  0  0  0  0  0  0  0
   20.0872  -10.3889  -16.0476 C   0  0  0  0  0  0  0  0  0  0  0  0
   20.2389  -10.9136  -14.8844 O   0  0  0  0  0  0  0  0  0  0  0  0
   21.1402   -9.5432  -16.4689 N   0  0  0  0  0  0  0  0  0  0  0  0
   22.3337   -9.3214  -15.6174 C   0  0  1  0  0  0  0  0  0  0  0  0
   23.4545  -10.0897  -16.2760 C   0  0  0  0  0  0  0  0  0  0  0  0
   24.7425   -9.8925  -15.5226 C   0  0  0  0  0  0  0  0  0  0  0  0
   25.8228  -10.7720  -16.1579 C   0  0  0  0  0  0  0  0  0  0  0  0
   27.1278  -10.6306  -15.4258 C   0  0  0  0  0  0  0  0  0  0  0  0
   28.1040  -11.5515  -16.0077 N   0  0  0  0  0  0  0  0  0  0  0  0
   22.6024   -7.8921  -15.5161 C   0  0  0  0  0  0  0  0  0  0  0  0
   23.1285   -7.3191  -14.3876 O   0  0  0  0  0  0  0  0  0  0  0  0
   22.3464   -7.1198  -16.4987 O   0  0  0  0  0  0  0  0  0  0  0  0
  2  1  1  6
  2  3  1  0
  4  2  1  0
  4  5  2  0
  6  4  1  0
  7  6  1  0
  8  9  1  0
  7  8  1  1
  9 10  1  0
 11 12  1  0
 11 10  1  0
 13 15  1  0
 13  7  1  0
 14 13  2  0
 16 15  1  0
 16 22  1  0
 16 17  1  6
 18 17  1  0
 19 18  1  0
 20 19  1  0
 21 20  1  0
 22 24  2  0
 22 23  1  0
M  END
$$$$
