AKK.pdb
     RDKit          3D

 24 23  0  0  1  0  0  0  0  0999 V2000
   29.0650  -21.9813  -16.9450 C   0  0  0  0  0  0  0  0  0  0  0  0
   27.9225  -21.0383  -16.7403 C   0  0  2  0  0  0  0  0  0  0  0  0
   28.3865  -19.7088  -16.3845 N   0  0  0  0  0  0  0  0  0  0  0  0
   26.9133  -21.5403  -15.7720 C   0  0  0  0  0  0  0  0  0  0  0  0
   26.3179  -22.6223  -16.0103 O   0  0  0  0  0  0  0  0  0  0  0  0
   26.5795  -20.8573  -14.5773 N   0  0  0  0  0  0  0  0  0  0  0  0
   25.6126  -21.4330  -13.6038 C   0  0  1  0  0  0  0  0  0  0  0  0
   26.0072  -20.9258  -12.2697 C   0  0  0  0  0  0  0  0  0  0  0  0
   25.2209  -21.3021  -11.0915 C   0  0  0  0  0  0  0  0  0  0  0  0
   25.7163  -20.7755   -9.7795 C   0  0  0  0  0  0  0  0  0  0  0  0
   24.7870  -21.3623   -8.7119 C   0  0  0  0  0  0  0  0  0  0  0  0
   25.2251  -21.0520   -7.3860 N   0  0  0  0  0  0  0  0  0  0  0  0
   24.2745  -20.9396  -14.0152 C   0  0  0  0  0  0  0  0  0  0  0  0
   24.0704  -19.6790  -14.1589 O   0  0  0  0  0  0  0  0  0  0  0  0
   23.1554  -21.7646  -14.2776 N   0  0  0  0  0  0  0  0  0  0  0  0
   21.8784  -21.1925  -14.7682 C   0  0  1  0  0  0  0  0  0  0  0  0
   21.1010  -22.3556  -15.3368 C   0  0  0  0  0  0  0  0  0  0  0  0
   19.7676  -21.8929  -15.8595 C   0  0  0  0  0  0  0  0  0  0  0  0
   19.3744  -22.7725  -17.0496 C   0  0  0  0  0  0  0  0  0  0  0  0
   18.0939  -22.2909  -17.6718 C   0  0  0  0  0  0  0  0  0  0  0  0
   17.7413  -23.1740  -18.7832 N   0  0  0  0  0  0  0  0  0  0  0  0
   21.1888  -20.5255  -13.6706 C   0  0  0  0  0  0  0  0  0  0  0  0
   20.4686  -19.3724  -13.8448 O   0  0  0  0  0  0  0  0  0  0  0  0
   21.2413  -21.0092  -12.4913 O   0  0  0  0  0  0  0  0  0  0  0  0
  2  1  1  1
  2  3  1  0
  4  2  1  0
  4  5  2  0
  6  4  1  0
  7  6  1  0
  8  9  1  0
  7  8  1  1
  9 10  1  0
 11 12  1  0
 11 10  1  0
 13 15  1  0
 13  7  1  0
 14 13  2  0
 16 15  1  0
 16 22  1  0
 16 17  1  1
 18 17  1  0
 19 18  1  0
 20 19  1  0
 21 20  1  0
 22 24  2  0
 22 23  1  0
M  END
$$$$
