MYD.pdb
     RDKit          3D

 29 29  0  0  1  0  0  0  0  0999 V2000
   25.3984  -23.9024  -20.7032 C   0  0  0  0  0  0  0  0  0  0  0  0
   25.9453  -22.1980  -21.0173 S   0  0  0  0  0  0  0  0  0  0  0  0
   27.5657  -21.9502  -20.1959 C   0  0  0  0  0  0  0  0  0  0  0  0
   27.4384  -22.1351  -18.7194 C   0  0  0  0  0  0  0  0  0  0  0  0
   26.7533  -21.0476  -18.0066 C   0  0  2  0  0  0  0  0  0  0  0  0
   27.6028  -19.8676  -17.9236 N   0  0  0  0  0  0  0  0  0  0  0  0
   26.1937  -21.4056  -16.6856 C   0  0  0  0  0  0  0  0  0  0  0  0
   25.3734  -22.3566  -16.4950 O   0  0  0  0  0  0  0  0  0  0  0  0
   24.4998  -20.8218   -7.8456 O   0  0  0  0  0  0  0  0  0  0  0  0
   25.0828  -20.7765   -9.1280 C   0  0  0  0  0  0  0  0  0  0  0  0
   25.0078  -19.6417   -9.8999 C   0  0  0  0  0  0  0  0  0  0  0  0
   25.5809  -19.6106  -11.1554 C   0  0  0  0  0  0  0  0  0  0  0  0
   26.2460  -20.7008  -11.6862 C   0  0  0  0  0  0  0  0  0  0  0  0
   26.8153  -20.5887  -13.0194 C   0  0  0  0  0  0  0  0  0  0  0  0
   26.0059  -20.9575  -14.1848 C   0  0  2  0  0  0  0  0  0  0  0  0
   26.5452  -20.6820  -15.4934 N   0  0  0  0  0  0  0  0  0  0  0  0
   24.5652  -20.6433  -14.1524 C   0  0  0  0  0  0  0  0  0  0  0  0
   24.2032  -19.4826  -14.5070 O   0  0  0  0  0  0  0  0  0  0  0  0
   26.3032  -21.8224  -10.8848 C   0  0  0  0  0  0  0  0  0  0  0  0
   25.7339  -21.8641   -9.6284 C   0  0  0  0  0  0  0  0  0  0  0  0
   23.5432  -21.5118  -13.7646 N   0  0  0  0  0  0  0  0  0  0  0  0
   22.1340  -21.0459  -13.6669 C   0  0  1  0  0  0  0  0  0  0  0  0
   21.5466  -21.1108  -15.0255 C   0  0  0  0  0  0  0  0  0  0  0  0
   20.1196  -20.7547  -15.0677 C   0  0  0  0  0  0  0  0  0  0  0  0
   19.2191  -21.5991  -14.8661 O   0  0  0  0  0  0  0  0  0  0  0  0
   21.4255  -21.8200  -12.6232 C   0  0  0  0  0  0  0  0  0  0  0  0
   20.4065  -21.3190  -11.8363 O   0  0  0  0  0  0  0  0  0  0  0  0
   19.7082  -19.4608  -15.3345 O   0  0  0  0  0  0  0  0  0  0  0  0
   21.7526  -23.0276  -12.4110 O   0  0  0  0  0  0  0  0  0  0  0  0
  2  1  1  0
  3  2  1  0
  4  5  1  0
  4  3  1  0
  5  6  1  1
  7  8  2  0
  7  5  1  0
  9 10  1  0
 10 11  2  0
 11 12  1  0
 13 12  2  0
 13 14  1  0
 15 14  1  1
 15 16  1  0
 16  7  1  0
 17 21  1  0
 17 15  1  0
 18 17  2  0
 19 13  1  0
 20 10  1  0
 20 19  2  0
 22 21  1  0
 22 26  1  0
 22 23  1  6
 23 24  1  0
 24 25  2  0
 26 27  1  0
 28 24  1  0
 29 26  2  0
M  END
$$$$
