MYD.pdb
     RDKit          3D

 29 29  0  0  1  0  0  0  0  0999 V2000
   18.9768  -14.7454  -20.5571 C   0  0  0  0  0  0  0  0  0  0  0  0
   19.2166  -13.1444  -19.7313 S   0  0  0  0  0  0  0  0  0  0  0  0
   20.6768  -13.2751  -18.6300 C   0  0  0  0  0  0  0  0  0  0  0  0
   20.7958  -12.0590  -17.7712 C   0  0  0  0  0  0  0  0  0  0  0  0
   22.1698  -11.6156  -17.4966 C   0  0  2  0  0  0  0  0  0  0  0  0
   22.9868  -12.7249  -17.0241 N   0  0  0  0  0  0  0  0  0  0  0  0
   22.2938  -10.4372  -16.6122 C   0  0  0  0  0  0  0  0  0  0  0  0
   22.0117  -10.4450  -15.3736 O   0  0  0  0  0  0  0  0  0  0  0  0
   28.4615  -11.5946  -16.0317 O   0  0  0  0  0  0  0  0  0  0  0  0
   27.4615  -10.6019  -16.0608 C   0  0  0  0  0  0  0  0  0  0  0  0
   26.7945  -10.2353  -14.9162 C   0  0  0  0  0  0  0  0  0  0  0  0
   25.8152   -9.2632  -14.9582 C   0  0  0  0  0  0  0  0  0  0  0  0
   25.4655   -8.6236  -16.1335 C   0  0  0  0  0  0  0  0  0  0  0  0
   24.4180   -7.6160  -16.0936 C   0  0  0  0  0  0  0  0  0  0  0  0
   23.0198   -8.0189  -16.2731 C   0  0  2  0  0  0  0  0  0  0  0  0
   22.7513   -9.1658  -17.1049 N   0  0  0  0  0  0  0  0  0  0  0  0
   22.0238   -6.9615  -16.5286 C   0  0  0  0  0  0  0  0  0  0  0  0
   22.0258   -6.4074  -17.6675 O   0  0  0  0  0  0  0  0  0  0  0  0
   26.1550   -9.0150  -17.2625 C   0  0  0  0  0  0  0  0  0  0  0  0
   27.1356   -9.9855  -17.2317 C   0  0  0  0  0  0  0  0  0  0  0  0
   21.0622   -6.5030  -15.6262 N   0  0  0  0  0  0  0  0  0  0  0  0
   20.0407   -5.5017  -16.0339 C   0  0  1  0  0  0  0  0  0  0  0  0
   19.3848   -6.0071  -17.2624 C   0  0  0  0  0  0  0  0  0  0  0  0
   18.2432   -5.1883  -17.6999 C   0  0  0  0  0  0  0  0  0  0  0  0
   18.3183   -3.9436  -17.7968 O   0  0  0  0  0  0  0  0  0  0  0  0
   19.1394   -5.2185  -14.8946 C   0  0  0  0  0  0  0  0  0  0  0  0
   18.3117   -4.1157  -14.8092 O   0  0  0  0  0  0  0  0  0  0  0  0
   17.0276   -5.7636  -18.0254 O   0  0  0  0  0  0  0  0  0  0  0  0
   19.1013   -6.0225  -13.9135 O   0  0  0  0  0  0  0  0  0  0  0  0
  2  1  1  0
  3  2  1  0
  4  5  1  0
  4  3  1  0
  5  6  1  1
  7  8  2  0
  7  5  1  0
  9 10  1  0
 10 11  2  0
 11 12  1  0
 13 12  2  0
 13 14  1  0
 15 14  1  6
 15 16  1  0
 16  7  1  0
 17 21  1  0
 17 15  1  0
 18 17  2  0
 19 13  1  0
 20 10  1  0
 20 19  2  0
 22 21  1  0
 22 26  1  0
 22 23  1  6
 23 24  1  0
 24 25  2  0
 26 27  1  0
 28 24  1  0
 29 26  2  0
M  END
$$$$
