MYD.pdb
     RDKit          3D

 29 29  0  0  1  0  0  0  0  0999 V2000
   28.2703  -22.2470  -22.6190 C   0  0  0  0  0  0  0  0  0  0  0  0
   27.9272  -22.5809  -20.8659 S   0  0  0  0  0  0  0  0  0  0  0  0
   26.2363  -21.9836  -20.4838 C   0  0  0  0  0  0  0  0  0  0  0  0
   25.8921  -22.2620  -19.0574 C   0  0  0  0  0  0  0  0  0  0  0  0
   26.2698  -21.2102  -18.1029 C   0  0  2  0  0  0  0  0  0  0  0  0
   27.7052  -20.9668  -18.1423 N   0  0  0  0  0  0  0  0  0  0  0  0
   25.7921  -21.4063  -16.7174 C   0  0  0  0  0  0  0  0  0  0  0  0
   24.7468  -22.0602  -16.4117 O   0  0  0  0  0  0  0  0  0  0  0  0
   25.3233  -20.4052   -7.7605 O   0  0  0  0  0  0  0  0  0  0  0  0
   25.7496  -20.5060   -9.1000 C   0  0  0  0  0  0  0  0  0  0  0  0
   26.0508  -19.3830   -9.8333 C   0  0  0  0  0  0  0  0  0  0  0  0
   26.4651  -19.4947  -11.1454 C   0  0  0  0  0  0  0  0  0  0  0  0
   26.5945  -20.7204  -11.7728 C   0  0  0  0  0  0  0  0  0  0  0  0
   27.0296  -20.7511  -13.1598 C   0  0  0  0  0  0  0  0  0  0  0  0
   26.0403  -20.9474  -14.2238 C   0  0  2  0  0  0  0  0  0  0  0  0
   26.4932  -20.8540  -15.5896 N   0  0  0  0  0  0  0  0  0  0  0  0
   24.7286  -20.2890  -14.0773 C   0  0  0  0  0  0  0  0  0  0  0  0
   24.6226  -19.0863  -14.4599 O   0  0  0  0  0  0  0  0  0  0  0  0
   26.2851  -21.8261  -11.0079 C   0  0  0  0  0  0  0  0  0  0  0  0
   25.8702  -21.7258   -9.6956 C   0  0  0  0  0  0  0  0  0  0  0  0
   23.5724  -20.8685  -13.5513 N   0  0  0  0  0  0  0  0  0  0  0  0
   22.2908  -20.1156  -13.4983 C   0  0  1  0  0  0  0  0  0  0  0  0
   21.9410  -19.7303  -14.8854 C   0  0  0  0  0  0  0  0  0  0  0  0
   20.6252  -19.0821  -15.0026 C   0  0  0  0  0  0  0  0  0  0  0  0
   19.6084  -19.5380  -14.4345 O   0  0  0  0  0  0  0  0  0  0  0  0
   21.2742  -20.9144  -12.7778 C   0  0  0  0  0  0  0  0  0  0  0  0
   21.2765  -22.2937  -12.6999 O   0  0  0  0  0  0  0  0  0  0  0  0
   20.4538  -17.9316  -15.7519 O   0  0  0  0  0  0  0  0  0  0  0  0
   20.3225  -20.3231  -12.1819 O   0  0  0  0  0  0  0  0  0  0  0  0
  2  1  1  0
  3  2  1  0
  4  5  1  0
  4  3  1  0
  5  6  1  1
  7  8  2  0
  7  5  1  0
  9 10  1  0
 10 11  2  0
 11 12  1  0
 13 12  2  0
 13 14  1  0
 15 14  1  1
 15 16  1  0
 16  7  1  0
 17 21  1  0
 17 15  1  0
 18 17  2  0
 19 13  1  0
 20 10  1  0
 20 19  2  0
 22 21  1  0
 22 26  1  0
 22 23  1  6
 23 24  1  0
 24 25  2  0
 26 27  1  0
 28 24  1  0
 29 26  2  0
M  END
$$$$
