MYD.pdb
     RDKit          3D

 29 29  0  0  1  0  0  0  0  0999 V2000
   28.8706  -19.6808  -21.4444 C   0  0  0  0  0  0  0  0  0  0  0  0
   28.0301  -20.0718  -19.8813 S   0  0  0  0  0  0  0  0  0  0  0  0
   27.3854  -21.7851  -19.9844 C   0  0  0  0  0  0  0  0  0  0  0  0
   26.6067  -22.1268  -18.7566 C   0  0  0  0  0  0  0  0  0  0  0  0
   27.4088  -22.3490  -17.5453 C   0  0  2  0  0  0  0  0  0  0  0  0
   28.3204  -23.4702  -17.7268 N   0  0  0  0  0  0  0  0  0  0  0  0
   26.6415  -22.4736  -16.2875 C   0  0  0  0  0  0  0  0  0  0  0  0
   26.1928  -23.5723  -15.8344 O   0  0  0  0  0  0  0  0  0  0  0  0
   23.1041  -20.7056   -8.2758 O   0  0  0  0  0  0  0  0  0  0  0  0
   23.8658  -20.6969   -9.4616 C   0  0  0  0  0  0  0  0  0  0  0  0
   23.3458  -20.2008  -10.6333 C   0  0  0  0  0  0  0  0  0  0  0  0
   24.1012  -20.2000  -11.7888 C   0  0  0  0  0  0  0  0  0  0  0  0
   25.3942  -20.6896  -11.8211 C   0  0  0  0  0  0  0  0  0  0  0  0
   26.1197  -20.6593  -13.0808 C   0  0  0  0  0  0  0  0  0  0  0  0
   25.5890  -21.3855  -14.2386 C   0  0  2  0  0  0  0  0  0  0  0  0
   26.3387  -21.3304  -15.4691 N   0  0  0  0  0  0  0  0  0  0  0  0
   24.1448  -21.2784  -14.5182 C   0  0  0  0  0  0  0  0  0  0  0  0
   23.7132  -20.1901  -15.0013 O   0  0  0  0  0  0  0  0  0  0  0  0
   25.8849  -21.1788  -10.6280 C   0  0  0  0  0  0  0  0  0  0  0  0
   25.1385  -21.1843   -9.4674 C   0  0  0  0  0  0  0  0  0  0  0  0
   23.1898  -22.2735  -14.3011 N   0  0  0  0  0  0  0  0  0  0  0  0
   21.7382  -21.9955  -14.4683 C   0  0  1  0  0  0  0  0  0  0  0  0
   21.2052  -22.9743  -15.4445 C   0  0  0  0  0  0  0  0  0  0  0  0
   21.4201  -22.5840  -16.8469 C   0  0  0  0  0  0  0  0  0  0  0  0
   21.9459  -21.4927  -17.1585 O   0  0  0  0  0  0  0  0  0  0  0  0
   21.0780  -21.9850  -13.1437 C   0  0  0  0  0  0  0  0  0  0  0  0
   21.5016  -22.7217  -12.0544 O   0  0  0  0  0  0  0  0  0  0  0  0
   21.0471  -23.4131  -17.8900 O   0  0  0  0  0  0  0  0  0  0  0  0
   20.0507  -21.2622  -12.9635 O   0  0  0  0  0  0  0  0  0  0  0  0
  2  1  1  0
  3  2  1  0
  4  5  1  0
  4  3  1  0
  5  6  1  6
  7  8  2  0
  7  5  1  0
  9 10  1  0
 10 11  2  0
 11 12  1  0
 13 12  2  0
 13 14  1  0
 15 14  1  1
 15 16  1  0
 16  7  1  0
 17 21  1  0
 17 15  1  0
 18 17  2  0
 19 13  1  0
 20 10  1  0
 20 19  2  0
 22 21  1  0
 22 26  1  0
 22 23  1  6
 23 24  1  0
 24 25  2  0
 26 27  1  0
 28 24  1  0
 29 26  2  0
M  END
$$$$
