MYD.pdb
     RDKit          3D

 29 29  0  0  1  0  0  0  0  0999 V2000
   28.2994  -16.6787  -16.6502 C   0  0  0  0  0  0  0  0  0  0  0  0
   27.6035  -15.0924  -16.1004 S   0  0  0  0  0  0  0  0  0  0  0  0
   25.8062  -15.3172  -15.8160 C   0  0  0  0  0  0  0  0  0  0  0  0
   25.1915  -14.0493  -15.3208 C   0  0  0  0  0  0  0  0  0  0  0  0
   24.6397  -13.1701  -16.3612 C   0  0  2  0  0  0  0  0  0  0  0  0
   25.4797  -13.1859  -17.5509 N   0  0  0  0  0  0  0  0  0  0  0  0
   24.3358  -11.7883  -15.9317 C   0  0  0  0  0  0  0  0  0  0  0  0
   23.7167  -11.4964  -14.8615 O   0  0  0  0  0  0  0  0  0  0  0  0
   23.9293   -2.7854  -16.8953 O   0  0  0  0  0  0  0  0  0  0  0  0
   24.2999   -4.1435  -16.8268 C   0  0  0  0  0  0  0  0  0  0  0  0
   24.6892   -4.8287  -17.9531 C   0  0  0  0  0  0  0  0  0  0  0  0
   25.0475   -6.1594  -17.8735 C   0  0  0  0  0  0  0  0  0  0  0  0
   25.0323   -6.8536  -16.6774 C   0  0  0  0  0  0  0  0  0  0  0  0
   25.4172   -8.2557  -16.6803 C   0  0  0  0  0  0  0  0  0  0  0  0
   24.4139   -9.2816  -16.3796 C   0  0  2  0  0  0  0  0  0  0  0  0
   24.7268  -10.6483  -16.7165 N   0  0  0  0  0  0  0  0  0  0  0  0
   23.0060   -8.9873  -16.7060 C   0  0  0  0  0  0  0  0  0  0  0  0
   22.6154   -9.1987  -17.8921 O   0  0  0  0  0  0  0  0  0  0  0  0
   24.6377   -6.1357  -15.5673 C   0  0  0  0  0  0  0  0  0  0  0  0
   24.2775   -4.8053  -15.6358 C   0  0  0  0  0  0  0  0  0  0  0  0
   22.0441   -8.4919  -15.8237 N   0  0  0  0  0  0  0  0  0  0  0  0
   20.6564   -8.2095  -16.2785 C   0  0  1  0  0  0  0  0  0  0  0  0
   19.7385   -9.0153  -15.4398 C   0  0  0  0  0  0  0  0  0  0  0  0
   19.7396  -10.4481  -15.7751 C   0  0  0  0  0  0  0  0  0  0  0  0
   20.0847  -10.8651  -16.9027 O   0  0  0  0  0  0  0  0  0  0  0  0
   20.4179   -6.7488  -16.2705 C   0  0  0  0  0  0  0  0  0  0  0  0
   19.5051   -6.1023  -17.0814 O   0  0  0  0  0  0  0  0  0  0  0  0
   19.3558  -11.4038  -14.8510 O   0  0  0  0  0  0  0  0  0  0  0  0
   21.0809   -6.0120  -15.4780 O   0  0  0  0  0  0  0  0  0  0  0  0
  2  1  1  0
  3  2  1  0
  4  5  1  0
  4  3  1  0
  5  6  1  6
  7  8  2  0
  7  5  1  0
  9 10  1  0
 10 11  2  0
 11 12  1  0
 13 12  2  0
 13 14  1  0
 15 14  1  6
 15 16  1  0
 16  7  1  0
 17 21  1  0
 17 15  1  0
 18 17  2  0
 19 13  1  0
 20 10  1  0
 20 19  2  0
 22 21  1  0
 22 26  1  0
 22 23  1  1
 23 24  1  0
 24 25  2  0
 26 27  1  0
 28 24  1  0
 29 26  2  0
M  END
$$$$
