MYD.pdb
     RDKit          3D

 29 29  0  0  1  0  0  0  0  0999 V2000
   27.5189  -20.8070  -19.4884 C   0  0  0  0  0  0  0  0  0  0  0  0
   28.0473  -22.5442  -19.4121 S   0  0  0  0  0  0  0  0  0  0  0  0
   26.5650  -23.6078  -19.5951 C   0  0  0  0  0  0  0  0  0  0  0  0
   25.6631  -23.4573  -18.4142 C   0  0  0  0  0  0  0  0  0  0  0  0
   26.2295  -23.8958  -17.1309 C   0  0  2  0  0  0  0  0  0  0  0  0
   26.5946  -25.3048  -17.1809 N   0  0  0  0  0  0  0  0  0  0  0  0
   25.4125  -23.5906  -15.9369 C   0  0  0  0  0  0  0  0  0  0  0  0
   24.5193  -24.3639  -15.4701 O   0  0  0  0  0  0  0  0  0  0  0  0
   22.7399  -20.1061   -8.1278 O   0  0  0  0  0  0  0  0  0  0  0  0
   23.4000  -20.3838   -9.3417 C   0  0  0  0  0  0  0  0  0  0  0  0
   24.5406  -21.1504   -9.3679 C   0  0  0  0  0  0  0  0  0  0  0  0
   25.1794  -21.4134  -10.5630 C   0  0  0  0  0  0  0  0  0  0  0  0
   24.7098  -20.9265  -11.7693 C   0  0  0  0  0  0  0  0  0  0  0  0
   25.4456  -21.2431  -12.9827 C   0  0  0  0  0  0  0  0  0  0  0  0
   24.7839  -21.9928  -14.0549 C   0  0  2  0  0  0  0  0  0  0  0  0
   25.5734  -22.3643  -15.2028 N   0  0  0  0  0  0  0  0  0  0  0  0
   23.4435  -21.5496  -14.4819 C   0  0  0  0  0  0  0  0  0  0  0  0
   23.3713  -20.6566  -15.3771 O   0  0  0  0  0  0  0  0  0  0  0  0
   23.5631  -20.1619  -11.7067 C   0  0  0  0  0  0  0  0  0  0  0  0
   22.9167  -19.8930  -10.5176 C   0  0  0  0  0  0  0  0  0  0  0  0
   22.2258  -22.0243  -13.9908 N   0  0  0  0  0  0  0  0  0  0  0  0
   20.9338  -21.4532  -14.4566 C   0  0  1  0  0  0  0  0  0  0  0  0
   20.7538  -21.8510  -15.8723 C   0  0  0  0  0  0  0  0  0  0  0  0
   19.4498  -21.4620  -16.4320 C   0  0  0  0  0  0  0  0  0  0  0  0
   18.6150  -20.8037  -15.7731 O   0  0  0  0  0  0  0  0  0  0  0  0
   19.8499  -21.8570  -13.5331 C   0  0  0  0  0  0  0  0  0  0  0  0
   18.6322  -21.2128  -13.4294 O   0  0  0  0  0  0  0  0  0  0  0  0
   19.0871  -21.8102  -17.7212 O   0  0  0  0  0  0  0  0  0  0  0  0
   20.0190  -22.8575  -12.7710 O   0  0  0  0  0  0  0  0  0  0  0  0
  2  1  1  0
  3  2  1  0
  4  5  1  0
  4  3  1  0
  5  6  1  6
  7  8  2  0
  7  5  1  0
  9 10  1  0
 10 11  2  0
 11 12  1  0
 13 12  2  0
 13 14  1  0
 15 14  1  6
 15 16  1  0
 16  7  1  0
 17 21  1  0
 17 15  1  0
 18 17  2  0
 19 13  1  0
 20 10  1  0
 20 19  2  0
 22 21  1  0
 22 26  1  0
 22 23  1  6
 23 24  1  0
 24 25  2  0
 26 27  1  0
 28 24  1  0
 29 26  2  0
M  END
$$$$
