MYD.pdb
     RDKit          3D

 29 29  0  0  1  0  0  0  0  0999 V2000
   17.4844  -33.1793   -5.5074 C   0  0  0  0  0  0  0  0  0  0  0  0
   17.3756  -32.6304   -7.2364 S   0  0  0  0  0  0  0  0  0  0  0  0
   18.2343  -33.8619   -8.2890 C   0  0  0  0  0  0  0  0  0  0  0  0
   19.4977  -34.3187   -7.6366 C   0  0  0  0  0  0  0  0  0  0  0  0
   20.7359  -33.7898   -8.2256 C   0  0  2  0  0  0  0  0  0  0  0  0
   20.8021  -34.0916   -9.6488 N   0  0  0  0  0  0  0  0  0  0  0  0
   21.9848  -34.1726   -7.5326 C   0  0  0  0  0  0  0  0  0  0  0  0
   22.5107  -35.3270   -7.6011 O   0  0  0  0  0  0  0  0  0  0  0  0
   29.1576  -33.6803   -2.1172 O   0  0  0  0  0  0  0  0  0  0  0  0
   28.0953  -33.4025   -3.0008 C   0  0  0  0  0  0  0  0  0  0  0  0
   26.9153  -32.8667   -2.5427 C   0  0  0  0  0  0  0  0  0  0  0  0
   25.8813  -32.6012   -3.4179 C   0  0  0  0  0  0  0  0  0  0  0  0
   25.9824  -32.8572   -4.7732 C   0  0  0  0  0  0  0  0  0  0  0  0
   24.8443  -32.5557   -5.6264 C   0  0  0  0  0  0  0  0  0  0  0  0
   23.8411  -33.5926   -5.8871 C   0  0  2  0  0  0  0  0  0  0  0  0
   22.7091  -33.2425   -6.7087 N   0  0  0  0  0  0  0  0  0  0  0  0
   23.4073  -34.4337   -4.7559 C   0  0  0  0  0  0  0  0  0  0  0  0
   22.2037  -34.3383   -4.3731 O   0  0  0  0  0  0  0  0  0  0  0  0
   27.1800  -33.3938   -5.1989 C   0  0  0  0  0  0  0  0  0  0  0  0
   28.2200  -33.6630   -4.3326 C   0  0  0  0  0  0  0  0  0  0  0  0
   24.2032  -35.3405   -4.0535 N   0  0  0  0  0  0  0  0  0  0  0  0
   23.6672  -36.0905   -2.8861 C   0  0  1  0  0  0  0  0  0  0  0  0
   22.4778  -36.8442   -3.3470 C   0  0  0  0  0  0  0  0  0  0  0  0
   21.9146  -37.7388   -2.3235 C   0  0  0  0  0  0  0  0  0  0  0  0
   22.3655  -37.7794   -1.1575 O   0  0  0  0  0  0  0  0  0  0  0  0
   24.7457  -36.9016   -2.2783 C   0  0  0  0  0  0  0  0  0  0  0  0
   24.9917  -36.9823   -0.9213 O   0  0  0  0  0  0  0  0  0  0  0  0
   20.8541  -38.5807   -2.6082 O   0  0  0  0  0  0  0  0  0  0  0  0
   25.5147  -37.5795   -3.0264 O   0  0  0  0  0  0  0  0  0  0  0  0
  2  1  1  0
  3  2  1  0
  4  5  1  0
  4  3  1  0
  5  6  1  6
  7  8  2  0
  7  5  1  0
  9 10  1  0
 10 11  2  0
 11 12  1  0
 13 12  2  0
 13 14  1  0
 15 14  1  1
 15 16  1  0
 16  7  1  0
 17 21  1  0
 17 15  1  0
 18 17  2  0
 19 13  1  0
 20 10  1  0
 20 19  2  0
 22 21  1  0
 22 26  1  0
 22 23  1  6
 23 24  1  0
 24 25  2  0
 26 27  1  0
 28 24  1  0
 29 26  2  0
M  END
$$$$
