QRH.pdb
     RDKit          3D

 31 31  0  0  1  0  0  0  0  0999 V2000
    0.7201  -24.7518   20.9883 N   0  0  0  0  0  0  0  0  0  0  0  0
    1.4921  -23.9208   20.1207 C   0  0  0  0  0  0  0  0  0  0  0  0
    1.0508  -23.6666   18.9815 O   0  0  0  0  0  0  0  0  0  0  0  0
    2.7980  -23.3615   20.5500 C   0  0  0  0  0  0  0  0  0  0  0  0
    3.1403  -23.8913   21.9091 C   0  0  0  0  0  0  0  0  0  0  0  0
    3.4425  -22.7859   22.9020 C   0  0  2  0  0  0  0  0  0  0  0  0
    2.8502  -21.5362   22.5238 N   0  0  0  0  0  0  0  0  0  0  0  0
    4.9382  -22.6121   22.8533 C   0  0  0  0  0  0  0  0  0  0  0  0
    5.7082  -23.5939   22.9832 O   0  0  0  0  0  0  0  0  0  0  0  0
   12.0615  -19.4176   20.5372 N   0  0  0  0  0  0  0  0  0  0  0  0
   11.3318  -20.0045   19.4696 C   0  0  0  0  0  0  0  0  0  0  0  0
   11.9434  -20.7223   18.5759 N   0  0  0  0  0  0  0  0  0  0  0  0
    9.9284  -19.8071   19.3739 N   0  0  0  0  0  0  0  0  0  0  0  0
    9.2220  -19.0571   20.3882 C   0  0  0  0  0  0  0  0  0  0  0  0
    8.8232  -19.9459   21.5425 C   0  0  0  0  0  0  0  0  0  0  0  0
    7.3503  -20.2635   21.5555 C   0  0  0  0  0  0  0  0  0  0  0  0
    6.9336  -21.0697   22.7042 C   0  0  2  0  0  0  0  0  0  0  0  0
    5.5168  -21.3326   22.6584 N   0  0  0  0  0  0  0  0  0  0  0  0
    7.2699  -20.5208   24.0303 C   0  0  0  0  0  0  0  0  0  0  0  0
    6.6693  -19.4868   24.4094 O   0  0  0  0  0  0  0  0  0  0  0  0
   11.4558  -21.2033   17.8078 N   0  0  0  0  0  0  0  0  0  0  0  0
    8.2240  -21.0854   24.8989 C   0  0  2  0  0  0  0  0  0  0  0  0
    8.4889  -20.5952   26.2599 C   0  0  0  0  0  0  0  0  0  0  0  0
    8.3851  -21.6763   27.2629 C   0  0  0  0  0  0  0  0  0  0  0  0
    6.9845  -22.0883   27.4726 C   0  0  0  0  0  0  0  0  0  0  0  0
    5.8184  -21.5924   26.9420 N   0  0  0  0  0  0  0  0  0  0  0  0
    4.7756  -22.3462   27.3400 C   0  0  0  0  0  0  0  0  0  0  0  0
    5.2524  -23.3216   28.1178 N   0  0  0  0  0  0  0  0  0  0  0  0
    6.5803  -23.1799   28.2068 C   0  0  0  0  0  0  0  0  0  0  0  0
    9.9101  -20.1160   26.2738 O   0  0  0  0  0  0  0  0  0  0  0  0
   10.4961  -19.5731   27.3545 O   0  0  0  0  0  0  0  0  0  0  0  0
  2  3  2  0
  2  1  1  0
  4  2  1  0
  5  4  1  0
  6  5  1  0
  6  7  1  6
  8  9  2  0
  8  6  1  0
 10 11  1  0
 11 12  2  0
 13 11  1  0
 13 14  1  0
 14 15  1  0
 15 16  1  0
 17 16  1  6
 17 18  1  0
 18  8  1  0
 19 21  1  0
 19 17  1  0
 20 19  2  0
 22 21  1  0
 22 29  1  0
 23 24  1  0
 22 23  1  6
 24 25  2  0
 25 26  1  0
 27 26  1  0
 28 24  1  0
 28 27  2  0
 29 30  1  0
 31 29  2  0
M  END
$$$$
