QRH.pdb
     RDKit          3D

 31 31  0  0  1  0  0  0  0  0999 V2000
    6.9922  -16.1897   14.5378 N   0  0  0  0  0  0  0  0  0  0  0  0
    7.8386  -15.0855   14.2156 C   0  0  0  0  0  0  0  0  0  0  0  0
    8.0163  -14.7939   13.0154 O   0  0  0  0  0  0  0  0  0  0  0  0
    8.5031  -14.2886   15.2768 C   0  0  0  0  0  0  0  0  0  0  0  0
    8.0877  -14.8086   16.6193 C   0  0  0  0  0  0  0  0  0  0  0  0
    8.7174  -14.0337   17.7603 C   0  0  2  0  0  0  0  0  0  0  0  0
    8.9732  -12.6658   17.4149 N   0  0  0  0  0  0  0  0  0  0  0  0
   10.0485  -14.6978   17.9989 C   0  0  0  0  0  0  0  0  0  0  0  0
   10.1186  -15.9054   18.3315 O   0  0  0  0  0  0  0  0  0  0  0  0
   17.8436  -13.1692   14.2197 N   0  0  0  0  0  0  0  0  0  0  0  0
   18.0771  -14.2471   15.1143 C   0  0  0  0  0  0  0  0  0  0  0  0
   19.1693  -14.9451   15.0267 N   0  0  0  0  0  0  0  0  0  0  0  0
   17.1148  -14.5676   16.1088 N   0  0  0  0  0  0  0  0  0  0  0  0
   15.8602  -13.8520   16.1735 C   0  0  0  0  0  0  0  0  0  0  0  0
   14.8955  -14.5303   17.1172 C   0  0  0  0  0  0  0  0  0  0  0  0
   13.5425  -13.8679   17.1478 C   0  0  0  0  0  0  0  0  0  0  0  0
   12.5709  -14.5561   17.9995 C   0  0  2  0  0  0  0  0  0  0  0  0
   11.2595  -13.9753   17.8531 N   0  0  0  0  0  0  0  0  0  0  0  0
   12.9035  -14.6166   19.4343 C   0  0  0  0  0  0  0  0  0  0  0  0
   13.1261  -13.5371   20.0334 O   0  0  0  0  0  0  0  0  0  0  0  0
   19.4127  -15.6977   15.6851 N   0  0  0  0  0  0  0  0  0  0  0  0
   12.9866  -15.8115   20.1751 C   0  0  2  0  0  0  0  0  0  0  0  0
   13.2279  -15.8653   21.6248 C   0  0  0  0  0  0  0  0  0  0  0  0
   12.3553  -16.8557   22.2904 C   0  0  0  0  0  0  0  0  0  0  0  0
   10.9569  -16.3909   22.3523 C   0  0  0  0  0  0  0  0  0  0  0  0
   10.3802  -15.2303   21.8966 N   0  0  0  0  0  0  0  0  0  0  0  0
    9.0470  -15.2761   22.0824 C   0  0  0  0  0  0  0  0  0  0  0  0
    8.7556  -16.4496   22.6496 N   0  0  0  0  0  0  0  0  0  0  0  0
    9.8947  -17.1318   22.8180 C   0  0  0  0  0  0  0  0  0  0  0  0
   14.6420  -16.3308   21.8070 O   0  0  0  0  0  0  0  0  0  0  0  0
   15.2406  -16.4230   23.0067 O   0  0  0  0  0  0  0  0  0  0  0  0
  2  3  2  0
  2  1  1  0
  4  2  1  0
  5  4  1  0
  6  5  1  0
  6  7  1  6
  8  9  2  0
  8  6  1  0
 10 11  1  0
 11 12  2  0
 13 11  1  0
 13 14  1  0
 14 15  1  0
 15 16  1  0
 17 16  1  6
 17 18  1  0
 18  8  1  0
 19 21  1  0
 19 17  1  0
 20 19  2  0
 22 21  1  0
 22 29  1  0
 23 24  1  0
 22 23  1  6
 24 25  2  0
 25 26  1  0
 27 26  1  0
 28 24  1  0
 28 27  2  0
 29 30  1  0
 31 29  2  0
M  END
$$$$
