QRH.pdb
     RDKit          3D

 31 31  0  0  1  0  0  0  0  0999 V2000
    8.9796  -11.8109   18.7783 N   0  0  0  0  0  0  0  0  0  0  0  0
    8.0623  -12.6832   18.1172 C   0  0  0  0  0  0  0  0  0  0  0  0
    7.5383  -12.3072   17.0489 O   0  0  0  0  0  0  0  0  0  0  0  0
    7.7265  -14.0161   18.6770 C   0  0  0  0  0  0  0  0  0  0  0  0
    8.4291  -14.1930   19.9886 C   0  0  0  0  0  0  0  0  0  0  0  0
    9.0101  -15.5840   20.1509 C   0  0  2  0  0  0  0  0  0  0  0  0
    8.4668  -16.5157   19.2061 N   0  0  0  0  0  0  0  0  0  0  0  0
    8.5830  -16.0305   21.5250 C   0  0  0  0  0  0  0  0  0  0  0  0
    7.4176  -15.8216   21.9399 O   0  0  0  0  0  0  0  0  0  0  0  0
    8.8437  -22.8821   22.5855 N   0  0  0  0  0  0  0  0  0  0  0  0
    7.5681  -22.4499   22.1354 C   0  0  0  0  0  0  0  0  0  0  0  0
    6.6607  -23.3201   21.8075 N   0  0  0  0  0  0  0  0  0  0  0  0
    7.2796  -21.0623   22.0404 N   0  0  0  0  0  0  0  0  0  0  0  0
    7.7177  -20.1494   23.0724 C   0  0  0  0  0  0  0  0  0  0  0  0
    9.0519  -19.5337   22.7230 C   0  0  0  0  0  0  0  0  0  0  0  0
    9.5788  -18.6254   23.8036 C   0  0  0  0  0  0  0  0  0  0  0  0
    9.1289  -17.2382   23.6758 C   0  0  2  0  0  0  0  0  0  0  0  0
    9.4874  -16.7002   22.3872 N   0  0  0  0  0  0  0  0  0  0  0  0
    9.5980  -16.3116   24.7219 C   0  0  0  0  0  0  0  0  0  0  0  0
   10.7638  -15.8581   24.6275 O   0  0  0  0  0  0  0  0  0  0  0  0
    5.7251  -23.0592   21.4674 N   0  0  0  0  0  0  0  0  0  0  0  0
    8.8182  -15.9032   25.8213 C   0  0  2  0  0  0  0  0  0  0  0  0
    9.3042  -15.0184   26.8907 C   0  0  0  0  0  0  0  0  0  0  0  0
    8.1911  -14.3622   27.6089 C   0  0  0  0  0  0  0  0  0  0  0  0
    7.5023  -13.3758   26.7557 C   0  0  0  0  0  0  0  0  0  0  0  0
    7.7860  -12.9427   25.4832 N   0  0  0  0  0  0  0  0  0  0  0  0
    6.8233  -12.1017   25.0589 C   0  0  0  0  0  0  0  0  0  0  0  0
    5.9225  -11.9877   26.0384 N   0  0  0  0  0  0  0  0  0  0  0  0
    6.3172  -12.7489   27.0660 C   0  0  0  0  0  0  0  0  0  0  0  0
   10.0133  -15.8931   27.8817 O   0  0  0  0  0  0  0  0  0  0  0  0
   10.1267  -17.2250   27.7431 O   0  0  0  0  0  0  0  0  0  0  0  0
  2  3  2  0
  2  1  1  0
  4  2  1  0
  5  4  1  0
  6  5  1  0
  6  7  1  6
  8  9  2  0
  8  6  1  0
 10 11  1  0
 11 12  2  0
 13 11  1  0
 13 14  1  0
 14 15  1  0
 15 16  1  0
 17 16  1  1
 17 18  1  0
 18  8  1  0
 19 21  1  0
 19 17  1  0
 20 19  2  0
 22 21  1  0
 22 29  1  0
 23 24  1  0
 22 23  1  6
 24 25  2  0
 25 26  1  0
 27 26  1  0
 28 24  1  0
 28 27  2  0
 29 30  1  0
 31 29  2  0
M  END
$$$$
