QRH.pdb
     RDKit          3D

 31 31  0  0  1  0  0  0  0  0999 V2000
   17.4029  -16.9476   12.1889 N   0  0  0  0  0  0  0  0  0  0  0  0
   17.4816  -15.8489   11.2799 C   0  0  0  0  0  0  0  0  0  0  0  0
   18.3550  -15.8667   10.3890 O   0  0  0  0  0  0  0  0  0  0  0  0
   16.5494  -14.6982   11.3793 C   0  0  0  0  0  0  0  0  0  0  0  0
   15.6303  -14.9054   12.5444 C   0  0  0  0  0  0  0  0  0  0  0  0
   14.6275  -13.7786   12.6980 C   0  0  2  0  0  0  0  0  0  0  0  0
   14.8287  -12.7345   11.7361 N   0  0  0  0  0  0  0  0  0  0  0  0
   14.8959  -13.1969   14.0616 C   0  0  0  0  0  0  0  0  0  0  0  0
   15.4970  -12.1034   14.1916 O   0  0  0  0  0  0  0  0  0  0  0  0
   14.1893  -18.4382   18.1301 N   0  0  0  0  0  0  0  0  0  0  0  0
   12.8304  -18.2311   17.7736 C   0  0  0  0  0  0  0  0  0  0  0  0
   12.1922  -19.1258   17.0806 N   0  0  0  0  0  0  0  0  0  0  0  0
   12.1633  -17.0423   18.1727 N   0  0  0  0  0  0  0  0  0  0  0  0
   12.9020  -15.9503   18.7662 C   0  0  0  0  0  0  0  0  0  0  0  0
   13.9306  -15.4038   17.8047 C   0  0  0  0  0  0  0  0  0  0  0  0
   13.7372  -13.9387   17.5104 C   0  0  0  0  0  0  0  0  0  0  0  0
   14.7215  -13.3929   16.5743 C   0  0  2  0  0  0  0  0  0  0  0  0
   14.4752  -13.8699   15.2363 N   0  0  0  0  0  0  0  0  0  0  0  0
   16.1350  -13.6402   16.9116 C   0  0  0  0  0  0  0  0  0  0  0  0
   16.6845  -14.6617   16.4340 O   0  0  0  0  0  0  0  0  0  0  0  0
   11.1922  -19.0526   16.8487 N   0  0  0  0  0  0  0  0  0  0  0  0
   16.9076  -12.8004   17.7370 C   0  0  2  0  0  0  0  0  0  0  0  0
   18.3364  -13.0094   18.0154 C   0  0  0  0  0  0  0  0  0  0  0  0
   19.0132  -11.7494   18.3891 C   0  0  0  0  0  0  0  0  0  0  0  0
   20.4528  -11.9589   18.6321 C   0  0  0  0  0  0  0  0  0  0  0  0
   21.2912  -12.9659   18.2194 N   0  0  0  0  0  0  0  0  0  0  0  0
   22.5557  -12.6938   18.5950 C   0  0  0  0  0  0  0  0  0  0  0  0
   22.5450  -11.5255   19.2423 N   0  0  0  0  0  0  0  0  0  0  0  0
   21.2866  -11.0708   19.2724 C   0  0  0  0  0  0  0  0  0  0  0  0
   18.4127  -13.9202   19.2046 O   0  0  0  0  0  0  0  0  0  0  0  0
   19.2975  -14.9263   19.3091 O   0  0  0  0  0  0  0  0  0  0  0  0
  2  3  2  0
  2  1  1  0
  4  2  1  0
  5  4  1  0
  6  5  1  0
  6  7  1  6
  8  9  2  0
  8  6  1  0
 10 11  1  0
 11 12  2  0
 13 11  1  0
 13 14  1  0
 14 15  1  0
 15 16  1  0
 17 16  1  1
 17 18  1  0
 18  8  1  0
 19 21  1  0
 19 17  1  0
 20 19  2  0
 22 21  1  0
 22 29  1  0
 23 24  1  0
 22 23  1  1
 24 25  2  0
 25 26  1  0
 27 26  1  0
 28 24  1  0
 28 27  2  0
 29 30  1  0
 31 29  2  0
M  END
$$$$
