QRH.pdb
     RDKit          3D

 31 31  0  0  1  0  0  0  0  0999 V2000
   15.7715  -13.5024   18.4913 N   0  0  0  0  0  0  0  0  0  0  0  0
   15.0236  -14.0557   17.4079 C   0  0  0  0  0  0  0  0  0  0  0  0
   15.3342  -13.7425   16.2406 O   0  0  0  0  0  0  0  0  0  0  0  0
   13.8938  -14.9878   17.6481 C   0  0  0  0  0  0  0  0  0  0  0  0
   13.7372  -15.2057   19.1223 C   0  0  0  0  0  0  0  0  0  0  0  0
   12.6097  -16.1654   19.4489 C   0  0  2  0  0  0  0  0  0  0  0  0
   11.6051  -16.1949   18.4263 N   0  0  0  0  0  0  0  0  0  0  0  0
   11.9711  -15.6114   20.6960 C   0  0  0  0  0  0  0  0  0  0  0  0
   12.6421  -14.9591   21.5314 O   0  0  0  0  0  0  0  0  0  0  0  0
    8.1439  -12.3759   17.4604 N   0  0  0  0  0  0  0  0  0  0  0  0
    8.0197  -13.7763   17.6604 C   0  0  0  0  0  0  0  0  0  0  0  0
    8.2459  -14.5996   16.6811 N   0  0  0  0  0  0  0  0  0  0  0  0
    7.6452  -14.2828   18.9335 N   0  0  0  0  0  0  0  0  0  0  0  0
    7.5364  -13.3984   20.0721 C   0  0  0  0  0  0  0  0  0  0  0  0
    8.7200  -13.5550   20.9972 C   0  0  0  0  0  0  0  0  0  0  0  0
    8.6292  -14.7861   21.8612 C   0  0  0  0  0  0  0  0  0  0  0  0
    9.9290  -15.3866   22.1663 C   0  0  2  0  0  0  0  0  0  0  0  0
   10.5926  -15.8121   20.9592 N   0  0  0  0  0  0  0  0  0  0  0  0
    9.9091  -16.5131   23.1170 C   0  0  0  0  0  0  0  0  0  0  0  0
    9.5855  -17.6446   22.6827 O   0  0  0  0  0  0  0  0  0  0  0  0
    8.1771  -15.6221   16.7758 N   0  0  0  0  0  0  0  0  0  0  0  0
   10.2312  -16.3981   24.4831 C   0  0  1  0  0  0  0  0  0  0  0  0
   10.4303  -17.5460   25.3805 C   0  0  0  0  0  0  0  0  0  0  0  0
   11.7453  -18.1873   25.1685 C   0  0  0  0  0  0  0  0  0  0  0  0
   11.6964  -19.1754   24.0746 C   0  0  0  0  0  0  0  0  0  0  0  0
   10.6946  -19.4715   23.1824 N   0  0  0  0  0  0  0  0  0  0  0  0
   11.1292  -20.3808   22.2889 C   0  0  0  0  0  0  0  0  0  0  0  0
   12.3967  -20.6740   22.5910 N   0  0  0  0  0  0  0  0  0  0  0  0
   12.7523  -19.9562   23.6632 C   0  0  0  0  0  0  0  0  0  0  0  0
   10.4249  -17.0031   26.7787 O   0  0  0  0  0  0  0  0  0  0  0  0
   10.2799  -15.6978   27.0638 O   0  0  0  0  0  0  0  0  0  0  0  0
  2  3  2  0
  2  1  1  0
  4  2  1  0
  5  4  1  0
  6  5  1  0
  6  7  1  6
  8  9  2  0
  8  6  1  0
 10 11  1  0
 11 12  2  0
 13 11  1  0
 13 14  1  0
 14 15  1  0
 15 16  1  0
 17 16  1  6
 17 18  1  0
 18  8  1  0
 19 21  1  0
 19 17  1  0
 20 19  2  0
 22 21  1  0
 22 29  1  0
 23 24  1  0
 22 23  1  1
 24 25  2  0
 25 26  1  0
 27 26  1  0
 28 24  1  0
 28 27  2  0
 29 30  1  0
 31 29  2  0
M  END
$$$$
