QRH.pdb
     RDKit          3D

 31 31  0  0  1  0  0  0  0  0999 V2000
    6.1797  -15.5436   14.3745 N   0  0  0  0  0  0  0  0  0  0  0  0
    7.5945  -15.5184   14.1819 C   0  0  0  0  0  0  0  0  0  0  0  0
    8.0670  -15.9963   13.1306 O   0  0  0  0  0  0  0  0  0  0  0  0
    8.5011  -14.9384   15.2039 C   0  0  0  0  0  0  0  0  0  0  0  0
    7.6927  -14.4799   16.3792 C   0  0  0  0  0  0  0  0  0  0  0  0
    8.5264  -13.7249   17.3960 C   0  0  2  0  0  0  0  0  0  0  0  0
    9.5434  -12.9233   16.7803 N   0  0  0  0  0  0  0  0  0  0  0  0
    9.2176  -14.7905   18.2064 C   0  0  0  0  0  0  0  0  0  0  0  0
    8.5619  -15.6865   18.7904 O   0  0  0  0  0  0  0  0  0  0  0  0
   12.5210  -18.1819   13.0274 N   0  0  0  0  0  0  0  0  0  0  0  0
   12.3480  -17.7773   14.3776 C   0  0  0  0  0  0  0  0  0  0  0  0
   11.1911  -17.3541   14.7906 N   0  0  0  0  0  0  0  0  0  0  0  0
   13.4415  -17.8322   15.2825 N   0  0  0  0  0  0  0  0  0  0  0  0
   13.2320  -17.6354   16.6994 C   0  0  0  0  0  0  0  0  0  0  0  0
   12.8294  -16.2103   16.9967 C   0  0  0  0  0  0  0  0  0  0  0  0
   12.7426  -15.9220   18.4731 C   0  0  0  0  0  0  0  0  0  0  0  0
   11.3705  -15.8625   18.9800 C   0  0  2  0  0  0  0  0  0  0  0  0
   10.6297  -14.8099   18.3306 N   0  0  0  0  0  0  0  0  0  0  0  0
   11.2308  -15.7079   20.4393 C   0  0  0  0  0  0  0  0  0  0  0  0
   11.6548  -14.6496   20.9627 O   0  0  0  0  0  0  0  0  0  0  0  0
   10.9664  -17.2046   15.7837 N   0  0  0  0  0  0  0  0  0  0  0  0
   10.6504  -16.6747   21.2831 C   0  0  2  0  0  0  0  0  0  0  0  0
   10.4931  -16.5102   22.7360 C   0  0  0  0  0  0  0  0  0  0  0  0
    9.0698  -16.4714   23.1334 C   0  0  0  0  0  0  0  0  0  0  0  0
    8.4191  -15.2219   22.6967 C   0  0  0  0  0  0  0  0  0  0  0  0
    8.9217  -14.1482   22.0026 N   0  0  0  0  0  0  0  0  0  0  0  0
    7.9352  -13.2707   21.7364 C   0  0  0  0  0  0  0  0  0  0  0  0
    6.8039  -13.7636   22.2473 N   0  0  0  0  0  0  0  0  0  0  0  0
    7.0790  -14.9375   22.8281 C   0  0  0  0  0  0  0  0  0  0  0  0
   11.0955  -17.7273   23.3728 O   0  0  0  0  0  0  0  0  0  0  0  0
   11.2654  -17.8596   24.6994 O   0  0  0  0  0  0  0  0  0  0  0  0
  2  3  2  0
  2  1  1  0
  4  2  1  0
  5  4  1  0
  6  5  1  0
  6  7  1  6
  8  9  2  0
  8  6  1  0
 10 11  1  0
 11 12  2  0
 13 11  1  0
 13 14  1  0
 14 15  1  0
 15 16  1  0
 17 16  1  1
 17 18  1  0
 18  8  1  0
 19 21  1  0
 19 17  1  0
 20 19  2  0
 22 21  1  0
 22 29  1  0
 23 24  1  0
 22 23  1  6
 24 25  2  0
 25 26  1  0
 27 26  1  0
 28 24  1  0
 28 27  2  0
 29 30  1  0
 31 29  2  0
M  END
$$$$
