QRH.pdb
     RDKit          3D

 31 31  0  0  1  0  0  0  0  0999 V2000
    6.4093  -15.4720   14.0409 N   0  0  0  0  0  0  0  0  0  0  0  0
    7.3254  -16.4125   13.4791 C   0  0  0  0  0  0  0  0  0  0  0  0
    6.9075  -17.2256   12.6298 O   0  0  0  0  0  0  0  0  0  0  0  0
    8.7522  -16.4365   13.8870 C   0  0  0  0  0  0  0  0  0  0  0  0
    8.9637  -15.4608   15.0044 C   0  0  0  0  0  0  0  0  0  0  0  0
   10.3973  -15.4478   15.4978 C   0  0  2  0  0  0  0  0  0  0  0  0
   11.2664  -16.2313   14.6692 N   0  0  0  0  0  0  0  0  0  0  0  0
   10.3520  -16.1025   16.8540 C   0  0  0  0  0  0  0  0  0  0  0  0
    9.6213  -15.6489   17.7673 O   0  0  0  0  0  0  0  0  0  0  0  0
   14.7013  -20.1015   21.7693 N   0  0  0  0  0  0  0  0  0  0  0  0
   13.9235  -21.2794   21.9256 C   0  0  0  0  0  0  0  0  0  0  0  0
   13.9829  -21.9609   23.0301 N   0  0  0  0  0  0  0  0  0  0  0  0
   13.0776  -21.7183   20.8723 N   0  0  0  0  0  0  0  0  0  0  0  0
   13.0605  -21.0210   19.6059 C   0  0  0  0  0  0  0  0  0  0  0  0
   12.0015  -19.9441   19.5925 C   0  0  0  0  0  0  0  0  0  0  0  0
   12.1163  -19.0243   18.4046 C   0  0  0  0  0  0  0  0  0  0  0  0
   11.1230  -17.9490   18.3963 C   0  0  2  0  0  0  0  0  0  0  0  0
   11.1345  -17.2508   17.1350 N   0  0  0  0  0  0  0  0  0  0  0  0
   11.2366  -16.9610   19.4845 C   0  0  0  0  0  0  0  0  0  0  0  0
   12.2844  -16.2744   19.5496 O   0  0  0  0  0  0  0  0  0  0  0  0
   13.4717  -22.8417   23.1782 N   0  0  0  0  0  0  0  0  0  0  0  0
   10.2413  -16.7396   20.4560 C   0  0  2  0  0  0  0  0  0  0  0  0
   10.3674  -15.7728   21.5569 C   0  0  0  0  0  0  0  0  0  0  0  0
    9.0880  -15.0857   21.8336 C   0  0  0  0  0  0  0  0  0  0  0  0
    8.7848  -14.0709   20.8072 C   0  0  0  0  0  0  0  0  0  0  0  0
    9.4902  -13.6902   19.6915 N   0  0  0  0  0  0  0  0  0  0  0  0
    8.7807  -12.7898   18.9844 C   0  0  0  0  0  0  0  0  0  0  0  0
    7.6277  -12.5856   19.6271 N   0  0  0  0  0  0  0  0  0  0  0  0
    7.6154  -13.3499   20.7257 C   0  0  0  0  0  0  0  0  0  0  0  0
   10.7177  -16.5626   22.7830 O   0  0  0  0  0  0  0  0  0  0  0  0
   10.7324  -17.9059   22.8172 O   0  0  0  0  0  0  0  0  0  0  0  0
  2  3  2  0
  2  1  1  0
  4  2  1  0
  5  4  1  0
  6  5  1  0
  6  7  1  6
  8  9  2  0
  8  6  1  0
 10 11  1  0
 11 12  2  0
 13 11  1  0
 13 14  1  0
 14 15  1  0
 15 16  1  0
 17 16  1  6
 17 18  1  0
 18  8  1  0
 19 21  1  0
 19 17  1  0
 20 19  2  0
 22 21  1  0
 22 29  1  0
 23 24  1  0
 22 23  1  6
 24 25  2  0
 25 26  1  0
 27 26  1  0
 28 24  1  0
 28 27  2  0
 29 30  1  0
 31 29  2  0
M  END
$$$$
