QPW.pdb
     RDKit          3D

 31 33  0  0  1  0  0  0  0  0999 V2000
   11.5986  -19.4507   16.9495 N   0  0  0  0  0  0  0  0  0  0  0  0
   11.4198  -19.3591   18.3531 C   0  0  0  0  0  0  0  0  0  0  0  0
   11.4443  -20.4097   19.0138 O   0  0  0  0  0  0  0  0  0  0  0  0
   11.2104  -18.0559   18.9737 C   0  0  0  0  0  0  0  0  0  0  0  0
   11.2737  -16.8572   18.1071 C   0  0  0  0  0  0  0  0  0  0  0  0
   10.1915  -15.8477   18.2427 C   0  0  2  0  0  0  0  0  0  0  0  0
   10.6336  -14.6722   17.4520 N   0  0  0  0  0  0  0  0  0  0  0  0
    9.8975  -15.3662   19.5969 C   0  0  0  0  0  0  0  0  0  0  0  0
   10.8067  -14.7200   20.2183 O   0  0  0  0  0  0  0  0  0  0  0  0
    8.6582  -15.5683   20.2659 N   0  0  0  0  0  0  0  0  0  0  0  0
    7.5613  -16.3313   19.7118 C   0  0  0  0  0  0  0  0  0  0  0  0
    6.7440  -16.7014   20.9215 C   0  0  0  0  0  0  0  0  0  0  0  0
    6.8124  -15.4060   21.7237 C   0  0  0  0  0  0  0  0  0  0  0  0
    8.3092  -15.0841   21.5546 C   0  0  1  0  0  0  0  0  0  0  0  0
    8.9724  -15.8226   22.6637 C   0  0  0  0  0  0  0  0  0  0  0  0
    9.3582  -17.0000   22.4562 O   0  0  0  0  0  0  0  0  0  0  0  0
    9.1950  -15.2757   23.9411 N   0  0  0  0  0  0  0  0  0  0  0  0
    9.8885  -15.9582   25.0193 C   0  0  1  0  0  0  0  0  0  0  0  0
    9.4901  -15.2388   26.2974 C   0  0  0  0  0  0  0  0  0  0  0  0
    8.0654  -14.8442   26.3095 C   0  0  0  0  0  0  0  0  0  0  0  0
    6.9638  -15.6587   26.2676 C   0  0  0  0  0  0  0  0  0  0  0  0
    5.8313  -14.9195   26.2979 N   0  0  0  0  0  0  0  0  0  0  0  0
    6.1898  -13.6170   26.3598 C   0  0  0  0  0  0  0  0  0  0  0  0
    5.3980  -12.4893   26.4091 C   0  0  0  0  0  0  0  0  0  0  0  0
    6.0310  -11.2508   26.4686 C   0  0  0  0  0  0  0  0  0  0  0  0
    7.3936  -11.1484   26.4782 C   0  0  0  0  0  0  0  0  0  0  0  0
    8.1708  -12.3113   26.4272 C   0  0  0  0  0  0  0  0  0  0  0  0
    7.5801  -13.5564   26.3677 C   0  0  0  0  0  0  0  0  0  0  0  0
    9.3561  -17.3586   25.1725 C   0  0  0  0  0  0  0  0  0  0  0  0
    8.2447  -17.6763   24.6632 O   0  0  0  0  0  0  0  0  0  0  0  0
   10.0459  -18.3257   25.8590 O   0  0  0  0  0  0  0  0  0  0  0  0
  2  1  1  0
  3  2  2  0
  4  2  1  0
  5  4  1  0
  6  8  1  0
  6  5  1  0
  6  7  1  6
  8 10  1  0
  9  8  2  0
 10 11  1  0
 10 14  1  0
 11 12  1  0
 12 13  1  0
 14 13  1  0
 15 17  1  0
 14 15  1  1
 16 15  2  0
 18 29  1  0
 18 17  1  0
 18 19  1  1
 20 28  1  0
 20 19  1  0
 21 20  2  0
 22 21  1  0
 22 23  1  0
 23 28  2  0
 24 23  1  0
 24 25  2  0
 25 26  1  0
 26 27  2  0
 28 27  1  0
 29 31  1  0
 30 29  2  0
M  END
$$$$
