QPW.pdb
     RDKit          3D

 31 33  0  0  1  0  0  0  0  0999 V2000
    7.0026  -21.4522   23.6789 N   0  0  0  0  0  0  0  0  0  0  0  0
    6.7552  -20.1174   24.0882 C   0  0  0  0  0  0  0  0  0  0  0  0
    6.4954  -19.9132   25.2848 O   0  0  0  0  0  0  0  0  0  0  0  0
    6.8063  -19.0376   23.1091 C   0  0  0  0  0  0  0  0  0  0  0  0
    7.0289  -19.3982   21.6905 C   0  0  0  0  0  0  0  0  0  0  0  0
    7.0732  -18.2954   20.6953 C   0  0  2  0  0  0  0  0  0  0  0  0
    7.3585  -18.9402   19.3895 N   0  0  0  0  0  0  0  0  0  0  0  0
    8.0946  -17.2613   20.8940 C   0  0  0  0  0  0  0  0  0  0  0  0
    9.3206  -17.5893   20.7538 O   0  0  0  0  0  0  0  0  0  0  0  0
    7.8085  -15.9087   21.2296 N   0  0  0  0  0  0  0  0  0  0  0  0
    6.4740  -15.4067   21.4736 C   0  0  0  0  0  0  0  0  0  0  0  0
    6.7108  -14.1526   22.2734 C   0  0  0  0  0  0  0  0  0  0  0  0
    7.9261  -13.5764   21.5540 C   0  0  0  0  0  0  0  0  0  0  0  0
    8.7564  -14.8636   21.3922 C   0  0  1  0  0  0  0  0  0  0  0  0
    9.5342  -14.9618   22.6573 C   0  0  0  0  0  0  0  0  0  0  0  0
   10.4339  -14.1131   22.8777 O   0  0  0  0  0  0  0  0  0  0  0  0
    9.3197  -15.9568   23.6293 N   0  0  0  0  0  0  0  0  0  0  0  0
   10.2229  -16.2395   24.7308 C   0  0  1  0  0  0  0  0  0  0  0  0
    9.9779  -15.1529   25.7649 C   0  0  0  0  0  0  0  0  0  0  0  0
    8.5426  -14.8446   25.9393 C   0  0  0  0  0  0  0  0  0  0  0  0
    7.4817  -15.7112   25.8932 C   0  0  0  0  0  0  0  0  0  0  0  0
    6.3223  -15.0463   26.1018 N   0  0  0  0  0  0  0  0  0  0  0  0
    6.6222  -13.7405   26.2852 C   0  0  0  0  0  0  0  0  0  0  0  0
    5.7850  -12.6727   26.5298 C   0  0  0  0  0  0  0  0  0  0  0  0
    6.3610  -11.4143   26.6810 C   0  0  0  0  0  0  0  0  0  0  0  0
    7.7127  -11.2356   26.5909 C   0  0  0  0  0  0  0  0  0  0  0  0
    8.5370  -12.3390   26.3417 C   0  0  0  0  0  0  0  0  0  0  0  0
    8.0035  -13.6014   26.1863 C   0  0  0  0  0  0  0  0  0  0  0  0
    9.8270  -17.5251   25.4080 C   0  0  0  0  0  0  0  0  0  0  0  0
    9.6155  -17.5498   26.6531 O   0  0  0  0  0  0  0  0  0  0  0  0
    9.6833  -18.6978   24.7105 O   0  0  0  0  0  0  0  0  0  0  0  0
  2  1  1  0
  3  2  2  0
  4  2  1  0
  5  4  1  0
  6  8  1  0
  6  5  1  0
  6  7  1  6
  8 10  1  0
  9  8  2  0
 10 11  1  0
 10 14  1  0
 11 12  1  0
 12 13  1  0
 14 13  1  0
 15 17  1  0
 14 15  1  1
 16 15  2  0
 18 29  1  0
 18 17  1  0
 18 19  1  1
 20 28  1  0
 20 19  1  0
 21 20  2  0
 22 21  1  0
 22 23  1  0
 23 28  2  0
 24 23  1  0
 24 25  2  0
 25 26  1  0
 26 27  2  0
 28 27  1  0
 29 31  1  0
 30 29  2  0
M  END
$$$$
