QPW.pdb
     RDKit          3D

 31 33  0  0  1  0  0  0  0  0999 V2000
    5.8283  -19.6009   23.1594 N   0  0  0  0  0  0  0  0  0  0  0  0
    6.2285  -20.5049   22.1429 C   0  0  0  0  0  0  0  0  0  0  0  0
    6.2347  -21.7171   22.4101 O   0  0  0  0  0  0  0  0  0  0  0  0
    6.6206  -19.9960   20.8335 C   0  0  0  0  0  0  0  0  0  0  0  0
    6.5678  -18.5327   20.6142 C   0  0  0  0  0  0  0  0  0  0  0  0
    7.6012  -17.9275   19.7343 C   0  0  2  0  0  0  0  0  0  0  0  0
    8.4201  -19.0596   19.2342 N   0  0  0  0  0  0  0  0  0  0  0  0
    8.5257  -16.9721   20.3545 C   0  0  0  0  0  0  0  0  0  0  0  0
    9.6538  -17.4050   20.7671 O   0  0  0  0  0  0  0  0  0  0  0  0
    8.2495  -15.5867   20.5236 N   0  0  0  0  0  0  0  0  0  0  0  0
    7.1068  -14.9185   19.9405 C   0  0  0  0  0  0  0  0  0  0  0  0
    6.9508  -13.6839   20.7888 C   0  0  0  0  0  0  0  0  0  0  0  0
    8.4088  -13.2794   20.9810 C   0  0  0  0  0  0  0  0  0  0  0  0
    9.0160  -14.6626   21.2822 C   0  0  1  0  0  0  0  0  0  0  0  0
    8.8523  -14.8246   22.7526 C   0  0  0  0  0  0  0  0  0  0  0  0
    8.0706  -14.0508   23.3596 O   0  0  0  0  0  0  0  0  0  0  0  0
    9.5265  -15.8011   23.5093 N   0  0  0  0  0  0  0  0  0  0  0  0
   10.1879  -15.5481   24.7772 C   0  0  1  0  0  0  0  0  0  0  0  0
    9.2380  -16.0466   25.8537 C   0  0  0  0  0  0  0  0  0  0  0  0
    7.9083  -15.4042   25.7832 C   0  0  0  0  0  0  0  0  0  0  0  0
    6.7238  -15.9589   25.3737 C   0  0  0  0  0  0  0  0  0  0  0  0
    5.7261  -15.0489   25.4537 N   0  0  0  0  0  0  0  0  0  0  0  0
    6.2563  -13.8943   25.9167 C   0  0  0  0  0  0  0  0  0  0  0  0
    5.6441  -12.6844   26.1665 C   0  0  0  0  0  0  0  0  0  0  0  0
    6.4325  -11.6421   26.6464 C   0  0  0  0  0  0  0  0  0  0  0  0
    7.7714  -11.8057   26.8652 C   0  0  0  0  0  0  0  0  0  0  0  0
    8.3644  -13.0459   26.6022 C   0  0  0  0  0  0  0  0  0  0  0  0
    7.6164  -14.1025   26.1262 C   0  0  0  0  0  0  0  0  0  0  0  0
   11.4148  -16.4125   24.9026 C   0  0  0  0  0  0  0  0  0  0  0  0
   11.6988  -17.2493   24.0000 O   0  0  0  0  0  0  0  0  0  0  0  0
   12.2560  -16.3253   25.9829 O   0  0  0  0  0  0  0  0  0  0  0  0
  2  1  1  0
  3  2  2  0
  4  2  1  0
  5  4  1  0
  6  8  1  0
  6  5  1  0
  6  7  1  1
  8 10  1  0
  9  8  2  0
 10 11  1  0
 10 14  1  0
 11 12  1  0
 12 13  1  0
 14 13  1  0
 15 17  1  0
 14 15  1  1
 16 15  2  0
 18 29  1  0
 18 17  1  0
 18 19  1  1
 20 28  1  0
 20 19  1  0
 21 20  2  0
 22 21  1  0
 22 23  1  0
 23 28  2  0
 24 23  1  0
 24 25  2  0
 25 26  1  0
 26 27  2  0
 28 27  1  0
 29 31  1  0
 30 29  2  0
M  END
$$$$
