QPW.pdb
     RDKit          3D

 31 33  0  0  1  0  0  0  0  0999 V2000
   11.7946  -20.5784   20.7937 N   0  0  0  0  0  0  0  0  0  0  0  0
   12.7490  -19.5324   20.7190 C   0  0  0  0  0  0  0  0  0  0  0  0
   13.8603  -19.7188   21.2399 O   0  0  0  0  0  0  0  0  0  0  0  0
   12.4051  -18.2838   20.0481 C   0  0  0  0  0  0  0  0  0  0  0  0
   11.4542  -18.3449   18.9150 C   0  0  0  0  0  0  0  0  0  0  0  0
   10.4870  -17.2268   18.7628 C   0  0  2  0  0  0  0  0  0  0  0  0
   11.0986  -16.2933   17.7847 N   0  0  0  0  0  0  0  0  0  0  0  0
   10.1798  -16.4452   19.9656 C   0  0  0  0  0  0  0  0  0  0  0  0
   11.1320  -15.8112   20.5328 O   0  0  0  0  0  0  0  0  0  0  0  0
    8.8835  -16.3421   20.5429 N   0  0  0  0  0  0  0  0  0  0  0  0
    7.7183  -17.0277   20.0284 C   0  0  0  0  0  0  0  0  0  0  0  0
    6.7764  -17.0504   21.2034 C   0  0  0  0  0  0  0  0  0  0  0  0
    6.9959  -15.6540   21.7766 C   0  0  0  0  0  0  0  0  0  0  0  0
    8.5325  -15.5866   21.6931 C   0  0  1  0  0  0  0  0  0  0  0  0
    8.9979  -16.1984   22.9676 C   0  0  0  0  0  0  0  0  0  0  0  0
    9.1937  -17.4389   23.0030 O   0  0  0  0  0  0  0  0  0  0  0  0
    9.2339  -15.4639   24.1446 N   0  0  0  0  0  0  0  0  0  0  0  0
    9.8703  -15.9993   25.3352 C   0  0  1  0  0  0  0  0  0  0  0  0
    9.4926  -15.0627   26.4710 C   0  0  0  0  0  0  0  0  0  0  0  0
    8.0930  -14.5944   26.3828 C   0  0  0  0  0  0  0  0  0  0  0  0
    6.9554  -15.3510   26.2731 C   0  0  0  0  0  0  0  0  0  0  0  0
    5.8640  -14.5536   26.2200 N   0  0  0  0  0  0  0  0  0  0  0  0
    6.2856  -13.2709   26.2950 C   0  0  0  0  0  0  0  0  0  0  0  0
    5.5528  -12.1030   26.2806 C   0  0  0  0  0  0  0  0  0  0  0  0
    6.2448  -10.8985   26.3724 C   0  0  0  0  0  0  0  0  0  0  0  0
    7.6072  -10.8669   26.4737 C   0  0  0  0  0  0  0  0  0  0  0  0
    8.3236  -12.0693   26.4857 C   0  0  0  0  0  0  0  0  0  0  0  0
    7.6735  -13.2825   26.3969 C   0  0  0  0  0  0  0  0  0  0  0  0
    9.2573  -17.3263   25.6976 C   0  0  0  0  0  0  0  0  0  0  0  0
    8.1475  -17.6712   25.2026 O   0  0  0  0  0  0  0  0  0  0  0  0
    9.8701  -18.1959   26.5640 O   0  0  0  0  0  0  0  0  0  0  0  0
  2  1  1  0
  3  2  2  0
  4  2  1  0
  5  4  1  0
  6  8  1  0
  6  5  1  0
  6  7  1  6
  8 10  1  0
  9  8  2  0
 10 11  1  0
 10 14  1  0
 11 12  1  0
 12 13  1  0
 14 13  1  0
 15 17  1  0
 14 15  1  1
 16 15  2  0
 18 29  1  0
 18 17  1  0
 18 19  1  1
 20 28  1  0
 20 19  1  0
 21 20  2  0
 22 21  1  0
 22 23  1  0
 23 28  2  0
 24 23  1  0
 24 25  2  0
 25 26  1  0
 26 27  2  0
 28 27  1  0
 29 31  1  0
 30 29  2  0
M  END
$$$$
