QPW.pdb
     RDKit          3D

 31 33  0  0  1  0  0  0  0  0999 V2000
    5.8588  -20.7527   24.1272 N   0  0  0  0  0  0  0  0  0  0  0  0
    5.1607  -20.8303   22.8955 C   0  0  0  0  0  0  0  0  0  0  0  0
    4.1741  -21.5808   22.8308 O   0  0  0  0  0  0  0  0  0  0  0  0
    5.6146  -20.0438   21.7542 C   0  0  0  0  0  0  0  0  0  0  0  0
    6.6905  -19.0520   21.9797 C   0  0  0  0  0  0  0  0  0  0  0  0
    7.1655  -18.2686   20.8095 C   0  0  2  0  0  0  0  0  0  0  0  0
    7.7595  -19.2570   19.8754 N   0  0  0  0  0  0  0  0  0  0  0  0
    8.1903  -17.2501   21.0631 C   0  0  0  0  0  0  0  0  0  0  0  0
    9.3972  -17.6351   21.2232 O   0  0  0  0  0  0  0  0  0  0  0  0
    7.9285  -15.8537   21.1383 N   0  0  0  0  0  0  0  0  0  0  0  0
    6.6985  -15.2416   20.6860 C   0  0  0  0  0  0  0  0  0  0  0  0
    6.6671  -13.9287   21.4234 C   0  0  0  0  0  0  0  0  0  0  0  0
    8.1321  -13.5131   21.3357 C   0  0  0  0  0  0  0  0  0  0  0  0
    8.7966  -14.8623   21.6682 C   0  0  1  0  0  0  0  0  0  0  0  0
    8.8753  -14.8780   23.1544 C   0  0  0  0  0  0  0  0  0  0  0  0
    8.5284  -13.8488   23.7859 O   0  0  0  0  0  0  0  0  0  0  0  0
    9.3183  -15.9862   23.9001 N   0  0  0  0  0  0  0  0  0  0  0  0
   10.3152  -15.9233   24.9544 C   0  0  1  0  0  0  0  0  0  0  0  0
    9.5498  -15.6652   26.2418 C   0  0  0  0  0  0  0  0  0  0  0  0
    8.1736  -15.1818   26.0002 C   0  0  0  0  0  0  0  0  0  0  0  0
    7.0898  -15.9019   25.5695 C   0  0  0  0  0  0  0  0  0  0  0  0
    6.0032  -15.1022   25.4713 N   0  0  0  0  0  0  0  0  0  0  0  0
    6.3741  -13.8546   25.8382 C   0  0  0  0  0  0  0  0  0  0  0  0
    5.6251  -12.6987   25.9028 C   0  0  0  0  0  0  0  0  0  0  0  0
    6.2615  -11.5323   26.3183 C   0  0  0  0  0  0  0  0  0  0  0  0
    7.5864  -11.5257   26.6532 C   0  0  0  0  0  0  0  0  0  0  0  0
    8.3205  -12.7150   26.5776 C   0  0  0  0  0  0  0  0  0  0  0  0
    7.7251  -13.8907   26.1705 C   0  0  0  0  0  0  0  0  0  0  0  0
   10.9571  -17.2728   25.1410 C   0  0  0  0  0  0  0  0  0  0  0  0
   11.8924  -17.4228   25.9767 O   0  0  0  0  0  0  0  0  0  0  0  0
   10.5576  -18.3715   24.4228 O   0  0  0  0  0  0  0  0  0  0  0  0
  2  1  1  0
  3  2  2  0
  4  2  1  0
  5  4  1  0
  6  8  1  0
  6  5  1  0
  6  7  1  6
  8 10  1  0
  9  8  2  0
 10 11  1  0
 10 14  1  0
 11 12  1  0
 12 13  1  0
 14 13  1  0
 15 17  1  0
 14 15  1  1
 16 15  2  0
 18 29  1  0
 18 17  1  0
 18 19  1  1
 20 28  1  0
 20 19  1  0
 21 20  2  0
 22 21  1  0
 22 23  1  0
 23 28  2  0
 24 23  1  0
 24 25  2  0
 25 26  1  0
 26 27  2  0
 28 27  1  0
 29 31  1  0
 30 29  2  0
M  END
$$$$
