QPW.pdb
     RDKit          3D

 31 33  0  0  1  0  0  0  0  0999 V2000
    9.2505  -20.5479   20.1613 N   0  0  0  0  0  0  0  0  0  0  0  0
   10.4475  -19.7970   20.2789 C   0  0  0  0  0  0  0  0  0  0  0  0
   11.0745  -19.8630   21.3482 O   0  0  0  0  0  0  0  0  0  0  0  0
   10.9012  -18.9763   19.1618 C   0  0  0  0  0  0  0  0  0  0  0  0
    9.8741  -18.3111   18.3283 C   0  0  0  0  0  0  0  0  0  0  0  0
    9.9352  -16.8313   18.2056 C   0  0  2  0  0  0  0  0  0  0  0  0
   11.2448  -16.5314   17.5754 N   0  0  0  0  0  0  0  0  0  0  0  0
    9.8726  -16.0579   19.4506 C   0  0  0  0  0  0  0  0  0  0  0  0
   10.9692  -15.6599   19.9696 O   0  0  0  0  0  0  0  0  0  0  0  0
    8.6644  -15.7158   20.1197 N   0  0  0  0  0  0  0  0  0  0  0  0
    7.3502  -16.0914   19.6464 C   0  0  0  0  0  0  0  0  0  0  0  0
    6.4908  -15.9921   20.8793 C   0  0  0  0  0  0  0  0  0  0  0  0
    7.0459  -14.7224   21.5167 C   0  0  0  0  0  0  0  0  0  0  0  0
    8.5522  -14.9865   21.3331 C   0  0  1  0  0  0  0  0  0  0  0  0
    8.9372  -15.7751   22.5352 C   0  0  0  0  0  0  0  0  0  0  0  0
    8.9134  -17.0293   22.4647 O   0  0  0  0  0  0  0  0  0  0  0  0
    9.3297  -15.1947   23.7557 N   0  0  0  0  0  0  0  0  0  0  0  0
    9.7786  -15.9434   24.9164 C   0  0  1  0  0  0  0  0  0  0  0  0
    9.4570  -15.0790   26.1244 C   0  0  0  0  0  0  0  0  0  0  0  0
    8.0512  -14.6215   26.1404 C   0  0  0  0  0  0  0  0  0  0  0  0
    6.9195  -15.3646   25.9274 C   0  0  0  0  0  0  0  0  0  0  0  0
    5.8191  -14.5842   26.0270 N   0  0  0  0  0  0  0  0  0  0  0  0
    6.2289  -13.3261   26.3060 C   0  0  0  0  0  0  0  0  0  0  0  0
    5.4841  -12.1819   26.4988 C   0  0  0  0  0  0  0  0  0  0  0  0
    6.1653  -11.0000   26.7765 C   0  0  0  0  0  0  0  0  0  0  0  0
    7.5291  -10.9673   26.8570 C   0  0  0  0  0  0  0  0  0  0  0  0
    8.2579  -12.1453   26.6564 C   0  0  0  0  0  0  0  0  0  0  0  0
    7.6187  -13.3358   26.3794 C   0  0  0  0  0  0  0  0  0  0  0  0
    8.9436  -17.1851   25.0862 C   0  0  0  0  0  0  0  0  0  0  0  0
    7.8008  -17.2615   24.5534 O   0  0  0  0  0  0  0  0  0  0  0  0
    9.3845  -18.2619   25.8133 O   0  0  0  0  0  0  0  0  0  0  0  0
  2  1  1  0
  3  2  2  0
  4  2  1  0
  5  4  1  0
  6  8  1  0
  6  5  1  0
  6  7  1  1
  8 10  1  0
  9  8  2  0
 10 11  1  0
 10 14  1  0
 11 12  1  0
 12 13  1  0
 14 13  1  0
 15 17  1  0
 14 15  1  1
 16 15  2  0
 18 29  1  0
 18 17  1  0
 18 19  1  1
 20 28  1  0
 20 19  1  0
 21 20  2  0
 22 21  1  0
 22 23  1  0
 23 28  2  0
 24 23  1  0
 24 25  2  0
 25 26  1  0
 26 27  2  0
 28 27  1  0
 29 31  1  0
 30 29  2  0
M  END
$$$$
