QPW.pdb
     RDKit          3D

 31 33  0  0  1  0  0  0  0  0999 V2000
    3.7114  -20.0322   20.3765 N   0  0  0  0  0  0  0  0  0  0  0  0
    3.1287  -19.0421   21.2076 C   0  0  0  0  0  0  0  0  0  0  0  0
    1.9070  -18.8444   21.1101 O   0  0  0  0  0  0  0  0  0  0  0  0
    3.9655  -18.2908   22.1361 C   0  0  0  0  0  0  0  0  0  0  0  0
    5.4257  -18.5340   22.1058 C   0  0  0  0  0  0  0  0  0  0  0  0
    6.2002  -17.9537   20.9780 C   0  0  2  0  0  0  0  0  0  0  0  0
    6.5397  -19.0942   20.0913 N   0  0  0  0  0  0  0  0  0  0  0  0
    7.4609  -17.2825   21.3132 C   0  0  0  0  0  0  0  0  0  0  0  0
    8.4603  -18.0055   21.6430 O   0  0  0  0  0  0  0  0  0  0  0  0
    7.6466  -15.8721   21.2906 N   0  0  0  0  0  0  0  0  0  0  0  0
    6.6253  -14.9340   20.8794 C   0  0  0  0  0  0  0  0  0  0  0  0
    7.0666  -13.6371   21.5051 C   0  0  0  0  0  0  0  0  0  0  0  0
    8.5732  -13.7042   21.2770 C   0  0  0  0  0  0  0  0  0  0  0  0
    8.8221  -15.1722   21.6717 C   0  0  1  0  0  0  0  0  0  0  0  0
    9.0328  -15.1272   23.1443 C   0  0  0  0  0  0  0  0  0  0  0  0
    9.0952  -14.0067   23.7090 O   0  0  0  0  0  0  0  0  0  0  0  0
    9.1670  -16.2745   23.9482 N   0  0  0  0  0  0  0  0  0  0  0  0
   10.1829  -16.4482   24.9715 C   0  0  1  0  0  0  0  0  0  0  0  0
    9.7763  -15.5460   26.1250 C   0  0  0  0  0  0  0  0  0  0  0  0
    8.3597  -15.1293   26.0514 C   0  0  0  0  0  0  0  0  0  0  0  0
    7.2732  -15.8902   25.7064 C   0  0  0  0  0  0  0  0  0  0  0  0
    6.1437  -15.1476   25.7585 N   0  0  0  0  0  0  0  0  0  0  0  0
    6.4891  -13.8966   26.1386 C   0  0  0  0  0  0  0  0  0  0  0  0
    5.6947  -12.7864   26.3324 C   0  0  0  0  0  0  0  0  0  0  0  0
    6.3131  -11.6039   26.7291 C   0  0  0  0  0  0  0  0  0  0  0  0
    7.6643  -11.5381   26.9222 C   0  0  0  0  0  0  0  0  0  0  0  0
    8.4445  -12.6820   26.7175 C   0  0  0  0  0  0  0  0  0  0  0  0
    7.8682  -13.8719   26.3244 C   0  0  0  0  0  0  0  0  0  0  0  0
   10.1254  -17.8474   25.5257 C   0  0  0  0  0  0  0  0  0  0  0  0
    9.1740  -18.6173   25.2131 O   0  0  0  0  0  0  0  0  0  0  0  0
   11.0874  -18.3306   26.3763 O   0  0  0  0  0  0  0  0  0  0  0  0
  2  1  1  0
  3  2  2  0
  4  2  1  0
  5  4  1  0
  6  8  1  0
  6  5  1  0
  6  7  1  6
  8 10  1  0
  9  8  2  0
 10 11  1  0
 10 14  1  0
 11 12  1  0
 12 13  1  0
 14 13  1  0
 15 17  1  0
 14 15  1  1
 16 15  2  0
 18 29  1  0
 18 17  1  0
 18 19  1  1
 20 28  1  0
 20 19  1  0
 21 20  2  0
 22 21  1  0
 22 23  1  0
 23 28  2  0
 24 23  1  0
 24 25  2  0
 25 26  1  0
 26 27  2  0
 28 27  1  0
 29 31  1  0
 30 29  2  0
M  END
$$$$
