QPW.pdb
     RDKit          3D

 31 33  0  0  1  0  0  0  0  0999 V2000
    7.7107  -20.4900   25.4744 N   0  0  0  0  0  0  0  0  0  0  0  0
    7.1689  -20.7192   24.1843 C   0  0  0  0  0  0  0  0  0  0  0  0
    6.3955  -21.6792   24.0390 O   0  0  0  0  0  0  0  0  0  0  0  0
    7.5316  -19.8395   23.0789 C   0  0  0  0  0  0  0  0  0  0  0  0
    6.4369  -19.2243   22.2947 C   0  0  0  0  0  0  0  0  0  0  0  0
    6.8102  -18.3818   21.1287 C   0  0  2  0  0  0  0  0  0  0  0  0
    7.3421  -19.3178   20.1073 N   0  0  0  0  0  0  0  0  0  0  0  0
    7.8392  -17.3598   21.3494 C   0  0  0  0  0  0  0  0  0  0  0  0
    9.0645  -17.7123   21.2805 O   0  0  0  0  0  0  0  0  0  0  0  0
    7.5615  -15.9933   21.6319 N   0  0  0  0  0  0  0  0  0  0  0  0
    6.2285  -15.4704   21.8369 C   0  0  0  0  0  0  0  0  0  0  0  0
    6.4655  -14.1906   22.5948 C   0  0  0  0  0  0  0  0  0  0  0  0
    7.6973  -13.6521   21.8743 C   0  0  0  0  0  0  0  0  0  0  0  0
    8.5171  -14.9520   21.7717 C   0  0  1  0  0  0  0  0  0  0  0  0
    9.2745  -15.0120   23.0515 C   0  0  0  0  0  0  0  0  0  0  0  0
   10.1973  -14.1814   23.2437 O   0  0  0  0  0  0  0  0  0  0  0  0
    9.0161  -15.9511   24.0672 N   0  0  0  0  0  0  0  0  0  0  0  0
    9.9141  -16.2360   25.1725 C   0  0  1  0  0  0  0  0  0  0  0  0
    9.1027  -16.0208   26.4395 C   0  0  0  0  0  0  0  0  0  0  0  0
    7.9550  -15.1117   26.2345 C   0  0  0  0  0  0  0  0  0  0  0  0
    6.6744  -15.4381   25.8710 C   0  0  0  0  0  0  0  0  0  0  0  0
    5.9114  -14.3242   25.7870 N   0  0  0  0  0  0  0  0  0  0  0  0
    6.6923  -13.2643   26.0960 C   0  0  0  0  0  0  0  0  0  0  0  0
    6.3733  -11.9240   26.1492 C   0  0  0  0  0  0  0  0  0  0  0  0
    7.3798  -11.0281   26.4993 C   0  0  0  0  0  0  0  0  0  0  0  0
    8.6462  -11.4565   26.7825 C   0  0  0  0  0  0  0  0  0  0  0  0
    8.9396  -12.8236   26.7199 C   0  0  0  0  0  0  0  0  0  0  0  0
    7.9690  -13.7417   26.3770 C   0  0  0  0  0  0  0  0  0  0  0  0
   10.2779  -17.6974   25.1805 C   0  0  0  0  0  0  0  0  0  0  0  0
    9.6747  -18.5077   24.4220 O   0  0  0  0  0  0  0  0  0  0  0  0
   11.2611  -18.1956   25.9975 O   0  0  0  0  0  0  0  0  0  0  0  0
  2  1  1  0
  3  2  2  0
  4  2  1  0
  5  4  1  0
  6  8  1  0
  6  5  1  0
  6  7  1  6
  8 10  1  0
  9  8  2  0
 10 11  1  0
 10 14  1  0
 11 12  1  0
 12 13  1  0
 14 13  1  0
 15 17  1  0
 14 15  1  1
 16 15  2  0
 18 29  1  0
 18 17  1  0
 18 19  1  1
 20 28  1  0
 20 19  1  0
 21 20  2  0
 22 21  1  0
 22 23  1  0
 23 28  2  0
 24 23  1  0
 24 25  2  0
 25 26  1  0
 26 27  2  0
 28 27  1  0
 29 31  1  0
 30 29  2  0
M  END
$$$$
