VVL.pdb
     RDKit          3D

 23 22  0  0  1  0  0  0  0  0999 V2000
   24.4138  -32.6768   -2.2332 C   0  0  0  0  0  0  0  0  0  0  0  0
   25.8145  -32.6295   -2.7500 C   0  0  2  0  0  0  0  0  0  0  0  0
   25.7801  -31.9642   -4.1240 C   0  0  0  0  0  0  0  0  0  0  0  0
   26.4667  -33.9633   -2.9335 C   0  0  2  0  0  0  0  0  0  0  0  0
   25.7922  -34.7661   -3.9220 N   0  0  0  0  0  0  0  0  0  0  0  0
   26.5260  -34.7442   -1.6595 C   0  0  0  0  0  0  0  0  0  0  0  0
   25.5896  -35.5452   -1.4926 O   0  0  0  0  0  0  0  0  0  0  0  0
   29.4720  -36.3954    1.9235 C   0  0  0  0  0  0  0  0  0  0  0  0
   29.2355  -35.7626    0.5406 C   0  0  1  0  0  0  0  0  0  0  0  0
   29.1030  -37.0386   -0.3471 C   0  0  0  0  0  0  0  0  0  0  0  0
   27.8029  -35.1818    0.5479 C   0  0  2  0  0  0  0  0  0  0  0  0
   27.5552  -34.5586   -0.7694 N   0  0  0  0  0  0  0  0  0  0  0  0
   27.6366  -34.1036    1.5410 C   0  0  0  0  0  0  0  0  0  0  0  0
   27.8277  -32.8783    1.1938 O   0  0  0  0  0  0  0  0  0  0  0  0
   25.4821  -30.0287    3.2611 C   0  0  0  0  0  0  0  0  0  0  0  0
   25.1291  -31.3568    3.8789 C   0  0  1  0  0  0  0  0  0  0  0  0
   23.6046  -31.4683    3.7928 C   0  0  0  0  0  0  0  0  0  0  0  0
   25.6910  -32.5187    3.1323 C   0  0  0  0  0  0  0  0  0  0  0  0
   26.9347  -33.1195    3.7530 C   0  0  2  0  0  0  0  0  0  0  0  0
   27.2692  -34.2635    2.8936 N   0  0  0  0  0  0  0  0  0  0  0  0
   26.7702  -33.5060    5.1516 C   0  0  0  0  0  0  0  0  0  0  0  0
   26.3601  -34.6448    5.4782 O   0  0  0  0  0  0  0  0  0  0  0  0
   27.0625  -32.6261    6.1817 O   0  0  0  0  0  0  0  0  0  0  0  0
  2  1  1  6
  2  4  1  0
  3  2  1  0
  4  5  1  6
  4  6  1  0
  6 12  1  0
  7  6  2  0
  9  8  1  1
  9 10  1  0
 11 13  1  0
 11  9  1  0
 11 12  1  6
 13 14  2  0
 16 15  1  6
 16 17  1  0
 18 16  1  0
 19 18  1  6
 20 19  1  0
 20 13  1  0
 21 19  1  0
 22 21  2  0
 23 21  1  0
M  END
$$$$
