VVL.pdb
     RDKit          3D

 23 22  0  0  1  0  0  0  0  0999 V2000
   15.7020  -13.3152  -17.3111 C   0  0  0  0  0  0  0  0  0  0  0  0
   17.0258  -13.5423  -16.6574 C   0  0  2  0  0  0  0  0  0  0  0  0
   16.9525  -14.8717  -15.9099 C   0  0  0  0  0  0  0  0  0  0  0  0
   17.4224  -12.5055  -15.6543 C   0  0  2  0  0  0  0  0  0  0  0  0
   16.4481  -12.3681  -14.6015 N   0  0  0  0  0  0  0  0  0  0  0  0
   17.6265  -11.1624  -16.2794 C   0  0  0  0  0  0  0  0  0  0  0  0
   18.4231  -11.1451  -17.2341 O   0  0  0  0  0  0  0  0  0  0  0  0
   15.5112   -6.7595  -16.9370 C   0  0  0  0  0  0  0  0  0  0  0  0
   15.5021   -8.2579  -16.5853 C   0  0  1  0  0  0  0  0  0  0  0  0
   15.2337   -8.8867  -17.9874 C   0  0  0  0  0  0  0  0  0  0  0  0
   16.9642   -8.6612  -16.2865 C   0  0  2  0  0  0  0  0  0  0  0  0
   16.9637  -10.0580  -15.8029 N   0  0  0  0  0  0  0  0  0  0  0  0
   17.5597   -7.8595  -15.2006 C   0  0  0  0  0  0  0  0  0  0  0  0
   17.0409   -7.8918  -14.0224 O   0  0  0  0  0  0  0  0  0  0  0  0
   22.2280   -5.4083  -14.9758 C   0  0  0  0  0  0  0  0  0  0  0  0
   21.5968   -6.7753  -15.0327 C   0  0  1  0  0  0  0  0  0  0  0  0
   22.7400   -7.7745  -14.8361 C   0  0  0  0  0  0  0  0  0  0  0  0
   20.6182   -7.0156  -13.9336 C   0  0  0  0  0  0  0  0  0  0  0  0
   19.2738   -6.3489  -14.1357 C   0  0  2  0  0  0  0  0  0  0  0  0
   18.6911   -7.0231  -15.3040 N   0  0  0  0  0  0  0  0  0  0  0  0
   19.3519   -4.9014  -14.3127 C   0  0  0  0  0  0  0  0  0  0  0  0
   19.1857   -4.3632  -15.4326 O   0  0  0  0  0  0  0  0  0  0  0  0
   19.6138   -4.0578  -13.2448 O   0  0  0  0  0  0  0  0  0  0  0  0
  2  1  1  1
  2  4  1  0
  3  2  1  0
  4  5  1  1
  4  6  1  0
  6 12  1  0
  7  6  2  0
  9  8  1  6
  9 10  1  0
 11 13  1  0
 11  9  1  0
 11 12  1  1
 13 14  2  0
 16 15  1  1
 16 17  1  0
 18 16  1  0
 19 18  1  6
 20 19  1  0
 20 13  1  0
 21 19  1  0
 22 21  2  0
 23 21  1  0
M  END
$$$$
