VVL.pdb
     RDKit          3D

 23 22  0  0  1  0  0  0  0  0999 V2000
   16.1772  -12.1906  -14.4022 C   0  0  0  0  0  0  0  0  0  0  0  0
   15.7343  -10.8950  -13.8051 C   0  0  2  0  0  0  0  0  0  0  0  0
   16.8845   -9.9008  -13.9479 C   0  0  0  0  0  0  0  0  0  0  0  0
   15.3931  -10.9527  -12.3496 C   0  0  2  0  0  0  0  0  0  0  0  0
   14.3983  -11.9556  -12.0646 N   0  0  0  0  0  0  0  0  0  0  0  0
   14.8947   -9.6409  -11.8329 C   0  0  0  0  0  0  0  0  0  0  0  0
   13.8167   -9.2609  -12.3228 O   0  0  0  0  0  0  0  0  0  0  0  0
   15.7395   -6.1810   -8.3161 C   0  0  0  0  0  0  0  0  0  0  0  0
   15.7986   -7.6299   -8.8319 C   0  0  1  0  0  0  0  0  0  0  0  0
   14.5592   -8.2478   -8.1138 C   0  0  0  0  0  0  0  0  0  0  0  0
   15.3724   -7.5988  -10.3175 C   0  0  2  0  0  0  0  0  0  0  0  0
   15.6060   -8.9421  -10.8885 N   0  0  0  0  0  0  0  0  0  0  0  0
   16.1929   -6.6720  -11.1203 C   0  0  0  0  0  0  0  0  0  0  0  0
   17.3125   -7.0724  -11.6149 O   0  0  0  0  0  0  0  0  0  0  0  0
   18.8975   -5.0229  -14.8138 C   0  0  0  0  0  0  0  0  0  0  0  0
   17.4303   -4.6824  -14.7720 C   0  0  1  0  0  0  0  0  0  0  0  0
   16.8327   -5.2391  -16.0669 C   0  0  0  0  0  0  0  0  0  0  0  0
   16.7079   -5.3387  -13.6447 C   0  0  0  0  0  0  0  0  0  0  0  0
   16.6873   -4.5347  -12.3618 C   0  0  2  0  0  0  0  0  0  0  0  0
   15.8776   -5.3324  -11.4306 N   0  0  0  0  0  0  0  0  0  0  0  0
   16.1719   -3.1777  -12.5222 C   0  0  0  0  0  0  0  0  0  0  0  0
   14.9449   -2.9268  -12.4689 O   0  0  0  0  0  0  0  0  0  0  0  0
   17.0219   -2.1051  -12.7407 O   0  0  0  0  0  0  0  0  0  0  0  0
  2  1  1  1
  2  4  1  0
  3  2  1  0
  4  5  1  6
  4  6  1  0
  6 12  1  0
  7  6  2  0
  9  8  1  1
  9 10  1  0
 11 13  1  0
 11  9  1  0
 11 12  1  6
 13 14  2  0
 16 15  1  1
 16 17  1  0
 18 16  1  0
 19 18  1  6
 20 19  1  0
 20 13  1  0
 21 19  1  0
 22 21  2  0
 23 21  1  0
M  END
$$$$
