VVL.pdb
     RDKit          3D

 23 22  0  0  1  0  0  0  0  0999 V2000
   29.7260  -20.5746  -15.1672 C   0  0  0  0  0  0  0  0  0  0  0  0
   28.8856  -20.0840  -14.0339 C   0  0  2  0  0  0  0  0  0  0  0  0
   29.1385  -20.9994  -12.8382 C   0  0  0  0  0  0  0  0  0  0  0  0
   27.4109  -20.1018  -14.2857 C   0  0  2  0  0  0  0  0  0  0  0  0
   27.0490  -19.3286  -15.4466 N   0  0  0  0  0  0  0  0  0  0  0  0
   26.6315  -19.5844  -13.1189 C   0  0  0  0  0  0  0  0  0  0  0  0
   26.6210  -18.3462  -13.0042 O   0  0  0  0  0  0  0  0  0  0  0  0
   22.7478  -20.3036  -10.3279 C   0  0  0  0  0  0  0  0  0  0  0  0
   23.6850  -20.6963  -11.4838 C   0  0  1  0  0  0  0  0  0  0  0  0
   23.2071  -19.7126  -12.5962 C   0  0  0  0  0  0  0  0  0  0  0  0
   25.0933  -20.1708  -11.1228 C   0  0  2  0  0  0  0  0  0  0  0  0
   25.9912  -20.4475  -12.2639 N   0  0  0  0  0  0  0  0  0  0  0  0
   25.6800  -20.8774   -9.9683 C   0  0  0  0  0  0  0  0  0  0  0  0
   25.9334  -22.1374  -10.0501 O   0  0  0  0  0  0  0  0  0  0  0  0
   27.7116  -19.9245   -4.6381 C   0  0  0  0  0  0  0  0  0  0  0  0
   27.4594  -19.3860   -6.0225 C   0  0  1  0  0  0  0  0  0  0  0  0
   28.4540  -18.2381   -6.2145 C   0  0  0  0  0  0  0  0  0  0  0  0
   27.7344  -20.3814   -7.0980 C   0  0  0  0  0  0  0  0  0  0  0  0
   26.5089  -21.1158   -7.5997 C   0  0  2  0  0  0  0  0  0  0  0  0
   26.0187  -20.3061   -8.7236 N   0  0  0  0  0  0  0  0  0  0  0  0
   25.4855  -21.3249   -6.5791 C   0  0  0  0  0  0  0  0  0  0  0  0
   25.6184  -22.1854   -5.6772 O   0  0  0  0  0  0  0  0  0  0  0  0
   24.3190  -20.5767   -6.5643 O   0  0  0  0  0  0  0  0  0  0  0  0
  2  1  1  6
  2  4  1  0
  3  2  1  0
  4  5  1  6
  4  6  1  0
  6 12  1  0
  7  6  2  0
  9  8  1  1
  9 10  1  0
 11 13  1  0
 11  9  1  0
 11 12  1  6
 13 14  2  0
 16 15  1  1
 16 17  1  0
 18 16  1  0
 19 18  1  1
 20 19  1  0
 20 13  1  0
 21 19  1  0
 22 21  2  0
 23 21  1  0
M  END
$$$$
