VVL.pdb
     RDKit          3D

 23 22  0  0  1  0  0  0  0  0999 V2000
   20.9217  -19.8953   -9.9522 C   0  0  0  0  0  0  0  0  0  0  0  0
   21.7377  -19.1808  -10.9793 C   0  0  2  0  0  0  0  0  0  0  0  0
   20.7778  -18.4004  -11.8743 C   0  0  0  0  0  0  0  0  0  0  0  0
   22.5405  -20.0671  -11.8785 C   0  0  2  0  0  0  0  0  0  0  0  0
   21.7118  -20.9904  -12.6115 N   0  0  0  0  0  0  0  0  0  0  0  0
   23.5658  -20.8552  -11.1276 C   0  0  0  0  0  0  0  0  0  0  0  0
   23.1942  -21.9846  -10.7632 O   0  0  0  0  0  0  0  0  0  0  0  0
   28.3498  -21.6627  -10.8239 C   0  0  0  0  0  0  0  0  0  0  0  0
   27.1292  -20.9227  -11.3994 C   0  0  1  0  0  0  0  0  0  0  0  0
   26.6391  -21.9502  -12.4660 C   0  0  0  0  0  0  0  0  0  0  0  0
   26.0218  -20.9704  -10.3218 C   0  0  2  0  0  0  0  0  0  0  0  0
   24.8115  -20.3322  -10.8811 N   0  0  0  0  0  0  0  0  0  0  0  0
   26.3704  -20.1885   -9.1202 C   0  0  0  0  0  0  0  0  0  0  0  0
   26.2148  -18.9102   -9.1207 O   0  0  0  0  0  0  0  0  0  0  0  0
   27.0417  -21.6233   -3.4785 C   0  0  0  0  0  0  0  0  0  0  0  0
   26.7525  -20.6792   -4.6166 C   0  0  1  0  0  0  0  0  0  0  0  0
   26.8479  -19.2693   -4.0274 C   0  0  0  0  0  0  0  0  0  0  0  0
   27.7585  -20.7585   -5.7143 C   0  0  0  0  0  0  0  0  0  0  0  0
   27.4816  -19.8386   -6.8848 C   0  0  2  0  0  0  0  0  0  0  0  0
   26.8745  -20.7023   -7.9069 N   0  0  0  0  0  0  0  0  0  0  0  0
   28.6642  -19.1398   -7.3807 C   0  0  0  0  0  0  0  0  0  0  0  0
   28.9493  -17.9775   -7.0076 O   0  0  0  0  0  0  0  0  0  0  0  0
   29.5254  -19.7354   -8.2886 O   0  0  0  0  0  0  0  0  0  0  0  0
  2  1  1  1
  2  4  1  0
  3  2  1  0
  4  5  1  1
  4  6  1  0
  6 12  1  0
  7  6  2  0
  9  8  1  1
  9 10  1  0
 11 13  1  0
 11  9  1  0
 11 12  1  6
 13 14  2  0
 16 15  1  1
 16 17  1  0
 18 16  1  0
 19 18  1  1
 20 19  1  0
 20 13  1  0
 21 19  1  0
 22 21  2  0
 23 21  1  0
M  END
$$$$
