VVL.pdb
     RDKit          3D

 23 22  0  0  1  0  0  0  0  0999 V2000
   27.8870  -30.4316  -19.2101 C   0  0  0  0  0  0  0  0  0  0  0  0
   27.6009  -29.3733  -18.1955 C   0  0  2  0  0  0  0  0  0  0  0  0
   26.2049  -28.8235  -18.4790 C   0  0  0  0  0  0  0  0  0  0  0  0
   28.5362  -28.2058  -18.2178 C   0  0  2  0  0  0  0  0  0  0  0  0
   29.9060  -28.6036  -18.0128 N   0  0  0  0  0  0  0  0  0  0  0  0
   28.1880  -27.1821  -17.1847 C   0  0  0  0  0  0  0  0  0  0  0  0
   28.6493  -27.4043  -16.0515 O   0  0  0  0  0  0  0  0  0  0  0  0
   26.9342  -22.4794  -16.5062 C   0  0  0  0  0  0  0  0  0  0  0  0
   27.4001  -23.6498  -17.3904 C   0  0  1  0  0  0  0  0  0  0  0  0
   28.9420  -23.5962  -17.1596 C   0  0  0  0  0  0  0  0  0  0  0  0
   26.9767  -24.9533  -16.6753 C   0  0  2  0  0  0  0  0  0  0  0  0
   27.4144  -26.0942  -17.5070 N   0  0  0  0  0  0  0  0  0  0  0  0
   25.5117  -25.0808  -16.5560 C   0  0  0  0  0  0  0  0  0  0  0  0
   24.8741  -25.8881  -17.3307 O   0  0  0  0  0  0  0  0  0  0  0  0
   21.4217  -26.3362  -13.3535 C   0  0  0  0  0  0  0  0  0  0  0  0
   22.1751  -26.9259  -14.5175 C   0  0  1  0  0  0  0  0  0  0  0  0
   21.2842  -26.7153  -15.7446 C   0  0  0  0  0  0  0  0  0  0  0  0
   23.4646  -26.2305  -14.7942 C   0  0  0  0  0  0  0  0  0  0  0  0
   23.3139  -24.8291  -15.3476 C   0  0  2  0  0  0  0  0  0  0  0  0
   24.6851  -24.3919  -15.6437 N   0  0  0  0  0  0  0  0  0  0  0  0
   22.6205  -23.9097  -14.4495 C   0  0  0  0  0  0  0  0  0  0  0  0
   21.3906  -23.6894  -14.5507 O   0  0  0  0  0  0  0  0  0  0  0  0
   23.2963  -23.2393  -13.4422 O   0  0  0  0  0  0  0  0  0  0  0  0
  2  1  1  6
  2  4  1  0
  3  2  1  0
  4  5  1  1
  4  6  1  0
  6 12  1  0
  7  6  2  0
  9  8  1  1
  9 10  1  0
 11 13  1  0
 11  9  1  0
 11 12  1  6
 13 14  2  0
 16 15  1  1
 16 17  1  0
 18 16  1  0
 19 18  1  1
 20 19  1  0
 20 13  1  0
 21 19  1  0
 22 21  2  0
 23 21  1  0
M  END
$$$$
