VVL.pdb
     RDKit          3D

 23 22  0  0  1  0  0  0  0  0999 V2000
   33.0943  -22.9168  -10.7658 C   0  0  0  0  0  0  0  0  0  0  0  0
   31.9131  -22.0032  -10.8068 C   0  0  2  0  0  0  0  0  0  0  0  0
   31.1698  -22.1457   -9.4807 C   0  0  0  0  0  0  0  0  0  0  0  0
   30.9231  -22.2970  -11.8893 C   0  0  2  0  0  0  0  0  0  0  0  0
   31.5398  -22.3442  -13.1908 N   0  0  0  0  0  0  0  0  0  0  0  0
   29.8174  -21.2910  -11.9329 C   0  0  0  0  0  0  0  0  0  0  0  0
   30.1525  -20.1620  -12.3322 O   0  0  0  0  0  0  0  0  0  0  0  0
   25.1641  -20.1951  -12.4525 C   0  0  0  0  0  0  0  0  0  0  0  0
   26.3704  -21.1440  -12.5675 C   0  0  1  0  0  0  0  0  0  0  0  0
   27.0875  -20.5562  -13.8220 C   0  0  0  0  0  0  0  0  0  0  0  0
   27.3327  -20.7946  -11.4091 C   0  0  2  0  0  0  0  0  0  0  0  0
   28.5428  -21.6315  -11.5516 N   0  0  0  0  0  0  0  0  0  0  0  0
   26.7676  -21.1258  -10.0872 C   0  0  0  0  0  0  0  0  0  0  0  0
   26.4759  -22.3476   -9.8035 O   0  0  0  0  0  0  0  0  0  0  0  0
   28.5064  -18.7044   -5.7140 C   0  0  0  0  0  0  0  0  0  0  0  0
   27.9368  -19.7901   -6.5898 C   0  0  1  0  0  0  0  0  0  0  0  0
   28.2451  -21.1096   -5.8773 C   0  0  0  0  0  0  0  0  0  0  0  0
   26.4547  -19.7112   -6.7324 C   0  0  0  0  0  0  0  0  0  0  0  0
   25.8763  -20.6388   -7.7802 C   0  0  2  0  0  0  0  0  0  0  0  0
   26.5003  -20.2170   -9.0419 N   0  0  0  0  0  0  0  0  0  0  0  0
   24.4177  -20.6176   -7.8487 C   0  0  0  0  0  0  0  0  0  0  0  0
   23.8067  -19.9351   -8.7045 O   0  0  0  0  0  0  0  0  0  0  0  0
   23.6440  -21.3550   -6.9666 O   0  0  0  0  0  0  0  0  0  0  0  0
  2  1  1  1
  2  4  1  0
  3  2  1  0
  4  5  1  6
  4  6  1  0
  6 12  1  0
  7  6  2  0
  9  8  1  1
  9 10  1  0
 11 13  1  0
 11  9  1  0
 11 12  1  6
 13 14  2  0
 16 15  1  1
 16 17  1  0
 18 16  1  0
 19 18  1  1
 20 19  1  0
 20 13  1  0
 21 19  1  0
 22 21  2  0
 23 21  1  0
M  END
$$$$
