AKW.pdb
     RDKit          3D

 29 30  0  0  1  0  0  0  0  0999 V2000
   12.2722  -18.9436   19.7445 C   0  0  0  0  0  0  0  0  0  0  0  0
   11.5626  -17.7977   19.0101 C   0  0  2  0  0  0  0  0  0  0  0  0
   12.5452  -17.1805   18.1615 N   0  0  0  0  0  0  0  0  0  0  0  0
   11.1311  -16.8350   20.0358 C   0  0  0  0  0  0  0  0  0  0  0  0
   11.9893  -16.1047   20.5860 O   0  0  0  0  0  0  0  0  0  0  0  0
    9.7758  -16.6703   20.4572 N   0  0  0  0  0  0  0  0  0  0  0  0
    9.3889  -15.6913   21.4478 C   0  0  1  0  0  0  0  0  0  0  0  0
    7.9106  -15.3524   21.2931 C   0  0  0  0  0  0  0  0  0  0  0  0
    7.6930  -14.1119   20.4974 C   0  0  0  0  0  0  0  0  0  0  0  0
    7.9205  -14.4285   19.0412 C   0  0  0  0  0  0  0  0  0  0  0  0
    7.6906  -13.2318   18.1517 C   0  0  0  0  0  0  0  0  0  0  0  0
    7.9393  -13.6368   16.7733 N   0  0  0  0  0  0  0  0  0  0  0  0
    9.5308  -16.2890   22.8014 C   0  0  0  0  0  0  0  0  0  0  0  0
    9.6462  -17.5534   22.8560 O   0  0  0  0  0  0  0  0  0  0  0  0
    9.5408  -15.5272   23.9783 N   0  0  0  0  0  0  0  0  0  0  0  0
    9.7204  -16.2090   25.2673 C   0  0  1  0  0  0  0  0  0  0  0  0
    9.4691  -15.1639   26.3039 C   0  0  0  0  0  0  0  0  0  0  0  0
    8.1215  -14.6053   26.2101 C   0  0  0  0  0  0  0  0  0  0  0  0
    7.0123  -15.3867   25.8676 C   0  0  0  0  0  0  0  0  0  0  0  0
    5.9654  -14.5559   25.8370 N   0  0  0  0  0  0  0  0  0  0  0  0
    6.3416  -13.3070   26.1377 C   0  0  0  0  0  0  0  0  0  0  0  0
    5.6217  -12.1189   26.2498 C   0  0  0  0  0  0  0  0  0  0  0  0
    6.2719  -10.9683   26.5997 C   0  0  0  0  0  0  0  0  0  0  0  0
    7.6272  -11.0072   26.8347 C   0  0  0  0  0  0  0  0  0  0  0  0
    8.3585  -12.1629   26.7304 C   0  0  0  0  0  0  0  0  0  0  0  0
    7.6949  -13.3213   26.3754 C   0  0  0  0  0  0  0  0  0  0  0  0
    8.8748  -17.4035   25.3528 C   0  0  0  0  0  0  0  0  0  0  0  0
    7.8668  -17.4826   24.5828 O   0  0  0  0  0  0  0  0  0  0  0  0
    9.0842  -18.4649   26.2025 O   0  0  0  0  0  0  0  0  0  0  0  0
  2  3  1  0
  2  1  1  1
  4  5  2  0
  4  2  1  0
  6  4  1  0
  7  6  1  0
  7 13  1  0
  7  8  1  6
  9  8  1  0
 10  9  1  0
 11 10  1  0
 12 11  1  0
 13 14  2  0
 13 15  1  0
 15 16  1  0
 16 17  1  1
 16 27  1  0
 18 19  2  0
 18 17  1  0
 20 19  1  0
 21 26  2  0
 21 20  1  0
 22 21  1  0
 23 24  1  0
 23 22  2  0
 24 25  2  0
 25 26  1  0
 26 18  1  0
 27 29  1  0
 28 27  2  0
M  END
$$$$
