AKW.pdb
     RDKit          3D

 29 30  0  0  1  0  0  0  0  0999 V2000
    6.5174  -19.3156   22.2281 C   0  0  0  0  0  0  0  0  0  0  0  0
    6.4484  -18.4085   20.9919 C   0  0  2  0  0  0  0  0  0  0  0  0
    6.5692  -19.2655   19.8441 N   0  0  0  0  0  0  0  0  0  0  0  0
    7.6129  -17.5112   21.0546 C   0  0  0  0  0  0  0  0  0  0  0  0
    8.7386  -17.9489   20.7175 O   0  0  0  0  0  0  0  0  0  0  0  0
    7.5498  -16.1489   21.4808 N   0  0  0  0  0  0  0  0  0  0  0  0
    8.6869  -15.2604   21.3972 C   0  0  1  0  0  0  0  0  0  0  0  0
    8.2106  -13.8215   21.2341 C   0  0  0  0  0  0  0  0  0  0  0  0
    7.4961  -13.6029   19.9452 C   0  0  0  0  0  0  0  0  0  0  0  0
    8.5178  -13.4861   18.8428 C   0  0  0  0  0  0  0  0  0  0  0  0
    7.8848  -13.2091   17.5017 C   0  0  0  0  0  0  0  0  0  0  0  0
    8.9364  -13.2241   16.4920 N   0  0  0  0  0  0  0  0  0  0  0  0
    9.4294  -15.3008   22.6843 C   0  0  0  0  0  0  0  0  0  0  0  0
   10.4058  -14.4962   22.8036 O   0  0  0  0  0  0  0  0  0  0  0  0
    9.0973  -16.1691   23.7337 N   0  0  0  0  0  0  0  0  0  0  0  0
    9.9774  -16.2374   24.9082 C   0  0  1  0  0  0  0  0  0  0  0  0
    9.7388  -14.9657   25.6536 C   0  0  0  0  0  0  0  0  0  0  0  0
    8.3190  -14.7370   25.9160 C   0  0  0  0  0  0  0  0  0  0  0  0
    7.3793  -15.7736   25.8903 C   0  0  0  0  0  0  0  0  0  0  0  0
    6.1923  -15.2076   26.1305 N   0  0  0  0  0  0  0  0  0  0  0  0
    6.3229  -13.8869   26.3061 C   0  0  0  0  0  0  0  0  0  0  0  0
    5.3934  -12.8890   26.5925 C   0  0  0  0  0  0  0  0  0  0  0  0
    5.8167  -11.5979   26.7435 C   0  0  0  0  0  0  0  0  0  0  0  0
    7.1556  -11.3097   26.6092 C   0  0  0  0  0  0  0  0  0  0  0  0
    8.0901  -12.2731   26.3268 C   0  0  0  0  0  0  0  0  0  0  0  0
    7.6547  -13.5752   26.1746 C   0  0  0  0  0  0  0  0  0  0  0  0
    9.7469  -17.4703   25.6671 C   0  0  0  0  0  0  0  0  0  0  0  0
    8.7824  -18.2202   25.3168 O   0  0  0  0  0  0  0  0  0  0  0  0
   10.4987  -17.8955   26.7377 O   0  0  0  0  0  0  0  0  0  0  0  0
  2  3  1  0
  2  1  1  1
  4  5  2  0
  4  2  1  0
  6  4  1  0
  7  6  1  0
  7 13  1  0
  7  8  1  1
  9  8  1  0
 10  9  1  0
 11 10  1  0
 12 11  1  0
 13 14  2  0
 13 15  1  0
 15 16  1  0
 16 17  1  1
 16 27  1  0
 18 19  2  0
 18 17  1  0
 20 19  1  0
 21 26  2  0
 21 20  1  0
 22 21  1  0
 23 24  1  0
 23 22  2  0
 24 25  2  0
 25 26  1  0
 26 18  1  0
 27 29  1  0
 28 27  2  0
M  END
$$$$
