AKW.pdb
     RDKit          3D

 29 30  0  0  1  0  0  0  0  0999 V2000
   12.7432  -19.3792   20.4231 C   0  0  0  0  0  0  0  0  0  0  0  0
   11.8864  -18.9477   19.2249 C   0  0  2  0  0  0  0  0  0  0  0  0
   12.7974  -18.5103   18.2025 N   0  0  0  0  0  0  0  0  0  0  0  0
   11.0710  -17.8071   19.6712 C   0  0  0  0  0  0  0  0  0  0  0  0
   11.5275  -16.6458   19.5472 O   0  0  0  0  0  0  0  0  0  0  0  0
    9.7694  -17.9323   20.2473 N   0  0  0  0  0  0  0  0  0  0  0  0
    8.9357  -16.7853   20.5275 C   0  0  1  0  0  0  0  0  0  0  0  0
    7.5150  -17.0442   20.0386 C   0  0  0  0  0  0  0  0  0  0  0  0
    7.3288  -18.4387   19.5487 C   0  0  0  0  0  0  0  0  0  0  0  0
    5.9461  -18.5612   18.9605 C   0  0  0  0  0  0  0  0  0  0  0  0
    5.6189  -19.9770   18.5553 C   0  0  0  0  0  0  0  0  0  0  0  0
    4.2818  -19.9850   17.9741 N   0  0  0  0  0  0  0  0  0  0  0  0
    8.8343  -16.6076   21.9998 C   0  0  0  0  0  0  0  0  0  0  0  0
    7.8116  -15.9875   22.4292 O   0  0  0  0  0  0  0  0  0  0  0  0
    9.7987  -17.0863   22.8976 N   0  0  0  0  0  0  0  0  0  0  0  0
    9.9709  -16.4062   24.1886 C   0  0  1  0  0  0  0  0  0  0  0  0
    9.2853  -15.0887   24.0341 C   0  0  0  0  0  0  0  0  0  0  0  0
    8.6501  -14.6475   25.2747 C   0  0  0  0  0  0  0  0  0  0  0  0
    8.5862  -15.4621   26.4107 C   0  0  0  0  0  0  0  0  0  0  0  0
    7.9113  -14.7665   27.3314 N   0  0  0  0  0  0  0  0  0  0  0  0
    7.5483  -13.5709   26.8513 C   0  0  0  0  0  0  0  0  0  0  0  0
    6.8573  -12.5066   27.4274 C   0  0  0  0  0  0  0  0  0  0  0  0
    6.6396  -11.3713   26.6975 C   0  0  0  0  0  0  0  0  0  0  0  0
    7.1086  -11.3027   25.4057 C   0  0  0  0  0  0  0  0  0  0  0  0
    7.7905  -12.3361   24.8154 C   0  0  0  0  0  0  0  0  0  0  0  0
    8.0058  -13.4804   25.5587 C   0  0  0  0  0  0  0  0  0  0  0  0
    9.4930  -17.2445   25.2924 C   0  0  0  0  0  0  0  0  0  0  0  0
    8.5876  -18.1020   25.0475 O   0  0  0  0  0  0  0  0  0  0  0  0
    9.9507  -17.1867   26.5884 O   0  0  0  0  0  0  0  0  0  0  0  0
  2  3  1  0
  2  1  1  1
  4  5  2  0
  4  2  1  0
  6  4  1  0
  7  6  1  0
  7 13  1  0
  7  8  1  1
  9  8  1  0
 10  9  1  0
 11 10  1  0
 12 11  1  0
 13 14  2  0
 13 15  1  0
 15 16  1  0
 16 17  1  6
 16 27  1  0
 18 19  2  0
 18 17  1  0
 20 19  1  0
 21 26  2  0
 21 20  1  0
 22 21  1  0
 23 24  1  0
 23 22  2  0
 24 25  2  0
 25 26  1  0
 26 18  1  0
 27 29  1  0
 28 27  2  0
M  END
$$$$
