AKW.pdb
     RDKit          3D

 29 30  0  0  1  0  0  0  0  0999 V2000
    5.3432  -19.3142   24.6155 C   0  0  0  0  0  0  0  0  0  0  0  0
    5.1727  -19.2201   23.0930 C   0  0  2  0  0  0  0  0  0  0  0  0
    5.2382  -20.5640   22.5868 N   0  0  0  0  0  0  0  0  0  0  0  0
    6.3177  -18.4505   22.5814 C   0  0  0  0  0  0  0  0  0  0  0  0
    7.4619  -18.9621   22.6189 O   0  0  0  0  0  0  0  0  0  0  0  0
    6.2153  -17.1347   22.0337 N   0  0  0  0  0  0  0  0  0  0  0  0
    7.3760  -16.3751   21.6277 C   0  0  1  0  0  0  0  0  0  0  0  0
    6.9438  -15.1666   20.8049 C   0  0  0  0  0  0  0  0  0  0  0  0
    8.0901  -14.5091   20.1170 C   0  0  0  0  0  0  0  0  0  0  0  0
    7.5499  -13.6143   19.0306 C   0  0  0  0  0  0  0  0  0  0  0  0
    8.6439  -13.0341   18.1691 C   0  0  0  0  0  0  0  0  0  0  0  0
    8.0239  -12.1832   17.1605 N   0  0  0  0  0  0  0  0  0  0  0  0
    8.0443  -15.8272   22.8372 C   0  0  0  0  0  0  0  0  0  0  0  0
    7.5402  -14.7736   23.3379 O   0  0  0  0  0  0  0  0  0  0  0  0
    9.1740  -16.4165   23.4218 N   0  0  0  0  0  0  0  0  0  0  0  0
    9.9870  -15.6267   24.3566 C   0  0  1  0  0  0  0  0  0  0  0  0
    9.4329  -15.9261   25.7105 C   0  0  0  0  0  0  0  0  0  0  0  0
    8.1457  -15.2716   25.9379 C   0  0  0  0  0  0  0  0  0  0  0  0
    6.9366  -15.9757   25.9154 C   0  0  0  0  0  0  0  0  0  0  0  0
    5.9737  -15.0707   26.1180 N   0  0  0  0  0  0  0  0  0  0  0  0
    6.4959  -13.8472   26.2670 C   0  0  0  0  0  0  0  0  0  0  0  0
    5.9085  -12.6074   26.5116 C   0  0  0  0  0  0  0  0  0  0  0  0
    6.7010  -11.5011   26.6428 C   0  0  0  0  0  0  0  0  0  0  0  0
    8.0659  -11.6352   26.5304 C   0  0  0  0  0  0  0  0  0  0  0  0
    8.6684  -12.8435   26.2891 C   0  0  0  0  0  0  0  0  0  0  0  0
    7.8612  -13.9566   26.1567 C   0  0  0  0  0  0  0  0  0  0  0  0
   11.4148  -15.9080   24.1791 C   0  0  0  0  0  0  0  0  0  0  0  0
   11.7487  -16.8476   23.3911 O   0  0  0  0  0  0  0  0  0  0  0  0
   12.4400  -15.2292   24.7958 O   0  0  0  0  0  0  0  0  0  0  0  0
  2  3  1  0
  2  1  1  1
  4  5  2  0
  4  2  1  0
  6  4  1  0
  7  6  1  0
  7 13  1  0
  7  8  1  6
  9  8  1  0
 10  9  1  0
 11 10  1  0
 12 11  1  0
 13 14  2  0
 13 15  1  0
 15 16  1  0
 16 17  1  1
 16 27  1  0
 18 19  2  0
 18 17  1  0
 20 19  1  0
 21 26  2  0
 21 20  1  0
 22 21  1  0
 23 24  1  0
 23 22  2  0
 24 25  2  0
 25 26  1  0
 26 18  1  0
 27 29  1  0
 28 27  2  0
M  END
$$$$
