AKW.pdb
     RDKit          3D

 29 30  0  0  1  0  0  0  0  0999 V2000
    8.0408  -12.2805   20.1945 C   0  0  0  0  0  0  0  0  0  0  0  0
    8.1134  -13.6103   19.4315 C   0  0  2  0  0  0  0  0  0  0  0  0
    6.9381  -13.6772   18.6064 N   0  0  0  0  0  0  0  0  0  0  0  0
    8.0644  -14.6834   20.4371 C   0  0  0  0  0  0  0  0  0  0  0  0
    6.9509  -15.0557   20.8776 O   0  0  0  0  0  0  0  0  0  0  0  0
    9.2195  -15.3445   20.9570 N   0  0  0  0  0  0  0  0  0  0  0  0
    9.1247  -16.5046   21.8140 C   0  0  1  0  0  0  0  0  0  0  0  0
   10.0343  -17.6112   21.2923 C   0  0  0  0  0  0  0  0  0  0  0  0
    9.8990  -18.8725   22.0735 C   0  0  0  0  0  0  0  0  0  0  0  0
   10.7284  -19.9414   21.4084 C   0  0  0  0  0  0  0  0  0  0  0  0
   10.5998  -21.2777   22.0966 C   0  0  0  0  0  0  0  0  0  0  0  0
   11.3886  -22.2502   21.3498 N   0  0  0  0  0  0  0  0  0  0  0  0
    9.6411  -16.1542   23.1632 C   0  0  0  0  0  0  0  0  0  0  0  0
   10.6473  -15.3791   23.2038 O   0  0  0  0  0  0  0  0  0  0  0  0
    9.0721  -16.6360   24.3504 N   0  0  0  0  0  0  0  0  0  0  0  0
    9.6733  -16.2539   25.6354 C   0  0  1  0  0  0  0  0  0  0  0  0
    8.5464  -16.2616   26.6152 C   0  0  0  0  0  0  0  0  0  0  0  0
    7.5014  -15.3020   26.2629 C   0  0  0  0  0  0  0  0  0  0  0  0
    6.3190  -15.6886   25.6220 C   0  0  0  0  0  0  0  0  0  0  0  0
    5.6203  -14.5671   25.4192 N   0  0  0  0  0  0  0  0  0  0  0  0
    6.2828  -13.5034   25.8898 C   0  0  0  0  0  0  0  0  0  0  0  0
    5.9622  -12.1477   25.9260 C   0  0  0  0  0  0  0  0  0  0  0  0
    6.8348  -11.2646   26.4986 C   0  0  0  0  0  0  0  0  0  0  0  0
    8.0147  -11.7340   27.0288 C   0  0  0  0  0  0  0  0  0  0  0  0
    8.3541  -13.0627   27.0051 C   0  0  0  0  0  0  0  0  0  0  0  0
    7.4679  -13.9489   26.4240 C   0  0  0  0  0  0  0  0  0  0  0  0
   10.8065  -17.1236   25.9652 C   0  0  0  0  0  0  0  0  0  0  0  0
   10.8186  -18.3017   25.4885 O   0  0  0  0  0  0  0  0  0  0  0  0
   11.8770  -16.7680   26.7526 O   0  0  0  0  0  0  0  0  0  0  0  0
  2  3  1  0
  2  1  1  1
  4  5  2  0
  4  2  1  0
  6  4  1  0
  7  6  1  0
  7 13  1  0
  7  8  1  6
  9  8  1  0
 10  9  1  0
 11 10  1  0
 12 11  1  0
 13 14  2  0
 13 15  1  0
 15 16  1  0
 16 17  1  1
 16 27  1  0
 18 19  2  0
 18 17  1  0
 20 19  1  0
 21 26  2  0
 21 20  1  0
 22 21  1  0
 23 24  1  0
 23 22  2  0
 24 25  2  0
 25 26  1  0
 26 18  1  0
 27 29  1  0
 28 27  2  0
M  END
$$$$
