AKW.pdb
     RDKit          3D

 29 30  0  0  1  0  0  0  0  0999 V2000
    8.6221  -19.7414   21.7279 C   0  0  0  0  0  0  0  0  0  0  0  0
    8.4476  -18.7749   20.5484 C   0  0  2  0  0  0  0  0  0  0  0  0
    9.1520  -19.3508   19.4354 N   0  0  0  0  0  0  0  0  0  0  0  0
    9.0945  -17.5104   20.9326 C   0  0  0  0  0  0  0  0  0  0  0  0
   10.3293  -17.3793   20.7573 O   0  0  0  0  0  0  0  0  0  0  0  0
    8.4007  -16.3989   21.5026 N   0  0  0  0  0  0  0  0  0  0  0  0
    9.0515  -15.1355   21.7663 C   0  0  1  0  0  0  0  0  0  0  0  0
    8.0483  -13.9959   21.6285 C   0  0  0  0  0  0  0  0  0  0  0  0
    7.3433  -14.0161   20.3162 C   0  0  0  0  0  0  0  0  0  0  0  0
    8.2941  -13.5300   19.2520 C   0  0  0  0  0  0  0  0  0  0  0  0
    7.6507  -13.4792   17.8884 C   0  0  0  0  0  0  0  0  0  0  0  0
    8.6695  -13.0911   16.9204 N   0  0  0  0  0  0  0  0  0  0  0  0
    9.5057  -15.1101   23.1815 C   0  0  0  0  0  0  0  0  0  0  0  0
   10.1002  -14.0561   23.5696 O   0  0  0  0  0  0  0  0  0  0  0  0
    9.3054  -16.1760   24.0698 N   0  0  0  0  0  0  0  0  0  0  0  0
    9.8735  -16.0933   25.4223 C   0  0  1  0  0  0  0  0  0  0  0  0
    8.7447  -16.4187   26.3441 C   0  0  0  0  0  0  0  0  0  0  0  0
    7.6300  -15.4832   26.2046 C   0  0  0  0  0  0  0  0  0  0  0  0
    6.3960  -15.8679   25.6686 C   0  0  0  0  0  0  0  0  0  0  0  0
    5.6365  -14.7680   25.6528 N   0  0  0  0  0  0  0  0  0  0  0  0
    6.3091  -13.7196   26.1431 C   0  0  0  0  0  0  0  0  0  0  0  0
    5.9441  -12.3896   26.3428 C   0  0  0  0  0  0  0  0  0  0  0  0
    6.8439  -11.5198   26.8930 C   0  0  0  0  0  0  0  0  0  0  0  0
    8.0948  -11.9769   27.2393 C   0  0  0  0  0  0  0  0  0  0  0  0
    8.4789  -13.2803   27.0524 C   0  0  0  0  0  0  0  0  0  0  0  0
    7.5647  -14.1530   26.4950 C   0  0  0  0  0  0  0  0  0  0  0  0
   11.0602  -16.9449   25.5472 C   0  0  0  0  0  0  0  0  0  0  0  0
   11.6675  -16.9694   26.6634 O   0  0  0  0  0  0  0  0  0  0  0  0
   11.5778  -17.7362   24.5481 O   0  0  0  0  0  0  0  0  0  0  0  0
  2  3  1  0
  2  1  1  1
  4  5  2  0
  4  2  1  0
  6  4  1  0
  7  6  1  0
  7 13  1  0
  7  8  1  1
  9  8  1  0
 10  9  1  0
 11 10  1  0
 12 11  1  0
 13 14  2  0
 13 15  1  0
 15 16  1  0
 16 17  1  1
 16 27  1  0
 18 19  2  0
 18 17  1  0
 20 19  1  0
 21 26  2  0
 21 20  1  0
 22 21  1  0
 23 24  1  0
 23 22  2  0
 24 25  2  0
 25 26  1  0
 26 18  1  0
 27 29  1  0
 28 27  2  0
M  END
$$$$
