YFG.pdb
     RDKit          3D

 28 29  0  0  1  0  0  0  0  0999 V2000
   22.2920  -19.3031  -17.6871 O   0  0  0  0  0  0  0  0  0  0  0  0
   22.7232  -19.6886  -16.4168 C   0  0  0  0  0  0  0  0  0  0  0  0
   23.1566  -18.7670  -15.4865 C   0  0  0  0  0  0  0  0  0  0  0  0
   23.5765  -19.1804  -14.2395 C   0  0  0  0  0  0  0  0  0  0  0  0
   23.5880  -20.5049  -13.8575 C   0  0  0  0  0  0  0  0  0  0  0  0
   24.0422  -20.9514  -12.5087 C   0  0  0  0  0  0  0  0  0  0  0  0
   25.5302  -20.6923  -12.3276 C   0  0  2  0  0  0  0  0  0  0  0  0
   26.2330  -21.4506  -13.3168 N   0  0  0  0  0  0  0  0  0  0  0  0
   25.9202  -20.9959  -10.9467 C   0  0  0  0  0  0  0  0  0  0  0  0
   25.9056  -22.1948  -10.5774 O   0  0  0  0  0  0  0  0  0  0  0  0
   23.1526  -21.4301  -14.7919 C   0  0  0  0  0  0  0  0  0  0  0  0
   22.7334  -21.0148  -16.0378 C   0  0  0  0  0  0  0  0  0  0  0  0
   26.3154  -20.0280   -9.9907 N   0  0  0  0  0  0  0  0  0  0  0  0
   26.6654  -20.3772   -8.6304 C   0  0  1  0  0  0  0  0  0  0  0  0
   27.6223  -19.3273   -8.0857 C   0  0  0  0  0  0  0  0  0  0  0  0
   28.0431  -19.6514   -6.7017 C   0  0  0  0  0  0  0  0  0  0  0  0
   28.8442  -20.7418   -6.4439 C   0  0  0  0  0  0  0  0  0  0  0  0
   29.2176  -21.0145   -5.1437 C   0  0  0  0  0  0  0  0  0  0  0  0
   28.8082  -20.2218   -4.0962 C   0  0  0  0  0  0  0  0  0  0  0  0
   28.0079  -19.1343   -4.3622 C   0  0  0  0  0  0  0  0  0  0  0  0
   27.6213  -18.8448   -5.6725 C   0  0  0  0  0  0  0  0  0  0  0  0
   25.4604  -20.4200   -7.7634 C   0  0  0  0  0  0  0  0  0  0  0  0
   24.5638  -19.5359   -7.8984 O   0  0  0  0  0  0  0  0  0  0  0  0
   25.3037  -21.4291   -6.7959 N   0  0  0  0  0  0  0  0  0  0  0  0
   24.1715  -21.3570   -5.9025 C   0  0  0  0  0  0  0  0  0  0  0  0
   22.9384  -21.8542   -6.5545 C   0  0  0  0  0  0  0  0  0  0  0  0
   22.9686  -22.2390   -7.7487 O   0  0  0  0  0  0  0  0  0  0  0  0
   21.7326  -21.9104   -5.8807 O   0  0  0  0  0  0  0  0  0  0  0  0
  2  1  1  0
  3  2  2  0
  4  3  1  0
  5  4  2  0
  5 11  1  0
  6  7  1  0
  6  5  1  0
  7  8  1  6
  9  7  1  0
  9 10  2  0
 11 12  2  0
 12  2  1  0
 13  9  1  0
 14 13  1  0
 14 15  1  1
 16 15  1  0
 16 21  2  0
 17 18  2  0
 17 16  1  0
 18 19  1  0
 19 20  2  0
 21 20  1  0
 22 14  1  0
 23 22  2  0
 24 22  1  0
 25 24  1  0
 26 28  1  0
 26 25  1  0
 27 26  2  0
M  END
$$$$
