YFG.pdb
     RDKit          3D

 28 29  0  0  1  0  0  0  0  0999 V2000
   26.1052  -16.6076  -21.2283 O   0  0  0  0  0  0  0  0  0  0  0  0
   25.8291  -17.4258  -20.1317 C   0  0  0  0  0  0  0  0  0  0  0  0
   25.6672  -16.9093  -18.8630 C   0  0  0  0  0  0  0  0  0  0  0  0
   25.3949  -17.7449  -17.8001 C   0  0  0  0  0  0  0  0  0  0  0  0
   25.2715  -19.1109  -17.9377 C   0  0  0  0  0  0  0  0  0  0  0  0
   24.9771  -20.0142  -16.7878 C   0  0  0  0  0  0  0  0  0  0  0  0
   26.2262  -20.2471  -15.9515 C   0  0  2  0  0  0  0  0  0  0  0  0
   27.1376  -21.0293  -16.7292 N   0  0  0  0  0  0  0  0  0  0  0  0
   25.8558  -20.8531  -14.6682 C   0  0  0  0  0  0  0  0  0  0  0  0
   25.6981  -22.0968  -14.6244 O   0  0  0  0  0  0  0  0  0  0  0  0
   25.4341  -19.6293  -19.2119 C   0  0  0  0  0  0  0  0  0  0  0  0
   25.7062  -18.7923  -20.2731 C   0  0  0  0  0  0  0  0  0  0  0  0
   25.6612  -20.1322  -13.4642 N   0  0  0  0  0  0  0  0  0  0  0  0
   25.2779  -20.7766  -12.2261 C   0  0  1  0  0  0  0  0  0  0  0  0
   26.0816  -20.1670  -11.0872 C   0  0  0  0  0  0  0  0  0  0  0  0
   27.5279  -20.4561  -11.2364 C   0  0  0  0  0  0  0  0  0  0  0  0
   28.1973  -21.2132  -10.3004 C   0  0  0  0  0  0  0  0  0  0  0  0
   29.5437  -21.4635  -10.4704 C   0  0  0  0  0  0  0  0  0  0  0  0
   30.2353  -20.9741  -11.5545 C   0  0  0  0  0  0  0  0  0  0  0  0
   29.5591  -20.2186  -12.4851 C   0  0  0  0  0  0  0  0  0  0  0  0
   28.1966  -19.9563  -12.3276 C   0  0  0  0  0  0  0  0  0  0  0  0
   23.8322  -20.5810  -11.9479 C   0  0  0  0  0  0  0  0  0  0  0  0
   23.2356  -19.5735  -12.4300 O   0  0  0  0  0  0  0  0  0  0  0  0
   23.1195  -21.5001  -11.1566 N   0  0  0  0  0  0  0  0  0  0  0  0
   21.7284  -21.2336  -10.8754 C   0  0  0  0  0  0  0  0  0  0  0  0
   20.8538  -21.7367  -11.9593 C   0  0  0  0  0  0  0  0  0  0  0  0
   21.3571  -22.2612  -12.9824 O   0  0  0  0  0  0  0  0  0  0  0  0
   19.4765  -21.6468  -11.8819 O   0  0  0  0  0  0  0  0  0  0  0  0
  2  1  1  0
  3  2  2  0
  4  3  1  0
  5  4  2  0
  5 11  1  0
  6  7  1  0
  6  5  1  0
  7  8  1  6
  9  7  1  0
  9 10  2  0
 11 12  2  0
 12  2  1  0
 13  9  1  0
 14 13  1  0
 14 15  1  1
 16 15  1  0
 16 21  2  0
 17 18  2  0
 17 16  1  0
 18 19  1  0
 19 20  2  0
 21 20  1  0
 22 14  1  0
 23 22  2  0
 24 22  1  0
 25 24  1  0
 26 28  1  0
 26 25  1  0
 27 26  2  0
M  END
$$$$
