YFG.pdb
     RDKit          3D

 28 29  0  0  1  0  0  0  0  0999 V2000
   25.4813  -16.6489  -17.3579 O   0  0  0  0  0  0  0  0  0  0  0  0
   25.3993  -17.4323  -16.2055 C   0  0  0  0  0  0  0  0  0  0  0  0
   24.7207  -18.6331  -16.1907 C   0  0  0  0  0  0  0  0  0  0  0  0
   24.6582  -19.3838  -15.0355 C   0  0  0  0  0  0  0  0  0  0  0  0
   25.2544  -18.9899  -13.8567 C   0  0  0  0  0  0  0  0  0  0  0  0
   25.1863  -19.8022  -12.6075 C   0  0  0  0  0  0  0  0  0  0  0  0
   26.5582  -20.3512  -12.2459 C   0  0  2  0  0  0  0  0  0  0  0  0
   26.8689  -21.4018  -13.1663 N   0  0  0  0  0  0  0  0  0  0  0  0
   26.5709  -20.7611  -10.8376 C   0  0  0  0  0  0  0  0  0  0  0  0
   26.2180  -21.9322  -10.5588 O   0  0  0  0  0  0  0  0  0  0  0  0
   25.9357  -17.7840  -13.8719 C   0  0  0  0  0  0  0  0  0  0  0  0
   25.9971  -17.0350  -15.0277 C   0  0  0  0  0  0  0  0  0  0  0  0
   26.9551  -19.9259   -9.7598 N   0  0  0  0  0  0  0  0  0  0  0  0
   27.0502  -20.4083   -8.3985 C   0  0  1  0  0  0  0  0  0  0  0  0
   28.0348  -19.5341   -7.6364 C   0  0  0  0  0  0  0  0  0  0  0  0
   28.0860  -19.9080   -6.2028 C   0  0  0  0  0  0  0  0  0  0  0  0
   27.1888  -19.3780   -5.3020 C   0  0  0  0  0  0  0  0  0  0  0  0
   27.2645  -19.7479   -3.9747 C   0  0  0  0  0  0  0  0  0  0  0  0
   28.2165  -20.6352   -3.5282 C   0  0  0  0  0  0  0  0  0  0  0  0
   29.1092  -21.1601   -4.4345 C   0  0  0  0  0  0  0  0  0  0  0  0
   29.0459  -20.7959   -5.7811 C   0  0  0  0  0  0  0  0  0  0  0  0
   25.7318  -20.3474   -7.7174 C   0  0  0  0  0  0  0  0  0  0  0  0
   24.8532  -19.5351   -8.1319 O   0  0  0  0  0  0  0  0  0  0  0  0
   25.4483  -21.1799   -6.6195 N   0  0  0  0  0  0  0  0  0  0  0  0
   24.4321  -22.1949   -6.7688 C   0  0  0  0  0  0  0  0  0  0  0  0
   23.0782  -21.6387   -6.5439 C   0  0  0  0  0  0  0  0  0  0  0  0
   22.9063  -20.3961   -6.5049 O   0  0  0  0  0  0  0  0  0  0  0  0
   21.9766  -22.4560   -6.3721 O   0  0  0  0  0  0  0  0  0  0  0  0
  2  1  1  0
  3  2  2  0
  4  3  1  0
  5  4  2  0
  5 11  1  0
  6  7  1  0
  6  5  1  0
  7  8  1  6
  9  7  1  0
  9 10  2  0
 11 12  2  0
 12  2  1  0
 13  9  1  0
 14 13  1  0
 14 15  1  1
 16 15  1  0
 16 21  2  0
 17 18  2  0
 17 16  1  0
 18 19  1  0
 19 20  2  0
 21 20  1  0
 22 14  1  0
 23 22  2  0
 24 22  1  0
 25 24  1  0
 26 28  1  0
 26 25  1  0
 27 26  2  0
M  END
$$$$
