YFG.pdb
     RDKit          3D

 28 29  0  0  1  0  0  0  0  0999 V2000
   17.7270  -23.8909  -14.2480 O   0  0  0  0  0  0  0  0  0  0  0  0
   18.9306  -23.2132  -14.0466 C   0  0  0  0  0  0  0  0  0  0  0  0
   20.1287  -23.8843  -13.9168 C   0  0  0  0  0  0  0  0  0  0  0  0
   21.3009  -23.1851  -13.7186 C   0  0  0  0  0  0  0  0  0  0  0  0
   21.3449  -21.8096  -13.6404 C   0  0  0  0  0  0  0  0  0  0  0  0
   22.6130  -21.0540  -13.4260 C   0  0  0  0  0  0  0  0  0  0  0  0
   23.0356  -21.1128  -11.9659 C   0  0  2  0  0  0  0  0  0  0  0  0
   22.0584  -20.4063  -11.1956 N   0  0  0  0  0  0  0  0  0  0  0  0
   24.4012  -20.5966  -11.8255 C   0  0  0  0  0  0  0  0  0  0  0  0
   24.5582  -19.3556  -11.7310 O   0  0  0  0  0  0  0  0  0  0  0  0
   20.1416  -21.1360  -13.7708 C   0  0  0  0  0  0  0  0  0  0  0  0
   18.9709  -21.8367  -13.9688 C   0  0  0  0  0  0  0  0  0  0  0  0
   25.5661  -21.4020  -11.7884 N   0  0  0  0  0  0  0  0  0  0  0  0
   26.8940  -20.8420  -11.6535 C   0  0  1  0  0  0  0  0  0  0  0  0
   27.6370  -21.5999  -10.5635 C   0  0  0  0  0  0  0  0  0  0  0  0
   27.3735  -21.0139   -9.2276 C   0  0  0  0  0  0  0  0  0  0  0  0
   26.0873  -20.7404   -8.8173 C   0  0  0  0  0  0  0  0  0  0  0  0
   25.8777  -20.1952   -7.5671 C   0  0  0  0  0  0  0  0  0  0  0  0
   26.9246  -19.9175   -6.7185 C   0  0  0  0  0  0  0  0  0  0  0  0
   28.2065  -20.1937   -7.1360 C   0  0  0  0  0  0  0  0  0  0  0  0
   28.4354  -20.7455   -8.3982 C   0  0  0  0  0  0  0  0  0  0  0  0
   27.6557  -20.9628  -12.9227 C   0  0  0  0  0  0  0  0  0  0  0  0
   28.3455  -22.0026  -13.1389 O   0  0  0  0  0  0  0  0  0  0  0  0
   27.6199  -19.9378  -13.8855 N   0  0  0  0  0  0  0  0  0  0  0  0
   28.2017  -20.1905  -15.1827 C   0  0  0  0  0  0  0  0  0  0  0  0
   27.9899  -19.0474  -16.0999 C   0  0  0  0  0  0  0  0  0  0  0  0
   27.0542  -18.2374  -15.8913 O   0  0  0  0  0  0  0  0  0  0  0  0
   28.8024  -18.8375  -17.1985 O   0  0  0  0  0  0  0  0  0  0  0  0
  2  1  1  0
  3  2  2  0
  4  3  1  0
  5  4  2  0
  5 11  1  0
  6  7  1  0
  6  5  1  0
  7  8  1  1
  9  7  1  0
  9 10  2  0
 11 12  2  0
 12  2  1  0
 13  9  1  0
 14 13  1  0
 14 15  1  1
 16 15  1  0
 16 21  2  0
 17 18  2  0
 17 16  1  0
 18 19  1  0
 19 20  2  0
 21 20  1  0
 22 14  1  0
 23 22  2  0
 24 22  1  0
 25 24  1  0
 26 28  1  0
 26 25  1  0
 27 26  2  0
M  END
$$$$
