YFG.pdb
     RDKit          3D

 28 29  0  0  1  0  0  0  0  0999 V2000
   26.5114  -16.1083  -17.1357 O   0  0  0  0  0  0  0  0  0  0  0  0
   26.3334  -16.9633  -16.0468 C   0  0  0  0  0  0  0  0  0  0  0  0
   25.7423  -18.2019  -16.1853 C   0  0  0  0  0  0  0  0  0  0  0  0
   25.5810  -19.0233  -15.0892 C   0  0  0  0  0  0  0  0  0  0  0  0
   25.9900  -18.6657  -13.8223 C   0  0  0  0  0  0  0  0  0  0  0  0
   25.8152  -19.5545  -12.6373 C   0  0  0  0  0  0  0  0  0  0  0  0
   27.1518  -20.1282  -12.1917 C   0  0  2  0  0  0  0  0  0  0  0  0
   27.5317  -21.1398  -13.1296 N   0  0  0  0  0  0  0  0  0  0  0  0
   27.0502  -20.5991  -10.8063 C   0  0  0  0  0  0  0  0  0  0  0  0
   26.9799  -21.8353  -10.6049 O   0  0  0  0  0  0  0  0  0  0  0  0
   26.5835  -17.4218  -13.6836 C   0  0  0  0  0  0  0  0  0  0  0  0
   26.7438  -16.6022  -14.7805 C   0  0  0  0  0  0  0  0  0  0  0  0
   27.0254  -19.7546   -9.6691 N   0  0  0  0  0  0  0  0  0  0  0  0
   27.1903  -20.2595   -8.3227 C   0  0  1  0  0  0  0  0  0  0  0  0
   27.5777  -19.1051   -7.4105 C   0  0  0  0  0  0  0  0  0  0  0  0
   27.9334  -19.5885   -6.0550 C   0  0  0  0  0  0  0  0  0  0  0  0
   28.7441  -20.6895   -5.8878 C   0  0  0  0  0  0  0  0  0  0  0  0
   29.0557  -21.1124   -4.6117 C   0  0  0  0  0  0  0  0  0  0  0  0
   28.5752  -20.4596   -3.4999 C   0  0  0  0  0  0  0  0  0  0  0  0
   27.7659  -19.3605   -3.6756 C   0  0  0  0  0  0  0  0  0  0  0  0
   27.4412  -18.9199   -4.9603 C   0  0  0  0  0  0  0  0  0  0  0  0
   25.9293  -20.8620   -7.8204 C   0  0  0  0  0  0  0  0  0  0  0  0
   25.8517  -21.2269   -6.6102 O   0  0  0  0  0  0  0  0  0  0  0  0
   24.8222  -21.0318   -8.6715 N   0  0  0  0  0  0  0  0  0  0  0  0
   23.5933  -21.5417   -8.1101 C   0  0  0  0  0  0  0  0  0  0  0  0
   22.4192  -20.7952   -8.6170 C   0  0  0  0  0  0  0  0  0  0  0  0
   22.5615  -19.9344   -9.5192 O   0  0  0  0  0  0  0  0  0  0  0  0
   21.1479  -21.0180   -8.1217 O   0  0  0  0  0  0  0  0  0  0  0  0
  2  1  1  0
  3  2  2  0
  4  3  1  0
  5  4  2  0
  5 11  1  0
  6  7  1  0
  6  5  1  0
  7  8  1  6
  9  7  1  0
  9 10  2  0
 11 12  2  0
 12  2  1  0
 13  9  1  0
 14 13  1  0
 14 15  1  1
 16 15  1  0
 16 21  2  0
 17 18  2  0
 17 16  1  0
 18 19  1  0
 19 20  2  0
 21 20  1  0
 22 14  1  0
 23 22  2  0
 24 22  1  0
 25 24  1  0
 26 28  1  0
 26 25  1  0
 27 26  2  0
M  END
$$$$
