YFG.pdb
     RDKit          3D

 28 29  0  0  1  0  0  0  0  0999 V2000
   27.2296  -13.9085  -17.6900 O   0  0  0  0  0  0  0  0  0  0  0  0
   26.9427  -14.9968  -16.8644 C   0  0  0  0  0  0  0  0  0  0  0  0
   26.9516  -14.8872  -15.4894 C   0  0  0  0  0  0  0  0  0  0  0  0
   26.6637  -15.9818  -14.7014 C   0  0  0  0  0  0  0  0  0  0  0  0
   26.3576  -17.2191  -15.2264 C   0  0  0  0  0  0  0  0  0  0  0  0
   26.0464  -18.4027  -14.3736 C   0  0  0  0  0  0  0  0  0  0  0  0
   27.2808  -18.8561  -13.6090 C   0  0  2  0  0  0  0  0  0  0  0  0
   28.2610  -19.2752  -14.5635 N   0  0  0  0  0  0  0  0  0  0  0  0
   26.9079  -19.8882  -12.6360 C   0  0  0  0  0  0  0  0  0  0  0  0
   27.1563  -21.0851  -12.9181 O   0  0  0  0  0  0  0  0  0  0  0  0
   26.3488  -17.3289  -16.6072 C   0  0  0  0  0  0  0  0  0  0  0  0
   26.6369  -16.2335  -17.3931 C   0  0  0  0  0  0  0  0  0  0  0  0
   26.2829  -19.6321  -11.3907 N   0  0  0  0  0  0  0  0  0  0  0  0
   25.9439  -20.6873  -10.4598 C   0  0  1  0  0  0  0  0  0  0  0  0
   26.0242  -20.1362   -9.0440 C   0  0  0  0  0  0  0  0  0  0  0  0
   27.3698  -20.3512   -8.4602 C   0  0  0  0  0  0  0  0  0  0  0  0
   28.2573  -21.2330   -9.0365 C   0  0  0  0  0  0  0  0  0  0  0  0
   29.5020  -21.4089   -8.4671 C   0  0  0  0  0  0  0  0  0  0  0  0
   29.8789  -20.7232   -7.3354 C   0  0  0  0  0  0  0  0  0  0  0  0
   28.9864  -19.8441   -6.7658 C   0  0  0  0  0  0  0  0  0  0  0  0
   27.7230  -19.6549   -7.3297 C   0  0  0  0  0  0  0  0  0  0  0  0
   24.5665  -21.1883  -10.6993 C   0  0  0  0  0  0  0  0  0  0  0  0
   24.0646  -22.0360   -9.9037 O   0  0  0  0  0  0  0  0  0  0  0  0
   23.8145  -20.7331  -11.7976 N   0  0  0  0  0  0  0  0  0  0  0  0
   22.4826  -21.2584  -11.9858 C   0  0  0  0  0  0  0  0  0  0  0  0
   21.7767  -20.5563  -13.0819 C   0  0  0  0  0  0  0  0  0  0  0  0
   22.3935  -19.7369  -13.8052 O   0  0  0  0  0  0  0  0  0  0  0  0
   20.4366  -20.7762  -13.3407 O   0  0  0  0  0  0  0  0  0  0  0  0
  2  1  1  0
  3  2  2  0
  4  3  1  0
  5  4  2  0
  5 11  1  0
  6  7  1  0
  6  5  1  0
  7  8  1  6
  9  7  1  0
  9 10  2  0
 11 12  2  0
 12  2  1  0
 13  9  1  0
 14 13  1  0
 14 15  1  1
 16 15  1  0
 16 21  2  0
 17 18  2  0
 17 16  1  0
 18 19  1  0
 19 20  2  0
 21 20  1  0
 22 14  1  0
 23 22  2  0
 24 22  1  0
 25 24  1  0
 26 28  1  0
 26 25  1  0
 27 26  2  0
M  END
$$$$
