TIT.pdb
     RDKit          3D

 23 22  0  0  1  0  0  0  0  0999 V2000
   19.8432   -9.5093  -21.4813 C   0  0  0  0  0  0  0  0  0  0  0  0
   19.8713   -9.1803  -20.0165 C   0  0  1  0  0  0  0  0  0  0  0  0
   18.5964   -8.8059  -19.5442 O   0  0  0  0  0  0  0  0  0  0  0  0
   20.3059  -10.3709  -19.1717 C   0  0  2  0  0  0  0  0  0  0  0  0
   19.2927  -11.3872  -19.3331 N   0  0  0  0  0  0  0  0  0  0  0  0
   20.3639   -9.9445  -17.7092 C   0  0  0  0  0  0  0  0  0  0  0  0
   19.2914   -9.9355  -17.0929 O   0  0  0  0  0  0  0  0  0  0  0  0
   23.6895  -12.3891  -14.7572 C   0  0  0  0  0  0  0  0  0  0  0  0
   22.6388  -11.4793  -15.2824 C   0  0  0  0  0  0  0  0  0  0  0  0
   22.9630   -9.9976  -15.1331 C   0  0  2  0  0  0  0  0  0  0  0  0
   23.2036   -9.7531  -13.6721 C   0  0  0  0  0  0  0  0  0  0  0  0
   21.8812   -9.1837  -15.7731 C   0  0  2  0  0  0  0  0  0  0  0  0
   21.5847   -9.5917  -17.1388 N   0  0  0  0  0  0  0  0  0  0  0  0
   22.1058   -7.7479  -15.6797 C   0  0  0  0  0  0  0  0  0  0  0  0
   23.0869   -7.2515  -16.3725 O   0  0  0  0  0  0  0  0  0  0  0  0
   20.0121   -4.7751  -16.7368 C   0  0  0  0  0  0  0  0  0  0  0  0
   20.4858   -4.5473  -15.3398 C   0  0  1  0  0  0  0  0  0  0  0  0
   19.4359   -4.8853  -14.4637 O   0  0  0  0  0  0  0  0  0  0  0  0
   21.7233   -5.3569  -14.9893 C   0  0  2  0  0  0  0  0  0  0  0  0
   21.4095   -6.7797  -14.9437 N   0  0  0  0  0  0  0  0  0  0  0  0
   22.1715   -4.9538  -13.6357 C   0  0  0  0  0  0  0  0  0  0  0  0
   22.7501   -3.6897  -13.4094 O   0  0  0  0  0  0  0  0  0  0  0  0
   22.0793   -5.6745  -12.6102 O   0  0  0  0  0  0  0  0  0  0  0  0
  2  1  1  6
  2  4  1  0
  3  2  1  0
  4  5  1  1
  6  4  1  0
  6  7  2  0
  8  9  1  0
  9 10  1  0
 10 11  1  1
 12 13  1  6
 12 10  1  0
 13  6  1  0
 14 12  1  0
 15 14  2  0
 17 16  1  6
 18 17  1  0
 19 17  1  0
 19 20  1  1
 20 14  1  0
 21 22  1  0
 21 19  1  0
 23 21  2  0
M  END
$$$$
