TIT.pdb
     RDKit          3D

 23 22  0  0  1  0  0  0  0  0999 V2000
   22.6845  -34.9759   -8.7301 C   0  0  0  0  0  0  0  0  0  0  0  0
   23.0699  -35.1597  -10.1698 C   0  0  1  0  0  0  0  0  0  0  0  0
   21.9994  -34.8571  -11.0363 O   0  0  0  0  0  0  0  0  0  0  0  0
   24.2180  -34.2445  -10.5752 C   0  0  2  0  0  0  0  0  0  0  0  0
   24.4764  -34.4959  -11.9736 N   0  0  0  0  0  0  0  0  0  0  0  0
   25.4535  -34.6104   -9.7603 C   0  0  0  0  0  0  0  0  0  0  0  0
   25.9700  -35.7082  -10.0021 O   0  0  0  0  0  0  0  0  0  0  0  0
   29.4579  -31.2912   -9.2618 C   0  0  0  0  0  0  0  0  0  0  0  0
   28.5716  -32.4810   -9.1813 C   0  0  0  0  0  0  0  0  0  0  0  0
   27.9567  -32.7108   -7.8058 C   0  0  2  0  0  0  0  0  0  0  0  0
   29.0958  -32.8002   -6.8330 C   0  0  0  0  0  0  0  0  0  0  0  0
   27.0371  -33.8914   -7.8619 C   0  0  2  0  0  0  0  0  0  0  0  0
   25.9397  -33.7226   -8.8036 N   0  0  0  0  0  0  0  0  0  0  0  0
   26.5596  -34.3149   -6.5530 C   0  0  0  0  0  0  0  0  0  0  0  0
   25.4522  -33.7878   -6.1229 O   0  0  0  0  0  0  0  0  0  0  0  0
   26.6651  -38.0724   -5.0346 C   0  0  0  0  0  0  0  0  0  0  0  0
   25.7497  -36.9747   -4.6046 C   0  0  1  0  0  0  0  0  0  0  0  0
   25.1441  -37.3624   -3.3933 O   0  0  0  0  0  0  0  0  0  0  0  0
   26.4598  -35.6441   -4.4169 C   0  0  2  0  0  0  0  0  0  0  0  0
   27.1153  -35.2337   -5.6525 N   0  0  0  0  0  0  0  0  0  0  0  0
   27.5126  -35.8228   -3.3896 C   0  0  0  0  0  0  0  0  0  0  0  0
   27.2009  -35.7829   -2.0165 O   0  0  0  0  0  0  0  0  0  0  0  0
   28.7283  -36.0179   -3.6414 O   0  0  0  0  0  0  0  0  0  0  0  0
  2  1  1  1
  2  4  1  0
  3  2  1  0
  4  5  1  6
  6  4  1  0
  6  7  2  0
  8  9  1  0
  9 10  1  0
 10 11  1  1
 12 13  1  6
 12 10  1  0
 13  6  1  0
 14 12  1  0
 15 14  2  0
 17 16  1  1
 18 17  1  0
 19 17  1  0
 19 20  1  6
 20 14  1  0
 21 22  1  0
 21 19  1  0
 23 21  2  0
M  END
$$$$
