TIT.pdb
     RDKit          3D

 23 22  0  0  1  0  0  0  0  0999 V2000
   17.1827  -11.6087  -18.6961 C   0  0  0  0  0  0  0  0  0  0  0  0
   18.1703  -11.1818  -17.6486 C   0  0  1  0  0  0  0  0  0  0  0  0
   17.6596  -10.1392  -16.8482 O   0  0  0  0  0  0  0  0  0  0  0  0
   18.5200  -12.3179  -16.6962 C   0  0  2  0  0  0  0  0  0  0  0  0
   17.2733  -12.8037  -16.1529 N   0  0  0  0  0  0  0  0  0  0  0  0
   19.3824  -11.7677  -15.5658 C   0  0  0  0  0  0  0  0  0  0  0  0
   18.7912  -11.4335  -14.5319 O   0  0  0  0  0  0  0  0  0  0  0  0
   22.6610  -14.0004  -15.8122 C   0  0  0  0  0  0  0  0  0  0  0  0
   23.1379  -13.1209  -14.7138 C   0  0  0  0  0  0  0  0  0  0  0  0
   23.1331  -11.6355  -15.0552 C   0  0  2  0  0  0  0  0  0  0  0  0
   24.2330  -11.0043  -14.2529 C   0  0  0  0  0  0  0  0  0  0  0  0
   21.7576  -11.0809  -14.8478 C   0  0  2  0  0  0  0  0  0  0  0  0
   20.7612  -11.6651  -15.7340 N   0  0  0  0  0  0  0  0  0  0  0  0
   21.7109   -9.6257  -14.8744 C   0  0  0  0  0  0  0  0  0  0  0  0
   22.4413   -8.9896  -14.0077 O   0  0  0  0  0  0  0  0  0  0  0  0
   21.3250   -5.2451  -17.0599 C   0  0  0  0  0  0  0  0  0  0  0  0
   21.2968   -6.7374  -17.0441 C   0  0  1  0  0  0  0  0  0  0  0  0
   22.5202   -7.2012  -17.5658 O   0  0  0  0  0  0  0  0  0  0  0  0
   21.0824   -7.3159  -15.6552 C   0  0  2  0  0  0  0  0  0  0  0  0
   20.9862   -8.7693  -15.7141 N   0  0  0  0  0  0  0  0  0  0  0  0
   19.7935   -6.8028  -15.1345 C   0  0  0  0  0  0  0  0  0  0  0  0
   18.6820   -7.6544  -14.9815 O   0  0  0  0  0  0  0  0  0  0  0  0
   19.5854   -5.6104  -14.7965 O   0  0  0  0  0  0  0  0  0  0  0  0
  2  1  1  6
  2  4  1  0
  3  2  1  0
  4  5  1  1
  6  4  1  0
  6  7  2  0
  8  9  1  0
  9 10  1  0
 10 11  1  1
 12 13  1  6
 12 10  1  0
 13  6  1  0
 14 12  1  0
 15 14  2  0
 17 16  1  1
 18 17  1  0
 19 17  1  0
 19 20  1  6
 20 14  1  0
 21 22  1  0
 21 19  1  0
 23 21  2  0
M  END
$$$$
