TIT.pdb
     RDKit          3D

 23 22  0  0  1  0  0  0  0  0999 V2000
   26.3303  -17.7398  -15.2815 C   0  0  0  0  0  0  0  0  0  0  0  0
   27.1175  -18.8395  -15.9341 C   0  0  1  0  0  0  0  0  0  0  0  0
   28.1819  -18.3286  -16.7051 O   0  0  0  0  0  0  0  0  0  0  0  0
   27.7444  -19.7780  -14.9112 C   0  0  2  0  0  0  0  0  0  0  0  0
   28.5642  -20.7099  -15.6495 N   0  0  0  0  0  0  0  0  0  0  0  0
   26.6354  -20.5399  -14.1943 C   0  0  0  0  0  0  0  0  0  0  0  0
   26.1756  -21.5278  -14.7799 O   0  0  0  0  0  0  0  0  0  0  0  0
   26.8245  -21.9937  -10.3131 C   0  0  0  0  0  0  0  0  0  0  0  0
   26.4743  -20.5680  -10.0840 C   0  0  0  0  0  0  0  0  0  0  0  0
   25.1518  -20.1407  -10.7096 C   0  0  2  0  0  0  0  0  0  0  0  0
   24.0644  -20.6376   -9.8026 C   0  0  0  0  0  0  0  0  0  0  0  0
   25.0978  -20.6106  -12.1304 C   0  0  2  0  0  0  0  0  0  0  0  0
   26.1948  -20.1087  -12.9454 N   0  0  0  0  0  0  0  0  0  0  0  0
   23.8085  -20.3802  -12.7670 C   0  0  0  0  0  0  0  0  0  0  0  0
   23.4591  -19.1461  -12.9769 O   0  0  0  0  0  0  0  0  0  0  0  0
   20.1733  -21.5084  -15.8785 C   0  0  0  0  0  0  0  0  0  0  0  0
   21.4631  -21.7660  -15.1727 C   0  0  1  0  0  0  0  0  0  0  0  0
   22.5128  -21.4974  -16.0728 O   0  0  0  0  0  0  0  0  0  0  0  0
   21.6370  -20.9232  -13.9200 C   0  0  2  0  0  0  0  0  0  0  0  0
   22.8521  -21.3036  -13.2104 N   0  0  0  0  0  0  0  0  0  0  0  0
   20.4907  -21.1906  -13.0200 C   0  0  0  0  0  0  0  0  0  0  0  0
   19.4228  -20.2782  -12.9144 O   0  0  0  0  0  0  0  0  0  0  0  0
   20.3736  -22.2138  -12.2997 O   0  0  0  0  0  0  0  0  0  0  0  0
  2  1  1  1
  2  4  1  0
  3  2  1  0
  4  5  1  6
  6  4  1  0
  6  7  2  0
  8  9  1  0
  9 10  1  0
 10 11  1  1
 12 13  1  6
 12 10  1  0
 13  6  1  0
 14 12  1  0
 15 14  2  0
 17 16  1  6
 18 17  1  0
 19 17  1  0
 19 20  1  1
 20 14  1  0
 21 22  1  0
 21 19  1  0
 23 21  2  0
M  END
$$$$
