TIT.pdb
     RDKit          3D

 23 22  0  0  1  0  0  0  0  0999 V2000
   28.2444  -10.9119  -17.9593 C   0  0  0  0  0  0  0  0  0  0  0  0
   26.9454  -11.5641  -17.5824 C   0  0  1  0  0  0  0  0  0  0  0  0
   27.1235  -12.9238  -17.2538 O   0  0  0  0  0  0  0  0  0  0  0  0
   26.3108  -10.9103  -16.3618 C   0  0  2  0  0  0  0  0  0  0  0  0
   25.6411  -11.9593  -15.6292 N   0  0  0  0  0  0  0  0  0  0  0  0
   25.2829   -9.8855  -16.8280 C   0  0  0  0  0  0  0  0  0  0  0  0
   25.7081   -8.9501  -17.5170 O   0  0  0  0  0  0  0  0  0  0  0  0
   21.3326  -12.0345  -18.7899 C   0  0  0  0  0  0  0  0  0  0  0  0
   21.9285  -10.6837  -18.6219 C   0  0  0  0  0  0  0  0  0  0  0  0
   21.6151  -10.0241  -17.2842 C   0  0  2  0  0  0  0  0  0  0  0  0
   20.3279   -9.2737  -17.4637 C   0  0  0  0  0  0  0  0  0  0  0  0
   22.7959   -9.2192  -16.8366 C   0  0  2  0  0  0  0  0  0  0  0  0
   23.9448  -10.0357  -16.4719 N   0  0  0  0  0  0  0  0  0  0  0  0
   22.4753   -8.2510  -15.7973 C   0  0  0  0  0  0  0  0  0  0  0  0
   22.3363   -8.7005  -14.5858 O   0  0  0  0  0  0  0  0  0  0  0  0
   22.3988   -3.7853  -13.6890 C   0  0  0  0  0  0  0  0  0  0  0  0
   22.7317   -4.7141  -14.8091 C   0  0  1  0  0  0  0  0  0  0  0  0
   24.1134   -4.9829  -14.7554 O   0  0  0  0  0  0  0  0  0  0  0  0
   21.9555   -6.0195  -14.7531 C   0  0  2  0  0  0  0  0  0  0  0  0
   22.2909   -6.8650  -15.8922 N   0  0  0  0  0  0  0  0  0  0  0  0
   20.5107   -5.7026  -14.8409 C   0  0  0  0  0  0  0  0  0  0  0  0
   19.9025   -5.4263  -16.0810 O   0  0  0  0  0  0  0  0  0  0  0  0
   19.7306   -5.6539  -13.8568 O   0  0  0  0  0  0  0  0  0  0  0  0
  2  1  1  1
  2  4  1  0
  3  2  1  0
  4  5  1  1
  6  4  1  0
  6  7  2  0
  8  9  1  0
  9 10  1  0
 10 11  1  6
 12 13  1  1
 12 10  1  0
 13  6  1  0
 14 12  1  0
 15 14  2  0
 17 16  1  1
 18 17  1  0
 19 17  1  0
 19 20  1  6
 20 14  1  0
 21 22  1  0
 21 19  1  0
 23 21  2  0
M  END
$$$$
