TIT.pdb
     RDKit          3D

 23 22  0  0  1  0  0  0  0  0999 V2000
   14.9073  -11.2312  -15.3158 C   0  0  0  0  0  0  0  0  0  0  0  0
   15.2425  -11.5512  -13.8874 C   0  0  1  0  0  0  0  0  0  0  0  0
   15.7855  -12.8462  -13.7594 O   0  0  0  0  0  0  0  0  0  0  0  0
   16.2818  -10.5951  -13.3165 C   0  0  2  0  0  0  0  0  0  0  0  0
   16.8604  -11.2486  -12.1661 N   0  0  0  0  0  0  0  0  0  0  0  0
   15.5840   -9.3148  -12.8713 C   0  0  0  0  0  0  0  0  0  0  0  0
   14.9492   -8.7011  -13.7377 O   0  0  0  0  0  0  0  0  0  0  0  0
   13.3081   -6.6578   -8.3608 C   0  0  0  0  0  0  0  0  0  0  0  0
   14.6903   -6.4252   -8.8539 C   0  0  0  0  0  0  0  0  0  0  0  0
   15.3640   -7.6632   -9.4337 C   0  0  2  0  0  0  0  0  0  0  0  0
   16.7872   -7.6432   -8.9582 C   0  0  0  0  0  0  0  0  0  0  0  0
   15.1600   -7.6931  -10.9170 C   0  0  2  0  0  0  0  0  0  0  0  0
   15.6841   -8.8966  -11.5464 N   0  0  0  0  0  0  0  0  0  0  0  0
   15.6284   -6.4893  -11.5894 C   0  0  0  0  0  0  0  0  0  0  0  0
   16.8879   -6.4344  -11.9053 O   0  0  0  0  0  0  0  0  0  0  0  0
   15.5250   -2.6566  -14.5680 C   0  0  0  0  0  0  0  0  0  0  0  0
   15.0050   -3.9147  -13.9561 C   0  0  1  0  0  0  0  0  0  0  0  0
   15.3569   -4.9867  -14.7995 O   0  0  0  0  0  0  0  0  0  0  0  0
   15.5457   -4.1668  -12.5583 C   0  0  2  0  0  0  0  0  0  0  0  0
   14.9175   -5.3430  -11.9695 N   0  0  0  0  0  0  0  0  0  0  0  0
   15.1977   -3.0021  -11.7109 C   0  0  0  0  0  0  0  0  0  0  0  0
   16.0930   -1.9261  -11.5532 O   0  0  0  0  0  0  0  0  0  0  0  0
   14.1166   -2.8754  -11.0827 O   0  0  0  0  0  0  0  0  0  0  0  0
  2  1  1  6
  2  4  1  0
  3  2  1  0
  4  5  1  1
  6  4  1  0
  6  7  2  0
  8  9  1  0
  9 10  1  0
 10 11  1  6
 12 13  1  6
 12 10  1  0
 13  6  1  0
 14 12  1  0
 15 14  2  0
 17 16  1  6
 18 17  1  0
 19 17  1  0
 19 20  1  1
 20 14  1  0
 21 22  1  0
 21 19  1  0
 23 21  2  0
M  END
$$$$
