DPT.pdb
     RDKit          3D

 23 23  0  0  1  0  0  0  0  0999 V2000
   18.5116  -12.5715  -16.2011 N   0  0  0  0  0  0  0  0  0  0  0  0
   19.6299  -11.7688  -16.7015 C   0  0  1  0  0  0  0  0  0  0  0  0
   19.1200  -10.9408  -17.8845 C   0  0  0  0  0  0  0  0  0  0  0  0
   18.7129  -11.7724  -19.0171 C   0  0  0  0  0  0  0  0  0  0  0  0
   19.4785  -12.6293  -19.4980 O   0  0  0  0  0  0  0  0  0  0  0  0
   20.1315  -10.8767  -15.6615 C   0  0  0  0  0  0  0  0  0  0  0  0
   19.2537  -10.4493  -14.8269 O   0  0  0  0  0  0  0  0  0  0  0  0
   17.4525  -11.6014  -19.5619 O   0  0  0  0  0  0  0  0  0  0  0  0
   21.4562  -10.4368  -15.4696 N   0  0  0  0  0  0  0  0  0  0  0  0
   22.5527  -10.7080  -16.3786 C   0  0  0  0  0  0  0  0  0  0  0  0
   23.6187  -11.1936  -15.3824 C   0  0  0  0  0  0  0  0  0  0  0  0
   23.3615  -10.3462  -14.1703 C   0  0  0  0  0  0  0  0  0  0  0  0
   22.0351   -9.6702  -14.3981 C   0  0  1  0  0  0  0  0  0  0  0  0
   22.1885   -8.2188  -14.7317 C   0  0  0  0  0  0  0  0  0  0  0  0
   22.8472   -7.9299  -15.7651 O   0  0  0  0  0  0  0  0  0  0  0  0
   19.7518   -5.9990  -15.8273 C   0  0  0  0  0  0  0  0  0  0  0  0
   20.3081   -5.2467  -14.6570 C   0  0  1  0  0  0  0  0  0  0  0  0
   19.5229   -5.4572  -13.5207 O   0  0  0  0  0  0  0  0  0  0  0  0
   21.7027   -5.7754  -14.3551 C   0  0  2  0  0  0  0  0  0  0  0  0
   21.6454   -7.1804  -13.9645 N   0  0  0  0  0  0  0  0  0  0  0  0
   22.4320   -4.9591  -13.3852 C   0  0  0  0  0  0  0  0  0  0  0  0
   22.6982   -5.4280  -12.1309 O   0  0  0  0  0  0  0  0  0  0  0  0
   22.8256   -3.7897  -13.7173 O   0  0  0  0  0  0  0  0  0  0  0  0
  2  1  1  1
  2  3  1  0
  2  6  1  0
  3  4  1  0
  4  5  2  0
  4  8  1  0
  6  7  2  0
  9 13  1  0
  9  6  1  0
 10  9  1  0
 11 10  1  0
 11 12  1  0
 12 13  1  0
 13 14  1  6
 14 15  2  0
 14 20  1  0
 17 16  1  6
 17 18  1  0
 19 17  1  0
 19 20  1  1
 21 22  1  0
 21 19  1  0
 23 21  2  0
M  END
$$$$
