DPT.pdb
     RDKit          3D

 23 23  0  0  1  0  0  0  0  0999 V2000
   24.2868  -21.2325  -13.5304 N   0  0  0  0  0  0  0  0  0  0  0  0
   23.5328  -20.5045  -12.5072 C   0  0  1  0  0  0  0  0  0  0  0  0
   22.2296  -20.0147  -13.1450 C   0  0  0  0  0  0  0  0  0  0  0  0
   22.4612  -19.1866  -14.3285 C   0  0  0  0  0  0  0  0  0  0  0  0
   23.1126  -18.1271  -14.2588 O   0  0  0  0  0  0  0  0  0  0  0  0
   23.2260  -21.3733  -11.3757 C   0  0  0  0  0  0  0  0  0  0  0  0
   23.0250  -22.6088  -11.6640 O   0  0  0  0  0  0  0  0  0  0  0  0
   21.9454  -19.5911  -15.5472 O   0  0  0  0  0  0  0  0  0  0  0  0
   23.1280  -21.0150  -10.0167 N   0  0  0  0  0  0  0  0  0  0  0  0
   23.2438  -19.6605   -9.5128 C   0  0  0  0  0  0  0  0  0  0  0  0
   24.2370  -19.8825   -8.3600 C   0  0  0  0  0  0  0  0  0  0  0  0
   23.8520  -21.2357   -7.8364 C   0  0  0  0  0  0  0  0  0  0  0  0
   22.9150  -21.8337   -8.8525 C   0  0  1  0  0  0  0  0  0  0  0  0
   21.4930  -21.8289   -8.3842 C   0  0  0  0  0  0  0  0  0  0  0  0
   20.8909  -20.7231   -8.3766 O   0  0  0  0  0  0  0  0  0  0  0  0
   17.1615  -23.6968   -8.4789 C   0  0  0  0  0  0  0  0  0  0  0  0
   18.6197  -23.6644   -8.8223 C   0  0  1  0  0  0  0  0  0  0  0  0
   18.8357  -22.9008   -9.9723 O   0  0  0  0  0  0  0  0  0  0  0  0
   19.3751  -22.9988   -7.6813 C   0  0  2  0  0  0  0  0  0  0  0  0
   20.8076  -22.9742   -7.9597 N   0  0  0  0  0  0  0  0  0  0  0  0
   19.0739  -23.5796   -6.3733 C   0  0  0  0  0  0  0  0  0  0  0  0
   17.8708  -23.3591   -5.7667 O   0  0  0  0  0  0  0  0  0  0  0  0
   19.9502  -24.3040   -5.7901 O   0  0  0  0  0  0  0  0  0  0  0  0
  2  1  1  6
  2  3  1  0
  2  6  1  0
  3  4  1  0
  4  5  2  0
  4  8  1  0
  6  7  2  0
  9 13  1  0
  9  6  1  0
 10  9  1  0
 11 10  1  0
 11 12  1  0
 12 13  1  0
 13 14  1  1
 14 15  2  0
 14 20  1  0
 17 16  1  1
 17 18  1  0
 19 17  1  0
 19 20  1  6
 21 22  1  0
 21 19  1  0
 23 21  2  0
M  END
$$$$
