DPT.pdb
     RDKit          3D

 23 23  0  0  1  0  0  0  0  0999 V2000
   19.1580  -12.8674  -16.6087 N   0  0  0  0  0  0  0  0  0  0  0  0
   19.0474  -11.4826  -17.0731 C   0  0  1  0  0  0  0  0  0  0  0  0
   17.6284  -10.9967  -16.7642 C   0  0  0  0  0  0  0  0  0  0  0  0
   16.6053  -11.7690  -17.4691 C   0  0  0  0  0  0  0  0  0  0  0  0
   15.6704  -12.3163  -16.8542 O   0  0  0  0  0  0  0  0  0  0  0  0
   20.0148  -10.6299  -16.3902 C   0  0  0  0  0  0  0  0  0  0  0  0
   20.2678  -10.9448  -15.1709 O   0  0  0  0  0  0  0  0  0  0  0  0
   16.6805  -11.8916  -18.8454 O   0  0  0  0  0  0  0  0  0  0  0  0
   20.6972   -9.5131  -16.9117 N   0  0  0  0  0  0  0  0  0  0  0  0
   20.4413   -8.9266  -18.2127 C   0  0  0  0  0  0  0  0  0  0  0  0
   21.8787   -8.8098  -18.7465 C   0  0  0  0  0  0  0  0  0  0  0  0
   22.6724   -8.4830  -17.5150 C   0  0  0  0  0  0  0  0  0  0  0  0
   21.7571   -8.7227  -16.3433 C   0  0  1  0  0  0  0  0  0  0  0  0
   21.2726   -7.4450  -15.7317 C   0  0  0  0  0  0  0  0  0  0  0  0
   20.4006   -6.7949  -16.3661 O   0  0  0  0  0  0  0  0  0  0  0  0
   19.4906   -7.2550  -12.7568 C   0  0  0  0  0  0  0  0  0  0  0  0
   20.5293   -6.2051  -12.5042 C   0  0  1  0  0  0  0  0  0  0  0  0
   21.5595   -6.7156  -11.7104 O   0  0  0  0  0  0  0  0  0  0  0  0
   21.1387   -5.7911  -13.8357 C   0  0  2  0  0  0  0  0  0  0  0  0
   21.7328   -6.9421  -14.5082 N   0  0  0  0  0  0  0  0  0  0  0  0
   22.0737   -4.6725  -13.7197 C   0  0  0  0  0  0  0  0  0  0  0  0
   21.6502   -3.4426  -13.3051 O   0  0  0  0  0  0  0  0  0  0  0  0
   23.3052   -4.8497  -14.0109 O   0  0  0  0  0  0  0  0  0  0  0  0
  2  1  1  1
  2  3  1  0
  2  6  1  0
  3  4  1  0
  4  5  2  0
  4  8  1  0
  6  7  2  0
  9 13  1  0
  9  6  1  0
 10  9  1  0
 11 10  1  0
 11 12  1  0
 12 13  1  0
 13 14  1  6
 14 15  2  0
 14 20  1  0
 17 16  1  6
 17 18  1  0
 19 17  1  0
 19 20  1  1
 21 22  1  0
 21 19  1  0
 23 21  2  0
M  END
$$$$
