DPT.pdb
     RDKit          3D

 23 23  0  0  1  0  0  0  0  0999 V2000
   28.9111  -21.7507  -16.4539 N   0  0  0  0  0  0  0  0  0  0  0  0
   28.2617  -20.5014  -16.8577 C   0  0  1  0  0  0  0  0  0  0  0  0
   27.7331  -20.6874  -18.2829 C   0  0  0  0  0  0  0  0  0  0  0  0
   28.7553  -20.4326  -19.2979 C   0  0  0  0  0  0  0  0  0  0  0  0
   29.8655  -19.9573  -18.9922 O   0  0  0  0  0  0  0  0  0  0  0  0
   27.1533  -20.1830  -15.9637 C   0  0  0  0  0  0  0  0  0  0  0  0
   26.7759  -21.1346  -15.1879 O   0  0  0  0  0  0  0  0  0  0  0  0
   28.4805  -20.7266  -20.6218 O   0  0  0  0  0  0  0  0  0  0  0  0
   26.4585  -18.9623  -15.8547 N   0  0  0  0  0  0  0  0  0  0  0  0
   26.6616  -17.8198  -16.7239 C   0  0  0  0  0  0  0  0  0  0  0  0
   26.7917  -16.7007  -15.6772 C   0  0  0  0  0  0  0  0  0  0  0  0
   25.8318  -17.1263  -14.6044 C   0  0  0  0  0  0  0  0  0  0  0  0
   25.4477  -18.5484  -14.9175 C   0  0  1  0  0  0  0  0  0  0  0  0
   24.0595  -18.6526  -15.4683 C   0  0  0  0  0  0  0  0  0  0  0  0
   23.8743  -18.2536  -16.6481 O   0  0  0  0  0  0  0  0  0  0  0  0
   22.5436  -21.7168  -15.9863 C   0  0  0  0  0  0  0  0  0  0  0  0
   21.4367  -21.0006  -15.2743 C   0  0  1  0  0  0  0  0  0  0  0  0
   21.4188  -21.3477  -13.9211 O   0  0  0  0  0  0  0  0  0  0  0  0
   21.6901  -19.5026  -15.3602 C   0  0  2  0  0  0  0  0  0  0  0  0
   22.9713  -19.1630  -14.7492 N   0  0  0  0  0  0  0  0  0  0  0  0
   20.5905  -18.6996  -14.8263 C   0  0  0  0  0  0  0  0  0  0  0  0
   19.3637  -18.7013  -15.4254 O   0  0  0  0  0  0  0  0  0  0  0  0
   20.7815  -17.9861  -13.7836 O   0  0  0  0  0  0  0  0  0  0  0  0
  2  1  1  1
  2  3  1  0
  2  6  1  0
  3  4  1  0
  4  5  2  0
  4  8  1  0
  6  7  2  0
  9 13  1  0
  9  6  1  0
 10  9  1  0
 11 10  1  0
 11 12  1  0
 12 13  1  0
 13 14  1  6
 14 15  2  0
 14 20  1  0
 17 16  1  6
 17 18  1  0
 19 17  1  0
 19 20  1  1
 21 22  1  0
 21 19  1  0
 23 21  2  0
M  END
$$$$
