DPT.pdb
     RDKit          3D

 23 23  0  0  1  0  0  0  0  0999 V2000
   17.0980  -11.0379  -15.9783 N   0  0  0  0  0  0  0  0  0  0  0  0
   18.3357  -10.5775  -16.6120 C   0  0  1  0  0  0  0  0  0  0  0  0
   17.9530   -9.6470  -17.7665 C   0  0  0  0  0  0  0  0  0  0  0  0
   17.1581  -10.3232  -18.7917 C   0  0  0  0  0  0  0  0  0  0  0  0
   16.2300   -9.7374  -19.3810 O   0  0  0  0  0  0  0  0  0  0  0  0
   19.1668   -9.8529  -15.6562 C   0  0  0  0  0  0  0  0  0  0  0  0
   18.5757   -9.4800  -14.5785 O   0  0  0  0  0  0  0  0  0  0  0  0
   17.4456  -11.6387  -19.1107 O   0  0  0  0  0  0  0  0  0  0  0  0
   20.5305   -9.5210  -15.7792 N   0  0  0  0  0  0  0  0  0  0  0  0
   21.3592   -9.8573  -16.9203 C   0  0  0  0  0  0  0  0  0  0  0  0
   22.5860  -10.4444  -16.2026 C   0  0  0  0  0  0  0  0  0  0  0  0
   22.6874   -9.6050  -14.9623 C   0  0  0  0  0  0  0  0  0  0  0  0
   21.4030   -8.8239  -14.8715 C   0  0  1  0  0  0  0  0  0  0  0  0
   21.5900   -7.3820  -15.2288 C   0  0  0  0  0  0  0  0  0  0  0  0
   21.5789   -7.0836  -16.4520 O   0  0  0  0  0  0  0  0  0  0  0  0
   19.5801   -5.4752  -15.9017 C   0  0  0  0  0  0  0  0  0  0  0  0
   20.1043   -4.6367  -14.7760 C   0  0  1  0  0  0  0  0  0  0  0  0
   19.4489   -4.9522  -13.5831 O   0  0  0  0  0  0  0  0  0  0  0  0
   21.5816   -4.9466  -14.5834 C   0  0  2  0  0  0  0  0  0  0  0  0
   21.7745   -6.3624  -14.2865 N   0  0  0  0  0  0  0  0  0  0  0  0
   22.2297   -4.0799  -13.5996 C   0  0  0  0  0  0  0  0  0  0  0  0
   22.5019   -2.7730  -13.8855 O   0  0  0  0  0  0  0  0  0  0  0  0
   22.5456   -4.5536  -12.4557 O   0  0  0  0  0  0  0  0  0  0  0  0
  2  1  1  1
  2  3  1  0
  2  6  1  0
  3  4  1  0
  4  5  2  0
  4  8  1  0
  6  7  2  0
  9 13  1  0
  9  6  1  0
 10  9  1  0
 11 10  1  0
 11 12  1  0
 12 13  1  0
 13 14  1  6
 14 15  2  0
 14 20  1  0
 17 16  1  6
 17 18  1  0
 19 17  1  0
 19 20  1  1
 21 22  1  0
 21 19  1  0
 23 21  2  0
M  END
$$$$
