YLR.pdb
     RDKit          3D

 32 32  0  0  1  0  0  0  0  0999 V2000
   11.3152  -14.2314   29.7708 O   0  0  0  0  0  0  0  0  0  0  0  0
   10.3075  -14.5596   28.8861 C   0  0  0  0  0  0  0  0  0  0  0  0
    9.6415  -13.5909   28.1339 C   0  0  0  0  0  0  0  0  0  0  0  0
    8.6400  -13.9947   27.2657 C   0  0  0  0  0  0  0  0  0  0  0  0
    8.2817  -15.3161   27.1215 C   0  0  0  0  0  0  0  0  0  0  0  0
    7.2212  -15.7383   26.2010 C   0  0  0  0  0  0  0  0  0  0  0  0
    7.6378  -16.8865   25.3006 C   0  0  2  0  0  0  0  0  0  0  0  0
    9.0851  -16.8182   25.1726 N   0  0  0  0  0  0  0  0  0  0  0  0
    7.0823  -16.6061   23.9412 C   0  0  0  0  0  0  0  0  0  0  0  0
    5.8455  -16.7821   23.7893 O   0  0  0  0  0  0  0  0  0  0  0  0
    8.9507  -16.2598   27.8730 C   0  0  0  0  0  0  0  0  0  0  0  0
    9.9581  -15.8809   28.7502 C   0  0  0  0  0  0  0  0  0  0  0  0
    8.7277  -12.6790   20.5707 C   0  0  0  0  0  0  0  0  0  0  0  0
    8.2584  -13.7578   21.5145 C   0  0  1  0  0  0  0  0  0  0  0  0
    7.5324  -13.0395   22.6550 C   0  0  0  0  0  0  0  0  0  0  0  0
    7.3435  -14.7615   20.9208 C   0  0  0  0  0  0  0  0  0  0  0  0
    7.3727  -16.1312   21.4972 C   0  0  2  0  0  0  0  0  0  0  0  0
    7.8589  -16.1686   22.8620 N   0  0  0  0  0  0  0  0  0  0  0  0
    8.0618  -17.1443   20.6617 C   0  0  0  0  0  0  0  0  0  0  0  0
    8.2540  -16.9537   19.4140 O   0  0  0  0  0  0  0  0  0  0  0  0
   15.8485  -15.5199   22.8518 N   0  0  0  0  0  0  0  0  0  0  0  0
   14.7304  -16.1795   23.4650 C   0  0  0  0  0  0  0  0  0  0  0  0
   14.3402  -15.8240   24.6391 N   0  0  0  0  0  0  0  0  0  0  0  0
   14.0397  -17.2205   22.8056 N   0  0  0  0  0  0  0  0  0  0  0  0
   13.3187  -17.0147   21.5735 C   0  0  0  0  0  0  0  0  0  0  0  0
   12.3379  -18.0970   21.2816 C   0  0  0  0  0  0  0  0  0  0  0  0
   10.9043  -17.7244   21.3389 C   0  0  0  0  0  0  0  0  0  0  0  0
    9.9191  -18.8044   21.0477 C   0  0  2  0  0  0  0  0  0  0  0  0
    8.5473  -18.3744   21.1762 N   0  0  0  0  0  0  0  0  0  0  0  0
   10.1753  -20.0978   21.6911 C   0  0  0  0  0  0  0  0  0  0  0  0
    9.1939  -20.5885   22.5738 O   0  0  0  0  0  0  0  0  0  0  0  0
   11.1758  -20.8045   21.5322 O   0  0  0  0  0  0  0  0  0  0  0  0
  2  1  1  0
  3  2  2  0
  4  3  1  0
  5  4  2  0
  5 11  1  0
  6  5  1  0
  7  6  1  0
  7  8  1  6
  9  7  1  0
  9 10  2  0
 11 12  2  0
 12  2  1  0
 14 13  1  6
 14 15  1  0
 17 16  1  6
 16 14  1  0
 17 18  1  0
 18  9  1  0
 19 17  1  0
 20 19  2  0
 21 22  1  0
 22 24  1  0
 23 22  2  0
 24 25  1  0
 25 26  1  0
 26 27  1  0
 28 27  1  1
 28 29  1  0
 29 19  1  0
 30 31  1  0
 30 28  1  0
 32 30  2  0
M  END
$$$$
