YLR.pdb
     RDKit          3D

 32 32  0  0  1  0  0  0  0  0999 V2000
    7.7689  -12.7684   16.3419 O   0  0  0  0  0  0  0  0  0  0  0  0
    7.7837  -13.3237   17.6057 C   0  0  0  0  0  0  0  0  0  0  0  0
    6.6814  -14.0035   18.1259 C   0  0  0  0  0  0  0  0  0  0  0  0
    6.7690  -14.5348   19.4026 C   0  0  0  0  0  0  0  0  0  0  0  0
    7.9042  -14.4143   20.1720 C   0  0  0  0  0  0  0  0  0  0  0  0
    7.9918  -14.9787   21.5225 C   0  0  0  0  0  0  0  0  0  0  0  0
    9.2623  -14.5820   22.2514 C   0  0  2  0  0  0  0  0  0  0  0  0
   10.2983  -15.5114   21.8289 N   0  0  0  0  0  0  0  0  0  0  0  0
    9.0355  -14.8391   23.7066 C   0  0  0  0  0  0  0  0  0  0  0  0
    9.8970  -15.5411   24.2971 O   0  0  0  0  0  0  0  0  0  0  0  0
    8.9838  -13.7391   19.6416 C   0  0  0  0  0  0  0  0  0  0  0  0
    8.9214  -13.1975   18.3646 C   0  0  0  0  0  0  0  0  0  0  0  0
    5.5182  -11.5168   26.7247 C   0  0  0  0  0  0  0  0  0  0  0  0
    6.7274  -12.2864   26.2553 C   0  0  1  0  0  0  0  0  0  0  0  0
    7.9088  -11.7672   27.0792 C   0  0  0  0  0  0  0  0  0  0  0  0
    6.6407  -13.7573   26.4160 C   0  0  0  0  0  0  0  0  0  0  0  0
    7.7429  -14.5694   25.8373 C   0  0  2  0  0  0  0  0  0  0  0  0
    7.9361  -14.3452   24.4185 N   0  0  0  0  0  0  0  0  0  0  0  0
    7.6735  -16.0197   26.1395 C   0  0  0  0  0  0  0  0  0  0  0  0
    7.8099  -16.4546   27.3321 O   0  0  0  0  0  0  0  0  0  0  0  0
    3.8164  -23.4202   23.6812 N   0  0  0  0  0  0  0  0  0  0  0  0
    5.0851  -23.8383   24.2075 C   0  0  0  0  0  0  0  0  0  0  0  0
    5.2794  -25.0747   24.5086 N   0  0  0  0  0  0  0  0  0  0  0  0
    6.1376  -22.9171   24.4059 N   0  0  0  0  0  0  0  0  0  0  0  0
    5.9916  -21.5052   24.1501 C   0  0  0  0  0  0  0  0  0  0  0  0
    7.2396  -20.7325   24.4032 C   0  0  0  0  0  0  0  0  0  0  0  0
    7.1545  -19.2626   24.2310 C   0  0  0  0  0  0  0  0  0  0  0  0
    7.5296  -18.4274   25.4073 C   0  0  2  0  0  0  0  0  0  0  0  0
    7.4558  -17.0097   25.1466 N   0  0  0  0  0  0  0  0  0  0  0  0
    8.7598  -18.8170   26.1053 C   0  0  0  0  0  0  0  0  0  0  0  0
    8.6244  -19.5840   27.2785 O   0  0  0  0  0  0  0  0  0  0  0  0
    9.9123  -18.5363   25.7610 O   0  0  0  0  0  0  0  0  0  0  0  0
  2  1  1  0
  3  2  2  0
  4  3  1  0
  5  4  2  0
  5 11  1  0
  6  5  1  0
  7  6  1  0
  7  8  1  6
  9  7  1  0
  9 10  2  0
 11 12  2  0
 12  2  1  0
 14 13  1  1
 14 15  1  0
 17 16  1  6
 16 14  1  0
 17 18  1  0
 18  9  1  0
 19 17  1  0
 20 19  2  0
 21 22  1  0
 22 24  1  0
 23 22  2  0
 24 25  1  0
 25 26  1  0
 26 27  1  0
 28 27  1  6
 28 29  1  0
 29 19  1  0
 30 31  1  0
 30 28  1  0
 32 30  2  0
M  END
$$$$
