YLR.pdb
     RDKit          3D

 32 32  0  0  1  0  0  0  0  0999 V2000
    9.5927  -14.7901   31.7809 O   0  0  0  0  0  0  0  0  0  0  0  0
    9.8910  -15.3917   30.5747 C   0  0  0  0  0  0  0  0  0  0  0  0
   10.1983  -16.7501   30.4837 C   0  0  0  0  0  0  0  0  0  0  0  0
   10.4875  -17.2851   29.2387 C   0  0  0  0  0  0  0  0  0  0  0  0
   10.4816  -16.5227   28.0924 C   0  0  0  0  0  0  0  0  0  0  0  0
   10.7882  -17.0939   26.7771 C   0  0  0  0  0  0  0  0  0  0  0  0
    9.6746  -17.9712   26.2358 C   0  0  2  0  0  0  0  0  0  0  0  0
   10.2950  -18.9360   25.3414 N   0  0  0  0  0  0  0  0  0  0  0  0
    8.8055  -17.1051   25.3816 C   0  0  0  0  0  0  0  0  0  0  0  0
    7.8492  -17.6718   24.7916 O   0  0  0  0  0  0  0  0  0  0  0  0
   10.1757  -15.1821   28.2014 C   0  0  0  0  0  0  0  0  0  0  0  0
    9.8822  -14.6218   29.4374 C   0  0  0  0  0  0  0  0  0  0  0  0
    8.6174  -11.6659   26.6522 C   0  0  0  0  0  0  0  0  0  0  0  0
    8.2435  -13.0922   26.3349 C   0  0  1  0  0  0  0  0  0  0  0  0
    6.8457  -13.3065   26.9214 C   0  0  0  0  0  0  0  0  0  0  0  0
    8.2151  -13.4311   24.8923 C   0  0  0  0  0  0  0  0  0  0  0  0
    8.0623  -14.8658   24.5351 C   0  0  2  0  0  0  0  0  0  0  0  0
    9.0060  -15.7297   25.2160 N   0  0  0  0  0  0  0  0  0  0  0  0
    8.0426  -15.1468   23.0790 C   0  0  0  0  0  0  0  0  0  0  0  0
    7.0698  -14.7669   22.3446 O   0  0  0  0  0  0  0  0  0  0  0  0
    8.1703  -14.5902   15.5098 N   0  0  0  0  0  0  0  0  0  0  0  0
    7.3931  -13.5963   16.1949 C   0  0  0  0  0  0  0  0  0  0  0  0
    6.3043  -13.1568   15.6674 N   0  0  0  0  0  0  0  0  0  0  0  0
    7.7972  -13.0824   17.4472 N   0  0  0  0  0  0  0  0  0  0  0  0
    9.0471  -13.4461   18.0684 C   0  0  0  0  0  0  0  0  0  0  0  0
    8.9928  -14.7609   18.7664 C   0  0  0  0  0  0  0  0  0  0  0  0
    8.8599  -14.7219   20.2423 C   0  0  0  0  0  0  0  0  0  0  0  0
    9.1457  -15.9884   20.9745 C   0  0  2  0  0  0  0  0  0  0  0  0
    9.0808  -15.8445   22.4092 N   0  0  0  0  0  0  0  0  0  0  0  0
   10.3265  -16.7358   20.5278 C   0  0  0  0  0  0  0  0  0  0  0  0
   11.5594  -16.4211   21.1310 O   0  0  0  0  0  0  0  0  0  0  0  0
   10.3447  -17.6222   19.6678 O   0  0  0  0  0  0  0  0  0  0  0  0
  2  1  1  0
  3  2  2  0
  4  3  1  0
  5  4  2  0
  5 11  1  0
  6  5  1  0
  7  6  1  0
  7  8  1  6
  9  7  1  0
  9 10  2  0
 11 12  2  0
 12  2  1  0
 14 13  1  6
 14 15  1  0
 17 16  1  6
 16 14  1  0
 17 18  1  0
 18  9  1  0
 19 17  1  0
 20 19  2  0
 21 22  1  0
 22 24  1  0
 23 22  2  0
 24 25  1  0
 25 26  1  0
 26 27  1  0
 28 27  1  6
 28 29  1  0
 29 19  1  0
 30 31  1  0
 30 28  1  0
 32 30  2  0
M  END
$$$$
