YLR.pdb
     RDKit          3D

 32 32  0  0  1  0  0  0  0  0999 V2000
    7.5081  -12.6556   16.6597 O   0  0  0  0  0  0  0  0  0  0  0  0
    7.6049  -13.2036   17.9232 C   0  0  0  0  0  0  0  0  0  0  0  0
    6.7597  -14.2291   18.3493 C   0  0  0  0  0  0  0  0  0  0  0  0
    6.9154  -14.7302   19.6317 C   0  0  0  0  0  0  0  0  0  0  0  0
    7.8736  -14.2509   20.4962 C   0  0  0  0  0  0  0  0  0  0  0  0
    8.0344  -14.7850   21.8524 C   0  0  0  0  0  0  0  0  0  0  0  0
    9.1835  -14.1465   22.6103 C   0  0  2  0  0  0  0  0  0  0  0  0
   10.3569  -14.2421   21.7561 N   0  0  0  0  0  0  0  0  0  0  0  0
    9.4598  -15.0072   23.8012 C   0  0  0  0  0  0  0  0  0  0  0  0
   10.6476  -15.0328   24.2161 O   0  0  0  0  0  0  0  0  0  0  0  0
    8.7001  -13.2372   20.0579 C   0  0  0  0  0  0  0  0  0  0  0  0
    8.5644  -12.7178   18.7774 C   0  0  0  0  0  0  0  0  0  0  0  0
    6.6310  -11.5525   25.7410 C   0  0  0  0  0  0  0  0  0  0  0  0
    7.5764  -12.6912   25.4506 C   0  0  1  0  0  0  0  0  0  0  0  0
    8.3935  -12.9026   26.7279 C   0  0  0  0  0  0  0  0  0  0  0  0
    6.9275  -13.9711   25.0793 C   0  0  0  0  0  0  0  0  0  0  0  0
    7.6163  -15.2240   25.4856 C   0  0  2  0  0  0  0  0  0  0  0  0
    8.4799  -15.7637   24.4544 N   0  0  0  0  0  0  0  0  0  0  0  0
    6.7253  -16.2753   26.0337 C   0  0  0  0  0  0  0  0  0  0  0  0
    6.1426  -16.1281   27.1601 O   0  0  0  0  0  0  0  0  0  0  0  0
    7.3889  -21.7890   20.2726 N   0  0  0  0  0  0  0  0  0  0  0  0
    7.4912  -22.6463   21.4197 C   0  0  0  0  0  0  0  0  0  0  0  0
    7.4430  -23.9242   21.2725 N   0  0  0  0  0  0  0  0  0  0  0  0
    7.6452  -22.1174   22.7206 N   0  0  0  0  0  0  0  0  0  0  0  0
    7.6810  -20.6995   22.9825 C   0  0  0  0  0  0  0  0  0  0  0  0
    7.7172  -20.3736   24.4355 C   0  0  0  0  0  0  0  0  0  0  0  0
    6.4423  -19.9265   25.0456 C   0  0  0  0  0  0  0  0  0  0  0  0
    6.5212  -18.7876   26.0040 C   0  0  2  0  0  0  0  0  0  0  0  0
    6.4610  -17.4966   25.3613 N   0  0  0  0  0  0  0  0  0  0  0  0
    7.5791  -18.8730   27.0170 C   0  0  0  0  0  0  0  0  0  0  0  0
    7.3290  -19.6715   28.1497 O   0  0  0  0  0  0  0  0  0  0  0  0
    8.6770  -18.3090   26.9726 O   0  0  0  0  0  0  0  0  0  0  0  0
  2  1  1  0
  3  2  2  0
  4  3  1  0
  5  4  2  0
  5 11  1  0
  6  5  1  0
  7  6  1  0
  7  8  1  6
  9  7  1  0
  9 10  2  0
 11 12  2  0
 12  2  1  0
 14 13  1  1
 14 15  1  0
 17 16  1  6
 16 14  1  0
 17 18  1  0
 18  9  1  0
 19 17  1  0
 20 19  2  0
 21 22  1  0
 22 24  1  0
 23 22  2  0
 24 25  1  0
 25 26  1  0
 26 27  1  0
 28 27  1  6
 28 29  1  0
 29 19  1  0
 30 31  1  0
 30 28  1  0
 32 30  2  0
M  END
$$$$
