YLR.pdb
     RDKit          3D

 32 32  0  0  1  0  0  0  0  0999 V2000
    8.0753  -13.8733   14.9924 O   0  0  0  0  0  0  0  0  0  0  0  0
    8.1984  -13.6983   16.3563 C   0  0  0  0  0  0  0  0  0  0  0  0
    7.4582  -12.7374   17.0467 C   0  0  0  0  0  0  0  0  0  0  0  0
    7.6344  -12.6188   18.4159 C   0  0  0  0  0  0  0  0  0  0  0  0
    8.5128  -13.4155   19.1151 C   0  0  0  0  0  0  0  0  0  0  0  0
    8.6953  -13.2862   20.5643 C   0  0  0  0  0  0  0  0  0  0  0  0
    8.2552  -14.5194   21.3313 C   0  0  2  0  0  0  0  0  0  0  0  0
    6.8638  -14.7591   20.9815 N   0  0  0  0  0  0  0  0  0  0  0  0
    8.2680  -14.1645   22.7835 C   0  0  0  0  0  0  0  0  0  0  0  0
    8.4343  -12.9496   23.0665 O   0  0  0  0  0  0  0  0  0  0  0  0
    9.2359  -14.3598   18.4164 C   0  0  0  0  0  0  0  0  0  0  0  0
    9.0777  -14.4985   17.0439 C   0  0  0  0  0  0  0  0  0  0  0  0
    5.4768  -12.6584   26.4647 C   0  0  0  0  0  0  0  0  0  0  0  0
    6.7581  -13.0078   25.7500 C   0  0  1  0  0  0  0  0  0  0  0  0
    7.8031  -11.9976   26.2310 C   0  0  0  0  0  0  0  0  0  0  0  0
    7.2660  -14.3779   25.9985 C   0  0  0  0  0  0  0  0  0  0  0  0
    8.4347  -14.8245   25.1960 C   0  0  2  0  0  0  0  0  0  0  0  0
    8.1073  -15.1009   23.8114 N   0  0  0  0  0  0  0  0  0  0  0  0
    9.2085  -15.9414   25.7902 C   0  0  0  0  0  0  0  0  0  0  0  0
    9.5552  -15.9265   27.0189 O   0  0  0  0  0  0  0  0  0  0  0  0
   14.6497  -15.6408   22.4472 N   0  0  0  0  0  0  0  0  0  0  0  0
   13.6963  -15.6550   21.3738 C   0  0  0  0  0  0  0  0  0  0  0  0
   13.7132  -14.7214   20.4877 N   0  0  0  0  0  0  0  0  0  0  0  0
   12.7290  -16.6787   21.2640 N   0  0  0  0  0  0  0  0  0  0  0  0
   12.6938  -17.8118   22.1557 C   0  0  0  0  0  0  0  0  0  0  0  0
   11.5346  -17.7848   23.0907 C   0  0  0  0  0  0  0  0  0  0  0  0
   11.8411  -17.9598   24.5304 C   0  0  0  0  0  0  0  0  0  0  0  0
   10.6815  -17.9613   25.4670 C   0  0  2  0  0  0  0  0  0  0  0  0
    9.6128  -17.0841   25.0525 N   0  0  0  0  0  0  0  0  0  0  0  0
   11.0068  -17.8322   26.8918 C   0  0  0  0  0  0  0  0  0  0  0  0
   11.7336  -16.6939   27.2903 O   0  0  0  0  0  0  0  0  0  0  0  0
   10.7020  -18.6308   27.7835 O   0  0  0  0  0  0  0  0  0  0  0  0
  2  1  1  0
  3  2  2  0
  4  3  1  0
  5  4  2  0
  5 11  1  0
  6  5  1  0
  7  6  1  0
  7  8  1  6
  9  7  1  0
  9 10  2  0
 11 12  2  0
 12  2  1  0
 14 13  1  1
 14 15  1  0
 17 16  1  1
 16 14  1  0
 17 18  1  0
 18  9  1  0
 19 17  1  0
 20 19  2  0
 21 22  1  0
 22 24  1  0
 23 22  2  0
 24 25  1  0
 25 26  1  0
 26 27  1  0
 28 27  1  6
 28 29  1  0
 29 19  1  0
 30 31  1  0
 30 28  1  0
 32 30  2  0
M  END
$$$$
