YLR.pdb
     RDKit          3D

 32 32  0  0  1  0  0  0  0  0999 V2000
    6.6424  -12.9399   16.2840 O   0  0  0  0  0  0  0  0  0  0  0  0
    7.4855  -13.3972   17.2769 C   0  0  0  0  0  0  0  0  0  0  0  0
    7.9694  -14.7062   17.2889 C   0  0  0  0  0  0  0  0  0  0  0  0
    8.8120  -15.0948   18.3180 C   0  0  0  0  0  0  0  0  0  0  0  0
    9.1861  -14.2345   19.3254 C   0  0  0  0  0  0  0  0  0  0  0  0
   10.0785  -14.6507   20.4121 C   0  0  0  0  0  0  0  0  0  0  0  0
    9.4912  -15.7526   21.2745 C   0  0  2  0  0  0  0  0  0  0  0  0
    8.0870  -15.8677   20.9131 N   0  0  0  0  0  0  0  0  0  0  0  0
    9.5226  -15.2705   22.6893 C   0  0  0  0  0  0  0  0  0  0  0  0
   10.6465  -15.2532   23.2553 O   0  0  0  0  0  0  0  0  0  0  0  0
    8.6982  -12.9446   19.2973 C   0  0  0  0  0  0  0  0  0  0  0  0
    7.8523  -12.5304   18.2771 C   0  0  0  0  0  0  0  0  0  0  0  0
    8.6504  -11.8261   26.6592 C   0  0  0  0  0  0  0  0  0  0  0  0
    7.4550  -12.7075   26.3964 C   0  0  1  0  0  0  0  0  0  0  0  0
    6.2226  -11.8150   26.5652 C   0  0  0  0  0  0  0  0  0  0  0  0
    7.4144  -13.3316   25.0526 C   0  0  0  0  0  0  0  0  0  0  0  0
    8.4267  -14.3800   24.7603 C   0  0  2  0  0  0  0  0  0  0  0  0
    8.3862  -14.8498   23.3899 N   0  0  0  0  0  0  0  0  0  0  0  0
    8.4365  -15.5188   25.7104 C   0  0  0  0  0  0  0  0  0  0  0  0
    7.3629  -15.9225   26.2709 O   0  0  0  0  0  0  0  0  0  0  0  0
    9.4359  -23.4598   23.2828 N   0  0  0  0  0  0  0  0  0  0  0  0
    9.6315  -23.5635   24.7014 C   0  0  0  0  0  0  0  0  0  0  0  0
    9.7097  -24.7226   25.2556 N   0  0  0  0  0  0  0  0  0  0  0  0
    9.7414  -22.4130   25.5138 N   0  0  0  0  0  0  0  0  0  0  0  0
    9.5403  -21.0796   25.0019 C   0  0  0  0  0  0  0  0  0  0  0  0
    9.8962  -20.0165   25.9827 C   0  0  0  0  0  0  0  0  0  0  0  0
    9.7482  -18.6151   25.5227 C   0  0  0  0  0  0  0  0  0  0  0  0
    9.6084  -17.5740   26.5803 C   0  0  2  0  0  0  0  0  0  0  0  0
    9.6150  -16.2279   26.0595 N   0  0  0  0  0  0  0  0  0  0  0  0
   10.4685  -17.7355   27.7579 C   0  0  0  0  0  0  0  0  0  0  0  0
   11.5769  -16.8747   27.8740 O   0  0  0  0  0  0  0  0  0  0  0  0
   10.3135  -18.5590   28.6653 O   0  0  0  0  0  0  0  0  0  0  0  0
  2  1  1  0
  3  2  2  0
  4  3  1  0
  5  4  2  0
  5 11  1  0
  6  5  1  0
  7  6  1  0
  7  8  1  6
  9  7  1  0
  9 10  2  0
 11 12  2  0
 12  2  1  0
 14 13  1  6
 14 15  1  0
 17 16  1  1
 16 14  1  0
 17 18  1  0
 18  9  1  0
 19 17  1  0
 20 19  2  0
 21 22  1  0
 22 24  1  0
 23 22  2  0
 24 25  1  0
 25 26  1  0
 26 27  1  0
 28 27  1  6
 28 29  1  0
 29 19  1  0
 30 31  1  0
 30 28  1  0
 32 30  2  0
M  END
$$$$
