YLR.pdb
     RDKit          3D

 32 32  0  0  1  0  0  0  0  0999 V2000
    7.4198  -14.0424   15.5425 O   0  0  0  0  0  0  0  0  0  0  0  0
    7.6348  -14.3098   16.8797 C   0  0  0  0  0  0  0  0  0  0  0  0
    7.8671  -13.2933   17.8073 C   0  0  0  0  0  0  0  0  0  0  0  0
    8.0748  -13.6372   19.1334 C   0  0  0  0  0  0  0  0  0  0  0  0
    8.0595  -14.9447   19.5641 C   0  0  0  0  0  0  0  0  0  0  0  0
    8.2796  -15.3033   20.9688 C   0  0  0  0  0  0  0  0  0  0  0  0
    9.5254  -14.6667   21.5567 C   0  0  2  0  0  0  0  0  0  0  0  0
   10.6177  -15.6034   21.3444 N   0  0  0  0  0  0  0  0  0  0  0  0
    9.3238  -14.5849   23.0359 C   0  0  0  0  0  0  0  0  0  0  0  0
   10.2451  -15.0473   23.7578 O   0  0  0  0  0  0  0  0  0  0  0  0
    7.8284  -15.9362   18.6333 C   0  0  0  0  0  0  0  0  0  0  0  0
    7.6173  -15.6178   17.2984 C   0  0  0  0  0  0  0  0  0  0  0  0
    7.4130  -11.8542   27.5907 C   0  0  0  0  0  0  0  0  0  0  0  0
    6.5693  -12.8853   26.8837 C   0  0  1  0  0  0  0  0  0  0  0  0
    5.1153  -12.4402   27.0614 C   0  0  0  0  0  0  0  0  0  0  0  0
    6.8484  -13.0447   25.4368 C   0  0  0  0  0  0  0  0  0  0  0  0
    8.0650  -13.8113   25.0607 C   0  0  2  0  0  0  0  0  0  0  0  0
    8.1855  -14.0313   23.6332 N   0  0  0  0  0  0  0  0  0  0  0  0
    8.2607  -15.0763   25.8097 C   0  0  0  0  0  0  0  0  0  0  0  0
    8.6945  -15.0744   27.0104 O   0  0  0  0  0  0  0  0  0  0  0  0
    5.9514  -23.2259   28.1709 N   0  0  0  0  0  0  0  0  0  0  0  0
    5.7598  -23.0854   26.7550 C   0  0  0  0  0  0  0  0  0  0  0  0
    4.9656  -23.8843   26.1321 N   0  0  0  0  0  0  0  0  0  0  0  0
    6.4282  -22.0815   26.0193 N   0  0  0  0  0  0  0  0  0  0  0  0
    6.6954  -20.7713   26.5600 C   0  0  0  0  0  0  0  0  0  0  0  0
    7.8557  -20.0971   25.9137 C   0  0  0  0  0  0  0  0  0  0  0  0
    7.5945  -18.7733   25.2999 C   0  0  0  0  0  0  0  0  0  0  0  0
    8.2092  -17.5915   25.9688 C   0  0  2  0  0  0  0  0  0  0  0  0
    7.9870  -16.3549   25.2584 N   0  0  0  0  0  0  0  0  0  0  0  0
    9.5984  -17.7548   26.4114 C   0  0  0  0  0  0  0  0  0  0  0  0
    9.8163  -18.0300   27.7751 O   0  0  0  0  0  0  0  0  0  0  0  0
   10.6039  -17.6747   25.6985 O   0  0  0  0  0  0  0  0  0  0  0  0
  2  1  1  0
  3  2  2  0
  4  3  1  0
  5  4  2  0
  5 11  1  0
  6  5  1  0
  7  6  1  0
  7  8  1  1
  9  7  1  0
  9 10  2  0
 11 12  2  0
 12  2  1  0
 14 13  1  6
 14 15  1  0
 17 16  1  6
 16 14  1  0
 17 18  1  0
 18  9  1  0
 19 17  1  0
 20 19  2  0
 21 22  1  0
 22 24  1  0
 23 22  2  0
 24 25  1  0
 25 26  1  0
 26 27  1  0
 28 27  1  6
 28 29  1  0
 29 19  1  0
 30 31  1  0
 30 28  1  0
 32 30  2  0
M  END
$$$$
