YLR.pdb
     RDKit          3D

 32 32  0  0  1  0  0  0  0  0999 V2000
    7.9397  -14.1514   15.3687 O   0  0  0  0  0  0  0  0  0  0  0  0
    8.1979  -14.0078   16.7172 C   0  0  0  0  0  0  0  0  0  0  0  0
    7.6892  -12.9385   17.4560 C   0  0  0  0  0  0  0  0  0  0  0  0
    7.9902  -12.8595   18.8062 C   0  0  0  0  0  0  0  0  0  0  0  0
    8.7722  -13.7984   19.4404 C   0  0  0  0  0  0  0  0  0  0  0  0
    9.0876  -13.7103   20.8698 C   0  0  0  0  0  0  0  0  0  0  0  0
    8.3733  -14.7592   21.7019 C   0  0  2  0  0  0  0  0  0  0  0  0
    6.9469  -14.5555   21.5031 N   0  0  0  0  0  0  0  0  0  0  0  0
    8.6463  -14.4451   23.1379 C   0  0  0  0  0  0  0  0  0  0  0  0
    9.3977  -13.4622   23.3680 O   0  0  0  0  0  0  0  0  0  0  0  0
    9.2663  -14.8482   18.6945 C   0  0  0  0  0  0  0  0  0  0  0  0
    8.9791  -14.9502   17.3399 C   0  0  0  0  0  0  0  0  0  0  0  0
    5.7080  -12.3660   26.6895 C   0  0  0  0  0  0  0  0  0  0  0  0
    6.9308  -12.9014   25.9875 C   0  0  1  0  0  0  0  0  0  0  0  0
    8.0825  -11.9662   26.3656 C   0  0  0  0  0  0  0  0  0  0  0  0
    7.3050  -14.2908   26.3433 C   0  0  0  0  0  0  0  0  0  0  0  0
    8.4326  -14.9032   25.5930 C   0  0  2  0  0  0  0  0  0  0  0  0
    8.1157  -15.1782   24.2057 N   0  0  0  0  0  0  0  0  0  0  0  0
    9.0418  -16.0893   26.2422 C   0  0  0  0  0  0  0  0  0  0  0  0
    9.3458  -16.0823   27.4821 O   0  0  0  0  0  0  0  0  0  0  0  0
    9.8156  -21.6258   20.8268 N   0  0  0  0  0  0  0  0  0  0  0  0
    9.9162  -20.2146   20.5824 C   0  0  0  0  0  0  0  0  0  0  0  0
   10.4475  -19.7885   19.4900 N   0  0  0  0  0  0  0  0  0  0  0  0
    9.4417  -19.2710   21.5205 N   0  0  0  0  0  0  0  0  0  0  0  0
    9.1677  -19.6132   22.8946 C   0  0  0  0  0  0  0  0  0  0  0  0
   10.3085  -19.3249   23.8080 C   0  0  0  0  0  0  0  0  0  0  0  0
   10.0902  -19.6024   25.2477 C   0  0  0  0  0  0  0  0  0  0  0  0
    9.9962  -18.4206   26.1512 C   0  0  2  0  0  0  0  0  0  0  0  0
    9.3264  -17.2935   25.5477 N   0  0  0  0  0  0  0  0  0  0  0  0
   11.2316  -18.0452   26.8480 C   0  0  0  0  0  0  0  0  0  0  0  0
   11.6917  -16.7243   26.6856 O   0  0  0  0  0  0  0  0  0  0  0  0
   11.9126  -18.7806   27.5699 O   0  0  0  0  0  0  0  0  0  0  0  0
  2  1  1  0
  3  2  2  0
  4  3  1  0
  5  4  2  0
  5 11  1  0
  6  5  1  0
  7  6  1  0
  7  8  1  1
  9  7  1  0
  9 10  2  0
 11 12  2  0
 12  2  1  0
 14 13  1  1
 14 15  1  0
 17 16  1  1
 16 14  1  0
 17 18  1  0
 18  9  1  0
 19 17  1  0
 20 19  2  0
 21 22  1  0
 22 24  1  0
 23 22  2  0
 24 25  1  0
 25 26  1  0
 26 27  1  0
 28 27  1  6
 28 29  1  0
 29 19  1  0
 30 31  1  0
 30 28  1  0
 32 30  2  0
M  END
$$$$
