YLR.pdb
     RDKit          3D

 32 32  0  0  1  0  0  0  0  0999 V2000
    5.5852  -10.9446   28.0830 O   0  0  0  0  0  0  0  0  0  0  0  0
    6.3171  -11.9039   27.4121 C   0  0  0  0  0  0  0  0  0  0  0  0
    7.4762  -12.4606   27.9544 C   0  0  0  0  0  0  0  0  0  0  0  0
    8.1594  -13.4190   27.2231 C   0  0  0  0  0  0  0  0  0  0  0  0
    7.7332  -13.8384   25.9831 C   0  0  0  0  0  0  0  0  0  0  0  0
    8.4597  -14.8532   25.2133 C   0  0  0  0  0  0  0  0  0  0  0  0
    7.5546  -15.6862   24.3248 C   0  0  2  0  0  0  0  0  0  0  0  0
    7.4122  -16.9838   24.9663 N   0  0  0  0  0  0  0  0  0  0  0  0
    8.2913  -15.9282   23.0465 C   0  0  0  0  0  0  0  0  0  0  0  0
    8.7183  -17.0961   22.8533 O   0  0  0  0  0  0  0  0  0  0  0  0
    6.5856  -13.2771   25.4628 C   0  0  0  0  0  0  0  0  0  0  0  0
    5.8828  -12.3149   26.1756 C   0  0  0  0  0  0  0  0  0  0  0  0
    7.8495  -12.0220   19.0769 C   0  0  0  0  0  0  0  0  0  0  0  0
    7.8572  -13.2517   19.9501 C   0  0  1  0  0  0  0  0  0  0  0  0
    6.6494  -14.0878   19.5189 C   0  0  0  0  0  0  0  0  0  0  0  0
    9.0777  -14.0871   19.8528 C   0  0  0  0  0  0  0  0  0  0  0  0
    9.2312  -15.1826   20.8457 C   0  0  2  0  0  0  0  0  0  0  0  0
    8.5189  -14.9378   22.0840 N   0  0  0  0  0  0  0  0  0  0  0  0
   10.6320  -15.5902   21.1123 C   0  0  0  0  0  0  0  0  0  0  0  0
   11.4982  -14.7498   21.5286 O   0  0  0  0  0  0  0  0  0  0  0  0
   18.1509  -14.0231   22.1262 N   0  0  0  0  0  0  0  0  0  0  0  0
   17.7747  -14.2230   20.7552 C   0  0  0  0  0  0  0  0  0  0  0  0
   18.4092  -13.6081   19.8191 N   0  0  0  0  0  0  0  0  0  0  0  0
   16.7139  -15.0869   20.4030 N   0  0  0  0  0  0  0  0  0  0  0  0
   15.9309  -15.7950   21.3859 C   0  0  0  0  0  0  0  0  0  0  0  0
   14.8952  -16.6792   20.7825 C   0  0  0  0  0  0  0  0  0  0  0  0
   13.4867  -16.3914   21.1442 C   0  0  0  0  0  0  0  0  0  0  0  0
   12.4422  -17.2307   20.4911 C   0  0  2  0  0  0  0  0  0  0  0  0
   11.1029  -16.9159   20.9274 N   0  0  0  0  0  0  0  0  0  0  0  0
   12.7075  -18.6732   20.4552 C   0  0  0  0  0  0  0  0  0  0  0  0
   11.9951  -19.4860   21.3578 O   0  0  0  0  0  0  0  0  0  0  0  0
   13.5007  -19.2492   19.7037 O   0  0  0  0  0  0  0  0  0  0  0  0
  2  1  1  0
  3  2  2  0
  4  3  1  0
  5  4  2  0
  5 11  1  0
  6  5  1  0
  7  6  1  0
  7  8  1  1
  9  7  1  0
  9 10  2  0
 11 12  2  0
 12  2  1  0
 14 13  1  6
 14 15  1  0
 17 16  1  6
 16 14  1  0
 17 18  1  0
 18  9  1  0
 19 17  1  0
 20 19  2  0
 21 22  1  0
 22 24  1  0
 23 22  2  0
 24 25  1  0
 25 26  1  0
 26 27  1  0
 28 27  1  1
 28 29  1  0
 29 19  1  0
 30 31  1  0
 30 28  1  0
 32 30  2  0
M  END
$$$$
