YLR.pdb
     RDKit          3D

 32 32  0  0  1  0  0  0  0  0999 V2000
    7.9508  -22.8175   30.7830 O   0  0  0  0  0  0  0  0  0  0  0  0
    8.0605  -21.9574   29.7087 C   0  0  0  0  0  0  0  0  0  0  0  0
    8.9925  -22.1636   28.6905 C   0  0  0  0  0  0  0  0  0  0  0  0
    9.0451  -21.2580   27.6431 C   0  0  0  0  0  0  0  0  0  0  0  0
    8.2108  -20.1652   27.5744 C   0  0  0  0  0  0  0  0  0  0  0  0
    8.2704  -19.2100   26.4634 C   0  0  0  0  0  0  0  0  0  0  0  0
    6.9068  -18.6779   26.0630 C   0  0  2  0  0  0  0  0  0  0  0  0
    6.2624  -19.7185   25.2772 N   0  0  0  0  0  0  0  0  0  0  0  0
    7.1360  -17.5303   25.1327 C   0  0  0  0  0  0  0  0  0  0  0  0
    7.1612  -17.7965   23.9030 O   0  0  0  0  0  0  0  0  0  0  0  0
    7.2959  -19.9773   28.5895 C   0  0  0  0  0  0  0  0  0  0  0  0
    7.2231  -20.8703   29.6502 C   0  0  0  0  0  0  0  0  0  0  0  0
    6.9753  -12.4001   27.1735 C   0  0  0  0  0  0  0  0  0  0  0  0
    6.7945  -13.4678   26.1237 C   0  0  1  0  0  0  0  0  0  0  0  0
    5.7995  -12.9015   25.1073 C   0  0  0  0  0  0  0  0  0  0  0  0
    8.0312  -13.8685   25.4117 C   0  0  0  0  0  0  0  0  0  0  0  0
    8.0520  -15.2214   24.7964 C   0  0  2  0  0  0  0  0  0  0  0  0
    7.3185  -16.2102   25.5610 N   0  0  0  0  0  0  0  0  0  0  0  0
    9.4012  -15.7226   24.4388 C   0  0  0  0  0  0  0  0  0  0  0  0
   10.1599  -16.2622   25.3124 O   0  0  0  0  0  0  0  0  0  0  0  0
    9.6736  -19.8544   19.8839 N   0  0  0  0  0  0  0  0  0  0  0  0
    8.9972  -19.1060   18.8622 C   0  0  0  0  0  0  0  0  0  0  0  0
    7.9553  -19.5987   18.2890 N   0  0  0  0  0  0  0  0  0  0  0  0
    9.4511  -17.8284   18.4653 N   0  0  0  0  0  0  0  0  0  0  0  0
   10.5598  -17.1651   19.1064 C   0  0  0  0  0  0  0  0  0  0  0  0
   10.4024  -17.0575   20.5837 C   0  0  0  0  0  0  0  0  0  0  0  0
   11.4431  -16.2875   21.3059 C   0  0  0  0  0  0  0  0  0  0  0  0
   11.2527  -16.1179   22.7746 C   0  0  2  0  0  0  0  0  0  0  0  0
    9.9371  -15.6405   23.1275 N   0  0  0  0  0  0  0  0  0  0  0  0
   12.3261  -15.4127   23.4839 C   0  0  0  0  0  0  0  0  0  0  0  0
   13.6425  -15.8739   23.2913 O   0  0  0  0  0  0  0  0  0  0  0  0
   12.1866  -14.4453   24.2391 O   0  0  0  0  0  0  0  0  0  0  0  0
  2  1  1  0
  3  2  2  0
  4  3  1  0
  5  4  2  0
  5 11  1  0
  6  5  1  0
  7  6  1  0
  7  8  1  6
  9  7  1  0
  9 10  2  0
 11 12  2  0
 12  2  1  0
 14 13  1  1
 14 15  1  0
 17 16  1  1
 16 14  1  0
 17 18  1  0
 18  9  1  0
 19 17  1  0
 20 19  2  0
 21 22  1  0
 22 24  1  0
 23 22  2  0
 24 25  1  0
 25 26  1  0
 26 27  1  0
 28 27  1  6
 28 29  1  0
 29 19  1  0
 30 31  1  0
 30 28  1  0
 32 30  2  0
M  END
$$$$
