YLR.pdb
     RDKit          3D

 32 32  0  0  1  0  0  0  0  0999 V2000
   11.2685  -20.8448   31.4430 O   0  0  0  0  0  0  0  0  0  0  0  0
   10.4448  -20.1890   30.5501 C   0  0  0  0  0  0  0  0  0  0  0  0
   10.3237  -20.5973   29.2211 C   0  0  0  0  0  0  0  0  0  0  0  0
    9.4774  -19.8904   28.3821 C   0  0  0  0  0  0  0  0  0  0  0  0
    8.7545  -18.8020   28.8156 C   0  0  0  0  0  0  0  0  0  0  0  0
    7.8599  -18.0574   27.9236 C   0  0  0  0  0  0  0  0  0  0  0  0
    8.3343  -18.0433   26.4823 C   0  0  2  0  0  0  0  0  0  0  0  0
    9.6939  -17.5264   26.4910 N   0  0  0  0  0  0  0  0  0  0  0  0
    7.5059  -17.0338   25.7543 C   0  0  0  0  0  0  0  0  0  0  0  0
    6.3074  -17.3441   25.5281 O   0  0  0  0  0  0  0  0  0  0  0  0
    8.8866  -18.4127   30.1323 C   0  0  0  0  0  0  0  0  0  0  0  0
    9.7281  -19.1044   30.9933 C   0  0  0  0  0  0  0  0  0  0  0  0
    7.9230  -11.8040   26.7064 C   0  0  0  0  0  0  0  0  0  0  0  0
    7.3371  -13.1395   26.3217 C   0  0  1  0  0  0  0  0  0  0  0  0
    5.8723  -13.1057   26.7656 C   0  0  0  0  0  0  0  0  0  0  0  0
    7.3924  -13.4598   24.8755 C   0  0  0  0  0  0  0  0  0  0  0  0
    7.2345  -14.8866   24.4899 C   0  0  2  0  0  0  0  0  0  0  0  0
    7.9945  -15.7939   25.3264 N   0  0  0  0  0  0  0  0  0  0  0  0
    7.4646  -15.1728   23.0530 C   0  0  0  0  0  0  0  0  0  0  0  0
    6.6634  -14.7444   22.1561 O   0  0  0  0  0  0  0  0  0  0  0  0
    7.5575  -11.9163   16.1873 N   0  0  0  0  0  0  0  0  0  0  0  0
    7.8021  -13.2847   15.8281 C   0  0  0  0  0  0  0  0  0  0  0  0
    7.5663  -13.6854   14.6278 N   0  0  0  0  0  0  0  0  0  0  0  0
    8.3004  -14.2133   16.7689 N   0  0  0  0  0  0  0  0  0  0  0  0
    8.7594  -13.8204   18.0786 C   0  0  0  0  0  0  0  0  0  0  0  0
    9.1270  -14.9777   18.9413 C   0  0  0  0  0  0  0  0  0  0  0  0
    8.7632  -14.8768   20.3748 C   0  0  0  0  0  0  0  0  0  0  0  0
    8.8526  -16.1289   21.1786 C   0  0  2  0  0  0  0  0  0  0  0  0
    8.5682  -15.9286   22.5794 N   0  0  0  0  0  0  0  0  0  0  0  0
   10.0430  -16.9554   20.9494 C   0  0  0  0  0  0  0  0  0  0  0  0
   10.3376  -17.3131   19.6197 O   0  0  0  0  0  0  0  0  0  0  0  0
   10.8188  -17.3707   21.8161 O   0  0  0  0  0  0  0  0  0  0  0  0
  2  1  1  0
  3  2  2  0
  4  3  1  0
  5  4  2  0
  5 11  1  0
  6  5  1  0
  7  6  1  0
  7  8  1  1
  9  7  1  0
  9 10  2  0
 11 12  2  0
 12  2  1  0
 14 13  1  6
 14 15  1  0
 17 16  1  6
 16 14  1  0
 17 18  1  0
 18  9  1  0
 19 17  1  0
 20 19  2  0
 21 22  1  0
 22 24  1  0
 23 22  2  0
 24 25  1  0
 25 26  1  0
 26 27  1  0
 28 27  1  6
 28 29  1  0
 29 19  1  0
 30 31  1  0
 30 28  1  0
 32 30  2  0
M  END
$$$$
