YLR.pdb
     RDKit          3D

 32 32  0  0  1  0  0  0  0  0999 V2000
    5.8030  -17.5048   15.2694 O   0  0  0  0  0  0  0  0  0  0  0  0
    6.4395  -17.1232   16.4336 C   0  0  0  0  0  0  0  0  0  0  0  0
    7.6525  -16.4331   16.4191 C   0  0  0  0  0  0  0  0  0  0  0  0
    8.2332  -16.0826   17.6273 C   0  0  0  0  0  0  0  0  0  0  0  0
    7.6543  -16.3919   18.8375 C   0  0  0  0  0  0  0  0  0  0  0  0
    8.2729  -16.0183   20.1134 C   0  0  0  0  0  0  0  0  0  0  0  0
    7.7547  -14.7020   20.6625 C   0  0  2  0  0  0  0  0  0  0  0  0
    8.4159  -13.6439   19.9149 N   0  0  0  0  0  0  0  0  0  0  0  0
    8.2420  -14.5883   22.0713 C   0  0  0  0  0  0  0  0  0  0  0  0
    9.4811  -14.4353   22.2297 O   0  0  0  0  0  0  0  0  0  0  0  0
    6.4555  -17.0742   18.8325 C   0  0  0  0  0  0  0  0  0  0  0  0
    5.8531  -17.4369   17.6352 C   0  0  0  0  0  0  0  0  0  0  0  0
    5.1957  -12.4784   26.2968 C   0  0  0  0  0  0  0  0  0  0  0  0
    6.3496  -12.8262   25.3900 C   0  0  1  0  0  0  0  0  0  0  0  0
    7.4624  -11.8259   25.7142 C   0  0  0  0  0  0  0  0  0  0  0  0
    6.8813  -14.2011   25.5442 C   0  0  0  0  0  0  0  0  0  0  0  0
    7.8919  -14.6532   24.5525 C   0  0  2  0  0  0  0  0  0  0  0  0
    7.4010  -14.6436   23.1888 N   0  0  0  0  0  0  0  0  0  0  0  0
    8.5429  -15.9469   24.8717 C   0  0  0  0  0  0  0  0  0  0  0  0
    7.8528  -16.9936   25.1130 O   0  0  0  0  0  0  0  0  0  0  0  0
   16.1163  -19.3657   25.1796 N   0  0  0  0  0  0  0  0  0  0  0  0
   15.5115  -20.5377   24.6121 C   0  0  0  0  0  0  0  0  0  0  0  0
   16.2040  -21.6137   24.4720 N   0  0  0  0  0  0  0  0  0  0  0  0
   14.1606  -20.5403   24.1989 N   0  0  0  0  0  0  0  0  0  0  0  0
   13.4655  -19.3375   23.8110 C   0  0  0  0  0  0  0  0  0  0  0  0
   12.7477  -18.6860   24.9418 C   0  0  0  0  0  0  0  0  0  0  0  0
   11.9686  -17.4673   24.6172 C   0  0  0  0  0  0  0  0  0  0  0  0
   10.5921  -17.3816   25.1827 C   0  0  2  0  0  0  0  0  0  0  0  0
    9.9508  -16.1131   24.9322 N   0  0  0  0  0  0  0  0  0  0  0  0
   10.4381  -17.8360   26.5692 C   0  0  0  0  0  0  0  0  0  0  0  0
   10.4759  -16.8566   27.5803 O   0  0  0  0  0  0  0  0  0  0  0  0
   10.2763  -19.0033   26.9391 O   0  0  0  0  0  0  0  0  0  0  0  0
  2  1  1  0
  3  2  2  0
  4  3  1  0
  5  4  2  0
  5 11  1  0
  6  5  1  0
  7  6  1  0
  7  8  1  6
  9  7  1  0
  9 10  2  0
 11 12  2  0
 12  2  1  0
 14 13  1  1
 14 15  1  0
 17 16  1  1
 16 14  1  0
 17 18  1  0
 18  9  1  0
 19 17  1  0
 20 19  2  0
 21 22  1  0
 22 24  1  0
 23 22  2  0
 24 25  1  0
 25 26  1  0
 26 27  1  0
 28 27  1  1
 28 29  1  0
 29 19  1  0
 30 31  1  0
 30 28  1  0
 32 30  2  0
M  END
$$$$
