YLR.pdb
     RDKit          3D

 32 32  0  0  1  0  0  0  0  0999 V2000
   17.3929  -14.6296   14.1856 O   0  0  0  0  0  0  0  0  0  0  0  0
   16.5177  -14.5189   15.2475 C   0  0  0  0  0  0  0  0  0  0  0  0
   16.6418  -13.5100   16.2038 C   0  0  0  0  0  0  0  0  0  0  0  0
   15.7261  -13.4613   17.2425 C   0  0  0  0  0  0  0  0  0  0  0  0
   14.7013  -14.3727   17.3614 C   0  0  0  0  0  0  0  0  0  0  0  0
   13.7345  -14.3166   18.4626 C   0  0  0  0  0  0  0  0  0  0  0  0
   12.7882  -15.5026   18.4839 C   0  0  2  0  0  0  0  0  0  0  0  0
   11.9770  -15.4164   17.2797 N   0  0  0  0  0  0  0  0  0  0  0  0
   11.8546  -15.3024   19.6344 C   0  0  0  0  0  0  0  0  0  0  0  0
   12.3752  -15.2275   20.7777 O   0  0  0  0  0  0  0  0  0  0  0  0
   14.5941  -15.3630   16.4072 C   0  0  0  0  0  0  0  0  0  0  0  0
   15.4990  -15.4336   15.3564 C   0  0  0  0  0  0  0  0  0  0  0  0
    6.9146  -12.7897   18.9207 C   0  0  0  0  0  0  0  0  0  0  0  0
    8.2604  -13.2327   19.4376 C   0  0  1  0  0  0  0  0  0  0  0  0
    8.7853  -12.0818   20.2999 C   0  0  0  0  0  0  0  0  0  0  0  0
    8.2475  -14.4727   20.2495 C   0  0  0  0  0  0  0  0  0  0  0  0
    9.5639  -15.0541   20.6215 C   0  0  2  0  0  0  0  0  0  0  0  0
   10.4657  -15.1979   19.4959 N   0  0  0  0  0  0  0  0  0  0  0  0
    9.4910  -16.3109   21.4054 C   0  0  0  0  0  0  0  0  0  0  0  0
    9.1481  -17.4128   20.8593 O   0  0  0  0  0  0  0  0  0  0  0  0
   15.2031  -20.7545   19.7513 N   0  0  0  0  0  0  0  0  0  0  0  0
   13.8885  -21.3312   19.7266 C   0  0  0  0  0  0  0  0  0  0  0  0
   13.6688  -22.3991   19.0423 N   0  0  0  0  0  0  0  0  0  0  0  0
   12.8179  -20.7501   20.4419 N   0  0  0  0  0  0  0  0  0  0  0  0
   12.9661  -19.5406   21.2136 C   0  0  0  0  0  0  0  0  0  0  0  0
   11.6892  -19.0753   21.8233 C   0  0  0  0  0  0  0  0  0  0  0  0
   11.7551  -17.8347   22.6320 C   0  0  0  0  0  0  0  0  0  0  0  0
   10.5277  -17.4645   23.3924 C   0  0  2  0  0  0  0  0  0  0  0  0
    9.7898  -16.3798   22.7908 N   0  0  0  0  0  0  0  0  0  0  0  0
   10.6931  -17.3087   24.8419 C   0  0  0  0  0  0  0  0  0  0  0  0
   11.3607  -16.1558   25.2980 O   0  0  0  0  0  0  0  0  0  0  0  0
   10.2998  -18.0962   25.7084 O   0  0  0  0  0  0  0  0  0  0  0  0
  2  1  1  0
  3  2  2  0
  4  3  1  0
  5  4  2  0
  5 11  1  0
  6  5  1  0
  7  6  1  0
  7  8  1  6
  9  7  1  0
  9 10  2  0
 11 12  2  0
 12  2  1  0
 14 13  1  1
 14 15  1  0
 17 16  1  6
 16 14  1  0
 17 18  1  0
 18  9  1  0
 19 17  1  0
 20 19  2  0
 21 22  1  0
 22 24  1  0
 23 22  2  0
 24 25  1  0
 25 26  1  0
 26 27  1  0
 28 27  1  6
 28 29  1  0
 29 19  1  0
 30 31  1  0
 30 28  1  0
 32 30  2  0
M  END
$$$$
