RSH.pdb
     RDKit          3D

 28 28  0  0  1  0  0  0  0  0999 V2000
    8.8082  -13.7410   16.7181 N   0  0  0  0  0  0  0  0  0  0  0  0
    8.1592  -13.9629   15.4809 C   0  0  0  0  0  0  0  0  0  0  0  0
    7.5171  -13.0008   14.8838 N   0  0  0  0  0  0  0  0  0  0  0  0
    8.2240  -15.2714   14.8986 N   0  0  0  0  0  0  0  0  0  0  0  0
    8.8887  -16.3226   15.6442 C   0  0  0  0  0  0  0  0  0  0  0  0
    7.9921  -16.6768   16.8061 C   0  0  0  0  0  0  0  0  0  0  0  0
    8.5274  -17.8425   17.6120 C   0  0  0  0  0  0  0  0  0  0  0  0
    7.4789  -18.1229   18.6927 C   0  0  2  0  0  0  0  0  0  0  0  0
    6.2446  -17.5555   18.2454 N   0  0  0  0  0  0  0  0  0  0  0  0
    7.9700  -17.5107   19.9533 C   0  0  0  0  0  0  0  0  0  0  0  0
    8.5395  -16.3909   19.9768 O   0  0  0  0  0  0  0  0  0  0  0  0
    6.9705  -13.2213   14.0388 O   0  0  0  0  0  0  0  0  0  0  0  0
    6.3358  -18.4343   23.3541 C   0  0  0  0  0  0  0  0  0  0  0  0
    7.2183  -17.3559   23.3583 C   0  0  1  0  0  0  0  0  0  0  0  0
    8.3758  -17.6806   22.4306 N   0  0  0  0  0  0  0  0  0  0  0  0
    7.8119  -18.1779   21.1972 C   0  0  0  0  0  0  0  0  0  0  0  0
    9.2128  -18.7855   23.0212 O   0  0  0  0  0  0  0  0  0  0  0  0
    8.9435  -19.9608   22.7023 N   0  0  0  0  0  0  0  0  0  0  0  0
   10.2656  -18.5219   23.9029 C   0  0  1  0  0  0  0  0  0  0  0  0
   11.0142  -19.4256   24.6558 C   0  0  0  0  0  0  0  0  0  0  0  0
   12.4719  -19.6295   24.3148 C   0  0  0  0  0  0  0  0  0  0  0  0
   12.7531  -19.8339   22.8943 C   0  0  0  0  0  0  0  0  0  0  0  0
   11.9271  -19.9337   21.7781 N   0  0  0  0  0  0  0  0  0  0  0  0
   12.6609  -20.1805   20.6809 C   0  0  0  0  0  0  0  0  0  0  0  0
   13.9258  -20.2363   21.0921 N   0  0  0  0  0  0  0  0  0  0  0  0
   13.9951  -20.0334   22.3969 C   0  0  0  0  0  0  0  0  0  0  0  0
   10.8655  -19.3390   26.1079 O   0  0  0  0  0  0  0  0  0  0  0  0
   10.1604  -18.3478   26.7664 O   0  0  0  0  0  0  0  0  0  0  0  0
  2  1  1  0
  3  2  2  0
  4  2  1  0
  5  4  1  0
  6  5  1  0
  7  6  1  0
  8  7  1  0
  8  9  1  6
 10  8  1  0
 10 15  1  0
 11 10  2  0
 12 13  1  0
 14 13  1  6
 14 15  1  0
 14 16  1  0
 16 18  1  0
 16 17  2  0
 18 19  1  0
 19 20  1  1
 19 26  1  0
 21 22  2  0
 21 20  1  0
 23 22  1  0
 24 25  2  0
 24 23  1  0
 25 21  1  0
 26 27  1  0
 28 26  2  0
M  END
$$$$
