RSH.pdb
     RDKit          3D

 28 28  0  0  1  0  0  0  0  0999 V2000
    7.2436  -20.3880   13.9005 N   0  0  0  0  0  0  0  0  0  0  0  0
    6.1716  -20.8238   14.7141 C   0  0  0  0  0  0  0  0  0  0  0  0
    4.9822  -20.9944   14.2133 N   0  0  0  0  0  0  0  0  0  0  0  0
    6.4237  -21.0738   16.1030 N   0  0  0  0  0  0  0  0  0  0  0  0
    7.7678  -20.8644   16.6055 C   0  0  0  0  0  0  0  0  0  0  0  0
    8.0547  -19.3858   16.5009 C   0  0  0  0  0  0  0  0  0  0  0  0
    7.9871  -18.6897   17.8447 C   0  0  0  0  0  0  0  0  0  0  0  0
    8.2513  -17.2075   17.5637 C   0  0  2  0  0  0  0  0  0  0  0  0
    9.2412  -17.1395   16.5337 N   0  0  0  0  0  0  0  0  0  0  0  0
    8.7026  -16.5906   18.8368 C   0  0  0  0  0  0  0  0  0  0  0  0
    9.9132  -16.5553   19.1719 O   0  0  0  0  0  0  0  0  0  0  0  0
    4.2414  -21.3772   14.8184 O   0  0  0  0  0  0  0  0  0  0  0  0
    5.9055  -15.3899   21.6859 C   0  0  0  0  0  0  0  0  0  0  0  0
    6.9918  -14.5480   21.4559 C   0  0  1  0  0  0  0  0  0  0  0  0
    8.1610  -15.3934   20.9825 N   0  0  0  0  0  0  0  0  0  0  0  0
    7.7693  -16.0093   19.7359 C   0  0  0  0  0  0  0  0  0  0  0  0
    8.4264  -16.5011   21.9687 O   0  0  0  0  0  0  0  0  0  0  0  0
    8.0334  -17.6494   21.6817 N   0  0  0  0  0  0  0  0  0  0  0  0
    9.0924  -16.2692   23.1761 C   0  0  1  0  0  0  0  0  0  0  0  0
   10.2124  -16.9224   23.6890 C   0  0  0  0  0  0  0  0  0  0  0  0
   11.4350  -17.0729   22.8142 C   0  0  0  0  0  0  0  0  0  0  0  0
   12.4948  -17.9137   23.3698 C   0  0  0  0  0  0  0  0  0  0  0  0
   12.4836  -18.9392   24.3112 N   0  0  0  0  0  0  0  0  0  0  0  0
   13.7343  -19.3736   24.5361 C   0  0  0  0  0  0  0  0  0  0  0  0
   14.5223  -18.6392   23.7539 N   0  0  0  0  0  0  0  0  0  0  0  0
   13.8037  -17.7730   23.0596 C   0  0  0  0  0  0  0  0  0  0  0  0
   10.6276  -16.5357   25.0367 O   0  0  0  0  0  0  0  0  0  0  0  0
   11.5390  -17.2345   25.8074 O   0  0  0  0  0  0  0  0  0  0  0  0
  2  1  1  0
  3  2  2  0
  4  2  1  0
  5  4  1  0
  6  5  1  0
  7  6  1  0
  8  7  1  0
  8  9  1  6
 10  8  1  0
 10 15  1  0
 11 10  2  0
 12 13  1  0
 14 13  1  6
 14 15  1  0
 14 16  1  0
 16 18  1  0
 16 17  2  0
 18 19  1  0
 19 20  1  1
 19 26  1  0
 21 22  2  0
 21 20  1  0
 23 22  1  0
 24 25  2  0
 24 23  1  0
 25 21  1  0
 26 27  1  0
 28 26  2  0
M  END
$$$$
