RSH.pdb
     RDKit          3D

 28 28  0  0  1  0  0  0  0  0999 V2000
    9.7590  -23.5760   11.1391 N   0  0  0  0  0  0  0  0  0  0  0  0
    8.4863  -23.5663   11.7565 C   0  0  0  0  0  0  0  0  0  0  0  0
    7.4343  -23.9945   11.1205 N   0  0  0  0  0  0  0  0  0  0  0  0
    8.3801  -23.0741   13.0988 N   0  0  0  0  0  0  0  0  0  0  0  0
    9.5861  -22.6118   13.7581 C   0  0  0  0  0  0  0  0  0  0  0  0
    9.1873  -22.1519   15.1398 C   0  0  0  0  0  0  0  0  0  0  0  0
    9.2846  -20.6483   15.2965 C   0  0  0  0  0  0  0  0  0  0  0  0
   10.2108  -20.4097   16.4928 C   0  0  2  0  0  0  0  0  0  0  0  0
   10.3306  -21.6513   17.1925 N   0  0  0  0  0  0  0  0  0  0  0  0
    9.5967  -19.3403   17.3200 C   0  0  0  0  0  0  0  0  0  0  0  0
    9.5058  -18.1527   16.9197 O   0  0  0  0  0  0  0  0  0  0  0  0
    6.5427  -24.0660   11.6318 O   0  0  0  0  0  0  0  0  0  0  0  0
    7.8874  -20.3097   20.9792 C   0  0  0  0  0  0  0  0  0  0  0  0
    7.4039  -19.2177   20.2613 C   0  0  1  0  0  0  0  0  0  0  0  0
    8.5581  -18.6027   19.4898 N   0  0  0  0  0  0  0  0  0  0  0  0
    9.0820  -19.6242   18.6129 C   0  0  0  0  0  0  0  0  0  0  0  0
    9.6616  -18.2144   20.4393 O   0  0  0  0  0  0  0  0  0  0  0  0
   10.2523  -19.1232   21.0562 N   0  0  0  0  0  0  0  0  0  0  0  0
   10.0281  -16.8797   20.6372 C   0  0  2  0  0  0  0  0  0  0  0  0
   10.0203  -16.1438   21.8215 C   0  0  0  0  0  0  0  0  0  0  0  0
    8.8072  -15.3065   22.1536 C   0  0  0  0  0  0  0  0  0  0  0  0
    8.4405  -14.3179   21.1401 C   0  0  0  0  0  0  0  0  0  0  0  0
    9.0782  -13.8774   19.9837 N   0  0  0  0  0  0  0  0  0  0  0  0
    8.3617  -12.9004   19.4046 C   0  0  0  0  0  0  0  0  0  0  0  0
    7.2919  -12.7246   20.1773 N   0  0  0  0  0  0  0  0  0  0  0  0
    7.3255  -13.5551   21.2058 C   0  0  0  0  0  0  0  0  0  0  0  0
   10.4661  -16.8462   23.0240 O   0  0  0  0  0  0  0  0  0  0  0  0
   10.5714  -18.2207   23.1358 O   0  0  0  0  0  0  0  0  0  0  0  0
  2  1  1  0
  3  2  2  0
  4  2  1  0
  5  4  1  0
  6  5  1  0
  7  6  1  0
  8  7  1  0
  8  9  1  1
 10  8  1  0
 10 15  1  0
 11 10  2  0
 12 13  1  0
 14 13  1  6
 14 15  1  0
 14 16  1  0
 16 18  1  0
 16 17  2  0
 18 19  1  0
 19 20  1  6
 19 26  1  0
 21 22  2  0
 21 20  1  0
 23 22  1  0
 24 25  2  0
 24 23  1  0
 25 21  1  0
 26 27  1  0
 28 26  2  0
M  END
$$$$
