RSH.pdb
     RDKit          3D

 28 28  0  0  1  0  0  0  0  0999 V2000
    9.8693  -22.6374   17.7438 N   0  0  0  0  0  0  0  0  0  0  0  0
   11.2482  -22.7209   18.0483 C   0  0  0  0  0  0  0  0  0  0  0  0
   12.0427  -23.4692   17.3388 N   0  0  0  0  0  0  0  0  0  0  0  0
   11.7520  -21.9631   19.1561 N   0  0  0  0  0  0  0  0  0  0  0  0
   10.8100  -21.1975   19.9494 C   0  0  0  0  0  0  0  0  0  0  0  0
   10.7429  -19.8152   19.3458 C   0  0  0  0  0  0  0  0  0  0  0  0
    9.7687  -18.9145   20.0768 C   0  0  0  0  0  0  0  0  0  0  0  0
    9.6729  -17.6340   19.2419 C   0  0  2  0  0  0  0  0  0  0  0  0
   10.8924  -17.5147   18.5043 N   0  0  0  0  0  0  0  0  0  0  0  0
    9.4585  -16.5073   20.1850 C   0  0  0  0  0  0  0  0  0  0  0  0
   10.2846  -15.5681   20.3055 O   0  0  0  0  0  0  0  0  0  0  0  0
   13.0549  -23.4332   17.5275 O   0  0  0  0  0  0  0  0  0  0  0  0
    5.9769  -16.4809   22.2192 C   0  0  0  0  0  0  0  0  0  0  0  0
    6.5400  -15.2178   22.0482 C   0  0  1  0  0  0  0  0  0  0  0  0
    8.0458  -15.3764   21.9331 N   0  0  0  0  0  0  0  0  0  0  0  0
    8.2951  -16.4484   20.9975 C   0  0  0  0  0  0  0  0  0  0  0  0
    8.6211  -15.7946   23.2613 O   0  0  0  0  0  0  0  0  0  0  0  0
    9.2266  -16.8832   23.3224 N   0  0  0  0  0  0  0  0  0  0  0  0
    8.4909  -14.9996   24.4042 C   0  0  2  0  0  0  0  0  0  0  0  0
    8.8077  -15.3184   25.7241 C   0  0  0  0  0  0  0  0  0  0  0  0
    8.0175  -14.6766   26.8406 C   0  0  0  0  0  0  0  0  0  0  0  0
    7.4526  -13.3650   26.5252 C   0  0  0  0  0  0  0  0  0  0  0  0
    8.0193  -12.1911   26.0366 N   0  0  0  0  0  0  0  0  0  0  0  0
    7.0900  -11.2243   25.9651 C   0  0  0  0  0  0  0  0  0  0  0  0
    5.9575  -11.7732   26.3993 N   0  0  0  0  0  0  0  0  0  0  0  0
    6.1570  -13.0370   26.7334 C   0  0  0  0  0  0  0  0  0  0  0  0
    8.9970  -16.7377   26.0206 O   0  0  0  0  0  0  0  0  0  0  0  0
    9.4505  -17.2327   27.2298 O   0  0  0  0  0  0  0  0  0  0  0  0
  2  1  1  0
  3  2  2  0
  4  2  1  0
  5  4  1  0
  6  5  1  0
  7  6  1  0
  8  7  1  0
  8  9  1  1
 10  8  1  0
 10 15  1  0
 11 10  2  0
 12 13  1  0
 14 13  1  6
 14 15  1  0
 14 16  1  0
 16 18  1  0
 16 17  2  0
 18 19  1  0
 19 20  1  6
 19 26  1  0
 21 22  2  0
 21 20  1  0
 23 22  1  0
 24 25  2  0
 24 23  1  0
 25 21  1  0
 26 27  1  0
 28 26  2  0
M  END
$$$$
