KPL.pdb
     RDKit          3D

 25 25  0  0  1  0  0  0  0  0999 V2000
   11.0508  -17.5498   18.9893 N   0  0  0  0  0  0  0  0  0  0  0  0
    9.7638  -17.4382   19.6739 C   0  0  1  0  0  0  0  0  0  0  0  0
    9.3886  -18.7975   20.1548 C   0  0  0  0  0  0  0  0  0  0  0  0
   10.3047  -19.4737   21.0984 C   0  0  0  0  0  0  0  0  0  0  0  0
    9.9254  -20.8676   21.4958 C   0  0  0  0  0  0  0  0  0  0  0  0
   11.0330  -21.4374   22.3932 C   0  0  0  0  0  0  0  0  0  0  0  0
   10.5069  -22.6499   22.9894 N   0  0  0  0  0  0  0  0  0  0  0  0
    9.8583  -16.4256   20.7488 C   0  0  0  0  0  0  0  0  0  0  0  0
   11.0411  -16.1079   21.1113 O   0  0  0  0  0  0  0  0  0  0  0  0
    8.7195  -15.8457   21.3346 N   0  0  0  0  0  0  0  0  0  0  0  0
    7.3622  -16.1687   20.8706 C   0  0  0  0  0  0  0  0  0  0  0  0
    6.6548  -14.8487   20.9562 C   0  0  0  0  0  0  0  0  0  0  0  0
    7.1865  -14.3033   22.2690 C   0  0  0  0  0  0  0  0  0  0  0  0
    8.5638  -14.9090   22.4011 C   0  0  1  0  0  0  0  0  0  0  0  0
    8.7882  -15.5077   23.7385 C   0  0  0  0  0  0  0  0  0  0  0  0
    8.6065  -16.7449   23.8735 O   0  0  0  0  0  0  0  0  0  0  0  0
   10.9050  -13.4603   29.1597 C   0  0  0  0  0  0  0  0  0  0  0  0
   10.5362  -14.7858   28.4415 C   0  0  1  0  0  0  0  0  0  0  0  0
    9.5038  -15.4083   29.3512 C   0  0  0  0  0  0  0  0  0  0  0  0
   10.0604  -14.4105   27.0911 C   0  0  0  0  0  0  0  0  0  0  0  0
    9.5551  -15.4390   26.1643 C   0  0  2  0  0  0  0  0  0  0  0  0
    9.1943  -14.7673   24.8686 N   0  0  0  0  0  0  0  0  0  0  0  0
    8.4596  -16.2866   26.5529 C   0  0  0  0  0  0  0  0  0  0  0  0
    7.1414  -16.0157   26.3358 O   0  0  0  0  0  0  0  0  0  0  0  0
    8.7076  -17.3921   27.1603 O   0  0  0  0  0  0  0  0  0  0  0  0
  2  1  1  1
  2  8  1  0
  2  3  1  0
  3  4  1  0
  4  5  1  0
  5  6  1  0
  6  7  1  0
  8 10  1  0
  9  8  2  0
 10 14  1  0
 10 11  1  0
 12 11  1  0
 13 12  1  0
 13 14  1  0
 14 15  1  1
 15 22  1  0
 15 16  2  0
 18 17  1  1
 18 20  1  0
 19 18  1  0
 21 23  1  0
 21 20  1  1
 22 21  1  0
 23 24  1  0
 25 23  2  0
M  END
$$$$
