KPL.pdb
     RDKit          3D

 25 25  0  0  1  0  0  0  0  0999 V2000
   10.7090  -17.4843   18.9606 N   0  0  0  0  0  0  0  0  0  0  0  0
    9.4813  -17.3474   19.7426 C   0  0  1  0  0  0  0  0  0  0  0  0
    9.0242  -18.7172   20.1093 C   0  0  0  0  0  0  0  0  0  0  0  0
   10.0069  -19.8190   20.0253 C   0  0  0  0  0  0  0  0  0  0  0  0
   10.1771  -20.6420   21.2657 C   0  0  0  0  0  0  0  0  0  0  0  0
   11.1834  -21.7637   20.9724 C   0  0  0  0  0  0  0  0  0  0  0  0
   11.4922  -22.3921   22.2422 N   0  0  0  0  0  0  0  0  0  0  0  0
    9.7277  -16.4652   20.9048 C   0  0  0  0  0  0  0  0  0  0  0  0
   10.9517  -16.1922   21.1465 O   0  0  0  0  0  0  0  0  0  0  0  0
    8.6819  -15.9555   21.6940 N   0  0  0  0  0  0  0  0  0  0  0  0
    7.2720  -16.2307   21.3803 C   0  0  0  0  0  0  0  0  0  0  0  0
    6.5967  -14.9298   21.6995 C   0  0  0  0  0  0  0  0  0  0  0  0
    7.3017  -14.5280   22.9821 C   0  0  0  0  0  0  0  0  0  0  0  0
    8.6775  -15.1400   22.8662 C   0  0  1  0  0  0  0  0  0  0  0  0
    9.0684  -15.8791   24.0904 C   0  0  0  0  0  0  0  0  0  0  0  0
    8.9042  -17.1260   24.1093 O   0  0  0  0  0  0  0  0  0  0  0  0
   10.2755  -14.7506   29.6001 C   0  0  0  0  0  0  0  0  0  0  0  0
   10.0806  -14.2425   28.1466 C   0  0  1  0  0  0  0  0  0  0  0  0
   10.5349  -12.8035   28.2086 C   0  0  0  0  0  0  0  0  0  0  0  0
   10.8853  -15.1339   27.2814 C   0  0  0  0  0  0  0  0  0  0  0  0
   10.2256  -16.0657   26.3494 C   0  0  2  0  0  0  0  0  0  0  0  0
    9.6145  -15.2621   25.2356 N   0  0  0  0  0  0  0  0  0  0  0  0
    9.2361  -16.9915   26.8327 C   0  0  0  0  0  0  0  0  0  0  0  0
    9.5011  -18.1256   27.5410 O   0  0  0  0  0  0  0  0  0  0  0  0
    7.9943  -16.7647   26.5899 O   0  0  0  0  0  0  0  0  0  0  0  0
  2  1  1  1
  2  8  1  0
  2  3  1  0
  3  4  1  0
  4  5  1  0
  5  6  1  0
  6  7  1  0
  8 10  1  0
  9  8  2  0
 10 14  1  0
 10 11  1  0
 12 11  1  0
 13 12  1  0
 13 14  1  0
 14 15  1  1
 15 22  1  0
 15 16  2  0
 18 17  1  1
 18 20  1  0
 19 18  1  0
 21 23  1  0
 21 20  1  1
 22 21  1  0
 23 24  1  0
 25 23  2  0
M  END
$$$$
