KPL.pdb
     RDKit          3D

 25 25  0  0  1  0  0  0  0  0999 V2000
   11.1163  -17.3502   19.0028 N   0  0  0  0  0  0  0  0  0  0  0  0
    9.7969  -17.3129   19.6315 C   0  0  1  0  0  0  0  0  0  0  0  0
    9.4521  -18.7032   20.0410 C   0  0  0  0  0  0  0  0  0  0  0  0
   10.4329  -19.4447   20.8626 C   0  0  0  0  0  0  0  0  0  0  0  0
   10.0494  -20.8434   21.2386 C   0  0  0  0  0  0  0  0  0  0  0  0
   11.2176  -21.4803   22.0044 C   0  0  0  0  0  0  0  0  0  0  0  0
   10.7762  -22.7964   22.4234 N   0  0  0  0  0  0  0  0  0  0  0  0
    9.8056  -16.3424   20.7486 C   0  0  0  0  0  0  0  0  0  0  0  0
   10.9585  -15.9899   21.1703 O   0  0  0  0  0  0  0  0  0  0  0  0
    8.6208  -15.8361   21.3109 N   0  0  0  0  0  0  0  0  0  0  0  0
    7.2962  -16.2690   20.8422 C   0  0  0  0  0  0  0  0  0  0  0  0
    6.4921  -15.0036   20.8917 C   0  0  0  0  0  0  0  0  0  0  0  0
    6.9680  -14.3918   22.1966 C   0  0  0  0  0  0  0  0  0  0  0  0
    8.3849  -14.8905   22.3546 C   0  0  1  0  0  0  0  0  0  0  0  0
    8.6388  -15.4416   23.7072 C   0  0  0  0  0  0  0  0  0  0  0  0
    8.5867  -16.6890   23.8596 O   0  0  0  0  0  0  0  0  0  0  0  0
   11.3840  -15.0557   28.5134 C   0  0  0  0  0  0  0  0  0  0  0  0
    9.9469  -14.4694   28.5092 C   0  0  1  0  0  0  0  0  0  0  0  0
   10.0479  -13.2729   29.4252 C   0  0  0  0  0  0  0  0  0  0  0  0
    9.6216  -14.1717   27.0964 C   0  0  0  0  0  0  0  0  0  0  0  0
    9.2368  -15.2548   26.1739 C   0  0  2  0  0  0  0  0  0  0  0  0
    8.9358  -14.6452   24.8331 N   0  0  0  0  0  0  0  0  0  0  0  0
    8.1608  -16.1466   26.5153 C   0  0  0  0  0  0  0  0  0  0  0  0
    8.3067  -17.3544   27.1301 O   0  0  0  0  0  0  0  0  0  0  0  0
    6.9538  -15.8116   26.2264 O   0  0  0  0  0  0  0  0  0  0  0  0
  2  1  1  1
  2  8  1  0
  2  3  1  0
  3  4  1  0
  4  5  1  0
  5  6  1  0
  6  7  1  0
  8 10  1  0
  9  8  2  0
 10 14  1  0
 10 11  1  0
 12 11  1  0
 13 12  1  0
 13 14  1  0
 14 15  1  1
 15 22  1  0
 15 16  2  0
 18 17  1  6
 18 20  1  0
 19 18  1  0
 21 23  1  0
 21 20  1  1
 22 21  1  0
 23 24  1  0
 25 23  2  0
M  END
$$$$
