KPL.pdb
     RDKit          3D

 25 25  0  0  1  0  0  0  0  0999 V2000
   11.9022  -17.0363   19.6383 N   0  0  0  0  0  0  0  0  0  0  0  0
   10.4904  -17.2648   19.9416 C   0  0  1  0  0  0  0  0  0  0  0  0
   10.3639  -18.6433   20.4924 C   0  0  0  0  0  0  0  0  0  0  0  0
   11.0857  -18.9557   21.7447 C   0  0  0  0  0  0  0  0  0  0  0  0
   10.9072  -20.3454   22.2755 C   0  0  0  0  0  0  0  0  0  0  0  0
   11.7685  -20.5000   23.5369 C   0  0  0  0  0  0  0  0  0  0  0  0
   11.4759  -21.8098   24.0860 N   0  0  0  0  0  0  0  0  0  0  0  0
    9.9998  -16.2067   20.8524 C   0  0  0  0  0  0  0  0  0  0  0  0
   10.8995  -15.5440   21.4710 O   0  0  0  0  0  0  0  0  0  0  0  0
    8.6299  -15.9430   21.0260 N   0  0  0  0  0  0  0  0  0  0  0  0
    7.6000  -16.6818   20.2809 C   0  0  0  0  0  0  0  0  0  0  0  0
    6.5816  -15.6235   19.9759 C   0  0  0  0  0  0  0  0  0  0  0  0
    6.5457  -14.8509   21.2818 C   0  0  0  0  0  0  0  0  0  0  0  0
    7.9318  -15.0162   21.8584 C   0  0  1  0  0  0  0  0  0  0  0  0
    7.9023  -15.4224   23.2838 C   0  0  0  0  0  0  0  0  0  0  0  0
    8.2725  -16.5882   23.5770 O   0  0  0  0  0  0  0  0  0  0  0  0
    5.6868  -11.8528   26.6920 C   0  0  0  0  0  0  0  0  0  0  0  0
    6.9788  -12.5497   26.1880 C   0  0  1  0  0  0  0  0  0  0  0  0
    8.0871  -11.7692   26.8537 C   0  0  0  0  0  0  0  0  0  0  0  0
    6.8671  -13.9718   26.5829 C   0  0  0  0  0  0  0  0  0  0  0  0
    7.4917  -15.0260   25.7640 C   0  0  2  0  0  0  0  0  0  0  0  0
    7.4826  -14.5744   24.3302 N   0  0  0  0  0  0  0  0  0  0  0  0
    6.9900  -16.3734   25.8154 C   0  0  0  0  0  0  0  0  0  0  0  0
    7.2971  -17.2899   26.7766 O   0  0  0  0  0  0  0  0  0  0  0  0
    6.1912  -16.7801   24.8940 O   0  0  0  0  0  0  0  0  0  0  0  0
  2  1  1  1
  2  8  1  0
  2  3  1  0
  3  4  1  0
  4  5  1  0
  5  6  1  0
  6  7  1  0
  8 10  1  0
  9  8  2  0
 10 14  1  0
 10 11  1  0
 12 11  1  0
 13 12  1  0
 13 14  1  0
 14 15  1  1
 15 22  1  0
 15 16  2  0
 18 17  1  1
 18 20  1  0
 19 18  1  0
 21 23  1  0
 21 20  1  1
 22 21  1  0
 23 24  1  0
 25 23  2  0
M  END
$$$$
