KPL.pdb
     RDKit          3D

 25 25  0  0  1  0  0  0  0  0999 V2000
   10.0067  -18.3896   20.3757 N   0  0  0  0  0  0  0  0  0  0  0  0
    8.9185  -17.4151   20.4331 C   0  0  1  0  0  0  0  0  0  0  0  0
    7.6584  -18.1606   20.7089 C   0  0  0  0  0  0  0  0  0  0  0  0
    7.7470  -19.3867   21.5310 C   0  0  0  0  0  0  0  0  0  0  0  0
    6.7452  -19.5076   22.6385 C   0  0  0  0  0  0  0  0  0  0  0  0
    6.8332  -20.9243   23.2232 C   0  0  0  0  0  0  0  0  0  0  0  0
    7.4903  -20.8063   24.5104 N   0  0  0  0  0  0  0  0  0  0  0  0
    9.2339  -16.3760   21.4384 C   0  0  0  0  0  0  0  0  0  0  0  0
   10.2061  -16.6387   22.2239 O   0  0  0  0  0  0  0  0  0  0  0  0
    8.5121  -15.1726   21.5244 N   0  0  0  0  0  0  0  0  0  0  0  0
    7.5351  -14.7822   20.4974 C   0  0  0  0  0  0  0  0  0  0  0  0
    7.7439  -13.3014   20.3806 C   0  0  0  0  0  0  0  0  0  0  0  0
    7.9167  -12.9030   21.8349 C   0  0  0  0  0  0  0  0  0  0  0  0
    8.5108  -14.1249   22.4946 C   0  0  1  0  0  0  0  0  0  0  0  0
    7.8008  -14.4898   23.7438 C   0  0  0  0  0  0  0  0  0  0  0  0
    6.7994  -15.2461   23.6586 O   0  0  0  0  0  0  0  0  0  0  0  0
   10.3378  -14.5138   26.5896 C   0  0  0  0  0  0  0  0  0  0  0  0
    9.3011  -14.8647   27.6900 C   0  0  1  0  0  0  0  0  0  0  0  0
   10.0408  -14.5880   28.9773 C   0  0  0  0  0  0  0  0  0  0  0  0
    8.1167  -14.0149   27.4338 C   0  0  0  0  0  0  0  0  0  0  0  0
    7.2996  -14.2168   26.2240 C   0  0  2  0  0  0  0  0  0  0  0  0
    8.1856  -14.0364   25.0231 N   0  0  0  0  0  0  0  0  0  0  0  0
    6.1037  -13.4430   26.0222 C   0  0  0  0  0  0  0  0  0  0  0  0
    4.8961  -13.6977   26.6010 O   0  0  0  0  0  0  0  0  0  0  0  0
    6.1400  -12.4273   25.2350 O   0  0  0  0  0  0  0  0  0  0  0  0
  2  1  1  1
  2  8  1  0
  2  3  1  0
  3  4  1  0
  4  5  1  0
  5  6  1  0
  6  7  1  0
  8 10  1  0
  9  8  2  0
 10 14  1  0
 10 11  1  0
 12 11  1  0
 13 12  1  0
 13 14  1  0
 14 15  1  1
 15 22  1  0
 15 16  2  0
 18 17  1  6
 18 20  1  0
 19 18  1  0
 21 23  1  0
 21 20  1  1
 22 21  1  0
 23 24  1  0
 25 23  2  0
M  END
$$$$
