QYA.pdb
     RDKit          3D

 27 27  0  0  1  0  0  0  0  0999 V2000
   27.7329  -19.7833  -18.1968 N   0  0  0  0  0  0  0  0  0  0  0  0
   28.0668  -20.5700  -19.3464 C   0  0  0  0  0  0  0  0  0  0  0  0
   28.8471  -20.0535  -20.1628 O   0  0  0  0  0  0  0  0  0  0  0  0
   27.4694  -21.9109  -19.4710 C   0  0  0  0  0  0  0  0  0  0  0  0
   26.6247  -22.3104  -18.2887 C   0  0  0  0  0  0  0  0  0  0  0  0
   27.4022  -22.5352  -17.0275 C   0  0  2  0  0  0  0  0  0  0  0  0
   28.1472  -23.7705  -17.1703 N   0  0  0  0  0  0  0  0  0  0  0  0
   26.4741  -22.5733  -15.8745 C   0  0  0  0  0  0  0  0  0  0  0  0
   25.9054  -23.6703  -15.6369 O   0  0  0  0  0  0  0  0  0  0  0  0
   22.8587  -20.6641   -8.0401 O   0  0  0  0  0  0  0  0  0  0  0  0
   23.5158  -20.5898   -9.2607 C   0  0  0  0  0  0  0  0  0  0  0  0
   24.7982  -21.0514   -9.3644 C   0  0  0  0  0  0  0  0  0  0  0  0
   25.4575  -20.9843  -10.5615 C   0  0  0  0  0  0  0  0  0  0  0  0
   24.8699  -20.4577  -11.6980 C   0  0  0  0  0  0  0  0  0  0  0  0
   25.6504  -20.4258  -12.9365 C   0  0  0  0  0  0  0  0  0  0  0  0
   25.2897  -21.5362  -13.9027 C   0  0  2  0  0  0  0  0  0  0  0  0
   26.1872  -21.4825  -15.0367 N   0  0  0  0  0  0  0  0  0  0  0  0
   23.9152  -21.2671  -14.3816 C   0  0  0  0  0  0  0  0  0  0  0  0
   23.7064  -20.2557  -15.0718 O   0  0  0  0  0  0  0  0  0  0  0  0
   23.5775  -19.9901  -11.6030 C   0  0  0  0  0  0  0  0  0  0  0  0
   22.9254  -20.0614  -10.4003 C   0  0  0  0  0  0  0  0  0  0  0  0
   20.8721  -23.2824  -14.9461 C   0  0  0  0  0  0  0  0  0  0  0  0
   21.5159  -21.9810  -14.5241 C   0  0  2  0  0  0  0  0  0  0  0  0
   22.8575  -22.1471  -14.0582 N   0  0  0  0  0  0  0  0  0  0  0  0
   20.6482  -21.3999  -13.4682 C   0  0  0  0  0  0  0  0  0  0  0  0
   20.9593  -21.4701  -12.1209 O   0  0  0  0  0  0  0  0  0  0  0  0
   19.5911  -20.8238  -13.8301 O   0  0  0  0  0  0  0  0  0  0  0  0
  1  2  1  0
  2  3  2  0
  4  2  1  0
  5  4  1  0
  6  5  1  0
  6  7  1  6
  8  9  2  0
  8  6  1  0
 10 11  1  0
 11 12  2  0
 12 13  1  0
 14 15  1  0
 14 13  2  0
 16 15  1  1
 16 17  1  0
 17  8  1  0
 18 16  1  0
 18 24  1  0
 19 18  2  0
 20 14  1  0
 21 20  2  0
 21 11  1  0
 23 25  1  0
 23 24  1  0
 23 22  1  1
 25 26  1  0
 27 25  2  0
M  END
$$$$
