QYA.pdb
     RDKit          3D

 27 27  0  0  1  0  0  0  0  0999 V2000
   17.7946   -9.9827  -24.2043 N   0  0  0  0  0  0  0  0  0  0  0  0
   19.1606  -10.3350  -23.9557 C   0  0  0  0  0  0  0  0  0  0  0  0
   19.9689  -10.0948  -24.8673 O   0  0  0  0  0  0  0  0  0  0  0  0
   19.4980  -10.9454  -22.6579 C   0  0  0  0  0  0  0  0  0  0  0  0
   18.3087  -11.1437  -21.7538 C   0  0  0  0  0  0  0  0  0  0  0  0
   18.6428  -11.7511  -20.4253 C   0  0  2  0  0  0  0  0  0  0  0  0
   18.3825  -13.1751  -20.5014 N   0  0  0  0  0  0  0  0  0  0  0  0
   17.8442  -11.0935  -19.3660 C   0  0  0  0  0  0  0  0  0  0  0  0
   16.6060  -11.3169  -19.3646 O   0  0  0  0  0  0  0  0  0  0  0  0
   15.6126  -15.3042  -15.3093 O   0  0  0  0  0  0  0  0  0  0  0  0
   16.1339  -14.0279  -15.4721 C   0  0  0  0  0  0  0  0  0  0  0  0
   17.4194  -13.8765  -15.9113 C   0  0  0  0  0  0  0  0  0  0  0  0
   17.9457  -12.6242  -16.0762 C   0  0  0  0  0  0  0  0  0  0  0  0
   17.2175  -11.4780  -15.8118 C   0  0  0  0  0  0  0  0  0  0  0  0
   17.8615  -10.1790  -16.0165 C   0  0  0  0  0  0  0  0  0  0  0  0
   17.5691   -9.5705  -17.3733 C   0  0  2  0  0  0  0  0  0  0  0  0
   18.3665  -10.2472  -18.3735 N   0  0  0  0  0  0  0  0  0  0  0  0
   17.9950   -8.1541  -17.3161 C   0  0  0  0  0  0  0  0  0  0  0  0
   19.1938   -7.8793  -17.4905 O   0  0  0  0  0  0  0  0  0  0  0  0
   15.9208  -11.6209  -15.3687 C   0  0  0  0  0  0  0  0  0  0  0  0
   15.4024  -12.8786  -15.2067 C   0  0  0  0  0  0  0  0  0  0  0  0
   16.1599   -4.8508  -16.9128 C   0  0  0  0  0  0  0  0  0  0  0  0
   17.3752   -5.7379  -17.0615 C   0  0  2  0  0  0  0  0  0  0  0  0
   17.0523   -7.1310  -17.0666 N   0  0  0  0  0  0  0  0  0  0  0  0
   18.2873   -5.4018  -15.9387 C   0  0  0  0  0  0  0  0  0  0  0  0
   19.0681   -4.2585  -15.9250 O   0  0  0  0  0  0  0  0  0  0  0  0
   18.3405   -6.1993  -14.9684 O   0  0  0  0  0  0  0  0  0  0  0  0
  1  2  1  0
  2  3  2  0
  4  2  1  0
  5  4  1  0
  6  5  1  0
  6  7  1  6
  8  9  2  0
  8  6  1  0
 10 11  1  0
 11 12  2  0
 12 13  1  0
 14 15  1  0
 14 13  2  0
 16 15  1  1
 16 17  1  0
 17  8  1  0
 18 16  1  0
 18 24  1  0
 19 18  2  0
 20 14  1  0
 21 20  2  0
 21 11  1  0
 23 25  1  0
 23 24  1  0
 23 22  1  1
 25 26  1  0
 27 25  2  0
M  END
$$$$
