QYA.pdb
     RDKit          3D

 27 27  0  0  1  0  0  0  0  0999 V2000
   18.3886  -20.6022  -14.4296 N   0  0  0  0  0  0  0  0  0  0  0  0
   19.1882  -19.4177  -14.3318 C   0  0  0  0  0  0  0  0  0  0  0  0
   18.6104  -18.3403  -14.5497 O   0  0  0  0  0  0  0  0  0  0  0  0
   20.6125  -19.5648  -13.9849 C   0  0  0  0  0  0  0  0  0  0  0  0
   21.0440  -20.9954  -13.7891 C   0  0  0  0  0  0  0  0  0  0  0  0
   21.6062  -21.2860  -12.4308 C   0  0  2  0  0  0  0  0  0  0  0  0
   20.6638  -20.8054  -11.4397 N   0  0  0  0  0  0  0  0  0  0  0  0
   22.9333  -20.6434  -12.2969 C   0  0  0  0  0  0  0  0  0  0  0  0
   22.9468  -19.4197  -12.0044 O   0  0  0  0  0  0  0  0  0  0  0  0
   27.5899  -19.5019   -6.4453 O   0  0  0  0  0  0  0  0  0  0  0  0
   27.3272  -20.0110   -7.7097 C   0  0  0  0  0  0  0  0  0  0  0  0
   26.0398  -20.3043   -8.0635 C   0  0  0  0  0  0  0  0  0  0  0  0
   25.7669  -20.8066   -9.3067 C   0  0  0  0  0  0  0  0  0  0  0  0
   26.7591  -21.0362  -10.2431 C   0  0  0  0  0  0  0  0  0  0  0  0
   26.3751  -21.5760  -11.5489 C   0  0  0  0  0  0  0  0  0  0  0  0
   25.4562  -20.6594  -12.3313 C   0  0  2  0  0  0  0  0  0  0  0  0
   24.1647  -21.2971  -12.4718 N   0  0  0  0  0  0  0  0  0  0  0  0
   26.0466  -20.4980  -13.6790 C   0  0  0  0  0  0  0  0  0  0  0  0
   25.8172  -21.3606  -14.5430 O   0  0  0  0  0  0  0  0  0  0  0  0
   28.0596  -20.7436   -9.8953 C   0  0  0  0  0  0  0  0  0  0  0  0
   28.3234  -20.2410   -8.6484 C   0  0  0  0  0  0  0  0  0  0  0  0
   28.2078  -17.8387  -15.3273 C   0  0  0  0  0  0  0  0  0  0  0  0
   27.3886  -19.1086  -15.2774 C   0  0  2  0  0  0  0  0  0  0  0  0
   26.8586  -19.3804  -13.9774 N   0  0  0  0  0  0  0  0  0  0  0  0
   28.2773  -20.2065  -15.7359 C   0  0  0  0  0  0  0  0  0  0  0  0
   28.6296  -20.3797  -17.0636 O   0  0  0  0  0  0  0  0  0  0  0  0
   28.7193  -21.0030  -14.8694 O   0  0  0  0  0  0  0  0  0  0  0  0
  1  2  1  0
  2  3  2  0
  4  2  1  0
  5  4  1  0
  6  5  1  0
  6  7  1  1
  8  9  2  0
  8  6  1  0
 10 11  1  0
 11 12  2  0
 12 13  1  0
 14 15  1  0
 14 13  2  0
 16 15  1  1
 16 17  1  0
 17  8  1  0
 18 16  1  0
 18 24  1  0
 19 18  2  0
 20 14  1  0
 21 20  2  0
 21 11  1  0
 23 25  1  0
 23 24  1  0
 23 22  1  1
 25 26  1  0
 27 25  2  0
M  END
$$$$
