QYA.pdb
     RDKit          3D

 27 27  0  0  1  0  0  0  0  0999 V2000
   27.1234   -9.8699  -20.7885 N   0  0  0  0  0  0  0  0  0  0  0  0
   26.0326  -10.0811  -21.6926 C   0  0  0  0  0  0  0  0  0  0  0  0
   26.3299  -10.2784  -22.8821 O   0  0  0  0  0  0  0  0  0  0  0  0
   24.6626  -10.0494  -21.1516 C   0  0  0  0  0  0  0  0  0  0  0  0
   24.6017   -9.7735  -19.6713 C   0  0  0  0  0  0  0  0  0  0  0  0
   24.0146  -10.8904  -18.8630 C   0  0  2  0  0  0  0  0  0  0  0  0
   23.5086  -11.8934  -19.7791 N   0  0  0  0  0  0  0  0  0  0  0  0
   22.9539  -10.3564  -17.9787 C   0  0  0  0  0  0  0  0  0  0  0  0
   21.7652  -10.4935  -18.3677 O   0  0  0  0  0  0  0  0  0  0  0  0
   21.0884  -15.5514  -15.1173 O   0  0  0  0  0  0  0  0  0  0  0  0
   21.4179  -14.2107  -14.9721 C   0  0  0  0  0  0  0  0  0  0  0  0
   20.4287  -13.2676  -14.9975 C   0  0  0  0  0  0  0  0  0  0  0  0
   20.7396  -11.9426  -14.8556 C   0  0  0  0  0  0  0  0  0  0  0  0
   22.0407  -11.5050  -14.6835 C   0  0  0  0  0  0  0  0  0  0  0  0
   22.2806  -10.0677  -14.5397 C   0  0  0  0  0  0  0  0  0  0  0  0
   22.1334   -9.3012  -15.8387 C   0  0  2  0  0  0  0  0  0  0  0  0
   23.1794   -9.7144  -16.7494 N   0  0  0  0  0  0  0  0  0  0  0  0
   22.3280   -7.8682  -15.5230 C   0  0  0  0  0  0  0  0  0  0  0  0
   23.4833   -7.4377  -15.3708 O   0  0  0  0  0  0  0  0  0  0  0  0
   23.0443  -12.4485  -14.6566 C   0  0  0  0  0  0  0  0  0  0  0  0
   22.7236  -13.7728  -14.7995 C   0  0  0  0  0  0  0  0  0  0  0  0
   19.9917   -4.8912  -15.1636 C   0  0  0  0  0  0  0  0  0  0  0  0
   21.3271   -5.6001  -15.1484 C   0  0  2  0  0  0  0  0  0  0  0  0
   21.2169   -7.0040  -15.3965 N   0  0  0  0  0  0  0  0  0  0  0  0
   21.9343   -5.3352  -13.8192 C   0  0  0  0  0  0  0  0  0  0  0  0
   22.4820   -4.1106  -13.4769 O   0  0  0  0  0  0  0  0  0  0  0  0
   21.9430   -6.2729  -12.9819 O   0  0  0  0  0  0  0  0  0  0  0  0
  1  2  1  0
  2  3  2  0
  4  2  1  0
  5  4  1  0
  6  5  1  0
  6  7  1  6
  8  9  2  0
  8  6  1  0
 10 11  1  0
 11 12  2  0
 12 13  1  0
 14 15  1  0
 14 13  2  0
 16 15  1  1
 16 17  1  0
 17  8  1  0
 18 16  1  0
 18 24  1  0
 19 18  2  0
 20 14  1  0
 21 20  2  0
 21 11  1  0
 23 25  1  0
 23 24  1  0
 23 22  1  1
 25 26  1  0
 27 25  2  0
M  END
$$$$
