QYA.pdb
     RDKit          3D

 27 27  0  0  1  0  0  0  0  0999 V2000
   27.4433  -38.2057  -12.9548 N   0  0  0  0  0  0  0  0  0  0  0  0
   26.6647  -37.7096  -14.0500 C   0  0  0  0  0  0  0  0  0  0  0  0
   25.4477  -37.9551  -14.0200 O   0  0  0  0  0  0  0  0  0  0  0  0
   27.3553  -36.9572  -15.1119 C   0  0  0  0  0  0  0  0  0  0  0  0
   27.2061  -35.4625  -14.9909 C   0  0  0  0  0  0  0  0  0  0  0  0
   25.8657  -34.9436  -15.4149 C   0  0  2  0  0  0  0  0  0  0  0  0
   26.0075  -34.3463  -16.7281 N   0  0  0  0  0  0  0  0  0  0  0  0
   25.3707  -33.9742  -14.4113 C   0  0  0  0  0  0  0  0  0  0  0  0
   25.6441  -32.7617  -14.6071 O   0  0  0  0  0  0  0  0  0  0  0  0
   19.7475  -31.3923  -16.4860 O   0  0  0  0  0  0  0  0  0  0  0  0
   20.4685  -31.8732  -15.4016 C   0  0  0  0  0  0  0  0  0  0  0  0
   20.7097  -33.2145  -15.2947 C   0  0  0  0  0  0  0  0  0  0  0  0
   21.4190  -33.7019  -14.2310 C   0  0  0  0  0  0  0  0  0  0  0  0
   21.9144  -32.8784  -13.2358 C   0  0  0  0  0  0  0  0  0  0  0  0
   22.6627  -33.4870  -12.1341 C   0  0  0  0  0  0  0  0  0  0  0  0
   24.1650  -33.3551  -12.2831 C   0  0  2  0  0  0  0  0  0  0  0  0
   24.6252  -34.3097  -13.2686 N   0  0  0  0  0  0  0  0  0  0  0  0
   24.7646  -33.7068  -10.9763 C   0  0  0  0  0  0  0  0  0  0  0  0
   25.0180  -34.8982  -10.7324 O   0  0  0  0  0  0  0  0  0  0  0  0
   21.6762  -31.5251  -13.3352 C   0  0  0  0  0  0  0  0  0  0  0  0
   20.9651  -31.0461  -14.4038 C   0  0  0  0  0  0  0  0  0  0  0  0
   26.0076  -31.6924   -8.0042 C   0  0  0  0  0  0  0  0  0  0  0  0
   25.6758  -32.9567   -8.7641 C   0  0  2  0  0  0  0  0  0  0  0  0
   25.0439  -32.7029  -10.0215 N   0  0  0  0  0  0  0  0  0  0  0  0
   24.8032  -33.7689   -7.8784 C   0  0  0  0  0  0  0  0  0  0  0  0
   25.2878  -34.4654   -6.7843 O   0  0  0  0  0  0  0  0  0  0  0  0
   23.5761  -33.8152   -8.1475 O   0  0  0  0  0  0  0  0  0  0  0  0
  1  2  1  0
  2  3  2  0
  4  2  1  0
  5  4  1  0
  6  5  1  0
  6  7  1  6
  8  9  2  0
  8  6  1  0
 10 11  1  0
 11 12  2  0
 12 13  1  0
 14 15  1  0
 14 13  2  0
 16 15  1  1
 16 17  1  0
 17  8  1  0
 18 16  1  0
 18 24  1  0
 19 18  2  0
 20 14  1  0
 21 20  2  0
 21 11  1  0
 23 25  1  0
 23 24  1  0
 23 22  1  1
 25 26  1  0
 27 25  2  0
M  END
$$$$
