QYA.pdb
     RDKit          3D

 27 27  0  0  1  0  0  0  0  0999 V2000
   23.8113  -10.5513  -23.2152 N   0  0  0  0  0  0  0  0  0  0  0  0
   24.6514  -11.6972  -23.0330 C   0  0  0  0  0  0  0  0  0  0  0  0
   25.1869  -12.1589  -24.0538 O   0  0  0  0  0  0  0  0  0  0  0  0
   24.8143  -12.2325  -21.6701 C   0  0  0  0  0  0  0  0  0  0  0  0
   25.5980  -11.3286  -20.7536 C   0  0  0  0  0  0  0  0  0  0  0  0
   26.3670  -12.0515  -19.6898 C   0  0  2  0  0  0  0  0  0  0  0  0
   26.4316  -13.4534  -20.0529 N   0  0  0  0  0  0  0  0  0  0  0  0
   25.7116  -11.8442  -18.3785 C   0  0  0  0  0  0  0  0  0  0  0  0
   25.0101  -12.7904  -17.9362 O   0  0  0  0  0  0  0  0  0  0  0  0
   31.3922  -11.9232  -17.1904 O   0  0  0  0  0  0  0  0  0  0  0  0
   30.1425  -11.5356  -16.7266 C   0  0  0  0  0  0  0  0  0  0  0  0
   29.3761  -12.4280  -16.0304 C   0  0  0  0  0  0  0  0  0  0  0  0
   28.1424  -12.0590  -15.5675 C   0  0  0  0  0  0  0  0  0  0  0  0
   27.6243  -10.7936  -15.7778 C   0  0  0  0  0  0  0  0  0  0  0  0
   26.2951  -10.4861  -15.2462 C   0  0  0  0  0  0  0  0  0  0  0  0
   25.2074  -10.5034  -16.3013 C   0  0  2  0  0  0  0  0  0  0  0  0
   25.8171  -10.6778  -17.6021 N   0  0  0  0  0  0  0  0  0  0  0  0
   24.5478   -9.1787  -16.2684 C   0  0  0  0  0  0  0  0  0  0  0  0
   25.0804   -8.2271  -16.8633 O   0  0  0  0  0  0  0  0  0  0  0  0
   28.3898   -9.8874  -16.4785 C   0  0  0  0  0  0  0  0  0  0  0  0
   29.6237  -10.2657  -16.9381 C   0  0  0  0  0  0  0  0  0  0  0  0
   21.7535   -7.4469  -16.6275 C   0  0  0  0  0  0  0  0  0  0  0  0
   22.6606   -7.7425  -15.4546 C   0  0  2  0  0  0  0  0  0  0  0  0
   23.3317   -8.9998  -15.5707 N   0  0  0  0  0  0  0  0  0  0  0  0
   21.8107   -7.6973  -14.2375 C   0  0  0  0  0  0  0  0  0  0  0  0
   21.2801   -6.5201  -13.7381 O   0  0  0  0  0  0  0  0  0  0  0  0
   21.5731   -8.7822  -13.6484 O   0  0  0  0  0  0  0  0  0  0  0  0
  1  2  1  0
  2  3  2  0
  4  2  1  0
  5  4  1  0
  6  5  1  0
  6  7  1  6
  8  9  2  0
  8  6  1  0
 10 11  1  0
 11 12  2  0
 12 13  1  0
 14 15  1  0
 14 13  2  0
 16 15  1  1
 16 17  1  0
 17  8  1  0
 18 16  1  0
 18 24  1  0
 19 18  2  0
 20 14  1  0
 21 20  2  0
 21 11  1  0
 23 25  1  0
 23 24  1  0
 23 22  1  6
 25 26  1  0
 27 25  2  0
M  END
$$$$
