QYA.pdb
     RDKit          3D

 27 27  0  0  1  0  0  0  0  0999 V2000
   12.9139  -10.4857   -9.6905 N   0  0  0  0  0  0  0  0  0  0  0  0
   12.6496  -11.3461  -10.8048 C   0  0  0  0  0  0  0  0  0  0  0  0
   11.4627  -11.4496  -11.1549 O   0  0  0  0  0  0  0  0  0  0  0  0
   13.7877  -12.0318  -11.4414 C   0  0  0  0  0  0  0  0  0  0  0  0
   15.1146  -11.7355  -10.7913 C   0  0  0  0  0  0  0  0  0  0  0  0
   16.1328  -11.1435  -11.7177 C   0  0  2  0  0  0  0  0  0  0  0  0
   17.1160  -12.1648  -12.0202 N   0  0  0  0  0  0  0  0  0  0  0  0
   16.7425   -9.9514  -11.0858 C   0  0  0  0  0  0  0  0  0  0  0  0
   17.5433  -10.1563  -10.1372 O   0  0  0  0  0  0  0  0  0  0  0  0
   22.2881   -9.6140  -14.0772 O   0  0  0  0  0  0  0  0  0  0  0  0
   21.2299   -8.8988  -13.5334 C   0  0  0  0  0  0  0  0  0  0  0  0
   20.0573   -8.7980  -14.2286 C   0  0  0  0  0  0  0  0  0  0  0  0
   19.0063   -8.0960  -13.7042 C   0  0  0  0  0  0  0  0  0  0  0  0
   19.0796   -7.4692  -12.4730 C   0  0  0  0  0  0  0  0  0  0  0  0
   17.9055   -6.7397  -11.9900 C   0  0  0  0  0  0  0  0  0  0  0  0
   17.1534   -7.4693  -10.8951 C   0  0  2  0  0  0  0  0  0  0  0  0
   16.4922   -8.6224  -11.4671 N   0  0  0  0  0  0  0  0  0  0  0  0
   16.1182   -6.5420  -10.3858 C   0  0  0  0  0  0  0  0  0  0  0  0
   15.1749   -6.2268  -11.1300 O   0  0  0  0  0  0  0  0  0  0  0  0
   20.2576   -7.5654  -11.7651 C   0  0  0  0  0  0  0  0  0  0  0  0
   21.3045   -8.2703  -12.2981 C   0  0  0  0  0  0  0  0  0  0  0  0
   15.4397   -4.8700   -7.0471 C   0  0  0  0  0  0  0  0  0  0  0  0
   15.2859   -5.0651   -8.5385 C   0  0  2  0  0  0  0  0  0  0  0  0
   16.2022   -6.0235   -9.0737 N   0  0  0  0  0  0  0  0  0  0  0  0
   15.4765   -3.7317   -9.1639 C   0  0  0  0  0  0  0  0  0  0  0  0
   14.5512   -2.7089   -9.0432 O   0  0  0  0  0  0  0  0  0  0  0  0
   16.5272   -3.5406   -9.8271 O   0  0  0  0  0  0  0  0  0  0  0  0
  1  2  1  0
  2  3  2  0
  4  2  1  0
  5  4  1  0
  6  5  1  0
  6  7  1  1
  8  9  2  0
  8  6  1  0
 10 11  1  0
 11 12  2  0
 12 13  1  0
 14 15  1  0
 14 13  2  0
 16 15  1  6
 16 17  1  0
 17  8  1  0
 18 16  1  0
 18 24  1  0
 19 18  2  0
 20 14  1  0
 21 20  2  0
 21 11  1  0
 23 25  1  0
 23 24  1  0
 23 22  1  1
 25 26  1  0
 27 25  2  0
M  END
$$$$
