FKC.pdb
     RDKit          3D

 27 27  0  0  1  0  0  0  0  0999 V2000
    5.8586  -18.0126   25.4974 N   0  0  0  0  0  0  0  0  0  0  0  0
    6.1486  -16.6049   25.3032 C   0  0  1  0  0  0  0  0  0  0  0  0
    6.7390  -16.0374   26.5886 C   0  0  0  0  0  0  0  0  0  0  0  0
    6.8689  -14.5766   26.5736 C   0  0  0  0  0  0  0  0  0  0  0  0
    5.7976  -13.7508   26.3863 C   0  0  0  0  0  0  0  0  0  0  0  0
    5.9793  -12.3946   26.3812 C   0  0  0  0  0  0  0  0  0  0  0  0
    7.2324  -11.8506   26.5632 C   0  0  0  0  0  0  0  0  0  0  0  0
    8.3200  -12.6928   26.7535 C   0  0  0  0  0  0  0  0  0  0  0  0
    8.1521  -14.0573   26.7608 C   0  0  0  0  0  0  0  0  0  0  0  0
    7.1834  -16.4395   24.2557 C   0  0  0  0  0  0  0  0  0  0  0  0
    8.1650  -17.2182   24.2181 O   0  0  0  0  0  0  0  0  0  0  0  0
    7.0440  -15.3973   23.3093 N   0  0  0  0  0  0  0  0  0  0  0  0
    8.0053  -15.1356   22.2860 C   0  0  1  0  0  0  0  0  0  0  0  0
    7.5864  -13.9770   21.4044 C   0  0  0  0  0  0  0  0  0  0  0  0
    8.5410  -13.9744   20.2169 C   0  0  0  0  0  0  0  0  0  0  0  0
    7.8089  -13.4630   18.9967 C   0  0  0  0  0  0  0  0  0  0  0  0
    8.7132  -13.7113   17.7994 C   0  0  0  0  0  0  0  0  0  0  0  0
    8.0676  -13.2662   16.6001 N   0  0  0  0  0  0  0  0  0  0  0  0
    9.3832  -14.9859   22.7864 C   0  0  0  0  0  0  0  0  0  0  0  0
    9.6075  -14.2071   23.7349 O   0  0  0  0  0  0  0  0  0  0  0  0
   10.4124  -15.7300   22.1772 N   0  0  0  0  0  0  0  0  0  0  0  0
   11.7901  -15.5898   22.5833 C   0  0  1  0  0  0  0  0  0  0  0  0
   12.0002  -16.2299   23.9407 C   0  0  0  0  0  0  0  0  0  0  0  0
   11.0262  -17.7600   23.9787 S   0  0  0  0  0  0  0  0  0  0  0  0
   12.6377  -16.3276   21.6206 C   0  0  0  0  0  0  0  0  0  0  0  0
   14.0155  -16.2151   21.7371 O   0  0  0  0  0  0  0  0  0  0  0  0
   12.1201  -17.0421   20.7151 O   0  0  0  0  0  0  0  0  0  0  0  0
  2  1  1  1
  3  4  1  0
  3  2  1  0
  4  5  2  0
  5  6  1  0
  7  6  2  0
  8  7  1  0
  9  8  2  0
  9  4  1  0
 10  2  1  0
 10 11  2  0
 12 10  1  0
 13 12  1  0
 13 19  1  0
 13 14  1  1
 15 14  1  0
 16 15  1  0
 17 16  1  0
 18 17  1  0
 19 20  2  0
 19 21  1  0
 21 22  1  0
 22 25  1  0
 22 23  1  1
 24 23  1  0
 25 27  2  0
 25 26  1  0
M  END
$$$$
