FKC.pdb
     RDKit          3D

 27 27  0  0  1  0  0  0  0  0999 V2000
    5.6890  -17.9244   25.1688 N   0  0  0  0  0  0  0  0  0  0  0  0
    6.1491  -16.5534   25.0585 C   0  0  1  0  0  0  0  0  0  0  0  0
    6.6583  -16.0893   26.4181 C   0  0  0  0  0  0  0  0  0  0  0  0
    6.7982  -14.6330   26.5205 C   0  0  0  0  0  0  0  0  0  0  0  0
    5.7191  -13.7969   26.5530 C   0  0  0  0  0  0  0  0  0  0  0  0
    5.9108  -12.4454   26.6489 C   0  0  0  0  0  0  0  0  0  0  0  0
    7.1819  -11.9165   26.7131 C   0  0  0  0  0  0  0  0  0  0  0  0
    8.2774  -12.7693   26.6799 C   0  0  0  0  0  0  0  0  0  0  0  0
    8.0996  -14.1292   26.5837 C   0  0  0  0  0  0  0  0  0  0  0  0
    7.3008  -16.4776   24.1294 C   0  0  0  0  0  0  0  0  0  0  0  0
    8.1592  -17.3910   24.1220 O   0  0  0  0  0  0  0  0  0  0  0  0
    7.4118  -15.3669   23.2604 N   0  0  0  0  0  0  0  0  0  0  0  0
    8.5350  -15.1516   22.4049 C   0  0  1  0  0  0  0  0  0  0  0  0
    8.3554  -13.9206   21.5404 C   0  0  0  0  0  0  0  0  0  0  0  0
    8.3532  -14.4068   20.0965 C   0  0  0  0  0  0  0  0  0  0  0  0
    8.2105  -13.2161   19.1753 C   0  0  0  0  0  0  0  0  0  0  0  0
    8.1240  -13.7592   17.7575 C   0  0  0  0  0  0  0  0  0  0  0  0
    7.8860  -12.6862   16.8380 N   0  0  0  0  0  0  0  0  0  0  0  0
    9.8298  -15.1550   23.1084 C   0  0  0  0  0  0  0  0  0  0  0  0
   10.1691  -14.1521   23.7684 O   0  0  0  0  0  0  0  0  0  0  0  0
   10.6510  -16.2956   23.0157 N   0  0  0  0  0  0  0  0  0  0  0  0
   11.9642  -16.3335   23.6130 C   0  0  1  0  0  0  0  0  0  0  0  0
   12.0578  -17.4871   24.5912 C   0  0  0  0  0  0  0  0  0  0  0  0
   10.9586  -17.1111   25.9847 S   0  0  0  0  0  0  0  0  0  0  0  0
   12.9555  -16.5900   22.5447 C   0  0  0  0  0  0  0  0  0  0  0  0
   12.4901  -16.8301   21.2601 O   0  0  0  0  0  0  0  0  0  0  0  0
   14.1945  -16.5905   22.7957 O   0  0  0  0  0  0  0  0  0  0  0  0
  2  1  1  1
  3  4  1  0
  3  2  1  0
  4  5  2  0
  5  6  1  0
  7  6  2  0
  8  7  1  0
  9  8  2  0
  9  4  1  0
 10  2  1  0
 10 11  2  0
 12 10  1  0
 13 12  1  0
 13 19  1  0
 13 14  1  1
 15 14  1  0
 16 15  1  0
 17 16  1  0
 18 17  1  0
 19 20  2  0
 19 21  1  0
 21 22  1  0
 22 25  1  0
 22 23  1  1
 24 23  1  0
 25 27  2  0
 25 26  1  0
M  END
$$$$
