FKC.pdb
     RDKit          3D

 27 27  0  0  1  0  0  0  0  0999 V2000
    6.9391  -16.0441   25.4247 N   0  0  0  0  0  0  0  0  0  0  0  0
    6.2823  -15.6193   24.2035 C   0  0  1  0  0  0  0  0  0  0  0  0
    6.0860  -14.1084   24.2445 C   0  0  0  0  0  0  0  0  0  0  0  0
    6.4979  -13.5028   25.5152 C   0  0  0  0  0  0  0  0  0  0  0  0
    5.5952  -13.0879   26.4521 C   0  0  0  0  0  0  0  0  0  0  0  0
    6.0381  -12.5290   27.6200 C   0  0  0  0  0  0  0  0  0  0  0  0
    7.3864  -12.3794   27.8629 C   0  0  0  0  0  0  0  0  0  0  0  0
    8.3021  -12.8023   26.9084 C   0  0  0  0  0  0  0  0  0  0  0  0
    7.8712  -13.3655   25.7305 C   0  0  0  0  0  0  0  0  0  0  0  0
    7.1507  -15.8994   23.0360 C   0  0  0  0  0  0  0  0  0  0  0  0
    7.8032  -16.9685   22.9845 O   0  0  0  0  0  0  0  0  0  0  0  0
    7.2285  -14.9478   21.9923 N   0  0  0  0  0  0  0  0  0  0  0  0
    7.9807  -15.1574   20.7964 C   0  0  1  0  0  0  0  0  0  0  0  0
    7.8492  -13.9916   19.8380 C   0  0  0  0  0  0  0  0  0  0  0  0
    8.6406  -14.3690   18.5920 C   0  0  0  0  0  0  0  0  0  0  0  0
    7.9122  -13.8551   17.3706 C   0  0  0  0  0  0  0  0  0  0  0  0
    8.7120  -14.3005   16.1562 C   0  0  0  0  0  0  0  0  0  0  0  0
    8.0516  -13.8795   14.9562 N   0  0  0  0  0  0  0  0  0  0  0  0
    9.3869  -15.5284   21.0338 C   0  0  0  0  0  0  0  0  0  0  0  0
   10.1135  -15.8218   20.0630 O   0  0  0  0  0  0  0  0  0  0  0  0
    9.8729  -15.5410   22.3557 N   0  0  0  0  0  0  0  0  0  0  0  0
   11.2668  -15.7749   22.6476 C   0  0  1  0  0  0  0  0  0  0  0  0
   11.4987  -15.7351   24.1447 C   0  0  0  0  0  0  0  0  0  0  0  0
   13.1861  -16.3270   24.4510 S   0  0  0  0  0  0  0  0  0  0  0  0
   11.6167  -17.1383   22.1912 C   0  0  0  0  0  0  0  0  0  0  0  0
   10.5869  -17.9962   21.8334 O   0  0  0  0  0  0  0  0  0  0  0  0
   12.8227  -17.5122   22.1288 O   0  0  0  0  0  0  0  0  0  0  0  0
  2  1  1  1
  3  4  1  0
  3  2  1  0
  4  5  2  0
  5  6  1  0
  7  6  2  0
  8  7  1  0
  9  8  2  0
  9  4  1  0
 10  2  1  0
 10 11  2  0
 12 10  1  0
 13 12  1  0
 13 19  1  0
 13 14  1  6
 15 14  1  0
 16 15  1  0
 17 16  1  0
 18 17  1  0
 19 20  2  0
 19 21  1  0
 21 22  1  0
 22 25  1  0
 22 23  1  1
 24 23  1  0
 25 27  2  0
 25 26  1  0
M  END
$$$$
