FKC.pdb
     RDKit          3D

 27 27  0  0  1  0  0  0  0  0999 V2000
    7.1182  -17.7334   26.2502 N   0  0  0  0  0  0  0  0  0  0  0  0
    7.0341  -16.4758   25.5328 C   0  0  1  0  0  0  0  0  0  0  0  0
    8.0523  -15.5026   26.1151 C   0  0  0  0  0  0  0  0  0  0  0  0
    7.4853  -14.1873   26.4306 C   0  0  0  0  0  0  0  0  0  0  0  0
    6.3986  -13.6848   25.7740 C   0  0  0  0  0  0  0  0  0  0  0  0
    5.9134  -12.4505   26.1111 C   0  0  0  0  0  0  0  0  0  0  0  0
    6.5090  -11.7069   27.1070 C   0  0  0  0  0  0  0  0  0  0  0  0
    7.6139  -12.2206   27.7731 C   0  0  0  0  0  0  0  0  0  0  0  0
    8.1121  -13.4592   27.4447 C   0  0  0  0  0  0  0  0  0  0  0  0
    7.4068  -16.6754   24.1127 C   0  0  0  0  0  0  0  0  0  0  0  0
    7.3562  -17.8218   23.6083 O   0  0  0  0  0  0  0  0  0  0  0  0
    7.8162  -15.5597   23.3454 N   0  0  0  0  0  0  0  0  0  0  0  0
    8.0142  -15.6120   21.9320 C   0  0  1  0  0  0  0  0  0  0  0  0
    7.6417  -14.3046   21.2634 C   0  0  0  0  0  0  0  0  0  0  0  0
    7.8467  -14.5135   19.7683 C   0  0  0  0  0  0  0  0  0  0  0  0
    8.2871  -13.2087   19.1437 C   0  0  0  0  0  0  0  0  0  0  0  0
    8.3538  -13.4353   17.6414 C   0  0  0  0  0  0  0  0  0  0  0  0
    8.7943  -12.2391   16.9869 N   0  0  0  0  0  0  0  0  0  0  0  0
    9.3537  -16.0799   21.5344 C   0  0  0  0  0  0  0  0  0  0  0  0
    9.8018  -15.7679   20.4127 O   0  0  0  0  0  0  0  0  0  0  0  0
   10.0937  -16.8694   22.4363 N   0  0  0  0  0  0  0  0  0  0  0  0
   11.5288  -16.7575   22.5391 C   0  0  1  0  0  0  0  0  0  0  0  0
   11.9084  -15.3806   23.0455 C   0  0  0  0  0  0  0  0  0  0  0  0
   13.7109  -15.3525   23.2500 S   0  0  0  0  0  0  0  0  0  0  0  0
   12.0021  -17.7345   23.5446 C   0  0  0  0  0  0  0  0  0  0  0  0
   13.3619  -17.9999   23.6140 O   0  0  0  0  0  0  0  0  0  0  0  0
   11.1886  -18.3129   24.3205 O   0  0  0  0  0  0  0  0  0  0  0  0
  2  1  1  1
  3  4  1  0
  3  2  1  0
  4  5  2  0
  5  6  1  0
  7  6  2  0
  8  7  1  0
  9  8  2  0
  9  4  1  0
 10  2  1  0
 10 11  2  0
 12 10  1  0
 13 12  1  0
 13 19  1  0
 13 14  1  1
 15 14  1  0
 16 15  1  0
 17 16  1  0
 18 17  1  0
 19 20  2  0
 19 21  1  0
 21 22  1  0
 22 25  1  0
 22 23  1  1
 24 23  1  0
 25 27  2  0
 25 26  1  0
M  END
$$$$
