FKC.pdb
     RDKit          3D

 27 27  0  0  1  0  0  0  0  0999 V2000
    6.0503  -17.8985   26.0447 N   0  0  0  0  0  0  0  0  0  0  0  0
    6.3644  -16.5346   25.6643 C   0  0  1  0  0  0  0  0  0  0  0  0
    7.1279  -15.8651   26.8009 C   0  0  0  0  0  0  0  0  0  0  0  0
    7.1271  -14.4008   26.7187 C   0  0  0  0  0  0  0  0  0  0  0  0
    8.2567  -13.6850   26.4427 C   0  0  0  0  0  0  0  0  0  0  0  0
    8.1958  -12.3194   26.3793 C   0  0  0  0  0  0  0  0  0  0  0  0
    7.0063  -11.6563   26.5908 C   0  0  0  0  0  0  0  0  0  0  0  0
    5.8592  -12.3869   26.8712 C   0  0  0  0  0  0  0  0  0  0  0  0
    5.9057  -13.7593   26.9381 C   0  0  0  0  0  0  0  0  0  0  0  0
    7.2681  -16.5303   24.4901 C   0  0  0  0  0  0  0  0  0  0  0  0
    8.2197  -17.3440   24.4307 O   0  0  0  0  0  0  0  0  0  0  0  0
    7.0390  -15.6005   23.4489 N   0  0  0  0  0  0  0  0  0  0  0  0
    7.9183  -15.4403   22.3350 C   0  0  1  0  0  0  0  0  0  0  0  0
    7.3793  -14.4407   21.3324 C   0  0  0  0  0  0  0  0  0  0  0  0
    8.3274  -14.4746   20.1404 C   0  0  0  0  0  0  0  0  0  0  0  0
    8.0673  -15.7301   19.3387 C   0  0  0  0  0  0  0  0  0  0  0  0
    8.9406  -15.6529   18.0961 C   0  0  0  0  0  0  0  0  0  0  0  0
    8.7862  -16.8453   17.3166 N   0  0  0  0  0  0  0  0  0  0  0  0
    9.3135  -15.1540   22.7130 C   0  0  0  0  0  0  0  0  0  0  0  0
    9.6053  -14.0285   23.1651 O   0  0  0  0  0  0  0  0  0  0  0  0
   10.2823  -16.1639   22.5528 N   0  0  0  0  0  0  0  0  0  0  0  0
   11.6818  -15.9169   22.8036 C   0  0  1  0  0  0  0  0  0  0  0  0
   12.1024  -16.5776   24.1010 C   0  0  0  0  0  0  0  0  0  0  0  0
   11.1076  -18.0824   24.2942 S   0  0  0  0  0  0  0  0  0  0  0  0
   12.4684  -16.5485   21.7210 C   0  0  0  0  0  0  0  0  0  0  0  0
   13.8388  -16.3344   21.6934 O   0  0  0  0  0  0  0  0  0  0  0  0
   11.9066  -17.2645   20.8436 O   0  0  0  0  0  0  0  0  0  0  0  0
  2  1  1  1
  3  4  1  0
  3  2  1  0
  4  5  2  0
  5  6  1  0
  7  6  2  0
  8  7  1  0
  9  8  2  0
  9  4  1  0
 10  2  1  0
 10 11  2  0
 12 10  1  0
 13 12  1  0
 13 19  1  0
 13 14  1  6
 15 14  1  0
 16 15  1  0
 17 16  1  0
 18 17  1  0
 19 20  2  0
 19 21  1  0
 21 22  1  0
 22 25  1  0
 22 23  1  1
 24 23  1  0
 25 27  2  0
 25 26  1  0
M  END
$$$$
