FKC.pdb
     RDKit          3D

 27 27  0  0  1  0  0  0  0  0999 V2000
    6.0208  -17.8361   24.7242 N   0  0  0  0  0  0  0  0  0  0  0  0
    6.4557  -16.4546   24.6489 C   0  0  1  0  0  0  0  0  0  0  0  0
    7.2497  -16.1145   25.9047 C   0  0  0  0  0  0  0  0  0  0  0  0
    7.3513  -14.6732   26.1560 C   0  0  0  0  0  0  0  0  0  0  0  0
    8.5523  -14.0433   26.3153 C   0  0  0  0  0  0  0  0  0  0  0  0
    8.5856  -12.6953   26.5484 C   0  0  0  0  0  0  0  0  0  0  0  0
    7.4199  -11.9641   26.6244 C   0  0  0  0  0  0  0  0  0  0  0  0
    6.1999  -12.6074   26.4619 C   0  0  0  0  0  0  0  0  0  0  0  0
    6.1516  -13.9611   26.2273 C   0  0  0  0  0  0  0  0  0  0  0  0
    7.3800  -16.2748   23.5049 C   0  0  0  0  0  0  0  0  0  0  0  0
    8.1212  -17.2197   23.1456 O   0  0  0  0  0  0  0  0  0  0  0  0
    7.4096  -15.0301   22.8333 N   0  0  0  0  0  0  0  0  0  0  0  0
    8.2404  -14.7715   21.7007 C   0  0  1  0  0  0  0  0  0  0  0  0
    8.2186  -13.3079   21.3101 C   0  0  0  0  0  0  0  0  0  0  0  0
    7.4617  -13.2272   19.9904 C   0  0  0  0  0  0  0  0  0  0  0  0
    8.3138  -13.8284   18.8954 C   0  0  0  0  0  0  0  0  0  0  0  0
    7.5152  -13.7276   17.6051 C   0  0  0  0  0  0  0  0  0  0  0  0
    8.1976  -14.4223   16.5538 N   0  0  0  0  0  0  0  0  0  0  0  0
    9.6121  -15.2922   21.8360 C   0  0  0  0  0  0  0  0  0  0  0  0
   10.5297  -14.7784   21.1649 O   0  0  0  0  0  0  0  0  0  0  0  0
    9.8497  -16.3599   22.7236 N   0  0  0  0  0  0  0  0  0  0  0  0
   11.1106  -16.5078   23.4096 C   0  0  1  0  0  0  0  0  0  0  0  0
   11.2458  -15.4479   24.4843 C   0  0  0  0  0  0  0  0  0  0  0  0
   12.8009  -15.7594   25.3650 S   0  0  0  0  0  0  0  0  0  0  0  0
   11.1191  -17.8206   24.0925 C   0  0  0  0  0  0  0  0  0  0  0  0
   12.3316  -18.3158   24.5496 O   0  0  0  0  0  0  0  0  0  0  0  0
   10.0494  -18.4743   24.2552 O   0  0  0  0  0  0  0  0  0  0  0  0
  2  1  1  1
  3  4  1  0
  3  2  1  0
  4  5  2  0
  5  6  1  0
  7  6  2  0
  8  7  1  0
  9  8  2  0
  9  4  1  0
 10  2  1  0
 10 11  2  0
 12 10  1  0
 13 12  1  0
 13 19  1  0
 13 14  1  1
 15 14  1  0
 16 15  1  0
 17 16  1  0
 18 17  1  0
 19 20  2  0
 19 21  1  0
 21 22  1  0
 22 25  1  0
 22 23  1  1
 24 23  1  0
 25 27  2  0
 25 26  1  0
M  END
$$$$
