FKC.pdb
     RDKit          3D

 27 27  0  0  1  0  0  0  0  0999 V2000
    5.7822  -18.0655   25.2127 N   0  0  0  0  0  0  0  0  0  0  0  0
    6.2162  -16.6888   25.0721 C   0  0  1  0  0  0  0  0  0  0  0  0
    6.8710  -16.2390   26.3728 C   0  0  0  0  0  0  0  0  0  0  0  0
    6.9931  -14.7820   26.4889 C   0  0  0  0  0  0  0  0  0  0  0  0
    5.9107  -13.9520   26.4259 C   0  0  0  0  0  0  0  0  0  0  0  0
    6.0854  -12.5996   26.5400 C   0  0  0  0  0  0  0  0  0  0  0  0
    7.3427  -12.0639   26.7181 C   0  0  0  0  0  0  0  0  0  0  0  0
    8.4416  -12.9105   26.7820 C   0  0  0  0  0  0  0  0  0  0  0  0
    8.2807  -14.2712   26.6688 C   0  0  0  0  0  0  0  0  0  0  0  0
    7.2557  -16.5890   24.0209 C   0  0  0  0  0  0  0  0  0  0  0  0
    8.0850  -17.5170   23.8717 O   0  0  0  0  0  0  0  0  0  0  0  0
    7.2938  -15.4390   23.1981 N   0  0  0  0  0  0  0  0  0  0  0  0
    8.0870  -15.3500   22.0137 C   0  0  1  0  0  0  0  0  0  0  0  0
    7.6912  -14.1628   21.1600 C   0  0  0  0  0  0  0  0  0  0  0  0
    8.3688  -14.3602   19.8097 C   0  0  0  0  0  0  0  0  0  0  0  0
    7.7698  -13.3952   18.8115 C   0  0  0  0  0  0  0  0  0  0  0  0
    8.3499  -13.7468   17.4504 C   0  0  0  0  0  0  0  0  0  0  0  0
    7.6572  -13.0257   16.4240 N   0  0  0  0  0  0  0  0  0  0  0  0
    9.5385  -15.3986   22.2629 C   0  0  0  0  0  0  0  0  0  0  0  0
   10.3248  -15.4042   21.2944 O   0  0  0  0  0  0  0  0  0  0  0  0
    9.9989  -15.4372   23.5935 N   0  0  0  0  0  0  0  0  0  0  0  0
   11.4075  -15.4425   23.9073 C   0  0  1  0  0  0  0  0  0  0  0  0
   11.6091  -15.2670   25.3990 C   0  0  0  0  0  0  0  0  0  0  0  0
   10.6545  -16.5639   26.2345 S   0  0  0  0  0  0  0  0  0  0  0  0
   11.9605  -16.7674   23.5484 C   0  0  0  0  0  0  0  0  0  0  0  0
   13.3015  -17.0116   23.8062 O   0  0  0  0  0  0  0  0  0  0  0  0
   11.2301  -17.6540   23.0205 O   0  0  0  0  0  0  0  0  0  0  0  0
  2  1  1  1
  3  4  1  0
  3  2  1  0
  4  5  2  0
  5  6  1  0
  7  6  2  0
  8  7  1  0
  9  8  2  0
  9  4  1  0
 10  2  1  0
 10 11  2  0
 12 10  1  0
 13 12  1  0
 13 19  1  0
 13 14  1  1
 15 14  1  0
 16 15  1  0
 17 16  1  0
 18 17  1  0
 19 20  2  0
 19 21  1  0
 21 22  1  0
 22 25  1  0
 22 23  1  1
 24 23  1  0
 25 27  2  0
 25 26  1  0
M  END
$$$$
