FKC.pdb
     RDKit          3D

 27 27  0  0  1  0  0  0  0  0999 V2000
    5.9976  -18.0792   25.5714 N   0  0  0  0  0  0  0  0  0  0  0  0
    6.4177  -16.7249   25.2670 C   0  0  1  0  0  0  0  0  0  0  0  0
    7.2783  -16.2026   26.4113 C   0  0  0  0  0  0  0  0  0  0  0  0
    7.4680  -14.7486   26.3796 C   0  0  0  0  0  0  0  0  0  0  0  0
    6.4399  -13.8742   26.5868 C   0  0  0  0  0  0  0  0  0  0  0  0
    6.6764  -12.5270   26.5448 C   0  0  0  0  0  0  0  0  0  0  0  0
    7.9417  -12.0409   26.2956 C   0  0  0  0  0  0  0  0  0  0  0  0
    8.9853  -12.9327   26.0854 C   0  0  0  0  0  0  0  0  0  0  0  0
    8.7621  -14.2887   26.1247 C   0  0  0  0  0  0  0  0  0  0  0  0
    7.2751  -16.7187   24.0586 C   0  0  0  0  0  0  0  0  0  0  0  0
    7.9463  -17.7353   23.7631 O   0  0  0  0  0  0  0  0  0  0  0  0
    7.3213  -15.5564   23.2536 N   0  0  0  0  0  0  0  0  0  0  0  0
    7.9099  -15.5282   21.9526 C   0  0  1  0  0  0  0  0  0  0  0  0
    7.4370  -14.3353   21.1475 C   0  0  0  0  0  0  0  0  0  0  0  0
    8.1156  -14.4393   19.7874 C   0  0  0  0  0  0  0  0  0  0  0  0
    7.6322  -13.3088   18.9072 C   0  0  0  0  0  0  0  0  0  0  0  0
    8.2217  -13.5390   17.5243 C   0  0  0  0  0  0  0  0  0  0  0  0
    7.7879  -12.5059   16.6311 N   0  0  0  0  0  0  0  0  0  0  0  0
    9.3784  -15.6496   21.9597 C   0  0  0  0  0  0  0  0  0  0  0  0
   10.0204  -15.3592   20.9302 O   0  0  0  0  0  0  0  0  0  0  0  0
   10.0184  -16.0916   23.1340 N   0  0  0  0  0  0  0  0  0  0  0  0
   11.4568  -16.1156   23.2490 C   0  0  1  0  0  0  0  0  0  0  0  0
   11.9539  -14.8087   23.8334 C   0  0  0  0  0  0  0  0  0  0  0  0
   13.7467  -14.9620   24.0652 S   0  0  0  0  0  0  0  0  0  0  0  0
   11.8310  -17.1855   24.2003 C   0  0  0  0  0  0  0  0  0  0  0  0
   10.8403  -17.7205   25.0107 O   0  0  0  0  0  0  0  0  0  0  0  0
   13.0226  -17.6015   24.2731 O   0  0  0  0  0  0  0  0  0  0  0  0
  2  1  1  1
  3  4  1  0
  3  2  1  0
  4  5  2  0
  5  6  1  0
  7  6  2  0
  8  7  1  0
  9  8  2  0
  9  4  1  0
 10  2  1  0
 10 11  2  0
 12 10  1  0
 13 12  1  0
 13 19  1  0
 13 14  1  1
 15 14  1  0
 16 15  1  0
 17 16  1  0
 18 17  1  0
 19 20  2  0
 19 21  1  0
 21 22  1  0
 22 25  1  0
 22 23  1  1
 24 23  1  0
 25 27  2  0
 25 26  1  0
M  END
$$$$
