FKC.pdb
     RDKit          3D

 27 27  0  0  1  0  0  0  0  0999 V2000
    6.7079  -16.3934   25.7068 N   0  0  0  0  0  0  0  0  0  0  0  0
    6.7894  -15.3428   24.7103 C   0  0  1  0  0  0  0  0  0  0  0  0
    7.8339  -14.3228   25.1480 C   0  0  0  0  0  0  0  0  0  0  0  0
    7.3549  -13.4116   26.1927 C   0  0  0  0  0  0  0  0  0  0  0  0
    8.0567  -13.1864   27.3422 C   0  0  0  0  0  0  0  0  0  0  0  0
    7.5598  -12.3254   28.2826 C   0  0  0  0  0  0  0  0  0  0  0  0
    6.3576  -11.6816   28.0836 C   0  0  0  0  0  0  0  0  0  0  0  0
    5.6462  -11.9126   26.9136 C   0  0  0  0  0  0  0  0  0  0  0  0
    6.1334  -12.7751   25.9603 C   0  0  0  0  0  0  0  0  0  0  0  0
    7.2607  -15.9012   23.4212 C   0  0  0  0  0  0  0  0  0  0  0  0
    7.9702  -16.9345   23.4096 O   0  0  0  0  0  0  0  0  0  0  0  0
    6.8985  -15.2529   22.2172 N   0  0  0  0  0  0  0  0  0  0  0  0
    7.8290  -14.9653   21.1726 C   0  0  1  0  0  0  0  0  0  0  0  0
    7.4732  -13.6889   20.4384 C   0  0  0  0  0  0  0  0  0  0  0  0
    8.4359  -13.5878   19.2619 C   0  0  0  0  0  0  0  0  0  0  0  0
    7.7966  -14.2191   18.0457 C   0  0  0  0  0  0  0  0  0  0  0  0
    8.7809  -14.0664   16.8965 C   0  0  0  0  0  0  0  0  0  0  0  0
    8.2143  -14.6026   15.6946 N   0  0  0  0  0  0  0  0  0  0  0  0
    9.2372  -14.9852   21.6062 C   0  0  0  0  0  0  0  0  0  0  0  0
    9.6848  -14.0302   22.2724 O   0  0  0  0  0  0  0  0  0  0  0  0
   10.0413  -16.0871   21.2549 N   0  0  0  0  0  0  0  0  0  0  0  0
   11.4566  -16.1115   21.5359 C   0  0  1  0  0  0  0  0  0  0  0  0
   11.6888  -16.2273   23.0289 C   0  0  0  0  0  0  0  0  0  0  0  0
   10.6389  -17.5742   23.6413 S   0  0  0  0  0  0  0  0  0  0  0  0
   12.0353  -17.3223   20.9124 C   0  0  0  0  0  0  0  0  0  0  0  0
   11.1860  -18.1781   20.2262 O   0  0  0  0  0  0  0  0  0  0  0  0
   13.2715  -17.5710   21.0026 O   0  0  0  0  0  0  0  0  0  0  0  0
  2  1  1  1
  3  4  1  0
  3  2  1  0
  4  5  2  0
  5  6  1  0
  7  6  2  0
  8  7  1  0
  9  8  2  0
  9  4  1  0
 10  2  1  0
 10 11  2  0
 12 10  1  0
 13 12  1  0
 13 19  1  0
 13 14  1  1
 15 14  1  0
 16 15  1  0
 17 16  1  0
 18 17  1  0
 19 20  2  0
 19 21  1  0
 21 22  1  0
 22 25  1  0
 22 23  1  1
 24 23  1  0
 25 27  2  0
 25 26  1  0
M  END
$$$$
