HQQ.pdb
     RDKit          3D

 29 29  0  0  1  0  0  0  0  0999 V2000
    9.7087  -16.1042   18.1193 N   0  0  0  0  0  0  0  0  0  0  0  0
   10.4800  -14.9515   18.3958 C   0  0  1  0  0  0  0  0  0  0  0  0
    9.9164  -14.0652   19.4727 C   0  0  0  0  0  0  0  0  0  0  0  0
    8.4877  -13.7290   19.3036 C   0  0  0  0  0  0  0  0  0  0  0  0
    7.8485  -13.0407   18.3050 C   0  0  0  0  0  0  0  0  0  0  0  0
    6.5154  -12.9836   18.5552 N   0  0  0  0  0  0  0  0  0  0  0  0
    6.3363  -13.6394   19.7124 C   0  0  0  0  0  0  0  0  0  0  0  0
    7.5028  -14.0976   20.1848 N   0  0  0  0  0  0  0  0  0  0  0  0
   11.9037  -15.1867   18.7492 C   0  0  0  0  0  0  0  0  0  0  0  0
   12.1272  -16.2242   19.4041 O   0  0  0  0  0  0  0  0  0  0  0  0
   17.4794  -12.7564   16.5688 N   0  0  0  0  0  0  0  0  0  0  0  0
   17.8668  -13.6102   17.6162 C   0  0  0  0  0  0  0  0  0  0  0  0
   19.0741  -13.7884   17.8581 O   0  0  0  0  0  0  0  0  0  0  0  0
   16.8449  -14.2937   18.4323 C   0  0  0  0  0  0  0  0  0  0  0  0
   15.4390  -13.8973   17.9858 C   0  0  0  0  0  0  0  0  0  0  0  0
   14.3398  -14.5112   18.7417 C   0  0  2  0  0  0  0  0  0  0  0  0
   12.9896  -14.3692   18.4224 N   0  0  0  0  0  0  0  0  0  0  0  0
   14.6027  -14.5308   20.1810 C   0  0  0  0  0  0  0  0  0  0  0  0
   14.5375  -13.4370   20.8126 O   0  0  0  0  0  0  0  0  0  0  0  0
   10.9846  -18.2237   22.9721 N   0  0  0  0  0  0  0  0  0  0  0  0
   11.9781  -17.4738   23.7021 C   0  0  0  0  0  0  0  0  0  0  0  0
   12.1092  -17.7163   24.9131 O   0  0  0  0  0  0  0  0  0  0  0  0
   12.7942  -16.4563   22.9885 C   0  0  0  0  0  0  0  0  0  0  0  0
   14.2655  -16.5527   23.1695 C   0  0  0  0  0  0  0  0  0  0  0  0
   15.1107  -15.6168   22.4085 C   0  0  2  0  0  0  0  0  0  0  0  0
   14.9339  -15.6637   20.9740 N   0  0  0  0  0  0  0  0  0  0  0  0
   16.5378  -15.9429   22.7669 C   0  0  0  0  0  0  0  0  0  0  0  0
   17.0701  -15.7760   24.0178 O   0  0  0  0  0  0  0  0  0  0  0  0
   17.2711  -16.3983   21.8347 O   0  0  0  0  0  0  0  0  0  0  0  0
  2  1  1  1
  2  3  1  0
  3  4  1  0
  4  8  1  0
  4  5  2  0
  5  6  1  0
  7  6  1  0
  8  7  2  0
  9  2  1  0
 10  9  2  0
 11 12  1  0
 12 13  2  0
 14 12  1  0
 14 15  1  0
 16 15  1  6
 16 17  1  0
 17  9  1  0
 18 26  1  0
 18 16  1  0
 19 18  2  0
 21 20  1  0
 22 21  2  0
 23 21  1  0
 24 23  1  0
 25 24  1  1
 25 26  1  0
 27 25  1  0
 28 27  1  0
 29 27  2  0
M  END
$$$$
