HQQ.pdb
     RDKit          3D

 29 29  0  0  1  0  0  0  0  0999 V2000
   11.1488  -18.0620   15.5894 N   0  0  0  0  0  0  0  0  0  0  0  0
   10.5131  -18.6638   16.7001 C   0  0  1  0  0  0  0  0  0  0  0  0
   11.0587  -20.0139   17.0774 C   0  0  0  0  0  0  0  0  0  0  0  0
   10.8580  -21.0627   16.0563 C   0  0  0  0  0  0  0  0  0  0  0  0
    9.8333  -21.9584   15.8915 C   0  0  0  0  0  0  0  0  0  0  0  0
   10.0597  -22.7326   14.7995 N   0  0  0  0  0  0  0  0  0  0  0  0
   11.2283  -22.3100   14.2926 C   0  0  0  0  0  0  0  0  0  0  0  0
   11.7306  -21.3085   15.0265 N   0  0  0  0  0  0  0  0  0  0  0  0
   10.4813  -17.8606   17.9495 C   0  0  0  0  0  0  0  0  0  0  0  0
   11.5792  -17.3939   18.3126 O   0  0  0  0  0  0  0  0  0  0  0  0
    5.7049  -14.8440   21.0231 N   0  0  0  0  0  0  0  0  0  0  0  0
    6.7747  -14.7442   21.9296 C   0  0  0  0  0  0  0  0  0  0  0  0
    6.6211  -14.1428   23.0079 O   0  0  0  0  0  0  0  0  0  0  0  0
    8.0791  -15.3539   21.6072 C   0  0  0  0  0  0  0  0  0  0  0  0
    8.0341  -16.0448   20.2458 C   0  0  0  0  0  0  0  0  0  0  0  0
    9.2419  -16.7948   19.8779 C   0  0  2  0  0  0  0  0  0  0  0  0
    9.3587  -17.5878   18.7367 N   0  0  0  0  0  0  0  0  0  0  0  0
    9.9273  -17.3461   21.0473 C   0  0  0  0  0  0  0  0  0  0  0  0
    9.5684  -18.4846   21.4653 O   0  0  0  0  0  0  0  0  0  0  0  0
   15.9664  -17.2266   22.9926 N   0  0  0  0  0  0  0  0  0  0  0  0
   15.2467  -16.0140   22.6861 C   0  0  0  0  0  0  0  0  0  0  0  0
   15.9099  -15.0178   22.3543 O   0  0  0  0  0  0  0  0  0  0  0  0
   13.7627  -16.0035   22.7772 C   0  0  0  0  0  0  0  0  0  0  0  0
   13.1032  -17.3311   22.8738 C   0  0  0  0  0  0  0  0  0  0  0  0
   11.6313  -17.3617   22.9168 C   0  0  2  0  0  0  0  0  0  0  0  0
   10.9750  -16.7361   21.7904 N   0  0  0  0  0  0  0  0  0  0  0  0
   11.2278  -16.6786   24.1982 C   0  0  0  0  0  0  0  0  0  0  0  0
   10.4131  -15.5791   24.2558 O   0  0  0  0  0  0  0  0  0  0  0  0
   11.6843  -17.1715   25.2766 O   0  0  0  0  0  0  0  0  0  0  0  0
  2  1  1  6
  2  3  1  0
  3  4  1  0
  4  8  1  0
  4  5  2  0
  5  6  1  0
  7  6  1  0
  8  7  2  0
  9  2  1  0
 10  9  2  0
 11 12  1  0
 12 13  2  0
 14 12  1  0
 14 15  1  0
 16 15  1  1
 16 17  1  0
 17  9  1  0
 18 26  1  0
 18 16  1  0
 19 18  2  0
 21 20  1  0
 22 21  2  0
 23 21  1  0
 24 23  1  0
 25 24  1  6
 25 26  1  0
 27 25  1  0
 28 27  1  0
 29 27  2  0
M  END
$$$$
