HQQ.pdb
     RDKit          3D

 29 29  0  0  1  0  0  0  0  0999 V2000
    8.1121  -16.8572   20.4841 N   0  0  0  0  0  0  0  0  0  0  0  0
    9.3299  -16.2619   20.8870 C   0  0  1  0  0  0  0  0  0  0  0  0
    9.8868  -15.2575   19.9155 C   0  0  0  0  0  0  0  0  0  0  0  0
    8.9110  -14.2514   19.4482 C   0  0  0  0  0  0  0  0  0  0  0  0
    8.8615  -12.8973   19.6566 C   0  0  0  0  0  0  0  0  0  0  0  0
    7.7871  -12.3650   19.0199 N   0  0  0  0  0  0  0  0  0  0  0  0
    7.1750  -13.3970   18.4187 C   0  0  0  0  0  0  0  0  0  0  0  0
    7.8273  -14.5419   18.6585 N   0  0  0  0  0  0  0  0  0  0  0  0
    9.3256  -15.6004   22.2173 C   0  0  0  0  0  0  0  0  0  0  0  0
   10.2881  -14.8390   22.4384 O   0  0  0  0  0  0  0  0  0  0  0  0
    5.8989  -11.9276   25.5877 N   0  0  0  0  0  0  0  0  0  0  0  0
    6.8796  -12.3023   26.5225 C   0  0  0  0  0  0  0  0  0  0  0  0
    7.0245  -11.6442   27.5683 O   0  0  0  0  0  0  0  0  0  0  0  0
    7.7362  -13.4766   26.2683 C   0  0  0  0  0  0  0  0  0  0  0  0
    7.5132  -14.0162   24.8569 C   0  0  0  0  0  0  0  0  0  0  0  0
    8.3127  -15.1945   24.4976 C   0  0  2  0  0  0  0  0  0  0  0  0
    8.3633  -15.7514   23.2200 N   0  0  0  0  0  0  0  0  0  0  0  0
    8.3459  -16.1878   25.5716 C   0  0  0  0  0  0  0  0  0  0  0  0
    7.3738  -16.9911   25.6692 O   0  0  0  0  0  0  0  0  0  0  0  0
   10.6461  -20.9830   24.9133 N   0  0  0  0  0  0  0  0  0  0  0  0
   11.6351  -19.9514   25.1132 C   0  0  0  0  0  0  0  0  0  0  0  0
   12.7479  -20.1089   24.5847 O   0  0  0  0  0  0  0  0  0  0  0  0
   11.2900  -18.7583   25.9305 C   0  0  0  0  0  0  0  0  0  0  0  0
    9.9370  -18.7538   26.5440 C   0  0  0  0  0  0  0  0  0  0  0  0
    9.5431  -17.5669   27.3219 C   0  0  2  0  0  0  0  0  0  0  0  0
    9.3674  -16.3595   26.5457 N   0  0  0  0  0  0  0  0  0  0  0  0
   10.6143  -17.3642   28.3626 C   0  0  0  0  0  0  0  0  0  0  0  0
   10.9473  -18.2957   29.3099 O   0  0  0  0  0  0  0  0  0  0  0  0
   11.2309  -16.2536   28.3387 O   0  0  0  0  0  0  0  0  0  0  0  0
  2  1  1  6
  2  3  1  0
  3  4  1  0
  4  8  1  0
  4  5  2  0
  5  6  1  0
  7  6  1  0
  8  7  2  0
  9  2  1  0
 10  9  2  0
 11 12  1  0
 12 13  2  0
 14 12  1  0
 14 15  1  0
 16 15  1  6
 16 17  1  0
 17  9  1  0
 18 26  1  0
 18 16  1  0
 19 18  2  0
 21 20  1  0
 22 21  2  0
 23 21  1  0
 24 23  1  0
 25 24  1  6
 25 26  1  0
 27 25  1  0
 28 27  1  0
 29 27  2  0
M  END
$$$$
