HQQ.pdb
     RDKit          3D

 29 29  0  0  1  0  0  0  0  0999 V2000
   11.9834  -15.7937   13.5237 N   0  0  0  0  0  0  0  0  0  0  0  0
   11.0574  -16.3569   14.4322 C   0  0  1  0  0  0  0  0  0  0  0  0
   11.3749  -17.7646   14.8567 C   0  0  0  0  0  0  0  0  0  0  0  0
   11.4631  -18.7342   13.7454 C   0  0  0  0  0  0  0  0  0  0  0  0
   10.4769  -19.3049   12.9832 C   0  0  0  0  0  0  0  0  0  0  0  0
   11.0223  -20.1342   12.0569 N   0  0  0  0  0  0  0  0  0  0  0  0
   12.3487  -20.0720   12.2522 C   0  0  0  0  0  0  0  0  0  0  0  0
   12.6425  -19.2395   13.2594 N   0  0  0  0  0  0  0  0  0  0  0  0
   10.8151  -15.5875   15.6798 C   0  0  0  0  0  0  0  0  0  0  0  0
   11.8327  -15.3219   16.3499 O   0  0  0  0  0  0  0  0  0  0  0  0
    9.1707  -13.0156   20.9345 N   0  0  0  0  0  0  0  0  0  0  0  0
    8.1356  -13.4739   20.1010 C   0  0  0  0  0  0  0  0  0  0  0  0
    7.3825  -14.3848   20.4897 O   0  0  0  0  0  0  0  0  0  0  0  0
    7.9376  -12.8752   18.7670 C   0  0  0  0  0  0  0  0  0  0  0  0
    7.9458  -13.9507   17.6824 C   0  0  0  0  0  0  0  0  0  0  0  0
    9.2632  -14.5155   17.3631 C   0  0  2  0  0  0  0  0  0  0  0  0
    9.5786  -15.1455   16.1595 N   0  0  0  0  0  0  0  0  0  0  0  0
    9.8986  -15.1290   18.5298 C   0  0  0  0  0  0  0  0  0  0  0  0
    9.6780  -16.3545   18.7515 O   0  0  0  0  0  0  0  0  0  0  0  0
   16.2895  -14.8983   20.3767 N   0  0  0  0  0  0  0  0  0  0  0  0
   15.1570  -14.0849   20.0050 C   0  0  0  0  0  0  0  0  0  0  0  0
   15.3251  -12.8559   19.9427 O   0  0  0  0  0  0  0  0  0  0  0  0
   13.8533  -14.7381   19.7149 C   0  0  0  0  0  0  0  0  0  0  0  0
   12.8278  -14.6580   20.7867 C   0  0  0  0  0  0  0  0  0  0  0  0
   11.4900  -15.2004   20.4948 C   0  0  2  0  0  0  0  0  0  0  0  0
   10.7553  -14.4930   19.4697 N   0  0  0  0  0  0  0  0  0  0  0  0
   10.7261  -15.1734   21.7937 C   0  0  0  0  0  0  0  0  0  0  0  0
    9.4986  -14.5856   21.9478 O   0  0  0  0  0  0  0  0  0  0  0  0
   11.2755  -15.7366   22.7913 O   0  0  0  0  0  0  0  0  0  0  0  0
  2  1  1  1
  2  3  1  0
  3  4  1  0
  4  8  1  0
  4  5  2  0
  5  6  1  0
  7  6  1  0
  8  7  2  0
  9  2  1  0
 10  9  2  0
 11 12  1  0
 12 13  2  0
 14 12  1  0
 14 15  1  0
 16 15  1  1
 16 17  1  0
 17  9  1  0
 18 26  1  0
 18 16  1  0
 19 18  2  0
 21 20  1  0
 22 21  2  0
 23 21  1  0
 24 23  1  0
 25 24  1  1
 25 26  1  0
 27 25  1  0
 28 27  1  0
 29 27  2  0
M  END
$$$$
