QLD.pdb
     RDKit          3D

 26 25  0  0  1  0  0  0  0  0999 V2000
   17.6249  -14.5351  -16.9382 N   0  0  0  0  0  0  0  0  0  0  0  0
   19.0443  -14.7652  -17.0000 C   0  0  0  0  0  0  0  0  0  0  0  0
   19.5213  -15.7102  -16.3112 O   0  0  0  0  0  0  0  0  0  0  0  0
   19.9253  -13.9216  -17.8451 C   0  0  0  0  0  0  0  0  0  0  0  0
   20.8321  -13.1356  -16.9359 C   0  0  0  0  0  0  0  0  0  0  0  0
   21.0989  -11.7415  -17.4276 C   0  0  2  0  0  0  0  0  0  0  0  0
   21.9203  -11.8598  -18.6172 N   0  0  0  0  0  0  0  0  0  0  0  0
   21.7018  -10.8494  -16.4203 C   0  0  0  0  0  0  0  0  0  0  0  0
   21.1604  -10.6538  -15.2968 O   0  0  0  0  0  0  0  0  0  0  0  0
   27.2647   -9.9571  -16.1948 C   0  0  0  0  0  0  0  0  0  0  0  0
   25.8134  -10.2726  -15.9935 C   0  0  1  0  0  0  0  0  0  0  0  0
   25.7187  -10.9486  -14.6177 C   0  0  0  0  0  0  0  0  0  0  0  0
   25.0022   -9.0380  -15.9452 C   0  0  0  0  0  0  0  0  0  0  0  0
   23.5249   -9.1804  -15.8729 C   0  0  2  0  0  0  0  0  0  0  0  0
   22.9272  -10.1781  -16.6934 N   0  0  0  0  0  0  0  0  0  0  0  0
   22.9480   -7.8097  -16.1189 C   0  0  0  0  0  0  0  0  0  0  0  0
   23.2021   -7.2512  -17.2152 O   0  0  0  0  0  0  0  0  0  0  0  0
   22.1402   -7.1383  -15.1709 N   0  0  0  0  0  0  0  0  0  0  0  0
   21.6029   -5.8055  -15.5285 C   0  0  1  0  0  0  0  0  0  0  0  0
   20.1658   -5.7935  -15.0844 C   0  0  0  0  0  0  0  0  0  0  0  0
   19.2595   -6.6273  -15.8879 C   0  0  0  0  0  0  0  0  0  0  0  0
   19.2948   -6.6162  -17.1346 O   0  0  0  0  0  0  0  0  0  0  0  0
   22.3686   -4.8145  -14.6958 C   0  0  0  0  0  0  0  0  0  0  0  0
   23.3401   -5.2471  -13.7716 O   0  0  0  0  0  0  0  0  0  0  0  0
   18.3377   -7.4510  -15.2496 O   0  0  0  0  0  0  0  0  0  0  0  0
   22.1972   -3.5807  -14.7686 O   0  0  0  0  0  0  0  0  0  0  0  0
  2  1  1  0
  3  2  2  0
  4  2  1  0
  5  6  1  0
  5  4  1  0
  6  8  1  0
  6  7  1  6
  8  9  2  0
 11 10  1  1
 11 12  1  0
 13 11  1  0
 14 13  1  6
 15  8  1  0
 15 14  1  0
 16 14  1  0
 16 17  2  0
 18 16  1  0
 19 23  1  0
 19 18  1  0
 19 20  1  1
 21 20  1  0
 21 25  1  0
 22 21  2  0
 23 24  1  0
 26 23  2  0
M  END
$$$$
