QLD.pdb
     RDKit          3D

 26 25  0  0  1  0  0  0  0  0999 V2000
    9.8639  -16.8453    0.8252 N   0  0  0  0  0  0  0  0  0  0  0  0
   11.0770  -17.2886    1.4603 C   0  0  0  0  0  0  0  0  0  0  0  0
   11.8674  -16.4100    1.9056 O   0  0  0  0  0  0  0  0  0  0  0  0
   11.3948  -18.7322    1.5910 C   0  0  0  0  0  0  0  0  0  0  0  0
   12.6169  -18.8649    2.4601 C   0  0  0  0  0  0  0  0  0  0  0  0
   13.8763  -19.1055    1.6774 C   0  0  2  0  0  0  0  0  0  0  0  0
   13.7147  -20.3727    0.9903 N   0  0  0  0  0  0  0  0  0  0  0  0
   15.1087  -19.0627    2.4856 C   0  0  0  0  0  0  0  0  0  0  0  0
   15.7157  -20.1153    2.8280 O   0  0  0  0  0  0  0  0  0  0  0  0
   18.7637  -14.6481    2.3031 C   0  0  0  0  0  0  0  0  0  0  0  0
   18.1288  -16.0053    2.2677 C   0  0  1  0  0  0  0  0  0  0  0  0
   19.2702  -16.9944    1.9890 C   0  0  0  0  0  0  0  0  0  0  0  0
   17.5423  -16.3528    3.5791 C   0  0  0  0  0  0  0  0  0  0  0  0
   16.8232  -17.6478    3.6969 C   0  0  2  0  0  0  0  0  0  0  0  0
   15.6527  -17.8157    2.9047 N   0  0  0  0  0  0  0  0  0  0  0  0
   16.5613  -17.8625    5.1657 C   0  0  0  0  0  0  0  0  0  0  0  0
   15.5085  -17.3806    5.6534 O   0  0  0  0  0  0  0  0  0  0  0  0
   17.4478  -18.5789    6.0041 N   0  0  0  0  0  0  0  0  0  0  0  0
   17.0932  -18.7253    7.4345 C   0  0  1  0  0  0  0  0  0  0  0  0
   16.6867  -20.1607    7.6267 C   0  0  0  0  0  0  0  0  0  0  0  0
   16.3726  -20.5379    9.0128 C   0  0  0  0  0  0  0  0  0  0  0  0
   15.6445  -19.8271    9.7342 O   0  0  0  0  0  0  0  0  0  0  0  0
   18.3635  -18.4816    8.2019 C   0  0  0  0  0  0  0  0  0  0  0  0
   19.5803  -18.2541    7.5291 O   0  0  0  0  0  0  0  0  0  0  0  0
   16.8963  -21.7143    9.5397 O   0  0  0  0  0  0  0  0  0  0  0  0
   18.4189  -18.4655    9.4483 O   0  0  0  0  0  0  0  0  0  0  0  0
  2  1  1  0
  3  2  2  0
  4  2  1  0
  5  6  1  0
  5  4  1  0
  6  8  1  0
  6  7  1  1
  8  9  2  0
 11 10  1  1
 11 12  1  0
 13 11  1  0
 14 13  1  1
 15  8  1  0
 15 14  1  0
 16 14  1  0
 16 17  2  0
 18 16  1  0
 19 23  1  0
 19 18  1  0
 19 20  1  6
 21 20  1  0
 21 25  1  0
 22 21  2  0
 23 24  1  0
 26 23  2  0
M  END
$$$$
