QLD.pdb
     RDKit          3D

 26 25  0  0  1  0  0  0  0  0999 V2000
   14.6724   -9.0897  -17.4738 N   0  0  0  0  0  0  0  0  0  0  0  0
   14.7068  -10.3554  -18.1581 C   0  0  0  0  0  0  0  0  0  0  0  0
   13.7058  -10.6777  -18.8574 O   0  0  0  0  0  0  0  0  0  0  0  0
   15.8795  -11.2582  -18.0493 C   0  0  0  0  0  0  0  0  0  0  0  0
   16.9491  -10.5430  -17.2676 C   0  0  0  0  0  0  0  0  0  0  0  0
   18.2071  -11.3491  -17.1119 C   0  0  2  0  0  0  0  0  0  0  0  0
   17.8063  -12.7045  -16.7859 N   0  0  0  0  0  0  0  0  0  0  0  0
   19.1612  -10.7988  -16.1318 C   0  0  0  0  0  0  0  0  0  0  0  0
   18.9403  -10.8474  -14.8898 O   0  0  0  0  0  0  0  0  0  0  0  0
   25.0469  -10.6338  -15.0777 C   0  0  0  0  0  0  0  0  0  0  0  0
   23.8016   -9.8137  -14.9257 C   0  0  1  0  0  0  0  0  0  0  0  0
   24.1973   -8.3780  -15.3013 C   0  0  0  0  0  0  0  0  0  0  0  0
   22.7554  -10.2543  -15.8722 C   0  0  0  0  0  0  0  0  0  0  0  0
   21.3939   -9.6791  -15.7192 C   0  0  2  0  0  0  0  0  0  0  0  0
   20.3727  -10.1915  -16.5680 N   0  0  0  0  0  0  0  0  0  0  0  0
   21.5432   -8.1836  -15.8344 C   0  0  0  0  0  0  0  0  0  0  0  0
   21.9512   -7.7142  -16.9260 O   0  0  0  0  0  0  0  0  0  0  0  0
   21.2434   -7.3007  -14.7702 N   0  0  0  0  0  0  0  0  0  0  0  0
   21.3219   -5.8442  -15.0263 C   0  0  1  0  0  0  0  0  0  0  0  0
   19.9914   -5.2696  -14.6235 C   0  0  0  0  0  0  0  0  0  0  0  0
   19.9020   -3.8033  -14.6877 C   0  0  0  0  0  0  0  0  0  0  0  0
   20.8503   -3.1087  -15.1050 O   0  0  0  0  0  0  0  0  0  0  0  0
   22.3736   -5.3163  -14.0898 C   0  0  0  0  0  0  0  0  0  0  0  0
   22.9873   -4.0697  -14.3234 O   0  0  0  0  0  0  0  0  0  0  0  0
   18.7352   -3.1679  -14.2748 O   0  0  0  0  0  0  0  0  0  0  0  0
   22.7585   -5.9313  -13.0746 O   0  0  0  0  0  0  0  0  0  0  0  0
  2  1  1  0
  3  2  2  0
  4  2  1  0
  5  6  1  0
  5  4  1  0
  6  8  1  0
  6  7  1  1
  8  9  2  0
 11 10  1  6
 11 12  1  0
 13 11  1  0
 14 13  1  6
 15  8  1  0
 15 14  1  0
 16 14  1  0
 16 17  2  0
 18 16  1  0
 19 23  1  0
 19 18  1  0
 19 20  1  1
 21 20  1  0
 21 25  1  0
 22 21  2  0
 23 24  1  0
 26 23  2  0
M  END
$$$$
