QLD.pdb
     RDKit          3D

 26 25  0  0  1  0  0  0  0  0999 V2000
   27.3537  -17.0660  -14.6656 N   0  0  0  0  0  0  0  0  0  0  0  0
   27.9899  -17.9557  -15.6010 C   0  0  0  0  0  0  0  0  0  0  0  0
   28.1691  -17.5442  -16.7815 O   0  0  0  0  0  0  0  0  0  0  0  0
   28.4242  -19.3159  -15.1969 C   0  0  0  0  0  0  0  0  0  0  0  0
   28.1158  -19.4896  -13.7336 C   0  0  0  0  0  0  0  0  0  0  0  0
   26.8710  -20.2921  -13.4825 C   0  0  2  0  0  0  0  0  0  0  0  0
   25.7569  -19.3633  -13.4915 N   0  0  0  0  0  0  0  0  0  0  0  0
   26.9113  -21.1025  -12.2515 C   0  0  0  0  0  0  0  0  0  0  0  0
   27.2662  -22.3139  -12.2647 O   0  0  0  0  0  0  0  0  0  0  0  0
   26.8513  -19.1178   -7.0057 C   0  0  0  0  0  0  0  0  0  0  0  0
   27.0587  -19.9193   -8.2550 C   0  0  1  0  0  0  0  0  0  0  0  0
   28.1396  -20.9555   -7.9132 C   0  0  0  0  0  0  0  0  0  0  0  0
   25.8313  -20.6547   -8.6253 C   0  0  0  0  0  0  0  0  0  0  0  0
   25.7080  -21.1398  -10.0245 C   0  0  2  0  0  0  0  0  0  0  0  0
   26.5466  -20.5305  -10.9998 N   0  0  0  0  0  0  0  0  0  0  0  0
   24.2467  -21.0507  -10.3835 C   0  0  0  0  0  0  0  0  0  0  0  0
   23.4054  -21.4153   -9.5246 O   0  0  0  0  0  0  0  0  0  0  0  0
   23.7946  -20.5765  -11.6376 N   0  0  0  0  0  0  0  0  0  0  0  0
   22.3347  -20.5206  -11.8794 C   0  0  1  0  0  0  0  0  0  0  0  0
   22.1004  -19.3521  -12.7971 C   0  0  0  0  0  0  0  0  0  0  0  0
   20.6955  -19.1226  -13.1658 C   0  0  0  0  0  0  0  0  0  0  0  0
   19.7663  -19.7527  -12.6224 O   0  0  0  0  0  0  0  0  0  0  0  0
   21.9897  -21.7846  -12.6177 C   0  0  0  0  0  0  0  0  0  0  0  0
   22.9996  -22.5897  -13.1808 O   0  0  0  0  0  0  0  0  0  0  0  0
   20.3871  -18.1818  -14.1433 O   0  0  0  0  0  0  0  0  0  0  0  0
   20.8198  -22.1896  -12.7738 O   0  0  0  0  0  0  0  0  0  0  0  0
  2  1  1  0
  3  2  2  0
  4  2  1  0
  5  6  1  0
  5  4  1  0
  6  8  1  0
  6  7  1  1
  8  9  2  0
 11 10  1  1
 11 12  1  0
 13 11  1  0
 14 13  1  1
 15  8  1  0
 15 14  1  0
 16 14  1  0
 16 17  2  0
 18 16  1  0
 19 23  1  0
 19 18  1  0
 19 20  1  6
 21 20  1  0
 21 25  1  0
 22 21  2  0
 23 24  1  0
 26 23  2  0
M  END
$$$$
