QLD.pdb
     RDKit          3D

 26 25  0  0  1  0  0  0  0  0999 V2000
   28.7235  -19.1111  -18.1592 N   0  0  0  0  0  0  0  0  0  0  0  0
   27.4220  -19.5265  -18.6115 C   0  0  0  0  0  0  0  0  0  0  0  0
   27.2589  -19.7192  -19.8490 O   0  0  0  0  0  0  0  0  0  0  0  0
   26.3020  -19.7241  -17.6582 C   0  0  0  0  0  0  0  0  0  0  0  0
   26.7478  -19.2355  -16.3057 C   0  0  0  0  0  0  0  0  0  0  0  0
   27.1246  -20.3482  -15.3694 C   0  0  2  0  0  0  0  0  0  0  0  0
   27.8656  -21.3245  -16.1451 N   0  0  0  0  0  0  0  0  0  0  0  0
   25.9839  -20.9520  -14.6567 C   0  0  0  0  0  0  0  0  0  0  0  0
   25.3763  -21.9615  -15.1098 O   0  0  0  0  0  0  0  0  0  0  0  0
   25.7208  -20.4244   -9.0257 C   0  0  0  0  0  0  0  0  0  0  0  0
   25.8269  -20.8091  -10.4704 C   0  0  1  0  0  0  0  0  0  0  0  0
   26.1715  -22.3058  -10.4809 C   0  0  0  0  0  0  0  0  0  0  0  0
   24.5319  -20.6406  -11.1625 C   0  0  0  0  0  0  0  0  0  0  0  0
   24.4810  -20.9272  -12.6197 C   0  0  2  0  0  0  0  0  0  0  0  0
   25.5339  -20.4043  -13.4221 N   0  0  0  0  0  0  0  0  0  0  0  0
   23.1199  -20.4892  -13.0970 C   0  0  0  0  0  0  0  0  0  0  0  0
   22.8686  -19.2583  -13.1125 O   0  0  0  0  0  0  0  0  0  0  0  0
   22.1280  -21.4036  -13.5234 N   0  0  0  0  0  0  0  0  0  0  0  0
   20.8422  -20.8606  -14.0182 C   0  0  1  0  0  0  0  0  0  0  0  0
   20.3185  -21.8537  -15.0192 C   0  0  0  0  0  0  0  0  0  0  0  0
   19.0094  -21.5202  -15.5999 C   0  0  0  0  0  0  0  0  0  0  0  0
   18.7424  -20.3655  -15.9888 O   0  0  0  0  0  0  0  0  0  0  0  0
   19.9172  -20.8443  -12.8325 C   0  0  0  0  0  0  0  0  0  0  0  0
   18.7352  -20.0776  -12.8500 O   0  0  0  0  0  0  0  0  0  0  0  0
   18.0400  -22.5107  -15.7218 O   0  0  0  0  0  0  0  0  0  0  0  0
   20.1314  -21.4911  -11.7871 O   0  0  0  0  0  0  0  0  0  0  0  0
  2  1  1  0
  3  2  2  0
  4  2  1  0
  5  6  1  0
  5  4  1  0
  6  8  1  0
  6  7  1  6
  8  9  2  0
 11 10  1  1
 11 12  1  0
 13 11  1  0
 14 13  1  1
 15  8  1  0
 15 14  1  0
 16 14  1  0
 16 17  2  0
 18 16  1  0
 19 23  1  0
 19 18  1  0
 19 20  1  6
 21 20  1  0
 21 25  1  0
 22 21  2  0
 23 24  1  0
 26 23  2  0
M  END
$$$$
