QLD.pdb
     RDKit          3D

 26 25  0  0  1  0  0  0  0  0999 V2000
   27.3353  -18.0722  -16.5849 N   0  0  0  0  0  0  0  0  0  0  0  0
   27.4008  -18.5799  -17.9300 C   0  0  0  0  0  0  0  0  0  0  0  0
   28.0538  -17.9153  -18.7826 O   0  0  0  0  0  0  0  0  0  0  0  0
   26.7240  -19.8448  -18.3097 C   0  0  0  0  0  0  0  0  0  0  0  0
   26.0366  -20.3923  -17.0872 C   0  0  0  0  0  0  0  0  0  0  0  0
   26.9853  -21.0196  -16.1060 C   0  0  2  0  0  0  0  0  0  0  0  0
   27.7345  -22.0317  -16.8259 N   0  0  0  0  0  0  0  0  0  0  0  0
   26.3363  -21.5605  -14.8976 C   0  0  0  0  0  0  0  0  0  0  0  0
   25.8992  -22.7439  -14.8514 O   0  0  0  0  0  0  0  0  0  0  0  0
   25.5902  -22.1096   -9.5758 C   0  0  0  0  0  0  0  0  0  0  0  0
   25.1140  -20.7765  -10.0680 C   0  0  1  0  0  0  0  0  0  0  0  0
   25.4963  -19.7661   -8.9762 C   0  0  0  0  0  0  0  0  0  0  0  0
   25.8157  -20.3855  -11.3086 C   0  0  0  0  0  0  0  0  0  0  0  0
   25.4800  -21.1188  -12.5566 C   0  0  2  0  0  0  0  0  0  0  0  0
   26.1854  -20.7505  -13.7367 N   0  0  0  0  0  0  0  0  0  0  0  0
   23.9851  -21.0213  -12.7241 C   0  0  0  0  0  0  0  0  0  0  0  0
   23.2595  -21.3884  -11.7665 O   0  0  0  0  0  0  0  0  0  0  0  0
   23.3779  -20.5366  -13.9066 N   0  0  0  0  0  0  0  0  0  0  0  0
   21.9016  -20.4231  -13.9390 C   0  0  1  0  0  0  0  0  0  0  0  0
   21.5616  -19.6591  -15.1893 C   0  0  0  0  0  0  0  0  0  0  0  0
   20.4366  -18.7213  -15.0585 C   0  0  0  0  0  0  0  0  0  0  0  0
   19.8394  -18.5646  -13.9747 O   0  0  0  0  0  0  0  0  0  0  0  0
   21.3826  -21.8275  -14.0812 C   0  0  0  0  0  0  0  0  0  0  0  0
   22.0732  -22.7763  -14.8608 O   0  0  0  0  0  0  0  0  0  0  0  0
   20.0224  -17.9874  -16.1655 O   0  0  0  0  0  0  0  0  0  0  0  0
   20.3367  -22.2304  -13.5327 O   0  0  0  0  0  0  0  0  0  0  0  0
  2  1  1  0
  3  2  2  0
  4  2  1  0
  5  6  1  0
  5  4  1  0
  6  8  1  0
  6  7  1  6
  8  9  2  0
 11 10  1  1
 11 12  1  0
 13 11  1  0
 14 13  1  1
 15  8  1  0
 15 14  1  0
 16 14  1  0
 16 17  2  0
 18 16  1  0
 19 23  1  0
 19 18  1  0
 19 20  1  6
 21 20  1  0
 21 25  1  0
 22 21  2  0
 23 24  1  0
 26 23  2  0
M  END
$$$$
