QLD.pdb
     RDKit          3D

 26 25  0  0  1  0  0  0  0  0999 V2000
   32.9367  -32.4037  -20.8153 N   0  0  0  0  0  0  0  0  0  0  0  0
   34.0311  -31.4901  -21.0128 C   0  0  0  0  0  0  0  0  0  0  0  0
   34.7670  -31.6578  -22.0254 O   0  0  0  0  0  0  0  0  0  0  0  0
   34.2919  -30.3831  -20.0596 C   0  0  0  0  0  0  0  0  0  0  0  0
   33.2355  -30.4305  -18.9879 C   0  0  0  0  0  0  0  0  0  0  0  0
   32.8336  -29.0704  -18.4928 C   0  0  2  0  0  0  0  0  0  0  0  0
   33.9706  -28.5254  -17.7757 N   0  0  0  0  0  0  0  0  0  0  0  0
   31.6045  -29.0616  -17.6784 C   0  0  0  0  0  0  0  0  0  0  0  0
   31.6434  -29.0690  -16.4167 O   0  0  0  0  0  0  0  0  0  0  0  0
   27.7487  -25.3470  -18.2793 C   0  0  0  0  0  0  0  0  0  0  0  0
   28.7036  -26.3780  -17.7580 C   0  0  1  0  0  0  0  0  0  0  0  0
   28.7144  -26.2051  -16.2320 C   0  0  0  0  0  0  0  0  0  0  0  0
   28.2242  -27.7447  -18.0527 C   0  0  0  0  0  0  0  0  0  0  0  0
   29.0795  -28.8856  -17.6346 C   0  0  2  0  0  0  0  0  0  0  0  0
   30.3257  -29.0432  -18.3038 N   0  0  0  0  0  0  0  0  0  0  0  0
   28.2197  -30.1210  -17.7181 C   0  0  0  0  0  0  0  0  0  0  0  0
   28.2207  -30.7682  -18.7949 O   0  0  0  0  0  0  0  0  0  0  0  0
   27.4220  -30.5721  -16.6401 N   0  0  0  0  0  0  0  0  0  0  0  0
   26.6141  -31.7981  -16.8329 C   0  0  1  0  0  0  0  0  0  0  0  0
   26.0354  -32.1416  -15.4876 C   0  0  0  0  0  0  0  0  0  0  0  0
   25.2432  -33.3797  -15.4489 C   0  0  0  0  0  0  0  0  0  0  0  0
   25.0695  -34.0762  -16.4691 O   0  0  0  0  0  0  0  0  0  0  0  0
   25.4887  -31.4109  -17.7523 C   0  0  0  0  0  0  0  0  0  0  0  0
   24.9192  -30.1235  -17.6929 O   0  0  0  0  0  0  0  0  0  0  0  0
   24.6702  -33.7911  -14.2497 O   0  0  0  0  0  0  0  0  0  0  0  0
   25.0016  -32.1834  -18.6026 O   0  0  0  0  0  0  0  0  0  0  0  0
  2  1  1  0
  3  2  2  0
  4  2  1  0
  5  6  1  0
  5  4  1  0
  6  8  1  0
  6  7  1  1
  8  9  2  0
 11 10  1  6
 11 12  1  0
 13 11  1  0
 14 13  1  6
 15  8  1  0
 15 14  1  0
 16 14  1  0
 16 17  2  0
 18 16  1  0
 19 23  1  0
 19 18  1  0
 19 20  1  1
 21 20  1  0
 21 25  1  0
 22 21  2  0
 23 24  1  0
 26 23  2  0
M  END
$$$$
