QLD.pdb
     RDKit          3D

 26 25  0  0  1  0  0  0  0  0999 V2000
   23.0466  -24.8242  -18.7848 N   0  0  0  0  0  0  0  0  0  0  0  0
   23.7674  -26.0584  -18.9532 C   0  0  0  0  0  0  0  0  0  0  0  0
   23.9876  -26.4595  -20.1304 O   0  0  0  0  0  0  0  0  0  0  0  0
   24.2399  -26.8402  -17.7838 C   0  0  0  0  0  0  0  0  0  0  0  0
   23.7934  -26.1285  -16.5345 C   0  0  0  0  0  0  0  0  0  0  0  0
   24.6385  -24.9322  -16.2010 C   0  0  2  0  0  0  0  0  0  0  0  0
   25.9704  -25.4223  -15.9012 N   0  0  0  0  0  0  0  0  0  0  0  0
   24.0968  -24.0915  -15.1175 C   0  0  0  0  0  0  0  0  0  0  0  0
   23.1287  -24.4718  -14.4022 O   0  0  0  0  0  0  0  0  0  0  0  0
   27.3617  -20.1032  -12.6394 C   0  0  0  0  0  0  0  0  0  0  0  0
   26.4463  -21.2727  -12.8406 C   0  0  1  0  0  0  0  0  0  0  0  0
   26.1703  -21.8346  -11.4380 C   0  0  0  0  0  0  0  0  0  0  0  0
   25.1541  -20.8443  -13.4161 C   0  0  0  0  0  0  0  0  0  0  0  0
   24.2051  -21.9004  -13.8543 C   0  0  2  0  0  0  0  0  0  0  0  0
   24.6610  -22.8127  -14.8470 N   0  0  0  0  0  0  0  0  0  0  0  0
   22.9345  -21.1966  -14.2575 C   0  0  0  0  0  0  0  0  0  0  0  0
   22.9014  -20.6386  -15.3827 O   0  0  0  0  0  0  0  0  0  0  0  0
   21.7921  -21.1432  -13.4245 N   0  0  0  0  0  0  0  0  0  0  0  0
   20.6068  -20.3995  -13.9095 C   0  0  1  0  0  0  0  0  0  0  0  0
   19.5402  -20.5708  -12.8628 C   0  0  0  0  0  0  0  0  0  0  0  0
   18.2740  -19.8788  -13.1459 C   0  0  0  0  0  0  0  0  0  0  0  0
   18.1297  -19.1711  -14.1629 O   0  0  0  0  0  0  0  0  0  0  0  0
   21.0135  -18.9521  -13.9448 C   0  0  0  0  0  0  0  0  0  0  0  0
   21.8262  -18.4062  -12.9316 O   0  0  0  0  0  0  0  0  0  0  0  0
   17.2069  -20.0113  -12.2632 O   0  0  0  0  0  0  0  0  0  0  0  0
   20.6669  -18.1646  -14.8486 O   0  0  0  0  0  0  0  0  0  0  0  0
  2  1  1  0
  3  2  2  0
  4  2  1  0
  5  6  1  0
  5  4  1  0
  6  8  1  0
  6  7  1  1
  8  9  2  0
 11 10  1  1
 11 12  1  0
 13 11  1  0
 14 13  1  6
 15  8  1  0
 15 14  1  0
 16 14  1  0
 16 17  2  0
 18 16  1  0
 19 23  1  0
 19 18  1  0
 19 20  1  1
 21 20  1  0
 21 25  1  0
 22 21  2  0
 23 24  1  0
 26 23  2  0
M  END
$$$$
