QLD.pdb
     RDKit          3D

 26 25  0  0  1  0  0  0  0  0999 V2000
   17.6236  -12.3300  -18.8220 N   0  0  0  0  0  0  0  0  0  0  0  0
   18.1333  -13.6576  -19.0439 C   0  0  0  0  0  0  0  0  0  0  0  0
   17.5225  -14.3964  -19.8662 O   0  0  0  0  0  0  0  0  0  0  0  0
   19.3388  -14.1489  -18.3317 C   0  0  0  0  0  0  0  0  0  0  0  0
   19.8017  -13.0658  -17.3940 C   0  0  0  0  0  0  0  0  0  0  0  0
   21.2747  -12.7883  -17.4917 C   0  0  2  0  0  0  0  0  0  0  0  0
   21.9632  -14.0152  -17.1389 N   0  0  0  0  0  0  0  0  0  0  0  0
   21.7296  -11.6418  -16.6839 C   0  0  0  0  0  0  0  0  0  0  0  0
   21.0615  -11.2141  -15.7019 O   0  0  0  0  0  0  0  0  0  0  0  0
   27.2637  -10.3915  -16.0739 C   0  0  0  0  0  0  0  0  0  0  0  0
   25.8158  -10.7450  -15.9158 C   0  0  1  0  0  0  0  0  0  0  0  0
   25.5915  -10.9272  -14.4074 C   0  0  0  0  0  0  0  0  0  0  0  0
   24.9457   -9.6400  -16.3700 C   0  0  0  0  0  0  0  0  0  0  0  0
   23.4752   -9.8461  -16.3134 C   0  0  2  0  0  0  0  0  0  0  0  0
   22.9511  -10.9801  -16.9953 N   0  0  0  0  0  0  0  0  0  0  0  0
   22.8421   -8.5560  -16.7684 C   0  0  0  0  0  0  0  0  0  0  0  0
   22.7075   -8.3688  -18.0034 O   0  0  0  0  0  0  0  0  0  0  0  0
   22.3991   -7.5610  -15.8652 N   0  0  0  0  0  0  0  0  0  0  0  0
   21.6875   -6.3842  -16.4146 C   0  0  1  0  0  0  0  0  0  0  0  0
   20.4008   -6.9001  -16.9984 C   0  0  0  0  0  0  0  0  0  0  0  0
   19.4559   -5.8619  -17.4359 C   0  0  0  0  0  0  0  0  0  0  0  0
   18.3969   -5.6392  -16.8156 O   0  0  0  0  0  0  0  0  0  0  0  0
   21.3605   -5.5113  -15.2344 C   0  0  0  0  0  0  0  0  0  0  0  0
   20.9013   -4.1920  -15.4183 O   0  0  0  0  0  0  0  0  0  0  0  0
   19.7425   -5.1057  -18.5680 O   0  0  0  0  0  0  0  0  0  0  0  0
   21.4717   -5.8894  -14.0505 O   0  0  0  0  0  0  0  0  0  0  0  0
  2  1  1  0
  3  2  2  0
  4  2  1  0
  5  6  1  0
  5  4  1  0
  6  8  1  0
  6  7  1  1
  8  9  2  0
 11 10  1  1
 11 12  1  0
 13 11  1  0
 14 13  1  6
 15  8  1  0
 15 14  1  0
 16 14  1  0
 16 17  2  0
 18 16  1  0
 19 23  1  0
 19 18  1  0
 19 20  1  1
 21 20  1  0
 21 25  1  0
 22 21  2  0
 23 24  1  0
 26 23  2  0
M  END
$$$$
