QLD.pdb
     RDKit          3D

 26 25  0  0  1  0  0  0  0  0999 V2000
   24.9270  -27.7163  -19.3236 N   0  0  0  0  0  0  0  0  0  0  0  0
   25.0208  -27.7814  -17.8890 C   0  0  0  0  0  0  0  0  0  0  0  0
   24.1014  -28.3786  -17.2620 O   0  0  0  0  0  0  0  0  0  0  0  0
   26.1602  -27.1676  -17.1630 C   0  0  0  0  0  0  0  0  0  0  0  0
   25.6077  -26.3879  -15.9995 C   0  0  0  0  0  0  0  0  0  0  0  0
   25.1637  -25.0024  -16.3733 C   0  0  2  0  0  0  0  0  0  0  0  0
   26.2907  -24.3531  -17.0153 N   0  0  0  0  0  0  0  0  0  0  0  0
   24.6327  -24.2125  -15.2472 C   0  0  0  0  0  0  0  0  0  0  0  0
   23.7096  -24.6501  -14.5056 O   0  0  0  0  0  0  0  0  0  0  0  0
   27.8125  -20.1678  -12.7339 C   0  0  0  0  0  0  0  0  0  0  0  0
   26.9216  -21.3591  -12.9167 C   0  0  1  0  0  0  0  0  0  0  0  0
   26.6537  -21.9023  -11.5053 C   0  0  0  0  0  0  0  0  0  0  0  0
   25.6223  -20.9671  -13.5021 C   0  0  0  0  0  0  0  0  0  0  0  0
   24.7003  -22.0496  -13.9335 C   0  0  2  0  0  0  0  0  0  0  0  0
   25.1560  -22.9192  -14.9640 N   0  0  0  0  0  0  0  0  0  0  0  0
   23.3897  -21.3877  -14.2749 C   0  0  0  0  0  0  0  0  0  0  0  0
   23.3615  -20.6095  -15.2608 O   0  0  0  0  0  0  0  0  0  0  0  0
   22.2048  -21.6096  -13.5341 N   0  0  0  0  0  0  0  0  0  0  0  0
   20.9636  -20.9373  -13.9818 C   0  0  1  0  0  0  0  0  0  0  0  0
   19.8211  -21.7829  -13.4896 C   0  0  0  0  0  0  0  0  0  0  0  0
   18.4823  -21.2770  -13.8272 C   0  0  0  0  0  0  0  0  0  0  0  0
   18.3271  -20.2573  -14.5285 O   0  0  0  0  0  0  0  0  0  0  0  0
   20.9260  -19.6175  -13.2617 C   0  0  0  0  0  0  0  0  0  0  0  0
   20.4083  -18.4675  -13.8900 O   0  0  0  0  0  0  0  0  0  0  0  0
   17.3568  -21.9462  -13.3570 O   0  0  0  0  0  0  0  0  0  0  0  0
   21.3391  -19.4614  -12.0947 O   0  0  0  0  0  0  0  0  0  0  0  0
  2  1  1  0
  3  2  2  0
  4  2  1  0
  5  6  1  0
  5  4  1  0
  6  8  1  0
  6  7  1  1
  8  9  2  0
 11 10  1  1
 11 12  1  0
 13 11  1  0
 14 13  1  6
 15  8  1  0
 15 14  1  0
 16 14  1  0
 16 17  2  0
 18 16  1  0
 19 23  1  0
 19 18  1  0
 19 20  1  1
 21 20  1  0
 21 25  1  0
 22 21  2  0
 23 24  1  0
 26 23  2  0
M  END
$$$$
