QLD.pdb
     RDKit          3D

 26 25  0  0  1  0  0  0  0  0999 V2000
   17.5301  -17.6827  -13.7716 N   0  0  0  0  0  0  0  0  0  0  0  0
   17.3529  -18.0263  -15.1579 C   0  0  0  0  0  0  0  0  0  0  0  0
   16.6044  -19.0053  -15.4341 O   0  0  0  0  0  0  0  0  0  0  0  0
   18.0261  -17.2578  -16.2341 C   0  0  0  0  0  0  0  0  0  0  0  0
   18.8295  -16.1587  -15.5913 C   0  0  0  0  0  0  0  0  0  0  0  0
   19.6480  -15.3716  -16.5746 C   0  0  2  0  0  0  0  0  0  0  0  0
   20.4796  -16.3196  -17.2913 N   0  0  0  0  0  0  0  0  0  0  0  0
   20.4376  -14.2828  -15.9705 C   0  0  0  0  0  0  0  0  0  0  0  0
   20.0894  -13.7298  -14.8904 O   0  0  0  0  0  0  0  0  0  0  0  0
   26.0507  -13.9170  -16.9590 C   0  0  0  0  0  0  0  0  0  0  0  0
   24.6963  -14.0267  -16.3266 C   0  0  1  0  0  0  0  0  0  0  0  0
   24.9472  -14.1283  -14.8147 C   0  0  0  0  0  0  0  0  0  0  0  0
   23.8956  -12.8083  -16.5689 C   0  0  0  0  0  0  0  0  0  0  0  0
   22.4852  -12.7999  -16.1011 C   0  0  2  0  0  0  0  0  0  0  0  0
   21.6293  -13.8225  -16.5987 N   0  0  0  0  0  0  0  0  0  0  0  0
   21.9501  -11.4171  -16.3725 C   0  0  0  0  0  0  0  0  0  0  0  0
   21.6986  -11.1056  -17.5634 O   0  0  0  0  0  0  0  0  0  0  0  0
   21.7233  -10.4696  -15.3465 N   0  0  0  0  0  0  0  0  0  0  0  0
   21.2188   -9.1310  -15.7295 C   0  0  1  0  0  0  0  0  0  0  0  0
   20.2686   -8.7081  -14.6429 C   0  0  0  0  0  0  0  0  0  0  0  0
   19.7025   -7.3603  -14.8014 C   0  0  0  0  0  0  0  0  0  0  0  0
   19.4015   -6.9060  -15.9233 O   0  0  0  0  0  0  0  0  0  0  0  0
   22.4126   -8.2166  -15.7026 C   0  0  0  0  0  0  0  0  0  0  0  0
   23.6989   -8.7177  -15.4208 O   0  0  0  0  0  0  0  0  0  0  0  0
   19.4949   -6.5664  -13.6779 O   0  0  0  0  0  0  0  0  0  0  0  0
   22.3418   -6.9903  -15.9224 O   0  0  0  0  0  0  0  0  0  0  0  0
  2  1  1  0
  3  2  2  0
  4  2  1  0
  5  6  1  0
  5  4  1  0
  6  8  1  0
  6  7  1  1
  8  9  2  0
 11 10  1  6
 11 12  1  0
 13 11  1  0
 14 13  1  6
 15  8  1  0
 15 14  1  0
 16 14  1  0
 16 17  2  0
 18 16  1  0
 19 23  1  0
 19 18  1  0
 19 20  1  1
 21 20  1  0
 21 25  1  0
 22 21  2  0
 23 24  1  0
 26 23  2  0
M  END
$$$$
