FEP.pdb
     RDKit          3D

 28 29  0  0  1  0  0  0  0  0999 V2000
    5.6205  -16.7538   20.7444 N   0  0  0  0  0  0  0  0  0  0  0  0
    6.4901  -15.8828   21.4705 C   0  0  1  0  0  0  0  0  0  0  0  0
    6.2102  -14.4440   21.1761 C   0  0  0  0  0  0  0  0  0  0  0  0
    7.2722  -13.9243   20.2977 C   0  0  0  0  0  0  0  0  0  0  0  0
    7.0269  -13.6123   18.9786 C   0  0  0  0  0  0  0  0  0  0  0  0
    8.0316  -13.1236   18.1534 C   0  0  0  0  0  0  0  0  0  0  0  0
    9.3026  -12.9409   18.6446 C   0  0  0  0  0  0  0  0  0  0  0  0
    9.5642  -13.2479   19.9602 C   0  0  0  0  0  0  0  0  0  0  0  0
    8.5455  -13.7378   20.7773 C   0  0  0  0  0  0  0  0  0  0  0  0
    6.5326  -16.1914   22.9227 C   0  0  0  0  0  0  0  0  0  0  0  0
    5.4840  -16.0336   23.5968 O   0  0  0  0  0  0  0  0  0  0  0  0
    7.6985  -16.6527   23.5747 N   0  0  0  0  0  0  0  0  0  0  0  0
    7.7595  -16.7490   25.0225 C   0  0  1  0  0  0  0  0  0  0  0  0
    7.5933  -18.1846   25.4202 C   0  0  0  0  0  0  0  0  0  0  0  0
    7.7119  -18.5495   26.8369 C   0  0  0  0  0  0  0  0  0  0  0  0
    7.6593  -19.9346   27.2464 C   0  0  0  0  0  0  0  0  0  0  0  0
    7.3037  -20.8551   26.4909 O   0  0  0  0  0  0  0  0  0  0  0  0
    8.9495  -16.1132   25.5627 C   0  0  0  0  0  0  0  0  0  0  0  0
   10.0183  -16.1753   24.8560 O   0  0  0  0  0  0  0  0  0  0  0  0
    8.0232  -20.2589   28.5471 O   0  0  0  0  0  0  0  0  0  0  0  0
    9.0363  -15.4297   26.7965 N   0  0  0  0  0  0  0  0  0  0  0  0
    7.9022  -15.2344   27.7395 C   0  0  0  0  0  0  0  0  0  0  0  0
    8.1979  -14.0021   28.5251 C   0  0  0  0  0  0  0  0  0  0  0  0
    9.4859  -13.4380   27.9172 C   0  0  0  0  0  0  0  0  0  0  0  0
   10.1254  -14.7573   27.4595 C   0  0  1  0  0  0  0  0  0  0  0  0
   10.5497  -15.4589   28.7152 C   0  0  0  0  0  0  0  0  0  0  0  0
    9.8969  -16.4295   29.1369 O   0  0  0  0  0  0  0  0  0  0  0  0
   11.6629  -15.0439   29.4202 O   0  0  0  0  0  0  0  0  0  0  0  0
  2  1  1  6
  2  3  1  0
  3  4  1  0
  4  9  1  0
  5  4  2  0
  5  6  1  0
  6  7  2  0
  7  8  1  0
  9  8  2  0
 10 12  1  0
 10  2  1  0
 11 10  2  0
 13 12  1  0
 13 14  1  6
 14 15  1  0
 15 16  1  0
 16 17  2  0
 18 13  1  0
 19 18  2  0
 20 16  1  0
 21 18  1  0
 21 25  1  0
 22 23  1  0
 22 21  1  0
 23 24  1  0
 25 24  1  0
 26 28  1  0
 25 26  1  1
 27 26  2  0
M  END
$$$$
