FEP.pdb
     RDKit          3D

 28 29  0  0  1  0  0  0  0  0999 V2000
    7.5170  -15.1567   20.8217 N   0  0  0  0  0  0  0  0  0  0  0  0
    7.6772  -14.5454   22.1035 C   0  0  1  0  0  0  0  0  0  0  0  0
    6.4409  -13.8242   22.5350 C   0  0  0  0  0  0  0  0  0  0  0  0
    6.6544  -13.2849   23.8888 C   0  0  0  0  0  0  0  0  0  0  0  0
    6.0389  -13.8387   24.9897 C   0  0  0  0  0  0  0  0  0  0  0  0
    6.2422  -13.3262   26.2646 C   0  0  0  0  0  0  0  0  0  0  0  0
    7.0705  -12.2451   26.4517 C   0  0  0  0  0  0  0  0  0  0  0  0
    7.6930  -11.6802   25.3623 C   0  0  0  0  0  0  0  0  0  0  0  0
    7.4798  -12.2053   24.0879 C   0  0  0  0  0  0  0  0  0  0  0  0
    8.2014  -15.4846   23.1277 C   0  0  0  0  0  0  0  0  0  0  0  0
    7.4248  -16.3585   23.5885 O   0  0  0  0  0  0  0  0  0  0  0  0
    9.5313  -15.4361   23.6034 N   0  0  0  0  0  0  0  0  0  0  0  0
   10.0133  -16.3960   24.5808 C   0  0  1  0  0  0  0  0  0  0  0  0
   10.7461  -17.4902   23.8649 C   0  0  0  0  0  0  0  0  0  0  0  0
   11.3153  -18.5953   24.6453 C   0  0  0  0  0  0  0  0  0  0  0  0
   12.0752  -19.6392   23.9958 C   0  0  0  0  0  0  0  0  0  0  0  0
   12.3000  -20.7439   24.5187 O   0  0  0  0  0  0  0  0  0  0  0  0
   10.7770  -15.7596   25.6409 C   0  0  0  0  0  0  0  0  0  0  0  0
   11.7773  -15.0376   25.2893 O   0  0  0  0  0  0  0  0  0  0  0  0
   12.5818  -19.4016   22.7244 O   0  0  0  0  0  0  0  0  0  0  0  0
   10.5165  -15.8622   27.0261 N   0  0  0  0  0  0  0  0  0  0  0  0
    9.2664  -16.4129   27.6155 C   0  0  0  0  0  0  0  0  0  0  0  0
    9.1058  -15.7846   28.9582 C   0  0  0  0  0  0  0  0  0  0  0  0
   10.2483  -14.7698   29.0657 C   0  0  0  0  0  0  0  0  0  0  0  0
   11.2833  -15.4896   28.1885 C   0  0  1  0  0  0  0  0  0  0  0  0
   11.7300  -16.6803   28.9833 C   0  0  0  0  0  0  0  0  0  0  0  0
   11.2354  -17.7990   28.7599 O   0  0  0  0  0  0  0  0  0  0  0  0
   12.6900  -16.5577   29.9691 O   0  0  0  0  0  0  0  0  0  0  0  0
  2  1  1  6
  2  3  1  0
  3  4  1  0
  4  9  1  0
  5  4  2  0
  5  6  1  0
  6  7  2  0
  7  8  1  0
  9  8  2  0
 10 12  1  0
 10  2  1  0
 11 10  2  0
 13 12  1  0
 13 14  1  6
 14 15  1  0
 15 16  1  0
 16 17  2  0
 18 13  1  0
 19 18  2  0
 20 16  1  0
 21 18  1  0
 21 25  1  0
 22 23  1  0
 22 21  1  0
 23 24  1  0
 25 24  1  0
 26 28  1  0
 25 26  1  1
 27 26  2  0
M  END
$$$$
