FEP.pdb
     RDKit          3D

 28 29  0  0  1  0  0  0  0  0999 V2000
   10.3119  -16.1939   25.6470 N   0  0  0  0  0  0  0  0  0  0  0  0
    9.1983  -15.4141   25.2061 C   0  0  1  0  0  0  0  0  0  0  0  0
    8.8468  -14.3413   26.1861 C   0  0  0  0  0  0  0  0  0  0  0  0
    9.4746  -14.6571   27.4806 C   0  0  0  0  0  0  0  0  0  0  0  0
   10.2363  -13.7296   28.1566 C   0  0  0  0  0  0  0  0  0  0  0  0
   10.8274  -14.0320   29.3766 C   0  0  0  0  0  0  0  0  0  0  0  0
   10.6606  -15.2764   29.9366 C   0  0  0  0  0  0  0  0  0  0  0  0
    9.9026  -16.2143   29.2740 C   0  0  0  0  0  0  0  0  0  0  0  0
    9.3148  -15.8968   28.0496 C   0  0  0  0  0  0  0  0  0  0  0  0
    9.3589  -14.9156   23.8163 C   0  0  0  0  0  0  0  0  0  0  0  0
    8.5582  -14.0412   23.4002 O   0  0  0  0  0  0  0  0  0  0  0  0
   10.3703  -15.3822   22.9464 N   0  0  0  0  0  0  0  0  0  0  0  0
   10.5363  -14.8177   21.6187 C   0  0  1  0  0  0  0  0  0  0  0  0
   11.9454  -15.0528   21.1648 C   0  0  0  0  0  0  0  0  0  0  0  0
   12.3341  -14.6467   19.8090 C   0  0  0  0  0  0  0  0  0  0  0  0
   13.6578  -14.9358   19.3059 C   0  0  0  0  0  0  0  0  0  0  0  0
   14.0198  -16.0715   18.9543 O   0  0  0  0  0  0  0  0  0  0  0  0
    9.5228  -15.2934   20.6922 C   0  0  0  0  0  0  0  0  0  0  0  0
    9.0627  -16.4754   20.8842 O   0  0  0  0  0  0  0  0  0  0  0  0
   14.5748  -13.8970   19.2082 O   0  0  0  0  0  0  0  0  0  0  0  0
    8.9954  -14.5708   19.5982 N   0  0  0  0  0  0  0  0  0  0  0  0
    9.3335  -13.1590   19.2722 C   0  0  0  0  0  0  0  0  0  0  0  0
    8.1730  -12.5963   18.5239 C   0  0  0  0  0  0  0  0  0  0  0  0
    7.1138  -13.7029   18.5346 C   0  0  0  0  0  0  0  0  0  0  0  0
    8.0489  -14.9209   18.5689 C   0  0  1  0  0  0  0  0  0  0  0  0
    8.6807  -14.9850   17.2104 C   0  0  0  0  0  0  0  0  0  0  0  0
    8.0114  -15.3531   16.2293 O   0  0  0  0  0  0  0  0  0  0  0  0
   10.0055  -14.6397   17.0252 O   0  0  0  0  0  0  0  0  0  0  0  0
  2  1  1  1
  2  3  1  0
  3  4  1  0
  4  9  1  0
  5  4  2  0
  5  6  1  0
  6  7  2  0
  7  8  1  0
  9  8  2  0
 10 12  1  0
 10  2  1  0
 11 10  2  0
 13 12  1  0
 13 14  1  6
 14 15  1  0
 15 16  1  0
 16 17  2  0
 18 13  1  0
 19 18  2  0
 20 16  1  0
 21 18  1  0
 21 25  1  0
 22 23  1  0
 22 21  1  0
 23 24  1  0
 25 24  1  0
 26 28  1  0
 25 26  1  6
 27 26  2  0
M  END
$$$$
