FEP.pdb
     RDKit          3D

 28 29  0  0  1  0  0  0  0  0999 V2000
    7.2880  -17.6255   19.7128 N   0  0  0  0  0  0  0  0  0  0  0  0
    7.5737  -16.3626   20.3175 C   0  0  1  0  0  0  0  0  0  0  0  0
    6.6513  -15.2911   19.8318 C   0  0  0  0  0  0  0  0  0  0  0  0
    7.0095  -14.0228   20.4895 C   0  0  0  0  0  0  0  0  0  0  0  0
    6.4840  -13.6733   21.7140 C   0  0  0  0  0  0  0  0  0  0  0  0
    6.8236  -12.4756   22.3301 C   0  0  0  0  0  0  0  0  0  0  0  0
    7.6999  -11.6087   21.7214 C   0  0  0  0  0  0  0  0  0  0  0  0
    8.2337  -11.9429   20.4980 C   0  0  0  0  0  0  0  0  0  0  0  0
    7.8838  -13.1489   19.8910 C   0  0  0  0  0  0  0  0  0  0  0  0
    7.6619  -16.4401   21.7981 C   0  0  0  0  0  0  0  0  0  0  0  0
    6.6606  -16.8546   22.4342 O   0  0  0  0  0  0  0  0  0  0  0  0
    8.8200  -16.0684   22.5178 N   0  0  0  0  0  0  0  0  0  0  0  0
    8.9673  -16.3998   23.9240 C   0  0  1  0  0  0  0  0  0  0  0  0
    9.7362  -17.6810   24.0420 C   0  0  0  0  0  0  0  0  0  0  0  0
    9.0016  -18.9382   24.2260 C   0  0  0  0  0  0  0  0  0  0  0  0
    9.6830  -20.1280   24.6835 C   0  0  0  0  0  0  0  0  0  0  0  0
    9.4768  -21.2568   24.2065 O   0  0  0  0  0  0  0  0  0  0  0  0
    9.5229  -15.2967   24.6899 C   0  0  0  0  0  0  0  0  0  0  0  0
   10.6059  -14.7668   24.2519 O   0  0  0  0  0  0  0  0  0  0  0  0
   10.6153  -20.0098   25.7064 O   0  0  0  0  0  0  0  0  0  0  0  0
    8.9769  -14.7523   25.8742 N   0  0  0  0  0  0  0  0  0  0  0  0
    7.6433  -15.1032   26.4328 C   0  0  0  0  0  0  0  0  0  0  0  0
    7.1870  -13.9325   27.2356 C   0  0  0  0  0  0  0  0  0  0  0  0
    8.2567  -12.8571   27.0209 C   0  0  0  0  0  0  0  0  0  0  0  0
    9.4708  -13.7741   26.8109 C   0  0  1  0  0  0  0  0  0  0  0  0
    9.7662  -14.3695   28.1552 C   0  0  0  0  0  0  0  0  0  0  0  0
    9.3566  -15.5097   28.4347 O   0  0  0  0  0  0  0  0  0  0  0  0
   10.4919  -13.6689   29.0992 O   0  0  0  0  0  0  0  0  0  0  0  0
  2  1  1  1
  2  3  1  0
  3  4  1  0
  4  9  1  0
  5  4  2  0
  5  6  1  0
  6  7  2  0
  7  8  1  0
  9  8  2  0
 10 12  1  0
 10  2  1  0
 11 10  2  0
 13 12  1  0
 13 14  1  6
 14 15  1  0
 15 16  1  0
 16 17  2  0
 18 13  1  0
 19 18  2  0
 20 16  1  0
 21 18  1  0
 21 25  1  0
 22 23  1  0
 22 21  1  0
 23 24  1  0
 25 24  1  0
 26 28  1  0
 25 26  1  1
 27 26  2  0
M  END
$$$$
