FEP.pdb
     RDKit          3D

 28 29  0  0  1  0  0  0  0  0999 V2000
    7.1448  -17.0162   20.1969 N   0  0  0  0  0  0  0  0  0  0  0  0
    8.3535  -16.9143   20.9526 C   0  0  1  0  0  0  0  0  0  0  0  0
    9.3064  -15.9329   20.3496 C   0  0  0  0  0  0  0  0  0  0  0  0
    8.6711  -14.6041   20.3323 C   0  0  0  0  0  0  0  0  0  0  0  0
    8.1080  -14.0607   21.4659 C   0  0  0  0  0  0  0  0  0  0  0  0
    7.5088  -12.8077   21.4450 C   0  0  0  0  0  0  0  0  0  0  0  0
    7.4670  -12.0803   20.2792 C   0  0  0  0  0  0  0  0  0  0  0  0
    8.0251  -12.6090   19.1379 C   0  0  0  0  0  0  0  0  0  0  0  0
    8.6235  -13.8683   19.1736 C   0  0  0  0  0  0  0  0  0  0  0  0
    8.1100  -16.6885   22.4003 C   0  0  0  0  0  0  0  0  0  0  0  0
    7.1814  -15.9106   22.7345 O   0  0  0  0  0  0  0  0  0  0  0  0
    8.8761  -17.3093   23.4127 N   0  0  0  0  0  0  0  0  0  0  0  0
    8.5645  -17.1104   24.8170 C   0  0  1  0  0  0  0  0  0  0  0  0
    8.1795  -18.4278   25.4194 C   0  0  0  0  0  0  0  0  0  0  0  0
    7.7954  -18.4787   26.8351 C   0  0  0  0  0  0  0  0  0  0  0  0
    7.4707  -19.7388   27.4641 C   0  0  0  0  0  0  0  0  0  0  0  0
    6.4313  -19.9251   28.1192 O   0  0  0  0  0  0  0  0  0  0  0  0
    9.6322  -16.4205   25.5212 C   0  0  0  0  0  0  0  0  0  0  0  0
   10.8158  -16.5258   25.0378 O   0  0  0  0  0  0  0  0  0  0  0  0
    8.3606  -20.7974   27.3332 O   0  0  0  0  0  0  0  0  0  0  0  0
    9.4852  -15.6410   26.6909 N   0  0  0  0  0  0  0  0  0  0  0  0
    8.2100  -15.4626   27.4363 C   0  0  0  0  0  0  0  0  0  0  0  0
    8.3022  -14.1554   28.1476 C   0  0  0  0  0  0  0  0  0  0  0  0
    9.6289  -13.5417   27.6894 C   0  0  0  0  0  0  0  0  0  0  0  0
   10.4145  -14.8389   27.4463 C   0  0  1  0  0  0  0  0  0  0  0  0
   10.6862  -15.4089   28.8066 C   0  0  0  0  0  0  0  0  0  0  0  0
   11.4736  -14.8326   29.5771 O   0  0  0  0  0  0  0  0  0  0  0  0
   10.0726  -16.5739   29.2248 O   0  0  0  0  0  0  0  0  0  0  0  0
  2  1  1  6
  2  3  1  0
  3  4  1  0
  4  9  1  0
  5  4  2  0
  5  6  1  0
  6  7  2  0
  7  8  1  0
  9  8  2  0
 10 12  1  0
 10  2  1  0
 11 10  2  0
 13 12  1  0
 13 14  1  1
 14 15  1  0
 15 16  1  0
 16 17  2  0
 18 13  1  0
 19 18  2  0
 20 16  1  0
 21 18  1  0
 21 25  1  0
 22 23  1  0
 22 21  1  0
 23 24  1  0
 25 24  1  0
 26 28  1  0
 25 26  1  1
 27 26  2  0
M  END
$$$$
