FEP.pdb
     RDKit          3D

 28 29  0  0  1  0  0  0  0  0999 V2000
    5.9792  -17.6473   26.3870 N   0  0  0  0  0  0  0  0  0  0  0  0
    6.7455  -16.5504   25.8850 C   0  0  1  0  0  0  0  0  0  0  0  0
    7.4419  -15.8097   26.9811 C   0  0  0  0  0  0  0  0  0  0  0  0
    7.2475  -14.3644   26.7749 C   0  0  0  0  0  0  0  0  0  0  0  0
    8.3028  -13.5317   26.4739 C   0  0  0  0  0  0  0  0  0  0  0  0
    8.1152  -12.1690   26.2814 C   0  0  0  0  0  0  0  0  0  0  0  0
    6.8587  -11.6217   26.3892 C   0  0  0  0  0  0  0  0  0  0  0  0
    5.7938  -12.4398   26.6894 C   0  0  0  0  0  0  0  0  0  0  0  0
    5.9969  -13.8064   26.8800 C   0  0  0  0  0  0  0  0  0  0  0  0
    7.6460  -16.9398   24.7699 C   0  0  0  0  0  0  0  0  0  0  0  0
    8.4241  -17.9111   24.9432 O   0  0  0  0  0  0  0  0  0  0  0  0
    7.6640  -16.2658   23.5279 N   0  0  0  0  0  0  0  0  0  0  0  0
    8.6449  -16.5968   22.5095 C   0  0  1  0  0  0  0  0  0  0  0  0
    8.1737  -16.0625   21.1907 C   0  0  0  0  0  0  0  0  0  0  0  0
    9.0333  -16.2172   20.0112 C   0  0  0  0  0  0  0  0  0  0  0  0
    8.5703  -15.8072   18.7049 C   0  0  0  0  0  0  0  0  0  0  0  0
    9.3315  -15.6180   17.7409 O   0  0  0  0  0  0  0  0  0  0  0  0
    9.9839  -16.1722   22.8822 C   0  0  0  0  0  0  0  0  0  0  0  0
   10.0998  -15.0216   23.4374 O   0  0  0  0  0  0  0  0  0  0  0  0
    7.2084  -15.6139   18.5114 O   0  0  0  0  0  0  0  0  0  0  0  0
   11.1718  -16.9133   22.6903 N   0  0  0  0  0  0  0  0  0  0  0  0
   11.2409  -18.2532   22.0472 C   0  0  0  0  0  0  0  0  0  0  0  0
   12.4506  -18.9342   22.5914 C   0  0  0  0  0  0  0  0  0  0  0  0
   13.0051  -17.9794   23.6533 C   0  0  0  0  0  0  0  0  0  0  0  0
   12.5466  -16.6505   23.0347 C   0  0  1  0  0  0  0  0  0  0  0  0
   13.4094  -16.4477   21.8250 C   0  0  0  0  0  0  0  0  0  0  0  0
   14.5516  -15.9720   21.9476 O   0  0  0  0  0  0  0  0  0  0  0  0
   12.9555  -16.7823   20.5638 O   0  0  0  0  0  0  0  0  0  0  0  0
  2  1  1  1
  2  3  1  0
  3  4  1  0
  4  9  1  0
  5  4  2  0
  5  6  1  0
  6  7  2  0
  7  8  1  0
  9  8  2  0
 10 12  1  0
 10  2  1  0
 11 10  2  0
 13 12  1  0
 13 14  1  6
 14 15  1  0
 15 16  1  0
 16 17  2  0
 18 13  1  0
 19 18  2  0
 20 16  1  0
 21 18  1  0
 21 25  1  0
 22 23  1  0
 22 21  1  0
 23 24  1  0
 25 24  1  0
 26 28  1  0
 25 26  1  6
 27 26  2  0
M  END
$$$$
