FEP.pdb
     RDKit          3D

 28 29  0  0  1  0  0  0  0  0999 V2000
    8.4743  -16.1644   27.6312 N   0  0  0  0  0  0  0  0  0  0  0  0
    7.7402  -16.1891   26.4053 C   0  0  1  0  0  0  0  0  0  0  0  0
    6.4035  -15.5339   26.5433 C   0  0  0  0  0  0  0  0  0  0  0  0
    6.6029  -14.0910   26.7622 C   0  0  0  0  0  0  0  0  0  0  0  0
    7.5912  -13.6195   27.5979 C   0  0  0  0  0  0  0  0  0  0  0  0
    7.7750  -12.2580   27.8024 C   0  0  0  0  0  0  0  0  0  0  0  0
    6.9644  -11.3473   27.1671 C   0  0  0  0  0  0  0  0  0  0  0  0
    5.9724  -11.8021   26.3290 C   0  0  0  0  0  0  0  0  0  0  0  0
    5.7993  -13.1721   26.1329 C   0  0  0  0  0  0  0  0  0  0  0  0
    8.5288  -15.6858   25.2518 C   0  0  0  0  0  0  0  0  0  0  0  0
    9.1681  -14.6127   25.3893 O   0  0  0  0  0  0  0  0  0  0  0  0
    8.5895  -16.3606   24.0116 N   0  0  0  0  0  0  0  0  0  0  0  0
    9.1786  -15.7305   22.8433 C   0  0  1  0  0  0  0  0  0  0  0  0
   10.5035  -16.3727   22.5624 C   0  0  0  0  0  0  0  0  0  0  0  0
   11.2682  -15.9428   21.3857 C   0  0  0  0  0  0  0  0  0  0  0  0
   12.5620  -16.5196   21.0986 C   0  0  0  0  0  0  0  0  0  0  0  0
   13.4247  -16.7247   21.9693 O   0  0  0  0  0  0  0  0  0  0  0  0
    8.2678  -15.7195   21.7109 C   0  0  0  0  0  0  0  0  0  0  0  0
    7.2758  -16.5319   21.7497 O   0  0  0  0  0  0  0  0  0  0  0  0
   12.8615  -16.8637   19.7865 O   0  0  0  0  0  0  0  0  0  0  0  0
    8.3741  -14.8926   20.5698 N   0  0  0  0  0  0  0  0  0  0  0  0
    9.4513  -13.8910   20.3456 C   0  0  0  0  0  0  0  0  0  0  0  0
    8.8918  -12.8471   19.4399 C   0  0  0  0  0  0  0  0  0  0  0  0
    7.4208  -13.2290   19.2475 C   0  0  0  0  0  0  0  0  0  0  0  0
    7.5541  -14.7522   19.3926 C   0  0  1  0  0  0  0  0  0  0  0  0
    8.2540  -15.2177   18.1506 C   0  0  0  0  0  0  0  0  0  0  0  0
    7.6438  -15.2516   17.0678 O   0  0  0  0  0  0  0  0  0  0  0  0
    9.5770  -15.6139   18.1860 O   0  0  0  0  0  0  0  0  0  0  0  0
  2  1  1  1
  2  3  1  0
  3  4  1  0
  4  9  1  0
  5  4  2  0
  5  6  1  0
  6  7  2  0
  7  8  1  0
  9  8  2  0
 10 12  1  0
 10  2  1  0
 11 10  2  0
 13 12  1  0
 13 14  1  6
 14 15  1  0
 15 16  1  0
 16 17  2  0
 18 13  1  0
 19 18  2  0
 20 16  1  0
 21 18  1  0
 21 25  1  0
 22 23  1  0
 22 21  1  0
 23 24  1  0
 25 24  1  0
 26 28  1  0
 25 26  1  6
 27 26  2  0
M  END
$$$$
