FEP.pdb
     RDKit          3D

 28 29  0  0  1  0  0  0  0  0999 V2000
    5.6403  -17.7211   25.9808 N   0  0  0  0  0  0  0  0  0  0  0  0
    6.2818  -16.4589   25.7861 C   0  0  1  0  0  0  0  0  0  0  0  0
    6.9971  -16.0021   27.0168 C   0  0  0  0  0  0  0  0  0  0  0  0
    7.0459  -14.5299   27.0181 C   0  0  0  0  0  0  0  0  0  0  0  0
    5.9005  -13.7717   27.1208 C   0  0  0  0  0  0  0  0  0  0  0  0
    5.9511  -12.3836   27.1204 C   0  0  0  0  0  0  0  0  0  0  0  0
    7.1589  -11.7354   27.0162 C   0  0  0  0  0  0  0  0  0  0  0  0
    8.3125  -12.4783   26.9127 C   0  0  0  0  0  0  0  0  0  0  0  0
    8.2468  -13.8715   26.9146 C   0  0  0  0  0  0  0  0  0  0  0  0
    7.1261  -16.4247   24.5648 C   0  0  0  0  0  0  0  0  0  0  0  0
    7.9844  -17.3289   24.4076 O   0  0  0  0  0  0  0  0  0  0  0  0
    7.0049  -15.4216   23.5767 N   0  0  0  0  0  0  0  0  0  0  0  0
    7.9229  -15.3612   22.4530 C   0  0  1  0  0  0  0  0  0  0  0  0
    7.4943  -14.2559   21.5358 C   0  0  0  0  0  0  0  0  0  0  0  0
    8.2290  -14.0448   20.2829 C   0  0  0  0  0  0  0  0  0  0  0  0
    8.2626  -15.0732   19.2679 C   0  0  0  0  0  0  0  0  0  0  0  0
    7.3262  -15.2812   18.4777 O   0  0  0  0  0  0  0  0  0  0  0  0
    9.3084  -15.2772   22.8834 C   0  0  0  0  0  0  0  0  0  0  0  0
    9.5884  -14.4139   23.7900 O   0  0  0  0  0  0  0  0  0  0  0  0
    9.3949  -15.8714   19.1657 O   0  0  0  0  0  0  0  0  0  0  0  0
   10.3770  -16.0624   22.3949 N   0  0  0  0  0  0  0  0  0  0  0  0
   10.2550  -17.0894   21.3253 C   0  0  0  0  0  0  0  0  0  0  0  0
   11.3484  -18.0788   21.5465 C   0  0  0  0  0  0  0  0  0  0  0  0
   12.0280  -17.6418   22.8480 C   0  0  0  0  0  0  0  0  0  0  0  0
   11.7728  -16.1305   22.7486 C   0  0  1  0  0  0  0  0  0  0  0  0
   12.6652  -15.6405   21.6474 C   0  0  0  0  0  0  0  0  0  0  0  0
   12.2296  -15.5515   20.4862 O   0  0  0  0  0  0  0  0  0  0  0  0
   13.9753  -15.2824   21.9001 O   0  0  0  0  0  0  0  0  0  0  0  0
  2  1  1  1
  2  3  1  0
  3  4  1  0
  4  9  1  0
  5  4  2  0
  5  6  1  0
  6  7  2  0
  7  8  1  0
  9  8  2  0
 10 12  1  0
 10  2  1  0
 11 10  2  0
 13 12  1  0
 13 14  1  1
 14 15  1  0
 15 16  1  0
 16 17  2  0
 18 13  1  0
 19 18  2  0
 20 16  1  0
 21 18  1  0
 21 25  1  0
 22 23  1  0
 22 21  1  0
 23 24  1  0
 25 24  1  0
 26 28  1  0
 25 26  1  6
 27 26  2  0
M  END
$$$$
