FEP.pdb
     RDKit          3D

 28 29  0  0  1  0  0  0  0  0999 V2000
    7.3811  -17.9915   19.6797 N   0  0  0  0  0  0  0  0  0  0  0  0
    7.6391  -16.6879   20.2054 C   0  0  1  0  0  0  0  0  0  0  0  0
    6.8732  -15.6315   19.4757 C   0  0  0  0  0  0  0  0  0  0  0  0
    7.2663  -14.3127   20.0006 C   0  0  0  0  0  0  0  0  0  0  0  0
    8.2468  -13.5593   19.3935 C   0  0  0  0  0  0  0  0  0  0  0  0
    8.6152  -12.3165   19.8926 C   0  0  0  0  0  0  0  0  0  0  0  0
    8.0007  -11.8114   21.0139 C   0  0  0  0  0  0  0  0  0  0  0  0
    7.0193  -12.5516   21.6322 C   0  0  0  0  0  0  0  0  0  0  0  0
    6.6594  -13.7979   21.1200 C   0  0  0  0  0  0  0  0  0  0  0  0
    7.4804  -16.6203   21.6806 C   0  0  0  0  0  0  0  0  0  0  0  0
    6.3529  -16.8786   22.1715 O   0  0  0  0  0  0  0  0  0  0  0  0
    8.5402  -16.2788   22.5509 N   0  0  0  0  0  0  0  0  0  0  0  0
    8.3969  -16.4015   23.9908 C   0  0  1  0  0  0  0  0  0  0  0  0
    8.8385  -17.7721   24.4068 C   0  0  0  0  0  0  0  0  0  0  0  0
    9.8192  -18.4859   23.5804 C   0  0  0  0  0  0  0  0  0  0  0  0
   10.9325  -19.1760   24.1916 C   0  0  0  0  0  0  0  0  0  0  0  0
   11.8414  -19.7153   23.5377 O   0  0  0  0  0  0  0  0  0  0  0  0
    9.0590  -15.3194   24.6999 C   0  0  0  0  0  0  0  0  0  0  0  0
   10.2120  -14.9571   24.2701 O   0  0  0  0  0  0  0  0  0  0  0  0
   10.9949  -19.2429   25.5776 O   0  0  0  0  0  0  0  0  0  0  0  0
    8.5467  -14.6273   25.8205 N   0  0  0  0  0  0  0  0  0  0  0  0
    7.1977  -14.8463   26.4087 C   0  0  0  0  0  0  0  0  0  0  0  0
    6.8077  -13.5762   27.0855 C   0  0  0  0  0  0  0  0  0  0  0  0
    7.9333  -12.5881   26.7642 C   0  0  0  0  0  0  0  0  0  0  0  0
    9.0954  -13.5861   26.6528 C   0  0  1  0  0  0  0  0  0  0  0  0
    9.3622  -14.0550   28.0521 C   0  0  0  0  0  0  0  0  0  0  0  0
    8.9246  -15.1543   28.4343 O   0  0  0  0  0  0  0  0  0  0  0  0
   10.0920  -13.2818   28.9341 O   0  0  0  0  0  0  0  0  0  0  0  0
  2  1  1  6
  2  3  1  0
  3  4  1  0
  4  9  1  0
  5  4  2  0
  5  6  1  0
  6  7  2  0
  7  8  1  0
  9  8  2  0
 10 12  1  0
 10  2  1  0
 11 10  2  0
 13 12  1  0
 13 14  1  1
 14 15  1  0
 15 16  1  0
 16 17  2  0
 18 13  1  0
 19 18  2  0
 20 16  1  0
 21 18  1  0
 21 25  1  0
 22 23  1  0
 22 21  1  0
 23 24  1  0
 25 24  1  0
 26 28  1  0
 25 26  1  1
 27 26  2  0
M  END
$$$$
