FEP.pdb
     RDKit          3D

 28 29  0  0  1  0  0  0  0  0999 V2000
    9.0600  -15.0278   26.4503 N   0  0  0  0  0  0  0  0  0  0  0  0
    8.6506  -14.7030   25.1202 C   0  0  1  0  0  0  0  0  0  0  0  0
    8.3703  -13.2428   24.9646 C   0  0  0  0  0  0  0  0  0  0  0  0
    7.4490  -12.8202   26.0333 C   0  0  0  0  0  0  0  0  0  0  0  0
    7.8465  -11.9492   27.0238 C   0  0  0  0  0  0  0  0  0  0  0  0
    6.9748  -11.5543   28.0304 C   0  0  0  0  0  0  0  0  0  0  0  0
    5.6857  -12.0313   28.0559 C   0  0  0  0  0  0  0  0  0  0  0  0
    5.2729  -12.9022   27.0737 C   0  0  0  0  0  0  0  0  0  0  0  0
    6.1590  -13.2901   26.0689 C   0  0  0  0  0  0  0  0  0  0  0  0
    9.5717  -15.2413   24.0868 C   0  0  0  0  0  0  0  0  0  0  0  0
   10.7964  -14.9774   24.1839 O   0  0  0  0  0  0  0  0  0  0  0  0
    9.1295  -16.0341   23.0037 N   0  0  0  0  0  0  0  0  0  0  0  0
    9.7634  -15.9433   21.7003 C   0  0  1  0  0  0  0  0  0  0  0  0
   10.7203  -17.0866   21.5459 C   0  0  0  0  0  0  0  0  0  0  0  0
   11.4527  -17.2370   20.2829 C   0  0  0  0  0  0  0  0  0  0  0  0
   12.3920  -18.3204   20.1020 C   0  0  0  0  0  0  0  0  0  0  0  0
   13.2369  -18.3445   19.1909 O   0  0  0  0  0  0  0  0  0  0  0  0
    8.7908  -15.8289   20.6265 C   0  0  0  0  0  0  0  0  0  0  0  0
    7.7153  -16.5196   20.7350 O   0  0  0  0  0  0  0  0  0  0  0  0
   12.3534  -19.3903   20.9872 O   0  0  0  0  0  0  0  0  0  0  0  0
    8.9210  -15.0233   19.4727 N   0  0  0  0  0  0  0  0  0  0  0  0
   10.0835  -14.1419   19.1806 C   0  0  0  0  0  0  0  0  0  0  0  0
    9.5882  -13.0491   18.2953 C   0  0  0  0  0  0  0  0  0  0  0  0
    8.0769  -13.2748   18.1862 C   0  0  0  0  0  0  0  0  0  0  0  0
    8.0573  -14.8029   18.3399 C   0  0  1  0  0  0  0  0  0  0  0  0
    8.6357  -15.3455   17.0671 C   0  0  0  0  0  0  0  0  0  0  0  0
    9.8220  -15.7161   17.0306 O   0  0  0  0  0  0  0  0  0  0  0  0
    7.8686  -15.4428   15.9223 O   0  0  0  0  0  0  0  0  0  0  0  0
  2  1  1  1
  2  3  1  0
  3  4  1  0
  4  9  1  0
  5  4  2  0
  5  6  1  0
  6  7  2  0
  7  8  1  0
  9  8  2  0
 10 12  1  0
 10  2  1  0
 11 10  2  0
 13 12  1  0
 13 14  1  6
 14 15  1  0
 15 16  1  0
 16 17  2  0
 18 13  1  0
 19 18  2  0
 20 16  1  0
 21 18  1  0
 21 25  1  0
 22 23  1  0
 22 21  1  0
 23 24  1  0
 25 24  1  0
 26 28  1  0
 25 26  1  6
 27 26  2  0
M  END
$$$$
