PDH.pdb
     RDKit          3D

 26 27  0  0  1  0  0  0  0  0999 V2000
    8.2234  -14.6708   18.1605 N   0  0  0  0  0  0  0  0  0  0  0  0
    7.0556  -14.0960   18.8166 C   0  0  0  0  0  0  0  0  0  0  0  0
    7.5646  -12.9242   19.6177 C   0  0  0  0  0  0  0  0  0  0  0  0
    9.0609  -12.9132   19.4085 C   0  0  0  0  0  0  0  0  0  0  0  0
    9.3502  -14.3402   19.0125 C   0  0  1  0  0  0  0  0  0  0  0  0
    9.3478  -15.2649   20.1474 C   0  0  0  0  0  0  0  0  0  0  0  0
    8.2847  -15.5495   20.7924 O   0  0  0  0  0  0  0  0  0  0  0  0
   10.5359  -15.9234   20.6243 N   0  0  0  0  0  0  0  0  0  0  0  0
   10.5140  -16.7367   21.8088 C   0  0  1  0  0  0  0  0  0  0  0  0
   11.7671  -17.5645   21.8583 C   0  0  0  0  0  0  0  0  0  0  0  0
   11.7441  -18.5454   22.9651 C   0  0  0  0  0  0  0  0  0  0  0  0
   10.7173  -18.8869   23.6011 O   0  0  0  0  0  0  0  0  0  0  0  0
   10.3686  -15.9735   23.0694 C   0  0  0  0  0  0  0  0  0  0  0  0
   11.1740  -15.0252   23.2417 O   0  0  0  0  0  0  0  0  0  0  0  0
   12.9550  -19.1440   23.3391 O   0  0  0  0  0  0  0  0  0  0  0  0
    9.4011  -16.2460   24.0636 N   0  0  0  0  0  0  0  0  0  0  0  0
    9.0881  -15.3178   25.1673 C   0  0  1  0  0  0  0  0  0  0  0  0
    7.6706  -14.8879   25.1073 C   0  0  0  0  0  0  0  0  0  0  0  0
    7.2555  -13.8543   26.0557 C   0  0  0  0  0  0  0  0  0  0  0  0
    7.8861  -13.1096   26.9978 C   0  0  0  0  0  0  0  0  0  0  0  0
    7.0120  -12.2221   27.5595 N   0  0  0  0  0  0  0  0  0  0  0  0
    5.8605  -12.4386   26.9492 C   0  0  0  0  0  0  0  0  0  0  0  0
    5.9628  -13.3987   26.0499 N   0  0  0  0  0  0  0  0  0  0  0  0
    9.3092  -16.0588   26.4511 C   0  0  0  0  0  0  0  0  0  0  0  0
    9.4750  -15.4890   27.6774 O   0  0  0  0  0  0  0  0  0  0  0  0
    9.3441  -17.3148   26.4032 O   0  0  0  0  0  0  0  0  0  0  0  0
  1  2  1  0
  2  3  1  0
  4  3  1  0
  5  1  1  0
  5  4  1  0
  5  6  1  1
  7  6  2  0
  8  6  1  0
  9  8  1  0
  9 10  1  1
 11 10  1  0
 11 15  1  0
 12 11  2  0
 13  9  1  0
 13 16  1  0
 14 13  2  0
 17 16  1  0
 17 24  1  0
 17 18  1  6
 19 18  1  0
 19 20  2  0
 21 20  1  0
 22 21  1  0
 23 22  2  0
 23 19  1  0
 24 25  1  0
 26 24  2  0
M  END
$$$$
