PDH.pdb
     RDKit          3D

 26 27  0  0  1  0  0  0  0  0999 V2000
    9.1983  -12.8637   17.3848 N   0  0  0  0  0  0  0  0  0  0  0  0
    8.3998  -13.8783   16.7084 C   0  0  0  0  0  0  0  0  0  0  0  0
    7.4284  -14.3968   17.7388 C   0  0  0  0  0  0  0  0  0  0  0  0
    7.7616  -13.6577   19.0137 C   0  0  0  0  0  0  0  0  0  0  0  0
    9.1924  -13.2353   18.7872 C   0  0  1  0  0  0  0  0  0  0  0  0
   10.1513  -14.3259   18.9719 C   0  0  0  0  0  0  0  0  0  0  0  0
    9.8421  -15.4119   19.5654 O   0  0  0  0  0  0  0  0  0  0  0  0
   11.5107  -14.2622   18.5024 N   0  0  0  0  0  0  0  0  0  0  0  0
   12.5171  -15.1553   19.0070 C   0  0  1  0  0  0  0  0  0  0  0  0
   13.8607  -14.7199   18.4938 C   0  0  0  0  0  0  0  0  0  0  0  0
   14.8971  -15.7556   18.6956 C   0  0  0  0  0  0  0  0  0  0  0  0
   15.9876  -15.5745   19.2902 O   0  0  0  0  0  0  0  0  0  0  0  0
   12.5552  -15.2586   20.4837 C   0  0  0  0  0  0  0  0  0  0  0  0
   12.8843  -14.2183   21.1059 O   0  0  0  0  0  0  0  0  0  0  0  0
   14.6523  -17.0390   18.1882 O   0  0  0  0  0  0  0  0  0  0  0  0
   12.2515  -16.4313   21.2125 N   0  0  0  0  0  0  0  0  0  0  0  0
   12.1566  -16.4699   22.6847 C   0  0  1  0  0  0  0  0  0  0  0  0
   10.8690  -17.0667   23.1135 C   0  0  0  0  0  0  0  0  0  0  0  0
    9.6820  -16.2185   23.0054 C   0  0  0  0  0  0  0  0  0  0  0  0
    9.4642  -14.9024   22.7604 C   0  0  0  0  0  0  0  0  0  0  0  0
    8.1225  -14.6503   22.6996 N   0  0  0  0  0  0  0  0  0  0  0  0
    7.5422  -15.8188   22.9072 C   0  0  0  0  0  0  0  0  0  0  0  0
    8.4324  -16.7748   23.0926 N   0  0  0  0  0  0  0  0  0  0  0  0
   13.2742  -17.3357   23.1823 C   0  0  0  0  0  0  0  0  0  0  0  0
   13.5816  -17.5600   24.4903 O   0  0  0  0  0  0  0  0  0  0  0  0
   13.9944  -17.9104   22.3269 O   0  0  0  0  0  0  0  0  0  0  0  0
  1  2  1  0
  2  3  1  0
  4  3  1  0
  5  1  1  0
  5  4  1  0
  5  6  1  6
  7  6  2  0
  8  6  1  0
  9  8  1  0
  9 10  1  1
 11 10  1  0
 11 15  1  0
 12 11  2  0
 13  9  1  0
 13 16  1  0
 14 13  2  0
 17 16  1  0
 17 24  1  0
 17 18  1  6
 19 18  1  0
 19 20  2  0
 21 20  1  0
 22 21  1  0
 23 22  2  0
 23 19  1  0
 24 25  1  0
 26 24  2  0
M  END
$$$$
