PDH.pdb
     RDKit          3D

 26 27  0  0  1  0  0  0  0  0999 V2000
    8.7657  -14.2344   18.5152 N   0  0  0  0  0  0  0  0  0  0  0  0
    7.3109  -14.2343   18.6047 C   0  0  0  0  0  0  0  0  0  0  0  0
    6.9557  -13.1465   19.5868 C   0  0  0  0  0  0  0  0  0  0  0  0
    8.2761  -12.5872   20.0627 C   0  0  0  0  0  0  0  0  0  0  0  0
    9.2337  -13.7207   19.7888 C   0  0  1  0  0  0  0  0  0  0  0  0
    9.1457  -14.8001   20.7738 C   0  0  0  0  0  0  0  0  0  0  0  0
    8.0755  -15.0440   21.4238 O   0  0  0  0  0  0  0  0  0  0  0  0
   10.2511  -15.6677   21.0866 N   0  0  0  0  0  0  0  0  0  0  0  0
   10.1425  -16.6781   22.1026 C   0  0  1  0  0  0  0  0  0  0  0  0
   11.2781  -17.6504   21.9504 C   0  0  0  0  0  0  0  0  0  0  0  0
   11.0662  -18.8832   22.7395 C   0  0  0  0  0  0  0  0  0  0  0  0
   10.0334  -19.1422   23.4042 O   0  0  0  0  0  0  0  0  0  0  0  0
   10.1176  -16.1509   23.4861 C   0  0  0  0  0  0  0  0  0  0  0  0
   11.0648  -15.3920   23.8095 O   0  0  0  0  0  0  0  0  0  0  0  0
   12.0900  -19.8404   22.7523 O   0  0  0  0  0  0  0  0  0  0  0  0
    9.1151  -16.4470   24.4380 N   0  0  0  0  0  0  0  0  0  0  0  0
    9.0793  -15.8553   25.7895 C   0  0  1  0  0  0  0  0  0  0  0  0
    7.6940  -15.4836   26.1647 C   0  0  0  0  0  0  0  0  0  0  0  0
    7.3544  -14.0620   26.1032 C   0  0  0  0  0  0  0  0  0  0  0  0
    8.0585  -12.9154   25.9330 C   0  0  0  0  0  0  0  0  0  0  0  0
    7.2107  -11.8447   25.8847 N   0  0  0  0  0  0  0  0  0  0  0  0
    6.0007  -12.3562   26.0249 C   0  0  0  0  0  0  0  0  0  0  0  0
    6.0425  -13.6683   26.1569 N   0  0  0  0  0  0  0  0  0  0  0  0
    9.5708  -16.8980   26.7473 C   0  0  0  0  0  0  0  0  0  0  0  0
    9.9481  -18.1644   26.4161 O   0  0  0  0  0  0  0  0  0  0  0  0
    9.6472  -16.5863   27.9629 O   0  0  0  0  0  0  0  0  0  0  0  0
  1  2  1  0
  2  3  1  0
  4  3  1  0
  5  1  1  0
  5  4  1  0
  5  6  1  1
  7  6  2  0
  8  6  1  0
  9  8  1  0
  9 10  1  1
 11 10  1  0
 11 15  1  0
 12 11  2  0
 13  9  1  0
 13 16  1  0
 14 13  2  0
 17 16  1  0
 17 24  1  0
 17 18  1  1
 19 18  1  0
 19 20  2  0
 21 20  1  0
 22 21  1  0
 23 22  2  0
 23 19  1  0
 24 25  1  0
 26 24  2  0
M  END
$$$$
