PDH.pdb
     RDKit          3D

 26 27  0  0  1  0  0  0  0  0999 V2000
    8.8649  -14.7214   17.8277 N   0  0  0  0  0  0  0  0  0  0  0  0
    7.4483  -14.3962   17.9379 C   0  0  0  0  0  0  0  0  0  0  0  0
    7.3729  -13.1535   18.7889 C   0  0  0  0  0  0  0  0  0  0  0  0
    8.8001  -12.8432   19.1754 C   0  0  0  0  0  0  0  0  0  0  0  0
    9.4822  -14.1807   19.0241 C   0  0  1  0  0  0  0  0  0  0  0  0
    9.2056  -15.0971   20.1316 C   0  0  0  0  0  0  0  0  0  0  0  0
    8.1589  -14.9969   20.8539 O   0  0  0  0  0  0  0  0  0  0  0  0
   10.0855  -16.1778   20.4930 N   0  0  0  0  0  0  0  0  0  0  0  0
    9.8577  -16.9619   21.6755 C   0  0  1  0  0  0  0  0  0  0  0  0
   10.8413  -18.0975   21.7077 C   0  0  0  0  0  0  0  0  0  0  0  0
   10.1865  -19.3949   21.9822 C   0  0  0  0  0  0  0  0  0  0  0  0
    8.9732  -19.5407   22.2694 O   0  0  0  0  0  0  0  0  0  0  0  0
    9.9375  -16.1952   22.9398 C   0  0  0  0  0  0  0  0  0  0  0  0
   10.8708  -15.3590   23.0255 O   0  0  0  0  0  0  0  0  0  0  0  0
   10.9713  -20.5544   21.9195 O   0  0  0  0  0  0  0  0  0  0  0  0
    9.0469  -16.3485   24.0270 N   0  0  0  0  0  0  0  0  0  0  0  0
    8.8936  -15.3451   25.0982 C   0  0  1  0  0  0  0  0  0  0  0  0
    7.5400  -14.7414   25.0640 C   0  0  0  0  0  0  0  0  0  0  0  0
    7.2291  -13.7632   26.1064 C   0  0  0  0  0  0  0  0  0  0  0  0
    7.9236  -13.1915   27.1214 C   0  0  0  0  0  0  0  0  0  0  0  0
    7.1470  -12.2669   27.7614 N   0  0  0  0  0  0  0  0  0  0  0  0
    5.9898  -12.2882   27.1246 C   0  0  0  0  0  0  0  0  0  0  0  0
    5.9976  -13.1621   26.1361 N   0  0  0  0  0  0  0  0  0  0  0  0
    9.0669  -16.0569   26.4057 C   0  0  0  0  0  0  0  0  0  0  0  0
    9.4145  -15.4731   27.5865 O   0  0  0  0  0  0  0  0  0  0  0  0
    8.8752  -17.2993   26.4254 O   0  0  0  0  0  0  0  0  0  0  0  0
  1  2  1  0
  2  3  1  0
  4  3  1  0
  5  1  1  0
  5  4  1  0
  5  6  1  1
  7  6  2  0
  8  6  1  0
  9  8  1  0
  9 10  1  1
 11 10  1  0
 11 15  1  0
 12 11  2  0
 13  9  1  0
 13 16  1  0
 14 13  2  0
 17 16  1  0
 17 24  1  0
 17 18  1  1
 19 18  1  0
 19 20  2  0
 21 20  1  0
 22 21  1  0
 23 22  2  0
 23 19  1  0
 24 25  1  0
 26 24  2  0
M  END
$$$$
