PDH.pdb
     RDKit          3D

 26 27  0  0  1  0  0  0  0  0999 V2000
    8.3476  -14.2268   17.3901 N   0  0  0  0  0  0  0  0  0  0  0  0
    7.4230  -14.1983   18.5165 C   0  0  0  0  0  0  0  0  0  0  0  0
    7.7400  -12.9382   19.2818 C   0  0  0  0  0  0  0  0  0  0  0  0
    8.9039  -12.3073   18.5537 C   0  0  0  0  0  0  0  0  0  0  0  0
    9.5128  -13.4796   17.8245 C   0  0  1  0  0  0  0  0  0  0  0  0
   10.3106  -14.3470   18.6930 C   0  0  0  0  0  0  0  0  0  0  0  0
    9.7835  -15.2491   19.4248 O   0  0  0  0  0  0  0  0  0  0  0  0
   11.7439  -14.2534   18.7910 N   0  0  0  0  0  0  0  0  0  0  0  0
   12.5034  -15.2053   19.5537 C   0  0  1  0  0  0  0  0  0  0  0  0
   13.9681  -14.9240   19.3699 C   0  0  0  0  0  0  0  0  0  0  0  0
   14.4393  -15.2838   18.0149 C   0  0  0  0  0  0  0  0  0  0  0  0
   14.6859  -14.4623   17.0984 O   0  0  0  0  0  0  0  0  0  0  0  0
   12.1762  -15.2294   20.9977 C   0  0  0  0  0  0  0  0  0  0  0  0
   11.4943  -14.2671   21.4298 O   0  0  0  0  0  0  0  0  0  0  0  0
   14.6278  -16.6415   17.7228 O   0  0  0  0  0  0  0  0  0  0  0  0
   12.5786  -16.2467   21.8932 N   0  0  0  0  0  0  0  0  0  0  0  0
   11.8861  -16.5282   23.1656 C   0  0  1  0  0  0  0  0  0  0  0  0
   10.4874  -16.9541   22.9205 C   0  0  0  0  0  0  0  0  0  0  0  0
    9.4861  -15.8933   22.8100 C   0  0  0  0  0  0  0  0  0  0  0  0
    9.5069  -14.5414   22.9172 C   0  0  0  0  0  0  0  0  0  0  0  0
    8.2703  -14.0281   22.6441 N   0  0  0  0  0  0  0  0  0  0  0  0
    7.5138  -15.0765   22.3726 C   0  0  0  0  0  0  0  0  0  0  0  0
    8.1973  -16.2017   22.4597 N   0  0  0  0  0  0  0  0  0  0  0  0
   12.6181  -17.6524   23.8339 C   0  0  0  0  0  0  0  0  0  0  0  0
   12.5163  -17.9945   25.1486 O   0  0  0  0  0  0  0  0  0  0  0  0
   13.3936  -18.3467   23.1287 O   0  0  0  0  0  0  0  0  0  0  0  0
  1  2  1  0
  2  3  1  0
  4  3  1  0
  5  1  1  0
  5  4  1  0
  5  6  1  1
  7  6  2  0
  8  6  1  0
  9  8  1  0
  9 10  1  1
 11 10  1  0
 11 15  1  0
 12 11  2  0
 13  9  1  0
 13 16  1  0
 14 13  2  0
 17 16  1  0
 17 24  1  0
 17 18  1  6
 19 18  1  0
 19 20  2  0
 21 20  1  0
 22 21  1  0
 23 22  2  0
 23 19  1  0
 24 25  1  0
 26 24  2  0
M  END
$$$$
