PDH.pdb
     RDKit          3D

 26 27  0  0  1  0  0  0  0  0999 V2000
    8.8069  -14.1821   18.1115 N   0  0  0  0  0  0  0  0  0  0  0  0
    7.5892  -13.8537   18.8421 C   0  0  0  0  0  0  0  0  0  0  0  0
    7.9986  -12.8717   19.9108 C   0  0  0  0  0  0  0  0  0  0  0  0
    9.4939  -12.7153   19.7621 C   0  0  0  0  0  0  0  0  0  0  0  0
    9.8912  -13.9881   19.0557 C   0  0  1  0  0  0  0  0  0  0  0  0
    9.9332  -15.1511   19.9439 C   0  0  0  0  0  0  0  0  0  0  0  0
    9.0029  -16.0236   19.9688 O   0  0  0  0  0  0  0  0  0  0  0  0
   11.0194  -15.4028   20.8547 N   0  0  0  0  0  0  0  0  0  0  0  0
   11.1464  -16.6623   21.5346 C   0  0  1  0  0  0  0  0  0  0  0  0
   12.5903  -17.0787   21.5296 C   0  0  0  0  0  0  0  0  0  0  0  0
   12.7874  -18.4152   22.1315 C   0  0  0  0  0  0  0  0  0  0  0  0
   11.9675  -19.3631   22.0605 O   0  0  0  0  0  0  0  0  0  0  0  0
   10.6314  -16.6601   22.9229 C   0  0  0  0  0  0  0  0  0  0  0  0
   10.5335  -17.7806   23.4819 O   0  0  0  0  0  0  0  0  0  0  0  0
   13.9758  -18.6508   22.8362 O   0  0  0  0  0  0  0  0  0  0  0  0
   10.2525  -15.4988   23.6347 N   0  0  0  0  0  0  0  0  0  0  0  0
    9.5530  -15.5353   24.9336 C   0  0  1  0  0  0  0  0  0  0  0  0
    8.1579  -16.0084   24.7668 C   0  0  0  0  0  0  0  0  0  0  0  0
    7.3888  -15.4172   23.6718 C   0  0  0  0  0  0  0  0  0  0  0  0
    7.1410  -14.1526   23.2488 C   0  0  0  0  0  0  0  0  0  0  0  0
    6.3974  -14.1764   22.1027 N   0  0  0  0  0  0  0  0  0  0  0  0
    6.2043  -15.4573   21.8433 C   0  0  0  0  0  0  0  0  0  0  0  0
    6.7766  -16.2261   22.7500 N   0  0  0  0  0  0  0  0  0  0  0  0
   10.2858  -16.5061   25.8091 C   0  0  0  0  0  0  0  0  0  0  0  0
   11.3871  -17.2231   25.4499 O   0  0  0  0  0  0  0  0  0  0  0  0
    9.8566  -16.6791   26.9781 O   0  0  0  0  0  0  0  0  0  0  0  0
  1  2  1  0
  2  3  1  0
  4  3  1  0
  5  1  1  0
  5  4  1  0
  5  6  1  1
  7  6  2  0
  8  6  1  0
  9  8  1  0
  9 10  1  1
 11 10  1  0
 11 15  1  0
 12 11  2  0
 13  9  1  0
 13 16  1  0
 14 13  2  0
 17 16  1  0
 17 24  1  0
 17 18  1  6
 19 18  1  0
 19 20  2  0
 21 20  1  0
 22 21  1  0
 23 22  2  0
 23 19  1  0
 24 25  1  0
 26 24  2  0
M  END
$$$$
