IWC.pdb
     RDKit          3D

 29 30  0  0  1  0  0  0  0  0999 V2000
   12.4456  -19.3140   17.3959 C   0  0  0  0  0  0  0  0  0  0  0  0
   11.4038  -18.2380   17.4838 C   0  0  0  0  0  0  0  0  0  0  0  0
   11.1783  -17.7281   18.8799 C   0  0  2  0  0  0  0  0  0  0  0  0
   10.8841  -18.9156   19.7667 C   0  0  0  0  0  0  0  0  0  0  0  0
   10.0812  -16.6889   18.9540 C   0  0  2  0  0  0  0  0  0  0  0  0
   10.4021  -15.6360   18.0219 N   0  0  0  0  0  0  0  0  0  0  0  0
    9.8970  -16.1474   20.2994 C   0  0  0  0  0  0  0  0  0  0  0  0
   10.8830  -15.5999   20.8805 O   0  0  0  0  0  0  0  0  0  0  0  0
    8.6866  -16.1799   21.0312 N   0  0  0  0  0  0  0  0  0  0  0  0
    8.5356  -15.7732   22.3997 C   0  0  1  0  0  0  0  0  0  0  0  0
    7.1252  -15.4570   22.7758 C   0  0  0  0  0  0  0  0  0  0  0  0
    6.8858  -15.0929   24.1675 C   0  0  0  0  0  0  0  0  0  0  0  0
    6.4071  -15.9390   25.1461 C   0  0  0  0  0  0  0  0  0  0  0  0
    6.3060  -15.2532   26.2858 N   0  0  0  0  0  0  0  0  0  0  0  0
    6.6973  -13.9857   26.1089 C   0  0  0  0  0  0  0  0  0  0  0  0
    6.7717  -12.9175   26.9865 C   0  0  0  0  0  0  0  0  0  0  0  0
    7.2165  -11.7070   26.5581 C   0  0  0  0  0  0  0  0  0  0  0  0
    7.5907  -11.5640   25.2392 C   0  0  0  0  0  0  0  0  0  0  0  0
    7.5148  -12.6302   24.3684 C   0  0  0  0  0  0  0  0  0  0  0  0
    7.0643  -13.8733   24.7809 C   0  0  0  0  0  0  0  0  0  0  0  0
    9.2224  -16.6648   23.3482 C   0  0  0  0  0  0  0  0  0  0  0  0
    9.1059  -17.9325   23.2167 O   0  0  0  0  0  0  0  0  0  0  0  0
   10.0309  -16.2342   24.4334 N   0  0  0  0  0  0  0  0  0  0  0  0
   10.7250  -17.1946   25.2957 C   0  0  1  0  0  0  0  0  0  0  0  0
   12.1916  -17.2185   24.8983 C   0  0  0  0  0  0  0  0  0  0  0  0
   13.0321  -18.5533   25.7877 S   0  0  0  0  0  0  0  0  0  0  0  0
   10.5097  -16.9065   26.7113 C   0  0  0  0  0  0  0  0  0  0  0  0
    9.7169  -15.8102   27.0932 O   0  0  0  0  0  0  0  0  0  0  0  0
   11.0318  -17.6357   27.5899 O   0  0  0  0  0  0  0  0  0  0  0  0
  2  1  1  0
  3  2  1  0
  3  4  1  1
  5  3  1  0
  5  6  1  6
  7  5  1  0
  8  7  2  0
  9  7  1  0
 10  9  1  0
 11 12  1  0
 10 11  1  1
 12 20  1  0
 12 13  2  0
 13 14  1  0
 15 14  1  0
 15 16  2  0
 17 16  1  0
 18 17  2  0
 19 18  1  0
 19 20  2  0
 20 15  1  0
 21 22  2  0
 21 10  1  0
 23 21  1  0
 24 23  1  0
 24 25  1  1
 26 25  1  0
 27 24  1  0
 28 27  1  0
 29 27  2  0
M  END
$$$$
