IWC.pdb
     RDKit          3D

 29 30  0  0  1  0  0  0  0  0999 V2000
    7.2028  -11.9829   20.4504 C   0  0  0  0  0  0  0  0  0  0  0  0
    7.4945  -13.3665   20.9519 C   0  0  0  0  0  0  0  0  0  0  0  0
    8.4228  -14.1476   20.0642 C   0  0  2  0  0  0  0  0  0  0  0  0
    7.8148  -14.1936   18.6816 C   0  0  0  0  0  0  0  0  0  0  0  0
    8.7119  -15.5346   20.5949 C   0  0  2  0  0  0  0  0  0  0  0  0
    7.4686  -16.2648   20.6320 N   0  0  0  0  0  0  0  0  0  0  0  0
    9.3413  -15.5218   21.9143 C   0  0  0  0  0  0  0  0  0  0  0  0
   10.3891  -14.8279   22.0874 O   0  0  0  0  0  0  0  0  0  0  0  0
    8.8750  -16.2324   23.0455 N   0  0  0  0  0  0  0  0  0  0  0  0
    9.5090  -16.2462   24.3334 C   0  0  1  0  0  0  0  0  0  0  0  0
    8.5679  -16.5280   25.4584 C   0  0  0  0  0  0  0  0  0  0  0  0
    7.5000  -15.5588   25.6755 C   0  0  0  0  0  0  0  0  0  0  0  0
    6.1523  -15.8007   25.5088 C   0  0  0  0  0  0  0  0  0  0  0  0
    5.4839  -14.6800   25.7854 N   0  0  0  0  0  0  0  0  0  0  0  0
    6.3286  -13.7008   26.1298 C   0  0  0  0  0  0  0  0  0  0  0  0
    6.1065  -12.3852   26.4994 C   0  0  0  0  0  0  0  0  0  0  0  0
    7.1510  -11.5751   26.8146 C   0  0  0  0  0  0  0  0  0  0  0  0
    8.4299  -12.0863   26.7596 C   0  0  0  0  0  0  0  0  0  0  0  0
    8.6469  -13.3969   26.3907 C   0  0  0  0  0  0  0  0  0  0  0  0
    7.5991  -14.2418   26.0645 C   0  0  0  0  0  0  0  0  0  0  0  0
   10.7387  -17.0542   24.3652 C   0  0  0  0  0  0  0  0  0  0  0  0
   10.7360  -18.2242   23.8464 O   0  0  0  0  0  0  0  0  0  0  0  0
   11.9712  -16.6419   24.9377 N   0  0  0  0  0  0  0  0  0  0  0  0
   13.0881  -17.5769   25.0987 C   0  0  1  0  0  0  0  0  0  0  0  0
   14.3829  -16.7817   25.0720 C   0  0  0  0  0  0  0  0  0  0  0  0
   14.4271  -15.7578   23.5792 S   0  0  0  0  0  0  0  0  0  0  0  0
   12.9362  -18.4023   26.2942 C   0  0  0  0  0  0  0  0  0  0  0  0
   13.8910  -19.3898   26.5928 O   0  0  0  0  0  0  0  0  0  0  0  0
   11.9535  -18.2328   27.0570 O   0  0  0  0  0  0  0  0  0  0  0  0
  2  1  1  0
  3  2  1  0
  3  4  1  6
  5  3  1  0
  5  6  1  1
  7  5  1  0
  8  7  2  0
  9  7  1  0
 10  9  1  0
 11 12  1  0
 10 11  1  1
 12 20  1  0
 12 13  2  0
 13 14  1  0
 15 14  1  0
 15 16  2  0
 17 16  1  0
 18 17  2  0
 19 18  1  0
 19 20  2  0
 20 15  1  0
 21 22  2  0
 21 10  1  0
 23 21  1  0
 24 23  1  0
 24 25  1  1
 26 25  1  0
 27 24  1  0
 28 27  1  0
 29 27  2  0
M  END
$$$$
