IWC.pdb
     RDKit          3D

 29 30  0  0  1  0  0  0  0  0999 V2000
    7.8369  -17.0607   16.9492 C   0  0  0  0  0  0  0  0  0  0  0  0
    7.1758  -16.4449   18.1469 C   0  0  0  0  0  0  0  0  0  0  0  0
    8.0921  -16.2866   19.3281 C   0  0  2  0  0  0  0  0  0  0  0  0
    8.6766  -17.6427   19.6481 C   0  0  0  0  0  0  0  0  0  0  0  0
    7.4009  -15.6777   20.5283 C   0  0  2  0  0  0  0  0  0  0  0  0
    6.8942  -14.3840   20.1410 N   0  0  0  0  0  0  0  0  0  0  0  0
    8.2765  -15.5602   21.6932 C   0  0  0  0  0  0  0  0  0  0  0  0
    9.1447  -14.6354   21.7172 O   0  0  0  0  0  0  0  0  0  0  0  0
    8.2423  -16.4074   22.8258 N   0  0  0  0  0  0  0  0  0  0  0  0
    9.1704  -16.3640   23.9202 C   0  0  1  0  0  0  0  0  0  0  0  0
    8.5127  -16.3817   25.2610 C   0  0  0  0  0  0  0  0  0  0  0  0
    7.4864  -15.3733   25.4989 C   0  0  0  0  0  0  0  0  0  0  0  0
    6.1270  -15.5672   25.3684 C   0  0  0  0  0  0  0  0  0  0  0  0
    5.5068  -14.4215   25.6545 N   0  0  0  0  0  0  0  0  0  0  0  0
    6.3948  -13.4715   25.9705 C   0  0  0  0  0  0  0  0  0  0  0  0
    6.2299  -12.1466   26.3368 C   0  0  0  0  0  0  0  0  0  0  0  0
    7.3107  -11.3730   26.6197 C   0  0  0  0  0  0  0  0  0  0  0  0
    8.5685  -11.9304   26.5354 C   0  0  0  0  0  0  0  0  0  0  0  0
    8.7285  -13.2502   26.1699 C   0  0  0  0  0  0  0  0  0  0  0  0
    7.6428  -14.0585   25.8764 C   0  0  0  0  0  0  0  0  0  0  0  0
   10.2742  -17.3278   23.7824 C   0  0  0  0  0  0  0  0  0  0  0  0
   10.2112  -18.2309   22.8777 O   0  0  0  0  0  0  0  0  0  0  0  0
   11.4437  -17.3493   24.5877 N   0  0  0  0  0  0  0  0  0  0  0  0
   12.7802  -17.4151   23.9901 C   0  0  1  0  0  0  0  0  0  0  0  0
   12.9146  -16.2732   22.9963 C   0  0  0  0  0  0  0  0  0  0  0  0
   13.6402  -16.8980   21.4594 S   0  0  0  0  0  0  0  0  0  0  0  0
   13.8287  -17.4287   25.0069 C   0  0  0  0  0  0  0  0  0  0  0  0
   14.9951  -18.1867   24.8042 O   0  0  0  0  0  0  0  0  0  0  0  0
   13.6912  -16.7648   26.0636 O   0  0  0  0  0  0  0  0  0  0  0  0
  2  1  1  0
  3  2  1  0
  3  4  1  1
  5  3  1  0
  5  6  1  6
  7  5  1  0
  8  7  2  0
  9  7  1  0
 10  9  1  0
 11 12  1  0
 10 11  1  1
 12 20  1  0
 12 13  2  0
 13 14  1  0
 15 14  1  0
 15 16  2  0
 17 16  1  0
 18 17  2  0
 19 18  1  0
 19 20  2  0
 20 15  1  0
 21 22  2  0
 21 10  1  0
 23 21  1  0
 24 23  1  0
 24 25  1  6
 26 25  1  0
 27 24  1  0
 28 27  1  0
 29 27  2  0
M  END
$$$$
