IWC.pdb
     RDKit          3D

 29 30  0  0  1  0  0  0  0  0999 V2000
    7.3747  -12.5264   17.9135 C   0  0  0  0  0  0  0  0  0  0  0  0
    7.0910  -13.7550   18.7265 C   0  0  0  0  0  0  0  0  0  0  0  0
    7.7829  -13.7694   20.0610 C   0  0  2  0  0  0  0  0  0  0  0  0
    9.2632  -13.5866   19.8192 C   0  0  0  0  0  0  0  0  0  0  0  0
    7.4964  -15.0244   20.8560 C   0  0  2  0  0  0  0  0  0  0  0  0
    6.0652  -15.1871   20.9300 N   0  0  0  0  0  0  0  0  0  0  0  0
    8.0819  -14.9984   22.1953 C   0  0  0  0  0  0  0  0  0  0  0  0
    7.9595  -13.9492   22.8980 O   0  0  0  0  0  0  0  0  0  0  0  0
    8.7915  -16.0659   22.7943 N   0  0  0  0  0  0  0  0  0  0  0  0
    9.7057  -15.9382   23.8938 C   0  0  1  0  0  0  0  0  0  0  0  0
    9.1108  -16.3152   25.2109 C   0  0  0  0  0  0  0  0  0  0  0  0
    7.9111  -15.5923   25.6170 C   0  0  0  0  0  0  0  0  0  0  0  0
    6.6242  -16.0867   25.5728 C   0  0  0  0  0  0  0  0  0  0  0  0
    5.7920  -15.1398   26.0086 N   0  0  0  0  0  0  0  0  0  0  0  0
    6.4692  -14.0347   26.3419 C   0  0  0  0  0  0  0  0  0  0  0  0
    6.0457  -12.8140   26.8392 C   0  0  0  0  0  0  0  0  0  0  0  0
    6.9465  -11.8329   27.1088 C   0  0  0  0  0  0  0  0  0  0  0  0
    8.2837  -12.0755   26.8788 C   0  0  0  0  0  0  0  0  0  0  0  0
    8.7013  -13.2924   26.3832 C   0  0  0  0  0  0  0  0  0  0  0  0
    7.8026  -14.3076   26.1001 C   0  0  0  0  0  0  0  0  0  0  0  0
   11.0170  -16.5530   23.6315 C   0  0  0  0  0  0  0  0  0  0  0  0
   11.0791  -17.6366   22.9533 O   0  0  0  0  0  0  0  0  0  0  0  0
   12.2633  -16.0374   24.0761 N   0  0  0  0  0  0  0  0  0  0  0  0
   13.5244  -16.7157   23.7640 C   0  0  1  0  0  0  0  0  0  0  0  0
   14.6415  -15.6862   23.8029 C   0  0  0  0  0  0  0  0  0  0  0  0
   14.6905  -14.9161   25.4411 S   0  0  0  0  0  0  0  0  0  0  0  0
   13.7561  -17.8601   24.6416 C   0  0  0  0  0  0  0  0  0  0  0  0
   14.7626  -18.7912   24.3318 O   0  0  0  0  0  0  0  0  0  0  0  0
   13.0577  -18.0154   25.6733 O   0  0  0  0  0  0  0  0  0  0  0  0
  2  1  1  0
  3  2  1  0
  3  4  1  6
  5  3  1  0
  5  6  1  1
  7  5  1  0
  8  7  2  0
  9  7  1  0
 10  9  1  0
 11 12  1  0
 10 11  1  1
 12 20  1  0
 12 13  2  0
 13 14  1  0
 15 14  1  0
 15 16  2  0
 17 16  1  0
 18 17  2  0
 19 18  1  0
 19 20  2  0
 20 15  1  0
 21 22  2  0
 21 10  1  0
 23 21  1  0
 24 23  1  0
 24 25  1  1
 26 25  1  0
 27 24  1  0
 28 27  1  0
 29 27  2  0
M  END
$$$$
