IWC.pdb
     RDKit          3D

 29 30  0  0  1  0  0  0  0  0999 V2000
    7.3951  -12.0519   20.4733 C   0  0  0  0  0  0  0  0  0  0  0  0
    7.5974  -13.4787   20.8906 C   0  0  0  0  0  0  0  0  0  0  0  0
    8.5299  -14.2441   19.9936 C   0  0  2  0  0  0  0  0  0  0  0  0
    7.9019  -14.3137   18.6210 C   0  0  0  0  0  0  0  0  0  0  0  0
    8.8596  -15.6203   20.5287 C   0  0  2  0  0  0  0  0  0  0  0  0
    7.6463  -16.4002   20.5280 N   0  0  0  0  0  0  0  0  0  0  0  0
    9.4499  -15.5872   21.8657 C   0  0  0  0  0  0  0  0  0  0  0  0
   10.4777  -14.8706   22.0648 O   0  0  0  0  0  0  0  0  0  0  0  0
    8.9657  -16.3011   22.9872 N   0  0  0  0  0  0  0  0  0  0  0  0
    9.5799  -16.3199   24.2846 C   0  0  1  0  0  0  0  0  0  0  0  0
    8.6122  -16.5475   25.3993 C   0  0  0  0  0  0  0  0  0  0  0  0
    7.5852  -15.5301   25.5911 C   0  0  0  0  0  0  0  0  0  0  0  0
    6.2241  -15.7418   25.5185 C   0  0  0  0  0  0  0  0  0  0  0  0
    5.6033  -14.5813   25.7352 N   0  0  0  0  0  0  0  0  0  0  0  0
    6.4925  -13.6044   25.9496 C   0  0  0  0  0  0  0  0  0  0  0  0
    6.3277  -12.2563   26.2184 C   0  0  0  0  0  0  0  0  0  0  0  0
    7.4101  -11.4567   26.4072 C   0  0  0  0  0  0  0  0  0  0  0  0
    8.6694  -12.0113   26.3266 C   0  0  0  0  0  0  0  0  0  0  0  0
    8.8293  -13.3542   26.0584 C   0  0  0  0  0  0  0  0  0  0  0  0
    7.7420  -14.1892   25.8617 C   0  0  0  0  0  0  0  0  0  0  0  0
   10.7763  -17.1747   24.3469 C   0  0  0  0  0  0  0  0  0  0  0  0
   10.6588  -18.4356   24.1613 O   0  0  0  0  0  0  0  0  0  0  0  0
   12.0953  -16.7145   24.6022 N   0  0  0  0  0  0  0  0  0  0  0  0
   13.2263  -17.6435   24.6772 C   0  0  1  0  0  0  0  0  0  0  0  0
   14.5116  -16.8382   24.5826 C   0  0  0  0  0  0  0  0  0  0  0  0
   14.1864  -15.1287   25.0830 S   0  0  0  0  0  0  0  0  0  0  0  0
   13.1551  -18.4894   25.8659 C   0  0  0  0  0  0  0  0  0  0  0  0
   14.1237  -19.4856   26.0790 O   0  0  0  0  0  0  0  0  0  0  0  0
   12.2297  -18.3296   26.6993 O   0  0  0  0  0  0  0  0  0  0  0  0
  2  1  1  0
  3  2  1  0
  3  4  1  6
  5  3  1  0
  5  6  1  1
  7  5  1  0
  8  7  2  0
  9  7  1  0
 10  9  1  0
 11 12  1  0
 10 11  1  1
 12 20  1  0
 12 13  2  0
 13 14  1  0
 15 14  1  0
 15 16  2  0
 17 16  1  0
 18 17  2  0
 19 18  1  0
 19 20  2  0
 20 15  1  0
 21 22  2  0
 21 10  1  0
 23 21  1  0
 24 23  1  0
 24 25  1  1
 26 25  1  0
 27 24  1  0
 28 27  1  0
 29 27  2  0
M  END
$$$$
