IWC.pdb
     RDKit          3D

 29 30  0  0  1  0  0  0  0  0999 V2000
    6.9561  -12.1785   20.3841 C   0  0  0  0  0  0  0  0  0  0  0  0
    7.3944  -13.5297   20.8667 C   0  0  0  0  0  0  0  0  0  0  0  0
    8.3779  -14.2075   19.9539 C   0  0  2  0  0  0  0  0  0  0  0  0
    7.7493  -14.3048   18.5833 C   0  0  0  0  0  0  0  0  0  0  0  0
    8.8154  -15.5622   20.4664 C   0  0  2  0  0  0  0  0  0  0  0  0
    7.6609  -16.4266   20.4803 N   0  0  0  0  0  0  0  0  0  0  0  0
    9.4288  -15.5007   21.7920 C   0  0  0  0  0  0  0  0  0  0  0  0
   10.4392  -14.7534   21.9662 O   0  0  0  0  0  0  0  0  0  0  0  0
    8.9858  -16.2184   22.9279 N   0  0  0  0  0  0  0  0  0  0  0  0
    9.6362  -16.2259   24.2077 C   0  0  1  0  0  0  0  0  0  0  0  0
    8.6937  -16.3890   25.3548 C   0  0  0  0  0  0  0  0  0  0  0  0
    7.6417  -15.3873   25.4838 C   0  0  0  0  0  0  0  0  0  0  0  0
    6.3142  -15.5730   25.1584 C   0  0  0  0  0  0  0  0  0  0  0  0
    5.6573  -14.4368   25.3967 N   0  0  0  0  0  0  0  0  0  0  0  0
    6.4903  -13.5012   25.8676 C   0  0  0  0  0  0  0  0  0  0  0  0
    6.2726  -12.1901   26.2552 C   0  0  0  0  0  0  0  0  0  0  0  0
    7.3015  -11.4300   26.7137 C   0  0  0  0  0  0  0  0  0  0  0  0
    8.5602  -11.9872   26.7852 C   0  0  0  0  0  0  0  0  0  0  0  0
    8.7729  -13.2931   26.3979 C   0  0  0  0  0  0  0  0  0  0  0  0
    7.7407  -14.0875   25.9269 C   0  0  0  0  0  0  0  0  0  0  0  0
   10.8027  -17.1219   24.2596 C   0  0  0  0  0  0  0  0  0  0  0  0
   10.6673  -18.3504   23.9274 O   0  0  0  0  0  0  0  0  0  0  0  0
   12.1104  -16.7364   24.6573 N   0  0  0  0  0  0  0  0  0  0  0  0
   13.2282  -17.6835   24.6237 C   0  0  1  0  0  0  0  0  0  0  0  0
   14.4742  -16.9346   24.1810 C   0  0  0  0  0  0  0  0  0  0  0  0
   14.6697  -15.4454   25.1924 S   0  0  0  0  0  0  0  0  0  0  0  0
   13.3885  -18.3786   25.8983 C   0  0  0  0  0  0  0  0  0  0  0  0
   14.3490  -19.3967   26.0281 O   0  0  0  0  0  0  0  0  0  0  0  0
   12.6695  -18.0695   26.8801 O   0  0  0  0  0  0  0  0  0  0  0  0
  2  1  1  0
  3  2  1  0
  3  4  1  6
  5  3  1  0
  5  6  1  1
  7  5  1  0
  8  7  2  0
  9  7  1  0
 10  9  1  0
 11 12  1  0
 10 11  1  1
 12 20  1  0
 12 13  2  0
 13 14  1  0
 15 14  1  0
 15 16  2  0
 17 16  1  0
 18 17  2  0
 19 18  1  0
 19 20  2  0
 20 15  1  0
 21 22  2  0
 21 10  1  0
 23 21  1  0
 24 23  1  0
 24 25  1  1
 26 25  1  0
 27 24  1  0
 28 27  1  0
 29 27  2  0
M  END
$$$$
