IWC.pdb
     RDKit          3D

 29 30  0  0  1  0  0  0  0  0999 V2000
   13.1673  -19.3813   18.2023 C   0  0  0  0  0  0  0  0  0  0  0  0
   11.8632  -18.6401   18.2326 C   0  0  0  0  0  0  0  0  0  0  0  0
   11.6159  -17.9049   19.5204 C   0  0  2  0  0  0  0  0  0  0  0  0
   11.6617  -18.9115   20.6464 C   0  0  0  0  0  0  0  0  0  0  0  0
   10.3154  -17.1319   19.5133 C   0  0  2  0  0  0  0  0  0  0  0  0
   10.3499  -16.2135   18.4016 N   0  0  0  0  0  0  0  0  0  0  0  0
   10.0688  -16.4171   20.7645 C   0  0  0  0  0  0  0  0  0  0  0  0
   10.8711  -15.4988   21.1147 O   0  0  0  0  0  0  0  0  0  0  0  0
    8.9878  -16.6637   21.6433 N   0  0  0  0  0  0  0  0  0  0  0  0
    8.7734  -16.0002   22.8982 C   0  0  1  0  0  0  0  0  0  0  0  0
    7.3306  -15.8429   23.2508 C   0  0  0  0  0  0  0  0  0  0  0  0
    7.0360  -15.2085   24.5304 C   0  0  0  0  0  0  0  0  0  0  0  0
    6.5834  -15.8568   25.6608 C   0  0  0  0  0  0  0  0  0  0  0  0
    6.4142  -14.9534   26.6274 N   0  0  0  0  0  0  0  0  0  0  0  0
    6.7350  -13.7300   26.1900 C   0  0  0  0  0  0  0  0  0  0  0  0
    6.7250  -12.4979   26.8214 C   0  0  0  0  0  0  0  0  0  0  0  0
    7.1088  -11.3800   26.1509 C   0  0  0  0  0  0  0  0  0  0  0  0
    7.5066  -11.4959   24.8363 C   0  0  0  0  0  0  0  0  0  0  0  0
    7.5147  -12.7247   24.2110 C   0  0  0  0  0  0  0  0  0  0  0  0
    7.1276  -13.8781   24.8729 C   0  0  0  0  0  0  0  0  0  0  0  0
    9.6003  -16.5419   23.9887 C   0  0  0  0  0  0  0  0  0  0  0  0
    9.8012  -17.8039   24.0583 O   0  0  0  0  0  0  0  0  0  0  0  0
   10.2179  -15.7673   25.0062 N   0  0  0  0  0  0  0  0  0  0  0  0
   11.0303  -16.3923   26.0536 C   0  0  1  0  0  0  0  0  0  0  0  0
   12.1658  -15.4453   26.4048 C   0  0  0  0  0  0  0  0  0  0  0  0
   13.3653  -16.3092   27.4505 S   0  0  0  0  0  0  0  0  0  0  0  0
   10.2218  -16.7846   27.2051 C   0  0  0  0  0  0  0  0  0  0  0  0
    9.4385  -15.8274   27.8731 O   0  0  0  0  0  0  0  0  0  0  0  0
   10.2246  -17.9760   27.6012 O   0  0  0  0  0  0  0  0  0  0  0  0
  2  1  1  0
  3  2  1  0
  3  4  1  1
  5  3  1  0
  5  6  1  6
  7  5  1  0
  8  7  2  0
  9  7  1  0
 10  9  1  0
 11 12  1  0
 10 11  1  1
 12 20  1  0
 12 13  2  0
 13 14  1  0
 15 14  1  0
 15 16  2  0
 17 16  1  0
 18 17  2  0
 19 18  1  0
 19 20  2  0
 20 15  1  0
 21 22  2  0
 21 10  1  0
 23 21  1  0
 24 23  1  0
 24 25  1  1
 26 25  1  0
 27 24  1  0
 28 27  1  0
 29 27  2  0
M  END
$$$$
