QIT.pdb
     RDKit          3D

 25 24  0  0  1  0  0  0  0  0999 V2000
   27.4078  -19.2384  -18.7939 N   0  0  0  0  0  0  0  0  0  0  0  0
   28.2948  -18.2823  -18.2275 C   0  0  0  0  0  0  0  0  0  0  0  0
   29.0481  -17.6547  -19.0137 O   0  0  0  0  0  0  0  0  0  0  0  0
   28.3060  -18.0575  -16.7583 C   0  0  0  0  0  0  0  0  0  0  0  0
   27.1544  -18.8435  -16.1747 C   0  0  0  0  0  0  0  0  0  0  0  0
   27.6214  -19.8951  -15.2054 C   0  0  2  0  0  0  0  0  0  0  0  0
   28.5123  -20.7888  -15.9224 N   0  0  0  0  0  0  0  0  0  0  0  0
   26.4752  -20.6394  -14.6060 C   0  0  0  0  0  0  0  0  0  0  0  0
   26.0569  -21.6341  -15.2380 O   0  0  0  0  0  0  0  0  0  0  0  0
   25.6622  -20.3165   -8.9244 C   0  0  0  0  0  0  0  0  0  0  0  0
   25.3717  -20.0402  -10.4021 C   0  0  0  0  0  0  0  0  0  0  0  0
   25.2950  -21.3182  -11.2100 C   0  0  2  0  0  0  0  0  0  0  0  0
   26.6606  -21.9923  -11.2567 C   0  0  0  0  0  0  0  0  0  0  0  0
   24.8807  -20.9433  -12.6237 C   0  0  2  0  0  0  0  0  0  0  0  0
   25.8779  -20.2570  -13.3871 N   0  0  0  0  0  0  0  0  0  0  0  0
   23.5416  -20.4027  -12.7616 C   0  0  0  0  0  0  0  0  0  0  0  0
   23.2076  -19.3190  -12.2364 O   0  0  0  0  0  0  0  0  0  0  0  0
   21.6623  -18.9402  -15.4419 C   0  0  0  0  0  0  0  0  0  0  0  0
   20.8685  -20.1759  -15.0775 C   0  0  1  0  0  0  0  0  0  0  0  0
   21.2874  -21.2214  -15.9131 O   0  0  0  0  0  0  0  0  0  0  0  0
   21.1861  -20.5763  -13.6518 C   0  0  2  0  0  0  0  0  0  0  0  0
   22.5200  -21.0925  -13.5170 N   0  0  0  0  0  0  0  0  0  0  0  0
   20.1552  -21.5232  -13.1772 C   0  0  0  0  0  0  0  0  0  0  0  0
   20.5207  -22.8204  -12.8523 O   0  0  0  0  0  0  0  0  0  0  0  0
   18.9472  -21.1716  -13.0626 O   0  0  0  0  0  0  0  0  0  0  0  0
  2  1  1  0
  3  2  2  0
  4  2  1  0
  5  4  1  0
  6  5  1  0
  6  7  1  6
  8  6  1  0
  9  8  2  0
 10 11  1  0
 12 14  1  0
 12 11  1  0
 12 13  1  6
 14 15  1  1
 15  8  1  0
 16 17  2  0
 16 14  1  0
 19 18  1  6
 19 21  1  0
 19 20  1  0
 21 22  1  6
 22 16  1  0
 23 21  1  0
 24 23  1  0
 25 23  2  0
M  END
$$$$
