QIT.pdb
     RDKit          3D

 25 24  0  0  1  0  0  0  0  0999 V2000
   18.3411  -11.8544  -14.7523 N   0  0  0  0  0  0  0  0  0  0  0  0
   17.1289  -12.5867  -14.6260 C   0  0  0  0  0  0  0  0  0  0  0  0
   17.1815  -13.8290  -14.8083 O   0  0  0  0  0  0  0  0  0  0  0  0
   15.8650  -11.8800  -14.2904 C   0  0  0  0  0  0  0  0  0  0  0  0
   16.2139  -10.4313  -14.0367 C   0  0  0  0  0  0  0  0  0  0  0  0
   15.3771   -9.8321  -12.9395 C   0  0  2  0  0  0  0  0  0  0  0  0
   14.0137   -9.7381  -13.4283 N   0  0  0  0  0  0  0  0  0  0  0  0
   15.8947   -8.4970  -12.5189 C   0  0  0  0  0  0  0  0  0  0  0  0
   15.7242   -7.5496  -13.3170 O   0  0  0  0  0  0  0  0  0  0  0  0
   14.5985   -6.1851   -8.0526 C   0  0  0  0  0  0  0  0  0  0  0  0
   15.1773   -6.5218   -9.4296 C   0  0  0  0  0  0  0  0  0  0  0  0
   16.6812   -6.6888   -9.3834 C   0  0  2  0  0  0  0  0  0  0  0  0
   17.3445   -5.3697   -9.0076 C   0  0  0  0  0  0  0  0  0  0  0  0
   17.1409   -7.0940  -10.7745 C   0  0  2  0  0  0  0  0  0  0  0  0
   16.5471   -8.2916  -11.2856 N   0  0  0  0  0  0  0  0  0  0  0  0
   18.5654   -6.9771  -11.0226 C   0  0  0  0  0  0  0  0  0  0  0  0
   19.4158   -7.4135  -10.2174 O   0  0  0  0  0  0  0  0  0  0  0  0
   20.6114   -8.5154  -13.5345 C   0  0  0  0  0  0  0  0  0  0  0  0
   20.8541   -7.0385  -13.7574 C   0  0  1  0  0  0  0  0  0  0  0  0
   19.9997   -6.6096  -14.7836 O   0  0  0  0  0  0  0  0  0  0  0  0
   20.4830   -6.2724  -12.5048 C   0  0  2  0  0  0  0  0  0  0  0  0
   19.0771   -6.3471  -12.2189 N   0  0  0  0  0  0  0  0  0  0  0  0
   20.9687   -4.8820  -12.6299 C   0  0  0  0  0  0  0  0  0  0  0  0
   20.0556   -3.8389  -12.6206 O   0  0  0  0  0  0  0  0  0  0  0  0
   22.2007   -4.6274  -12.7452 O   0  0  0  0  0  0  0  0  0  0  0  0
  2  1  1  0
  3  2  2  0
  4  2  1  0
  5  4  1  0
  6  5  1  0
  6  7  1  6
  8  6  1  0
  9  8  2  0
 10 11  1  0
 12 14  1  0
 12 11  1  0
 12 13  1  6
 14 15  1  1
 15  8  1  0
 16 17  2  0
 16 14  1  0
 19 18  1  1
 19 21  1  0
 19 20  1  0
 21 22  1  6
 22 16  1  0
 23 21  1  0
 24 23  1  0
 25 23  2  0
M  END
$$$$
