QIT.pdb
     RDKit          3D

 25 24  0  0  1  0  0  0  0  0999 V2000
   23.1354   -9.6280  -21.5427 N   0  0  0  0  0  0  0  0  0  0  0  0
   22.3309   -9.3052  -22.6698 C   0  0  0  0  0  0  0  0  0  0  0  0
   22.7918   -9.5773  -23.8068 O   0  0  0  0  0  0  0  0  0  0  0  0
   21.0006   -8.6710  -22.4764 C   0  0  0  0  0  0  0  0  0  0  0  0
   20.8541   -8.3747  -21.0014 C   0  0  0  0  0  0  0  0  0  0  0  0
   20.7183   -9.6300  -20.1835 C   0  0  2  0  0  0  0  0  0  0  0  0
   19.4305  -10.2214  -20.4970 N   0  0  0  0  0  0  0  0  0  0  0  0
   20.8450   -9.3518  -18.7228 C   0  0  0  0  0  0  0  0  0  0  0  0
   19.7927   -9.0678  -18.1098 O   0  0  0  0  0  0  0  0  0  0  0  0
   23.4202  -12.6384  -15.4814 C   0  0  0  0  0  0  0  0  0  0  0  0
   22.5736  -11.5203  -16.0959 C   0  0  0  0  0  0  0  0  0  0  0  0
   23.2562  -10.1733  -15.9899 C   0  0  2  0  0  0  0  0  0  0  0  0
   23.4327   -9.7881  -14.5265 C   0  0  0  0  0  0  0  0  0  0  0  0
   22.3583   -9.1494  -16.6653 C   0  0  2  0  0  0  0  0  0  0  0  0
   22.0816   -9.4014  -18.0466 N   0  0  0  0  0  0  0  0  0  0  0  0
   22.6455   -7.7619  -16.3540 C   0  0  0  0  0  0  0  0  0  0  0  0
   23.6972   -7.2024  -16.7319 O   0  0  0  0  0  0  0  0  0  0  0  0
   21.0799   -4.7282  -17.3999 C   0  0  0  0  0  0  0  0  0  0  0  0
   20.9906   -4.6342  -15.8923 C   0  0  1  0  0  0  0  0  0  0  0  0
   19.7131   -5.0656  -15.5066 O   0  0  0  0  0  0  0  0  0  0  0  0
   21.9982   -5.5772  -15.2682 C   0  0  2  0  0  0  0  0  0  0  0  0
   21.7262   -6.9513  -15.5873 N   0  0  0  0  0  0  0  0  0  0  0  0
   22.0530   -5.3276  -13.8125 C   0  0  0  0  0  0  0  0  0  0  0  0
   22.5364   -4.1143  -13.3478 O   0  0  0  0  0  0  0  0  0  0  0  0
   21.6673   -6.2002  -12.9843 O   0  0  0  0  0  0  0  0  0  0  0  0
  2  1  1  0
  3  2  2  0
  4  2  1  0
  5  4  1  0
  6  5  1  0
  6  7  1  1
  8  6  1  0
  9  8  2  0
 10 11  1  0
 12 14  1  0
 12 11  1  0
 12 13  1  1
 14 15  1  6
 15  8  1  0
 16 17  2  0
 16 14  1  0
 19 18  1  6
 19 21  1  0
 19 20  1  0
 21 22  1  1
 22 16  1  0
 23 21  1  0
 24 23  1  0
 25 23  2  0
M  END
$$$$
