QIT.pdb
     RDKit          3D

 25 24  0  0  1  0  0  0  0  0999 V2000
   25.8930  -23.1791  -18.9201 N   0  0  0  0  0  0  0  0  0  0  0  0
   27.2647  -22.8632  -18.7188 C   0  0  0  0  0  0  0  0  0  0  0  0
   28.0502  -23.0561  -19.6805 O   0  0  0  0  0  0  0  0  0  0  0  0
   27.7196  -22.3272  -17.4091 C   0  0  0  0  0  0  0  0  0  0  0  0
   26.4953  -22.1763  -16.5356 C   0  0  0  0  0  0  0  0  0  0  0  0
   26.6520  -22.8814  -15.2159 C   0  0  2  0  0  0  0  0  0  0  0  0
   26.7291  -24.3056  -15.4853 N   0  0  0  0  0  0  0  0  0  0  0  0
   25.5278  -22.5664  -14.2863 C   0  0  0  0  0  0  0  0  0  0  0  0
   24.4829  -23.2407  -14.4168 O   0  0  0  0  0  0  0  0  0  0  0  0
   26.7301  -20.8440   -9.2775 C   0  0  0  0  0  0  0  0  0  0  0  0
   26.0346  -21.4313  -10.5086 C   0  0  0  0  0  0  0  0  0  0  0  0
   25.0794  -20.4422  -11.1420 C   0  0  2  0  0  0  0  0  0  0  0  0
   23.8838  -20.2077  -10.2272 C   0  0  0  0  0  0  0  0  0  0  0  0
   24.5908  -21.0478  -12.4478 C   0  0  2  0  0  0  0  0  0  0  0  0
   25.6185  -21.5613  -13.3013 N   0  0  0  0  0  0  0  0  0  0  0  0
   23.5562  -20.2999  -13.1369 C   0  0  0  0  0  0  0  0  0  0  0  0
   23.7256  -19.1164  -13.5009 O   0  0  0  0  0  0  0  0  0  0  0  0
   22.0170  -20.5696  -16.3232 C   0  0  0  0  0  0  0  0  0  0  0  0
   20.8205  -20.6542  -15.4007 C   0  0  1  0  0  0  0  0  0  0  0  0
   20.4802  -22.0071  -15.2563 O   0  0  0  0  0  0  0  0  0  0  0  0
   21.2020  -20.1312  -14.0315 C   0  0  2  0  0  0  0  0  0  0  0  0
   22.2705  -20.8875  -13.4395 N   0  0  0  0  0  0  0  0  0  0  0  0
   19.9942  -20.0844  -13.1809 C   0  0  0  0  0  0  0  0  0  0  0  0
   18.9324  -19.2735  -13.5508 O   0  0  0  0  0  0  0  0  0  0  0  0
   19.9124  -20.7698  -12.1228 O   0  0  0  0  0  0  0  0  0  0  0  0
  2  1  1  0
  3  2  2  0
  4  2  1  0
  5  4  1  0
  6  5  1  0
  6  7  1  6
  8  6  1  0
  9  8  2  0
 10 11  1  0
 12 14  1  0
 12 11  1  0
 12 13  1  1
 14 15  1  6
 15  8  1  0
 16 17  2  0
 16 14  1  0
 19 18  1  6
 19 21  1  0
 19 20  1  0
 21 22  1  1
 22 16  1  0
 23 21  1  0
 24 23  1  0
 25 23  2  0
M  END
$$$$
