QIT.pdb
     RDKit          3D

 25 24  0  0  1  0  0  0  0  0999 V2000
   14.8511   -9.8122  -16.8091 N   0  0  0  0  0  0  0  0  0  0  0  0
   15.0189  -10.8713  -17.7430 C   0  0  0  0  0  0  0  0  0  0  0  0
   14.0103  -11.2253  -18.4038 O   0  0  0  0  0  0  0  0  0  0  0  0
   16.3492  -11.5137  -17.9072 C   0  0  0  0  0  0  0  0  0  0  0  0
   17.2675  -10.9184  -16.8646 C   0  0  0  0  0  0  0  0  0  0  0  0
   18.6248  -11.5673  -16.8700 C   0  0  2  0  0  0  0  0  0  0  0  0
   18.4461  -12.9626  -16.5124 N   0  0  0  0  0  0  0  0  0  0  0  0
   19.5652  -10.8846  -15.9337 C   0  0  0  0  0  0  0  0  0  0  0  0
   19.2689  -10.9103  -14.7192 O   0  0  0  0  0  0  0  0  0  0  0  0
   23.3765  -12.5794  -15.9472 C   0  0  0  0  0  0  0  0  0  0  0  0
   23.0127  -11.4661  -14.9610 C   0  0  0  0  0  0  0  0  0  0  0  0
   23.0999  -10.0964  -15.5999 C   0  0  2  0  0  0  0  0  0  0  0  0
   24.0131   -9.1926  -14.7810 C   0  0  0  0  0  0  0  0  0  0  0  0
   21.6997   -9.5049  -15.6102 C   0  0  2  0  0  0  0  0  0  0  0  0
   20.7369  -10.2363  -16.3759 N   0  0  0  0  0  0  0  0  0  0  0  0
   21.6289   -8.0652  -15.7743 C   0  0  0  0  0  0  0  0  0  0  0  0
   21.9203   -7.5066  -16.8536 O   0  0  0  0  0  0  0  0  0  0  0  0
   19.0752   -5.7599  -16.0728 C   0  0  0  0  0  0  0  0  0  0  0  0
   19.7987   -5.2073  -14.8641 C   0  0  1  0  0  0  0  0  0  0  0  0
   19.1287   -5.6555  -13.7164 O   0  0  0  0  0  0  0  0  0  0  0  0
   21.2050   -5.7676  -14.8192 C   0  0  2  0  0  0  0  0  0  0  0  0
   21.2159   -7.1987  -14.6934 N   0  0  0  0  0  0  0  0  0  0  0  0
   21.9575   -5.0925  -13.7409 C   0  0  0  0  0  0  0  0  0  0  0  0
   22.2198   -3.7350  -13.8412 O   0  0  0  0  0  0  0  0  0  0  0  0
   22.3658   -5.7305  -12.7298 O   0  0  0  0  0  0  0  0  0  0  0  0
  2  1  1  0
  3  2  2  0
  4  2  1  0
  5  4  1  0
  6  5  1  0
  6  7  1  1
  8  6  1  0
  9  8  2  0
 10 11  1  0
 12 14  1  0
 12 11  1  0
 12 13  1  1
 14 15  1  6
 15  8  1  0
 16 17  2  0
 16 14  1  0
 19 18  1  6
 19 21  1  0
 19 20  1  0
 21 22  1  1
 22 16  1  0
 23 21  1  0
 24 23  1  0
 25 23  2  0
M  END
$$$$
