QIT.pdb
     RDKit          3D

 25 24  0  0  1  0  0  0  0  0999 V2000
   24.2227  -12.8740  -16.4848 N   0  0  0  0  0  0  0  0  0  0  0  0
   23.5200  -14.0932  -16.2805 C   0  0  0  0  0  0  0  0  0  0  0  0
   24.1824  -15.0824  -15.8780 O   0  0  0  0  0  0  0  0  0  0  0  0
   22.0585  -14.1617  -16.5424 C   0  0  0  0  0  0  0  0  0  0  0  0
   21.6001  -12.7665  -16.8999 C   0  0  0  0  0  0  0  0  0  0  0  0
   20.1034  -12.6771  -17.0223 C   0  0  2  0  0  0  0  0  0  0  0  0
   19.7064  -13.4876  -18.1590 N   0  0  0  0  0  0  0  0  0  0  0  0
   19.6470  -11.2649  -17.1786 C   0  0  0  0  0  0  0  0  0  0  0  0
   19.3871  -10.8820  -18.3402 O   0  0  0  0  0  0  0  0  0  0  0  0
   15.6625   -9.1846  -14.2486 C   0  0  0  0  0  0  0  0  0  0  0  0
   17.1583   -9.3539  -14.5283 C   0  0  0  0  0  0  0  0  0  0  0  0
   17.5282   -8.8852  -15.9195 C   0  0  2  0  0  0  0  0  0  0  0  0
   16.8357   -9.7494  -16.9659 C   0  0  0  0  0  0  0  0  0  0  0  0
   19.0331   -9.0380  -16.0702 C   0  0  2  0  0  0  0  0  0  0  0  0
   19.5083  -10.3879  -16.0829 N   0  0  0  0  0  0  0  0  0  0  0  0
   19.8378   -8.1257  -15.2799 C   0  0  0  0  0  0  0  0  0  0  0  0
   20.3927   -8.4819  -14.2183 O   0  0  0  0  0  0  0  0  0  0  0  0
   22.9639   -6.4546  -15.9701 C   0  0  0  0  0  0  0  0  0  0  0  0
   22.0213   -5.3101  -15.6676 C   0  0  1  0  0  0  0  0  0  0  0  0
   21.5536   -4.8007  -16.8877 O   0  0  0  0  0  0  0  0  0  0  0  0
   20.8234   -5.8329  -14.9024 C   0  0  2  0  0  0  0  0  0  0  0  0
   20.0403   -6.7517  -15.6811 N   0  0  0  0  0  0  0  0  0  0  0  0
   20.0338   -4.6873  -14.4039 C   0  0  0  0  0  0  0  0  0  0  0  0
   20.6100   -3.8038  -13.5043 O   0  0  0  0  0  0  0  0  0  0  0  0
   18.8435   -4.4990  -14.7828 O   0  0  0  0  0  0  0  0  0  0  0  0
  2  1  1  0
  3  2  2  0
  4  2  1  0
  5  4  1  0
  6  5  1  0
  6  7  1  6
  8  6  1  0
  9  8  2  0
 10 11  1  0
 12 14  1  0
 12 11  1  0
 12 13  1  6
 14 15  1  1
 15  8  1  0
 16 17  2  0
 16 14  1  0
 19 18  1  6
 19 21  1  0
 19 20  1  0
 21 22  1  6
 22 16  1  0
 23 21  1  0
 24 23  1  0
 25 23  2  0
M  END
$$$$
