QIT.pdb
     RDKit          3D

 25 24  0  0  1  0  0  0  0  0999 V2000
   28.1766  -17.9886  -16.2675 N   0  0  0  0  0  0  0  0  0  0  0  0
   28.7091  -18.5126  -17.4774 C   0  0  0  0  0  0  0  0  0  0  0  0
   29.7051  -17.9277  -17.9725 O   0  0  0  0  0  0  0  0  0  0  0  0
   28.0883  -19.7076  -18.1067 C   0  0  0  0  0  0  0  0  0  0  0  0
   27.0092  -20.1996  -17.1695 C   0  0  0  0  0  0  0  0  0  0  0  0
   27.5755  -20.9845  -16.0178 C   0  0  2  0  0  0  0  0  0  0  0  0
   28.2353  -22.1551  -16.5662 N   0  0  0  0  0  0  0  0  0  0  0  0
   26.5160  -21.3688  -15.0395 C   0  0  0  0  0  0  0  0  0  0  0  0
   25.6375  -22.1619  -15.4429 O   0  0  0  0  0  0  0  0  0  0  0  0
   25.2402  -21.2147   -8.8856 C   0  0  0  0  0  0  0  0  0  0  0  0
   24.8427  -21.3073  -10.3614 C   0  0  0  0  0  0  0  0  0  0  0  0
   25.9991  -20.9712  -11.2787 C   0  0  2  0  0  0  0  0  0  0  0  0
   26.4774  -19.5479  -11.0206 C   0  0  0  0  0  0  0  0  0  0  0  0
   25.4941  -21.0707  -12.7091 C   0  0  2  0  0  0  0  0  0  0  0  0
   26.4883  -20.8735  -13.7194 N   0  0  0  0  0  0  0  0  0  0  0  0
   24.2295  -20.4111  -12.9743 C   0  0  0  0  0  0  0  0  0  0  0  0
   24.1640  -19.1979  -13.2667 O   0  0  0  0  0  0  0  0  0  0  0  0
   21.2027  -22.2638  -14.9729 C   0  0  0  0  0  0  0  0  0  0  0  0
   21.3949  -20.7788  -14.7543 C   0  0  1  0  0  0  0  0  0  0  0  0
   20.1764  -20.1400  -15.0266 O   0  0  0  0  0  0  0  0  0  0  0  0
   21.7290  -20.5229  -13.2995 C   0  0  2  0  0  0  0  0  0  0  0  0
   22.9745  -21.1261  -12.9139 N   0  0  0  0  0  0  0  0  0  0  0  0
   20.5951  -20.9649  -12.4608 C   0  0  0  0  0  0  0  0  0  0  0  0
   19.3509  -20.3788  -12.6349 O   0  0  0  0  0  0  0  0  0  0  0  0
   20.7396  -21.8669  -11.5881 O   0  0  0  0  0  0  0  0  0  0  0  0
  2  1  1  0
  3  2  2  0
  4  2  1  0
  5  4  1  0
  6  5  1  0
  6  7  1  6
  8  6  1  0
  9  8  2  0
 10 11  1  0
 12 14  1  0
 12 11  1  0
 12 13  1  1
 14 15  1  6
 15  8  1  0
 16 17  2  0
 16 14  1  0
 19 18  1  1
 19 21  1  0
 19 20  1  0
 21 22  1  1
 22 16  1  0
 23 21  1  0
 24 23  1  0
 25 23  2  0
M  END
$$$$
