GVY.pdb
     RDKit          3D

 24 24  0  0  1  0  0  0  0  0999 V2000
   10.1406  -17.7219   17.4487 N   0  0  0  0  0  0  0  0  0  0  0  0
    9.0583  -17.4992   18.3781 C   0  0  0  0  0  0  0  0  0  0  0  0
    9.4231  -16.4126   19.3068 C   0  0  0  0  0  0  0  0  0  0  0  0
   10.6269  -16.1177   19.5761 O   0  0  0  0  0  0  0  0  0  0  0  0
    7.4870  -12.9580   19.5111 C   0  0  0  0  0  0  0  0  0  0  0  0
    7.5462  -13.6342   20.8545 C   0  0  1  0  0  0  0  0  0  0  0  0
    6.1987  -14.2357   21.2002 C   0  0  0  0  0  0  0  0  0  0  0  0
    8.6542  -14.6630   20.9308 C   0  0  2  0  0  0  0  0  0  0  0  0
    8.3911  -15.6637   19.9269 N   0  0  0  0  0  0  0  0  0  0  0  0
    8.7936  -15.2372   22.2846 C   0  0  0  0  0  0  0  0  0  0  0  0
    8.2211  -16.3235   22.5573 O   0  0  0  0  0  0  0  0  0  0  0  0
   10.4404  -16.4040   30.8489 O   0  0  0  0  0  0  0  0  0  0  0  0
   10.4955  -15.9632   29.5313 C   0  0  0  0  0  0  0  0  0  0  0  0
    9.8231  -14.7931   29.2321 C   0  0  0  0  0  0  0  0  0  0  0  0
    9.8292  -14.2931   27.9593 C   0  0  0  0  0  0  0  0  0  0  0  0
   10.5103  -14.9421   26.9227 C   0  0  0  0  0  0  0  0  0  0  0  0
   10.4803  -14.3895   25.5660 C   0  0  0  0  0  0  0  0  0  0  0  0
    9.5610  -15.1726   24.6937 C   0  0  2  0  0  0  0  0  0  0  0  0
    9.5488  -14.6294   23.3216 N   0  0  0  0  0  0  0  0  0  0  0  0
    8.1855  -15.2017   25.2276 C   0  0  0  0  0  0  0  0  0  0  0  0
    7.7101  -16.1057   25.9480 O   0  0  0  0  0  0  0  0  0  0  0  0
   11.1718  -16.1106   27.2589 C   0  0  0  0  0  0  0  0  0  0  0  0
   11.1630  -16.6067   28.5336 C   0  0  0  0  0  0  0  0  0  0  0  0
    7.3428  -14.1226   24.8973 O   0  0  0  0  0  0  0  0  0  0  0  0
  1  2  1  0
  3  2  1  0
  3  9  1  0
  4  3  2  0
  6  5  1  6
  6  8  1  0
  7  6  1  0
  8  9  1  6
  8 10  1  0
 10 19  1  0
 11 10  2  0
 12 13  1  0
 13 23  2  0
 14 13  1  0
 14 15  2  0
 15 16  1  0
 16 22  2  0
 16 17  1  0
 18 20  1  0
 18 17  1  1
 19 18  1  0
 20 24  1  0
 21 20  2  0
 23 22  1  0
M  END
$$$$
