GVY.pdb
     RDKit          3D

 24 24  0  0  1  0  0  0  0  0999 V2000
    7.3023  -12.3000   18.7943 N   0  0  0  0  0  0  0  0  0  0  0  0
    8.5036  -12.8256   19.3986 C   0  0  0  0  0  0  0  0  0  0  0  0
    8.1667  -14.0054   20.2176 C   0  0  0  0  0  0  0  0  0  0  0  0
    6.9864  -14.2507   20.6116 O   0  0  0  0  0  0  0  0  0  0  0  0
    9.4858  -18.5517   21.3796 C   0  0  0  0  0  0  0  0  0  0  0  0
    9.6437  -17.2493   20.6419 C   0  0  1  0  0  0  0  0  0  0  0  0
    9.1683  -17.3949   19.2102 C   0  0  0  0  0  0  0  0  0  0  0  0
    8.9516  -16.1025   21.3473 C   0  0  2  0  0  0  0  0  0  0  0  0
    9.1995  -14.9058   20.5826 N   0  0  0  0  0  0  0  0  0  0  0  0
    9.3733  -15.9751   22.7571 C   0  0  0  0  0  0  0  0  0  0  0  0
   10.5478  -15.6100   23.0204 O   0  0  0  0  0  0  0  0  0  0  0  0
    6.1204  -10.4935   26.2926 O   0  0  0  0  0  0  0  0  0  0  0  0
    6.6107  -11.7944   26.2642 C   0  0  0  0  0  0  0  0  0  0  0  0
    5.6822  -12.8132   26.1604 C   0  0  0  0  0  0  0  0  0  0  0  0
    6.0841  -14.1198   26.1260 C   0  0  0  0  0  0  0  0  0  0  0  0
    7.4377  -14.4700   26.1940 C   0  0  0  0  0  0  0  0  0  0  0  0
    7.8327  -15.8808   26.1742 C   0  0  0  0  0  0  0  0  0  0  0  0
    8.9832  -16.0975   25.2531 C   0  0  2  0  0  0  0  0  0  0  0  0
    8.5203  -16.2440   23.8595 N   0  0  0  0  0  0  0  0  0  0  0  0
    9.7822  -17.2775   25.6368 C   0  0  0  0  0  0  0  0  0  0  0  0
   10.6315  -17.3069   26.5533 O   0  0  0  0  0  0  0  0  0  0  0  0
    8.3386  -13.4242   26.2976 C   0  0  0  0  0  0  0  0  0  0  0  0
    7.9319  -12.1186   26.3315 C   0  0  0  0  0  0  0  0  0  0  0  0
    9.5685  -18.4648   24.9099 O   0  0  0  0  0  0  0  0  0  0  0  0
  1  2  1  0
  3  2  1  0
  3  9  1  0
  4  3  2  0
  6  5  1  1
  6  8  1  0
  7  6  1  0
  8  9  1  6
  8 10  1  0
 10 19  1  0
 11 10  2  0
 12 13  1  0
 13 23  2  0
 14 13  1  0
 14 15  2  0
 15 16  1  0
 16 22  2  0
 16 17  1  0
 18 20  1  0
 18 17  1  1
 19 18  1  0
 20 24  1  0
 21 20  2  0
 23 22  1  0
M  END
$$$$
