GVY.pdb
     RDKit          3D

 24 24  0  0  1  0  0  0  0  0999 V2000
    8.1123  -19.0324   18.8015 N   0  0  0  0  0  0  0  0  0  0  0  0
    7.5659  -18.2754   19.9028 C   0  0  0  0  0  0  0  0  0  0  0  0
    8.4069  -17.0888   20.1495 C   0  0  0  0  0  0  0  0  0  0  0  0
    9.6493  -17.0658   19.8954 O   0  0  0  0  0  0  0  0  0  0  0  0
    8.3877  -12.3262   21.5440 C   0  0  0  0  0  0  0  0  0  0  0  0
    7.6604  -13.5926   21.1796 C   0  0  1  0  0  0  0  0  0  0  0  0
    6.9221  -13.4160   19.8678 C   0  0  0  0  0  0  0  0  0  0  0  0
    8.5810  -14.7939   21.1460 C   0  0  2  0  0  0  0  0  0  0  0  0
    7.8087  -15.9236   20.6924 N   0  0  0  0  0  0  0  0  0  0  0  0
    9.2339  -15.0364   22.4486 C   0  0  0  0  0  0  0  0  0  0  0  0
   10.3467  -14.5027   22.6912 O   0  0  0  0  0  0  0  0  0  0  0  0
    5.9161  -10.9591   26.5142 O   0  0  0  0  0  0  0  0  0  0  0  0
    6.4353  -12.2366   26.3360 C   0  0  0  0  0  0  0  0  0  0  0  0
    7.7645  -12.4257   26.6651 C   0  0  0  0  0  0  0  0  0  0  0  0
    8.3497  -13.6529   26.5187 C   0  0  0  0  0  0  0  0  0  0  0  0
    7.6307  -14.7521   26.0347 C   0  0  0  0  0  0  0  0  0  0  0  0
    8.2938  -16.0486   25.8717 C   0  0  0  0  0  0  0  0  0  0  0  0
    9.3160  -15.9902   24.7897 C   0  0  2  0  0  0  0  0  0  0  0  0
    8.6747  -15.8510   23.4679 N   0  0  0  0  0  0  0  0  0  0  0  0
   10.1914  -17.1783   24.7933 C   0  0  0  0  0  0  0  0  0  0  0  0
   10.3115  -17.9890   23.8497 O   0  0  0  0  0  0  0  0  0  0  0  0
    6.3031  -14.5257   25.7152 C   0  0  0  0  0  0  0  0  0  0  0  0
    5.7220  -13.2964   25.8635 C   0  0  0  0  0  0  0  0  0  0  0  0
   10.9518  -17.4152   25.9551 O   0  0  0  0  0  0  0  0  0  0  0  0
  1  2  1  0
  3  2  1  0
  3  9  1  0
  4  3  2  0
  6  5  1  6
  6  8  1  0
  7  6  1  0
  8  9  1  1
  8 10  1  0
 10 19  1  0
 11 10  2  0
 12 13  1  0
 13 23  2  0
 14 13  1  0
 14 15  2  0
 15 16  1  0
 16 22  2  0
 16 17  1  0
 18 20  1  0
 18 17  1  1
 19 18  1  0
 20 24  1  0
 21 20  2  0
 23 22  1  0
M  END
$$$$
