GVY.pdb
     RDKit          3D

 24 24  0  0  1  0  0  0  0  0999 V2000
    6.3789  -19.4790   25.8858 N   0  0  0  0  0  0  0  0  0  0  0  0
    6.0645  -18.1295   25.4801 C   0  0  0  0  0  0  0  0  0  0  0  0
    7.1038  -17.6389   24.5553 C   0  0  0  0  0  0  0  0  0  0  0  0
    8.1347  -18.3172   24.2623 O   0  0  0  0  0  0  0  0  0  0  0  0
    8.1237  -14.2555   21.1010 C   0  0  0  0  0  0  0  0  0  0  0  0
    7.1900  -14.9401   22.0628 C   0  0  1  0  0  0  0  0  0  0  0  0
    6.1509  -15.7427   21.3056 C   0  0  0  0  0  0  0  0  0  0  0  0
    7.9293  -15.7929   23.0718 C   0  0  2  0  0  0  0  0  0  0  0  0
    6.9505  -16.3581   23.9667 N   0  0  0  0  0  0  0  0  0  0  0  0
    8.9806  -15.0364   23.7818 C   0  0  0  0  0  0  0  0  0  0  0  0
    8.8351  -13.8008   23.9669 O   0  0  0  0  0  0  0  0  0  0  0  0
    9.3548  -17.6719   30.1824 O   0  0  0  0  0  0  0  0  0  0  0  0
    9.7772  -16.7954   29.1890 C   0  0  0  0  0  0  0  0  0  0  0  0
    8.7951  -16.1812   28.4345 C   0  0  0  0  0  0  0  0  0  0  0  0
    9.1286  -15.3056   27.4385 C   0  0  0  0  0  0  0  0  0  0  0  0
   10.4642  -15.0022   27.1494 C   0  0  0  0  0  0  0  0  0  0  0  0
   10.7872  -14.0743   26.0623 C   0  0  0  0  0  0  0  0  0  0  0  0
   11.2589  -14.8117   24.8570 C   0  0  2  0  0  0  0  0  0  0  0  0
   10.1717  -15.6262   24.2804 N   0  0  0  0  0  0  0  0  0  0  0  0
   12.4187  -15.6737   25.1566 C   0  0  0  0  0  0  0  0  0  0  0  0
   12.4354  -16.9198   25.0612 O   0  0  0  0  0  0  0  0  0  0  0  0
   11.4201  -15.6358   27.9245 C   0  0  0  0  0  0  0  0  0  0  0  0
   11.0817  -16.5108   28.9199 C   0  0  0  0  0  0  0  0  0  0  0  0
   13.6008  -15.0383   25.5843 O   0  0  0  0  0  0  0  0  0  0  0  0
  1  2  1  0
  3  2  1  0
  3  9  1  0
  4  3  2  0
  6  5  1  6
  6  8  1  0
  7  6  1  0
  8  9  1  1
  8 10  1  0
 10 19  1  0
 11 10  2  0
 12 13  1  0
 13 23  2  0
 14 13  1  0
 14 15  2  0
 15 16  1  0
 16 22  2  0
 16 17  1  0
 18 20  1  0
 18 17  1  1
 19 18  1  0
 20 24  1  0
 21 20  2  0
 23 22  1  0
M  END
$$$$
