GVY.pdb
     RDKit          3D

 24 24  0  0  1  0  0  0  0  0999 V2000
   11.5461  -17.1366   17.9869 N   0  0  0  0  0  0  0  0  0  0  0  0
   10.2050  -17.1363   18.5217 C   0  0  0  0  0  0  0  0  0  0  0  0
   10.1520  -16.2726   19.7165 C   0  0  0  0  0  0  0  0  0  0  0  0
   11.1675  -16.0430   20.4406 O   0  0  0  0  0  0  0  0  0  0  0  0
    7.9335  -12.9394   20.0130 C   0  0  0  0  0  0  0  0  0  0  0  0
    7.6141  -13.9475   21.0842 C   0  0  1  0  0  0  0  0  0  0  0  0
    6.3091  -14.6518   20.7711 C   0  0  0  0  0  0  0  0  0  0  0  0
    8.7434  -14.9322   21.3005 C   0  0  2  0  0  0  0  0  0  0  0  0
    8.9189  -15.6717   20.0755 N   0  0  0  0  0  0  0  0  0  0  0  0
    8.5073  -15.8086   22.4659 C   0  0  0  0  0  0  0  0  0  0  0  0
    8.1719  -17.0066   22.2806 O   0  0  0  0  0  0  0  0  0  0  0  0
    5.6710  -10.9199   26.7392 O   0  0  0  0  0  0  0  0  0  0  0  0
    6.3702  -12.1161   26.6226 C   0  0  0  0  0  0  0  0  0  0  0  0
    7.7471  -12.0323   26.5328 C   0  0  0  0  0  0  0  0  0  0  0  0
    8.5068  -13.1633   26.4160 C   0  0  0  0  0  0  0  0  0  0  0  0
    7.9232  -14.4353   26.3835 C   0  0  0  0  0  0  0  0  0  0  0  0
    8.7652  -15.6256   26.2379 C   0  0  0  0  0  0  0  0  0  0  0  0
    8.4944  -16.3129   24.9443 C   0  0  2  0  0  0  0  0  0  0  0  0
    8.6373  -15.3772   23.8121 N   0  0  0  0  0  0  0  0  0  0  0  0
    7.1517  -16.9247   24.9155 C   0  0  0  0  0  0  0  0  0  0  0  0
    6.7818  -17.8868   25.6224 O   0  0  0  0  0  0  0  0  0  0  0  0
    6.5428  -14.4807   26.4754 C   0  0  0  0  0  0  0  0  0  0  0  0
    5.7870  -13.3466   26.5922 C   0  0  0  0  0  0  0  0  0  0  0  0
    6.2134  -16.3784   24.0182 O   0  0  0  0  0  0  0  0  0  0  0  0
  1  2  1  0
  3  2  1  0
  3  9  1  0
  4  3  2  0
  6  5  1  6
  6  8  1  0
  7  6  1  0
  8  9  1  6
  8 10  1  0
 10 19  1  0
 11 10  2  0
 12 13  1  0
 13 23  2  0
 14 13  1  0
 14 15  2  0
 15 16  1  0
 16 22  2  0
 16 17  1  0
 18 20  1  0
 18 17  1  1
 19 18  1  0
 20 24  1  0
 21 20  2  0
 23 22  1  0
M  END
$$$$
