GVY.pdb
     RDKit          3D

 24 24  0  0  1  0  0  0  0  0999 V2000
   11.8160  -17.5944   18.5524 N   0  0  0  0  0  0  0  0  0  0  0  0
   10.4298  -17.6089   18.9560 C   0  0  0  0  0  0  0  0  0  0  0  0
   10.2323  -16.6641   20.0716 C   0  0  0  0  0  0  0  0  0  0  0  0
   11.1775  -16.2979   20.8339 O   0  0  0  0  0  0  0  0  0  0  0  0
    6.1675  -15.3426   20.9889 C   0  0  0  0  0  0  0  0  0  0  0  0
    7.4011  -14.4850   21.0798 C   0  0  1  0  0  0  0  0  0  0  0  0
    7.1791  -13.3460   22.0547 C   0  0  0  0  0  0  0  0  0  0  0  0
    8.6347  -15.2894   21.4309 C   0  0  2  0  0  0  0  0  0  0  0  0
    8.9358  -16.1403   20.3068 N   0  0  0  0  0  0  0  0  0  0  0  0
    8.4717  -16.0449   22.6896 C   0  0  0  0  0  0  0  0  0  0  0  0
    8.1767  -17.2667   22.6434 O   0  0  0  0  0  0  0  0  0  0  0  0
    5.5324  -10.8538   26.4785 O   0  0  0  0  0  0  0  0  0  0  0  0
    6.2838  -12.0239   26.4815 C   0  0  0  0  0  0  0  0  0  0  0  0
    7.6377  -11.9012   26.2313 C   0  0  0  0  0  0  0  0  0  0  0  0
    8.4454  -13.0046   26.2171 C   0  0  0  0  0  0  0  0  0  0  0  0
    7.9352  -14.2865   26.4532 C   0  0  0  0  0  0  0  0  0  0  0  0
    8.8251  -15.4498   26.4114 C   0  0  0  0  0  0  0  0  0  0  0  0
    8.5545  -16.2826   25.2063 C   0  0  2  0  0  0  0  0  0  0  0  0
    8.6300  -15.4690   23.9775 N   0  0  0  0  0  0  0  0  0  0  0  0
    7.2395  -16.9485   25.2801 C   0  0  0  0  0  0  0  0  0  0  0  0
    6.9404  -17.8696   26.0702 O   0  0  0  0  0  0  0  0  0  0  0  0
    6.5757  -14.3712   26.6996 C   0  0  0  0  0  0  0  0  0  0  0  0
    5.7718  -13.2646   26.7130 C   0  0  0  0  0  0  0  0  0  0  0  0
    6.2431  -16.5085   24.3870 O   0  0  0  0  0  0  0  0  0  0  0  0
  1  2  1  0
  3  2  1  0
  3  9  1  0
  4  3  2  0
  6  5  1  1
  6  8  1  0
  7  6  1  0
  8  9  1  6
  8 10  1  0
 10 19  1  0
 11 10  2  0
 12 13  1  0
 13 23  2  0
 14 13  1  0
 14 15  2  0
 15 16  1  0
 16 22  2  0
 16 17  1  0
 18 20  1  0
 18 17  1  1
 19 18  1  0
 20 24  1  0
 21 20  2  0
 23 22  1  0
M  END
$$$$
