GVY.pdb
     RDKit          3D

 24 24  0  0  1  0  0  0  0  0999 V2000
    5.4311  -19.0327   20.7746 N   0  0  0  0  0  0  0  0  0  0  0  0
    5.3182  -17.7727   21.4705 C   0  0  0  0  0  0  0  0  0  0  0  0
    6.5551  -16.9920   21.2784 C   0  0  0  0  0  0  0  0  0  0  0  0
    7.6503  -17.5219   20.9202 O   0  0  0  0  0  0  0  0  0  0  0  0
    8.5175  -12.5071   20.7833 C   0  0  0  0  0  0  0  0  0  0  0  0
    7.3281  -13.4153   20.9447 C   0  0  1  0  0  0  0  0  0  0  0  0
    6.5675  -13.5228   19.6382 C   0  0  0  0  0  0  0  0  0  0  0  0
    7.7145  -14.7773   21.4807 C   0  0  2  0  0  0  0  0  0  0  0  0
    6.5254  -15.5921   21.5015 N   0  0  0  0  0  0  0  0  0  0  0  0
    8.3713  -14.6944   22.8012 C   0  0  0  0  0  0  0  0  0  0  0  0
    8.1123  -13.7259   23.5607 O   0  0  0  0  0  0  0  0  0  0  0  0
    5.8978  -11.2282   26.9956 O   0  0  0  0  0  0  0  0  0  0  0  0
    6.7190  -12.3058   26.6830 C   0  0  0  0  0  0  0  0  0  0  0  0
    6.0960  -13.4957   26.3561 C   0  0  0  0  0  0  0  0  0  0  0  0
    6.8334  -14.6021   26.0362 C   0  0  0  0  0  0  0  0  0  0  0  0
    8.2328  -14.5701   26.0283 C   0  0  0  0  0  0  0  0  0  0  0  0
    8.9927  -15.7792   25.6997 C   0  0  0  0  0  0  0  0  0  0  0  0
    9.9550  -15.5174   24.5932 C   0  0  2  0  0  0  0  0  0  0  0  0
    9.2968  -15.6585   23.2800 N   0  0  0  0  0  0  0  0  0  0  0  0
   11.1273  -16.4116   24.6588 C   0  0  0  0  0  0  0  0  0  0  0  0
   11.4476  -17.2467   23.7858 O   0  0  0  0  0  0  0  0  0  0  0  0
    8.8219  -13.3625   26.3610 C   0  0  0  0  0  0  0  0  0  0  0  0
    8.0802  -12.2585   26.6801 C   0  0  0  0  0  0  0  0  0  0  0  0
   11.9496  -16.3140   25.7982 O   0  0  0  0  0  0  0  0  0  0  0  0
  1  2  1  0
  3  2  1  0
  3  9  1  0
  4  3  2  0
  6  5  1  6
  6  8  1  0
  7  6  1  0
  8  9  1  1
  8 10  1  0
 10 19  1  0
 11 10  2  0
 12 13  1  0
 13 23  2  0
 14 13  1  0
 14 15  2  0
 15 16  1  0
 16 22  2  0
 16 17  1  0
 18 20  1  0
 18 17  1  1
 19 18  1  0
 20 24  1  0
 21 20  2  0
 23 22  1  0
M  END
$$$$
