IFW.pdb
     RDKit          3D

 34 36  0  0  1  0  0  0  0  0999 V2000
    7.6390  -12.3898   18.0067 C   0  0  0  0  0  0  0  0  0  0  0  0
    7.9715  -13.6555   18.7353 C   0  0  0  0  0  0  0  0  0  0  0  0
    9.1091  -14.3502   18.0435 C   0  0  2  0  0  0  0  0  0  0  0  0
    8.8047  -14.6168   16.5994 C   0  0  0  0  0  0  0  0  0  0  0  0
    9.4394  -15.6192   18.8133 C   0  0  2  0  0  0  0  0  0  0  0  0
    8.3740  -16.6049   18.5102 N   0  0  0  0  0  0  0  0  0  0  0  0
    9.4737  -15.4435   20.2621 C   0  0  0  0  0  0  0  0  0  0  0  0
   10.4330  -14.8080   20.8221 O   0  0  0  0  0  0  0  0  0  0  0  0
    8.4809  -15.9369   21.1809 N   0  0  0  0  0  0  0  0  0  0  0  0
    8.5660  -15.6060   22.5981 C   0  0  1  0  0  0  0  0  0  0  0  0
    7.1114  -15.4903   23.0462 C   0  0  0  0  0  0  0  0  0  0  0  0
    6.9522  -14.9178   24.3979 C   0  0  0  0  0  0  0  0  0  0  0  0
    7.0343  -13.5633   24.6360 C   0  0  0  0  0  0  0  0  0  0  0  0
    6.8661  -13.0087   25.9105 C   0  0  0  0  0  0  0  0  0  0  0  0
    6.6085  -13.8430   26.9668 C   0  0  0  0  0  0  0  0  0  0  0  0
    6.5215  -15.1947   26.7594 C   0  0  0  0  0  0  0  0  0  0  0  0
    6.6907  -15.7311   25.4912 C   0  0  0  0  0  0  0  0  0  0  0  0
    9.2181  -16.6792   23.3597 C   0  0  0  0  0  0  0  0  0  0  0  0
    9.1415  -17.8625   22.8877 O   0  0  0  0  0  0  0  0  0  0  0  0
    9.9272  -16.4871   24.5782 N   0  0  0  0  0  0  0  0  0  0  0  0
   10.7503  -17.5740   25.1158 C   0  0  1  0  0  0  0  0  0  0  0  0
   11.7580  -16.9306   26.0371 C   0  0  0  0  0  0  0  0  0  0  0  0
   11.2577  -16.6085   27.3696 C   0  0  0  0  0  0  0  0  0  0  0  0
   11.3060  -17.3861   28.5210 C   0  0  0  0  0  0  0  0  0  0  0  0
   10.7222  -16.6962   29.5129 N   0  0  0  0  0  0  0  0  0  0  0  0
   10.3011  -15.5072   29.0468 C   0  0  0  0  0  0  0  0  0  0  0  0
    9.6588  -14.4182   29.6288 C   0  0  0  0  0  0  0  0  0  0  0  0
    9.3486  -13.2886   28.9051 C   0  0  0  0  0  0  0  0  0  0  0  0
    9.6649  -13.1928   27.5637 C   0  0  0  0  0  0  0  0  0  0  0  0
   10.3002  -14.2760   26.9947 C   0  0  0  0  0  0  0  0  0  0  0  0
   10.6196  -15.4187   27.7079 C   0  0  0  0  0  0  0  0  0  0  0  0
    9.9357  -18.6182   25.7152 C   0  0  0  0  0  0  0  0  0  0  0  0
   10.4783  -19.8713   26.1000 O   0  0  0  0  0  0  0  0  0  0  0  0
    8.7072  -18.5128   25.9440 O   0  0  0  0  0  0  0  0  0  0  0  0
  2  1  1  0
  3  2  1  0
  3  4  1  6
  5  3  1  0
  5  6  1  1
  7  5  1  0
  8  7  2  0
  9  7  1  0
 10  9  1  0
 11 12  1  0
 10 11  1  1
 12 13  2  0
 13 14  1  0
 15 14  2  0
 16 15  1  0
 17 16  2  0
 17 12  1  0
 18 10  1  0
 18 19  2  0
 20 18  1  0
 21 20  1  0
 21 22  1  1
 23 22  1  0
 23 31  1  0
 24 23  2  0
 25 24  1  0
 25 26  1  0
 26 27  1  0
 26 31  2  0
 27 28  2  0
 28 29  1  0
 30 29  2  0
 31 30  1  0
 32 21  1  0
 33 32  1  0
 34 32  2  0
M  END
$$$$
