IFW.pdb
     RDKit          3D

 34 36  0  0  1  0  0  0  0  0999 V2000
   11.1174  -20.2366   19.2881 C   0  0  0  0  0  0  0  0  0  0  0  0
   10.7078  -18.8153   19.0525 C   0  0  0  0  0  0  0  0  0  0  0  0
    9.2884  -18.7753   18.5636 C   0  0  2  0  0  0  0  0  0  0  0  0
    9.1056  -19.5844   17.3141 C   0  0  0  0  0  0  0  0  0  0  0  0
    8.8816  -17.3216   18.3811 C   0  0  2  0  0  0  0  0  0  0  0  0
    9.8555  -16.7086   17.4461 N   0  0  0  0  0  0  0  0  0  0  0  0
    8.9053  -16.5387   19.6131 C   0  0  0  0  0  0  0  0  0  0  0  0
    9.9885  -15.9935   20.0217 O   0  0  0  0  0  0  0  0  0  0  0  0
    7.7695  -16.2993   20.4652 N   0  0  0  0  0  0  0  0  0  0  0  0
    7.9435  -15.6212   21.7439 C   0  0  1  0  0  0  0  0  0  0  0  0
    6.5268  -15.2370   22.1628 C   0  0  0  0  0  0  0  0  0  0  0  0
    6.4630  -14.5355   23.4604 C   0  0  0  0  0  0  0  0  0  0  0  0
    5.9115  -15.1152   24.5821 C   0  0  0  0  0  0  0  0  0  0  0  0
    5.8631  -14.4661   25.8217 C   0  0  0  0  0  0  0  0  0  0  0  0
    6.3847  -13.2033   25.9286 C   0  0  0  0  0  0  0  0  0  0  0  0
    6.9394  -12.6021   24.8293 C   0  0  0  0  0  0  0  0  0  0  0  0
    6.9804  -13.2565   23.6066 C   0  0  0  0  0  0  0  0  0  0  0  0
    8.5141  -16.5220   22.7538 C   0  0  0  0  0  0  0  0  0  0  0  0
    7.9570  -17.6603   22.9053 O   0  0  0  0  0  0  0  0  0  0  0  0
    9.6408  -16.2127   23.5658 N   0  0  0  0  0  0  0  0  0  0  0  0
   10.1600  -17.2184   24.4969 C   0  0  1  0  0  0  0  0  0  0  0  0
   11.2469  -16.5402   25.2950 C   0  0  0  0  0  0  0  0  0  0  0  0
   11.0305  -16.5191   26.7380 C   0  0  0  0  0  0  0  0  0  0  0  0
   10.8501  -17.5951   27.5996 C   0  0  0  0  0  0  0  0  0  0  0  0
   10.6801  -17.1106   28.8393 N   0  0  0  0  0  0  0  0  0  0  0  0
   10.7444  -15.7677   28.8103 C   0  0  0  0  0  0  0  0  0  0  0  0
   10.6510  -14.7785   29.7850 C   0  0  0  0  0  0  0  0  0  0  0  0
   10.7711  -13.4424   29.4749 C   0  0  0  0  0  0  0  0  0  0  0  0
   10.9899  -13.0297   28.1747 C   0  0  0  0  0  0  0  0  0  0  0  0
   11.0803  -14.0156   27.2153 C   0  0  0  0  0  0  0  0  0  0  0  0
   10.9624  -15.3630   27.5101 C   0  0  0  0  0  0  0  0  0  0  0  0
    9.0962  -17.8235   25.2814 C   0  0  0  0  0  0  0  0  0  0  0  0
    9.1468  -19.1767   25.7046 O   0  0  0  0  0  0  0  0  0  0  0  0
    8.0595  -17.2218   25.6499 O   0  0  0  0  0  0  0  0  0  0  0  0
  2  1  1  0
  3  2  1  0
  3  4  1  6
  5  3  1  0
  5  6  1  6
  7  5  1  0
  8  7  2  0
  9  7  1  0
 10  9  1  0
 11 12  1  0
 10 11  1  1
 12 13  2  0
 13 14  1  0
 15 14  2  0
 16 15  1  0
 17 16  2  0
 17 12  1  0
 18 10  1  0
 18 19  2  0
 20 18  1  0
 21 20  1  0
 21 22  1  1
 23 22  1  0
 23 31  1  0
 24 23  2  0
 25 24  1  0
 25 26  1  0
 26 27  1  0
 26 31  2  0
 27 28  2  0
 28 29  1  0
 30 29  2  0
 31 30  1  0
 32 21  1  0
 33 32  1  0
 34 32  2  0
M  END
$$$$
