IFW.pdb
     RDKit          3D

 34 36  0  0  1  0  0  0  0  0999 V2000
   11.6184  -20.6128   18.6856 C   0  0  0  0  0  0  0  0  0  0  0  0
   10.5307  -19.5931   18.5431 C   0  0  0  0  0  0  0  0  0  0  0  0
   10.6072  -18.6138   19.6791 C   0  0  2  0  0  0  0  0  0  0  0  0
   10.5666  -19.3006   21.0116 C   0  0  0  0  0  0  0  0  0  0  0  0
    9.4903  -17.5953   19.5143 C   0  0  2  0  0  0  0  0  0  0  0  0
    9.6604  -16.9710   18.1802 N   0  0  0  0  0  0  0  0  0  0  0  0
    9.5126  -16.5233   20.5051 C   0  0  0  0  0  0  0  0  0  0  0  0
   10.5563  -15.8002   20.6640 O   0  0  0  0  0  0  0  0  0  0  0  0
    8.4173  -16.1721   21.3713 N   0  0  0  0  0  0  0  0  0  0  0  0
    8.5922  -15.1488   22.3947 C   0  0  1  0  0  0  0  0  0  0  0  0
    7.5044  -14.1220   22.0910 C   0  0  0  0  0  0  0  0  0  0  0  0
    7.5350  -13.6202   20.7028 C   0  0  0  0  0  0  0  0  0  0  0  0
    6.9647  -14.3144   19.6583 C   0  0  0  0  0  0  0  0  0  0  0  0
    6.9717  -13.8384   18.3416 C   0  0  0  0  0  0  0  0  0  0  0  0
    7.5682  -12.6334   18.0764 C   0  0  0  0  0  0  0  0  0  0  0  0
    8.1435  -11.9212   19.0959 C   0  0  0  0  0  0  0  0  0  0  0  0
    8.1300  -12.4048   20.3962 C   0  0  0  0  0  0  0  0  0  0  0  0
    8.3733  -15.6951   23.7403 C   0  0  0  0  0  0  0  0  0  0  0  0
    7.4105  -15.2071   24.4213 O   0  0  0  0  0  0  0  0  0  0  0  0
    9.1561  -16.7273   24.3288 N   0  0  0  0  0  0  0  0  0  0  0  0
   10.1573  -16.3873   25.3436 C   0  0  1  0  0  0  0  0  0  0  0  0
    9.4064  -16.2075   26.6406 C   0  0  0  0  0  0  0  0  0  0  0  0
    8.1298  -15.5104   26.5225 C   0  0  0  0  0  0  0  0  0  0  0  0
    6.8938  -16.0295   26.1544 C   0  0  0  0  0  0  0  0  0  0  0  0
    6.0003  -15.0285   26.1747 N   0  0  0  0  0  0  0  0  0  0  0  0
    6.6107  -13.8877   26.5412 C   0  0  0  0  0  0  0  0  0  0  0  0
    6.1725  -12.5810   26.7348 C   0  0  0  0  0  0  0  0  0  0  0  0
    7.0298  -11.5814   27.1369 C   0  0  0  0  0  0  0  0  0  0  0  0
    8.3678  -11.8395   27.3647 C   0  0  0  0  0  0  0  0  0  0  0  0
    8.7940  -13.1360   27.1699 C   0  0  0  0  0  0  0  0  0  0  0  0
    7.9453  -14.1525   26.7664 C   0  0  0  0  0  0  0  0  0  0  0  0
   11.2375  -17.3595   25.3787 C   0  0  0  0  0  0  0  0  0  0  0  0
   12.3480  -17.2226   26.2510 O   0  0  0  0  0  0  0  0  0  0  0  0
   11.2887  -18.3859   24.6600 O   0  0  0  0  0  0  0  0  0  0  0  0
  2  1  1  0
  3  2  1  0
  3  4  1  1
  5  3  1  0
  5  6  1  6
  7  5  1  0
  8  7  2  0
  9  7  1  0
 10  9  1  0
 11 12  1  0
 10 11  1  6
 12 13  2  0
 13 14  1  0
 15 14  2  0
 16 15  1  0
 17 16  2  0
 17 12  1  0
 18 10  1  0
 18 19  2  0
 20 18  1  0
 21 20  1  0
 21 22  1  1
 23 22  1  0
 23 31  1  0
 24 23  2  0
 25 24  1  0
 25 26  1  0
 26 27  1  0
 26 31  2  0
 27 28  2  0
 28 29  1  0
 30 29  2  0
 31 30  1  0
 32 21  1  0
 33 32  1  0
 34 32  2  0
M  END
$$$$
