IFW.pdb
     RDKit          3D

 34 36  0  0  1  0  0  0  0  0999 V2000
   10.4364  -19.0526   15.3638 C   0  0  0  0  0  0  0  0  0  0  0  0
    9.2261  -18.7817   16.2035 C   0  0  0  0  0  0  0  0  0  0  0  0
    9.5987  -17.8843   17.3485 C   0  0  2  0  0  0  0  0  0  0  0  0
   10.6740  -18.4869   18.2027 C   0  0  0  0  0  0  0  0  0  0  0  0
    8.3399  -17.5613   18.1380 C   0  0  2  0  0  0  0  0  0  0  0  0
    7.3848  -16.9261   17.1984 N   0  0  0  0  0  0  0  0  0  0  0  0
    8.5533  -16.6298   19.2416 C   0  0  0  0  0  0  0  0  0  0  0  0
    9.2604  -15.5754   19.0810 O   0  0  0  0  0  0  0  0  0  0  0  0
    8.0171  -16.7808   20.5694 N   0  0  0  0  0  0  0  0  0  0  0  0
    8.3861  -15.8393   21.6195 C   0  0  1  0  0  0  0  0  0  0  0  0
    7.1587  -15.7848   22.5253 C   0  0  0  0  0  0  0  0  0  0  0  0
    7.2278  -14.7268   23.5528 C   0  0  0  0  0  0  0  0  0  0  0  0
    8.1502  -13.7050   23.4938 C   0  0  0  0  0  0  0  0  0  0  0  0
    8.2119  -12.6866   24.4525 C   0  0  0  0  0  0  0  0  0  0  0  0
    7.3203  -12.7022   25.4932 C   0  0  0  0  0  0  0  0  0  0  0  0
    6.3919  -13.7064   25.5774 C   0  0  0  0  0  0  0  0  0  0  0  0
    6.3421  -14.7099   24.6206 C   0  0  0  0  0  0  0  0  0  0  0  0
    9.5334  -16.3269   22.3960 C   0  0  0  0  0  0  0  0  0  0  0  0
    9.7804  -17.5783   22.3534 O   0  0  0  0  0  0  0  0  0  0  0  0
   10.3831  -15.5014   23.1840 N   0  0  0  0  0  0  0  0  0  0  0  0
   10.8790  -15.9938   24.4722 C   0  0  1  0  0  0  0  0  0  0  0  0
    9.7012  -15.9807   25.4161 C   0  0  0  0  0  0  0  0  0  0  0  0
   10.0373  -16.1641   26.8243 C   0  0  0  0  0  0  0  0  0  0  0  0
   10.1879  -17.3536   27.5278 C   0  0  0  0  0  0  0  0  0  0  0  0
   10.4927  -17.0487   28.7986 N   0  0  0  0  0  0  0  0  0  0  0  0
   10.5448  -15.7125   28.9407 C   0  0  0  0  0  0  0  0  0  0  0  0
   10.8234  -14.8689   30.0120 C   0  0  0  0  0  0  0  0  0  0  0  0
   10.8227  -13.4989   29.8745 C   0  0  0  0  0  0  0  0  0  0  0  0
   10.5430  -12.9052   28.6587 C   0  0  0  0  0  0  0  0  0  0  0  0
   10.2673  -13.7478   27.6030 C   0  0  0  0  0  0  0  0  0  0  0  0
   10.2643  -15.1268   27.7241 C   0  0  0  0  0  0  0  0  0  0  0  0
   11.5525  -17.2746   24.3340 C   0  0  0  0  0  0  0  0  0  0  0  0
   10.9801  -18.3544   23.6136 O   0  0  0  0  0  0  0  0  0  0  0  0
   12.6754  -17.5396   24.8256 O   0  0  0  0  0  0  0  0  0  0  0  0
  2  1  1  0
  3  2  1  0
  3  4  1  1
  5  3  1  0
  5  6  1  6
  7  5  1  0
  8  7  2  0
  9  7  1  0
 10  9  1  0
 11 12  1  0
 10 11  1  1
 12 13  2  0
 13 14  1  0
 15 14  2  0
 16 15  1  0
 17 16  2  0
 17 12  1  0
 18 10  1  0
 18 19  2  0
 20 18  1  0
 21 20  1  0
 21 22  1  1
 23 22  1  0
 23 31  1  0
 24 23  2  0
 25 24  1  0
 25 26  1  0
 26 27  1  0
 26 31  2  0
 27 28  2  0
 28 29  1  0
 30 29  2  0
 31 30  1  0
 32 21  1  0
 33 32  1  0
 34 32  2  0
M  END
$$$$
