IFW.pdb
     RDKit          3D

 34 36  0  0  1  0  0  0  0  0999 V2000
   11.1177  -21.7246   17.3837 C   0  0  0  0  0  0  0  0  0  0  0  0
   10.0810  -20.7282   17.8028 C   0  0  0  0  0  0  0  0  0  0  0  0
   10.6850  -19.7501   18.7692 C   0  0  2  0  0  0  0  0  0  0  0  0
   11.2648  -20.4373   19.9694 C   0  0  0  0  0  0  0  0  0  0  0  0
    9.6272  -18.7227   19.1405 C   0  0  2  0  0  0  0  0  0  0  0  0
    9.1018  -18.1581   17.8741 N   0  0  0  0  0  0  0  0  0  0  0  0
   10.1337  -17.6103   19.9388 C   0  0  0  0  0  0  0  0  0  0  0  0
   11.1704  -16.9576   19.5689 O   0  0  0  0  0  0  0  0  0  0  0  0
    9.5525  -17.1412   21.1698 N   0  0  0  0  0  0  0  0  0  0  0  0
   10.2401  -16.1321   21.9662 C   0  0  1  0  0  0  0  0  0  0  0  0
    9.1136  -15.3281   22.6101 C   0  0  0  0  0  0  0  0  0  0  0  0
    8.3162  -14.5472   21.6434 C   0  0  0  0  0  0  0  0  0  0  0  0
    6.9822  -14.8046   21.4143 C   0  0  0  0  0  0  0  0  0  0  0  0
    6.2126  -14.0581   20.5139 C   0  0  0  0  0  0  0  0  0  0  0  0
    6.8057  -13.0284   19.8313 C   0  0  0  0  0  0  0  0  0  0  0  0
    8.1311  -12.7498   20.0391 C   0  0  0  0  0  0  0  0  0  0  0  0
    8.8824  -13.4978   20.9340 C   0  0  0  0  0  0  0  0  0  0  0  0
   11.0539  -16.7475   23.0226 C   0  0  0  0  0  0  0  0  0  0  0  0
   12.3222  -16.6974   22.8892 O   0  0  0  0  0  0  0  0  0  0  0  0
   10.5252  -17.3881   24.1778 N   0  0  0  0  0  0  0  0  0  0  0  0
   10.5131  -16.6760   25.4587 C   0  0  1  0  0  0  0  0  0  0  0  0
    9.8598  -15.3404   25.1983 C   0  0  0  0  0  0  0  0  0  0  0  0
    9.3721  -14.6500   26.3879 C   0  0  0  0  0  0  0  0  0  0  0  0
    9.8218  -14.7660   27.6982 C   0  0  0  0  0  0  0  0  0  0  0  0
    9.0815  -13.9507   28.4650 N   0  0  0  0  0  0  0  0  0  0  0  0
    8.1751  -13.3151   27.7016 C   0  0  0  0  0  0  0  0  0  0  0  0
    7.1870  -12.3711   27.9656 C   0  0  0  0  0  0  0  0  0  0  0  0
    6.3865  -11.8619   26.9677 C   0  0  0  0  0  0  0  0  0  0  0  0
    6.5345  -12.2721   25.6568 C   0  0  0  0  0  0  0  0  0  0  0  0
    7.5148  -13.2079   25.4039 C   0  0  0  0  0  0  0  0  0  0  0  0
    8.3282  -13.7295   26.3951 C   0  0  0  0  0  0  0  0  0  0  0  0
    9.9034  -17.4732   26.5103 C   0  0  0  0  0  0  0  0  0  0  0  0
    8.6771  -18.1611   26.3211 O   0  0  0  0  0  0  0  0  0  0  0  0
   10.3916  -17.6253   27.6554 O   0  0  0  0  0  0  0  0  0  0  0  0
  2  1  1  0
  3  2  1  0
  3  4  1  1
  5  3  1  0
  5  6  1  6
  7  5  1  0
  8  7  2  0
  9  7  1  0
 10  9  1  0
 11 12  1  0
 10 11  1  1
 12 13  2  0
 13 14  1  0
 15 14  2  0
 16 15  1  0
 17 16  2  0
 17 12  1  0
 18 10  1  0
 18 19  2  0
 20 18  1  0
 21 20  1  0
 21 22  1  6
 23 22  1  0
 23 31  1  0
 24 23  2  0
 25 24  1  0
 25 26  1  0
 26 27  1  0
 26 31  2  0
 27 28  2  0
 28 29  1  0
 30 29  2  0
 31 30  1  0
 32 21  1  0
 33 32  1  0
 34 32  2  0
M  END
$$$$
