IFW.pdb
     RDKit          3D

 34 36  0  0  1  0  0  0  0  0999 V2000
   12.4006  -20.3119   17.3338 C   0  0  0  0  0  0  0  0  0  0  0  0
   11.0529  -19.7137   17.5965 C   0  0  0  0  0  0  0  0  0  0  0  0
   11.1363  -18.7824   18.7716 C   0  0  2  0  0  0  0  0  0  0  0  0
   11.6449  -19.4773   19.9995 C   0  0  0  0  0  0  0  0  0  0  0  0
    9.7700  -18.1497   18.9840 C   0  0  2  0  0  0  0  0  0  0  0  0
    9.4328  -17.4095   17.7444 N   0  0  0  0  0  0  0  0  0  0  0  0
    9.7214  -17.1974   20.0894 C   0  0  0  0  0  0  0  0  0  0  0  0
   10.4737  -16.1622   20.0953 O   0  0  0  0  0  0  0  0  0  0  0  0
    8.8627  -17.3059   21.2401 N   0  0  0  0  0  0  0  0  0  0  0  0
    8.9211  -16.3010   22.2946 C   0  0  1  0  0  0  0  0  0  0  0  0
    7.4827  -16.1948   22.7943 C   0  0  0  0  0  0  0  0  0  0  0  0
    7.3219  -15.2860   23.9468 C   0  0  0  0  0  0  0  0  0  0  0  0
    7.4920  -13.9233   23.8367 C   0  0  0  0  0  0  0  0  0  0  0  0
    7.3234  -13.0510   24.9188 C   0  0  0  0  0  0  0  0  0  0  0  0
    6.9746  -13.5691   26.1386 C   0  0  0  0  0  0  0  0  0  0  0  0
    6.7989  -14.9209   26.2775 C   0  0  0  0  0  0  0  0  0  0  0  0
    6.9696  -15.7742   25.1969 C   0  0  0  0  0  0  0  0  0  0  0  0
    9.7820  -16.7369   23.4018 C   0  0  0  0  0  0  0  0  0  0  0  0
    9.7619  -17.9761   23.7068 O   0  0  0  0  0  0  0  0  0  0  0  0
   10.6330  -15.8755   24.1489 N   0  0  0  0  0  0  0  0  0  0  0  0
   11.4789  -16.4337   25.2076 C   0  0  1  0  0  0  0  0  0  0  0  0
   11.7517  -15.3071   26.1744 C   0  0  0  0  0  0  0  0  0  0  0  0
   10.7844  -15.1777   27.2594 C   0  0  0  0  0  0  0  0  0  0  0  0
   10.6787  -15.9404   28.4169 C   0  0  0  0  0  0  0  0  0  0  0  0
    9.6415  -15.4733   29.1287 N   0  0  0  0  0  0  0  0  0  0  0  0
    9.0766  -14.4416   28.4769 C   0  0  0  0  0  0  0  0  0  0  0  0
    8.0057  -13.5975   28.7557 C   0  0  0  0  0  0  0  0  0  0  0  0
    7.6398  -12.5841   27.8984 C   0  0  0  0  0  0  0  0  0  0  0  0
    8.3266  -12.3654   26.7198 C   0  0  0  0  0  0  0  0  0  0  0  0
    9.3855  -13.2062   26.4507 C   0  0  0  0  0  0  0  0  0  0  0  0
    9.7667  -14.2292   27.3019 C   0  0  0  0  0  0  0  0  0  0  0  0
   10.8899  -17.6273   25.7920 C   0  0  0  0  0  0  0  0  0  0  0  0
   11.6800  -18.6481   26.3806 O   0  0  0  0  0  0  0  0  0  0  0  0
    9.6586  -17.8617   25.8309 O   0  0  0  0  0  0  0  0  0  0  0  0
  2  1  1  0
  3  2  1  0
  3  4  1  1
  5  3  1  0
  5  6  1  6
  7  5  1  0
  8  7  2  0
  9  7  1  0
 10  9  1  0
 11 12  1  0
 10 11  1  1
 12 13  2  0
 13 14  1  0
 15 14  2  0
 16 15  1  0
 17 16  2  0
 17 12  1  0
 18 10  1  0
 18 19  2  0
 20 18  1  0
 21 20  1  0
 21 22  1  1
 23 22  1  0
 23 31  1  0
 24 23  2  0
 25 24  1  0
 25 26  1  0
 26 27  1  0
 26 31  2  0
 27 28  2  0
 28 29  1  0
 30 29  2  0
 31 30  1  0
 32 21  1  0
 33 32  1  0
 34 32  2  0
M  END
$$$$
