IFW.pdb
     RDKit          3D

 34 36  0  0  1  0  0  0  0  0999 V2000
   10.9022  -20.8630   18.1680 C   0  0  0  0  0  0  0  0  0  0  0  0
    9.5573  -20.4755   18.7011 C   0  0  0  0  0  0  0  0  0  0  0  0
    9.6629  -19.1660   19.4288 C   0  0  2  0  0  0  0  0  0  0  0  0
   10.6465  -19.2335   20.5590 C   0  0  0  0  0  0  0  0  0  0  0  0
    8.2729  -18.7567   19.8898 C   0  0  2  0  0  0  0  0  0  0  0  0
    7.4086  -18.7096   18.6860 N   0  0  0  0  0  0  0  0  0  0  0  0
    8.2192  -17.4404   20.5190 C   0  0  0  0  0  0  0  0  0  0  0  0
    8.4805  -16.3827   19.8477 O   0  0  0  0  0  0  0  0  0  0  0  0
    7.8798  -17.1931   21.8963 N   0  0  0  0  0  0  0  0  0  0  0  0
    7.8689  -15.8304   22.4143 C   0  0  1  0  0  0  0  0  0  0  0  0
    7.0350  -15.9187   23.6898 C   0  0  0  0  0  0  0  0  0  0  0  0
    6.9349  -14.6400   24.4212 C   0  0  0  0  0  0  0  0  0  0  0  0
    6.3846  -14.5561   25.6816 C   0  0  0  0  0  0  0  0  0  0  0  0
    6.3022  -13.3521   26.3913 C   0  0  0  0  0  0  0  0  0  0  0  0
    6.7877  -12.2083   25.8133 C   0  0  0  0  0  0  0  0  0  0  0  0
    7.3403  -12.2620   24.5605 C   0  0  0  0  0  0  0  0  0  0  0  0
    7.4153  -13.4618   23.8680 C   0  0  0  0  0  0  0  0  0  0  0  0
    9.2232  -15.3778   22.7577 C   0  0  0  0  0  0  0  0  0  0  0  0
    9.4213  -14.1186   22.8226 O   0  0  0  0  0  0  0  0  0  0  0  0
   10.3198  -16.2444   23.0240 N   0  0  0  0  0  0  0  0  0  0  0  0
   10.8593  -16.3324   24.3838 C   0  0  1  0  0  0  0  0  0  0  0  0
    9.6708  -16.4325   25.3088 C   0  0  0  0  0  0  0  0  0  0  0  0
   10.0005  -16.5875   26.7219 C   0  0  0  0  0  0  0  0  0  0  0  0
   10.2662  -17.7584   27.4227 C   0  0  0  0  0  0  0  0  0  0  0  0
   10.5145  -17.4306   28.7001 N   0  0  0  0  0  0  0  0  0  0  0  0
   10.4199  -16.0975   28.8491 C   0  0  0  0  0  0  0  0  0  0  0  0
   10.5874  -15.2356   29.9290 C   0  0  0  0  0  0  0  0  0  0  0  0
   10.4415  -13.8728   29.7976 C   0  0  0  0  0  0  0  0  0  0  0  0
   10.1204  -13.3050   28.5797 C   0  0  0  0  0  0  0  0  0  0  0  0
    9.9553  -14.1656   27.5155 C   0  0  0  0  0  0  0  0  0  0  0  0
   10.0988  -15.5376   27.6303 C   0  0  0  0  0  0  0  0  0  0  0  0
   11.8356  -17.4026   24.5058 C   0  0  0  0  0  0  0  0  0  0  0  0
   12.9437  -17.3164   25.3875 O   0  0  0  0  0  0  0  0  0  0  0  0
   11.7916  -18.4767   23.8600 O   0  0  0  0  0  0  0  0  0  0  0  0
  2  1  1  0
  3  2  1  0
  3  4  1  1
  5  3  1  0
  5  6  1  6
  7  5  1  0
  8  7  2  0
  9  7  1  0
 10  9  1  0
 11 12  1  0
 10 11  1  1
 12 13  2  0
 13 14  1  0
 15 14  2  0
 16 15  1  0
 17 16  2  0
 17 12  1  0
 18 10  1  0
 18 19  2  0
 20 18  1  0
 21 20  1  0
 21 22  1  1
 23 22  1  0
 23 31  1  0
 24 23  2  0
 25 24  1  0
 25 26  1  0
 26 27  1  0
 26 31  2  0
 27 28  2  0
 28 29  1  0
 30 29  2  0
 31 30  1  0
 32 21  1  0
 33 32  1  0
 34 32  2  0
M  END
$$$$
