IFW.pdb
     RDKit          3D

 34 36  0  0  1  0  0  0  0  0999 V2000
    9.8908  -20.6207   17.0262 C   0  0  0  0  0  0  0  0  0  0  0  0
    8.9993  -19.4264   17.1749 C   0  0  0  0  0  0  0  0  0  0  0  0
    9.3370  -18.7018   18.4461 C   0  0  2  0  0  0  0  0  0  0  0  0
    9.3282  -19.6206   19.6314 C   0  0  0  0  0  0  0  0  0  0  0  0
    8.3754  -17.5348   18.6065 C   0  0  2  0  0  0  0  0  0  0  0  0
    8.5258  -16.6758   17.4074 N   0  0  0  0  0  0  0  0  0  0  0  0
    8.6402  -16.7031   19.7767 C   0  0  0  0  0  0  0  0  0  0  0  0
    9.7677  -16.1152   19.9206 O   0  0  0  0  0  0  0  0  0  0  0  0
    7.7092  -16.4582   20.8475 N   0  0  0  0  0  0  0  0  0  0  0  0
    8.1229  -15.6912   22.0162 C   0  0  1  0  0  0  0  0  0  0  0  0
    6.8116  -15.2739   22.6768 C   0  0  0  0  0  0  0  0  0  0  0  0
    6.9950  -14.4498   23.8881 C   0  0  0  0  0  0  0  0  0  0  0  0
    7.5379  -13.1844   23.8401 C   0  0  0  0  0  0  0  0  0  0  0  0
    7.6986  -12.3876   24.9800 C   0  0  0  0  0  0  0  0  0  0  0  0
    7.3005  -12.8817   26.1947 C   0  0  0  0  0  0  0  0  0  0  0  0
    6.7573  -14.1373   26.2723 C   0  0  0  0  0  0  0  0  0  0  0  0
    6.6041  -14.9167   25.1348 C   0  0  0  0  0  0  0  0  0  0  0  0
    8.8902  -16.5195   22.9555 C   0  0  0  0  0  0  0  0  0  0  0  0
    8.2370  -17.1320   23.8650 O   0  0  0  0  0  0  0  0  0  0  0  0
   10.3027  -16.6854   22.9162 N   0  0  0  0  0  0  0  0  0  0  0  0
   11.1116  -16.2795   24.0690 C   0  0  1  0  0  0  0  0  0  0  0  0
   10.2718  -15.3042   24.8574 C   0  0  0  0  0  0  0  0  0  0  0  0
   10.0599  -15.6628   26.2560 C   0  0  0  0  0  0  0  0  0  0  0  0
    9.4922  -16.8216   26.7734 C   0  0  0  0  0  0  0  0  0  0  0  0
    9.4937  -16.7230   28.1117 N   0  0  0  0  0  0  0  0  0  0  0  0
   10.0393  -15.5491   28.4758 C   0  0  0  0  0  0  0  0  0  0  0  0
   10.2979  -14.9480   29.7042 C   0  0  0  0  0  0  0  0  0  0  0  0
   10.8966  -13.7113   29.7937 C   0  0  0  0  0  0  0  0  0  0  0  0
   11.2657  -13.0148   28.6591 C   0  0  0  0  0  0  0  0  0  0  0  0
   11.0054  -13.6167   27.4465 C   0  0  0  0  0  0  0  0  0  0  0  0
   10.4048  -14.8593   27.3389 C   0  0  0  0  0  0  0  0  0  0  0  0
   11.5973  -17.4287   24.8152 C   0  0  0  0  0  0  0  0  0  0  0  0
   11.1406  -18.7462   24.5537 O   0  0  0  0  0  0  0  0  0  0  0  0
   12.4452  -17.3661   25.7371 O   0  0  0  0  0  0  0  0  0  0  0  0
  2  1  1  0
  3  2  1  0
  3  4  1  1
  5  3  1  0
  5  6  1  6
  7  5  1  0
  8  7  2  0
  9  7  1  0
 10  9  1  0
 11 12  1  0
 10 11  1  1
 12 13  2  0
 13 14  1  0
 15 14  2  0
 16 15  1  0
 17 16  2  0
 17 12  1  0
 18 10  1  0
 18 19  2  0
 20 18  1  0
 21 20  1  0
 21 22  1  1
 23 22  1  0
 23 31  1  0
 24 23  2  0
 25 24  1  0
 25 26  1  0
 26 27  1  0
 26 31  2  0
 27 28  2  0
 28 29  1  0
 30 29  2  0
 31 30  1  0
 32 21  1  0
 33 32  1  0
 34 32  2  0
M  END
$$$$
