PRL.pdb
     RDKit          3D

 27 27  0  0  1  0  0  0  0  0999 V2000
   25.4586  -12.2521  -15.6118 N   0  0  0  0  0  0  0  0  0  0  0  0
   26.5644  -13.0920  -16.0387 C   0  0  0  0  0  0  0  0  0  0  0  0
   26.1161  -13.5245  -17.4180 C   0  0  0  0  0  0  0  0  0  0  0  0
   25.2829  -12.3529  -17.8897 C   0  0  0  0  0  0  0  0  0  0  0  0
   25.3073  -11.3641  -16.7202 C   0  0  1  0  0  0  0  0  0  0  0  0
   24.0495  -10.5917  -16.7051 C   0  0  0  0  0  0  0  0  0  0  0  0
   23.9758   -9.6250  -17.5284 O   0  0  0  0  0  0  0  0  0  0  0  0
   15.5824  -12.2326  -14.6949 N   0  0  0  0  0  0  0  0  0  0  0  0
   15.6036  -11.0035  -15.3892 C   0  0  0  0  0  0  0  0  0  0  0  0
   14.4972  -10.4491  -15.7259 N   0  0  0  0  0  0  0  0  0  0  0  0
   16.8507  -10.3880  -15.7110 N   0  0  0  0  0  0  0  0  0  0  0  0
   18.1057  -11.0539  -15.4204 C   0  0  0  0  0  0  0  0  0  0  0  0
   19.2603  -10.1060  -15.7772 C   0  0  0  0  0  0  0  0  0  0  0  0
   20.5209  -10.9062  -15.6376 C   0  0  0  0  0  0  0  0  0  0  0  0
   21.7717  -10.1352  -15.9206 C   0  0  2  0  0  0  0  0  0  0  0  0
   22.9703  -10.8916  -15.8315 N   0  0  0  0  0  0  0  0  0  0  0  0
   21.8181   -9.0057  -14.9576 C   0  0  0  0  0  0  0  0  0  0  0  0
   22.6126   -9.0527  -14.0079 O   0  0  0  0  0  0  0  0  0  0  0  0
   14.5036   -9.5234  -16.1652 C   0  0  0  0  0  0  0  0  0  0  0  0
   22.4566   -3.7840  -16.0994 C   0  0  1  0  0  0  0  0  0  0  0  0
   23.2202   -4.8570  -15.3760 C   0  0  0  0  0  0  0  0  0  0  0  0
   24.6769   -4.9011  -15.8233 C   0  0  0  0  0  0  0  0  0  0  0  0
   22.6434   -6.2153  -15.6338 C   0  0  2  0  0  0  0  0  0  0  0  0
   21.4332   -6.5142  -14.7927 N   0  0  0  0  0  0  0  0  0  0  0  0
   20.9780   -7.8640  -15.0868 C   0  0  0  0  0  0  0  0  0  0  0  0
   20.3913   -5.4994  -15.1720 O   0  0  0  0  0  0  0  0  0  0  0  0
   19.4419   -5.8484  -16.0950 O   0  0  0  0  0  0  0  0  0  0  0  0
  1  2  1  0
  2  3  1  0
  4  3  1  0
  5  1  1  0
  5  4  1  0
  5  6  1  1
  7  6  2  0
  9 10  2  0
  9  8  1  0
 11  9  1  0
 12 11  1  0
 13 12  1  0
 14 13  1  0
 15 14  1  1
 15 16  1  0
 16  6  1  0
 17 15  1  0
 18 17  2  0
 20 19  1  1
 20 21  1  0
 22 20  1  0
 23 22  1  1
 23 24  1  0
 24 17  1  0
 25 26  1  0
 25 23  1  0
 27 25  2  0
M  END
$$$$
