PRL.pdb
     RDKit          3D

 27 27  0  0  1  0  0  0  0  0999 V2000
   27.7263  -23.6952  -16.9252 N   0  0  0  0  0  0  0  0  0  0  0  0
   28.8088  -23.8147  -17.8867 C   0  0  0  0  0  0  0  0  0  0  0  0
   28.6671  -22.5336  -18.6799 C   0  0  0  0  0  0  0  0  0  0  0  0
   28.1010  -21.5642  -17.6655 C   0  0  0  0  0  0  0  0  0  0  0  0
   27.9430  -22.3907  -16.3857 C   0  0  1  0  0  0  0  0  0  0  0  0
   26.8071  -21.8675  -15.6015 C   0  0  0  0  0  0  0  0  0  0  0  0
   25.6941  -22.4615  -15.7628 O   0  0  0  0  0  0  0  0  0  0  0  0
   25.9681  -19.8246   -7.8890 N   0  0  0  0  0  0  0  0  0  0  0  0
   24.9789  -20.7963   -8.1541 C   0  0  0  0  0  0  0  0  0  0  0  0
   24.1739  -21.1493   -7.2201 N   0  0  0  0  0  0  0  0  0  0  0  0
   24.8811  -21.3777   -9.4542 N   0  0  0  0  0  0  0  0  0  0  0  0
   24.8440  -20.5447  -10.6406 C   0  0  0  0  0  0  0  0  0  0  0  0
   26.0633  -20.8767  -11.5136 C   0  0  0  0  0  0  0  0  0  0  0  0
   26.1059  -19.8348  -12.5914 C   0  0  0  0  0  0  0  0  0  0  0  0
   25.7940  -20.3542  -13.9596 C   0  0  2  0  0  0  0  0  0  0  0  0
   26.9257  -20.7661  -14.7122 N   0  0  0  0  0  0  0  0  0  0  0  0
   25.0743  -19.2763  -14.6845 C   0  0  0  0  0  0  0  0  0  0  0  0
   25.7270  -18.4073  -15.2796 O   0  0  0  0  0  0  0  0  0  0  0  0
   23.4822  -21.8851   -7.3940 C   0  0  0  0  0  0  0  0  0  0  0  0
   22.5990  -17.9596  -18.5927 C   0  0  1  0  0  0  0  0  0  0  0  0
   22.4478  -19.4210  -18.2781 C   0  0  0  0  0  0  0  0  0  0  0  0
   20.9816  -19.8072  -18.1190 C   0  0  0  0  0  0  0  0  0  0  0  0
   23.1361  -19.7852  -16.9985 C   0  0  1  0  0  0  0  0  0  0  0  0
   22.9162  -18.7808  -15.9010 N   0  0  0  0  0  0  0  0  0  0  0  0
   23.6532  -19.2049  -14.7210 C   0  0  0  0  0  0  0  0  0  0  0  0
   21.4371  -18.7604  -15.6343 O   0  0  0  0  0  0  0  0  0  0  0  0
   20.6931  -17.7312  -16.1465 O   0  0  0  0  0  0  0  0  0  0  0  0
  1  2  1  0
  2  3  1  0
  4  3  1  0
  5  1  1  0
  5  4  1  0
  5  6  1  6
  7  6  2  0
  9 10  2  0
  9  8  1  0
 11  9  1  0
 12 11  1  0
 13 12  1  0
 14 13  1  0
 15 14  1  1
 15 16  1  0
 16  6  1  0
 17 15  1  0
 18 17  2  0
 20 19  1  6
 20 21  1  0
 22 20  1  0
 23 22  1  6
 23 24  1  0
 24 17  1  0
 25 26  1  0
 25 23  1  0
 27 25  2  0
M  END
$$$$
