PRL.pdb
     RDKit          3D

 27 27  0  0  1  0  0  0  0  0999 V2000
   29.4550  -20.2249  -10.8561 N   0  0  0  0  0  0  0  0  0  0  0  0
   30.8828  -20.4875  -10.8001 C   0  0  0  0  0  0  0  0  0  0  0  0
   30.9355  -21.9843  -11.0173 C   0  0  0  0  0  0  0  0  0  0  0  0
   29.7281  -22.2458  -11.8910 C   0  0  0  0  0  0  0  0  0  0  0  0
   29.0754  -20.8719  -12.0714 C   0  0  1  0  0  0  0  0  0  0  0  0
   27.6179  -21.0394  -12.2342 C   0  0  0  0  0  0  0  0  0  0  0  0
   27.2392  -21.6781  -13.2669 O   0  0  0  0  0  0  0  0  0  0  0  0
   20.7000  -21.7153   -6.8308 N   0  0  0  0  0  0  0  0  0  0  0  0
   20.2728  -22.1296   -8.1111 C   0  0  0  0  0  0  0  0  0  0  0  0
   19.1259  -22.6880   -8.2442 N   0  0  0  0  0  0  0  0  0  0  0  0
   21.1162  -21.9255   -9.2445 N   0  0  0  0  0  0  0  0  0  0  0  0
   22.4346  -21.3406   -9.0950 C   0  0  0  0  0  0  0  0  0  0  0  0
   23.0107  -21.0614  -10.4911 C   0  0  0  0  0  0  0  0  0  0  0  0
   24.4429  -20.6675  -10.2848 C   0  0  0  0  0  0  0  0  0  0  0  0
   25.2898  -20.7668  -11.5145 C   0  0  2  0  0  0  0  0  0  0  0  0
   26.6737  -20.5264  -11.3051 N   0  0  0  0  0  0  0  0  0  0  0  0
   24.7536  -19.7903  -12.4964 C   0  0  0  0  0  0  0  0  0  0  0  0
   25.3237  -18.6993  -12.6378 O   0  0  0  0  0  0  0  0  0  0  0  0
   18.8325  -23.0380   -9.1614 C   0  0  0  0  0  0  0  0  0  0  0  0
   24.4261  -17.7300  -16.4509 C   0  0  1  0  0  0  0  0  0  0  0  0
   25.2933  -18.9251  -16.1728 C   0  0  0  0  0  0  0  0  0  0  0  0
   25.8733  -19.5031  -17.4588 C   0  0  0  0  0  0  0  0  0  0  0  0
   24.5226  -20.0249  -15.5091 C   0  0  2  0  0  0  0  0  0  0  0  0
   23.4165  -19.5218  -14.6231 N   0  0  0  0  0  0  0  0  0  0  0  0
   23.6015  -20.0640  -13.2862 C   0  0  0  0  0  0  0  0  0  0  0  0
   22.1311  -20.0105  -15.2299 O   0  0  0  0  0  0  0  0  0  0  0  0
   21.5123  -21.0955  -14.6685 O   0  0  0  0  0  0  0  0  0  0  0  0
  1  2  1  0
  2  3  1  0
  4  3  1  0
  5  1  1  0
  5  4  1  0
  5  6  1  1
  7  6  2  0
  9 10  2  0
  9  8  1  0
 11  9  1  0
 12 11  1  0
 13 12  1  0
 14 13  1  0
 15 14  1  1
 15 16  1  0
 16  6  1  0
 17 15  1  0
 18 17  2  0
 20 19  1  1
 20 21  1  0
 22 20  1  0
 23 22  1  1
 23 24  1  0
 24 17  1  0
 25 26  1  0
 25 23  1  0
 27 25  2  0
M  END
$$$$
