PRL.pdb
     RDKit          3D

 27 27  0  0  1  0  0  0  0  0999 V2000
   24.6778  -19.4670  -17.3875 N   0  0  0  0  0  0  0  0  0  0  0  0
   24.0368  -19.4909  -18.6910 C   0  0  0  0  0  0  0  0  0  0  0  0
   24.1203  -20.9575  -19.0552 C   0  0  0  0  0  0  0  0  0  0  0  0
   24.0680  -21.6473  -17.7095 C   0  0  0  0  0  0  0  0  0  0  0  0
   23.9876  -20.5057  -16.6915 C   0  0  1  0  0  0  0  0  0  0  0  0
   24.6388  -20.9235  -15.4344 C   0  0  0  0  0  0  0  0  0  0  0  0
   24.0208  -21.7968  -14.7466 O   0  0  0  0  0  0  0  0  0  0  0  0
   31.0067  -22.5811   -9.6932 N   0  0  0  0  0  0  0  0  0  0  0  0
   31.3375  -22.1062  -10.9809 C   0  0  0  0  0  0  0  0  0  0  0  0
   32.1086  -22.8031  -11.7323 N   0  0  0  0  0  0  0  0  0  0  0  0
   30.8142  -20.8588  -11.4368 N   0  0  0  0  0  0  0  0  0  0  0  0
   30.1464  -20.7566  -12.7199 C   0  0  0  0  0  0  0  0  0  0  0  0
   28.6383  -20.9547  -12.5073 C   0  0  0  0  0  0  0  0  0  0  0  0
   28.0086  -20.8857  -13.8666 C   0  0  0  0  0  0  0  0  0  0  0  0
   26.5139  -20.9549  -13.8547 C   0  0  2  0  0  0  0  0  0  0  0  0
   25.8830  -20.3953  -14.9973 N   0  0  0  0  0  0  0  0  0  0  0  0
   26.0520  -20.2513  -12.6312 C   0  0  0  0  0  0  0  0  0  0  0  0
   26.2305  -19.0292  -12.5323 O   0  0  0  0  0  0  0  0  0  0  0  0
   32.3247  -22.4802  -12.6805 C   0  0  0  0  0  0  0  0  0  0  0  0
   21.9530  -21.0567   -8.1078 C   0  0  1  0  0  0  0  0  0  0  0  0
   23.1037  -20.2662   -8.6634 C   0  0  0  0  0  0  0  0  0  0  0  0
   22.6679  -18.8652   -9.0773 C   0  0  0  0  0  0  0  0  0  0  0  0
   23.6868  -20.9187   -9.8792 C   0  0  2  0  0  0  0  0  0  0  0  0
   24.9500  -20.2579  -10.3578 N   0  0  0  0  0  0  0  0  0  0  0  0
   25.4075  -20.9342  -11.5615 C   0  0  0  0  0  0  0  0  0  0  0  0
   25.9513  -20.4004   -9.2458 O   0  0  0  0  0  0  0  0  0  0  0  0
   25.9747  -19.4508   -8.2595 O   0  0  0  0  0  0  0  0  0  0  0  0
  1  2  1  0
  2  3  1  0
  4  3  1  0
  5  1  1  0
  5  4  1  0
  5  6  1  1
  7  6  2  0
  9 10  2  0
  9  8  1  0
 11  9  1  0
 12 11  1  0
 13 12  1  0
 14 13  1  0
 15 14  1  6
 15 16  1  0
 16  6  1  0
 17 15  1  0
 18 17  2  0
 20 19  1  1
 20 21  1  0
 22 20  1  0
 23 22  1  6
 23 24  1  0
 24 17  1  0
 25 26  1  0
 25 23  1  0
 27 25  2  0
M  END
$$$$
