PRL.pdb
     RDKit          3D

 27 27  0  0  1  0  0  0  0  0999 V2000
   28.0509  -22.7517  -17.0086 N   0  0  0  0  0  0  0  0  0  0  0  0
   29.1744  -23.0937  -17.8638 C   0  0  0  0  0  0  0  0  0  0  0  0
   29.4518  -21.7783  -18.5589 C   0  0  0  0  0  0  0  0  0  0  0  0
   29.0309  -20.7522  -17.5295 C   0  0  0  0  0  0  0  0  0  0  0  0
   28.5219  -21.5784  -16.3444 C   0  0  1  0  0  0  0  0  0  0  0  0
   27.4689  -20.8235  -15.6371 C   0  0  0  0  0  0  0  0  0  0  0  0
   27.8445  -19.7678  -15.0353 O   0  0  0  0  0  0  0  0  0  0  0  0
   20.8209  -21.8503  -16.5005 N   0  0  0  0  0  0  0  0  0  0  0  0
   20.1354  -20.9319  -15.6760 C   0  0  0  0  0  0  0  0  0  0  0  0
   19.1349  -21.3321  -14.9805 N   0  0  0  0  0  0  0  0  0  0  0  0
   20.5579  -19.5695  -15.6218 N   0  0  0  0  0  0  0  0  0  0  0  0
   21.7542  -19.1335  -16.3158 C   0  0  0  0  0  0  0  0  0  0  0  0
   22.9352  -19.1745  -15.3348 C   0  0  0  0  0  0  0  0  0  0  0  0
   23.9372  -20.1238  -15.9213 C   0  0  0  0  0  0  0  0  0  0  0  0
   25.1311  -20.3692  -15.0533 C   0  0  2  0  0  0  0  0  0  0  0  0
   26.1086  -21.2324  -15.6156 N   0  0  0  0  0  0  0  0  0  0  0  0
   24.6345  -20.9386  -13.7749 C   0  0  0  0  0  0  0  0  0  0  0  0
   24.1831  -22.0925  -13.7615 O   0  0  0  0  0  0  0  0  0  0  0  0
   18.6136  -20.6633  -14.4052 C   0  0  0  0  0  0  0  0  0  0  0  0
   26.6159  -19.9213   -8.4378 C   0  0  1  0  0  0  0  0  0  0  0  0
   25.8692  -20.7764   -9.4222 C   0  0  0  0  0  0  0  0  0  0  0  0
   26.8078  -21.3735  -10.4648 C   0  0  0  0  0  0  0  0  0  0  0  0
   24.8353  -19.9883  -10.1665 C   0  0  2  0  0  0  0  0  0  0  0  0
   24.2013  -20.7575  -11.2925 N   0  0  0  0  0  0  0  0  0  0  0  0
   24.6584  -20.2026  -12.5568 C   0  0  0  0  0  0  0  0  0  0  0  0
   22.7156  -20.5914  -11.1365 O   0  0  0  0  0  0  0  0  0  0  0  0
   22.0356  -21.4822  -10.3497 O   0  0  0  0  0  0  0  0  0  0  0  0
  1  2  1  0
  2  3  1  0
  4  3  1  0
  5  1  1  0
  5  4  1  0
  5  6  1  6
  7  6  2  0
  9 10  2  0
  9  8  1  0
 11  9  1  0
 12 11  1  0
 13 12  1  0
 14 13  1  0
 15 14  1  6
 15 16  1  0
 16  6  1  0
 17 15  1  0
 18 17  2  0
 20 19  1  1
 20 21  1  0
 22 20  1  0
 23 22  1  6
 23 24  1  0
 24 17  1  0
 25 26  1  0
 25 23  1  0
 27 25  2  0
M  END
$$$$
