PRL.pdb
     RDKit          3D

 27 27  0  0  1  0  0  0  0  0999 V2000
   28.7912  -21.8743  -11.1388 N   0  0  0  0  0  0  0  0  0  0  0  0
   29.7742  -21.5286  -10.1264 C   0  0  0  0  0  0  0  0  0  0  0  0
   30.0070  -20.0591  -10.4034 C   0  0  0  0  0  0  0  0  0  0  0  0
   28.6728  -19.5984  -10.9486 C   0  0  0  0  0  0  0  0  0  0  0  0
   27.8028  -20.8589  -10.9603 C   0  0  1  0  0  0  0  0  0  0  0  0
   26.8258  -20.7698  -12.0633 C   0  0  0  0  0  0  0  0  0  0  0  0
   25.9545  -19.8481  -11.9669 O   0  0  0  0  0  0  0  0  0  0  0  0
   23.4474  -22.7916  -18.3584 N   0  0  0  0  0  0  0  0  0  0  0  0
   24.2037  -22.1398  -19.3565 C   0  0  0  0  0  0  0  0  0  0  0  0
   23.6161  -21.7014  -20.4089 N   0  0  0  0  0  0  0  0  0  0  0  0
   25.6115  -21.9734  -19.1894 N   0  0  0  0  0  0  0  0  0  0  0  0
   26.2714  -22.3996  -17.9705 C   0  0  0  0  0  0  0  0  0  0  0  0
   25.7029  -21.5918  -16.7943 C   0  0  0  0  0  0  0  0  0  0  0  0
   26.4724  -22.0178  -15.5797 C   0  0  0  0  0  0  0  0  0  0  0  0
   26.0413  -21.3466  -14.3137 C   0  0  2  0  0  0  0  0  0  0  0  0
   26.8378  -21.6504  -13.1779 N   0  0  0  0  0  0  0  0  0  0  0  0
   24.6339  -21.7479  -14.0616 C   0  0  0  0  0  0  0  0  0  0  0  0
   24.4021  -22.6880  -13.2885 O   0  0  0  0  0  0  0  0  0  0  0  0
   24.1519  -21.1889  -21.1161 C   0  0  0  0  0  0  0  0  0  0  0  0
   20.7787  -19.2183  -11.1284 C   0  0  1  0  0  0  0  0  0  0  0  0
   20.8713  -20.3325  -12.1323 C   0  0  0  0  0  0  0  0  0  0  0  0
   20.6870  -21.6938  -11.4712 C   0  0  0  0  0  0  0  0  0  0  0  0
   22.2060  -20.3547  -12.8120 C   0  0  2  0  0  0  0  0  0  0  0  0
   22.1929  -21.0989  -14.1187 N   0  0  0  0  0  0  0  0  0  0  0  0
   23.5349  -21.0876  -14.6796 C   0  0  0  0  0  0  0  0  0  0  0  0
   21.2288  -20.3705  -15.0126 O   0  0  0  0  0  0  0  0  0  0  0  0
   21.7295  -19.6168  -16.0403 O   0  0  0  0  0  0  0  0  0  0  0  0
  1  2  1  0
  2  3  1  0
  4  3  1  0
  5  1  1  0
  5  4  1  0
  5  6  1  6
  7  6  2  0
  9 10  2  0
  9  8  1  0
 11  9  1  0
 12 11  1  0
 13 12  1  0
 14 13  1  0
 15 14  1  6
 15 16  1  0
 16  6  1  0
 17 15  1  0
 18 17  2  0
 20 19  1  6
 20 21  1  0
 22 20  1  0
 23 22  1  1
 23 24  1  0
 24 17  1  0
 25 26  1  0
 25 23  1  0
 27 25  2  0
M  END
$$$$
