PRL.pdb
     RDKit          3D

 27 27  0  0  1  0  0  0  0  0999 V2000
   28.2105  -20.8181  -16.5409 N   0  0  0  0  0  0  0  0  0  0  0  0
   28.9583  -20.4792  -17.7395 C   0  0  0  0  0  0  0  0  0  0  0  0
   28.4964  -19.0633  -18.0080 C   0  0  0  0  0  0  0  0  0  0  0  0
   28.1971  -18.5328  -16.6230 C   0  0  0  0  0  0  0  0  0  0  0  0
   28.4896  -19.7086  -15.6860 C   0  0  1  0  0  0  0  0  0  0  0  0
   27.6098  -19.6236  -14.5037 C   0  0  0  0  0  0  0  0  0  0  0  0
   27.7142  -18.5677  -13.8023 O   0  0  0  0  0  0  0  0  0  0  0  0
   19.1835  -18.8962  -13.7527 N   0  0  0  0  0  0  0  0  0  0  0  0
   19.8076  -20.1167  -13.4152 C   0  0  0  0  0  0  0  0  0  0  0  0
   19.1532  -20.9988  -12.7529 N   0  0  0  0  0  0  0  0  0  0  0  0
   21.1572  -20.3607  -13.8112 N   0  0  0  0  0  0  0  0  0  0  0  0
   21.9687  -21.3445  -13.1209 C   0  0  0  0  0  0  0  0  0  0  0  0
   23.2344  -20.6545  -12.5910 C   0  0  0  0  0  0  0  0  0  0  0  0
   24.3148  -20.9283  -13.5944 C   0  0  0  0  0  0  0  0  0  0  0  0
   25.6505  -20.3619  -13.2277 C   0  0  2  0  0  0  0  0  0  0  0  0
   26.6919  -20.6484  -14.1497 N   0  0  0  0  0  0  0  0  0  0  0  0
   26.0028  -20.9004  -11.8893 C   0  0  0  0  0  0  0  0  0  0  0  0
   26.2348  -22.1113  -11.7663 O   0  0  0  0  0  0  0  0  0  0  0  0
   19.5807  -21.9086  -12.5547 C   0  0  0  0  0  0  0  0  0  0  0  0
   27.6471  -18.7673   -6.3355 C   0  0  1  0  0  0  0  0  0  0  0  0
   27.5130  -19.9461   -7.2575 C   0  0  0  0  0  0  0  0  0  0  0  0
   28.8207  -20.7229   -7.3613 C   0  0  0  0  0  0  0  0  0  0  0  0
   27.1457  -19.5226   -8.6466 C   0  0  2  0  0  0  0  0  0  0  0  0
   26.4135  -20.5870   -9.4163 N   0  0  0  0  0  0  0  0  0  0  0  0
   26.0844  -20.0707  -10.7356 C   0  0  0  0  0  0  0  0  0  0  0  0
   25.1689  -20.8972   -8.6328 O   0  0  0  0  0  0  0  0  0  0  0  0
   25.2556  -21.7751   -7.5855 O   0  0  0  0  0  0  0  0  0  0  0  0
  1  2  1  0
  2  3  1  0
  4  3  1  0
  5  1  1  0
  5  4  1  0
  5  6  1  1
  7  6  2  0
  9 10  2  0
  9  8  1  0
 11  9  1  0
 12 11  1  0
 13 12  1  0
 14 13  1  0
 15 14  1  6
 15 16  1  0
 16  6  1  0
 17 15  1  0
 18 17  2  0
 20 19  1  1
 20 21  1  0
 22 20  1  0
 23 22  1  6
 23 24  1  0
 24 17  1  0
 25 26  1  0
 25 23  1  0
 27 25  2  0
M  END
$$$$
