PRL.pdb
     RDKit          3D

 27 27  0  0  1  0  0  0  0  0999 V2000
   28.1504  -21.2552  -14.3885 N   0  0  0  0  0  0  0  0  0  0  0  0
   28.6837  -21.1212  -15.7332 C   0  0  0  0  0  0  0  0  0  0  0  0
   27.7985  -20.0408  -16.3160 C   0  0  0  0  0  0  0  0  0  0  0  0
   27.4400  -19.2039  -15.1075 C   0  0  0  0  0  0  0  0  0  0  0  0
   28.1331  -19.9016  -13.9333 C   0  0  1  0  0  0  0  0  0  0  0  0
   27.3448  -19.6904  -12.7033 C   0  0  0  0  0  0  0  0  0  0  0  0
   27.1843  -18.4816  -12.3414 O   0  0  0  0  0  0  0  0  0  0  0  0
   20.7410  -21.6717  -14.0886 N   0  0  0  0  0  0  0  0  0  0  0  0
   20.9645  -20.2876  -13.9234 C   0  0  0  0  0  0  0  0  0  0  0  0
   19.9966  -19.4656  -14.1036 N   0  0  0  0  0  0  0  0  0  0  0  0
   22.2605  -19.8133  -13.5587 N   0  0  0  0  0  0  0  0  0  0  0  0
   23.2225  -20.6924  -12.9226 C   0  0  0  0  0  0  0  0  0  0  0  0
   23.5385  -20.1458  -11.5225 C   0  0  0  0  0  0  0  0  0  0  0  0
   24.5708  -21.0618  -10.9358 C   0  0  0  0  0  0  0  0  0  0  0  0
   25.9410  -20.4665  -10.8488 C   0  0  2  0  0  0  0  0  0  0  0  0
   26.7879  -20.7587  -11.9508 N   0  0  0  0  0  0  0  0  0  0  0  0
   26.5582  -20.9677   -9.5946 C   0  0  0  0  0  0  0  0  0  0  0  0
   26.9752  -22.1337   -9.5494 O   0  0  0  0  0  0  0  0  0  0  0  0
   20.1507  -18.4606  -13.9763 C   0  0  0  0  0  0  0  0  0  0  0  0
   29.7041  -20.3898   -6.1268 C   0  0  1  0  0  0  0  0  0  0  0  0
   28.7899  -19.2243   -6.3791 C   0  0  0  0  0  0  0  0  0  0  0  0
   29.0791  -18.0730   -5.4225 C   0  0  0  0  0  0  0  0  0  0  0  0
   27.3519  -19.5985   -6.1892 C   0  0  2  0  0  0  0  0  0  0  0  0
   26.9011  -20.7023   -7.1057 N   0  0  0  0  0  0  0  0  0  0  0  0
   26.6891  -20.1523   -8.4354 C   0  0  0  0  0  0  0  0  0  0  0  0
   25.6178  -21.2336   -6.5312 O   0  0  0  0  0  0  0  0  0  0  0  0
   25.6806  -22.0629   -5.4434 O   0  0  0  0  0  0  0  0  0  0  0  0
  1  2  1  0
  2  3  1  0
  4  3  1  0
  5  1  1  0
  5  4  1  0
  5  6  1  1
  7  6  2  0
  9 10  2  0
  9  8  1  0
 11  9  1  0
 12 11  1  0
 13 12  1  0
 14 13  1  0
 15 14  1  6
 15 16  1  0
 16  6  1  0
 17 15  1  0
 18 17  2  0
 20 19  1  6
 20 21  1  0
 22 20  1  0
 23 22  1  6
 23 24  1  0
 24 17  1  0
 25 26  1  0
 25 23  1  0
 27 25  2  0
M  END
$$$$
