PRL.pdb
     RDKit          3D

 27 27  0  0  1  0  0  0  0  0999 V2000
   26.5526  -16.9990  -16.2476 N   0  0  0  0  0  0  0  0  0  0  0  0
   27.7068  -16.3141  -16.8039 C   0  0  0  0  0  0  0  0  0  0  0  0
   28.8237  -17.2924  -16.5113 C   0  0  0  0  0  0  0  0  0  0  0  0
   28.1233  -18.6330  -16.5516 C   0  0  0  0  0  0  0  0  0  0  0  0
   26.6567  -18.2957  -16.8370 C   0  0  1  0  0  0  0  0  0  0  0  0
   25.7891  -19.3127  -16.2110 C   0  0  0  0  0  0  0  0  0  0  0  0
   25.1102  -20.0365  -17.0066 O   0  0  0  0  0  0  0  0  0  0  0  0
   26.7382  -20.6140   -8.3922 N   0  0  0  0  0  0  0  0  0  0  0  0
   25.5363  -20.8468   -9.0953 C   0  0  0  0  0  0  0  0  0  0  0  0
   24.4175  -20.7866   -8.4710 N   0  0  0  0  0  0  0  0  0  0  0  0
   25.5732  -21.1466  -10.4904 N   0  0  0  0  0  0  0  0  0  0  0  0
   26.8364  -21.3290  -11.1789 C   0  0  0  0  0  0  0  0  0  0  0  0
   26.6669  -20.8948  -12.6423 C   0  0  0  0  0  0  0  0  0  0  0  0
   25.2072  -21.0339  -12.9566 C   0  0  0  0  0  0  0  0  0  0  0  0
   24.8077  -20.4638  -14.2813 C   0  0  2  0  0  0  0  0  0  0  0  0
   25.7008  -19.4916  -14.8046 N   0  0  0  0  0  0  0  0  0  0  0  0
   23.4584  -19.8670  -14.1131 C   0  0  0  0  0  0  0  0  0  0  0  0
   23.3264  -18.8600  -13.4032 O   0  0  0  0  0  0  0  0  0  0  0  0
   23.5451  -20.9931   -8.9670 C   0  0  0  0  0  0  0  0  0  0  0  0
   18.3972  -19.1400  -17.3453 C   0  0  1  0  0  0  0  0  0  0  0  0
   19.0988  -18.9258  -16.0340 C   0  0  0  0  0  0  0  0  0  0  0  0
   19.2933  -17.4420  -15.7429 C   0  0  0  0  0  0  0  0  0  0  0  0
   20.4587  -19.5539  -16.0256 C   0  0  2  0  0  0  0  0  0  0  0  0
   20.9884  -19.8011  -14.6400 N   0  0  0  0  0  0  0  0  0  0  0  0
   22.3040  -20.4130  -14.7418 C   0  0  0  0  0  0  0  0  0  0  0  0
   20.0127  -20.7288  -13.9717 O   0  0  0  0  0  0  0  0  0  0  0  0
   20.3985  -22.0195  -13.7262 O   0  0  0  0  0  0  0  0  0  0  0  0
  1  2  1  0
  2  3  1  0
  4  3  1  0
  5  1  1  0
  5  4  1  0
  5  6  1  1
  7  6  2  0
  9 10  2  0
  9  8  1  0
 11  9  1  0
 12 11  1  0
 13 12  1  0
 14 13  1  0
 15 14  1  1
 15 16  1  0
 16  6  1  0
 17 15  1  0
 18 17  2  0
 20 19  1  1
 20 21  1  0
 22 20  1  0
 23 22  1  1
 23 24  1  0
 24 17  1  0
 25 26  1  0
 25 23  1  0
 27 25  2  0
M  END
$$$$
