WMQ.pdb
     RDKit          3D

 32 33  0  0  1  0  0  0  0  0999 V2000
    7.7637  -17.1045   22.5369 N   0  0  0  0  0  0  0  0  0  0  0  0
    8.3394  -15.8227   22.2647 C   0  0  1  0  0  0  0  0  0  0  0  0
    7.4005  -14.6641   22.3767 C   0  0  0  0  0  0  0  0  0  0  0  0
    6.7216  -14.5804   23.6827 C   0  0  0  0  0  0  0  0  0  0  0  0
    6.0940  -15.6195   24.3106 C   0  0  0  0  0  0  0  0  0  0  0  0
    5.6248  -15.1526   25.4741 N   0  0  0  0  0  0  0  0  0  0  0  0
    5.9331  -13.8518   25.6059 C   0  0  0  0  0  0  0  0  0  0  0  0
    5.6869  -12.9263   26.5858 C   0  0  0  0  0  0  0  0  0  0  0  0
    6.1102  -11.6191   26.4881 C   0  0  0  0  0  0  0  0  0  0  0  0
    6.8060  -11.2361   25.3604 C   0  0  0  0  0  0  0  0  0  0  0  0
    7.0615  -12.1565   24.3655 C   0  0  0  0  0  0  0  0  0  0  0  0
    6.6311  -13.4672   24.4766 C   0  0  0  0  0  0  0  0  0  0  0  0
    9.4550  -15.5939   23.2483 C   0  0  0  0  0  0  0  0  0  0  0  0
   10.1432  -14.5446   23.1831 O   0  0  0  0  0  0  0  0  0  0  0  0
   11.7181  -13.7495   29.3527 C   0  0  0  0  0  0  0  0  0  0  0  0
   10.8430  -14.3155   27.8454 S   0  0  0  0  0  0  0  0  0  0  0  0
   11.1210  -16.0863   27.6946 C   0  0  0  0  0  0  0  0  0  0  0  0
   10.3895  -16.7061   26.5557 C   0  0  0  0  0  0  0  0  0  0  0  0
   10.8518  -16.2388   25.1878 C   0  0  2  0  0  0  0  0  0  0  0  0
    9.7719  -16.5210   24.2627 N   0  0  0  0  0  0  0  0  0  0  0  0
   12.0895  -16.9662   24.7792 C   0  0  0  0  0  0  0  0  0  0  0  0
   12.3150  -18.1483   25.1266 O   0  0  0  0  0  0  0  0  0  0  0  0
   15.0709  -14.3131   20.1148 N   0  0  0  0  0  0  0  0  0  0  0  0
   14.1814  -15.4033   19.9947 C   0  0  0  0  0  0  0  0  0  0  0  0
   13.8216  -15.7423   18.8540 O   0  0  0  0  0  0  0  0  0  0  0  0
   13.7022  -16.1069   21.1919 C   0  0  0  0  0  0  0  0  0  0  0  0
   14.7356  -16.3458   22.2410 C   0  0  0  0  0  0  0  0  0  0  0  0
   14.2593  -17.0539   23.4680 C   0  0  2  0  0  0  0  0  0  0  0  0
   13.0830  -16.3444   23.9658 N   0  0  0  0  0  0  0  0  0  0  0  0
   15.2843  -17.1982   24.5049 C   0  0  0  0  0  0  0  0  0  0  0  0
   15.1137  -16.5798   25.7507 O   0  0  0  0  0  0  0  0  0  0  0  0
   16.3421  -17.8564   24.3601 O   0  0  0  0  0  0  0  0  0  0  0  0
  2  1  1  1
  2 13  1  0
  2  3  1  0
  4  5  2  0
  4  3  1  0
  6  5  1  0
  7 12  2  0
  7  6  1  0
  8  7  1  0
  9  8  2  0
  9 10  1  0
 10 11  2  0
 11 12  1  0
 12  4  1  0
 13 14  2  0
 16 15  1  0
 17 18  1  0
 17 16  1  0
 19 18  1  1
 19 21  1  0
 20 19  1  0
 20 13  1  0
 21 22  2  0
 23 24  1  0
 24 26  1  0
 24 25  2  0
 26 27  1  0
 28 27  1  6
 28 30  1  0
 29 21  1  0
 29 28  1  0
 30 32  2  0
 30 31  1  0
M  END
$$$$
