WMQ.pdb
     RDKit          3D

 32 33  0  0  1  0  0  0  0  0999 V2000
    9.9535  -17.2499   21.0522 N   0  0  0  0  0  0  0  0  0  0  0  0
    9.5787  -16.3008   22.0558 C   0  0  1  0  0  0  0  0  0  0  0  0
    8.1193  -15.9810   22.1192 C   0  0  0  0  0  0  0  0  0  0  0  0
    7.8376  -14.5960   22.5386 C   0  0  0  0  0  0  0  0  0  0  0  0
    8.0687  -13.4826   21.7804 C   0  0  0  0  0  0  0  0  0  0  0  0
    7.6641  -12.4263   22.4963 N   0  0  0  0  0  0  0  0  0  0  0  0
    7.1843  -12.8316   23.6838 C   0  0  0  0  0  0  0  0  0  0  0  0
    6.6625  -12.1628   24.7599 C   0  0  0  0  0  0  0  0  0  0  0  0
    6.2329  -12.8145   25.8949 C   0  0  0  0  0  0  0  0  0  0  0  0
    6.3352  -14.1892   25.9421 C   0  0  0  0  0  0  0  0  0  0  0  0
    6.8583  -14.8762   24.8665 C   0  0  0  0  0  0  0  0  0  0  0  0
    7.2856  -14.2092   23.7317 C   0  0  0  0  0  0  0  0  0  0  0  0
    9.9755  -16.8579   23.3961 C   0  0  0  0  0  0  0  0  0  0  0  0
    9.8847  -18.0920   23.6141 O   0  0  0  0  0  0  0  0  0  0  0  0
    9.8657  -13.0335   28.9853 C   0  0  0  0  0  0  0  0  0  0  0  0
   11.3830  -13.7965   28.2970 S   0  0  0  0  0  0  0  0  0  0  0  0
   11.0194  -15.5302   27.9845 C   0  0  0  0  0  0  0  0  0  0  0  0
   10.1613  -15.7494   26.7878 C   0  0  0  0  0  0  0  0  0  0  0  0
   10.7862  -16.6339   25.7246 C   0  0  2  0  0  0  0  0  0  0  0  0
   10.4557  -16.0433   24.4425 N   0  0  0  0  0  0  0  0  0  0  0  0
   10.2414  -18.0206   25.8138 C   0  0  0  0  0  0  0  0  0  0  0  0
    9.9014  -18.6713   24.7990 O   0  0  0  0  0  0  0  0  0  0  0  0
   12.0929  -19.9435   23.8631 N   0  0  0  0  0  0  0  0  0  0  0  0
   12.5771  -21.0675   24.5677 C   0  0  0  0  0  0  0  0  0  0  0  0
   13.0346  -22.0181   23.9099 O   0  0  0  0  0  0  0  0  0  0  0  0
   12.5344  -21.0994   26.0357 C   0  0  0  0  0  0  0  0  0  0  0  0
   12.1470  -19.8135   26.6851 C   0  0  0  0  0  0  0  0  0  0  0  0
   10.8716  -19.8413   27.4639 C   0  0  2  0  0  0  0  0  0  0  0  0
   10.0813  -18.6771   27.0702 N   0  0  0  0  0  0  0  0  0  0  0  0
   11.0643  -19.9000   28.9152 C   0  0  0  0  0  0  0  0  0  0  0  0
   10.5056  -20.9509   29.6549 O   0  0  0  0  0  0  0  0  0  0  0  0
   11.7142  -19.0522   29.5724 O   0  0  0  0  0  0  0  0  0  0  0  0
  2  1  1  6
  2 13  1  0
  2  3  1  0
  4  5  2  0
  4  3  1  0
  6  5  1  0
  7 12  2  0
  7  6  1  0
  8  7  1  0
  9  8  2  0
  9 10  1  0
 10 11  2  0
 11 12  1  0
 12  4  1  0
 13 14  2  0
 16 15  1  0
 17 18  1  0
 17 16  1  0
 19 18  1  1
 19 21  1  0
 20 19  1  0
 20 13  1  0
 21 22  2  0
 23 24  1  0
 24 26  1  0
 24 25  2  0
 26 27  1  0
 28 27  1  6
 28 30  1  0
 29 21  1  0
 29 28  1  0
 30 32  2  0
 30 31  1  0
M  END
$$$$
