WMQ.pdb
     RDKit          3D

 32 33  0  0  1  0  0  0  0  0999 V2000
    9.1169  -15.5182   19.7060 N   0  0  0  0  0  0  0  0  0  0  0  0
    9.1113  -16.3276   20.8864 C   0  0  1  0  0  0  0  0  0  0  0  0
   10.2180  -17.3292   20.9791 C   0  0  0  0  0  0  0  0  0  0  0  0
   10.2075  -18.3210   19.8884 C   0  0  0  0  0  0  0  0  0  0  0  0
   10.9553  -18.2425   18.7471 C   0  0  0  0  0  0  0  0  0  0  0  0
   10.6848  -19.3345   18.0217 N   0  0  0  0  0  0  0  0  0  0  0  0
    9.7899  -20.1035   18.6638 C   0  0  0  0  0  0  0  0  0  0  0  0
    9.1909  -21.2972   18.3573 C   0  0  0  0  0  0  0  0  0  0  0  0
    8.2784  -21.9003   19.1946 C   0  0  0  0  0  0  0  0  0  0  0  0
    7.9616  -21.2737   20.3819 C   0  0  0  0  0  0  0  0  0  0  0  0
    8.5564  -20.0718   20.7042 C   0  0  0  0  0  0  0  0  0  0  0  0
    9.4724  -19.4769   19.8541 C   0  0  0  0  0  0  0  0  0  0  0  0
    9.2290  -15.4161   22.0777 C   0  0  0  0  0  0  0  0  0  0  0  0
   10.3596  -15.0145   22.4509 O   0  0  0  0  0  0  0  0  0  0  0  0
    7.4082  -11.8586   28.2799 C   0  0  0  0  0  0  0  0  0  0  0  0
    7.6089  -12.1517   26.4822 S   0  0  0  0  0  0  0  0  0  0  0  0
    6.8392  -13.7333   26.1055 C   0  0  0  0  0  0  0  0  0  0  0  0
    6.8976  -14.0918   24.6618 C   0  0  0  0  0  0  0  0  0  0  0  0
    8.2646  -14.5488   24.1865 C   0  0  2  0  0  0  0  0  0  0  0  0
    8.1062  -14.9806   22.8116 N   0  0  0  0  0  0  0  0  0  0  0  0
    8.7605  -15.6752   25.0310 C   0  0  0  0  0  0  0  0  0  0  0  0
    8.0785  -16.7051   25.2384 O   0  0  0  0  0  0  0  0  0  0  0  0
   13.9747  -18.9328   23.9354 N   0  0  0  0  0  0  0  0  0  0  0  0
   13.5578  -17.6242   24.2641 C   0  0  0  0  0  0  0  0  0  0  0  0
   14.4003  -16.7114   24.2134 O   0  0  0  0  0  0  0  0  0  0  0  0
   12.1656  -17.3636   24.6540 C   0  0  0  0  0  0  0  0  0  0  0  0
   11.9704  -16.9798   26.0823 C   0  0  0  0  0  0  0  0  0  0  0  0
   10.5586  -16.7090   26.4915 C   0  0  2  0  0  0  0  0  0  0  0  0
   10.0466  -15.6322   25.6469 N   0  0  0  0  0  0  0  0  0  0  0  0
   10.4025  -16.4016   27.9155 C   0  0  0  0  0  0  0  0  0  0  0  0
   10.7339  -17.3620   28.8807 O   0  0  0  0  0  0  0  0  0  0  0  0
    9.9800  -15.3057   28.3554 O   0  0  0  0  0  0  0  0  0  0  0  0
  2  1  1  6
  2 13  1  0
  2  3  1  0
  4  5  2  0
  4  3  1  0
  6  5  1  0
  7 12  2  0
  7  6  1  0
  8  7  1  0
  9  8  2  0
  9 10  1  0
 10 11  2  0
 11 12  1  0
 12  4  1  0
 13 14  2  0
 16 15  1  0
 17 18  1  0
 17 16  1  0
 19 18  1  1
 19 21  1  0
 20 19  1  0
 20 13  1  0
 21 22  2  0
 23 24  1  0
 24 26  1  0
 24 25  2  0
 26 27  1  0
 28 27  1  1
 28 30  1  0
 29 21  1  0
 29 28  1  0
 30 32  2  0
 30 31  1  0
M  END
$$$$
