WMQ.pdb
     RDKit          3D

 32 33  0  0  1  0  0  0  0  0999 V2000
    6.6308  -17.9202   20.6974 N   0  0  0  0  0  0  0  0  0  0  0  0
    6.5591  -18.1577   22.1070 C   0  0  1  0  0  0  0  0  0  0  0  0
    7.1379  -19.4580   22.5659 C   0  0  0  0  0  0  0  0  0  0  0  0
    6.4591  -20.0204   23.7477 C   0  0  0  0  0  0  0  0  0  0  0  0
    5.2464  -20.6504   23.7321 C   0  0  0  0  0  0  0  0  0  0  0  0
    4.9843  -21.0338   24.9876 N   0  0  0  0  0  0  0  0  0  0  0  0
    5.9898  -20.6679   25.7999 C   0  0  0  0  0  0  0  0  0  0  0  0
    6.2064  -20.8136   27.1450 C   0  0  0  0  0  0  0  0  0  0  0  0
    7.3404  -20.3368   27.7647 C   0  0  0  0  0  0  0  0  0  0  0  0
    8.2867  -19.6907   26.9968 C   0  0  0  0  0  0  0  0  0  0  0  0
    8.0827  -19.5365   25.6415 C   0  0  0  0  0  0  0  0  0  0  0  0
    6.9389  -20.0211   25.0312 C   0  0  0  0  0  0  0  0  0  0  0  0
    7.3141  -17.0587   22.8043 C   0  0  0  0  0  0  0  0  0  0  0  0
    8.5007  -16.8070   22.4762 O   0  0  0  0  0  0  0  0  0  0  0  0
    6.4385  -10.5700   25.9538 C   0  0  0  0  0  0  0  0  0  0  0  0
    6.1400  -12.1581   26.8180 S   0  0  0  0  0  0  0  0  0  0  0  0
    7.2761  -13.3692   26.1264 C   0  0  0  0  0  0  0  0  0  0  0  0
    6.6055  -14.3976   25.2844 C   0  0  0  0  0  0  0  0  0  0  0  0
    7.5587  -15.3297   24.5592 C   0  0  2  0  0  0  0  0  0  0  0  0
    6.7410  -16.2797   23.8308 N   0  0  0  0  0  0  0  0  0  0  0  0
    8.4364  -16.0403   25.5352 C   0  0  0  0  0  0  0  0  0  0  0  0
    7.9881  -16.8831   26.3462 O   0  0  0  0  0  0  0  0  0  0  0  0
   12.4428  -19.3087   23.9005 N   0  0  0  0  0  0  0  0  0  0  0  0
   13.2223  -19.0295   25.0444 C   0  0  0  0  0  0  0  0  0  0  0  0
   14.0613  -19.8747   25.4015 O   0  0  0  0  0  0  0  0  0  0  0  0
   13.0361  -17.7730   25.7823 C   0  0  0  0  0  0  0  0  0  0  0  0
   11.9318  -16.9037   25.2819 C   0  0  0  0  0  0  0  0  0  0  0  0
   10.7846  -16.7117   26.2205 C   0  0  2  0  0  0  0  0  0  0  0  0
    9.8401  -15.7920   25.5907 N   0  0  0  0  0  0  0  0  0  0  0  0
   11.1804  -16.2528   27.5545 C   0  0  0  0  0  0  0  0  0  0  0  0
   11.8655  -17.1172   28.4189 O   0  0  0  0  0  0  0  0  0  0  0  0
   10.9457  -15.1043   28.0005 O   0  0  0  0  0  0  0  0  0  0  0  0
  2  1  1  6
  2 13  1  0
  2  3  1  0
  4  5  2  0
  4  3  1  0
  6  5  1  0
  7 12  2  0
  7  6  1  0
  8  7  1  0
  9  8  2  0
  9 10  1  0
 10 11  2  0
 11 12  1  0
 12  4  1  0
 13 14  2  0
 16 15  1  0
 17 18  1  0
 17 16  1  0
 19 18  1  1
 19 21  1  0
 20 19  1  0
 20 13  1  0
 21 22  2  0
 23 24  1  0
 24 26  1  0
 24 25  2  0
 26 27  1  0
 28 27  1  6
 28 30  1  0
 29 21  1  0
 29 28  1  0
 30 32  2  0
 30 31  1  0
M  END
$$$$
