WMQ.pdb
     RDKit          3D

 32 33  0  0  1  0  0  0  0  0999 V2000
    6.8402  -15.4826   21.3560 N   0  0  0  0  0  0  0  0  0  0  0  0
    7.9783  -16.2734   21.7137 C   0  0  1  0  0  0  0  0  0  0  0  0
    9.1840  -16.0851   20.8494 C   0  0  0  0  0  0  0  0  0  0  0  0
    8.8606  -15.7054   19.4620 C   0  0  0  0  0  0  0  0  0  0  0  0
    9.0331  -16.5055   18.3674 C   0  0  0  0  0  0  0  0  0  0  0  0
    8.6058  -15.8157   17.3028 N   0  0  0  0  0  0  0  0  0  0  0  0
    8.1680  -14.6044   17.6846 C   0  0  0  0  0  0  0  0  0  0  0  0
    7.6460  -13.5391   16.9989 C   0  0  0  0  0  0  0  0  0  0  0  0
    7.2664  -12.3732   17.6267 C   0  0  0  0  0  0  0  0  0  0  0  0
    7.4207  -12.2828   18.9944 C   0  0  0  0  0  0  0  0  0  0  0  0
    7.9447  -13.3470   19.6982 C   0  0  0  0  0  0  0  0  0  0  0  0
    8.3215  -14.5132   19.0551 C   0  0  0  0  0  0  0  0  0  0  0  0
    8.3729  -15.9134   23.1204 C   0  0  0  0  0  0  0  0  0  0  0  0
    9.2879  -15.0757   23.3202 O   0  0  0  0  0  0  0  0  0  0  0  0
    8.4001  -12.5235   28.9572 C   0  0  0  0  0  0  0  0  0  0  0  0
    8.1497  -13.2556   27.2961 S   0  0  0  0  0  0  0  0  0  0  0  0
    7.1690  -14.7485   27.5082 C   0  0  0  0  0  0  0  0  0  0  0  0
    6.9045  -15.4700   26.2330 C   0  0  0  0  0  0  0  0  0  0  0  0
    8.1415  -16.0598   25.5809 C   0  0  2  0  0  0  0  0  0  0  0  0
    7.7510  -16.4834   24.2506 N   0  0  0  0  0  0  0  0  0  0  0  0
    8.6427  -17.2231   26.3705 C   0  0  0  0  0  0  0  0  0  0  0  0
    7.8733  -18.0922   26.8412 O   0  0  0  0  0  0  0  0  0  0  0  0
   12.2278  -17.7082   23.5134 N   0  0  0  0  0  0  0  0  0  0  0  0
   12.7898  -18.4555   24.5717 C   0  0  0  0  0  0  0  0  0  0  0  0
   14.0198  -18.3946   24.7426 O   0  0  0  0  0  0  0  0  0  0  0  0
   11.9340  -19.2778   25.4374 C   0  0  0  0  0  0  0  0  0  0  0  0
   11.9053  -18.8677   26.8714 C   0  0  0  0  0  0  0  0  0  0  0  0
   10.5586  -18.5157   27.4160 C   0  0  2  0  0  0  0  0  0  0  0  0
   10.0343  -17.4024   26.6282 N   0  0  0  0  0  0  0  0  0  0  0  0
   10.5596  -18.2123   28.8494 C   0  0  0  0  0  0  0  0  0  0  0  0
   10.0718  -16.9804   29.3059 O   0  0  0  0  0  0  0  0  0  0  0  0
   10.9781  -18.9976   29.7334 O   0  0  0  0  0  0  0  0  0  0  0  0
  2  1  1  6
  2 13  1  0
  2  3  1  0
  4  5  2  0
  4  3  1  0
  6  5  1  0
  7 12  2  0
  7  6  1  0
  8  7  1  0
  9  8  2  0
  9 10  1  0
 10 11  2  0
 11 12  1  0
 12  4  1  0
 13 14  2  0
 16 15  1  0
 17 18  1  0
 17 16  1  0
 19 18  1  1
 19 21  1  0
 20 19  1  0
 20 13  1  0
 21 22  2  0
 23 24  1  0
 24 26  1  0
 24 25  2  0
 26 27  1  0
 28 27  1  6
 28 30  1  0
 29 21  1  0
 29 28  1  0
 30 32  2  0
 30 31  1  0
M  END
$$$$
