WMQ.pdb
     RDKit          3D

 32 33  0  0  1  0  0  0  0  0999 V2000
    7.1295  -17.8195   26.3342 N   0  0  0  0  0  0  0  0  0  0  0  0
    7.4050  -16.6319   25.5843 C   0  0  1  0  0  0  0  0  0  0  0  0
    8.6028  -15.8569   26.0325 C   0  0  0  0  0  0  0  0  0  0  0  0
    8.2701  -14.6928   26.8737 C   0  0  0  0  0  0  0  0  0  0  0  0
    8.6867  -14.5092   28.1623 C   0  0  0  0  0  0  0  0  0  0  0  0
    8.1983  -13.3319   28.5714 N   0  0  0  0  0  0  0  0  0  0  0  0
    7.4852  -12.7619   27.5858 C   0  0  0  0  0  0  0  0  0  0  0  0
    6.7898  -11.5849   27.4941 C   0  0  0  0  0  0  0  0  0  0  0  0
    6.1171  -11.2135   26.3508 C   0  0  0  0  0  0  0  0  0  0  0  0
    6.1494  -12.0625   25.2641 C   0  0  0  0  0  0  0  0  0  0  0  0
    6.8453  -13.2508   25.3415 C   0  0  0  0  0  0  0  0  0  0  0  0
    7.5176  -13.6116   26.4961 C   0  0  0  0  0  0  0  0  0  0  0  0
    7.6364  -17.0282   24.1513 C   0  0  0  0  0  0  0  0  0  0  0  0
    8.1997  -18.1195   23.8855 O   0  0  0  0  0  0  0  0  0  0  0  0
    8.6178  -11.6999   19.7853 C   0  0  0  0  0  0  0  0  0  0  0  0
    8.2716  -13.4724   19.4745 S   0  0  0  0  0  0  0  0  0  0  0  0
    7.4307  -14.1193   20.9271 C   0  0  0  0  0  0  0  0  0  0  0  0
    7.0276  -15.5461   20.7922 C   0  0  0  0  0  0  0  0  0  0  0  0
    7.7474  -16.4906   21.7372 C   0  0  2  0  0  0  0  0  0  0  0  0
    7.2421  -16.2158   23.0679 N   0  0  0  0  0  0  0  0  0  0  0  0
    9.2210  -16.2596   21.6829 C   0  0  0  0  0  0  0  0  0  0  0  0
    9.7710  -15.3100   22.2869 O   0  0  0  0  0  0  0  0  0  0  0  0
   13.3827  -19.3348   23.9786 N   0  0  0  0  0  0  0  0  0  0  0  0
   12.6611  -19.9954   22.9602 C   0  0  0  0  0  0  0  0  0  0  0  0
   12.5824  -21.2352   23.0086 O   0  0  0  0  0  0  0  0  0  0  0  0
   12.0274  -19.2273   21.8802 C   0  0  0  0  0  0  0  0  0  0  0  0
   12.1117  -17.7449   22.0251 C   0  0  0  0  0  0  0  0  0  0  0  0
   11.5322  -16.9515   20.8988 C   0  0  2  0  0  0  0  0  0  0  0  0
   10.0809  -17.1175   20.9347 N   0  0  0  0  0  0  0  0  0  0  0  0
   12.0846  -17.2948   19.5859 C   0  0  0  0  0  0  0  0  0  0  0  0
   11.2423  -17.7755   18.5744 O   0  0  0  0  0  0  0  0  0  0  0  0
   13.2974  -17.1882   19.2845 O   0  0  0  0  0  0  0  0  0  0  0  0
  2  1  1  1
  2 13  1  0
  2  3  1  0
  4  5  2  0
  4  3  1  0
  6  5  1  0
  7 12  2  0
  7  6  1  0
  8  7  1  0
  9  8  2  0
  9 10  1  0
 10 11  2  0
 11 12  1  0
 12  4  1  0
 13 14  2  0
 16 15  1  0
 17 18  1  0
 17 16  1  0
 19 18  1  6
 19 21  1  0
 20 19  1  0
 20 13  1  0
 21 22  2  0
 23 24  1  0
 24 26  1  0
 24 25  2  0
 26 27  1  0
 28 27  1  1
 28 30  1  0
 29 21  1  0
 29 28  1  0
 30 32  2  0
 30 31  1  0
M  END
$$$$
