WMQ.pdb
     RDKit          3D

 32 33  0  0  1  0  0  0  0  0999 V2000
    6.2815  -17.3425   25.3063 N   0  0  0  0  0  0  0  0  0  0  0  0
    7.2354  -16.3504   24.9131 C   0  0  1  0  0  0  0  0  0  0  0  0
    8.4380  -16.2362   25.7945 C   0  0  0  0  0  0  0  0  0  0  0  0
    8.3186  -15.1838   26.8201 C   0  0  0  0  0  0  0  0  0  0  0  0
    8.6417  -15.3319   28.1398 C   0  0  0  0  0  0  0  0  0  0  0  0
    8.4167  -14.1546   28.7360 N   0  0  0  0  0  0  0  0  0  0  0  0
    7.9613  -13.2642   27.8392 C   0  0  0  0  0  0  0  0  0  0  0  0
    7.5845  -11.9502   27.9335 C   0  0  0  0  0  0  0  0  0  0  0  0
    7.1350  -11.2326   26.8469 C   0  0  0  0  0  0  0  0  0  0  0  0
    7.0644  -11.8668   25.6240 C   0  0  0  0  0  0  0  0  0  0  0  0
    7.4404  -13.1892   25.5136 C   0  0  0  0  0  0  0  0  0  0  0  0
    7.8910  -13.8985   26.6132 C   0  0  0  0  0  0  0  0  0  0  0  0
    7.7218  -16.6928   23.5310 C   0  0  0  0  0  0  0  0  0  0  0  0
    7.8584  -17.8957   23.1943 O   0  0  0  0  0  0  0  0  0  0  0  0
    7.8201  -11.5322   19.9571 C   0  0  0  0  0  0  0  0  0  0  0  0
    7.1250  -12.9782   19.0717 S   0  0  0  0  0  0  0  0  0  0  0  0
    7.2096  -14.3852   20.1892 C   0  0  0  0  0  0  0  0  0  0  0  0
    8.5945  -14.8856   20.4082 C   0  0  0  0  0  0  0  0  0  0  0  0
    8.6864  -16.0851   21.3335 C   0  0  2  0  0  0  0  0  0  0  0  0
    8.0384  -15.7066   22.5738 N   0  0  0  0  0  0  0  0  0  0  0  0
   10.1137  -16.4442   21.5813 C   0  0  0  0  0  0  0  0  0  0  0  0
   10.7332  -16.0562   22.5985 O   0  0  0  0  0  0  0  0  0  0  0  0
   11.8058  -21.1181   23.6794 N   0  0  0  0  0  0  0  0  0  0  0  0
   13.0549  -20.8889   23.0619 C   0  0  0  0  0  0  0  0  0  0  0  0
   13.9892  -21.6658   23.3249 O   0  0  0  0  0  0  0  0  0  0  0  0
   13.2314  -19.7605   22.1380 C   0  0  0  0  0  0  0  0  0  0  0  0
   11.9996  -18.9619   21.8727 C   0  0  0  0  0  0  0  0  0  0  0  0
   12.1731  -17.7897   20.9619 C   0  0  2  0  0  0  0  0  0  0  0  0
   10.8466  -17.2543   20.6639 N   0  0  0  0  0  0  0  0  0  0  0  0
   12.9218  -18.0941   19.7398 C   0  0  0  0  0  0  0  0  0  0  0  0
   12.3034  -17.9682   18.4887 O   0  0  0  0  0  0  0  0  0  0  0  0
   14.1175  -18.4725   19.7245 O   0  0  0  0  0  0  0  0  0  0  0  0
  2  1  1  1
  2 13  1  0
  2  3  1  0
  4  5  2  0
  4  3  1  0
  6  5  1  0
  7 12  2  0
  7  6  1  0
  8  7  1  0
  9  8  2  0
  9 10  1  0
 10 11  2  0
 11 12  1  0
 12  4  1  0
 13 14  2  0
 16 15  1  0
 17 18  1  0
 17 16  1  0
 19 18  1  6
 19 21  1  0
 20 19  1  0
 20 13  1  0
 21 22  2  0
 23 24  1  0
 24 26  1  0
 24 25  2  0
 26 27  1  0
 28 27  1  1
 28 30  1  0
 29 21  1  0
 29 28  1  0
 30 32  2  0
 30 31  1  0
M  END
$$$$
