WMQ.pdb
     RDKit          3D

 32 33  0  0  1  0  0  0  0  0999 V2000
    6.3470  -18.4855   25.3619 N   0  0  0  0  0  0  0  0  0  0  0  0
    6.7960  -17.1574   25.0737 C   0  0  1  0  0  0  0  0  0  0  0  0
    7.9078  -16.6572   25.9396 C   0  0  0  0  0  0  0  0  0  0  0  0
    7.4898  -15.6075   26.8868 C   0  0  0  0  0  0  0  0  0  0  0  0
    7.2686  -15.7963   28.2222 C   0  0  0  0  0  0  0  0  0  0  0  0
    6.9284  -14.6088   28.7379 N   0  0  0  0  0  0  0  0  0  0  0  0
    6.9258  -13.6724   27.7748 C   0  0  0  0  0  0  0  0  0  0  0  0
    6.6496  -12.3303   27.7751 C   0  0  0  0  0  0  0  0  0  0  0  0
    6.7112  -11.5650   26.6314 C   0  0  0  0  0  0  0  0  0  0  0  0
    7.0640  -12.1791   25.4478 C   0  0  0  0  0  0  0  0  0  0  0  0
    7.3450  -13.5292   25.4318 C   0  0  0  0  0  0  0  0  0  0  0  0
    7.2800  -14.2866   26.5884 C   0  0  0  0  0  0  0  0  0  0  0  0
    7.2864  -17.1291   23.6514 C   0  0  0  0  0  0  0  0  0  0  0  0
    7.7742  -18.1658   23.1354 O   0  0  0  0  0  0  0  0  0  0  0  0
    7.0587  -11.7374   20.2625 C   0  0  0  0  0  0  0  0  0  0  0  0
    8.1635  -12.6132   19.0918 S   0  0  0  0  0  0  0  0  0  0  0  0
    8.4734  -14.2513   19.7672 C   0  0  0  0  0  0  0  0  0  0  0  0
    7.7391  -14.5184   21.0344 C   0  0  0  0  0  0  0  0  0  0  0  0
    8.0313  -15.8736   21.6520 C   0  0  2  0  0  0  0  0  0  0  0  0
    7.2231  -15.9692   22.8517 N   0  0  0  0  0  0  0  0  0  0  0  0
    9.4802  -15.9907   21.9908 C   0  0  0  0  0  0  0  0  0  0  0  0
   10.0045  -15.3326   22.9187 O   0  0  0  0  0  0  0  0  0  0  0  0
   12.4123  -21.3451   22.0208 N   0  0  0  0  0  0  0  0  0  0  0  0
   13.5026  -20.4695   22.2176 C   0  0  0  0  0  0  0  0  0  0  0  0
   14.6155  -20.9666   22.4631 O   0  0  0  0  0  0  0  0  0  0  0  0
   13.3128  -19.0153   22.1328 C   0  0  0  0  0  0  0  0  0  0  0  0
   11.9384  -18.5782   21.7517 C   0  0  0  0  0  0  0  0  0  0  0  0
   11.7352  -17.1010   21.6489 C   0  0  2  0  0  0  0  0  0  0  0  0
   10.3444  -16.8659   21.2681 N   0  0  0  0  0  0  0  0  0  0  0  0
   12.6673  -16.4365   20.7344 C   0  0  0  0  0  0  0  0  0  0  0  0
   12.2669  -16.1268   19.4277 O   0  0  0  0  0  0  0  0  0  0  0  0
   13.8393  -16.1107   21.0402 O   0  0  0  0  0  0  0  0  0  0  0  0
  2  1  1  1
  2 13  1  0
  2  3  1  0
  4  5  2  0
  4  3  1  0
  6  5  1  0
  7 12  2  0
  7  6  1  0
  8  7  1  0
  9  8  2  0
  9 10  1  0
 10 11  2  0
 11 12  1  0
 12  4  1  0
 13 14  2  0
 16 15  1  0
 17 18  1  0
 17 16  1  0
 19 18  1  1
 19 21  1  0
 20 19  1  0
 20 13  1  0
 21 22  2  0
 23 24  1  0
 24 26  1  0
 24 25  2  0
 26 27  1  0
 28 27  1  6
 28 30  1  0
 29 21  1  0
 29 28  1  0
 30 32  2  0
 30 31  1  0
M  END
$$$$
