DQK.pdb
     RDKit          3D

 27 26  0  0  1  0  0  0  0  0999 V2000
   11.4188  -17.1716   16.1566 N   0  0  0  0  0  0  0  0  0  0  0  0
   12.7198  -16.7589   16.6371 C   0  0  1  0  0  0  0  0  0  0  0  0
   13.2762  -15.7637   15.6700 C   0  0  0  0  0  0  0  0  0  0  0  0
   13.9931  -16.4818   14.5888 C   0  0  0  0  0  0  0  0  0  0  0  0
   14.2428  -17.7193   14.6313 O   0  0  0  0  0  0  0  0  0  0  0  0
   12.5573  -16.1140   17.9859 C   0  0  0  0  0  0  0  0  0  0  0  0
   13.5508  -15.8971   18.7276 O   0  0  0  0  0  0  0  0  0  0  0  0
   14.4245  -15.8006   13.4656 O   0  0  0  0  0  0  0  0  0  0  0  0
    8.0832  -11.9808   19.9896 N   0  0  0  0  0  0  0  0  0  0  0  0
    7.6591  -13.2461   19.4686 C   0  0  0  0  0  0  0  0  0  0  0  0
    6.4425  -13.3410   19.1796 O   0  0  0  0  0  0  0  0  0  0  0  0
    8.6546  -14.3213   19.3073 C   0  0  0  0  0  0  0  0  0  0  0  0
   10.0250  -14.0094   19.7379 C   0  0  0  0  0  0  0  0  0  0  0  0
   11.0541  -15.0731   19.7343 C   0  0  2  0  0  0  0  0  0  0  0  0
   11.2863  -15.7234   18.4804 N   0  0  0  0  0  0  0  0  0  0  0  0
   10.9193  -16.0417   20.8602 C   0  0  0  0  0  0  0  0  0  0  0  0
   10.1884  -17.0624   20.7850 O   0  0  0  0  0  0  0  0  0  0  0  0
   11.6174  -15.8521   22.0789 N   0  0  0  0  0  0  0  0  0  0  0  0
   11.4649  -16.8419   23.1610 C   0  0  1  0  0  0  0  0  0  0  0  0
   12.6163  -17.7910   23.0583 C   0  0  0  0  0  0  0  0  0  0  0  0
   12.2378  -19.2081   23.3607 C   0  0  0  0  0  0  0  0  0  0  0  0
   13.4417  -20.1305   23.1861 C   0  0  0  0  0  0  0  0  0  0  0  0
   12.9850  -21.5733   23.4210 C   0  0  0  0  0  0  0  0  0  0  0  0
   14.0796  -22.4399   23.0372 N   0  0  0  0  0  0  0  0  0  0  0  0
   11.5743  -16.0953   24.4346 C   0  0  0  0  0  0  0  0  0  0  0  0
   11.8712  -14.8784   24.4997 O   0  0  0  0  0  0  0  0  0  0  0  0
   11.3448  -16.7362   25.6383 O   0  0  0  0  0  0  0  0  0  0  0  0
  2  3  1  0
  2  1  1  6
  3  4  1  0
  4  8  1  0
  5  4  2  0
  6  2  1  0
  7  6  2  0
  9 10  1  0
 10 12  1  0
 10 11  2  0
 12 13  1  0
 14 13  1  6
 14 15  1  0
 15  6  1  0
 16 17  2  0
 16 14  1  0
 18 16  1  0
 19 18  1  0
 19 20  1  1
 20 21  1  0
 21 22  1  0
 23 22  1  0
 23 24  1  0
 25 19  1  0
 26 25  2  0
 27 25  1  0
M  END
$$$$
