DQK.pdb
     RDKit          3D

 27 26  0  0  1  0  0  0  0  0999 V2000
    9.7752  -17.2260   18.1691 N   0  0  0  0  0  0  0  0  0  0  0  0
    8.9662  -16.0560   18.4344 C   0  0  1  0  0  0  0  0  0  0  0  0
    7.8536  -16.0264   17.4362 C   0  0  0  0  0  0  0  0  0  0  0  0
    8.4101  -15.7332   16.0935 C   0  0  0  0  0  0  0  0  0  0  0  0
    9.1540  -16.5378   15.4651 O   0  0  0  0  0  0  0  0  0  0  0  0
    8.3955  -16.1645   19.8216 C   0  0  0  0  0  0  0  0  0  0  0  0
    7.5889  -15.3048   20.2626 O   0  0  0  0  0  0  0  0  0  0  0  0
    8.1248  -14.5343   15.4666 O   0  0  0  0  0  0  0  0  0  0  0  0
    8.7273  -21.4104   23.5543 N   0  0  0  0  0  0  0  0  0  0  0  0
    8.1426  -20.4423   24.4335 C   0  0  0  0  0  0  0  0  0  0  0  0
    7.8519  -20.8496   25.5834 O   0  0  0  0  0  0  0  0  0  0  0  0
    7.9312  -19.0684   23.9428 C   0  0  0  0  0  0  0  0  0  0  0  0
    8.3248  -18.8065   22.5510 C   0  0  0  0  0  0  0  0  0  0  0  0
    8.1893  -17.4412   21.9958 C   0  0  2  0  0  0  0  0  0  0  0  0
    8.7376  -17.2328   20.6901 N   0  0  0  0  0  0  0  0  0  0  0  0
    8.5745  -16.3639   22.9524 C   0  0  0  0  0  0  0  0  0  0  0  0
    9.7746  -16.0633   23.1785 O   0  0  0  0  0  0  0  0  0  0  0  0
    7.5934  -15.6228   23.6570 N   0  0  0  0  0  0  0  0  0  0  0  0
    8.0109  -14.4824   24.4931 C   0  0  1  0  0  0  0  0  0  0  0  0
    6.7991  -13.6372   24.7259 C   0  0  0  0  0  0  0  0  0  0  0  0
    7.0708  -12.4481   25.5950 C   0  0  0  0  0  0  0  0  0  0  0  0
    5.8041  -11.6139   25.7684 C   0  0  0  0  0  0  0  0  0  0  0  0
    6.1502  -10.3739   26.5980 C   0  0  0  0  0  0  0  0  0  0  0  0
    4.9315   -9.6087   26.7587 N   0  0  0  0  0  0  0  0  0  0  0  0
    8.4541  -15.0476   25.7875 C   0  0  0  0  0  0  0  0  0  0  0  0
    8.0235  -16.1296   26.2535 O   0  0  0  0  0  0  0  0  0  0  0  0
    9.3909  -14.3789   26.5540 O   0  0  0  0  0  0  0  0  0  0  0  0
  2  3  1  0
  2  1  1  6
  3  4  1  0
  4  8  1  0
  5  4  2  0
  6  2  1  0
  7  6  2  0
  9 10  1  0
 10 12  1  0
 10 11  2  0
 12 13  1  0
 14 13  1  1
 14 15  1  0
 15  6  1  0
 16 17  2  0
 16 14  1  0
 18 16  1  0
 19 18  1  0
 19 20  1  1
 20 21  1  0
 21 22  1  0
 23 22  1  0
 23 24  1  0
 25 19  1  0
 26 25  2  0
 27 25  1  0
M  END
$$$$
