DQK.pdb
     RDKit          3D

 27 26  0  0  1  0  0  0  0  0999 V2000
   13.9753  -15.1827   16.8332 N   0  0  0  0  0  0  0  0  0  0  0  0
   14.7919  -14.9051   17.9951 C   0  0  1  0  0  0  0  0  0  0  0  0
   15.5806  -13.6649   17.7209 C   0  0  0  0  0  0  0  0  0  0  0  0
   16.5449  -13.9315   16.6266 C   0  0  0  0  0  0  0  0  0  0  0  0
   16.7231  -15.0791   16.1296 O   0  0  0  0  0  0  0  0  0  0  0  0
   13.8918  -14.6783   19.1783 C   0  0  0  0  0  0  0  0  0  0  0  0
   14.3639  -14.3986   20.3111 O   0  0  0  0  0  0  0  0  0  0  0  0
   17.3029  -12.9028   16.0986 O   0  0  0  0  0  0  0  0  0  0  0  0
    7.9399  -13.6866   17.4738 N   0  0  0  0  0  0  0  0  0  0  0  0
    8.3119  -13.1989   18.7684 C   0  0  0  0  0  0  0  0  0  0  0  0
    7.3810  -12.7333   19.4681 O   0  0  0  0  0  0  0  0  0  0  0  0
    9.7245  -13.2784   19.1821 C   0  0  0  0  0  0  0  0  0  0  0  0
   10.1417  -14.5265   19.8370 C   0  0  0  0  0  0  0  0  0  0  0  0
   11.5674  -14.7354   20.1751 C   0  0  2  0  0  0  0  0  0  0  0  0
   12.4800  -14.7686   19.0728 N   0  0  0  0  0  0  0  0  0  0  0  0
   11.7981  -15.8511   21.1375 C   0  0  0  0  0  0  0  0  0  0  0  0
   11.8174  -17.0560   20.7777 O   0  0  0  0  0  0  0  0  0  0  0  0
   12.0083  -15.5994   22.5162 N   0  0  0  0  0  0  0  0  0  0  0  0
   12.2152  -16.7337   23.4350 C   0  0  1  0  0  0  0  0  0  0  0  0
   13.6011  -16.6116   23.9841 C   0  0  0  0  0  0  0  0  0  0  0  0
   14.5405  -17.6443   23.4418 C   0  0  0  0  0  0  0  0  0  0  0  0
   15.9170  -17.5041   24.0869 C   0  0  0  0  0  0  0  0  0  0  0  0
   16.8202  -18.6176   23.5486 C   0  0  0  0  0  0  0  0  0  0  0  0
   18.1177  -18.4594   24.1716 N   0  0  0  0  0  0  0  0  0  0  0  0
   11.2469  -16.5628   24.5416 C   0  0  0  0  0  0  0  0  0  0  0  0
   11.1896  -17.3267   25.5348 O   0  0  0  0  0  0  0  0  0  0  0  0
   10.3406  -15.5187   24.5175 O   0  0  0  0  0  0  0  0  0  0  0  0
  2  3  1  0
  2  1  1  6
  3  4  1  0
  4  8  1  0
  5  4  2  0
  6  2  1  0
  7  6  2  0
  9 10  1  0
 10 12  1  0
 10 11  2  0
 12 13  1  0
 14 13  1  6
 14 15  1  0
 15  6  1  0
 16 17  2  0
 16 14  1  0
 18 16  1  0
 19 18  1  0
 19 20  1  1
 20 21  1  0
 21 22  1  0
 23 22  1  0
 23 24  1  0
 25 19  1  0
 26 25  2  0
 27 25  1  0
M  END
$$$$
