DQK.pdb
     RDKit          3D

 27 26  0  0  1  0  0  0  0  0999 V2000
    7.4454  -21.2371   19.5558 N   0  0  0  0  0  0  0  0  0  0  0  0
    7.2443  -20.0669   18.7286 C   0  0  1  0  0  0  0  0  0  0  0  0
    5.8241  -19.6270   18.8864 C   0  0  0  0  0  0  0  0  0  0  0  0
    5.0068  -20.2160   17.7985 C   0  0  0  0  0  0  0  0  0  0  0  0
    5.4794  -21.0022   16.9300 O   0  0  0  0  0  0  0  0  0  0  0  0
    8.1651  -18.9752   19.1996 C   0  0  0  0  0  0  0  0  0  0  0  0
    9.4116  -19.1457   19.2359 O   0  0  0  0  0  0  0  0  0  0  0  0
    3.6612  -19.9153   17.6957 O   0  0  0  0  0  0  0  0  0  0  0  0
    7.4299  -11.9863   19.9722 N   0  0  0  0  0  0  0  0  0  0  0  0
    8.3027  -12.8014   19.1810 C   0  0  0  0  0  0  0  0  0  0  0  0
    8.5762  -12.3641   18.0380 O   0  0  0  0  0  0  0  0  0  0  0  0
    8.8106  -14.0633   19.7493 C   0  0  0  0  0  0  0  0  0  0  0  0
    8.0449  -15.2763   19.4283 C   0  0  0  0  0  0  0  0  0  0  0  0
    8.4875  -16.5844   19.9610 C   0  0  2  0  0  0  0  0  0  0  0  0
    7.6747  -17.7126   19.6215 N   0  0  0  0  0  0  0  0  0  0  0  0
    8.8403  -16.5536   21.4096 C   0  0  0  0  0  0  0  0  0  0  0  0
    7.9998  -16.2666   22.3001 O   0  0  0  0  0  0  0  0  0  0  0  0
   10.1537  -16.8499   21.8516 N   0  0  0  0  0  0  0  0  0  0  0  0
   10.4407  -16.8795   23.2976 C   0  0  1  0  0  0  0  0  0  0  0  0
   10.7368  -18.2997   23.6612 C   0  0  0  0  0  0  0  0  0  0  0  0
   11.1534  -18.4652   25.0901 C   0  0  0  0  0  0  0  0  0  0  0  0
   11.5732  -19.9081   25.3594 C   0  0  0  0  0  0  0  0  0  0  0  0
   11.8478  -20.0613   26.8583 C   0  0  0  0  0  0  0  0  0  0  0  0
   12.1911  -21.4481   27.0943 N   0  0  0  0  0  0  0  0  0  0  0  0
   11.6630  -16.0699   23.5021 C   0  0  0  0  0  0  0  0  0  0  0  0
   12.0495  -15.6730   24.6274 O   0  0  0  0  0  0  0  0  0  0  0  0
   12.4481  -15.7109   22.4218 O   0  0  0  0  0  0  0  0  0  0  0  0
  2  3  1  0
  2  1  1  1
  3  4  1  0
  4  8  1  0
  5  4  2  0
  6  2  1  0
  7  6  2  0
  9 10  1  0
 10 12  1  0
 10 11  2  0
 12 13  1  0
 14 13  1  1
 14 15  1  0
 15  6  1  0
 16 17  2  0
 16 14  1  0
 18 16  1  0
 19 18  1  0
 19 20  1  6
 20 21  1  0
 21 22  1  0
 23 22  1  0
 23 24  1  0
 25 19  1  0
 26 25  2  0
 27 25  1  0
M  END
$$$$
