DQK.pdb
     RDKit          3D

 27 26  0  0  1  0  0  0  0  0999 V2000
   11.6159  -17.6740   16.5227 N   0  0  0  0  0  0  0  0  0  0  0  0
   12.8321  -17.0643   17.0157 C   0  0  1  0  0  0  0  0  0  0  0  0
   13.2972  -16.0713   15.9993 C   0  0  0  0  0  0  0  0  0  0  0  0
   13.8712  -16.7934   14.8385 C   0  0  0  0  0  0  0  0  0  0  0  0
   13.3719  -17.8561   14.3724 O   0  0  0  0  0  0  0  0  0  0  0  0
   12.5316  -16.3581   18.3091 C   0  0  0  0  0  0  0  0  0  0  0  0
   13.4547  -15.8848   19.0219 O   0  0  0  0  0  0  0  0  0  0  0  0
   15.0049  -16.3133   14.2094 O   0  0  0  0  0  0  0  0  0  0  0  0
    6.7716  -14.1059   20.1140 N   0  0  0  0  0  0  0  0  0  0  0  0
    7.6092  -13.5651   19.0852 C   0  0  0  0  0  0  0  0  0  0  0  0
    7.0733  -12.7214   18.3278 O   0  0  0  0  0  0  0  0  0  0  0  0
    9.0079  -14.0209   18.9907 C   0  0  0  0  0  0  0  0  0  0  0  0
    9.4559  -14.9655   20.0240 C   0  0  0  0  0  0  0  0  0  0  0  0
   10.8347  -15.5017   19.9783 C   0  0  2  0  0  0  0  0  0  0  0  0
   11.2040  -16.1943   18.7814 N   0  0  0  0  0  0  0  0  0  0  0  0
   11.2303  -16.2443   21.2096 C   0  0  0  0  0  0  0  0  0  0  0  0
   11.1091  -17.4921   21.3101 O   0  0  0  0  0  0  0  0  0  0  0  0
   11.7667  -15.5685   22.3338 N   0  0  0  0  0  0  0  0  0  0  0  0
   12.0577  -16.3284   23.5633 C   0  0  1  0  0  0  0  0  0  0  0  0
   13.4578  -15.9941   23.9694 C   0  0  0  0  0  0  0  0  0  0  0  0
   14.4890  -16.5633   23.0445 C   0  0  0  0  0  0  0  0  0  0  0  0
   15.8881  -16.1274   23.4727 C   0  0  0  0  0  0  0  0  0  0  0  0
   16.9009  -16.7048   22.4796 C   0  0  0  0  0  0  0  0  0  0  0  0
   18.2107  -16.2308   22.8749 N   0  0  0  0  0  0  0  0  0  0  0  0
   11.1276  -15.8266   24.5999 C   0  0  0  0  0  0  0  0  0  0  0  0
   10.3928  -14.8225   24.4423 O   0  0  0  0  0  0  0  0  0  0  0  0
   11.0337  -16.4703   25.8203 O   0  0  0  0  0  0  0  0  0  0  0  0
  2  3  1  0
  2  1  1  6
  3  4  1  0
  4  8  1  0
  5  4  2  0
  6  2  1  0
  7  6  2  0
  9 10  1  0
 10 12  1  0
 10 11  2  0
 12 13  1  0
 14 13  1  6
 14 15  1  0
 15  6  1  0
 16 17  2  0
 16 14  1  0
 18 16  1  0
 19 18  1  0
 19 20  1  1
 20 21  1  0
 21 22  1  0
 23 22  1  0
 23 24  1  0
 25 19  1  0
 26 25  2  0
 27 25  1  0
M  END
$$$$
