DQK.pdb
     RDKit          3D

 27 26  0  0  1  0  0  0  0  0999 V2000
   11.4577  -17.8423   18.9941 N   0  0  0  0  0  0  0  0  0  0  0  0
   10.0969  -18.3126   19.1386 C   0  0  1  0  0  0  0  0  0  0  0  0
    9.9997  -19.6555   18.4888 C   0  0  0  0  0  0  0  0  0  0  0  0
   10.2846  -19.5187   17.0401 C   0  0  0  0  0  0  0  0  0  0  0  0
   11.4560  -19.4787   16.5689 O   0  0  0  0  0  0  0  0  0  0  0  0
    9.7792  -18.4375   20.6033 C   0  0  0  0  0  0  0  0  0  0  0  0
    8.6265  -18.7580   20.9942 O   0  0  0  0  0  0  0  0  0  0  0  0
    9.2472  -19.4276   16.1307 O   0  0  0  0  0  0  0  0  0  0  0  0
   10.6419  -21.8219   25.0440 N   0  0  0  0  0  0  0  0  0  0  0  0
   10.9196  -20.6798   25.8630 C   0  0  0  0  0  0  0  0  0  0  0  0
   10.9477  -20.8847   27.0999 O   0  0  0  0  0  0  0  0  0  0  0  0
   11.1515  -19.3763   25.2147 C   0  0  0  0  0  0  0  0  0  0  0  0
   11.1537  -19.3716   23.7448 C   0  0  0  0  0  0  0  0  0  0  0  0
   10.5204  -18.2507   23.0147 C   0  0  2  0  0  0  0  0  0  0  0  0
   10.7568  -18.2017   21.6039 N   0  0  0  0  0  0  0  0  0  0  0  0
   10.7120  -16.9244   23.6693 C   0  0  0  0  0  0  0  0  0  0  0  0
   11.7588  -16.6321   24.3021 O   0  0  0  0  0  0  0  0  0  0  0  0
    9.7109  -15.9234   23.6062 N   0  0  0  0  0  0  0  0  0  0  0  0
    9.3800  -15.1541   24.8198 C   0  0  1  0  0  0  0  0  0  0  0  0
    7.9132  -14.8650   24.7744 C   0  0  0  0  0  0  0  0  0  0  0  0
    7.4008  -14.2309   26.0306 C   0  0  0  0  0  0  0  0  0  0  0  0
    6.6479  -12.9424   25.7087 C   0  0  0  0  0  0  0  0  0  0  0  0
    6.1222  -12.3480   27.0186 C   0  0  0  0  0  0  0  0  0  0  0  0
    5.5344  -11.0627   26.7037 N   0  0  0  0  0  0  0  0  0  0  0  0
    9.6557  -16.0427   25.9712 C   0  0  0  0  0  0  0  0  0  0  0  0
    9.2320  -17.2203   26.0531 O   0  0  0  0  0  0  0  0  0  0  0  0
   10.4165  -15.5890   27.0331 O   0  0  0  0  0  0  0  0  0  0  0  0
  2  3  1  0
  2  1  1  1
  3  4  1  0
  4  8  1  0
  5  4  2  0
  6  2  1  0
  7  6  2  0
  9 10  1  0
 10 12  1  0
 10 11  2  0
 12 13  1  0
 14 13  1  1
 14 15  1  0
 15  6  1  0
 16 17  2  0
 16 14  1  0
 18 16  1  0
 19 18  1  0
 19 20  1  6
 20 21  1  0
 21 22  1  0
 23 22  1  0
 23 24  1  0
 25 19  1  0
 26 25  2  0
 27 25  1  0
M  END
$$$$
