DQK.pdb
     RDKit          3D

 27 26  0  0  1  0  0  0  0  0999 V2000
   10.7323  -17.3843   15.8395 N   0  0  0  0  0  0  0  0  0  0  0  0
   11.1538  -18.1943   16.9621 C   0  0  1  0  0  0  0  0  0  0  0  0
   12.5289  -18.7054   16.6738 C   0  0  0  0  0  0  0  0  0  0  0  0
   12.4771  -19.6111   15.5009 C   0  0  0  0  0  0  0  0  0  0  0  0
   11.4114  -19.8622   14.8707 O   0  0  0  0  0  0  0  0  0  0  0  0
   11.1842  -17.3354   18.1963 C   0  0  0  0  0  0  0  0  0  0  0  0
   12.1849  -16.6222   18.4684 O   0  0  0  0  0  0  0  0  0  0  0  0
   13.6270  -20.2288   15.0451 O   0  0  0  0  0  0  0  0  0  0  0  0
    6.9602  -13.4115   20.1486 N   0  0  0  0  0  0  0  0  0  0  0  0
    7.9331  -13.3875   19.0973 C   0  0  0  0  0  0  0  0  0  0  0  0
    7.7869  -12.4895   18.2343 O   0  0  0  0  0  0  0  0  0  0  0  0
    9.0141  -14.3898   19.1023 C   0  0  0  0  0  0  0  0  0  0  0  0
    8.9881  -15.3696   20.1978 C   0  0  0  0  0  0  0  0  0  0  0  0
   10.0118  -16.4373   20.2502 C   0  0  2  0  0  0  0  0  0  0  0  0
   10.0945  -17.2901   19.1035 N   0  0  0  0  0  0  0  0  0  0  0  0
   10.0140  -17.2036   21.5295 C   0  0  0  0  0  0  0  0  0  0  0  0
    9.1622  -18.0941   21.7811 O   0  0  0  0  0  0  0  0  0  0  0  0
   10.9876  -16.9591   22.5298 N   0  0  0  0  0  0  0  0  0  0  0  0
   10.9447  -17.7318   23.7849 C   0  0  1  0  0  0  0  0  0  0  0  0
   12.3566  -18.0670   24.1468 C   0  0  0  0  0  0  0  0  0  0  0  0
   12.4657  -18.8604   25.4123 C   0  0  0  0  0  0  0  0  0  0  0  0
   13.9269  -19.1829   25.7152 C   0  0  0  0  0  0  0  0  0  0  0  0
   13.9874  -19.9711   27.0269 C   0  0  0  0  0  0  0  0  0  0  0  0
   15.3852  -20.1966   27.3303 N   0  0  0  0  0  0  0  0  0  0  0  0
   10.3890  -16.8287   24.8178 C   0  0  0  0  0  0  0  0  0  0  0  0
   10.2847  -15.5878   24.6681 O   0  0  0  0  0  0  0  0  0  0  0  0
    9.9505  -17.3401   26.0255 O   0  0  0  0  0  0  0  0  0  0  0  0
  2  3  1  0
  2  1  1  6
  3  4  1  0
  4  8  1  0
  5  4  2  0
  6  2  1  0
  7  6  2  0
  9 10  1  0
 10 12  1  0
 10 11  2  0
 12 13  1  0
 14 13  1  6
 14 15  1  0
 15  6  1  0
 16 17  2  0
 16 14  1  0
 18 16  1  0
 19 18  1  0
 19 20  1  1
 20 21  1  0
 21 22  1  0
 23 22  1  0
 23 24  1  0
 25 19  1  0
 26 25  2  0
 27 25  1  0
M  END
$$$$
