VWE.pdb
     RDKit          3D

 31 32  0  0  1  0  0  0  0  0999 V2000
   15.8435  -26.0436   -8.9798 C   0  0  0  0  0  0  0  0  0  0  0  0
   15.0135  -25.5637   -7.8033 C   0  0  1  0  0  0  0  0  0  0  0  0
   14.2455  -26.6710   -7.1385 C   0  0  0  0  0  0  0  0  0  0  0  0
   15.8301  -24.7265   -6.8312 C   0  0  2  0  0  0  0  0  0  0  0  0
   16.8863  -25.5685   -6.2527 N   0  0  0  0  0  0  0  0  0  0  0  0
   15.0045  -24.1321   -5.7539 C   0  0  0  0  0  0  0  0  0  0  0  0
   14.9501  -24.7936   -4.6694 O   0  0  0  0  0  0  0  0  0  0  0  0
   14.3146  -22.9115   -5.8919 N   0  0  0  0  0  0  0  0  0  0  0  0
   13.4503  -22.2901   -4.9405 C   0  0  1  0  0  0  0  0  0  0  0  0
   13.2484  -20.7929   -5.1674 C   0  0  0  0  0  0  0  0  0  0  0  0
   12.5423  -20.1812   -3.9951 C   0  0  0  0  0  0  0  0  0  0  0  0
   12.7519  -20.4932   -2.6804 C   0  0  0  0  0  0  0  0  0  0  0  0
   11.9294  -19.7514   -1.8697 N   0  0  0  0  0  0  0  0  0  0  0  0
   11.2034  -18.9744   -2.6811 C   0  0  0  0  0  0  0  0  0  0  0  0
   10.2392  -18.0411   -2.3485 C   0  0  0  0  0  0  0  0  0  0  0  0
    9.6379  -17.3521   -3.3731 C   0  0  0  0  0  0  0  0  0  0  0  0
    9.9798  -17.5784   -4.6988 C   0  0  0  0  0  0  0  0  0  0  0  0
   10.9540  -18.5249   -5.0025 C   0  0  0  0  0  0  0  0  0  0  0  0
   11.5634  -19.2200   -4.0013 C   0  0  0  0  0  0  0  0  0  0  0  0
   12.1968  -23.0206   -4.7266 C   0  0  0  0  0  0  0  0  0  0  0  0
   11.5598  -23.4566   -5.7280 O   0  0  0  0  0  0  0  0  0  0  0  0
   11.6555  -23.2644   -3.4441 N   0  0  0  0  0  0  0  0  0  0  0  0
   10.4245  -23.9668   -3.1668 C   0  0  1  0  0  0  0  0  0  0  0  0
   10.4409  -24.5269   -1.7651 C   0  0  0  0  0  0  0  0  0  0  0  0
    9.2182  -25.3106   -1.4096 C   0  0  0  0  0  0  0  0  0  0  0  0
    9.2520  -26.7000   -1.9176 C   0  0  0  0  0  0  0  0  0  0  0  0
   10.3830  -27.2624   -2.0920 O   0  0  0  0  0  0  0  0  0  0  0  0
    9.2825  -22.9978   -3.2055 C   0  0  0  0  0  0  0  0  0  0  0  0
    8.2242  -23.3239   -3.7855 O   0  0  0  0  0  0  0  0  0  0  0  0
    8.1138  -27.4282   -2.2159 O   0  0  0  0  0  0  0  0  0  0  0  0
    9.3659  -21.7510   -2.6180 O   0  0  0  0  0  0  0  0  0  0  0  0
  2  1  1  6
  3  2  1  0
  4  5  1  1
  4  2  1  0
  6  8  1  0
  6  4  1  0
  7  6  2  0
  9 20  1  0
  9  8  1  0
  9 10  1  6
 11 10  1  0
 12 11  2  0
 13 14  1  0
 13 12  1  0
 14 19  2  0
 15 16  2  0
 15 14  1  0
 16 17  1  0
 17 18  2  0
 19 18  1  0
 19 11  1  0
 20 22  1  0
 21 20  2  0
 22 23  1  0
 23 28  1  0
 23 24  1  1
 25 24  1  0
 26 25  1  0
 27 26  2  0
 28 29  2  0
 28 31  1  0
 30 26  1  0
M  END
$$$$
