VWE.pdb
     RDKit          3D

 31 32  0  0  1  0  0  0  0  0999 V2000
   16.9076  -10.9684  -18.5943 C   0  0  0  0  0  0  0  0  0  0  0  0
   17.7219  -10.3260  -17.4864 C   0  0  1  0  0  0  0  0  0  0  0  0
   16.8907   -9.9484  -16.2929 C   0  0  0  0  0  0  0  0  0  0  0  0
   18.9516  -11.1471  -17.1311 C   0  0  2  0  0  0  0  0  0  0  0  0
   18.5163  -12.4495  -16.6080 N   0  0  0  0  0  0  0  0  0  0  0  0
   19.8277  -10.4694  -16.1469 C   0  0  0  0  0  0  0  0  0  0  0  0
   19.4585  -10.5453  -14.9325 O   0  0  0  0  0  0  0  0  0  0  0  0
   21.0032   -9.7795  -16.5035 N   0  0  0  0  0  0  0  0  0  0  0  0
   21.8881   -9.0669  -15.6390 C   0  0  1  0  0  0  0  0  0  0  0  0
   23.3244   -9.5874  -15.6519 C   0  0  0  0  0  0  0  0  0  0  0  0
   23.3633  -11.0138  -15.1926 C   0  0  0  0  0  0  0  0  0  0  0  0
   23.3080  -11.4404  -13.8947 C   0  0  0  0  0  0  0  0  0  0  0  0
   23.3772  -12.8098  -13.8319 N   0  0  0  0  0  0  0  0  0  0  0  0
   23.4767  -13.2394  -15.0947 C   0  0  0  0  0  0  0  0  0  0  0  0
   23.5640  -14.5380  -15.5609 C   0  0  0  0  0  0  0  0  0  0  0  0
   23.6440  -14.7240  -16.9193 C   0  0  0  0  0  0  0  0  0  0  0  0
   23.6383  -13.6521  -17.8004 C   0  0  0  0  0  0  0  0  0  0  0  0
   23.5499  -12.3560  -17.3009 C   0  0  0  0  0  0  0  0  0  0  0  0
   23.4697  -12.1485  -15.9565 C   0  0  0  0  0  0  0  0  0  0  0  0
   21.7956   -7.6103  -15.7814 C   0  0  0  0  0  0  0  0  0  0  0  0
   22.1398   -7.0755  -16.8742 O   0  0  0  0  0  0  0  0  0  0  0  0
   21.3378   -6.7619  -14.7480 N   0  0  0  0  0  0  0  0  0  0  0  0
   21.2752   -5.3202  -14.8047 C   0  0  1  0  0  0  0  0  0  0  0  0
   19.8738   -4.8412  -14.5127 C   0  0  0  0  0  0  0  0  0  0  0  0
   18.9122   -5.0540  -15.6378 C   0  0  0  0  0  0  0  0  0  0  0  0
   17.5346   -4.6225  -15.3126 C   0  0  0  0  0  0  0  0  0  0  0  0
   17.3207   -4.0400  -14.1987 O   0  0  0  0  0  0  0  0  0  0  0  0
   22.1367   -4.7446  -13.7226 C   0  0  0  0  0  0  0  0  0  0  0  0
   22.5390   -5.4882  -12.8018 O   0  0  0  0  0  0  0  0  0  0  0  0
   16.4571   -4.8181  -16.1585 O   0  0  0  0  0  0  0  0  0  0  0  0
   22.4993   -3.4123  -13.7125 O   0  0  0  0  0  0  0  0  0  0  0  0
  2  1  1  6
  3  2  1  0
  4  5  1  1
  4  2  1  0
  6  8  1  0
  6  4  1  0
  7  6  2  0
  9 20  1  0
  9  8  1  0
  9 10  1  6
 11 10  1  0
 12 11  2  0
 13 14  1  0
 13 12  1  0
 14 19  2  0
 15 16  2  0
 15 14  1  0
 16 17  1  0
 17 18  2  0
 19 18  1  0
 19 11  1  0
 20 22  1  0
 21 20  2  0
 22 23  1  0
 23 28  1  0
 23 24  1  1
 25 24  1  0
 26 25  1  0
 27 26  2  0
 28 29  2  0
 28 31  1  0
 30 26  1  0
M  END
$$$$
