VWE.pdb
     RDKit          3D

 31 32  0  0  1  0  0  0  0  0999 V2000
   28.8930  -17.9662  -15.5198 C   0  0  0  0  0  0  0  0  0  0  0  0
   27.7431  -18.7478  -14.9114 C   0  0  1  0  0  0  0  0  0  0  0  0
   26.6564  -19.0565  -15.9022 C   0  0  0  0  0  0  0  0  0  0  0  0
   28.2248  -19.9685  -14.1431 C   0  0  2  0  0  0  0  0  0  0  0  0
   28.8427  -20.9092  -15.0878 N   0  0  0  0  0  0  0  0  0  0  0  0
   27.1368  -20.6394  -13.3936 C   0  0  0  0  0  0  0  0  0  0  0  0
   26.5346  -21.5741  -14.0102 O   0  0  0  0  0  0  0  0  0  0  0  0
   26.7721  -20.2880  -12.0789 N   0  0  0  0  0  0  0  0  0  0  0  0
   25.6418  -20.7492  -11.3386 C   0  0  1  0  0  0  0  0  0  0  0  0
   25.6627  -20.3578   -9.8620 C   0  0  0  0  0  0  0  0  0  0  0  0
   26.9894  -20.6996   -9.2536 C   0  0  0  0  0  0  0  0  0  0  0  0
   27.9953  -21.3974   -9.8626 C   0  0  0  0  0  0  0  0  0  0  0  0
   29.0668  -21.5399   -9.0167 N   0  0  0  0  0  0  0  0  0  0  0  0
   28.7283  -20.9297   -7.8755 C   0  0  0  0  0  0  0  0  0  0  0  0
   29.4716  -20.7880   -6.7184 C   0  0  0  0  0  0  0  0  0  0  0  0
   28.9028  -20.0993   -5.6752 C   0  0  0  0  0  0  0  0  0  0  0  0
   27.6273  -19.5612   -5.7702 C   0  0  0  0  0  0  0  0  0  0  0  0
   26.9030  -19.7208   -6.9480 C   0  0  0  0  0  0  0  0  0  0  0  0
   27.4482  -20.4008   -7.9956 C   0  0  0  0  0  0  0  0  0  0  0  0
   24.3608  -20.4715  -11.9962 C   0  0  0  0  0  0  0  0  0  0  0  0
   24.1898  -19.3550  -12.5644 O   0  0  0  0  0  0  0  0  0  0  0  0
   23.2933  -21.3971  -12.0273 N   0  0  0  0  0  0  0  0  0  0  0  0
   22.0181  -21.1937  -12.6739 C   0  0  1  0  0  0  0  0  0  0  0  0
   21.7659  -22.2763  -13.6953 C   0  0  0  0  0  0  0  0  0  0  0  0
   20.4116  -22.2132  -14.3257 C   0  0  0  0  0  0  0  0  0  0  0  0
   20.2368  -23.1902  -15.4233 C   0  0  0  0  0  0  0  0  0  0  0  0
   21.2607  -23.8120  -15.8603 O   0  0  0  0  0  0  0  0  0  0  0  0
   20.9227  -21.3260  -11.6604 C   0  0  0  0  0  0  0  0  0  0  0  0
   19.7614  -20.9801  -11.9675 O   0  0  0  0  0  0  0  0  0  0  0  0
   19.0128  -23.4681  -16.0060 O   0  0  0  0  0  0  0  0  0  0  0  0
   21.1599  -21.8196  -10.3928 O   0  0  0  0  0  0  0  0  0  0  0  0
  2  1  1  6
  3  2  1  0
  4  5  1  6
  4  2  1  0
  6  8  1  0
  6  4  1  0
  7  6  2  0
  9 20  1  0
  9  8  1  0
  9 10  1  1
 11 10  1  0
 12 11  2  0
 13 14  1  0
 13 12  1  0
 14 19  2  0
 15 16  2  0
 15 14  1  0
 16 17  1  0
 17 18  2  0
 19 18  1  0
 19 11  1  0
 20 22  1  0
 21 20  2  0
 22 23  1  0
 23 28  1  0
 23 24  1  6
 25 24  1  0
 26 25  1  0
 27 26  2  0
 28 29  2  0
 28 31  1  0
 30 26  1  0
M  END
$$$$
