VWE.pdb
     RDKit          3D

 31 32  0  0  1  0  0  0  0  0999 V2000
   21.4139  -19.9752  -12.9060 C   0  0  0  0  0  0  0  0  0  0  0  0
   21.4860  -20.0590  -11.3924 C   0  0  1  0  0  0  0  0  0  0  0  0
   20.1406  -20.2550  -10.7525 C   0  0  0  0  0  0  0  0  0  0  0  0
   22.5295  -21.0613  -10.9244 C   0  0  2  0  0  0  0  0  0  0  0  0
   22.4194  -21.2139   -9.4671 N   0  0  0  0  0  0  0  0  0  0  0  0
   23.9091  -20.6656  -11.2928 C   0  0  0  0  0  0  0  0  0  0  0  0
   24.0088  -19.8190  -12.2362 O   0  0  0  0  0  0  0  0  0  0  0  0
   25.0568  -21.1754  -10.6543 N   0  0  0  0  0  0  0  0  0  0  0  0
   26.4209  -20.9505  -11.0106 C   0  0  1  0  0  0  0  0  0  0  0  0
   27.4212  -21.3467   -9.9260 C   0  0  0  0  0  0  0  0  0  0  0  0
   27.2926  -20.4343   -8.7436 C   0  0  0  0  0  0  0  0  0  0  0  0
   26.4112  -19.3958   -8.6238 C   0  0  0  0  0  0  0  0  0  0  0  0
   26.5696  -18.7633   -7.4160 N   0  0  0  0  0  0  0  0  0  0  0  0
   27.5536  -19.4086   -6.7800 C   0  0  0  0  0  0  0  0  0  0  0  0
   28.0796  -19.1607   -5.5257 C   0  0  0  0  0  0  0  0  0  0  0  0
   29.0881  -19.9813   -5.0834 C   0  0  0  0  0  0  0  0  0  0  0  0
   29.5687  -21.0249   -5.8613 C   0  0  0  0  0  0  0  0  0  0  0  0
   29.0195  -21.2494   -7.1204 C   0  0  0  0  0  0  0  0  0  0  0  0
   28.0180  -20.4472   -7.5791 C   0  0  0  0  0  0  0  0  0  0  0  0
   26.7692  -21.4642  -12.3393 C   0  0  0  0  0  0  0  0  0  0  0  0
   26.6665  -22.7038  -12.5664 O   0  0  0  0  0  0  0  0  0  0  0  0
   27.2209  -20.6367  -13.3921 N   0  0  0  0  0  0  0  0  0  0  0  0
   27.3157  -21.0153  -14.7824 C   0  0  1  0  0  0  0  0  0  0  0  0
   27.5505  -19.7993  -15.6455 C   0  0  0  0  0  0  0  0  0  0  0  0
   27.6997  -20.1070  -17.1011 C   0  0  0  0  0  0  0  0  0  0  0  0
   27.8506  -18.8956  -17.9374 C   0  0  0  0  0  0  0  0  0  0  0  0
   27.8553  -17.7541  -17.3691 O   0  0  0  0  0  0  0  0  0  0  0  0
   28.5159  -21.8908  -14.9761 C   0  0  0  0  0  0  0  0  0  0  0  0
   29.4313  -21.8693  -14.1252 O   0  0  0  0  0  0  0  0  0  0  0  0
   27.9883  -18.9343  -19.3137 O   0  0  0  0  0  0  0  0  0  0  0  0
   28.6409  -22.7224  -16.0714 O   0  0  0  0  0  0  0  0  0  0  0  0
  2  1  1  6
  3  2  1  0
  4  5  1  1
  4  2  1  0
  6  8  1  0
  6  4  1  0
  7  6  2  0
  9 20  1  0
  9  8  1  0
  9 10  1  1
 11 10  1  0
 12 11  2  0
 13 14  1  0
 13 12  1  0
 14 19  2  0
 15 16  2  0
 15 14  1  0
 16 17  1  0
 17 18  2  0
 19 18  1  0
 19 11  1  0
 20 22  1  0
 21 20  2  0
 22 23  1  0
 23 28  1  0
 23 24  1  6
 25 24  1  0
 26 25  1  0
 27 26  2  0
 28 29  2  0
 28 31  1  0
 30 26  1  0
M  END
$$$$
