VWE.pdb
     RDKit          3D

 31 32  0  0  1  0  0  0  0  0999 V2000
   24.9046  -20.0027   -8.2628 C   0  0  0  0  0  0  0  0  0  0  0  0
   26.2895  -20.2933   -8.8113 C   0  0  1  0  0  0  0  0  0  0  0  0
   27.2122  -20.8885   -7.7855 C   0  0  0  0  0  0  0  0  0  0  0  0
   26.2361  -21.0857  -10.1082 C   0  0  2  0  0  0  0  0  0  0  0  0
   27.5589  -21.6747  -10.3580 N   0  0  0  0  0  0  0  0  0  0  0  0
   25.8181  -20.2612  -11.2662 C   0  0  0  0  0  0  0  0  0  0  0  0
   24.6276  -19.8163  -11.2279 O   0  0  0  0  0  0  0  0  0  0  0  0
   26.6648  -19.9689  -12.3537 N   0  0  0  0  0  0  0  0  0  0  0  0
   26.3900  -19.1125  -13.4624 C   0  0  1  0  0  0  0  0  0  0  0  0
   27.6385  -18.6090  -14.1847 C   0  0  0  0  0  0  0  0  0  0  0  0
   27.2622  -17.6051  -15.2324 C   0  0  0  0  0  0  0  0  0  0  0  0
   26.7829  -16.3456  -15.0010 C   0  0  0  0  0  0  0  0  0  0  0  0
   26.5318  -15.6981  -16.1849 N   0  0  0  0  0  0  0  0  0  0  0  0
   26.8548  -16.5565  -17.1586 C   0  0  0  0  0  0  0  0  0  0  0  0
   26.7907  -16.3739  -18.5275 C   0  0  0  0  0  0  0  0  0  0  0  0
   27.1960  -17.4126  -19.3293 C   0  0  0  0  0  0  0  0  0  0  0  0
   27.6550  -18.6072  -18.7930 C   0  0  0  0  0  0  0  0  0  0  0  0
   27.7076  -18.7616  -17.4108 C   0  0  0  0  0  0  0  0  0  0  0  0
   27.3101  -17.7438  -16.5965 C   0  0  0  0  0  0  0  0  0  0  0  0
   25.3668  -19.6425  -14.3695 C   0  0  0  0  0  0  0  0  0  0  0  0
   25.4012  -20.8654  -14.6889 O   0  0  0  0  0  0  0  0  0  0  0  0
   24.3324  -18.8482  -14.9136 N   0  0  0  0  0  0  0  0  0  0  0  0
   23.2484  -19.3242  -15.7406 C   0  0  1  0  0  0  0  0  0  0  0  0
   21.9277  -19.1516  -15.0301 C   0  0  0  0  0  0  0  0  0  0  0  0
   20.7390  -19.5175  -15.8600 C   0  0  0  0  0  0  0  0  0  0  0  0
   20.4064  -20.9578  -15.7931 C   0  0  0  0  0  0  0  0  0  0  0  0
   20.4419  -21.5441  -14.6613 O   0  0  0  0  0  0  0  0  0  0  0  0
   23.1606  -18.4802  -16.9754 C   0  0  0  0  0  0  0  0  0  0  0  0
   22.4125  -18.8407  -17.9097 O   0  0  0  0  0  0  0  0  0  0  0  0
   20.0558  -21.7093  -16.9009 O   0  0  0  0  0  0  0  0  0  0  0  0
   23.8851  -17.3126  -17.1117 O   0  0  0  0  0  0  0  0  0  0  0  0
  2  1  1  1
  3  2  1  0
  4  5  1  6
  4  2  1  0
  6  8  1  0
  6  4  1  0
  7  6  2  0
  9 20  1  0
  9  8  1  0
  9 10  1  6
 11 10  1  0
 12 11  2  0
 13 14  1  0
 13 12  1  0
 14 19  2  0
 15 16  2  0
 15 14  1  0
 16 17  1  0
 17 18  2  0
 19 18  1  0
 19 11  1  0
 20 22  1  0
 21 20  2  0
 22 23  1  0
 23 28  1  0
 23 24  1  1
 25 24  1  0
 26 25  1  0
 27 26  2  0
 28 29  2  0
 28 31  1  0
 30 26  1  0
M  END
$$$$
