LDN.pdb
     RDKit          3D

 25 24  0  0  1  0  0  0  0  0999 V2000
   27.9601  -19.4446  -14.0359 C   0  0  0  0  0  0  0  0  0  0  0  0
   27.4357  -20.8369  -14.2626 C   0  0  2  0  0  0  0  0  0  0  0  0
   28.3063  -21.5147  -15.2967 C   0  0  0  0  0  0  0  0  0  0  0  0
   26.0048  -20.8960  -14.7110 C   0  0  0  0  0  0  0  0  0  0  0  0
   25.0672  -20.1955  -13.7462 C   0  0  2  0  0  0  0  0  0  0  0  0
   25.1684  -20.8088  -12.4321 N   0  0  0  0  0  0  0  0  0  0  0  0
   23.6873  -20.2612  -14.2750 C   0  0  0  0  0  0  0  0  0  0  0  0
   23.4876  -20.2205  -15.5429 O   0  0  0  0  0  0  0  0  0  0  0  0
   22.5590  -20.3696  -13.4433 N   0  0  0  0  0  0  0  0  0  0  0  0
   21.1935  -20.4705  -13.8208 C   0  0  1  0  0  0  0  0  0  0  0  0
   20.2417  -20.7690  -12.6561 C   0  0  0  0  0  0  0  0  0  0  0  0
   20.3344  -22.1834  -12.2294 C   0  0  0  0  0  0  0  0  0  0  0  0
   21.1285  -22.9426  -12.8488 O   0  0  0  0  0  0  0  0  0  0  0  0
   20.6493  -19.2117  -14.4346 C   0  0  0  0  0  0  0  0  0  0  0  0
   20.4274  -18.2929  -13.6105 O   0  0  0  0  0  0  0  0  0  0  0  0
   19.5966  -22.7258  -11.1852 O   0  0  0  0  0  0  0  0  0  0  0  0
   19.1626  -15.6138  -17.6979 N   0  0  0  0  0  0  0  0  0  0  0  0
   20.3800  -16.1721  -18.1455 C   0  0  0  0  0  0  0  0  0  0  0  0
   20.9942  -15.6247  -19.0865 O   0  0  0  0  0  0  0  0  0  0  0  0
   20.9225  -17.3838  -17.5137 C   0  0  0  0  0  0  0  0  0  0  0  0
   19.9914  -17.8724  -16.4390 C   0  0  2  0  0  0  0  0  0  0  0  0
   20.4164  -19.0790  -15.8012 N   0  0  0  0  0  0  0  0  0  0  0  0
   18.6072  -17.9424  -16.9490 C   0  0  0  0  0  0  0  0  0  0  0  0
   17.8811  -19.1637  -16.8120 O   0  0  0  0  0  0  0  0  0  0  0  0
   17.9766  -17.0391  -17.5013 O   0  0  0  0  0  0  0  0  0  0  0  0
  2  1  1  6
  2  3  1  0
  4  5  1  0
  4  2  1  0
  5  6  1  1
  5  7  1  0
  7  8  2  0
  9  7  1  0
  9 10  1  0
 10 14  1  0
 10 11  1  1
 12 11  1  0
 13 12  2  0
 14 15  2  0
 16 12  1  0
 17 18  1  0
 18 20  1  0
 19 18  2  0
 21 20  1  6
 21 23  1  0
 22 21  1  0
 22 14  1  0
 23 25  2  0
 23 24  1  0
M  END
$$$$
