LDN.pdb
     RDKit          3D

 25 24  0  0  1  0  0  0  0  0999 V2000
   19.3739  -18.2688  -15.9055 C   0  0  0  0  0  0  0  0  0  0  0  0
   19.8431  -17.8517  -17.2732 C   0  0  2  0  0  0  0  0  0  0  0  0
   20.3614  -19.0746  -17.9959 C   0  0  0  0  0  0  0  0  0  0  0  0
   20.9097  -16.7959  -17.2684 C   0  0  0  0  0  0  0  0  0  0  0  0
   20.4541  -15.5170  -16.5919 C   0  0  2  0  0  0  0  0  0  0  0  0
   19.1810  -15.0933  -17.1512 N   0  0  0  0  0  0  0  0  0  0  0  0
   21.4963  -14.4807  -16.7590 C   0  0  0  0  0  0  0  0  0  0  0  0
   22.7098  -14.8286  -16.9944 O   0  0  0  0  0  0  0  0  0  0  0  0
   21.2206  -13.1047  -16.6730 N   0  0  0  0  0  0  0  0  0  0  0  0
   22.0705  -12.0145  -16.9993 C   0  0  1  0  0  0  0  0  0  0  0  0
   22.5545  -12.0110  -18.4543 C   0  0  0  0  0  0  0  0  0  0  0  0
   23.5329  -10.9269  -18.6972 C   0  0  0  0  0  0  0  0  0  0  0  0
   24.1504  -10.4478  -17.7075 O   0  0  0  0  0  0  0  0  0  0  0  0
   21.4169  -10.6737  -16.8199 C   0  0  0  0  0  0  0  0  0  0  0  0
   20.3327  -10.5442  -17.4366 O   0  0  0  0  0  0  0  0  0  0  0  0
   23.8116  -10.4044  -19.9535 O   0  0  0  0  0  0  0  0  0  0  0  0
   19.4091   -6.6552  -13.7401 N   0  0  0  0  0  0  0  0  0  0  0  0
   20.7571   -6.6696  -14.1609 C   0  0  0  0  0  0  0  0  0  0  0  0
   21.3423   -5.5861  -14.3746 O   0  0  0  0  0  0  0  0  0  0  0  0
   21.4676   -7.9433  -14.3460 C   0  0  0  0  0  0  0  0  0  0  0  0
   21.3436   -8.4068  -15.7709 C   0  0  2  0  0  0  0  0  0  0  0  0
   21.9682   -9.6655  -16.0330 N   0  0  0  0  0  0  0  0  0  0  0  0
   21.7740   -7.3413  -16.6987 C   0  0  0  0  0  0  0  0  0  0  0  0
   20.8571   -6.2972  -17.0251 O   0  0  0  0  0  0  0  0  0  0  0  0
   22.8722   -7.2393  -17.2483 O   0  0  0  0  0  0  0  0  0  0  0  0
  2  1  1  1
  2  3  1  0
  4  5  1  0
  4  2  1  0
  5  6  1  6
  5  7  1  0
  7  8  2  0
  9  7  1  0
  9 10  1  0
 10 14  1  0
 10 11  1  6
 12 11  1  0
 13 12  2  0
 14 15  2  0
 16 12  1  0
 17 18  1  0
 18 20  1  0
 19 18  2  0
 21 20  1  1
 21 23  1  0
 22 21  1  0
 22 14  1  0
 23 25  2  0
 23 24  1  0
M  END
$$$$
