LDN.pdb
     RDKit          3D

 25 24  0  0  1  0  0  0  0  0999 V2000
   26.3534  -14.9146  -14.7092 C   0  0  0  0  0  0  0  0  0  0  0  0
   25.8875  -14.7876  -16.1346 C   0  0  2  0  0  0  0  0  0  0  0  0
   27.0197  -15.2010  -17.0477 C   0  0  0  0  0  0  0  0  0  0  0  0
   25.4265  -13.4115  -16.5168 C   0  0  0  0  0  0  0  0  0  0  0  0
   24.2714  -12.9299  -15.6597 C   0  0  2  0  0  0  0  0  0  0  0  0
   23.2246  -13.9382  -15.6365 N   0  0  0  0  0  0  0  0  0  0  0  0
   23.7768  -11.6408  -16.1900 C   0  0  0  0  0  0  0  0  0  0  0  0
   24.5951  -10.6664  -16.3637 O   0  0  0  0  0  0  0  0  0  0  0  0
   22.4282  -11.4229  -16.5225 N   0  0  0  0  0  0  0  0  0  0  0  0
   21.8341  -10.2549  -17.0702 C   0  0  1  0  0  0  0  0  0  0  0  0
   20.5152  -10.5104  -17.8095 C   0  0  0  0  0  0  0  0  0  0  0  0
   20.0484   -9.2983  -18.5197 C   0  0  0  0  0  0  0  0  0  0  0  0
   20.4313   -8.1739  -18.0958 O   0  0  0  0  0  0  0  0  0  0  0  0
   21.4887   -9.2202  -16.0371 C   0  0  0  0  0  0  0  0  0  0  0  0
   20.8358   -9.6649  -15.0632 O   0  0  0  0  0  0  0  0  0  0  0  0
   19.2112   -9.3257  -19.6275 O   0  0  0  0  0  0  0  0  0  0  0  0
   22.3158   -5.2457  -12.5903 N   0  0  0  0  0  0  0  0  0  0  0  0
   22.3750   -4.9045  -13.9593 C   0  0  0  0  0  0  0  0  0  0  0  0
   22.1132   -3.7336  -14.3094 O   0  0  0  0  0  0  0  0  0  0  0  0
   22.7407   -5.9130  -14.9647 C   0  0  0  0  0  0  0  0  0  0  0  0
   21.6077   -6.8801  -15.1686 C   0  0  2  0  0  0  0  0  0  0  0  0
   21.8660   -7.8846  -16.1523 N   0  0  0  0  0  0  0  0  0  0  0  0
   20.3440   -6.1518  -15.4014 C   0  0  0  0  0  0  0  0  0  0  0  0
   20.0574   -5.6668  -16.7129 O   0  0  0  0  0  0  0  0  0  0  0  0
   19.4715   -5.9009  -14.5681 O   0  0  0  0  0  0  0  0  0  0  0  0
  2  1  1  1
  2  3  1  0
  4  5  1  0
  4  2  1  0
  5  6  1  6
  5  7  1  0
  7  8  2  0
  9  7  1  0
  9 10  1  0
 10 14  1  0
 10 11  1  1
 12 11  1  0
 13 12  2  0
 14 15  2  0
 16 12  1  0
 17 18  1  0
 18 20  1  0
 19 18  2  0
 21 20  1  6
 21 23  1  0
 22 21  1  0
 22 14  1  0
 23 25  2  0
 23 24  1  0
M  END
$$$$
