LDN.pdb
     RDKit          3D

 25 24  0  0  1  0  0  0  0  0999 V2000
   17.8769  -13.9496  -15.6738 C   0  0  0  0  0  0  0  0  0  0  0  0
   19.0014  -14.2765  -16.6190 C   0  0  2  0  0  0  0  0  0  0  0  0
   19.3231  -15.7485  -16.4906 C   0  0  0  0  0  0  0  0  0  0  0  0
   20.2530  -13.4794  -16.3942 C   0  0  0  0  0  0  0  0  0  0  0  0
   20.0185  -11.9864  -16.5233 C   0  0  2  0  0  0  0  0  0  0  0  0
   19.3972  -11.6969  -17.8052 N   0  0  0  0  0  0  0  0  0  0  0  0
   21.3069  -11.2767  -16.3679 C   0  0  0  0  0  0  0  0  0  0  0  0
   22.3854  -11.9470  -16.1768 O   0  0  0  0  0  0  0  0  0  0  0  0
   21.4142   -9.8758  -16.4213 N   0  0  0  0  0  0  0  0  0  0  0  0
   22.5917   -9.0855  -16.5010 C   0  0  1  0  0  0  0  0  0  0  0  0
   23.4688   -9.3891  -17.7217 C   0  0  0  0  0  0  0  0  0  0  0  0
   24.7681   -8.6841  -17.6441 C   0  0  0  0  0  0  0  0  0  0  0  0
   24.9984   -7.9671  -16.6326 O   0  0  0  0  0  0  0  0  0  0  0  0
   22.3161   -7.6117  -16.5966 C   0  0  0  0  0  0  0  0  0  0  0  0
   21.8867   -7.2410  -17.7150 O   0  0  0  0  0  0  0  0  0  0  0  0
   25.7511   -8.7650  -18.6221 O   0  0  0  0  0  0  0  0  0  0  0  0
   18.5633   -3.9803  -14.7990 N   0  0  0  0  0  0  0  0  0  0  0  0
   19.7212   -4.2730  -15.5526 C   0  0  0  0  0  0  0  0  0  0  0  0
   20.2275   -3.3808  -16.2667 O   0  0  0  0  0  0  0  0  0  0  0  0
   20.3276   -5.6113  -15.4997 C   0  0  0  0  0  0  0  0  0  0  0  0
   21.8199   -5.5017  -15.3531 C   0  0  2  0  0  0  0  0  0  0  0  0
   22.5174   -6.7366  -15.5321 N   0  0  0  0  0  0  0  0  0  0  0  0
   22.1649   -4.8185  -14.0900 C   0  0  0  0  0  0  0  0  0  0  0  0
   21.7613   -3.4618  -13.9056 O   0  0  0  0  0  0  0  0  0  0  0  0
   22.7839   -5.2954  -13.1371 O   0  0  0  0  0  0  0  0  0  0  0  0
  2  1  1  1
  2  3  1  0
  4  5  1  0
  4  2  1  0
  5  6  1  6
  5  7  1  0
  7  8  2  0
  9  7  1  0
  9 10  1  0
 10 14  1  0
 10 11  1  6
 12 11  1  0
 13 12  2  0
 14 15  2  0
 16 12  1  0
 17 18  1  0
 18 20  1  0
 19 18  2  0
 21 20  1  1
 21 23  1  0
 22 21  1  0
 22 14  1  0
 23 25  2  0
 23 24  1  0
M  END
$$$$
