LDN.pdb
     RDKit          3D

 25 24  0  0  1  0  0  0  0  0999 V2000
   29.5807  -18.1953  -16.5067 C   0  0  0  0  0  0  0  0  0  0  0  0
   28.2631  -18.4929  -17.1700 C   0  0  2  0  0  0  0  0  0  0  0  0
   27.6902  -17.1980  -17.7009 C   0  0  0  0  0  0  0  0  0  0  0  0
   27.2511  -19.1466  -16.2751 C   0  0  0  0  0  0  0  0  0  0  0  0
   27.7678  -20.4341  -15.6619 C   0  0  2  0  0  0  0  0  0  0  0  0
   28.0934  -21.3822  -16.7145 N   0  0  0  0  0  0  0  0  0  0  0  0
   26.7491  -20.9745  -14.7356 C   0  0  0  0  0  0  0  0  0  0  0  0
   25.9036  -21.8455  -15.1550 O   0  0  0  0  0  0  0  0  0  0  0  0
   26.6576  -20.5765  -13.3903 N   0  0  0  0  0  0  0  0  0  0  0  0
   25.6735  -20.9354  -12.4310 C   0  0  1  0  0  0  0  0  0  0  0  0
   26.0584  -20.6034  -10.9842 C   0  0  0  0  0  0  0  0  0  0  0  0
   25.0180  -21.0502  -10.0306 C   0  0  0  0  0  0  0  0  0  0  0  0
   24.0620  -21.7439  -10.4725 O   0  0  0  0  0  0  0  0  0  0  0  0
   24.3579  -20.2396  -12.6364 C   0  0  0  0  0  0  0  0  0  0  0  0
   24.4060  -18.9955  -12.4867 O   0  0  0  0  0  0  0  0  0  0  0  0
   25.0317  -20.7496   -8.6747 O   0  0  0  0  0  0  0  0  0  0  0  0
   21.0652  -18.3045  -16.3142 N   0  0  0  0  0  0  0  0  0  0  0  0
   20.9501  -19.5238  -15.6112 C   0  0  0  0  0  0  0  0  0  0  0  0
   19.8194  -20.0308  -15.4478 O   0  0  0  0  0  0  0  0  0  0  0  0
   22.1451  -20.1925  -15.0762 C   0  0  0  0  0  0  0  0  0  0  0  0
   22.0459  -20.3194  -13.5813 C   0  0  2  0  0  0  0  0  0  0  0  0
   23.1890  -20.9201  -12.9683 N   0  0  0  0  0  0  0  0  0  0  0  0
   20.7754  -20.9702  -13.2025 C   0  0  0  0  0  0  0  0  0  0  0  0
   20.7039  -22.3959  -13.1971 O   0  0  0  0  0  0  0  0  0  0  0  0
   19.7267  -20.4106  -12.8778 O   0  0  0  0  0  0  0  0  0  0  0  0
  2  1  1  1
  2  3  1  0
  4  5  1  0
  4  2  1  0
  5  6  1  6
  5  7  1  0
  7  8  2  0
  9  7  1  0
  9 10  1  0
 10 14  1  0
 10 11  1  1
 12 11  1  0
 13 12  2  0
 14 15  2  0
 16 12  1  0
 17 18  1  0
 18 20  1  0
 19 18  2  0
 21 20  1  6
 21 23  1  0
 22 21  1  0
 22 14  1  0
 23 25  2  0
 23 24  1  0
M  END
$$$$
