LDN.pdb
     RDKit          3D

 25 24  0  0  1  0  0  0  0  0999 V2000
   16.2388  -13.5638  -15.3076 C   0  0  0  0  0  0  0  0  0  0  0  0
   17.5385  -14.1270  -15.8159 C   0  0  2  0  0  0  0  0  0  0  0  0
   17.8519  -15.3860  -15.0391 C   0  0  0  0  0  0  0  0  0  0  0  0
   18.7037  -13.1865  -15.7167 C   0  0  0  0  0  0  0  0  0  0  0  0
   18.4679  -11.8923  -16.4718 C   0  0  2  0  0  0  0  0  0  0  0  0
   18.2636  -12.1780  -17.8824 N   0  0  0  0  0  0  0  0  0  0  0  0
   19.6190  -10.9882  -16.2586 C   0  0  0  0  0  0  0  0  0  0  0  0
   19.9618  -10.6628  -15.0646 O   0  0  0  0  0  0  0  0  0  0  0  0
   20.3745  -10.4566  -17.3185 N   0  0  0  0  0  0  0  0  0  0  0  0
   21.5126   -9.6097  -17.2502 C   0  0  1  0  0  0  0  0  0  0  0  0
   22.3281   -9.5501  -18.5475 C   0  0  0  0  0  0  0  0  0  0  0  0
   23.5971   -8.8122  -18.3564 C   0  0  0  0  0  0  0  0  0  0  0  0
   24.2442   -9.0040  -17.2910 O   0  0  0  0  0  0  0  0  0  0  0  0
   21.1731   -8.1759  -16.9564 C   0  0  0  0  0  0  0  0  0  0  0  0
   20.1923   -7.7375  -17.6034 O   0  0  0  0  0  0  0  0  0  0  0  0
   24.1186   -7.9183  -19.2827 O   0  0  0  0  0  0  0  0  0  0  0  0
   22.1811   -3.3038  -13.8819 N   0  0  0  0  0  0  0  0  0  0  0  0
   21.3514   -4.4453  -13.8295 C   0  0  0  0  0  0  0  0  0  0  0  0
   20.1632   -4.3210  -13.4623 O   0  0  0  0  0  0  0  0  0  0  0  0
   21.8760   -5.7671  -14.2028 C   0  0  0  0  0  0  0  0  0  0  0  0
   21.5145   -6.0881  -15.6264 C   0  0  2  0  0  0  0  0  0  0  0  0
   21.8854   -7.4047  -16.0413 N   0  0  0  0  0  0  0  0  0  0  0  0
   22.0087   -5.0331  -16.5341 C   0  0  0  0  0  0  0  0  0  0  0  0
   21.1035   -4.0216  -16.9758 O   0  0  0  0  0  0  0  0  0  0  0  0
   23.1532   -4.9143  -16.9752 O   0  0  0  0  0  0  0  0  0  0  0  0
  2  1  1  1
  2  3  1  0
  4  5  1  0
  4  2  1  0
  5  6  1  6
  5  7  1  0
  7  8  2  0
  9  7  1  0
  9 10  1  0
 10 14  1  0
 10 11  1  6
 12 11  1  0
 13 12  2  0
 14 15  2  0
 16 12  1  0
 17 18  1  0
 18 20  1  0
 19 18  2  0
 21 20  1  1
 21 23  1  0
 22 21  1  0
 22 14  1  0
 23 25  2  0
 23 24  1  0
M  END
$$$$
