LDN.pdb
     RDKit          3D

 25 24  0  0  1  0  0  0  0  0999 V2000
   26.3767  -12.5920  -18.6883 C   0  0  0  0  0  0  0  0  0  0  0  0
   25.0293  -13.2448  -18.5362 C   0  0  2  0  0  0  0  0  0  0  0  0
   24.9085  -14.3417  -19.5701 C   0  0  0  0  0  0  0  0  0  0  0  0
   23.8658  -12.3075  -18.6772 C   0  0  0  0  0  0  0  0  0  0  0  0
   23.9188  -11.1661  -17.6796 C   0  0  2  0  0  0  0  0  0  0  0  0
   24.1043  -11.6954  -16.3386 N   0  0  0  0  0  0  0  0  0  0  0  0
   22.6770  -10.3695  -17.7857 C   0  0  0  0  0  0  0  0  0  0  0  0
   22.3575   -9.8326  -18.9076 O   0  0  0  0  0  0  0  0  0  0  0  0
   21.8088  -10.1668  -16.6985 N   0  0  0  0  0  0  0  0  0  0  0  0
   20.5934   -9.4325  -16.6675 C   0  0  1  0  0  0  0  0  0  0  0  0
   19.3530  -10.2858  -16.3764 C   0  0  0  0  0  0  0  0  0  0  0  0
   18.1086   -9.4943  -16.5040 C   0  0  0  0  0  0  0  0  0  0  0  0
   17.2890   -9.5125  -15.5457 O   0  0  0  0  0  0  0  0  0  0  0  0
   20.5681   -8.3643  -15.6113 C   0  0  0  0  0  0  0  0  0  0  0  0
   20.8835   -8.7667  -14.4663 O   0  0  0  0  0  0  0  0  0  0  0  0
   17.7889   -8.7312  -17.6197 O   0  0  0  0  0  0  0  0  0  0  0  0
   23.6597   -5.5107  -15.2174 N   0  0  0  0  0  0  0  0  0  0  0  0
   22.4839   -5.3726  -14.4475 C   0  0  0  0  0  0  0  0  0  0  0  0
   22.5224   -5.6202  -13.2230 O   0  0  0  0  0  0  0  0  0  0  0  0
   21.2266   -4.9419  -15.0761 C   0  0  0  0  0  0  0  0  0  0  0  0
   20.1711   -5.9995  -14.9082 C   0  0  2  0  0  0  0  0  0  0  0  0
   20.2271   -7.0419  -15.8846 N   0  0  0  0  0  0  0  0  0  0  0  0
   18.8347   -5.3807  -14.7963 C   0  0  0  0  0  0  0  0  0  0  0  0
   17.8762   -5.6149  -15.8278 O   0  0  0  0  0  0  0  0  0  0  0  0
   18.4294   -4.6572  -13.8848 O   0  0  0  0  0  0  0  0  0  0  0  0
  2  1  1  6
  2  3  1  0
  4  5  1  0
  4  2  1  0
  5  6  1  1
  5  7  1  0
  7  8  2  0
  9  7  1  0
  9 10  1  0
 10 14  1  0
 10 11  1  1
 12 11  1  0
 13 12  2  0
 14 15  2  0
 16 12  1  0
 17 18  1  0
 18 20  1  0
 19 18  2  0
 21 20  1  6
 21 23  1  0
 22 21  1  0
 22 14  1  0
 23 25  2  0
 23 24  1  0
M  END
$$$$
