LDN.pdb
     RDKit          3D

 25 24  0  0  1  0  0  0  0  0999 V2000
   18.9441  -15.0962  -14.9844 C   0  0  0  0  0  0  0  0  0  0  0  0
   18.1480  -13.8790  -15.3710 C   0  0  2  0  0  0  0  0  0  0  0  0
   17.0765  -14.2986  -16.3521 C   0  0  0  0  0  0  0  0  0  0  0  0
   18.9608  -12.7720  -15.9760 C   0  0  0  0  0  0  0  0  0  0  0  0
   18.2367  -11.4395  -15.9447 C   0  0  2  0  0  0  0  0  0  0  0  0
   17.0540  -11.5045  -16.7873 N   0  0  0  0  0  0  0  0  0  0  0  0
   19.1624  -10.3726  -16.3836 C   0  0  0  0  0  0  0  0  0  0  0  0
   20.2554  -10.1719  -15.7400 O   0  0  0  0  0  0  0  0  0  0  0  0
   18.9025   -9.5502  -17.4939 N   0  0  0  0  0  0  0  0  0  0  0  0
   19.6678   -8.4555  -17.9769 C   0  0  1  0  0  0  0  0  0  0  0  0
   19.9307   -8.4927  -19.4872 C   0  0  0  0  0  0  0  0  0  0  0  0
   20.7998   -9.6322  -19.8580 C   0  0  0  0  0  0  0  0  0  0  0  0
   21.8526   -9.8216  -19.1901 O   0  0  0  0  0  0  0  0  0  0  0  0
   19.0154   -7.1222  -17.7442 C   0  0  0  0  0  0  0  0  0  0  0  0
   17.7619   -7.1566  -17.7457 O   0  0  0  0  0  0  0  0  0  0  0  0
   20.5244  -10.5071  -20.9009 O   0  0  0  0  0  0  0  0  0  0  0  0
   16.6406   -2.8688  -16.2108 N   0  0  0  0  0  0  0  0  0  0  0  0
   17.8460   -3.3485  -15.6528 C   0  0  0  0  0  0  0  0  0  0  0  0
   18.5040   -2.6080  -14.8907 O   0  0  0  0  0  0  0  0  0  0  0  0
   18.3244   -4.7037  -15.9625 C   0  0  0  0  0  0  0  0  0  0  0  0
   19.1686   -4.6867  -17.2065 C   0  0  2  0  0  0  0  0  0  0  0  0
   19.7430   -5.9523  -17.5408 N   0  0  0  0  0  0  0  0  0  0  0  0
   20.1640   -3.5977  -17.1390 C   0  0  0  0  0  0  0  0  0  0  0  0
   19.7097   -2.2445  -17.1504 O   0  0  0  0  0  0  0  0  0  0  0  0
   21.3884   -3.7189  -17.0716 O   0  0  0  0  0  0  0  0  0  0  0  0
  2  1  1  6
  2  3  1  0
  4  5  1  0
  4  2  1  0
  5  6  1  6
  5  7  1  0
  7  8  2  0
  9  7  1  0
  9 10  1  0
 10 14  1  0
 10 11  1  6
 12 11  1  0
 13 12  2  0
 14 15  2  0
 16 12  1  0
 17 18  1  0
 18 20  1  0
 19 18  2  0
 21 20  1  1
 21 23  1  0
 22 21  1  0
 22 14  1  0
 23 25  2  0
 23 24  1  0
M  END
$$$$
