LDN.pdb
     RDKit          3D

 25 24  0  0  1  0  0  0  0  0999 V2000
   24.2747  -14.6777  -15.6951 C   0  0  0  0  0  0  0  0  0  0  0  0
   23.6921  -14.4555  -17.0648 C   0  0  2  0  0  0  0  0  0  0  0  0
   24.6723  -14.9741  -18.0927 C   0  0  0  0  0  0  0  0  0  0  0  0
   23.3661  -13.0241  -17.3761 C   0  0  0  0  0  0  0  0  0  0  0  0
   22.3570  -12.4371  -16.4076 C   0  0  2  0  0  0  0  0  0  0  0  0
   21.1301  -13.2157  -16.4463 N   0  0  0  0  0  0  0  0  0  0  0  0
   22.1161  -11.0199  -16.7560 C   0  0  0  0  0  0  0  0  0  0  0  0
   23.1099  -10.2169  -16.8849 O   0  0  0  0  0  0  0  0  0  0  0  0
   20.8274  -10.4957  -16.9591 N   0  0  0  0  0  0  0  0  0  0  0  0
   20.4654   -9.1912  -17.3889 C   0  0  1  0  0  0  0  0  0  0  0  0
   19.0952   -9.1147  -18.0731 C   0  0  0  0  0  0  0  0  0  0  0  0
   19.0988   -9.8215  -19.3738 C   0  0  0  0  0  0  0  0  0  0  0  0
   18.6410  -10.9958  -19.4160 O   0  0  0  0  0  0  0  0  0  0  0  0
   20.3786   -8.1958  -16.2670 C   0  0  0  0  0  0  0  0  0  0  0  0
   19.6402   -8.5537  -15.3187 O   0  0  0  0  0  0  0  0  0  0  0  0
   19.5783   -9.2670  -20.5536 O   0  0  0  0  0  0  0  0  0  0  0  0
   22.2316   -4.8890  -12.3816 N   0  0  0  0  0  0  0  0  0  0  0  0
   22.2775   -4.5249  -13.7452 C   0  0  0  0  0  0  0  0  0  0  0  0
   22.2115   -3.3165  -14.0578 O   0  0  0  0  0  0  0  0  0  0  0  0
   22.4020   -5.5532  -14.7885 C   0  0  0  0  0  0  0  0  0  0  0  0
   21.0412   -6.0263  -15.2188 C   0  0  2  0  0  0  0  0  0  0  0  0
   21.0635   -6.9832  -16.2805 N   0  0  0  0  0  0  0  0  0  0  0  0
   20.1586   -4.8746  -15.4943 C   0  0  0  0  0  0  0  0  0  0  0  0
   19.3827   -4.3279  -14.4282 O   0  0  0  0  0  0  0  0  0  0  0  0
   20.0032   -4.3048  -16.5759 O   0  0  0  0  0  0  0  0  0  0  0  0
  2  1  1  1
  2  3  1  0
  4  5  1  0
  4  2  1  0
  5  6  1  6
  5  7  1  0
  7  8  2  0
  9  7  1  0
  9 10  1  0
 10 14  1  0
 10 11  1  1
 12 11  1  0
 13 12  2  0
 14 15  2  0
 16 12  1  0
 17 18  1  0
 18 20  1  0
 19 18  2  0
 21 20  1  6
 21 23  1  0
 22 21  1  0
 22 14  1  0
 23 25  2  0
 23 24  1  0
M  END
$$$$
