LDN.pdb
     RDKit          3D

 25 24  0  0  1  0  0  0  0  0999 V2000
   17.3567  -17.2612  -15.8414 C   0  0  0  0  0  0  0  0  0  0  0  0
   17.0007  -16.0001  -16.5813 C   0  0  2  0  0  0  0  0  0  0  0  0
   16.4576  -16.3789  -17.9408 C   0  0  0  0  0  0  0  0  0  0  0  0
   18.1414  -15.0411  -16.7585 C   0  0  0  0  0  0  0  0  0  0  0  0
   17.6811  -13.5965  -16.8005 C   0  0  2  0  0  0  0  0  0  0  0  0
   16.8208  -13.3895  -17.9538 N   0  0  0  0  0  0  0  0  0  0  0  0
   18.8645  -12.7098  -16.8354 C   0  0  0  0  0  0  0  0  0  0  0  0
   19.9443  -13.0635  -16.2371 O   0  0  0  0  0  0  0  0  0  0  0  0
   18.8687  -11.4739  -17.5056 N   0  0  0  0  0  0  0  0  0  0  0  0
   19.9557  -10.5798  -17.6967 C   0  0  1  0  0  0  0  0  0  0  0  0
   19.9907   -9.9230  -19.0819 C   0  0  0  0  0  0  0  0  0  0  0  0
   21.1946   -9.0784  -19.2508 C   0  0  0  0  0  0  0  0  0  0  0  0
   21.0412   -7.8288  -19.3243 O   0  0  0  0  0  0  0  0  0  0  0  0
   19.9546   -9.4248  -16.7358 C   0  0  0  0  0  0  0  0  0  0  0  0
   18.8539   -8.8304  -16.6486 O   0  0  0  0  0  0  0  0  0  0  0  0
   22.4865   -9.5815  -19.3340 O   0  0  0  0  0  0  0  0  0  0  0  0
   20.9000   -6.2138  -12.9923 N   0  0  0  0  0  0  0  0  0  0  0  0
   21.3300   -7.5049  -12.6149 C   0  0  0  0  0  0  0  0  0  0  0  0
   21.6231   -7.7267  -11.4203 O   0  0  0  0  0  0  0  0  0  0  0  0
   21.4325   -8.5790  -13.6136 C   0  0  0  0  0  0  0  0  0  0  0  0
   21.0878   -8.0548  -14.9799 C   0  0  2  0  0  0  0  0  0  0  0  0
   21.0793   -9.0520  -16.0040 N   0  0  0  0  0  0  0  0  0  0  0  0
   21.9315   -6.8890  -15.3125 C   0  0  0  0  0  0  0  0  0  0  0  0
   22.6100   -6.8627  -16.5681 O   0  0  0  0  0  0  0  0  0  0  0  0
   22.1299   -5.8961  -14.6102 O   0  0  0  0  0  0  0  0  0  0  0  0
  2  1  1  6
  2  3  1  0
  4  5  1  0
  4  2  1  0
  5  6  1  6
  5  7  1  0
  7  8  2  0
  9  7  1  0
  9 10  1  0
 10 14  1  0
 10 11  1  6
 12 11  1  0
 13 12  2  0
 14 15  2  0
 16 12  1  0
 17 18  1  0
 18 20  1  0
 19 18  2  0
 21 20  1  1
 21 23  1  0
 22 21  1  0
 22 14  1  0
 23 25  2  0
 23 24  1  0
M  END
$$$$
