LDN.pdb
     RDKit          3D

 25 24  0  0  1  0  0  0  0  0999 V2000
   19.3918  -16.1597  -16.1390 C   0  0  0  0  0  0  0  0  0  0  0  0
   19.6200  -15.4746  -17.4594 C   0  0  2  0  0  0  0  0  0  0  0  0
   19.9093  -16.5296  -18.5033 C   0  0  0  0  0  0  0  0  0  0  0  0
   20.7359  -14.4712  -17.4534 C   0  0  0  0  0  0  0  0  0  0  0  0
   20.4863  -13.3347  -16.4804 C   0  0  2  0  0  0  0  0  0  0  0  0
   19.1297  -12.8388  -16.6435 N   0  0  0  0  0  0  0  0  0  0  0  0
   21.4881  -12.2706  -16.7083 C   0  0  0  0  0  0  0  0  0  0  0  0
   22.7074  -12.5857  -16.9595 O   0  0  0  0  0  0  0  0  0  0  0  0
   21.1671  -10.9025  -16.6645 N   0  0  0  0  0  0  0  0  0  0  0  0
   21.9967   -9.7931  -16.9783 C   0  0  1  0  0  0  0  0  0  0  0  0
   22.5288   -9.7956  -18.4164 C   0  0  0  0  0  0  0  0  0  0  0  0
   23.5015   -8.7015  -18.6361 C   0  0  0  0  0  0  0  0  0  0  0  0
   24.2328   -8.3506  -17.6705 O   0  0  0  0  0  0  0  0  0  0  0  0
   21.3003   -8.4690  -16.8401 C   0  0  0  0  0  0  0  0  0  0  0  0
   20.2805   -8.3475  -17.5598 O   0  0  0  0  0  0  0  0  0  0  0  0
   23.6567   -8.0363  -19.8454 O   0  0  0  0  0  0  0  0  0  0  0  0
   17.4895   -6.0377  -13.9184 N   0  0  0  0  0  0  0  0  0  0  0  0
   18.7764   -5.8109  -14.4537 C   0  0  0  0  0  0  0  0  0  0  0  0
   19.1770   -4.6368  -14.6057 O   0  0  0  0  0  0  0  0  0  0  0  0
   19.6386   -6.9412  -14.8286 C   0  0  0  0  0  0  0  0  0  0  0  0
   20.9218   -6.4402  -15.4312 C   0  0  2  0  0  0  0  0  0  0  0  0
   21.7489   -7.4672  -15.9830 N   0  0  0  0  0  0  0  0  0  0  0  0
   21.6362   -5.5718  -14.4737 C   0  0  0  0  0  0  0  0  0  0  0  0
   22.4810   -6.1732  -13.4928 O   0  0  0  0  0  0  0  0  0  0  0  0
   21.5903   -4.3418  -14.4152 O   0  0  0  0  0  0  0  0  0  0  0  0
  2  1  1  1
  2  3  1  0
  4  5  1  0
  4  2  1  0
  5  6  1  6
  5  7  1  0
  7  8  2  0
  9  7  1  0
  9 10  1  0
 10 14  1  0
 10 11  1  6
 12 11  1  0
 13 12  2  0
 14 15  2  0
 16 12  1  0
 17 18  1  0
 18 20  1  0
 19 18  2  0
 21 20  1  1
 21 23  1  0
 22 21  1  0
 22 14  1  0
 23 25  2  0
 23 24  1  0
M  END
$$$$
