LDN.pdb
     RDKit          3D

 25 24  0  0  1  0  0  0  0  0999 V2000
   21.2034  -14.1893  -17.3136 C   0  0  0  0  0  0  0  0  0  0  0  0
   20.3931  -13.6279  -18.4508 C   0  0  2  0  0  0  0  0  0  0  0  0
   21.1747  -13.8102  -19.7323 C   0  0  0  0  0  0  0  0  0  0  0  0
   20.0304  -12.1796  -18.2990 C   0  0  0  0  0  0  0  0  0  0  0  0
   19.3339  -11.8929  -16.9825 C   0  0  2  0  0  0  0  0  0  0  0  0
   18.0699  -12.6089  -16.9305 N   0  0  0  0  0  0  0  0  0  0  0  0
   19.1411  -10.4331  -16.8422 C   0  0  0  0  0  0  0  0  0  0  0  0
   19.0039   -9.7041  -17.8905 O   0  0  0  0  0  0  0  0  0  0  0  0
   19.0979   -9.7887  -15.5933 N   0  0  0  0  0  0  0  0  0  0  0  0
   18.8372   -8.4200  -15.3175 C   0  0  1  0  0  0  0  0  0  0  0  0
   17.8813   -8.1889  -14.1409 C   0  0  0  0  0  0  0  0  0  0  0  0
   16.5137   -8.6619  -14.4529 C   0  0  0  0  0  0  0  0  0  0  0  0
   16.0716   -8.4809  -15.6200 O   0  0  0  0  0  0  0  0  0  0  0  0
   20.0688   -7.6386  -14.9571 C   0  0  0  0  0  0  0  0  0  0  0  0
   20.8742   -8.2592  -14.2230 O   0  0  0  0  0  0  0  0  0  0  0  0
   15.6861   -9.2944  -13.5341 O   0  0  0  0  0  0  0  0  0  0  0  0
   23.1235   -2.4064  -15.9935 N   0  0  0  0  0  0  0  0  0  0  0  0
   23.0051   -3.8005  -15.8018 C   0  0  0  0  0  0  0  0  0  0  0  0
   23.9764   -4.4391  -15.3426 O   0  0  0  0  0  0  0  0  0  0  0  0
   21.7541   -4.4964  -16.1372 C   0  0  0  0  0  0  0  0  0  0  0  0
   21.4767   -5.5818  -15.1344 C   0  0  2  0  0  0  0  0  0  0  0  0
   20.2950   -6.3393  -15.4044 N   0  0  0  0  0  0  0  0  0  0  0  0
   21.5160   -5.0377  -13.7619 C   0  0  0  0  0  0  0  0  0  0  0  0
   20.2859   -4.7651  -13.0911 O   0  0  0  0  0  0  0  0  0  0  0  0
   22.5215   -4.7794  -13.0980 O   0  0  0  0  0  0  0  0  0  0  0  0
  2  1  1  1
  2  3  1  0
  4  5  1  0
  4  2  1  0
  5  6  1  6
  5  7  1  0
  7  8  2  0
  9  7  1  0
  9 10  1  0
 10 14  1  0
 10 11  1  1
 12 11  1  0
 13 12  2  0
 14 15  2  0
 16 12  1  0
 17 18  1  0
 18 20  1  0
 19 18  2  0
 21 20  1  6
 21 23  1  0
 22 21  1  0
 22 14  1  0
 23 25  2  0
 23 24  1  0
M  END
$$$$
