YFV.pdb
     RDKit          3D

 31 32  0  0  1  0  0  0  0  0999 V2000
    0.0259  -19.9177   20.8597 O   0  0  0  0  0  0  0  0  0  0  0  0
    1.3555  -19.6534   21.1930 C   0  0  0  0  0  0  0  0  0  0  0  0
    1.7041  -19.2329   22.4577 C   0  0  0  0  0  0  0  0  0  0  0  0
    3.0158  -18.9675   22.8002 C   0  0  0  0  0  0  0  0  0  0  0  0
    4.0366  -19.1116   21.8924 C   0  0  0  0  0  0  0  0  0  0  0  0
    5.4585  -18.8596   22.1821 C   0  0  0  0  0  0  0  0  0  0  0  0
    5.7495  -17.4025   21.8845 C   0  0  2  0  0  0  0  0  0  0  0  0
    5.9592  -17.1255   20.5041 N   0  0  0  0  0  0  0  0  0  0  0  0
    6.7426  -16.8416   22.8125 C   0  0  0  0  0  0  0  0  0  0  0  0
    7.9418  -16.6777   22.4117 O   0  0  0  0  0  0  0  0  0  0  0  0
    3.6793  -19.5391   20.6081 C   0  0  0  0  0  0  0  0  0  0  0  0
    2.3724  -19.8031   20.2675 C   0  0  0  0  0  0  0  0  0  0  0  0
    6.5155  -16.4468   24.1541 N   0  0  0  0  0  0  0  0  0  0  0  0
    7.5828  -15.8657   24.9698 C   0  0  1  0  0  0  0  0  0  0  0  0
    6.9078  -15.3517   26.2175 C   0  0  0  0  0  0  0  0  0  0  0  0
    6.9563  -13.8830   26.3528 C   0  0  0  0  0  0  0  0  0  0  0  0
    8.1454  -13.2001   26.4330 C   0  0  0  0  0  0  0  0  0  0  0  0
    8.1128  -11.8299   26.5625 C   0  0  0  0  0  0  0  0  0  0  0  0
    6.9189  -11.1415   26.6132 C   0  0  0  0  0  0  0  0  0  0  0  0
    5.7229  -11.7932   26.5357 C   0  0  0  0  0  0  0  0  0  0  0  0
    5.7640  -13.1797   26.4045 C   0  0  0  0  0  0  0  0  0  0  0  0
    8.6210  -16.8990   25.2860 C   0  0  0  0  0  0  0  0  0  0  0  0
    8.1969  -17.9670   25.7634 O   0  0  0  0  0  0  0  0  0  0  0  0
   12.0106  -17.2777   23.0896 C   0  0  0  0  0  0  0  0  0  0  0  0
   12.3404  -17.2293   24.5573 C   0  0  2  0  0  0  0  0  0  0  0  0
   13.3886  -18.3047   24.7980 C   0  0  0  0  0  0  0  0  0  0  0  0
   11.0636  -17.5718   25.3165 C   0  0  2  0  0  0  0  0  0  0  0  0
    9.9820  -16.6948   25.0658 N   0  0  0  0  0  0  0  0  0  0  0  0
   11.2451  -17.8030   26.7383 C   0  0  0  0  0  0  0  0  0  0  0  0
   11.3999  -19.0112   27.1386 O   0  0  0  0  0  0  0  0  0  0  0  0
   11.2771  -16.8668   27.7540 O   0  0  0  0  0  0  0  0  0  0  0  0
  2  1  1  0
  2 12  2  0
  3  2  1  0
  4  3  2  0
  4  5  1  0
  5 11  2  0
  6  5  1  0
  7  6  1  0
  7  8  1  6
  9 13  1  0
  9  7  1  0
 10  9  2  0
 11 12  1  0
 14 13  1  0
 14 15  1  1
 16 15  1  0
 17 16  2  0
 18 17  1  0
 19 20  1  0
 19 18  2  0
 20 21  2  0
 21 16  1  0
 22 14  1  0
 22 28  1  0
 23 22  2  0
 25 24  1  6
 25 27  1  0
 26 25  1  0
 27 28  1  1
 27 29  1  0
 29 31  1  0
 30 29  2  0
M  END
$$$$
