YFV.pdb
     RDKit          3D

 31 32  0  0  1  0  0  0  0  0999 V2000
    7.0372  -14.6083   15.0544 O   0  0  0  0  0  0  0  0  0  0  0  0
    7.8436  -14.6340   16.1936 C   0  0  0  0  0  0  0  0  0  0  0  0
    8.8065  -15.6045   16.3645 C   0  0  0  0  0  0  0  0  0  0  0  0
    9.6106  -15.6416   17.4872 C   0  0  0  0  0  0  0  0  0  0  0  0
    9.4869  -14.7090   18.4882 C   0  0  0  0  0  0  0  0  0  0  0  0
   10.3112  -14.6739   19.7083 C   0  0  0  0  0  0  0  0  0  0  0  0
    9.8018  -15.7439   20.6526 C   0  0  2  0  0  0  0  0  0  0  0  0
    8.6651  -16.4497   20.1668 N   0  0  0  0  0  0  0  0  0  0  0  0
    9.7143  -15.2563   22.0370 C   0  0  0  0  0  0  0  0  0  0  0  0
   10.7724  -14.8446   22.6170 O   0  0  0  0  0  0  0  0  0  0  0  0
    8.5077  -13.7242   18.3117 C   0  0  0  0  0  0  0  0  0  0  0  0
    7.7069  -13.6879   17.1932 C   0  0  0  0  0  0  0  0  0  0  0  0
    8.5458  -15.1882   22.8354 N   0  0  0  0  0  0  0  0  0  0  0  0
    8.5611  -14.5635   24.1590 C   0  0  1  0  0  0  0  0  0  0  0  0
    7.3380  -13.6813   24.2070 C   0  0  0  0  0  0  0  0  0  0  0  0
    7.1878  -12.9486   25.4792 C   0  0  0  0  0  0  0  0  0  0  0  0
    6.2398  -13.2968   26.4101 C   0  0  0  0  0  0  0  0  0  0  0  0
    6.1554  -12.5645   27.5728 C   0  0  0  0  0  0  0  0  0  0  0  0
    6.9974  -11.4991   27.8132 C   0  0  0  0  0  0  0  0  0  0  0  0
    7.9483  -11.1307   26.9070 C   0  0  0  0  0  0  0  0  0  0  0  0
    8.0279  -11.8768   25.7329 C   0  0  0  0  0  0  0  0  0  0  0  0
    8.5333  -15.6096   25.2315 C   0  0  0  0  0  0  0  0  0  0  0  0
    8.5451  -15.1880   26.4022 O   0  0  0  0  0  0  0  0  0  0  0  0
    6.5235  -19.0779   24.7465 C   0  0  0  0  0  0  0  0  0  0  0  0
    7.9137  -19.3582   25.2504 C   0  0  2  0  0  0  0  0  0  0  0  0
    7.7729  -20.4163   26.3338 C   0  0  0  0  0  0  0  0  0  0  0  0
    8.4416  -18.0632   25.8572 C   0  0  2  0  0  0  0  0  0  0  0  0
    8.4963  -16.9751   24.9545 N   0  0  0  0  0  0  0  0  0  0  0  0
    9.6799  -18.2015   26.6025 C   0  0  0  0  0  0  0  0  0  0  0  0
   10.7849  -18.1260   25.9569 O   0  0  0  0  0  0  0  0  0  0  0  0
    9.8359  -18.4083   27.9597 O   0  0  0  0  0  0  0  0  0  0  0  0
  2  1  1  0
  2 12  2  0
  3  2  1  0
  4  3  2  0
  4  5  1  0
  5 11  2  0
  6  5  1  0
  7  6  1  0
  7  8  1  6
  9 13  1  0
  9  7  1  0
 10  9  2  0
 11 12  1  0
 14 13  1  0
 14 15  1  6
 16 15  1  0
 17 16  2  0
 18 17  1  0
 19 20  1  0
 19 18  2  0
 20 21  2  0
 21 16  1  0
 22 14  1  0
 22 28  1  0
 23 22  2  0
 25 24  1  1
 25 27  1  0
 26 25  1  0
 27 28  1  6
 27 29  1  0
 29 31  1  0
 30 29  2  0
M  END
$$$$
