YFV.pdb
     RDKit          3D

 31 32  0  0  1  0  0  0  0  0999 V2000
    7.9734  -22.1808   16.6541 O   0  0  0  0  0  0  0  0  0  0  0  0
    8.3002  -21.3511   17.7281 C   0  0  0  0  0  0  0  0  0  0  0  0
    7.3222  -20.7284   18.4722 C   0  0  0  0  0  0  0  0  0  0  0  0
    7.6321  -19.9047   19.5369 C   0  0  0  0  0  0  0  0  0  0  0  0
    8.9344  -19.6679   19.9042 C   0  0  0  0  0  0  0  0  0  0  0  0
    9.3460  -18.8131   21.0309 C   0  0  0  0  0  0  0  0  0  0  0  0
    9.2477  -17.3677   20.5868 C   0  0  2  0  0  0  0  0  0  0  0  0
   10.0450  -17.0572   19.4493 N   0  0  0  0  0  0  0  0  0  0  0  0
    9.3533  -16.4378   21.7210 C   0  0  0  0  0  0  0  0  0  0  0  0
   10.4983  -15.9750   22.0381 O   0  0  0  0  0  0  0  0  0  0  0  0
    9.9260  -20.3019   19.1462 C   0  0  0  0  0  0  0  0  0  0  0  0
    9.6166  -21.1223   18.0856 C   0  0  0  0  0  0  0  0  0  0  0  0
    8.2903  -15.9775   22.5367 N   0  0  0  0  0  0  0  0  0  0  0  0
    8.5367  -15.1365   23.7090 C   0  0  1  0  0  0  0  0  0  0  0  0
    7.2561  -14.3724   23.9384 C   0  0  0  0  0  0  0  0  0  0  0  0
    7.2707  -13.5494   25.1633 C   0  0  0  0  0  0  0  0  0  0  0  0
    6.6028  -13.9298   26.3016 C   0  0  0  0  0  0  0  0  0  0  0  0
    6.6579  -13.1087   27.4054 C   0  0  0  0  0  0  0  0  0  0  0  0
    7.3641  -11.9244   27.3849 C   0  0  0  0  0  0  0  0  0  0  0  0
    8.0370  -11.5214   26.2688 C   0  0  0  0  0  0  0  0  0  0  0  0
    7.9769  -12.3577   25.1558 C   0  0  0  0  0  0  0  0  0  0  0  0
    8.8985  -15.9816   24.8924 C   0  0  0  0  0  0  0  0  0  0  0  0
    8.1535  -16.9532   25.1143 O   0  0  0  0  0  0  0  0  0  0  0  0
   12.2370  -17.4980   25.1566 C   0  0  0  0  0  0  0  0  0  0  0  0
   12.0897  -16.7811   26.4718 C   0  0  2  0  0  0  0  0  0  0  0  0
   12.6153  -17.7287   27.5390 C   0  0  0  0  0  0  0  0  0  0  0  0
   10.6005  -16.5355   26.6857 C   0  0  2  0  0  0  0  0  0  0  0  0
    9.9978  -15.7120   25.7057 N   0  0  0  0  0  0  0  0  0  0  0  0
   10.2398  -16.1186   28.0289 C   0  0  0  0  0  0  0  0  0  0  0  0
   10.1401  -14.8624   28.2649 O   0  0  0  0  0  0  0  0  0  0  0  0
    9.9780  -16.9181   29.1250 O   0  0  0  0  0  0  0  0  0  0  0  0
  2  1  1  0
  2 12  2  0
  3  2  1  0
  4  3  2  0
  4  5  1  0
  5 11  2  0
  6  5  1  0
  7  6  1  0
  7  8  1  6
  9 13  1  0
  9  7  1  0
 10  9  2  0
 11 12  1  0
 14 13  1  0
 14 15  1  1
 16 15  1  0
 17 16  2  0
 18 17  1  0
 19 20  1  0
 19 18  2  0
 20 21  2  0
 21 16  1  0
 22 14  1  0
 22 28  1  0
 23 22  2  0
 25 24  1  6
 25 27  1  0
 26 25  1  0
 27 28  1  6
 27 29  1  0
 29 31  1  0
 30 29  2  0
M  END
$$$$
