YFV.pdb
     RDKit          3D

 31 32  0  0  1  0  0  0  0  0999 V2000
    6.7435  -21.0203   16.2728 O   0  0  0  0  0  0  0  0  0  0  0  0
    7.3388  -20.4346   17.3914 C   0  0  0  0  0  0  0  0  0  0  0  0
    8.6093  -20.7875   17.7906 C   0  0  0  0  0  0  0  0  0  0  0  0
    9.2096  -20.2159   18.8957 C   0  0  0  0  0  0  0  0  0  0  0  0
    8.5652  -19.2658   19.6499 C   0  0  0  0  0  0  0  0  0  0  0  0
    9.1396  -18.6027   20.8331 C   0  0  0  0  0  0  0  0  0  0  0  0
    9.3973  -17.1514   20.4817 C   0  0  2  0  0  0  0  0  0  0  0  0
   10.4130  -16.9657   19.5019 N   0  0  0  0  0  0  0  0  0  0  0  0
    9.4969  -16.3067   21.6812 C   0  0  0  0  0  0  0  0  0  0  0  0
   10.6223  -16.1977   22.2705 O   0  0  0  0  0  0  0  0  0  0  0  0
    7.2744  -18.9092   19.2418 C   0  0  0  0  0  0  0  0  0  0  0  0
    6.6769  -19.4791   18.1410 C   0  0  0  0  0  0  0  0  0  0  0  0
    8.4473  -15.5708   22.2846 N   0  0  0  0  0  0  0  0  0  0  0  0
    8.6281  -14.8995   23.5726 C   0  0  1  0  0  0  0  0  0  0  0  0
    7.4245  -14.0049   23.7380 C   0  0  0  0  0  0  0  0  0  0  0  0
    7.4213  -13.2472   25.0044 C   0  0  0  0  0  0  0  0  0  0  0  0
    8.2271  -12.1516   25.1971 C   0  0  0  0  0  0  0  0  0  0  0  0
    8.1734  -11.4967   26.4068 C   0  0  0  0  0  0  0  0  0  0  0  0
    7.3338  -11.9196   27.4158 C   0  0  0  0  0  0  0  0  0  0  0  0
    6.5225  -13.0041   27.2527 C   0  0  0  0  0  0  0  0  0  0  0  0
    6.5821  -13.6616   26.0256 C   0  0  0  0  0  0  0  0  0  0  0  0
    8.7273  -15.9065   24.6779 C   0  0  0  0  0  0  0  0  0  0  0  0
    8.0995  -16.9668   24.5049 O   0  0  0  0  0  0  0  0  0  0  0  0
   11.1010  -17.8670   24.7341 C   0  0  0  0  0  0  0  0  0  0  0  0
   11.4815  -17.1174   25.9825 C   0  0  2  0  0  0  0  0  0  0  0  0
   12.1560  -18.1254   26.9003 C   0  0  0  0  0  0  0  0  0  0  0  0
   10.1891  -16.6206   26.6203 C   0  0  2  0  0  0  0  0  0  0  0  0
    9.4719  -15.6871   25.8354 N   0  0  0  0  0  0  0  0  0  0  0  0
   10.3225  -16.1721   27.9947 C   0  0  0  0  0  0  0  0  0  0  0  0
   10.6458  -14.9489   28.2020 O   0  0  0  0  0  0  0  0  0  0  0  0
   10.1403  -16.9080   29.1499 O   0  0  0  0  0  0  0  0  0  0  0  0
  2  1  1  0
  2 12  2  0
  3  2  1  0
  4  3  2  0
  4  5  1  0
  5 11  2  0
  6  5  1  0
  7  6  1  0
  7  8  1  1
  9 13  1  0
  9  7  1  0
 10  9  2  0
 11 12  1  0
 14 13  1  0
 14 15  1  1
 16 15  1  0
 17 16  2  0
 18 17  1  0
 19 20  1  0
 19 18  2  0
 20 21  2  0
 21 16  1  0
 22 14  1  0
 22 28  1  0
 23 22  2  0
 25 24  1  6
 25 27  1  0
 26 25  1  0
 27 28  1  6
 27 29  1  0
 29 31  1  0
 30 29  2  0
M  END
$$$$
