YFV.pdb
     RDKit          3D

 31 32  0  0  1  0  0  0  0  0999 V2000
   11.4420  -23.1845   18.2296 O   0  0  0  0  0  0  0  0  0  0  0  0
   11.4385  -22.1155   19.1273 C   0  0  0  0  0  0  0  0  0  0  0  0
   10.3355  -21.8411   19.9059 C   0  0  0  0  0  0  0  0  0  0  0  0
   10.3189  -20.7862   20.7976 C   0  0  0  0  0  0  0  0  0  0  0  0
   11.4053  -19.9595   20.9498 C   0  0  0  0  0  0  0  0  0  0  0  0
   11.4700  -18.8229   21.8845 C   0  0  0  0  0  0  0  0  0  0  0  0
   10.8616  -17.6151   21.2011 C   0  0  2  0  0  0  0  0  0  0  0  0
   11.5915  -17.1656   20.0646 N   0  0  0  0  0  0  0  0  0  0  0  0
   10.4709  -16.5779   22.1674 C   0  0  0  0  0  0  0  0  0  0  0  0
   11.3146  -15.6756   22.4829 O   0  0  0  0  0  0  0  0  0  0  0  0
   12.5246  -20.2408   20.1574 C   0  0  0  0  0  0  0  0  0  0  0  0
   12.5404  -21.2917   19.2692 C   0  0  0  0  0  0  0  0  0  0  0  0
    9.2172  -16.4586   22.8165 N   0  0  0  0  0  0  0  0  0  0  0  0
    8.9586  -15.3944   23.7875 C   0  0  1  0  0  0  0  0  0  0  0  0
    7.4893  -15.0755   23.6604 C   0  0  0  0  0  0  0  0  0  0  0  0
    7.0366  -14.0049   24.5697 C   0  0  0  0  0  0  0  0  0  0  0  0
    7.4525  -12.7040   24.4236 C   0  0  0  0  0  0  0  0  0  0  0  0
    6.9915  -11.7594   25.3127 C   0  0  0  0  0  0  0  0  0  0  0  0
    6.1300  -12.0958   26.3355 C   0  0  0  0  0  0  0  0  0  0  0  0
    5.7001  -13.3795   26.5048 C   0  0  0  0  0  0  0  0  0  0  0  0
    6.1706  -14.3298   25.6009 C   0  0  0  0  0  0  0  0  0  0  0  0
    9.3098  -15.8516   25.1706 C   0  0  0  0  0  0  0  0  0  0  0  0
    9.2216  -17.0755   25.3770 O   0  0  0  0  0  0  0  0  0  0  0  0
   10.8340  -12.9583   27.8683 C   0  0  0  0  0  0  0  0  0  0  0  0
   10.0692  -14.1098   28.4636 C   0  0  2  0  0  0  0  0  0  0  0  0
   10.7743  -14.4683   29.7627 C   0  0  0  0  0  0  0  0  0  0  0  0
   10.1701  -15.2720   27.4822 C   0  0  2  0  0  0  0  0  0  0  0  0
    9.7126  -14.9752   26.1767 N   0  0  0  0  0  0  0  0  0  0  0  0
    9.6238  -16.5267   27.9673 C   0  0  0  0  0  0  0  0  0  0  0  0
    8.3689  -16.7387   27.8126 O   0  0  0  0  0  0  0  0  0  0  0  0
   10.2948  -17.5601   28.5926 O   0  0  0  0  0  0  0  0  0  0  0  0
  2  1  1  0
  2 12  2  0
  3  2  1  0
  4  3  2  0
  4  5  1  0
  5 11  2  0
  6  5  1  0
  7  6  1  0
  7  8  1  6
  9 13  1  0
  9  7  1  0
 10  9  2  0
 11 12  1  0
 14 13  1  0
 14 15  1  1
 16 15  1  0
 17 16  2  0
 18 17  1  0
 19 20  1  0
 19 18  2  0
 20 21  2  0
 21 16  1  0
 22 14  1  0
 22 28  1  0
 23 22  2  0
 25 24  1  6
 25 27  1  0
 26 25  1  0
 27 28  1  6
 27 29  1  0
 29 31  1  0
 30 29  2  0
M  END
$$$$
