YFV.pdb
     RDKit          3D

 31 32  0  0  1  0  0  0  0  0999 V2000
    7.1093  -19.4522   14.7270 O   0  0  0  0  0  0  0  0  0  0  0  0
    7.3716  -19.0175   16.0273 C   0  0  0  0  0  0  0  0  0  0  0  0
    6.4211  -18.3391   16.7584 C   0  0  0  0  0  0  0  0  0  0  0  0
    6.6681  -17.9031   18.0457 C   0  0  0  0  0  0  0  0  0  0  0  0
    7.8769  -18.1270   18.6584 C   0  0  0  0  0  0  0  0  0  0  0  0
    8.2137  -17.7046   20.0287 C   0  0  0  0  0  0  0  0  0  0  0  0
    8.8062  -16.3116   19.9606 C   0  0  2  0  0  0  0  0  0  0  0  0
    9.9074  -16.1952   19.0661 N   0  0  0  0  0  0  0  0  0  0  0  0
    8.9987  -15.7321   21.2982 C   0  0  0  0  0  0  0  0  0  0  0  0
   10.1767  -15.6663   21.7813 O   0  0  0  0  0  0  0  0  0  0  0  0
    8.8407  -18.8166   17.9132 C   0  0  0  0  0  0  0  0  0  0  0  0
    8.5941  -19.2505   16.6308 C   0  0  0  0  0  0  0  0  0  0  0  0
    7.9885  -15.2185   22.1486 N   0  0  0  0  0  0  0  0  0  0  0  0
    8.3096  -14.6522   23.4596 C   0  0  1  0  0  0  0  0  0  0  0  0
    7.2590  -13.6003   23.7170 C   0  0  0  0  0  0  0  0  0  0  0  0
    7.3212  -13.0231   25.0738 C   0  0  0  0  0  0  0  0  0  0  0  0
    8.2596  -12.0816   25.4200 C   0  0  0  0  0  0  0  0  0  0  0  0
    8.2597  -11.5910   26.7063 C   0  0  0  0  0  0  0  0  0  0  0  0
    7.3438  -12.0260   27.6410 C   0  0  0  0  0  0  0  0  0  0  0  0
    6.4006  -12.9597   27.3255 C   0  0  0  0  0  0  0  0  0  0  0  0
    6.4065  -13.4514   26.0218 C   0  0  0  0  0  0  0  0  0  0  0  0
    8.2937  -15.7213   24.5094 C   0  0  0  0  0  0  0  0  0  0  0  0
    7.3851  -16.5658   24.4111 O   0  0  0  0  0  0  0  0  0  0  0  0
   11.8874  -17.2628   25.3618 C   0  0  0  0  0  0  0  0  0  0  0  0
   10.5250  -17.8870   25.5009 C   0  0  2  0  0  0  0  0  0  0  0  0
    9.9788  -18.0453   24.0903 C   0  0  0  0  0  0  0  0  0  0  0  0
    9.6591  -16.9068   26.2841 C   0  0  2  0  0  0  0  0  0  0  0  0
    9.2302  -15.7826   25.5397 N   0  0  0  0  0  0  0  0  0  0  0  0
   10.1965  -16.5186   27.5758 C   0  0  0  0  0  0  0  0  0  0  0  0
   10.4719  -17.4450   28.4183 O   0  0  0  0  0  0  0  0  0  0  0  0
   10.4629  -15.2435   28.0367 O   0  0  0  0  0  0  0  0  0  0  0  0
  2  1  1  0
  2 12  2  0
  3  2  1  0
  4  3  2  0
  4  5  1  0
  5 11  2  0
  6  5  1  0
  7  6  1  0
  7  8  1  1
  9 13  1  0
  9  7  1  0
 10  9  2  0
 11 12  1  0
 14 13  1  0
 14 15  1  1
 16 15  1  0
 17 16  2  0
 18 17  1  0
 19 20  1  0
 19 18  2  0
 20 21  2  0
 21 16  1  0
 22 14  1  0
 22 28  1  0
 23 22  2  0
 25 24  1  6
 25 27  1  0
 26 25  1  0
 27 28  1  6
 27 29  1  0
 29 31  1  0
 30 29  2  0
M  END
$$$$
