YFV.pdb
     RDKit          3D

 31 32  0  0  1  0  0  0  0  0999 V2000
    6.0597  -24.3084   29.4826 O   0  0  0  0  0  0  0  0  0  0  0  0
    6.4413  -23.3979   28.4957 C   0  0  0  0  0  0  0  0  0  0  0  0
    6.0056  -22.0912   28.5233 C   0  0  0  0  0  0  0  0  0  0  0  0
    6.3754  -21.1805   27.5527 C   0  0  0  0  0  0  0  0  0  0  0  0
    7.1979  -21.5370   26.5118 C   0  0  0  0  0  0  0  0  0  0  0  0
    7.6454  -20.6243   25.4459 C   0  0  0  0  0  0  0  0  0  0  0  0
    6.4219  -20.1429   24.6927 C   0  0  2  0  0  0  0  0  0  0  0  0
    5.9861  -21.0321   23.6701 N   0  0  0  0  0  0  0  0  0  0  0  0
    6.5356  -18.7276   24.3105 C   0  0  0  0  0  0  0  0  0  0  0  0
    6.9689  -18.4325   23.1482 O   0  0  0  0  0  0  0  0  0  0  0  0
    7.6390  -22.8653   26.4864 C   0  0  0  0  0  0  0  0  0  0  0  0
    7.2701  -23.7721   27.4535 C   0  0  0  0  0  0  0  0  0  0  0  0
    6.2083  -17.6076   25.1141 N   0  0  0  0  0  0  0  0  0  0  0  0
    6.8272  -16.3003   24.8899 C   0  0  1  0  0  0  0  0  0  0  0  0
    6.2217  -15.3808   25.9216 C   0  0  0  0  0  0  0  0  0  0  0  0
    6.7488  -14.0035   25.8672 C   0  0  0  0  0  0  0  0  0  0  0  0
    6.6646  -13.2383   24.7296 C   0  0  0  0  0  0  0  0  0  0  0  0
    7.1822  -11.9628   24.7516 C   0  0  0  0  0  0  0  0  0  0  0  0
    7.7775  -11.4488   25.8844 C   0  0  0  0  0  0  0  0  0  0  0  0
    7.8750  -12.1856   27.0284 C   0  0  0  0  0  0  0  0  0  0  0  0
    7.3486  -13.4753   26.9986 C   0  0  0  0  0  0  0  0  0  0  0  0
    8.3156  -16.3943   25.0353 C   0  0  0  0  0  0  0  0  0  0  0  0
    8.7259  -17.0208   26.0291 O   0  0  0  0  0  0  0  0  0  0  0  0
   10.4263  -16.2808   21.5141 C   0  0  0  0  0  0  0  0  0  0  0  0
   11.1487  -15.5663   22.6244 C   0  0  2  0  0  0  0  0  0  0  0  0
   12.6137  -15.9575   22.5055 C   0  0  0  0  0  0  0  0  0  0  0  0
   10.5791  -16.0864   23.9393 C   0  0  2  0  0  0  0  0  0  0  0  0
    9.2015  -15.8223   24.1240 N   0  0  0  0  0  0  0  0  0  0  0  0
   11.3526  -15.7374   25.1174 C   0  0  0  0  0  0  0  0  0  0  0  0
   11.0441  -14.6632   25.7457 O   0  0  0  0  0  0  0  0  0  0  0  0
   12.4108  -16.4293   25.6746 O   0  0  0  0  0  0  0  0  0  0  0  0
  2  1  1  0
  2 12  2  0
  3  2  1  0
  4  3  2  0
  4  5  1  0
  5 11  2  0
  6  5  1  0
  7  6  1  0
  7  8  1  6
  9 13  1  0
  9  7  1  0
 10  9  2  0
 11 12  1  0
 14 13  1  0
 14 15  1  1
 16 15  1  0
 17 16  2  0
 18 17  1  0
 19 20  1  0
 19 18  2  0
 20 21  2  0
 21 16  1  0
 22 14  1  0
 22 28  1  0
 23 22  2  0
 25 24  1  6
 25 27  1  0
 26 25  1  0
 27 28  1  1
 27 29  1  0
 29 31  1  0
 30 29  2  0
M  END
$$$$
