YFV.pdb
     RDKit          3D

 31 32  0  0  1  0  0  0  0  0999 V2000
    3.6213  -23.9609   20.2935 O   0  0  0  0  0  0  0  0  0  0  0  0
    4.5085  -23.0030   20.7875 C   0  0  0  0  0  0  0  0  0  0  0  0
    4.2256  -22.2919   21.9331 C   0  0  0  0  0  0  0  0  0  0  0  0
    5.0945  -21.3410   22.4322 C   0  0  0  0  0  0  0  0  0  0  0  0
    6.2850  -21.0600   21.8072 C   0  0  0  0  0  0  0  0  0  0  0  0
    7.2680  -20.0706   22.2809 C   0  0  0  0  0  0  0  0  0  0  0  0
    6.9104  -18.7259   21.6808 C   0  0  2  0  0  0  0  0  0  0  0  0
    7.0965  -18.6543   20.2714 N   0  0  0  0  0  0  0  0  0  0  0  0
    7.4681  -17.6118   22.4618 C   0  0  0  0  0  0  0  0  0  0  0  0
    8.5986  -17.1259   22.1279 O   0  0  0  0  0  0  0  0  0  0  0  0
    6.5697  -21.7841   20.6434 C   0  0  0  0  0  0  0  0  0  0  0  0
    5.7036  -22.7311   20.1467 C   0  0  0  0  0  0  0  0  0  0  0  0
    6.8740  -16.9900   23.5877 N   0  0  0  0  0  0  0  0  0  0  0  0
    7.5452  -15.9029   24.3019 C   0  0  1  0  0  0  0  0  0  0  0  0
    6.4428  -15.0894   24.9341 C   0  0  0  0  0  0  0  0  0  0  0  0
    6.9347  -13.9929   25.7905 C   0  0  0  0  0  0  0  0  0  0  0  0
    6.8608  -14.0528   27.1608 C   0  0  0  0  0  0  0  0  0  0  0  0
    7.3360  -12.9897   27.8951 C   0  0  0  0  0  0  0  0  0  0  0  0
    7.8775  -11.8790   27.2828 C   0  0  0  0  0  0  0  0  0  0  0  0
    7.9640  -11.7919   25.9242 C   0  0  0  0  0  0  0  0  0  0  0  0
    7.4813  -12.8718   25.1878 C   0  0  0  0  0  0  0  0  0  0  0  0
    8.4868  -16.4545   25.3288 C   0  0  0  0  0  0  0  0  0  0  0  0
    7.9862  -17.2280   26.1652 O   0  0  0  0  0  0  0  0  0  0  0  0
   12.6975  -15.2658   25.4131 C   0  0  0  0  0  0  0  0  0  0  0  0
   12.2456  -16.7007   25.4554 C   0  0  2  0  0  0  0  0  0  0  0  0
   12.1188  -17.1542   24.0091 C   0  0  0  0  0  0  0  0  0  0  0  0
   10.8768  -16.7216   26.1262 C   0  0  2  0  0  0  0  0  0  0  0  0
    9.8425  -16.1330   25.3610 N   0  0  0  0  0  0  0  0  0  0  0  0
   10.8644  -16.2447   27.4974 C   0  0  0  0  0  0  0  0  0  0  0  0
   10.3780  -15.0811   27.7276 O   0  0  0  0  0  0  0  0  0  0  0  0
   11.3188  -16.8967   28.6278 O   0  0  0  0  0  0  0  0  0  0  0  0
  2  1  1  0
  2 12  2  0
  3  2  1  0
  4  3  2  0
  4  5  1  0
  5 11  2  0
  6  5  1  0
  7  6  1  0
  7  8  1  6
  9 13  1  0
  9  7  1  0
 10  9  2  0
 11 12  1  0
 14 13  1  0
 14 15  1  1
 16 15  1  0
 17 16  2  0
 18 17  1  0
 19 20  1  0
 19 18  2  0
 20 21  2  0
 21 16  1  0
 22 14  1  0
 22 28  1  0
 23 22  2  0
 25 24  1  6
 25 27  1  0
 26 25  1  0
 27 28  1  6
 27 29  1  0
 29 31  1  0
 30 29  2  0
M  END
$$$$
