YFV.pdb
     RDKit          3D

 31 32  0  0  1  0  0  0  0  0999 V2000
    7.8441  -22.4004   17.5552 O   0  0  0  0  0  0  0  0  0  0  0  0
    8.2910  -21.4911   18.5155 C   0  0  0  0  0  0  0  0  0  0  0  0
    8.5777  -20.1852   18.1829 C   0  0  0  0  0  0  0  0  0  0  0  0
    9.0211  -19.2757   19.1232 C   0  0  0  0  0  0  0  0  0  0  0  0
    9.1969  -19.6325   20.4380 C   0  0  0  0  0  0  0  0  0  0  0  0
    9.6548  -18.7210   21.5005 C   0  0  0  0  0  0  0  0  0  0  0  0
    9.6419  -17.3097   20.9491 C   0  0  2  0  0  0  0  0  0  0  0  0
   10.5829  -17.0891   19.9040 N   0  0  0  0  0  0  0  0  0  0  0  0
    9.6214  -16.3030   22.0207 C   0  0  0  0  0  0  0  0  0  0  0  0
   10.7211  -15.7857   22.4060 O   0  0  0  0  0  0  0  0  0  0  0  0
    8.9048  -20.9601   20.7730 C   0  0  0  0  0  0  0  0  0  0  0  0
    8.4633  -21.8657   19.8357 C   0  0  0  0  0  0  0  0  0  0  0  0
    8.4776  -15.8213   22.7041 N   0  0  0  0  0  0  0  0  0  0  0  0
    8.5977  -14.9348   23.8626 C   0  0  1  0  0  0  0  0  0  0  0  0
    7.2890  -14.1880   23.9412 C   0  0  0  0  0  0  0  0  0  0  0  0
    7.1870  -13.2970   25.1132 C   0  0  0  0  0  0  0  0  0  0  0  0
    6.2997  -13.5381   26.1336 C   0  0  0  0  0  0  0  0  0  0  0  0
    6.2574  -12.6606   27.1935 C   0  0  0  0  0  0  0  0  0  0  0  0
    7.0818  -11.5562   27.2447 C   0  0  0  0  0  0  0  0  0  0  0  0
    7.9727  -11.2917   26.2460 C   0  0  0  0  0  0  0  0  0  0  0  0
    8.0099  -12.1845   25.1769 C   0  0  0  0  0  0  0  0  0  0  0  0
    8.8583  -15.7305   25.1053 C   0  0  0  0  0  0  0  0  0  0  0  0
    8.0221  -16.6130   25.3707 O   0  0  0  0  0  0  0  0  0  0  0  0
   12.6257  -15.2580   27.2305 C   0  0  0  0  0  0  0  0  0  0  0  0
   11.9167  -16.5670   27.0092 C   0  0  2  0  0  0  0  0  0  0  0  0
   12.3343  -17.0542   25.6302 C   0  0  0  0  0  0  0  0  0  0  0  0
   10.4203  -16.2762   27.0241 C   0  0  2  0  0  0  0  0  0  0  0  0
    9.9633  -15.5105   25.9256 N   0  0  0  0  0  0  0  0  0  0  0  0
    9.9139  -15.7595   28.2828 C   0  0  0  0  0  0  0  0  0  0  0  0
    9.5274  -14.5377   28.3222 O   0  0  0  0  0  0  0  0  0  0  0  0
    9.7849  -16.4279   29.4852 O   0  0  0  0  0  0  0  0  0  0  0  0
  2  1  1  0
  2 12  2  0
  3  2  1  0
  4  3  2  0
  4  5  1  0
  5 11  2  0
  6  5  1  0
  7  6  1  0
  7  8  1  1
  9 13  1  0
  9  7  1  0
 10  9  2  0
 11 12  1  0
 14 13  1  0
 14 15  1  1
 16 15  1  0
 17 16  2  0
 18 17  1  0
 19 20  1  0
 19 18  2  0
 20 21  2  0
 21 16  1  0
 22 14  1  0
 22 28  1  0
 23 22  2  0
 25 24  1  6
 25 27  1  0
 26 25  1  0
 27 28  1  6
 27 29  1  0
 29 31  1  0
 30 29  2  0
M  END
$$$$
