YFV.pdb
     RDKit          3D

 31 32  0  0  1  0  0  0  0  0999 V2000
    7.6824  -22.0345   17.1342 O   0  0  0  0  0  0  0  0  0  0  0  0
    8.1733  -21.2368   18.1693 C   0  0  0  0  0  0  0  0  0  0  0  0
    9.5271  -21.0588   18.3526 C   0  0  0  0  0  0  0  0  0  0  0  0
   10.0258  -20.2727   19.3732 C   0  0  0  0  0  0  0  0  0  0  0  0
    9.1918  -19.6296   20.2551 C   0  0  0  0  0  0  0  0  0  0  0  0
    9.6439  -18.7672   21.3603 C   0  0  0  0  0  0  0  0  0  0  0  0
    9.6939  -17.3397   20.8545 C   0  0  2  0  0  0  0  0  0  0  0  0
   10.6466  -17.1268   19.8185 N   0  0  0  0  0  0  0  0  0  0  0  0
    9.7140  -16.3680   21.9579 C   0  0  0  0  0  0  0  0  0  0  0  0
   10.8366  -15.9716   22.4141 O   0  0  0  0  0  0  0  0  0  0  0  0
    7.8167  -19.8123   20.0663 C   0  0  0  0  0  0  0  0  0  0  0  0
    7.3206  -20.5957   19.0496 C   0  0  0  0  0  0  0  0  0  0  0  0
    8.5875  -15.7979   22.6009 N   0  0  0  0  0  0  0  0  0  0  0  0
    8.7310  -14.9656   23.7963 C   0  0  1  0  0  0  0  0  0  0  0  0
    7.4367  -14.1997   23.9170 C   0  0  0  0  0  0  0  0  0  0  0  0
    7.3583  -13.3593   25.1275 C   0  0  0  0  0  0  0  0  0  0  0  0
    8.0683  -12.1895   25.2465 C   0  0  0  0  0  0  0  0  0  0  0  0
    7.9487  -11.4593   26.4074 C   0  0  0  0  0  0  0  0  0  0  0  0
    7.1376  -11.8803   27.4402 C   0  0  0  0  0  0  0  0  0  0  0  0
    6.4208  -13.0375   27.3500 C   0  0  0  0  0  0  0  0  0  0  0  0
    6.5467  -13.7708   26.1719 C   0  0  0  0  0  0  0  0  0  0  0  0
    8.9850  -15.8197   25.0010 C   0  0  0  0  0  0  0  0  0  0  0  0
    8.1934  -16.7640   25.1743 O   0  0  0  0  0  0  0  0  0  0  0  0
   12.0083  -17.7147   25.4904 C   0  0  0  0  0  0  0  0  0  0  0  0
   11.9670  -16.8733   26.7377 C   0  0  2  0  0  0  0  0  0  0  0  0
   12.3699  -17.7863   27.8855 C   0  0  0  0  0  0  0  0  0  0  0  0
   10.5251  -16.4144   26.9230 C   0  0  2  0  0  0  0  0  0  0  0  0
   10.0377  -15.5867   25.8842 N   0  0  0  0  0  0  0  0  0  0  0  0
   10.2266  -15.8608   28.2316 C   0  0  0  0  0  0  0  0  0  0  0  0
   10.2513  -14.5862   28.3679 O   0  0  0  0  0  0  0  0  0  0  0  0
    9.9065  -16.5430   29.3897 O   0  0  0  0  0  0  0  0  0  0  0  0
  2  1  1  0
  2 12  2  0
  3  2  1  0
  4  3  2  0
  4  5  1  0
  5 11  2  0
  6  5  1  0
  7  6  1  0
  7  8  1  1
  9 13  1  0
  9  7  1  0
 10  9  2  0
 11 12  1  0
 14 13  1  0
 14 15  1  1
 16 15  1  0
 17 16  2  0
 18 17  1  0
 19 20  1  0
 19 18  2  0
 20 21  2  0
 21 16  1  0
 22 14  1  0
 22 28  1  0
 23 22  2  0
 25 24  1  6
 25 27  1  0
 26 25  1  0
 27 28  1  6
 27 29  1  0
 29 31  1  0
 30 29  2  0
M  END
$$$$
