YFV.pdb
     RDKit          3D

 31 32  0  0  1  0  0  0  0  0999 V2000
    0.9526  -21.0836   18.9307 O   0  0  0  0  0  0  0  0  0  0  0  0
    1.7542  -20.1085   19.5267 C   0  0  0  0  0  0  0  0  0  0  0  0
    1.3734  -19.4891   20.6969 C   0  0  0  0  0  0  0  0  0  0  0  0
    2.1571  -18.5224   21.2966 C   0  0  0  0  0  0  0  0  0  0  0  0
    3.3566  -18.1332   20.7521 C   0  0  0  0  0  0  0  0  0  0  0  0
    4.2528  -17.1199   21.3347 C   0  0  0  0  0  0  0  0  0  0  0  0
    5.2896  -17.8355   22.1769 C   0  0  2  0  0  0  0  0  0  0  0  0
    4.7516  -18.8539   23.0133 N   0  0  0  0  0  0  0  0  0  0  0  0
    6.2157  -16.8936   22.8228 C   0  0  0  0  0  0  0  0  0  0  0  0
    6.9890  -16.1878   22.0953 O   0  0  0  0  0  0  0  0  0  0  0  0
    3.7410  -18.7645   19.5631 C   0  0  0  0  0  0  0  0  0  0  0  0
    2.9598  -19.7272   18.9661 C   0  0  0  0  0  0  0  0  0  0  0  0
    6.3568  -16.6695   24.2147 N   0  0  0  0  0  0  0  0  0  0  0  0
    7.6070  -16.1640   24.7835 C   0  0  1  0  0  0  0  0  0  0  0  0
    7.2863  -15.7990   26.2119 C   0  0  0  0  0  0  0  0  0  0  0  0
    7.3607  -14.3502   26.4824 C   0  0  0  0  0  0  0  0  0  0  0  0
    8.4696  -13.7740   27.0523 C   0  0  0  0  0  0  0  0  0  0  0  0
    8.4657  -12.4160   27.2790 C   0  0  0  0  0  0  0  0  0  0  0  0
    7.3781  -11.6357   26.9474 C   0  0  0  0  0  0  0  0  0  0  0  0
    6.2635  -12.1805   26.3801 C   0  0  0  0  0  0  0  0  0  0  0  0
    6.2749  -13.5553   26.1535 C   0  0  0  0  0  0  0  0  0  0  0  0
    8.6779  -17.2092   24.7047 C   0  0  0  0  0  0  0  0  0  0  0  0
    8.3875  -18.2375   24.0670 O   0  0  0  0  0  0  0  0  0  0  0  0
   10.3770  -16.7057   22.4412 C   0  0  0  0  0  0  0  0  0  0  0  0
   11.3469  -16.1941   23.4720 C   0  0  2  0  0  0  0  0  0  0  0  0
   12.7355  -16.3536   22.8722 C   0  0  0  0  0  0  0  0  0  0  0  0
   11.2086  -17.0854   24.7010 C   0  0  2  0  0  0  0  0  0  0  0  0
    9.9279  -17.0568   25.3019 N   0  0  0  0  0  0  0  0  0  0  0  0
   12.2641  -16.9312   25.6859 C   0  0  0  0  0  0  0  0  0  0  0  0
   12.1877  -15.9470   26.5038 O   0  0  0  0  0  0  0  0  0  0  0  0
   13.3773  -17.7288   25.8700 O   0  0  0  0  0  0  0  0  0  0  0  0
  2  1  1  0
  2 12  2  0
  3  2  1  0
  4  3  2  0
  4  5  1  0
  5 11  2  0
  6  5  1  0
  7  6  1  0
  7  8  1  1
  9 13  1  0
  9  7  1  0
 10  9  2  0
 11 12  1  0
 14 13  1  0
 14 15  1  1
 16 15  1  0
 17 16  2  0
 18 17  1  0
 19 20  1  0
 19 18  2  0
 20 21  2  0
 21 16  1  0
 22 14  1  0
 22 28  1  0
 23 22  2  0
 25 24  1  6
 25 27  1  0
 26 25  1  0
 27 28  1  1
 27 29  1  0
 29 31  1  0
 30 29  2  0
M  END
$$$$
