YFV.pdb
     RDKit          3D

 31 32  0  0  1  0  0  0  0  0999 V2000
    7.3228  -19.2715   14.6389 O   0  0  0  0  0  0  0  0  0  0  0  0
    7.6938  -18.9203   15.9380 C   0  0  0  0  0  0  0  0  0  0  0  0
    6.7499  -18.5845   16.8836 C   0  0  0  0  0  0  0  0  0  0  0  0
    7.1037  -18.2347   18.1723 C   0  0  0  0  0  0  0  0  0  0  0  0
    8.4177  -18.2058   18.5717 C   0  0  0  0  0  0  0  0  0  0  0  0
    8.8748  -17.8547   19.9272 C   0  0  0  0  0  0  0  0  0  0  0  0
    9.3066  -16.4023   19.9178 C   0  0  2  0  0  0  0  0  0  0  0  0
   10.4038  -16.1313   19.0524 N   0  0  0  0  0  0  0  0  0  0  0  0
    9.4073  -15.8519   21.2776 C   0  0  0  0  0  0  0  0  0  0  0  0
   10.5464  -15.8177   21.8494 O   0  0  0  0  0  0  0  0  0  0  0  0
    9.3746  -18.5476   17.6087 C   0  0  0  0  0  0  0  0  0  0  0  0
    9.0214  -18.8958   16.3251 C   0  0  0  0  0  0  0  0  0  0  0  0
    8.3449  -15.3353   22.0597 N   0  0  0  0  0  0  0  0  0  0  0  0
    8.5863  -14.7284   23.3695 C   0  0  1  0  0  0  0  0  0  0  0  0
    7.3826  -13.8613   23.6447 C   0  0  0  0  0  0  0  0  0  0  0  0
    7.3951  -13.2410   24.9836 C   0  0  0  0  0  0  0  0  0  0  0  0
    8.2846  -12.2483   25.3157 C   0  0  0  0  0  0  0  0  0  0  0  0
    8.2402  -11.7194   26.5859 C   0  0  0  0  0  0  0  0  0  0  0  0
    7.3280  -12.1665   27.5185 C   0  0  0  0  0  0  0  0  0  0  0  0
    6.4328  -13.1507   27.2169 C   0  0  0  0  0  0  0  0  0  0  0  0
    6.4835  -13.6809   25.9294 C   0  0  0  0  0  0  0  0  0  0  0  0
    8.7569  -15.7890   24.4142 C   0  0  0  0  0  0  0  0  0  0  0  0
    7.8181  -16.5983   24.5251 O   0  0  0  0  0  0  0  0  0  0  0  0
   11.8783  -17.9293   24.5961 C   0  0  0  0  0  0  0  0  0  0  0  0
   11.7142  -17.3631   25.9809 C   0  0  2  0  0  0  0  0  0  0  0  0
   11.9902  -18.5044   26.9475 C   0  0  0  0  0  0  0  0  0  0  0  0
   10.2640  -16.9121   26.1133 C   0  0  2  0  0  0  0  0  0  0  0  0
    9.8897  -15.8799   25.2210 N   0  0  0  0  0  0  0  0  0  0  0  0
    9.8381  -16.6246   27.4712 C   0  0  0  0  0  0  0  0  0  0  0  0
    9.0991  -17.4861   28.0674 O   0  0  0  0  0  0  0  0  0  0  0  0
   10.1321  -15.5123   28.2363 O   0  0  0  0  0  0  0  0  0  0  0  0
  2  1  1  0
  2 12  2  0
  3  2  1  0
  4  3  2  0
  4  5  1  0
  5 11  2  0
  6  5  1  0
  7  6  1  0
  7  8  1  1
  9 13  1  0
  9  7  1  0
 10  9  2  0
 11 12  1  0
 14 13  1  0
 14 15  1  1
 16 15  1  0
 17 16  2  0
 18 17  1  0
 19 20  1  0
 19 18  2  0
 20 21  2  0
 21 16  1  0
 22 14  1  0
 22 28  1  0
 23 22  2  0
 25 24  1  6
 25 27  1  0
 26 25  1  0
 27 28  1  6
 27 29  1  0
 29 31  1  0
 30 29  2  0
M  END
$$$$
