ALV.pdb
     RDKit          3D

 21 20  0  0  1  0  0  0  0  0999 V2000
    6.5408  -16.7762   20.5487 C   0  0  0  0  0  0  0  0  0  0  0  0
    7.1167  -15.3774   20.4520 C   0  0  2  0  0  0  0  0  0  0  0  0
    8.1338  -15.4113   19.4162 N   0  0  0  0  0  0  0  0  0  0  0  0
    7.7097  -15.0279   21.7609 C   0  0  0  0  0  0  0  0  0  0  0  0
    8.9562  -15.1271   21.8962 O   0  0  0  0  0  0  0  0  0  0  0  0
    6.5823  -11.4134   26.5633 C   0  0  0  0  0  0  0  0  0  0  0  0
    7.5370  -12.5153   26.0512 C   0  0  1  0  0  0  0  0  0  0  0  0
    7.5510  -13.5432   27.1641 C   0  0  0  0  0  0  0  0  0  0  0  0
    6.8606  -13.0476   24.8157 C   0  0  0  0  0  0  0  0  0  0  0  0
    7.5927  -14.1043   24.0668 C   0  0  2  0  0  0  0  0  0  0  0  0
    6.9602  -14.5865   22.8768 N   0  0  0  0  0  0  0  0  0  0  0  0
    8.0820  -15.2271   24.8446 C   0  0  0  0  0  0  0  0  0  0  0  0
    7.2618  -16.0965   25.2358 O   0  0  0  0  0  0  0  0  0  0  0  0
   11.9033  -18.2043   25.4340 C   0  0  0  0  0  0  0  0  0  0  0  0
   11.2574  -16.9834   24.8566 C   0  0  1  0  0  0  0  0  0  0  0  0
   11.0716  -17.0540   23.3732 C   0  0  0  0  0  0  0  0  0  0  0  0
    9.9514  -16.7310   25.5842 C   0  0  2  0  0  0  0  0  0  0  0  0
    9.4326  -15.4473   25.2181 N   0  0  0  0  0  0  0  0  0  0  0  0
   10.2205  -16.7200   27.0484 C   0  0  0  0  0  0  0  0  0  0  0  0
   10.4464  -15.6241   27.6132 O   0  0  0  0  0  0  0  0  0  0  0  0
   10.2276  -17.8778   27.7959 O   0  0  0  0  0  0  0  0  0  0  0  0
  2  1  1  1
  3  2  1  0
  4 11  1  0
  4  2  1  0
  5  4  2  0
  7  8  1  1
  7  6  1  0
 10  9  1  1
  9  7  1  0
 10 12  1  0
 10 11  1  0
 12 18  1  0
 13 12  2  0
 15 14  1  1
 15 16  1  0
 17 15  1  0
 17 18  1  6
 19 21  1  0
 19 17  1  0
 20 19  2  0
M  END
$$$$
