ALV.pdb
     RDKit          3D

 21 20  0  0  1  0  0  0  0  0999 V2000
    8.0593  -18.2380   21.8097 C   0  0  0  0  0  0  0  0  0  0  0  0
    8.1044  -16.7673   21.4453 C   0  0  2  0  0  0  0  0  0  0  0  0
    9.1564  -16.6104   20.4568 N   0  0  0  0  0  0  0  0  0  0  0  0
    8.4117  -15.9951   22.6684 C   0  0  0  0  0  0  0  0  0  0  0  0
    9.6186  -15.7857   22.9538 O   0  0  0  0  0  0  0  0  0  0  0  0
    8.0083  -11.8546   26.0014 C   0  0  0  0  0  0  0  0  0  0  0  0
    7.0772  -13.0027   26.4517 C   0  0  1  0  0  0  0  0  0  0  0  0
    5.8583  -12.2971   27.0099 C   0  0  0  0  0  0  0  0  0  0  0  0
    6.7547  -13.7398   25.1789 C   0  0  0  0  0  0  0  0  0  0  0  0
    7.7797  -14.7052   24.6985 C   0  0  2  0  0  0  0  0  0  0  0  0
    7.4291  -15.4737   23.5430 N   0  0  0  0  0  0  0  0  0  0  0  0
    8.3678  -15.5757   25.6994 C   0  0  0  0  0  0  0  0  0  0  0  0
    7.6973  -16.5519   26.1225 O   0  0  0  0  0  0  0  0  0  0  0  0
   12.3967  -15.2251   26.6865 C   0  0  0  0  0  0  0  0  0  0  0  0
   11.7544  -16.5756   26.6183 C   0  0  1  0  0  0  0  0  0  0  0  0
   12.4806  -17.6201   27.4069 C   0  0  0  0  0  0  0  0  0  0  0  0
   10.3034  -16.4486   27.0391 C   0  0  2  0  0  0  0  0  0  0  0  0
    9.6610  -15.4302   26.2638 N   0  0  0  0  0  0  0  0  0  0  0  0
   10.2602  -16.0369   28.4691 C   0  0  0  0  0  0  0  0  0  0  0  0
    9.9863  -14.8458   28.7470 O   0  0  0  0  0  0  0  0  0  0  0  0
   10.5123  -16.9268   29.4908 O   0  0  0  0  0  0  0  0  0  0  0  0
  2  1  1  1
  3  2  1  0
  4 11  1  0
  4  2  1  0
  5  4  2  0
  7  8  1  6
  7  6  1  0
 10  9  1  1
  9  7  1  0
 10 12  1  0
 10 11  1  0
 12 18  1  0
 13 12  2  0
 15 14  1  1
 15 16  1  0
 17 15  1  0
 17 18  1  6
 19 21  1  0
 19 17  1  0
 20 19  2  0
M  END
$$$$
