ALV.pdb
     RDKit          3D

 21 20  0  0  1  0  0  0  0  0999 V2000
    6.2283  -20.2516   24.4635 C   0  0  0  0  0  0  0  0  0  0  0  0
    5.3504  -19.0978   24.0210 C   0  0  2  0  0  0  0  0  0  0  0  0
    4.9238  -19.3894   22.6640 N   0  0  0  0  0  0  0  0  0  0  0  0
    6.1555  -17.8582   24.0651 C   0  0  0  0  0  0  0  0  0  0  0  0
    6.8579  -17.5676   23.0630 O   0  0  0  0  0  0  0  0  0  0  0  0
    7.2654  -12.7286   24.8463 C   0  0  0  0  0  0  0  0  0  0  0  0
    7.5136  -13.5150   26.1531 C   0  0  1  0  0  0  0  0  0  0  0  0
    7.0893  -12.5595   27.2495 C   0  0  0  0  0  0  0  0  0  0  0  0
    6.5837  -14.6955   26.0582 C   0  0  0  0  0  0  0  0  0  0  0  0
    7.0255  -15.8138   25.1821 C   0  0  2  0  0  0  0  0  0  0  0  0
    6.1862  -16.9732   25.1686 N   0  0  0  0  0  0  0  0  0  0  0  0
    8.4128  -16.2210   25.3031 C   0  0  0  0  0  0  0  0  0  0  0  0
    8.7308  -17.0243   26.2170 O   0  0  0  0  0  0  0  0  0  0  0  0
   12.8472  -16.6240   23.1511 C   0  0  0  0  0  0  0  0  0  0  0  0
   11.4836  -16.0062   23.1485 C   0  0  1  0  0  0  0  0  0  0  0  0
   10.7114  -16.2745   21.8947 C   0  0  0  0  0  0  0  0  0  0  0  0
   10.7378  -16.4628   24.3871 C   0  0  2  0  0  0  0  0  0  0  0  0
    9.4760  -15.7904   24.4688 N   0  0  0  0  0  0  0  0  0  0  0  0
   11.5386  -16.0899   25.5854 C   0  0  0  0  0  0  0  0  0  0  0  0
   11.3323  -14.9792   26.1284 O   0  0  0  0  0  0  0  0  0  0  0  0
   12.4963  -16.9299   26.1112 O   0  0  0  0  0  0  0  0  0  0  0  0
  2  1  1  6
  3  2  1  0
  4 11  1  0
  4  2  1  0
  5  4  2  0
  7  8  1  1
  7  6  1  0
 10  9  1  1
  9  7  1  0
 10 12  1  0
 10 11  1  0
 12 18  1  0
 13 12  2  0
 15 14  1  6
 15 16  1  0
 17 15  1  0
 17 18  1  1
 19 21  1  0
 19 17  1  0
 20 19  2  0
M  END
$$$$
