ALV.pdb
     RDKit          3D

 21 20  0  0  1  0  0  0  0  0999 V2000
    7.1606  -17.1193   20.6069 C   0  0  0  0  0  0  0  0  0  0  0  0
    7.4704  -15.6374   20.5327 C   0  0  2  0  0  0  0  0  0  0  0  0
    8.4656  -15.4668   19.4890 N   0  0  0  0  0  0  0  0  0  0  0  0
    8.0033  -15.2081   21.8436 C   0  0  0  0  0  0  0  0  0  0  0  0
    9.2449  -15.2747   22.0331 O   0  0  0  0  0  0  0  0  0  0  0  0
    6.6374  -11.6156   26.6159 C   0  0  0  0  0  0  0  0  0  0  0  0
    7.6557  -12.6544   26.0947 C   0  0  1  0  0  0  0  0  0  0  0  0
    7.7790  -13.6554   27.2251 C   0  0  0  0  0  0  0  0  0  0  0  0
    6.9846  -13.2602   24.8906 C   0  0  0  0  0  0  0  0  0  0  0  0
    7.7728  -14.2711   24.1356 C   0  0  2  0  0  0  0  0  0  0  0  0
    7.2012  -14.7246   22.9042 N   0  0  0  0  0  0  0  0  0  0  0  0
    8.2588  -15.4094   24.8926 C   0  0  0  0  0  0  0  0  0  0  0  0
    7.4337  -16.2753   25.2814 O   0  0  0  0  0  0  0  0  0  0  0  0
   12.0282  -18.3979   25.8623 C   0  0  0  0  0  0  0  0  0  0  0  0
   11.4751  -17.1796   25.1908 C   0  0  1  0  0  0  0  0  0  0  0  0
   11.4839  -17.2682   23.6967 C   0  0  0  0  0  0  0  0  0  0  0  0
   10.0877  -16.9072   25.7384 C   0  0  2  0  0  0  0  0  0  0  0  0
    9.6111  -15.6490   25.2476 N   0  0  0  0  0  0  0  0  0  0  0  0
   10.1735  -16.8217   27.2222 C   0  0  0  0  0  0  0  0  0  0  0  0
    9.8487  -17.8215   27.9049 O   0  0  0  0  0  0  0  0  0  0  0  0
   10.5987  -15.6776   27.8621 O   0  0  0  0  0  0  0  0  0  0  0  0
  2  1  1  1
  3  2  1  0
  4 11  1  0
  4  2  1  0
  5  4  2  0
  7  8  1  1
  7  6  1  0
 10  9  1  1
  9  7  1  0
 10 12  1  0
 10 11  1  0
 12 18  1  0
 13 12  2  0
 15 14  1  1
 15 16  1  0
 17 15  1  0
 17 18  1  6
 19 21  1  0
 19 17  1  0
 20 19  2  0
M  END
$$$$
