ALV.pdb
     RDKit          3D

 21 20  0  0  1  0  0  0  0  0999 V2000
    8.6388  -17.6439   21.4115 C   0  0  0  0  0  0  0  0  0  0  0  0
    8.7058  -16.1374   21.2580 C   0  0  2  0  0  0  0  0  0  0  0  0
    9.8426  -15.8515   20.4011 N   0  0  0  0  0  0  0  0  0  0  0  0
    8.8938  -15.5419   22.5984 C   0  0  0  0  0  0  0  0  0  0  0  0
   10.0610  -15.4736   23.0620 O   0  0  0  0  0  0  0  0  0  0  0  0
    6.2576  -11.5937   26.4582 C   0  0  0  0  0  0  0  0  0  0  0  0
    7.5028  -12.4716   26.2001 C   0  0  1  0  0  0  0  0  0  0  0  0
    7.7012  -13.2278   27.4978 C   0  0  0  0  0  0  0  0  0  0  0  0
    7.0839  -13.3906   25.0833 C   0  0  0  0  0  0  0  0  0  0  0  0
    8.0822  -14.4083   24.6576 C   0  0  2  0  0  0  0  0  0  0  0  0
    7.8387  -15.0413   23.3972 N   0  0  0  0  0  0  0  0  0  0  0  0
    8.4434  -15.4111   25.6419 C   0  0  0  0  0  0  0  0  0  0  0  0
    7.5992  -16.2919   25.9475 O   0  0  0  0  0  0  0  0  0  0  0  0
   11.0872  -17.8396   25.3209 C   0  0  0  0  0  0  0  0  0  0  0  0
   11.3408  -17.2234   26.6615 C   0  0  1  0  0  0  0  0  0  0  0  0
   12.4814  -16.2544   26.6645 C   0  0  0  0  0  0  0  0  0  0  0  0
   10.0552  -16.5936   27.1609 C   0  0  2  0  0  0  0  0  0  0  0  0
    9.6901  -15.4989   26.3128 N   0  0  0  0  0  0  0  0  0  0  0  0
   10.2917  -16.0584   28.5299 C   0  0  0  0  0  0  0  0  0  0  0  0
   10.3496  -14.8169   28.6918 O   0  0  0  0  0  0  0  0  0  0  0  0
   10.4480  -16.8884   29.6189 O   0  0  0  0  0  0  0  0  0  0  0  0
  2  1  1  1
  3  2  1  0
  4 11  1  0
  4  2  1  0
  5  4  2  0
  7  8  1  1
  7  6  1  0
 10  9  1  1
  9  7  1  0
 10 12  1  0
 10 11  1  0
 12 18  1  0
 13 12  2  0
 15 14  1  6
 15 16  1  0
 17 15  1  0
 17 18  1  6
 19 21  1  0
 19 17  1  0
 20 19  2  0
M  END
$$$$
