ALV.pdb
     RDKit          3D

 21 20  0  0  1  0  0  0  0  0999 V2000
    8.0060  -17.8258   21.5028 C   0  0  0  0  0  0  0  0  0  0  0  0
    8.1337  -16.3434   21.2131 C   0  0  2  0  0  0  0  0  0  0  0  0
    9.1864  -16.1968   20.2238 N   0  0  0  0  0  0  0  0  0  0  0  0
    8.4933  -15.6537   22.4708 C   0  0  0  0  0  0  0  0  0  0  0  0
    9.7116  -15.4654   22.7202 O   0  0  0  0  0  0  0  0  0  0  0  0
    6.3313  -11.6483   26.5401 C   0  0  0  0  0  0  0  0  0  0  0  0
    7.5242  -12.5730   26.2084 C   0  0  1  0  0  0  0  0  0  0  0  0
    7.7660  -13.3438   27.4900 C   0  0  0  0  0  0  0  0  0  0  0  0
    7.0065  -13.4683   25.1140 C   0  0  0  0  0  0  0  0  0  0  0  0
    7.9493  -14.5011   24.6062 C   0  0  2  0  0  0  0  0  0  0  0  0
    7.5491  -15.1896   23.4168 N   0  0  0  0  0  0  0  0  0  0  0  0
    8.4440  -15.4588   25.5774 C   0  0  0  0  0  0  0  0  0  0  0  0
    7.6628  -16.3472   26.0043 O   0  0  0  0  0  0  0  0  0  0  0  0
   12.3225  -17.9257   27.2399 C   0  0  0  0  0  0  0  0  0  0  0  0
   11.7112  -16.8900   26.3484 C   0  0  1  0  0  0  0  0  0  0  0  0
   11.7648  -17.2487   24.8963 C   0  0  0  0  0  0  0  0  0  0  0  0
   10.2955  -16.6159   26.8169 C   0  0  2  0  0  0  0  0  0  0  0  0
    9.7590  -15.4931   26.1081 N   0  0  0  0  0  0  0  0  0  0  0  0
   10.3350  -16.2722   28.2649 C   0  0  0  0  0  0  0  0  0  0  0  0
   10.4882  -15.0735   28.5975 O   0  0  0  0  0  0  0  0  0  0  0  0
   10.2080  -17.2329   29.2448 O   0  0  0  0  0  0  0  0  0  0  0  0
  2  1  1  1
  3  2  1  0
  4 11  1  0
  4  2  1  0
  5  4  2  0
  7  8  1  1
  7  6  1  0
 10  9  1  1
  9  7  1  0
 10 12  1  0
 10 11  1  0
 12 18  1  0
 13 12  2  0
 15 14  1  1
 15 16  1  0
 17 15  1  0
 17 18  1  6
 19 21  1  0
 19 17  1  0
 20 19  2  0
M  END
$$$$
