ALV.pdb
     RDKit          3D

 21 20  0  0  1  0  0  0  0  0999 V2000
    8.0186  -19.5989   23.8268 C   0  0  0  0  0  0  0  0  0  0  0  0
    8.1151  -19.2792   22.3483 C   0  0  2  0  0  0  0  0  0  0  0  0
    9.0944  -20.1905   21.7833 N   0  0  0  0  0  0  0  0  0  0  0  0
    8.5577  -17.8755   22.2046 C   0  0  0  0  0  0  0  0  0  0  0  0
    9.7888  -17.6283   22.2764 O   0  0  0  0  0  0  0  0  0  0  0  0
    8.7586  -13.2989   19.6896 C   0  0  0  0  0  0  0  0  0  0  0  0
    7.8354  -13.1132   20.9148 C   0  0  1  0  0  0  0  0  0  0  0  0
    6.7669  -12.1527   20.4343 C   0  0  0  0  0  0  0  0  0  0  0  0
    7.2715  -14.4865   21.1661 C   0  0  0  0  0  0  0  0  0  0  0  0
    8.1583  -15.4422   21.8829 C   0  0  2  0  0  0  0  0  0  0  0  0
    7.6797  -16.7868   21.9904 N   0  0  0  0  0  0  0  0  0  0  0  0
    8.6741  -15.0071   23.1673 C   0  0  0  0  0  0  0  0  0  0  0  0
    9.8364  -14.5300   23.2233 O   0  0  0  0  0  0  0  0  0  0  0  0
    7.7219  -12.9564   27.4485 C   0  0  0  0  0  0  0  0  0  0  0  0
    7.2414  -13.6653   26.2207 C   0  0  1  0  0  0  0  0  0  0  0  0
    6.5450  -12.7653   25.2485 C   0  0  0  0  0  0  0  0  0  0  0  0
    8.4109  -14.3936   25.5876 C   0  0  2  0  0  0  0  0  0  0  0  0
    7.9771  -15.0684   24.4012 N   0  0  0  0  0  0  0  0  0  0  0  0
    8.9052  -15.4185   26.5476 C   0  0  0  0  0  0  0  0  0  0  0  0
    8.6059  -16.6204   26.3556 O   0  0  0  0  0  0  0  0  0  0  0  0
    9.6796  -15.0821   27.6368 O   0  0  0  0  0  0  0  0  0  0  0  0
  2  1  1  1
  3  2  1  0
  4 11  1  0
  4  2  1  0
  5  4  2  0
  7  8  1  6
  7  6  1  0
 10  9  1  1
  9  7  1  0
 10 12  1  0
 10 11  1  0
 12 18  1  0
 13 12  2  0
 15 14  1  1
 15 16  1  0
 17 15  1  0
 17 18  1  6
 19 21  1  0
 19 17  1  0
 20 19  2  0
M  END
$$$$
