LQF.pdb
     RDKit          3D

 29 29  0  0  1  0  0  0  0  0999 V2000
   21.8716  -24.3592  -21.1912 C   0  0  0  0  0  0  0  0  0  0  0  0
   20.8451  -24.3275  -20.0367 C   0  0  2  0  0  0  0  0  0  0  0  0
   19.5034  -24.4985  -20.7468 C   0  0  0  0  0  0  0  0  0  0  0  0
   20.9902  -22.9938  -19.4094 C   0  0  0  0  0  0  0  0  0  0  0  0
   22.3118  -22.6404  -18.8287 C   0  0  2  0  0  0  0  0  0  0  0  0
   22.5494  -23.6689  -17.7901 N   0  0  0  0  0  0  0  0  0  0  0  0
   22.3803  -21.3364  -18.1410 C   0  0  0  0  0  0  0  0  0  0  0  0
   22.0642  -20.2749  -18.7819 O   0  0  0  0  0  0  0  0  0  0  0  0
   20.5221  -20.3778  -12.5486 N   0  0  0  0  0  0  0  0  0  0  0  0
   21.7526  -21.0707  -12.6665 C   0  0  0  0  0  0  0  0  0  0  0  0
   22.1208  -21.8310  -11.7392 O   0  0  0  0  0  0  0  0  0  0  0  0
   22.6360  -20.9172  -13.8840 C   0  0  0  0  0  0  0  0  0  0  0  0
   22.0140  -20.0227  -14.8872 C   0  0  0  0  0  0  0  0  0  0  0  0
   22.7491  -19.8082  -16.1661 C   0  0  2  0  0  0  0  0  0  0  0  0
   22.7693  -21.1452  -16.8106 N   0  0  0  0  0  0  0  0  0  0  0  0
   24.1278  -19.3488  -16.0554 C   0  0  0  0  0  0  0  0  0  0  0  0
   24.3476  -18.1992  -15.5517 O   0  0  0  0  0  0  0  0  0  0  0  0
   25.2527  -20.1065  -16.4727 N   0  0  0  0  0  0  0  0  0  0  0  0
   26.5607  -19.5565  -16.3011 C   0  0  1  0  0  0  0  0  0  0  0  0
   27.3307  -20.2325  -15.1809 C   0  0  0  0  0  0  0  0  0  0  0  0
   27.4712  -21.6753  -15.3750 C   0  0  0  0  0  0  0  0  0  0  0  0
   26.5346  -22.5824  -14.9293 C   0  0  0  0  0  0  0  0  0  0  0  0
   26.6799  -23.9470  -15.1198 C   0  0  0  0  0  0  0  0  0  0  0  0
   27.8053  -24.4097  -15.7804 C   0  0  0  0  0  0  0  0  0  0  0  0
   28.7534  -23.5341  -16.2350 C   0  0  0  0  0  0  0  0  0  0  0  0
   28.5822  -22.1614  -16.0295 C   0  0  0  0  0  0  0  0  0  0  0  0
   27.2985  -19.6160  -17.5761 C   0  0  0  0  0  0  0  0  0  0  0  0
   28.5511  -19.0422  -17.6927 O   0  0  0  0  0  0  0  0  0  0  0  0
   26.7930  -20.1908  -18.5708 O   0  0  0  0  0  0  0  0  0  0  0  0
  2  3  1  6
  2  1  1  0
  4  2  1  0
  4  5  1  0
  5  7  1  0
  5  6  1  1
  7 15  1  0
  8  7  2  0
  9 10  1  0
 10 12  1  0
 11 10  2  0
 12 13  1  0
 14 16  1  0
 14 13  1  1
 15 14  1  0
 16 18  1  0
 17 16  2  0
 18 19  1  0
 19 27  1  0
 19 20  1  1
 21 20  1  0
 22 21  2  0
 23 22  1  0
 24 25  1  0
 24 23  2  0
 25 26  2  0
 26 21  1  0
 27 29  2  0
 27 28  1  0
M  END
$$$$
