LQF.pdb
     RDKit          3D

 29 29  0  0  1  0  0  0  0  0999 V2000
   32.1467  -23.7879  -10.2308 C   0  0  0  0  0  0  0  0  0  0  0  0
   32.7916  -22.5933  -10.9689 C   0  0  2  0  0  0  0  0  0  0  0  0
   33.8913  -22.1344  -10.0130 C   0  0  0  0  0  0  0  0  0  0  0  0
   31.7144  -21.5883  -11.1203 C   0  0  0  0  0  0  0  0  0  0  0  0
   30.6039  -21.8977  -12.0583 C   0  0  2  0  0  0  0  0  0  0  0  0
   31.1678  -21.6363  -13.4023 N   0  0  0  0  0  0  0  0  0  0  0  0
   29.4083  -21.0409  -11.9389 C   0  0  0  0  0  0  0  0  0  0  0  0
   29.5028  -19.7948  -12.2136 O   0  0  0  0  0  0  0  0  0  0  0  0
   24.3243  -21.5747  -14.4870 N   0  0  0  0  0  0  0  0  0  0  0  0
   23.9149  -20.5419  -13.6074 C   0  0  0  0  0  0  0  0  0  0  0  0
   22.7862  -20.0164  -13.7602 O   0  0  0  0  0  0  0  0  0  0  0  0
   24.8052  -20.0552  -12.4864 C   0  0  0  0  0  0  0  0  0  0  0  0
   26.0974  -20.7788  -12.4767 C   0  0  0  0  0  0  0  0  0  0  0  0
   27.0124  -20.5357  -11.3253 C   0  0  2  0  0  0  0  0  0  0  0  0
   28.1392  -21.4772  -11.5423 N   0  0  0  0  0  0  0  0  0  0  0  0
   26.4701  -20.7923   -9.9971 C   0  0  0  0  0  0  0  0  0  0  0  0
   26.3319  -22.0014   -9.6195 O   0  0  0  0  0  0  0  0  0  0  0  0
   26.0852  -19.7743   -9.0867 N   0  0  0  0  0  0  0  0  0  0  0  0
   25.5570  -20.1481   -7.8122 C   0  0  1  0  0  0  0  0  0  0  0  0
   26.0359  -19.2364   -6.6969 C   0  0  0  0  0  0  0  0  0  0  0  0
   27.3308  -19.6381   -6.1480 C   0  0  0  0  0  0  0  0  0  0  0  0
   28.4837  -18.9106   -6.3484 C   0  0  0  0  0  0  0  0  0  0  0  0
   29.7042  -19.3024   -5.8226 C   0  0  0  0  0  0  0  0  0  0  0  0
   29.7622  -20.4642   -5.0717 C   0  0  0  0  0  0  0  0  0  0  0  0
   28.6347  -21.2084   -4.8548 C   0  0  0  0  0  0  0  0  0  0  0  0
   27.4152  -20.7904   -5.3970 C   0  0  0  0  0  0  0  0  0  0  0  0
   24.0848  -20.1954   -7.8765 C   0  0  0  0  0  0  0  0  0  0  0  0
   23.3518  -20.7438   -6.8403 O   0  0  0  0  0  0  0  0  0  0  0  0
   23.4823  -19.7361   -8.8771 O   0  0  0  0  0  0  0  0  0  0  0  0
  2  3  1  1
  2  1  1  0
  4  2  1  0
  4  5  1  0
  5  7  1  0
  5  6  1  6
  7 15  1  0
  8  7  2  0
  9 10  1  0
 10 12  1  0
 11 10  2  0
 12 13  1  0
 14 16  1  0
 14 13  1  6
 15 14  1  0
 16 18  1  0
 17 16  2  0
 18 19  1  0
 19 27  1  0
 19 20  1  1
 21 20  1  0
 22 21  2  0
 23 22  1  0
 24 25  1  0
 24 23  2  0
 25 26  2  0
 26 21  1  0
 27 29  2  0
 27 28  1  0
M  END
$$$$
