LQF.pdb
     RDKit          3D

 29 29  0  0  1  0  0  0  0  0999 V2000
   14.2636   -8.6408  -18.6390 C   0  0  0  0  0  0  0  0  0  0  0  0
   13.8553   -9.5068  -17.4262 C   0  0  2  0  0  0  0  0  0  0  0  0
   12.9416   -8.5850  -16.6205 C   0  0  0  0  0  0  0  0  0  0  0  0
   15.1164   -9.8196  -16.7156 C   0  0  0  0  0  0  0  0  0  0  0  0
   16.1718  -10.5502  -17.4647 C   0  0  2  0  0  0  0  0  0  0  0  0
   15.6374  -11.9227  -17.6180 N   0  0  0  0  0  0  0  0  0  0  0  0
   17.4684  -10.6873  -16.7733 C   0  0  0  0  0  0  0  0  0  0  0  0
   17.6612  -11.6882  -16.0000 O   0  0  0  0  0  0  0  0  0  0  0  0
   21.5111  -13.7257  -17.6309 N   0  0  0  0  0  0  0  0  0  0  0  0
   21.2856  -12.7120  -18.5951 C   0  0  0  0  0  0  0  0  0  0  0  0
   21.6237  -12.9112  -19.7865 O   0  0  0  0  0  0  0  0  0  0  0  0
   20.6463  -11.3928  -18.2246 C   0  0  0  0  0  0  0  0  0  0  0  0
   20.3073  -11.3484  -16.7836 C   0  0  0  0  0  0  0  0  0  0  0  0
   19.8474  -10.0448  -16.2258 C   0  0  2  0  0  0  0  0  0  0  0  0
   18.5425   -9.7978  -16.8889 N   0  0  0  0  0  0  0  0  0  0  0  0
   20.6995   -8.8904  -16.4810 C   0  0  0  0  0  0  0  0  0  0  0  0
   20.3526   -8.0668  -17.3893 O   0  0  0  0  0  0  0  0  0  0  0  0
   21.9003   -8.6188  -15.7753 N   0  0  0  0  0  0  0  0  0  0  0  0
   22.6260   -7.4249  -16.0766 C   0  0  1  0  0  0  0  0  0  0  0  0
   23.7988   -7.2077  -15.1374 C   0  0  0  0  0  0  0  0  0  0  0  0
   24.7180   -8.3447  -15.1000 C   0  0  0  0  0  0  0  0  0  0  0  0
   25.8488   -8.4156  -15.8843 C   0  0  0  0  0  0  0  0  0  0  0  0
   26.7114   -9.4988  -15.8391 C   0  0  0  0  0  0  0  0  0  0  0  0
   26.4235  -10.5422  -14.9757 C   0  0  0  0  0  0  0  0  0  0  0  0
   25.3083  -10.5014  -14.1840 C   0  0  0  0  0  0  0  0  0  0  0  0
   24.4540   -9.3960  -14.2491 C   0  0  0  0  0  0  0  0  0  0  0  0
   23.0593   -7.4463  -17.4857 C   0  0  0  0  0  0  0  0  0  0  0  0
   23.4171   -6.2767  -18.1304 O   0  0  0  0  0  0  0  0  0  0  0  0
   23.1069   -8.5316  -18.1142 O   0  0  0  0  0  0  0  0  0  0  0  0
  2  3  1  1
  2  1  1  0
  4  2  1  0
  4  5  1  0
  5  7  1  0
  5  6  1  1
  7 15  1  0
  8  7  2  0
  9 10  1  0
 10 12  1  0
 11 10  2  0
 12 13  1  0
 14 16  1  0
 14 13  1  6
 15 14  1  0
 16 18  1  0
 17 16  2  0
 18 19  1  0
 19 27  1  0
 19 20  1  1
 21 20  1  0
 22 21  2  0
 23 22  1  0
 24 25  1  0
 24 23  2  0
 25 26  2  0
 26 21  1  0
 27 29  2  0
 27 28  1  0
M  END
$$$$
