LQF.pdb
     RDKit          3D

 29 29  0  0  1  0  0  0  0  0999 V2000
   21.0342  -16.7352  -16.0749 C   0  0  0  0  0  0  0  0  0  0  0  0
   19.7854  -17.6404  -15.9825 C   0  0  2  0  0  0  0  0  0  0  0  0
   18.7287  -16.7289  -15.3612 C   0  0  0  0  0  0  0  0  0  0  0  0
   20.1674  -18.7586  -15.0897 C   0  0  0  0  0  0  0  0  0  0  0  0
   21.3435  -19.5821  -15.4736 C   0  0  2  0  0  0  0  0  0  0  0  0
   20.8184  -20.5365  -16.4767 N   0  0  0  0  0  0  0  0  0  0  0  0
   21.9315  -20.3996  -14.3948 C   0  0  0  0  0  0  0  0  0  0  0  0
   21.1594  -20.9429  -13.5312 O   0  0  0  0  0  0  0  0  0  0  0  0
   25.7773  -24.6395  -15.4620 N   0  0  0  0  0  0  0  0  0  0  0  0
   26.3552  -23.3458  -15.4793 C   0  0  0  0  0  0  0  0  0  0  0  0
   27.4210  -23.1574  -16.1136 O   0  0  0  0  0  0  0  0  0  0  0  0
   25.7194  -22.1830  -14.7513 C   0  0  0  0  0  0  0  0  0  0  0  0
   24.5452  -22.6227  -13.9631 C   0  0  0  0  0  0  0  0  0  0  0  0
   23.8079  -21.5829  -13.1903 C   0  0  2  0  0  0  0  0  0  0  0  0
   23.2982  -20.6460  -14.2227 N   0  0  0  0  0  0  0  0  0  0  0  0
   24.5878  -20.8071  -12.2343 C   0  0  0  0  0  0  0  0  0  0  0  0
   25.0229  -19.6634  -12.5896 O   0  0  0  0  0  0  0  0  0  0  0  0
   24.8946  -21.2445  -10.9197 N   0  0  0  0  0  0  0  0  0  0  0  0
   25.9863  -20.6379  -10.2248 C   0  0  1  0  0  0  0  0  0  0  0  0
   26.0315  -21.0331   -8.7597 C   0  0  0  0  0  0  0  0  0  0  0  0
   27.1208  -20.3873   -8.0279 C   0  0  0  0  0  0  0  0  0  0  0  0
   28.3426  -20.9907   -7.8238 C   0  0  0  0  0  0  0  0  0  0  0  0
   29.3664  -20.3677   -7.1286 C   0  0  0  0  0  0  0  0  0  0  0  0
   29.1497  -19.0967   -6.6241 C   0  0  0  0  0  0  0  0  0  0  0  0
   27.9472  -18.4709   -6.8101 C   0  0  0  0  0  0  0  0  0  0  0  0
   26.9305  -19.1222   -7.5157 C   0  0  0  0  0  0  0  0  0  0  0  0
   27.2526  -20.9566  -10.9094 C   0  0  0  0  0  0  0  0  0  0  0  0
   27.6176  -22.2701  -11.1398 O   0  0  0  0  0  0  0  0  0  0  0  0
   28.0131  -20.0336  -11.2902 O   0  0  0  0  0  0  0  0  0  0  0  0
  2  3  1  1
  2  1  1  0
  4  2  1  0
  4  5  1  0
  5  7  1  0
  5  6  1  6
  7 15  1  0
  8  7  2  0
  9 10  1  0
 10 12  1  0
 11 10  2  0
 12 13  1  0
 14 16  1  0
 14 13  1  6
 15 14  1  0
 16 18  1  0
 17 16  2  0
 18 19  1  0
 19 27  1  0
 19 20  1  1
 21 20  1  0
 22 21  2  0
 23 22  1  0
 24 25  1  0
 24 23  2  0
 25 26  2  0
 26 21  1  0
 27 29  2  0
 27 28  1  0
M  END
$$$$
