LQF.pdb
     RDKit          3D

 29 29  0  0  1  0  0  0  0  0999 V2000
   27.3793  -20.9954  -18.3025 C   0  0  0  0  0  0  0  0  0  0  0  0
   26.4649  -22.2122  -18.5685 C   0  0  2  0  0  0  0  0  0  0  0  0
   25.7149  -21.8239  -19.8414 C   0  0  0  0  0  0  0  0  0  0  0  0
   25.5731  -22.3073  -17.3901 C   0  0  0  0  0  0  0  0  0  0  0  0
   26.2003  -22.5345  -16.0620 C   0  0  2  0  0  0  0  0  0  0  0  0
   26.7288  -23.9161  -16.1311 N   0  0  0  0  0  0  0  0  0  0  0  0
   25.2823  -22.5014  -14.9069 C   0  0  0  0  0  0  0  0  0  0  0  0
   24.5371  -23.5147  -14.6721 O   0  0  0  0  0  0  0  0  0  0  0  0
   26.0293  -21.6772   -9.4484 N   0  0  0  0  0  0  0  0  0  0  0  0
   24.7538  -21.0662   -9.3605 C   0  0  0  0  0  0  0  0  0  0  0  0
   24.1545  -21.0510   -8.2586 O   0  0  0  0  0  0  0  0  0  0  0  0
   24.0941  -20.4303  -10.5633 C   0  0  0  0  0  0  0  0  0  0  0  0
   24.8663  -20.6945  -11.7992 C   0  0  0  0  0  0  0  0  0  0  0  0
   24.1900  -21.4670  -12.8799 C   0  0  2  0  0  0  0  0  0  0  0  0
   25.1468  -21.4323  -14.0143 N   0  0  0  0  0  0  0  0  0  0  0  0
   22.9174  -20.9412  -13.3575 C   0  0  0  0  0  0  0  0  0  0  0  0
   22.9113  -19.8218  -13.9661 O   0  0  0  0  0  0  0  0  0  0  0  0
   21.6729  -21.6021  -13.1905 N   0  0  0  0  0  0  0  0  0  0  0  0
   20.4775  -20.9473  -13.6208 C   0  0  1  0  0  0  0  0  0  0  0  0
   19.6877  -21.7788  -14.6156 C   0  0  0  0  0  0  0  0  0  0  0  0
   20.3580  -21.9097  -15.9090 C   0  0  0  0  0  0  0  0  0  0  0  0
   20.1450  -21.0338  -16.9511 C   0  0  0  0  0  0  0  0  0  0  0  0
   20.7865  -21.1691  -18.1717 C   0  0  0  0  0  0  0  0  0  0  0  0
   21.6700  -22.2210  -18.3450 C   0  0  0  0  0  0  0  0  0  0  0  0
   21.9028  -23.1076  -17.3292 C   0  0  0  0  0  0  0  0  0  0  0  0
   21.2419  -22.9481  -16.1071 C   0  0  0  0  0  0  0  0  0  0  0  0
   19.6584  -20.5838  -12.4501 C   0  0  0  0  0  0  0  0  0  0  0  0
   18.4829  -19.8727  -12.6063 O   0  0  0  0  0  0  0  0  0  0  0  0
   20.0233  -20.9184  -11.2968 O   0  0  0  0  0  0  0  0  0  0  0  0
  2  3  1  6
  2  1  1  0
  4  2  1  0
  4  5  1  0
  5  7  1  0
  5  6  1  6
  7 15  1  0
  8  7  2  0
  9 10  1  0
 10 12  1  0
 11 10  2  0
 12 13  1  0
 14 16  1  0
 14 13  1  1
 15 14  1  0
 16 18  1  0
 17 16  2  0
 18 19  1  0
 19 27  1  0
 19 20  1  6
 21 20  1  0
 22 21  2  0
 23 22  1  0
 24 25  1  0
 24 23  2  0
 25 26  2  0
 26 21  1  0
 27 29  2  0
 27 28  1  0
M  END
$$$$
