LQF.pdb
     RDKit          3D

 29 29  0  0  1  0  0  0  0  0999 V2000
   26.9888  -22.7680  -15.2828 C   0  0  0  0  0  0  0  0  0  0  0  0
   26.9682  -23.3543  -16.7123 C   0  0  2  0  0  0  0  0  0  0  0  0
   27.3264  -22.1592  -17.5938 C   0  0  0  0  0  0  0  0  0  0  0  0
   25.5817  -23.8264  -16.9309 C   0  0  0  0  0  0  0  0  0  0  0  0
   25.0535  -24.8737  -16.0183 C   0  0  2  0  0  0  0  0  0  0  0  0
   25.2220  -26.1399  -16.7674 N   0  0  0  0  0  0  0  0  0  0  0  0
   23.6172  -24.7745  -15.6939 C   0  0  0  0  0  0  0  0  0  0  0  0
   22.7531  -24.9828  -16.6143 O   0  0  0  0  0  0  0  0  0  0  0  0
   19.5897  -25.6200  -10.0072 N   0  0  0  0  0  0  0  0  0  0  0  0
   19.8870  -26.1504  -11.2872 C   0  0  0  0  0  0  0  0  0  0  0  0
   20.0776  -27.3840  -11.4119 O   0  0  0  0  0  0  0  0  0  0  0  0
   19.9807  -25.2662  -12.5101 C   0  0  0  0  0  0  0  0  0  0  0  0
   21.3584  -25.2488  -13.0535 C   0  0  0  0  0  0  0  0  0  0  0  0
   21.6352  -24.3308  -14.1949 C   0  0  2  0  0  0  0  0  0  0  0  0
   23.0941  -24.4656  -14.4333 N   0  0  0  0  0  0  0  0  0  0  0  0
   21.3504  -22.9181  -13.9782 C   0  0  0  0  0  0  0  0  0  0  0  0
   20.1679  -22.5798  -13.6454 O   0  0  0  0  0  0  0  0  0  0  0  0
   22.3137  -21.8847  -14.1114 N   0  0  0  0  0  0  0  0  0  0  0  0
   21.9120  -20.5307  -13.8921 C   0  0  1  0  0  0  0  0  0  0  0  0
   22.9457  -19.7393  -13.1111 C   0  0  0  0  0  0  0  0  0  0  0  0
   23.3060  -20.3689  -11.8410 C   0  0  0  0  0  0  0  0  0  0  0  0
   24.4775  -21.0722  -11.6633 C   0  0  0  0  0  0  0  0  0  0  0  0
   24.8068  -21.6639  -10.4546 C   0  0  0  0  0  0  0  0  0  0  0  0
   23.9264  -21.5416   -9.3931 C   0  0  0  0  0  0  0  0  0  0  0  0
   22.7550  -20.8495   -9.5380 C   0  0  0  0  0  0  0  0  0  0  0  0
   22.4468  -20.2618  -10.7690 C   0  0  0  0  0  0  0  0  0  0  0  0
   21.6005  -19.8873  -15.1816 C   0  0  0  0  0  0  0  0  0  0  0  0
   21.0868  -18.6043  -15.2227 O   0  0  0  0  0  0  0  0  0  0  0  0
   21.8001  -20.5021  -16.2574 O   0  0  0  0  0  0  0  0  0  0  0  0
  2  3  1  6
  2  1  1  0
  4  2  1  0
  4  5  1  0
  5  7  1  0
  5  6  1  6
  7 15  1  0
  8  7  2  0
  9 10  1  0
 10 12  1  0
 11 10  2  0
 12 13  1  0
 14 16  1  0
 14 13  1  1
 15 14  1  0
 16 18  1  0
 17 16  2  0
 18 19  1  0
 19 27  1  0
 19 20  1  6
 21 20  1  0
 22 21  2  0
 23 22  1  0
 24 25  1  0
 24 23  2  0
 25 26  2  0
 26 21  1  0
 27 29  2  0
 27 28  1  0
M  END
$$$$
