LQF.pdb
     RDKit          3D

 29 29  0  0  1  0  0  0  0  0999 V2000
   28.7366  -17.2587  -17.3060 C   0  0  0  0  0  0  0  0  0  0  0  0
   27.6177  -16.3140  -17.7993 C   0  0  2  0  0  0  0  0  0  0  0  0
   28.2737  -14.9348  -17.7651 C   0  0  0  0  0  0  0  0  0  0  0  0
   26.5200  -16.4457  -16.8140 C   0  0  0  0  0  0  0  0  0  0  0  0
   25.9699  -17.8038  -16.5658 C   0  0  2  0  0  0  0  0  0  0  0  0
   25.6675  -18.3354  -17.9144 N   0  0  0  0  0  0  0  0  0  0  0  0
   24.7034  -17.8527  -15.8097 C   0  0  0  0  0  0  0  0  0  0  0  0
   24.6649  -17.3733  -14.6240 O   0  0  0  0  0  0  0  0  0  0  0  0
   18.6491  -17.0052  -15.6048 N   0  0  0  0  0  0  0  0  0  0  0  0
   19.6316  -16.0280  -15.9009 C   0  0  0  0  0  0  0  0  0  0  0  0
   19.3392  -14.8123  -15.7995 O   0  0  0  0  0  0  0  0  0  0  0  0
   21.0272  -16.4129  -16.3372 C   0  0  0  0  0  0  0  0  0  0  0  0
   21.2051  -17.8832  -16.3253 C   0  0  0  0  0  0  0  0  0  0  0  0
   22.2748  -18.4388  -15.4483 C   0  0  2  0  0  0  0  0  0  0  0  0
   23.5011  -18.3898  -16.2833 N   0  0  0  0  0  0  0  0  0  0  0  0
   22.0995  -19.8140  -14.9989 C   0  0  0  0  0  0  0  0  0  0  0  0
   22.1499  -20.7480  -15.8641 O   0  0  0  0  0  0  0  0  0  0  0  0
   21.8775  -20.1851  -13.6474 N   0  0  0  0  0  0  0  0  0  0  0  0
   21.7270  -21.5693  -13.3248 C   0  0  1  0  0  0  0  0  0  0  0  0
   23.0173  -22.1899  -12.8201 C   0  0  0  0  0  0  0  0  0  0  0  0
   23.5550  -21.5096  -11.6422 C   0  0  0  0  0  0  0  0  0  0  0  0
   22.8211  -21.3178  -10.4920 C   0  0  0  0  0  0  0  0  0  0  0  0
   23.3426  -20.6715   -9.3830 C   0  0  0  0  0  0  0  0  0  0  0  0
   24.6450  -20.2047   -9.4372 C   0  0  0  0  0  0  0  0  0  0  0  0
   25.3995  -20.3797  -10.5652 C   0  0  0  0  0  0  0  0  0  0  0  0
   24.8487  -21.0356  -11.6708 C   0  0  0  0  0  0  0  0  0  0  0  0
   20.6302  -21.7394  -12.3543 C   0  0  0  0  0  0  0  0  0  0  0  0
   20.1419  -22.9982  -12.0567 O   0  0  0  0  0  0  0  0  0  0  0  0
   20.1285  -20.7379  -11.7880 O   0  0  0  0  0  0  0  0  0  0  0  0
  2  3  1  1
  2  1  1  0
  4  2  1  0
  4  5  1  0
  5  7  1  0
  5  6  1  6
  7 15  1  0
  8  7  2  0
  9 10  1  0
 10 12  1  0
 11 10  2  0
 12 13  1  0
 14 16  1  0
 14 13  1  6
 15 14  1  0
 16 18  1  0
 17 16  2  0
 18 19  1  0
 19 27  1  0
 19 20  1  1
 21 20  1  0
 22 21  2  0
 23 22  1  0
 24 25  1  0
 24 23  2  0
 25 26  2  0
 26 21  1  0
 27 29  2  0
 27 28  1  0
M  END
$$$$
