LQF.pdb
     RDKit          3D

 29 29  0  0  1  0  0  0  0  0999 V2000
   16.2112  -13.1598  -13.0689 C   0  0  0  0  0  0  0  0  0  0  0  0
   16.1402  -12.0171  -14.1066 C   0  0  2  0  0  0  0  0  0  0  0  0
   17.3979  -12.2213  -14.9494 C   0  0  0  0  0  0  0  0  0  0  0  0
   16.1796  -10.7617  -13.3220 C   0  0  0  0  0  0  0  0  0  0  0  0
   14.9997  -10.4323  -12.4806 C   0  0  2  0  0  0  0  0  0  0  0  0
   13.8639  -10.3946  -13.4301 N   0  0  0  0  0  0  0  0  0  0  0  0
   15.0315   -9.1114  -11.8231 C   0  0  0  0  0  0  0  0  0  0  0  0
   14.8186   -8.0607  -12.5216 O   0  0  0  0  0  0  0  0  0  0  0  0
   12.6729   -6.1013   -8.2427 N   0  0  0  0  0  0  0  0  0  0  0  0
   13.8136   -5.7675   -7.4711 C   0  0  0  0  0  0  0  0  0  0  0  0
   13.7802   -4.7545   -6.7318 O   0  0  0  0  0  0  0  0  0  0  0  0
   15.0735   -6.6023   -7.5153 C   0  0  0  0  0  0  0  0  0  0  0  0
   14.9227   -7.7500   -8.4391 C   0  0  0  0  0  0  0  0  0  0  0  0
   15.2806   -7.5321   -9.8697 C   0  0  2  0  0  0  0  0  0  0  0  0
   15.2791   -8.8926  -10.4634 N   0  0  0  0  0  0  0  0  0  0  0  0
   16.5846   -6.9361  -10.1312 C   0  0  0  0  0  0  0  0  0  0  0  0
   17.6277   -7.6343   -9.9122 O   0  0  0  0  0  0  0  0  0  0  0  0
   16.7706   -5.6176  -10.6216 N   0  0  0  0  0  0  0  0  0  0  0  0
   18.0504   -5.2443  -11.1370 C   0  0  1  0  0  0  0  0  0  0  0  0
   18.5413   -6.1960  -12.2131 C   0  0  0  0  0  0  0  0  0  0  0  0
   19.7476   -5.7195  -12.8892 C   0  0  0  0  0  0  0  0  0  0  0  0
   21.0110   -5.8852  -12.3648 C   0  0  0  0  0  0  0  0  0  0  0  0
   22.1458   -5.4288  -13.0157 C   0  0  0  0  0  0  0  0  0  0  0  0
   22.0002   -4.7856  -14.2331 C   0  0  0  0  0  0  0  0  0  0  0  0
   20.7590   -4.6057  -14.7800 C   0  0  0  0  0  0  0  0  0  0  0  0
   19.6298   -5.0761  -14.1020 C   0  0  0  0  0  0  0  0  0  0  0  0
   18.0056   -3.8539  -11.6253 C   0  0  0  0  0  0  0  0  0  0  0  0
   19.1347   -3.0568  -11.5859 O   0  0  0  0  0  0  0  0  0  0  0  0
   16.9371   -3.3804  -12.0827 O   0  0  0  0  0  0  0  0  0  0  0  0
  2  3  1  6
  2  1  1  0
  4  2  1  0
  4  5  1  0
  5  7  1  0
  5  6  1  6
  7 15  1  0
  8  7  2  0
  9 10  1  0
 10 12  1  0
 11 10  2  0
 12 13  1  0
 14 16  1  0
 14 13  1  1
 15 14  1  0
 16 18  1  0
 17 16  2  0
 18 19  1  0
 19 27  1  0
 19 20  1  6
 21 20  1  0
 22 21  2  0
 23 22  1  0
 24 25  1  0
 24 23  2  0
 25 26  2  0
 26 21  1  0
 27 29  2  0
 27 28  1  0
M  END
$$$$
