LQF.pdb
     RDKit          3D

 29 29  0  0  1  0  0  0  0  0999 V2000
   27.0905  -15.4637  -14.6330 C   0  0  0  0  0  0  0  0  0  0  0  0
   27.5691  -16.4909  -15.6834 C   0  0  2  0  0  0  0  0  0  0  0  0
   27.0207  -15.9394  -16.9982 C   0  0  0  0  0  0  0  0  0  0  0  0
   26.9412  -17.7764  -15.3004 C   0  0  0  0  0  0  0  0  0  0  0  0
   27.6471  -18.6235  -14.3040 C   0  0  2  0  0  0  0  0  0  0  0  0
   27.9816  -19.8641  -15.0401 N   0  0  0  0  0  0  0  0  0  0  0  0
   26.8462  -19.0399  -13.1365 C   0  0  0  0  0  0  0  0  0  0  0  0
   26.1902  -18.1574  -12.4822 O   0  0  0  0  0  0  0  0  0  0  0  0
   22.3976  -19.8995  -13.7652 N   0  0  0  0  0  0  0  0  0  0  0  0
   22.8883  -21.0155  -13.0428 C   0  0  0  0  0  0  0  0  0  0  0  0
   22.2334  -21.4511  -12.0657 O   0  0  0  0  0  0  0  0  0  0  0  0
   24.1843  -21.6970  -13.4198 C   0  0  0  0  0  0  0  0  0  0  0  0
   25.0362  -21.9227  -12.2294 C   0  0  0  0  0  0  0  0  0  0  0  0
   25.7249  -20.7380  -11.6428 C   0  0  2  0  0  0  0  0  0  0  0  0
   26.7314  -20.3517  -12.6631 N   0  0  0  0  0  0  0  0  0  0  0  0
   26.4288  -20.9509  -10.3846 C   0  0  0  0  0  0  0  0  0  0  0  0
   27.6877  -21.1451  -10.4168 O   0  0  0  0  0  0  0  0  0  0  0  0
   25.7987  -20.9529   -9.1131 N   0  0  0  0  0  0  0  0  0  0  0  0
   26.6090  -21.0334   -7.9385 C   0  0  1  0  0  0  0  0  0  0  0  0
   27.6468  -19.9273   -7.8741 C   0  0  0  0  0  0  0  0  0  0  0  0
   28.3293  -19.8598   -6.5821 C   0  0  0  0  0  0  0  0  0  0  0  0
   27.9850  -18.9530   -5.6035 C   0  0  0  0  0  0  0  0  0  0  0  0
   28.6398  -18.8996   -4.3837 C   0  0  0  0  0  0  0  0  0  0  0  0
   29.6737  -19.7890   -4.1449 C   0  0  0  0  0  0  0  0  0  0  0  0
   30.0392  -20.7014   -5.0968 C   0  0  0  0  0  0  0  0  0  0  0  0
   29.3616  -20.7341   -6.3198 C   0  0  0  0  0  0  0  0  0  0  0  0
   25.7509  -21.0393   -6.7396 C   0  0  0  0  0  0  0  0  0  0  0  0
   26.2301  -21.5142   -5.5327 O   0  0  0  0  0  0  0  0  0  0  0  0
   24.5729  -20.6114   -6.8053 O   0  0  0  0  0  0  0  0  0  0  0  0
  2  3  1  6
  2  1  1  0
  4  2  1  0
  4  5  1  0
  5  7  1  0
  5  6  1  6
  7 15  1  0
  8  7  2  0
  9 10  1  0
 10 12  1  0
 11 10  2  0
 12 13  1  0
 14 16  1  0
 14 13  1  6
 15 14  1  0
 16 18  1  0
 17 16  2  0
 18 19  1  0
 19 27  1  0
 19 20  1  1
 21 20  1  0
 22 21  2  0
 23 22  1  0
 24 25  1  0
 24 23  2  0
 25 26  2  0
 26 21  1  0
 27 29  2  0
 27 28  1  0
M  END
$$$$
