PYS.pdb
     RDKit          3D

 26 27  0  0  1  0  0  0  0  0999 V2000
   28.6278  -22.5269  -16.6651 N   0  0  0  0  0  0  0  0  0  0  0  0
   29.1678  -23.8517  -16.9114 C   0  0  0  0  0  0  0  0  0  0  0  0
   28.3299  -24.8195  -16.1125 C   0  0  0  0  0  0  0  0  0  0  0  0
   27.2387  -23.9457  -15.5032 C   0  0  0  0  0  0  0  0  0  0  0  0
   27.2179  -22.7852  -16.4707 C   0  0  1  0  0  0  0  0  0  0  0  0
   26.4968  -21.6156  -15.9438 C   0  0  0  0  0  0  0  0  0  0  0  0
   25.2270  -21.6661  -15.8404 O   0  0  0  0  0  0  0  0  0  0  0  0
   25.2384  -21.5939   -9.1420 O   0  0  0  0  0  0  0  0  0  0  0  0
   25.7119  -20.8940  -10.2545 C   0  0  0  0  0  0  0  0  0  0  0  0
   26.9792  -21.1308  -10.7233 C   0  0  0  0  0  0  0  0  0  0  0  0
   27.4933  -20.4531  -11.8334 C   0  0  0  0  0  0  0  0  0  0  0  0
   26.7497  -19.5245  -12.4981 C   0  0  0  0  0  0  0  0  0  0  0  0
   27.2216  -18.7789  -13.6897 C   0  0  0  0  0  0  0  0  0  0  0  0
   26.5547  -19.2776  -14.9729 C   0  0  2  0  0  0  0  0  0  0  0  0
   27.1788  -20.4333  -15.5482 N   0  0  0  0  0  0  0  0  0  0  0  0
   26.3046  -18.1814  -15.9333 C   0  0  0  0  0  0  0  0  0  0  0  0
   27.2107  -17.7898  -16.7465 O   0  0  0  0  0  0  0  0  0  0  0  0
   25.4570  -19.3002  -11.9988 C   0  0  0  0  0  0  0  0  0  0  0  0
   24.9483  -19.9614  -10.9110 C   0  0  0  0  0  0  0  0  0  0  0  0
   23.9424  -17.7476  -19.4473 O   0  0  0  0  0  0  0  0  0  0  0  0
   24.4037  -18.1792  -18.2109 C   0  0  0  0  0  0  0  0  0  0  0  0
   24.5664  -16.9626  -17.2879 C   0  0  2  0  0  0  0  0  0  0  0  0
   25.0727  -17.4928  -16.0288 N   0  0  0  0  0  0  0  0  0  0  0  0
   23.2337  -16.3696  -17.1298 C   0  0  0  0  0  0  0  0  0  0  0  0
   22.8235  -15.3399  -17.9296 O   0  0  0  0  0  0  0  0  0  0  0  0
   22.4610  -16.8125  -16.2504 O   0  0  0  0  0  0  0  0  0  0  0  0
  1  2  1  0
  2  3  1  0
  4  3  1  0
  5  4  1  0
  5  1  1  0
  6 15  1  0
  5  6  1  1
  7  6  2  0
  9 10  2  0
  9  8  1  0
 11 10  1  0
 12 11  2  0
 13 12  1  0
 14 13  1  1
 14 15  1  0
 16 14  1  0
 16 17  2  0
 18 12  1  0
 18 19  2  0
 19  9  1  0
 20 21  1  0
 22 23  1  0
 22 21  1  6
 23 16  1  0
 24 22  1  0
 25 24  1  0
 26 24  2  0
M  END
$$$$
