PYS.pdb
     RDKit          3D

 26 27  0  0  1  0  0  0  0  0999 V2000
   25.9585  -18.7345  -19.1107 N   0  0  0  0  0  0  0  0  0  0  0  0
   26.3511  -17.4654  -19.6959 C   0  0  0  0  0  0  0  0  0  0  0  0
   25.5500  -16.3958  -18.9953 C   0  0  0  0  0  0  0  0  0  0  0  0
   24.7779  -17.1571  -17.9230 C   0  0  0  0  0  0  0  0  0  0  0  0
   25.6513  -18.3769  -17.7432 C   0  0  1  0  0  0  0  0  0  0  0  0
   24.9744  -19.4613  -17.0142 C   0  0  0  0  0  0  0  0  0  0  0  0
   24.5146  -20.4544  -17.6684 O   0  0  0  0  0  0  0  0  0  0  0  0
   28.8982  -24.3375  -16.8340 O   0  0  0  0  0  0  0  0  0  0  0  0
   27.9816  -23.5618  -16.1201 C   0  0  0  0  0  0  0  0  0  0  0  0
   26.7686  -24.0929  -15.7615 C   0  0  0  0  0  0  0  0  0  0  0  0
   25.8217  -23.3523  -15.0468 C   0  0  0  0  0  0  0  0  0  0  0  0
   26.0689  -22.0647  -14.6755 C   0  0  0  0  0  0  0  0  0  0  0  0
   25.1209  -21.2247  -13.9047 C   0  0  0  0  0  0  0  0  0  0  0  0
   24.1764  -20.4459  -14.8220 C   0  0  2  0  0  0  0  0  0  0  0  0
   24.8206  -19.4295  -15.6018 N   0  0  0  0  0  0  0  0  0  0  0  0
   22.9622  -19.9885  -14.1127 C   0  0  0  0  0  0  0  0  0  0  0  0
   23.0119  -19.0484  -13.2470 O   0  0  0  0  0  0  0  0  0  0  0  0
   27.3165  -21.5444  -15.0544 C   0  0  0  0  0  0  0  0  0  0  0  0
   28.2481  -22.2658  -15.7551 C   0  0  0  0  0  0  0  0  0  0  0  0
   19.5629  -19.2512  -15.6568 O   0  0  0  0  0  0  0  0  0  0  0  0
   19.3439  -20.1673  -14.6368 C   0  0  0  0  0  0  0  0  0  0  0  0
   20.4932  -20.0679  -13.6231 C   0  0  2  0  0  0  0  0  0  0  0  0
   21.6776  -20.5399  -14.3283 N   0  0  0  0  0  0  0  0  0  0  0  0
   20.1447  -20.9457  -12.5002 C   0  0  0  0  0  0  0  0  0  0  0  0
   19.1367  -20.6166  -11.6377 O   0  0  0  0  0  0  0  0  0  0  0  0
   20.7790  -22.0110  -12.3292 O   0  0  0  0  0  0  0  0  0  0  0  0
  1  2  1  0
  2  3  1  0
  4  3  1  0
  5  4  1  0
  5  1  1  0
  6 15  1  0
  5  6  1  6
  7  6  2  0
  9 10  2  0
  9  8  1  0
 11 10  1  0
 12 11  2  0
 13 12  1  0
 14 13  1  1
 14 15  1  0
 16 14  1  0
 16 17  2  0
 18 12  1  0
 18 19  2  0
 19  9  1  0
 20 21  1  0
 22 23  1  0
 22 21  1  6
 23 16  1  0
 24 22  1  0
 25 24  1  0
 26 24  2  0
M  END
$$$$
