PYS.pdb
     RDKit          3D

 26 27  0  0  1  0  0  0  0  0999 V2000
   25.3399  -14.2556  -15.4283 N   0  0  0  0  0  0  0  0  0  0  0  0
   26.1423  -15.4609  -15.3245 C   0  0  0  0  0  0  0  0  0  0  0  0
   26.3523  -15.9672  -16.7303 C   0  0  0  0  0  0  0  0  0  0  0  0
   25.7021  -14.9017  -17.6063 C   0  0  0  0  0  0  0  0  0  0  0  0
   25.7596  -13.6978  -16.6951 C   0  0  1  0  0  0  0  0  0  0  0  0
   24.8894  -12.5995  -17.1447 C   0  0  0  0  0  0  0  0  0  0  0  0
   25.1873  -11.9715  -18.2136 O   0  0  0  0  0  0  0  0  0  0  0  0
   19.8400  -16.3462  -14.3823 O   0  0  0  0  0  0  0  0  0  0  0  0
   20.2549  -15.2379  -15.1247 C   0  0  0  0  0  0  0  0  0  0  0  0
   19.3712  -14.2227  -15.3905 C   0  0  0  0  0  0  0  0  0  0  0  0
   19.7439  -13.0954  -16.1295 C   0  0  0  0  0  0  0  0  0  0  0  0
   21.0090  -12.9600  -16.6176 C   0  0  0  0  0  0  0  0  0  0  0  0
   21.4798  -11.7882  -17.3946 C   0  0  0  0  0  0  0  0  0  0  0  0
   22.7866  -11.2231  -16.8351 C   0  0  2  0  0  0  0  0  0  0  0  0
   23.7276  -12.2218  -16.4188 N   0  0  0  0  0  0  0  0  0  0  0  0
   22.5510  -10.1575  -15.8373 C   0  0  0  0  0  0  0  0  0  0  0  0
   22.7260  -10.3659  -14.5876 O   0  0  0  0  0  0  0  0  0  0  0  0
   21.8938  -14.0119  -16.3324 C   0  0  0  0  0  0  0  0  0  0  0  0
   21.5337  -15.1191  -15.6088 C   0  0  0  0  0  0  0  0  0  0  0  0
   20.9688   -6.6848  -17.0574 O   0  0  0  0  0  0  0  0  0  0  0  0
   21.7848   -6.5040  -15.9488 C   0  0  0  0  0  0  0  0  0  0  0  0
   21.8696   -7.8262  -15.1722 C   0  0  2  0  0  0  0  0  0  0  0  0
   22.1231   -8.8523  -16.1750 N   0  0  0  0  0  0  0  0  0  0  0  0
   20.5704   -8.0170  -14.5176 C   0  0  0  0  0  0  0  0  0  0  0  0
   20.2060   -7.2538  -13.4437 O   0  0  0  0  0  0  0  0  0  0  0  0
   19.7843   -8.8906  -14.9480 O   0  0  0  0  0  0  0  0  0  0  0  0
  1  2  1  0
  2  3  1  0
  4  3  1  0
  5  4  1  0
  5  1  1  0
  6 15  1  0
  5  6  1  6
  7  6  2  0
  9 10  2  0
  9  8  1  0
 11 10  1  0
 12 11  2  0
 13 12  1  0
 14 13  1  1
 14 15  1  0
 16 14  1  0
 16 17  2  0
 18 12  1  0
 18 19  2  0
 19  9  1  0
 20 21  1  0
 22 23  1  0
 22 21  1  6
 23 16  1  0
 24 22  1  0
 25 24  1  0
 26 24  2  0
M  END
$$$$
