PYS.pdb
     RDKit          3D

 26 27  0  0  1  0  0  0  0  0999 V2000
   24.3484   -7.4723  -20.7921 N   0  0  0  0  0  0  0  0  0  0  0  0
   24.7225   -8.2189  -21.9795 C   0  0  0  0  0  0  0  0  0  0  0  0
   24.3062   -9.6500  -21.7438 C   0  0  0  0  0  0  0  0  0  0  0  0
   23.5892   -9.6079  -20.3985 C   0  0  0  0  0  0  0  0  0  0  0  0
   23.1591   -8.1606  -20.3406 C   0  0  1  0  0  0  0  0  0  0  0  0
   22.7419   -7.7426  -18.9927 C   0  0  0  0  0  0  0  0  0  0  0  0
   21.7952   -8.3713  -18.4148 O   0  0  0  0  0  0  0  0  0  0  0  0
   26.5327  -11.4513  -15.6440 O   0  0  0  0  0  0  0  0  0  0  0  0
   25.9705  -10.1765  -15.7461 C   0  0  0  0  0  0  0  0  0  0  0  0
   24.8116   -9.8839  -15.0728 C   0  0  0  0  0  0  0  0  0  0  0  0
   24.2146   -8.6213  -15.1466 C   0  0  0  0  0  0  0  0  0  0  0  0
   24.7652   -7.6248  -15.8955 C   0  0  0  0  0  0  0  0  0  0  0  0
   24.1983   -6.2594  -16.0089 C   0  0  0  0  0  0  0  0  0  0  0  0
   23.0342   -6.2079  -16.9998 C   0  0  2  0  0  0  0  0  0  0  0  0
   23.3665   -6.6576  -18.3203 N   0  0  0  0  0  0  0  0  0  0  0  0
   22.3261   -4.9103  -16.9608 C   0  0  0  0  0  0  0  0  0  0  0  0
   22.7776   -3.8872  -17.5814 O   0  0  0  0  0  0  0  0  0  0  0  0
   25.9501   -7.9492  -16.5747 C   0  0  0  0  0  0  0  0  0  0  0  0
   26.5393   -9.1851  -16.5060 C   0  0  0  0  0  0  0  0  0  0  0  0
   18.2824   -2.5483  -15.6654 O   0  0  0  0  0  0  0  0  0  0  0  0
   19.0116   -3.7288  -15.7133 C   0  0  0  0  0  0  0  0  0  0  0  0
   20.4092   -3.4283  -16.2745 C   0  0  2  0  0  0  0  0  0  0  0  0
   21.1208   -4.6995  -16.2511 N   0  0  0  0  0  0  0  0  0  0  0  0
   21.0245   -2.4457  -15.3752 C   0  0  0  0  0  0  0  0  0  0  0  0
   20.8815   -1.1045  -15.5966 O   0  0  0  0  0  0  0  0  0  0  0  0
   21.6897   -2.8406  -14.3913 O   0  0  0  0  0  0  0  0  0  0  0  0
  1  2  1  0
  2  3  1  0
  4  3  1  0
  5  4  1  0
  5  1  1  0
  6 15  1  0
  5  6  1  1
  7  6  2  0
  9 10  2  0
  9  8  1  0
 11 10  1  0
 12 11  2  0
 13 12  1  0
 14 13  1  1
 14 15  1  0
 16 14  1  0
 16 17  2  0
 18 12  1  0
 18 19  2  0
 19  9  1  0
 20 21  1  0
 22 23  1  0
 22 21  1  1
 23 16  1  0
 24 22  1  0
 25 24  1  0
 26 24  2  0
M  END
$$$$
