PYS.pdb
     RDKit          3D

 26 27  0  0  1  0  0  0  0  0999 V2000
   27.5999  -21.2353  -17.6943 N   0  0  0  0  0  0  0  0  0  0  0  0
   28.2347  -21.1208  -18.9947 C   0  0  0  0  0  0  0  0  0  0  0  0
   28.0942  -19.6808  -19.4232 C   0  0  0  0  0  0  0  0  0  0  0  0
   27.4367  -19.0030  -18.2258 C   0  0  0  0  0  0  0  0  0  0  0  0
   27.8354  -19.9353  -17.1056 C   0  0  1  0  0  0  0  0  0  0  0  0
   27.0524  -19.7207  -15.8782 C   0  0  0  0  0  0  0  0  0  0  0  0
   27.0966  -18.5818  -15.3068 O   0  0  0  0  0  0  0  0  0  0  0  0
   21.6673  -17.2601  -18.2911 O   0  0  0  0  0  0  0  0  0  0  0  0
   22.2036  -18.1494  -17.3566 C   0  0  0  0  0  0  0  0  0  0  0  0
   22.9529  -19.2176  -17.7803 C   0  0  0  0  0  0  0  0  0  0  0  0
   23.5085  -20.1320  -16.8797 C   0  0  0  0  0  0  0  0  0  0  0  0
   23.3264  -19.9963  -15.5360 C   0  0  0  0  0  0  0  0  0  0  0  0
   23.8966  -20.9159  -14.5223 C   0  0  0  0  0  0  0  0  0  0  0  0
   25.3553  -20.5800  -14.2069 C   0  0  2  0  0  0  0  0  0  0  0  0
   26.2497  -20.7491  -15.3149 N   0  0  0  0  0  0  0  0  0  0  0  0
   25.8149  -21.2153  -12.9532 C   0  0  0  0  0  0  0  0  0  0  0  0
   26.0499  -22.4710  -12.8911 O   0  0  0  0  0  0  0  0  0  0  0  0
   22.5561  -18.8959  -15.1281 C   0  0  0  0  0  0  0  0  0  0  0  0
   22.0091  -17.9968  -16.0066 C   0  0  0  0  0  0  0  0  0  0  0  0
   28.2524  -20.4129  -10.4432 O   0  0  0  0  0  0  0  0  0  0  0  0
   27.1273  -20.5068   -9.6352 C   0  0  0  0  0  0  0  0  0  0  0  0
   25.9870  -21.1452  -10.4418 C   0  0  2  0  0  0  0  0  0  0  0  0
   26.0271  -20.5037  -11.7494 N   0  0  0  0  0  0  0  0  0  0  0  0
   24.7417  -20.8426   -9.7273 C   0  0  0  0  0  0  0  0  0  0  0  0
   23.7318  -20.1523  -10.3371 O   0  0  0  0  0  0  0  0  0  0  0  0
   24.6016  -21.2216   -8.5427 O   0  0  0  0  0  0  0  0  0  0  0  0
  1  2  1  0
  2  3  1  0
  4  3  1  0
  5  4  1  0
  5  1  1  0
  6 15  1  0
  5  6  1  1
  7  6  2  0
  9 10  2  0
  9  8  1  0
 11 10  1  0
 12 11  2  0
 13 12  1  0
 14 13  1  6
 14 15  1  0
 16 14  1  0
 16 17  2  0
 18 12  1  0
 18 19  2  0
 19  9  1  0
 20 21  1  0
 22 23  1  0
 22 21  1  1
 23 16  1  0
 24 22  1  0
 25 24  1  0
 26 24  2  0
M  END
$$$$
