PYS.pdb
     RDKit          3D

 26 27  0  0  1  0  0  0  0  0999 V2000
   29.7307  -20.3518  -10.9827 N   0  0  0  0  0  0  0  0  0  0  0  0
   31.1665  -20.5656  -10.9706 C   0  0  0  0  0  0  0  0  0  0  0  0
   31.4115  -21.8359  -10.1939 C   0  0  0  0  0  0  0  0  0  0  0  0
   30.0110  -22.3501   -9.8779 C   0  0  0  0  0  0  0  0  0  0  0  0
   29.2046  -21.6991  -10.9775 C   0  0  1  0  0  0  0  0  0  0  0  0
   27.7558  -21.7389  -10.7229 C   0  0  0  0  0  0  0  0  0  0  0  0
   27.1625  -22.8671  -10.6967 O   0  0  0  0  0  0  0  0  0  0  0  0
   28.3355  -20.4494   -4.4485 O   0  0  0  0  0  0  0  0  0  0  0  0
   27.5550  -20.2401   -5.5881 C   0  0  0  0  0  0  0  0  0  0  0  0
   27.7955  -19.1552   -6.3924 C   0  0  0  0  0  0  0  0  0  0  0  0
   27.0389  -18.9075   -7.5422 C   0  0  0  0  0  0  0  0  0  0  0  0
   26.0258  -19.7408   -7.9116 C   0  0  0  0  0  0  0  0  0  0  0  0
   25.1927  -19.5510   -9.1233 C   0  0  0  0  0  0  0  0  0  0  0  0
   25.5933  -20.5112  -10.2446 C   0  0  2  0  0  0  0  0  0  0  0  0
   27.0026  -20.5535  -10.5060 N   0  0  0  0  0  0  0  0  0  0  0  0
   24.7570  -20.3382  -11.4518 C   0  0  0  0  0  0  0  0  0  0  0  0
   24.8221  -19.2749  -12.1595 O   0  0  0  0  0  0  0  0  0  0  0  0
   25.7996  -20.8430   -7.0723 C   0  0  0  0  0  0  0  0  0  0  0  0
   26.5380  -21.0903   -5.9441 C   0  0  0  0  0  0  0  0  0  0  0  0
   22.7559  -23.4621  -12.8662 O   0  0  0  0  0  0  0  0  0  0  0  0
   22.9555  -22.4584  -13.8045 C   0  0  0  0  0  0  0  0  0  0  0  0
   22.9974  -21.1035  -13.0829 C   0  0  2  0  0  0  0  0  0  0  0  0
   23.8387  -21.3110  -11.9115 N   0  0  0  0  0  0  0  0  0  0  0  0
   21.6162  -20.7803  -12.7081 C   0  0  0  0  0  0  0  0  0  0  0  0
   20.6741  -20.5116  -13.6613 O   0  0  0  0  0  0  0  0  0  0  0  0
   21.2954  -20.7499  -11.4987 O   0  0  0  0  0  0  0  0  0  0  0  0
  1  2  1  0
  2  3  1  0
  4  3  1  0
  5  4  1  0
  5  1  1  0
  6 15  1  0
  5  6  1  1
  7  6  2  0
  9 10  2  0
  9  8  1  0
 11 10  1  0
 12 11  2  0
 13 12  1  0
 14 13  1  1
 14 15  1  0
 16 14  1  0
 16 17  2  0
 18 12  1  0
 18 19  2  0
 19  9  1  0
 20 21  1  0
 22 23  1  0
 22 21  1  6
 23 16  1  0
 24 22  1  0
 25 24  1  0
 26 24  2  0
M  END
$$$$
