LPV.pdb
     RDKit          3D

 23 23  0  0  1  0  0  0  0  0999 V2000
    6.2171  -18.2005   16.9111 C   0  0  0  0  0  0  0  0  0  0  0  0
    7.0088  -19.1619   17.8031 C   0  0  2  0  0  0  0  0  0  0  0  0
    6.0495  -20.2107   18.2637 C   0  0  0  0  0  0  0  0  0  0  0  0
    7.6569  -18.3418   18.8522 C   0  0  0  0  0  0  0  0  0  0  0  0
    8.6780  -17.3544   18.4083 C   0  0  2  0  0  0  0  0  0  0  0  0
    9.5996  -17.9258   17.5045 N   0  0  0  0  0  0  0  0  0  0  0  0
    9.2691  -16.5935   19.5390 C   0  0  0  0  0  0  0  0  0  0  0  0
   10.4892  -16.8538   19.7718 O   0  0  0  0  0  0  0  0  0  0  0  0
    8.5880  -15.6434   20.3349 N   0  0  0  0  0  0  0  0  0  0  0  0
    7.2152  -15.2650   20.2151 C   0  0  0  0  0  0  0  0  0  0  0  0
    7.0736  -13.9342   20.9036 C   0  0  0  0  0  0  0  0  0  0  0  0
    8.4127  -13.6146   21.4756 C   0  0  0  0  0  0  0  0  0  0  0  0
    9.1790  -14.9155   21.4171 C   0  0  1  0  0  0  0  0  0  0  0  0
    8.9650  -15.5888   22.7325 C   0  0  0  0  0  0  0  0  0  0  0  0
    7.8056  -15.9075   23.1170 O   0  0  0  0  0  0  0  0  0  0  0  0
   12.0216  -17.9584   22.8203 C   0  0  0  0  0  0  0  0  0  0  0  0
   10.6496  -18.2721   23.3762 C   0  0  1  0  0  0  0  0  0  0  0  0
   10.8094  -19.5777   24.1408 C   0  0  0  0  0  0  0  0  0  0  0  0
   10.2558  -17.1418   24.2542 C   0  0  2  0  0  0  0  0  0  0  0  0
   10.0219  -15.8946   23.5902 N   0  0  0  0  0  0  0  0  0  0  0  0
   11.2925  -16.9286   25.2948 C   0  0  0  0  0  0  0  0  0  0  0  0
   12.1501  -15.8442   25.3224 O   0  0  0  0  0  0  0  0  0  0  0  0
   11.4460  -17.7668   26.2455 O   0  0  0  0  0  0  0  0  0  0  0  0
  2  1  1  6
  2  4  1  0
  2  3  1  0
  4  5  1  0
  5  6  1  1
  5  7  1  0
  7  9  1  0
  7  8  2  0
  9 10  1  0
 11 10  1  0
 12 11  1  0
 13 12  1  0
 13 14  1  1
 13  9  1  0
 14 20  1  0
 15 14  2  0
 17 16  1  1
 17 18  1  0
 19 17  1  0
 19 20  1  6
 21 19  1  0
 21 22  1  0
 23 21  2  0
M  END
$$$$
