LPV.pdb
     RDKit          3D

 23 23  0  0  1  0  0  0  0  0999 V2000
    5.2150  -11.9226   25.2138 C   0  0  0  0  0  0  0  0  0  0  0  0
    5.7981  -12.6626   26.4218 C   0  0  2  0  0  0  0  0  0  0  0  0
    6.3273  -11.6195   27.3514 C   0  0  0  0  0  0  0  0  0  0  0  0
    6.7728  -13.6457   25.8957 C   0  0  0  0  0  0  0  0  0  0  0  0
    6.2228  -14.8654   25.2442 C   0  0  2  0  0  0  0  0  0  0  0  0
    5.2374  -15.4853   26.0424 N   0  0  0  0  0  0  0  0  0  0  0  0
    7.2839  -15.7610   24.7162 C   0  0  0  0  0  0  0  0  0  0  0  0
    7.2297  -16.9550   25.1431 O   0  0  0  0  0  0  0  0  0  0  0  0
    8.3029  -15.3829   23.8115 N   0  0  0  0  0  0  0  0  0  0  0  0
    8.4257  -14.1212   23.1516 C   0  0  0  0  0  0  0  0  0  0  0  0
    9.3294  -14.3402   21.9682 C   0  0  0  0  0  0  0  0  0  0  0  0
    9.7645  -15.7647   22.0321 C   0  0  0  0  0  0  0  0  0  0  0  0
    9.4002  -16.2184   23.4266 C   0  0  1  0  0  0  0  0  0  0  0  0
   10.6085  -15.9873   24.2728 C   0  0  0  0  0  0  0  0  0  0  0  0
   11.4897  -15.1508   23.9305 O   0  0  0  0  0  0  0  0  0  0  0  0
   10.4347  -14.7729   28.6619 C   0  0  0  0  0  0  0  0  0  0  0  0
   10.1156  -15.0813   27.2151 C   0  0  1  0  0  0  0  0  0  0  0  0
   10.2611  -13.7596   26.4759 C   0  0  0  0  0  0  0  0  0  0  0  0
   11.0881  -16.1031   26.7527 C   0  0  2  0  0  0  0  0  0  0  0  0
   10.8203  -16.6756   25.4676 N   0  0  0  0  0  0  0  0  0  0  0  0
   11.1712  -17.2036   27.7452 C   0  0  0  0  0  0  0  0  0  0  0  0
   12.0814  -17.2406   28.7856 O   0  0  0  0  0  0  0  0  0  0  0  0
   10.3786  -18.2024   27.6810 O   0  0  0  0  0  0  0  0  0  0  0  0
  2  1  1  6
  2  4  1  0
  2  3  1  0
  4  5  1  0
  5  6  1  1
  5  7  1  0
  7  9  1  0
  7  8  2  0
  9 10  1  0
 11 10  1  0
 12 11  1  0
 13 12  1  0
 13 14  1  1
 13  9  1  0
 14 20  1  0
 15 14  2  0
 17 16  1  1
 17 18  1  0
 19 17  1  0
 19 20  1  6
 21 19  1  0
 21 22  1  0
 23 21  2  0
M  END
$$$$
