LPV.pdb
     RDKit          3D

 23 23  0  0  1  0  0  0  0  0999 V2000
    7.0557  -12.6714   19.9632 C   0  0  0  0  0  0  0  0  0  0  0  0
    7.0637  -14.1592   20.3282 C   0  0  2  0  0  0  0  0  0  0  0  0
    5.7422  -14.7134   19.9057 C   0  0  0  0  0  0  0  0  0  0  0  0
    7.3960  -14.2479   21.7687 C   0  0  0  0  0  0  0  0  0  0  0  0
    8.7371  -13.7573   22.1879 C   0  0  2  0  0  0  0  0  0  0  0  0
    9.7278  -14.0608   21.2293 N   0  0  0  0  0  0  0  0  0  0  0  0
    9.0652  -14.1153   23.5918 C   0  0  0  0  0  0  0  0  0  0  0  0
   10.2018  -14.6581   23.7478 O   0  0  0  0  0  0  0  0  0  0  0  0
    8.2286  -13.9002   24.7114 N   0  0  0  0  0  0  0  0  0  0  0  0
    6.8427  -13.5526   24.6801 C   0  0  0  0  0  0  0  0  0  0  0  0
    6.5149  -12.9676   26.0275 C   0  0  0  0  0  0  0  0  0  0  0  0
    7.7607  -13.0657   26.8405 C   0  0  0  0  0  0  0  0  0  0  0  0
    8.6480  -14.0198   26.0753 C   0  0  1  0  0  0  0  0  0  0  0  0
    8.3799  -15.3798   26.6302 C   0  0  0  0  0  0  0  0  0  0  0  0
    7.2617  -15.9405   26.4608 O   0  0  0  0  0  0  0  0  0  0  0  0
    9.9276  -17.8869   25.1644 C   0  0  0  0  0  0  0  0  0  0  0  0
   10.3734  -18.1909   26.5781 C   0  0  1  0  0  0  0  0  0  0  0  0
   11.7891  -17.6441   26.6845 C   0  0  0  0  0  0  0  0  0  0  0  0
    9.4287  -17.5102   27.4989 C   0  0  2  0  0  0  0  0  0  0  0  0
    9.3393  -16.0882   27.3540 N   0  0  0  0  0  0  0  0  0  0  0  0
    9.7915  -17.8135   28.9058 C   0  0  0  0  0  0  0  0  0  0  0  0
    9.6428  -19.0568   29.4928 O   0  0  0  0  0  0  0  0  0  0  0  0
   10.2737  -16.9081   29.6659 O   0  0  0  0  0  0  0  0  0  0  0  0
  2  1  1  1
  2  4  1  0
  2  3  1  0
  4  5  1  0
  5  6  1  6
  5  7  1  0
  7  9  1  0
  7  8  2  0
  9 10  1  0
 11 10  1  0
 12 11  1  0
 13 12  1  0
 13 14  1  1
 13  9  1  0
 14 20  1  0
 15 14  2  0
 17 16  1  6
 17 18  1  0
 19 17  1  0
 19 20  1  1
 21 19  1  0
 21 22  1  0
 23 21  2  0
M  END
$$$$
