LPV.pdb
     RDKit          3D

 23 23  0  0  1  0  0  0  0  0999 V2000
    6.5411  -12.3038   27.1110 C   0  0  0  0  0  0  0  0  0  0  0  0
    6.6767  -13.1833   25.8640 C   0  0  2  0  0  0  0  0  0  0  0  0
    6.4992  -12.2859   24.6828 C   0  0  0  0  0  0  0  0  0  0  0  0
    5.7073  -14.2932   26.0118 C   0  0  0  0  0  0  0  0  0  0  0  0
    5.7819  -15.3971   25.0166 C   0  0  2  0  0  0  0  0  0  0  0  0
    4.7479  -16.3398   25.2030 N   0  0  0  0  0  0  0  0  0  0  0  0
    7.1511  -15.9578   24.8842 C   0  0  0  0  0  0  0  0  0  0  0  0
    7.3827  -16.9678   25.6171 O   0  0  0  0  0  0  0  0  0  0  0  0
    8.1645  -15.4586   24.0335 N   0  0  0  0  0  0  0  0  0  0  0  0
    8.1763  -14.1850   23.3852 C   0  0  0  0  0  0  0  0  0  0  0  0
    9.1568  -14.2895   22.2483 C   0  0  0  0  0  0  0  0  0  0  0  0
    9.7469  -15.6562   22.3291 C   0  0  0  0  0  0  0  0  0  0  0  0
    9.3673  -16.1611   23.7017 C   0  0  1  0  0  0  0  0  0  0  0  0
   10.4979  -15.8028   24.6087 C   0  0  0  0  0  0  0  0  0  0  0  0
   11.2896  -14.8634   24.3185 O   0  0  0  0  0  0  0  0  0  0  0  0
   10.9269  -14.4606   28.9443 C   0  0  0  0  0  0  0  0  0  0  0  0
   10.4349  -14.7520   27.5432 C   0  0  1  0  0  0  0  0  0  0  0  0
   10.6990  -13.4826   26.7473 C   0  0  0  0  0  0  0  0  0  0  0  0
   11.2046  -15.9147   27.0339 C   0  0  2  0  0  0  0  0  0  0  0  0
   10.7320  -16.4799   25.8058 N   0  0  0  0  0  0  0  0  0  0  0  0
   11.2335  -16.9869   28.0598 C   0  0  0  0  0  0  0  0  0  0  0  0
   12.3298  -17.2688   28.8542 O   0  0  0  0  0  0  0  0  0  0  0  0
   10.2117  -17.7248   28.2626 O   0  0  0  0  0  0  0  0  0  0  0  0
  2  1  1  1
  2  4  1  0
  2  3  1  0
  4  5  1  0
  5  6  1  1
  5  7  1  0
  7  9  1  0
  7  8  2  0
  9 10  1  0
 11 10  1  0
 12 11  1  0
 13 12  1  0
 13 14  1  1
 13  9  1  0
 14 20  1  0
 15 14  2  0
 17 16  1  1
 17 18  1  0
 19 17  1  0
 19 20  1  6
 21 19  1  0
 21 22  1  0
 23 21  2  0
M  END
$$$$
