LPV.pdb
     RDKit          3D

 23 23  0  0  1  0  0  0  0  0999 V2000
    8.2157  -12.9845   27.2109 C   0  0  0  0  0  0  0  0  0  0  0  0
    7.3087  -13.3910   26.0453 C   0  0  2  0  0  0  0  0  0  0  0  0
    6.5749  -12.1605   25.6212 C   0  0  0  0  0  0  0  0  0  0  0  0
    6.4874  -14.5304   26.5150 C   0  0  0  0  0  0  0  0  0  0  0  0
    5.9825  -15.4752   25.4820 C   0  0  2  0  0  0  0  0  0  0  0  0
    5.1239  -16.4478   26.0381 N   0  0  0  0  0  0  0  0  0  0  0  0
    7.0618  -15.9932   24.6026 C   0  0  0  0  0  0  0  0  0  0  0  0
    7.5531  -17.1054   24.9664 O   0  0  0  0  0  0  0  0  0  0  0  0
    7.5532  -15.3532   23.4411 N   0  0  0  0  0  0  0  0  0  0  0  0
    7.2732  -14.0141   23.0280 C   0  0  0  0  0  0  0  0  0  0  0  0
    7.5898  -13.9416   21.5585 C   0  0  0  0  0  0  0  0  0  0  0  0
    8.1259  -15.2802   21.1795 C   0  0  0  0  0  0  0  0  0  0  0  0
    8.4404  -15.9571   22.4932 C   0  0  1  0  0  0  0  0  0  0  0  0
    9.8723  -15.6548   22.7895 C   0  0  0  0  0  0  0  0  0  0  0  0
   10.2251  -14.5088   23.1841 O   0  0  0  0  0  0  0  0  0  0  0  0
   13.3946  -17.9906   25.0505 C   0  0  0  0  0  0  0  0  0  0  0  0
   12.0741  -17.9856   24.3114 C   0  0  1  0  0  0  0  0  0  0  0  0
   11.0032  -17.9786   25.3920 C   0  0  0  0  0  0  0  0  0  0  0  0
   12.0407  -16.7646   23.4679 C   0  0  2  0  0  0  0  0  0  0  0  0
   10.8776  -16.6114   22.6463 N   0  0  0  0  0  0  0  0  0  0  0  0
   13.2384  -16.7254   22.5922 C   0  0  0  0  0  0  0  0  0  0  0  0
   14.3248  -15.8961   22.8030 O   0  0  0  0  0  0  0  0  0  0  0  0
   13.3234  -17.4818   21.5672 O   0  0  0  0  0  0  0  0  0  0  0  0
  2  1  1  1
  2  4  1  0
  2  3  1  0
  4  5  1  0
  5  6  1  1
  5  7  1  0
  7  9  1  0
  7  8  2  0
  9 10  1  0
 11 10  1  0
 12 11  1  0
 13 12  1  0
 13 14  1  1
 13  9  1  0
 14 20  1  0
 15 14  2  0
 17 16  1  1
 17 18  1  0
 19 17  1  0
 19 20  1  6
 21 19  1  0
 21 22  1  0
 23 21  2  0
M  END
$$$$
