LPV.pdb
     RDKit          3D

 23 23  0  0  1  0  0  0  0  0999 V2000
    6.1970  -11.2517   25.4288 C   0  0  0  0  0  0  0  0  0  0  0  0
    6.0053  -12.3486   26.4809 C   0  0  2  0  0  0  0  0  0  0  0  0
    6.3536  -11.7438   27.8019 C   0  0  0  0  0  0  0  0  0  0  0  0
    6.8128  -13.5107   26.0441 C   0  0  0  0  0  0  0  0  0  0  0  0
    6.1432  -14.5138   25.1721 C   0  0  2  0  0  0  0  0  0  0  0  0
    4.9327  -14.9713   25.7359 N   0  0  0  0  0  0  0  0  0  0  0  0
    7.0730  -15.5692   24.6943 C   0  0  0  0  0  0  0  0  0  0  0  0
    6.8266  -16.7324   25.1382 O   0  0  0  0  0  0  0  0  0  0  0  0
    8.1645  -15.3672   23.8180 N   0  0  0  0  0  0  0  0  0  0  0  0
    8.4307  -14.1901   23.0525 C   0  0  0  0  0  0  0  0  0  0  0  0
    9.3681  -14.5977   21.9479 C   0  0  0  0  0  0  0  0  0  0  0  0
    9.6715  -16.0407   22.1678 C   0  0  0  0  0  0  0  0  0  0  0  0
    9.2008  -16.3250   23.5752 C   0  0  1  0  0  0  0  0  0  0  0  0
   10.3820  -16.1149   24.4639 C   0  0  0  0  0  0  0  0  0  0  0  0
   11.3342  -15.3650   24.1108 O   0  0  0  0  0  0  0  0  0  0  0  0
   10.2059  -14.6711   28.8238 C   0  0  0  0  0  0  0  0  0  0  0  0
    9.7843  -15.1136   27.4394 C   0  0  1  0  0  0  0  0  0  0  0  0
    9.7544  -13.8459   26.5988 C   0  0  0  0  0  0  0  0  0  0  0  0
   10.7915  -16.0926   26.9590 C   0  0  2  0  0  0  0  0  0  0  0  0
   10.4903  -16.7290   25.7118 N   0  0  0  0  0  0  0  0  0  0  0  0
   10.9959  -17.1473   27.9831 C   0  0  0  0  0  0  0  0  0  0  0  0
   11.9694  -17.0956   28.9639 O   0  0  0  0  0  0  0  0  0  0  0  0
   10.2567  -18.1879   28.0058 O   0  0  0  0  0  0  0  0  0  0  0  0
  2  1  1  6
  2  4  1  0
  2  3  1  0
  4  5  1  0
  5  6  1  1
  5  7  1  0
  7  9  1  0
  7  8  2  0
  9 10  1  0
 11 10  1  0
 12 11  1  0
 13 12  1  0
 13 14  1  1
 13  9  1  0
 14 20  1  0
 15 14  2  0
 17 16  1  1
 17 18  1  0
 19 17  1  0
 19 20  1  6
 21 19  1  0
 21 22  1  0
 23 21  2  0
M  END
$$$$
