LPV.pdb
     RDKit          3D

 23 23  0  0  1  0  0  0  0  0999 V2000
    6.3523  -12.2174   24.9185 C   0  0  0  0  0  0  0  0  0  0  0  0
    5.8289  -13.0941   26.0606 C   0  0  2  0  0  0  0  0  0  0  0  0
    5.9000  -12.2690   27.3041 C   0  0  0  0  0  0  0  0  0  0  0  0
    6.6216  -14.3449   26.0421 C   0  0  0  0  0  0  0  0  0  0  0  0
    6.2775  -15.3517   25.0015 C   0  0  2  0  0  0  0  0  0  0  0  0
    5.0838  -16.0378   25.3124 N   0  0  0  0  0  0  0  0  0  0  0  0
    7.4339  -16.2049   24.6251 C   0  0  0  0  0  0  0  0  0  0  0  0
    7.3576  -17.4067   25.0260 O   0  0  0  0  0  0  0  0  0  0  0  0
    8.5612  -15.7805   23.8843 N   0  0  0  0  0  0  0  0  0  0  0  0
    8.7288  -14.5123   23.2471 C   0  0  0  0  0  0  0  0  0  0  0  0
    9.8099  -14.6883   22.2151 C   0  0  0  0  0  0  0  0  0  0  0  0
   10.2905  -16.0933   22.3482 C   0  0  0  0  0  0  0  0  0  0  0  0
    9.7387  -16.5672   23.6725 C   0  0  1  0  0  0  0  0  0  0  0  0
   10.7938  -16.2881   24.6915 C   0  0  0  0  0  0  0  0  0  0  0  0
   11.8335  -15.6398   24.3878 O   0  0  0  0  0  0  0  0  0  0  0  0
   10.6039  -14.2765   28.8251 C   0  0  0  0  0  0  0  0  0  0  0  0
   10.3431  -14.7119   27.3995 C   0  0  1  0  0  0  0  0  0  0  0  0
   10.8908  -13.5932   26.5260 C   0  0  0  0  0  0  0  0  0  0  0  0
   11.0532  -15.9985   27.1900 C   0  0  2  0  0  0  0  0  0  0  0  0
   10.6841  -16.7246   26.0120 N   0  0  0  0  0  0  0  0  0  0  0  0
   10.8500  -16.8822   28.3650 C   0  0  0  0  0  0  0  0  0  0  0  0
   11.7130  -16.9465   29.4437 O   0  0  0  0  0  0  0  0  0  0  0  0
    9.8335  -17.6514   28.4360 O   0  0  0  0  0  0  0  0  0  0  0  0
  2  1  1  6
  2  4  1  0
  2  3  1  0
  4  5  1  0
  5  6  1  1
  5  7  1  0
  7  9  1  0
  7  8  2  0
  9 10  1  0
 11 10  1  0
 12 11  1  0
 13 12  1  0
 13 14  1  1
 13  9  1  0
 14 20  1  0
 15 14  2  0
 17 16  1  1
 17 18  1  0
 19 17  1  0
 19 20  1  6
 21 19  1  0
 21 22  1  0
 23 21  2  0
M  END
$$$$
