LPV.pdb
     RDKit          3D

 23 23  0  0  1  0  0  0  0  0999 V2000
    7.1097  -12.9208   27.4402 C   0  0  0  0  0  0  0  0  0  0  0  0
    6.9316  -13.4500   26.0136 C   0  0  2  0  0  0  0  0  0  0  0  0
    6.6788  -12.2628   25.1424 C   0  0  0  0  0  0  0  0  0  0  0  0
    5.8682  -14.4795   26.0654 C   0  0  0  0  0  0  0  0  0  0  0  0
    5.8567  -15.4990   24.9813 C   0  0  2  0  0  0  0  0  0  0  0  0
    4.8122  -16.4329   25.1531 N   0  0  0  0  0  0  0  0  0  0  0  0
    7.2013  -16.0742   24.7211 C   0  0  0  0  0  0  0  0  0  0  0  0
    7.4190  -17.1888   25.2878 O   0  0  0  0  0  0  0  0  0  0  0  0
    8.2064  -15.4839   23.9203 N   0  0  0  0  0  0  0  0  0  0  0  0
    8.1452  -14.2025   23.2906 C   0  0  0  0  0  0  0  0  0  0  0  0
    9.1760  -14.2117   22.1941 C   0  0  0  0  0  0  0  0  0  0  0  0
    9.8669  -15.5300   22.2806 C   0  0  0  0  0  0  0  0  0  0  0  0
    9.4726  -16.0858   23.6291 C   0  0  1  0  0  0  0  0  0  0  0  0
   10.5343  -15.6568   24.5873 C   0  0  0  0  0  0  0  0  0  0  0  0
   11.2798  -14.6710   24.3305 O   0  0  0  0  0  0  0  0  0  0  0  0
   10.4544  -14.3240   28.9510 C   0  0  0  0  0  0  0  0  0  0  0  0
   10.0437  -14.7317   27.5528 C   0  0  1  0  0  0  0  0  0  0  0  0
   10.0394  -13.4462   26.7391 C   0  0  0  0  0  0  0  0  0  0  0  0
   11.0442  -15.7129   27.0632 C   0  0  2  0  0  0  0  0  0  0  0  0
   10.7520  -16.3158   25.7974 N   0  0  0  0  0  0  0  0  0  0  0  0
   11.2202  -16.7939   28.0649 C   0  0  0  0  0  0  0  0  0  0  0  0
   12.2278  -16.8153   29.0119 O   0  0  0  0  0  0  0  0  0  0  0  0
   10.4216  -17.7894   28.0990 O   0  0  0  0  0  0  0  0  0  0  0  0
  2  1  1  1
  2  4  1  0
  2  3  1  0
  4  5  1  0
  5  6  1  1
  5  7  1  0
  7  9  1  0
  7  8  2  0
  9 10  1  0
 11 10  1  0
 12 11  1  0
 13 12  1  0
 13 14  1  1
 13  9  1  0
 14 20  1  0
 15 14  2  0
 17 16  1  1
 17 18  1  0
 19 17  1  0
 19 20  1  6
 21 19  1  0
 21 22  1  0
 23 21  2  0
M  END
$$$$
