KDF.pdb
     RDKit          3D

 29 29  0  0  1  0  0  0  0  0999 V2000
    9.4777  -13.8901   19.5001 N   0  0  0  0  0  0  0  0  0  0  0  0
    8.3301  -13.7209   20.4054 C   0  0  1  0  0  0  0  0  0  0  0  0
    7.0874  -13.7355   19.5418 C   0  0  0  0  0  0  0  0  0  0  0  0
    7.3367  -14.2560   18.1734 C   0  0  0  0  0  0  0  0  0  0  0  0
    8.0781  -13.3409   17.2613 C   0  0  0  0  0  0  0  0  0  0  0  0
    8.0732  -13.7720   15.8210 C   0  0  0  0  0  0  0  0  0  0  0  0
    8.8592  -12.8692   15.0025 N   0  0  0  0  0  0  0  0  0  0  0  0
    8.3725  -14.8845   21.3277 C   0  0  0  0  0  0  0  0  0  0  0  0
    7.4037  -15.2901   21.9945 O   0  0  0  0  0  0  0  0  0  0  0  0
    9.6210  -15.5969   21.4633 N   0  0  0  0  0  0  0  0  0  0  0  0
    9.7566  -16.6833   22.4085 C   0  0  1  0  0  0  0  0  0  0  0  0
   10.9695  -17.5211   22.1171 C   0  0  0  0  0  0  0  0  0  0  0  0
   10.8446  -18.2550   20.8385 C   0  0  0  0  0  0  0  0  0  0  0  0
   11.8079  -18.4339   20.0566 O   0  0  0  0  0  0  0  0  0  0  0  0
    9.8429  -16.1957   23.8047 C   0  0  0  0  0  0  0  0  0  0  0  0
   10.7868  -15.4708   24.2088 O   0  0  0  0  0  0  0  0  0  0  0  0
    9.6109  -18.7743   20.4757 O   0  0  0  0  0  0  0  0  0  0  0  0
    8.8353  -16.5448   24.7437 N   0  0  0  0  0  0  0  0  0  0  0  0
    8.9166  -16.1793   26.1328 C   0  0  1  0  0  0  0  0  0  0  0  0
    7.5398  -15.7318   26.5943 C   0  0  0  0  0  0  0  0  0  0  0  0
    7.2679  -14.3319   26.2620 C   0  0  0  0  0  0  0  0  0  0  0  0
    6.2198  -14.0147   25.4263 C   0  0  0  0  0  0  0  0  0  0  0  0
    5.9295  -12.7183   25.0888 C   0  0  0  0  0  0  0  0  0  0  0  0
    6.6900  -11.6931   25.5851 C   0  0  0  0  0  0  0  0  0  0  0  0
    7.7409  -12.0112   26.4231 C   0  0  0  0  0  0  0  0  0  0  0  0
    8.0363  -13.3080   26.7645 C   0  0  0  0  0  0  0  0  0  0  0  0
    9.4213  -17.2941   26.9506 C   0  0  0  0  0  0  0  0  0  0  0  0
    9.7455  -17.0521   28.2747 O   0  0  0  0  0  0  0  0  0  0  0  0
    9.5805  -18.4593   26.5304 O   0  0  0  0  0  0  0  0  0  0  0  0
  2  1  1  6
  2  3  1  0
  4  3  1  0
  4  5  1  0
  6  7  1  0
  6  5  1  0
  8  2  1  0
  9  8  2  0
 10  8  1  0
 11 10  1  0
 11 12  1  6
 12 13  1  0
 13 17  1  0
 14 13  2  0
 15 16  2  0
 15 11  1  0
 18 15  1  0
 19 18  1  0
 19 20  1  1
 20 21  1  0
 21 26  2  0
 21 22  1  0
 22 23  2  0
 23 24  1  0
 25 24  2  0
 26 25  1  0
 27 28  1  0
 27 19  1  0
 29 27  2  0
M  END
$$$$
