KDF.pdb
     RDKit          3D

 29 29  0  0  1  0  0  0  0  0999 V2000
    9.2802  -15.4403   19.0057 N   0  0  0  0  0  0  0  0  0  0  0  0
    8.9273  -14.4382   20.0236 C   0  0  1  0  0  0  0  0  0  0  0  0
    7.6742  -13.7436   19.5361 C   0  0  0  0  0  0  0  0  0  0  0  0
    7.3811  -14.0107   18.1049 C   0  0  0  0  0  0  0  0  0  0  0  0
    8.3856  -13.4931   17.1343 C   0  0  0  0  0  0  0  0  0  0  0  0
    8.0007  -13.6802   15.6930 C   0  0  0  0  0  0  0  0  0  0  0  0
    9.0043  -13.1226   14.8073 N   0  0  0  0  0  0  0  0  0  0  0  0
    8.6811  -15.2046   21.2719 C   0  0  0  0  0  0  0  0  0  0  0  0
    8.0211  -14.7828   22.2385 O   0  0  0  0  0  0  0  0  0  0  0  0
    9.2437  -16.5302   21.3757 N   0  0  0  0  0  0  0  0  0  0  0  0
    9.1578  -17.2783   22.6105 C   0  0  1  0  0  0  0  0  0  0  0  0
    9.5976  -18.7031   22.4252 C   0  0  0  0  0  0  0  0  0  0  0  0
    9.0684  -19.2905   21.1747 C   0  0  0  0  0  0  0  0  0  0  0  0
    7.8471  -19.4946   20.9792 O   0  0  0  0  0  0  0  0  0  0  0  0
    9.9729  -16.6677   23.6864 C   0  0  0  0  0  0  0  0  0  0  0  0
   11.1874  -16.3824   23.5330 O   0  0  0  0  0  0  0  0  0  0  0  0
    9.9528  -19.6361   20.1639 O   0  0  0  0  0  0  0  0  0  0  0  0
    9.3865  -16.3831   24.9488 N   0  0  0  0  0  0  0  0  0  0  0  0
   10.1187  -15.7510   26.0137 C   0  0  1  0  0  0  0  0  0  0  0  0
    9.9417  -14.2467   25.8931 C   0  0  0  0  0  0  0  0  0  0  0  0
    8.5721  -13.8209   26.1881 C   0  0  0  0  0  0  0  0  0  0  0  0
    8.2654  -13.3011   27.4264 C   0  0  0  0  0  0  0  0  0  0  0  0
    6.9973  -12.8903   27.7456 C   0  0  0  0  0  0  0  0  0  0  0  0
    5.9908  -12.9903   26.8222 C   0  0  0  0  0  0  0  0  0  0  0  0
    6.2983  -13.5114   25.5806 C   0  0  0  0  0  0  0  0  0  0  0  0
    7.5667  -13.9245   25.2555 C   0  0  0  0  0  0  0  0  0  0  0  0
    9.6776  -16.2400   27.3300 C   0  0  0  0  0  0  0  0  0  0  0  0
   10.3943  -15.8620   28.4527 O   0  0  0  0  0  0  0  0  0  0  0  0
    8.6892  -16.9818   27.5100 O   0  0  0  0  0  0  0  0  0  0  0  0
  2  1  1  6
  2  3  1  0
  4  3  1  0
  4  5  1  0
  6  7  1  0
  6  5  1  0
  8  2  1  0
  9  8  2  0
 10  8  1  0
 11 10  1  0
 11 12  1  6
 12 13  1  0
 13 17  1  0
 14 13  2  0
 15 16  2  0
 15 11  1  0
 18 15  1  0
 19 18  1  0
 19 20  1  1
 20 21  1  0
 21 26  2  0
 21 22  1  0
 22 23  2  0
 23 24  1  0
 25 24  2  0
 26 25  1  0
 27 28  1  0
 27 19  1  0
 29 27  2  0
M  END
$$$$
