KDF.pdb
     RDKit          3D

 29 29  0  0  1  0  0  0  0  0999 V2000
    9.0434  -14.9647   19.7735 N   0  0  0  0  0  0  0  0  0  0  0  0
    8.6569  -14.2464   20.9981 C   0  0  1  0  0  0  0  0  0  0  0  0
    7.2198  -13.8099   20.8126 C   0  0  0  0  0  0  0  0  0  0  0  0
    6.7644  -13.8937   19.4015 C   0  0  0  0  0  0  0  0  0  0  0  0
    7.7077  -13.3465   18.3867 C   0  0  0  0  0  0  0  0  0  0  0  0
    7.2277  -13.4772   16.9679 C   0  0  0  0  0  0  0  0  0  0  0  0
    8.1952  -12.9306   16.0364 N   0  0  0  0  0  0  0  0  0  0  0  0
    8.7943  -15.2319   22.1009 C   0  0  0  0  0  0  0  0  0  0  0  0
    7.9159  -15.4648   22.9505 O   0  0  0  0  0  0  0  0  0  0  0  0
   10.0297  -15.9728   22.1980 N   0  0  0  0  0  0  0  0  0  0  0  0
   10.2056  -16.9934   23.2076 C   0  0  1  0  0  0  0  0  0  0  0  0
   11.4578  -17.7907   22.9751 C   0  0  0  0  0  0  0  0  0  0  0  0
   11.4936  -18.3884   21.6221 C   0  0  0  0  0  0  0  0  0  0  0  0
   10.5489  -19.0620   21.1476 O   0  0  0  0  0  0  0  0  0  0  0  0
   10.2567  -16.4199   24.5726 C   0  0  0  0  0  0  0  0  0  0  0  0
   11.1171  -15.5701   24.9153 O   0  0  0  0  0  0  0  0  0  0  0  0
   12.6178  -18.2028   20.8314 O   0  0  0  0  0  0  0  0  0  0  0  0
    9.3105  -16.8270   25.5512 N   0  0  0  0  0  0  0  0  0  0  0  0
    9.4301  -16.4618   26.9375 C   0  0  1  0  0  0  0  0  0  0  0  0
    8.0753  -15.9777   27.4266 C   0  0  0  0  0  0  0  0  0  0  0  0
    7.7575  -14.6315   26.9461 C   0  0  0  0  0  0  0  0  0  0  0  0
    6.6341  -14.4236   26.1765 C   0  0  0  0  0  0  0  0  0  0  0  0
    6.2985  -13.1809   25.7056 C   0  0  0  0  0  0  0  0  0  0  0  0
    7.0885  -12.1006   25.9963 C   0  0  0  0  0  0  0  0  0  0  0  0
    8.2149  -12.3090   26.7680 C   0  0  0  0  0  0  0  0  0  0  0  0
    8.5558  -13.5516   27.2423 C   0  0  0  0  0  0  0  0  0  0  0  0
    9.9222  -17.5883   27.7469 C   0  0  0  0  0  0  0  0  0  0  0  0
   10.2617  -17.3571   29.0692 O   0  0  0  0  0  0  0  0  0  0  0  0
   10.0577  -18.7545   27.3211 O   0  0  0  0  0  0  0  0  0  0  0  0
  2  1  1  6
  2  3  1  0
  4  3  1  0
  4  5  1  0
  6  7  1  0
  6  5  1  0
  8  2  1  0
  9  8  2  0
 10  8  1  0
 11 10  1  0
 11 12  1  6
 12 13  1  0
 13 17  1  0
 14 13  2  0
 15 16  2  0
 15 11  1  0
 18 15  1  0
 19 18  1  0
 19 20  1  1
 20 21  1  0
 21 26  2  0
 21 22  1  0
 22 23  2  0
 23 24  1  0
 25 24  2  0
 26 25  1  0
 27 28  1  0
 27 19  1  0
 29 27  2  0
M  END
$$$$
