KDF.pdb
     RDKit          3D

 29 29  0  0  1  0  0  0  0  0999 V2000
    9.4817  -14.1858   19.1606 N   0  0  0  0  0  0  0  0  0  0  0  0
    8.3593  -13.8205   20.0390 C   0  0  1  0  0  0  0  0  0  0  0  0
    7.1098  -13.8506   19.1857 C   0  0  0  0  0  0  0  0  0  0  0  0
    7.2858  -13.1780   17.8734 C   0  0  0  0  0  0  0  0  0  0  0  0
    7.5034  -14.0827   16.7100 C   0  0  0  0  0  0  0  0  0  0  0  0
    7.5425  -13.3780   15.3825 C   0  0  0  0  0  0  0  0  0  0  0  0
    7.9423  -14.2827   14.3222 N   0  0  0  0  0  0  0  0  0  0  0  0
    8.3260  -14.8597   21.0997 C   0  0  0  0  0  0  0  0  0  0  0  0
    7.3600  -15.0623   21.8570 O   0  0  0  0  0  0  0  0  0  0  0  0
    9.4919  -15.6946   21.2677 N   0  0  0  0  0  0  0  0  0  0  0  0
    9.4939  -16.7838   22.2192 C   0  0  1  0  0  0  0  0  0  0  0  0
   10.6023  -17.7593   21.9401 C   0  0  0  0  0  0  0  0  0  0  0  0
   10.5312  -18.9482   22.8180 C   0  0  0  0  0  0  0  0  0  0  0  0
   11.5464  -19.5752   23.2024 O   0  0  0  0  0  0  0  0  0  0  0  0
    9.6281  -16.3016   23.6135 C   0  0  0  0  0  0  0  0  0  0  0  0
   10.6514  -15.6970   24.0224 O   0  0  0  0  0  0  0  0  0  0  0  0
    9.2910  -19.4006   23.2429 O   0  0  0  0  0  0  0  0  0  0  0  0
    8.5769  -16.5166   24.5449 N   0  0  0  0  0  0  0  0  0  0  0  0
    8.6831  -16.1356   25.9281 C   0  0  1  0  0  0  0  0  0  0  0  0
    7.3183  -15.6673   26.4046 C   0  0  0  0  0  0  0  0  0  0  0  0
    7.1897  -14.2090   26.3816 C   0  0  0  0  0  0  0  0  0  0  0  0
    8.3169  -13.4185   26.4284 C   0  0  0  0  0  0  0  0  0  0  0  0
    8.2432  -12.0500   26.4093 C   0  0  0  0  0  0  0  0  0  0  0  0
    7.0242  -11.4293   26.3419 C   0  0  0  0  0  0  0  0  0  0  0  0
    5.8939  -12.2218   26.2950 C   0  0  0  0  0  0  0  0  0  0  0  0
    5.9620  -13.5931   26.3139 C   0  0  0  0  0  0  0  0  0  0  0  0
    9.1877  -17.2461   26.7516 C   0  0  0  0  0  0  0  0  0  0  0  0
    9.6862  -16.9643   28.0123 O   0  0  0  0  0  0  0  0  0  0  0  0
    9.1991  -18.4415   26.3904 O   0  0  0  0  0  0  0  0  0  0  0  0
  2  1  1  6
  2  3  1  0
  4  3  1  0
  4  5  1  0
  6  7  1  0
  6  5  1  0
  8  2  1  0
  9  8  2  0
 10  8  1  0
 11 10  1  0
 11 12  1  6
 12 13  1  0
 13 17  1  0
 14 13  2  0
 15 16  2  0
 15 11  1  0
 18 15  1  0
 19 18  1  0
 19 20  1  1
 20 21  1  0
 21 26  2  0
 21 22  1  0
 22 23  2  0
 23 24  1  0
 25 24  2  0
 26 25  1  0
 27 28  1  0
 27 19  1  0
 29 27  2  0
M  END
$$$$
