KDF.pdb
     RDKit          3D

 29 29  0  0  1  0  0  0  0  0999 V2000
    9.2915  -13.7680   20.2158 N   0  0  0  0  0  0  0  0  0  0  0  0
    8.1565  -13.8579   21.1478 C   0  0  1  0  0  0  0  0  0  0  0  0
    6.9239  -14.1215   20.3102 C   0  0  0  0  0  0  0  0  0  0  0  0
    7.2435  -14.5788   18.9338 C   0  0  0  0  0  0  0  0  0  0  0  0
    7.8411  -13.5511   18.0362 C   0  0  0  0  0  0  0  0  0  0  0  0
    8.0393  -14.0132   16.6192 C   0  0  0  0  0  0  0  0  0  0  0  0
    6.7704  -14.1431   15.9296 N   0  0  0  0  0  0  0  0  0  0  0  0
    8.4653  -14.9997   22.0462 C   0  0  0  0  0  0  0  0  0  0  0  0
    7.6355  -15.5580   22.7861 O   0  0  0  0  0  0  0  0  0  0  0  0
    9.8197  -15.4996   22.0661 N   0  0  0  0  0  0  0  0  0  0  0  0
   10.1951  -16.5912   22.9375 C   0  0  1  0  0  0  0  0  0  0  0  0
   11.5308  -17.1662   22.5589 C   0  0  0  0  0  0  0  0  0  0  0  0
   11.5474  -17.6646   21.1660 C   0  0  0  0  0  0  0  0  0  0  0  0
   10.8380  -18.6209   20.7741 O   0  0  0  0  0  0  0  0  0  0  0  0
   10.2450  -16.1744   24.3582 C   0  0  0  0  0  0  0  0  0  0  0  0
   11.1477  -15.4255   24.8099 O   0  0  0  0  0  0  0  0  0  0  0  0
   12.3813  -17.0550   20.2406 O   0  0  0  0  0  0  0  0  0  0  0  0
    9.2487  -16.6227   25.2665 N   0  0  0  0  0  0  0  0  0  0  0  0
    9.2581  -16.2631   26.6595 C   0  0  1  0  0  0  0  0  0  0  0  0
    7.8488  -15.8632   27.0631 C   0  0  0  0  0  0  0  0  0  0  0  0
    7.5173  -14.4976   26.6519 C   0  0  0  0  0  0  0  0  0  0  0  0
    6.3371  -14.2470   25.9872 C   0  0  0  0  0  0  0  0  0  0  0  0
    5.9868  -12.9846   25.5840 C   0  0  0  0  0  0  0  0  0  0  0  0
    6.8190  -11.9272   25.8389 C   0  0  0  0  0  0  0  0  0  0  0  0
    8.0024  -12.1784   26.5054 C   0  0  0  0  0  0  0  0  0  0  0  0
    8.3582  -13.4408   26.9115 C   0  0  0  0  0  0  0  0  0  0  0  0
    9.7631  -17.3659   27.4932 C   0  0  0  0  0  0  0  0  0  0  0  0
   10.0499  -18.5778   26.8881 O   0  0  0  0  0  0  0  0  0  0  0  0
    9.9545  -17.2864   28.7247 O   0  0  0  0  0  0  0  0  0  0  0  0
  2  1  1  6
  2  3  1  0
  4  3  1  0
  4  5  1  0
  6  7  1  0
  6  5  1  0
  8  2  1  0
  9  8  2  0
 10  8  1  0
 11 10  1  0
 11 12  1  6
 12 13  1  0
 13 17  1  0
 14 13  2  0
 15 16  2  0
 15 11  1  0
 18 15  1  0
 19 18  1  0
 19 20  1  1
 20 21  1  0
 21 26  2  0
 21 22  1  0
 22 23  2  0
 23 24  1  0
 25 24  2  0
 26 25  1  0
 27 28  1  0
 27 19  1  0
 29 27  2  0
M  END
$$$$
