KDF.pdb
     RDKit          3D

 29 29  0  0  1  0  0  0  0  0999 V2000
    9.5407  -14.4558   19.7235 N   0  0  0  0  0  0  0  0  0  0  0  0
    8.4993  -14.1240   20.7086 C   0  0  1  0  0  0  0  0  0  0  0  0
    7.1686  -14.2704   20.0028 C   0  0  0  0  0  0  0  0  0  0  0  0
    7.3041  -14.4142   18.5309 C   0  0  0  0  0  0  0  0  0  0  0  0
    7.4408  -13.1412   17.7693 C   0  0  0  0  0  0  0  0  0  0  0  0
    7.7239  -13.3288   16.3046 C   0  0  0  0  0  0  0  0  0  0  0  0
    6.5855  -13.9136   15.6230 N   0  0  0  0  0  0  0  0  0  0  0  0
    8.6531  -15.1157   21.8035 C   0  0  0  0  0  0  0  0  0  0  0  0
    7.7648  -15.3983   22.6276 O   0  0  0  0  0  0  0  0  0  0  0  0
    9.9178  -15.8016   21.9244 N   0  0  0  0  0  0  0  0  0  0  0  0
   10.0905  -16.8780   22.8748 C   0  0  1  0  0  0  0  0  0  0  0  0
   11.3767  -17.6194   22.6424 C   0  0  0  0  0  0  0  0  0  0  0  0
   11.3577  -18.3828   21.3752 C   0  0  0  0  0  0  0  0  0  0  0  0
   12.1774  -18.1869   20.4473 O   0  0  0  0  0  0  0  0  0  0  0  0
   10.0716  -16.3907   24.2737 C   0  0  0  0  0  0  0  0  0  0  0  0
   10.9440  -15.6075   24.7268 O   0  0  0  0  0  0  0  0  0  0  0  0
   10.3941  -19.3632   21.1920 O   0  0  0  0  0  0  0  0  0  0  0  0
    9.0410  -16.8075   25.1584 N   0  0  0  0  0  0  0  0  0  0  0  0
    9.0633  -16.5047   26.5646 C   0  0  1  0  0  0  0  0  0  0  0  0
    7.7024  -15.9572   26.9610 C   0  0  0  0  0  0  0  0  0  0  0  0
    7.5943  -14.5145   26.7351 C   0  0  0  0  0  0  0  0  0  0  0  0
    6.4914  -14.0005   26.0894 C   0  0  0  0  0  0  0  0  0  0  0  0
    6.3491  -12.6572   25.8568 C   0  0  0  0  0  0  0  0  0  0  0  0
    7.3190  -11.7827   26.2695 C   0  0  0  0  0  0  0  0  0  0  0  0
    8.4249  -12.2981   26.9169 C   0  0  0  0  0  0  0  0  0  0  0  0
    8.5726  -13.6427   27.1525 C   0  0  0  0  0  0  0  0  0  0  0  0
    9.4184  -17.6901   27.3615 C   0  0  0  0  0  0  0  0  0  0  0  0
    9.5982  -18.8984   26.7097 O   0  0  0  0  0  0  0  0  0  0  0  0
    9.5713  -17.6848   28.6009 O   0  0  0  0  0  0  0  0  0  0  0  0
  2  1  1  6
  2  3  1  0
  4  3  1  0
  4  5  1  0
  6  7  1  0
  6  5  1  0
  8  2  1  0
  9  8  2  0
 10  8  1  0
 11 10  1  0
 11 12  1  6
 12 13  1  0
 13 17  1  0
 14 13  2  0
 15 16  2  0
 15 11  1  0
 18 15  1  0
 19 18  1  0
 19 20  1  1
 20 21  1  0
 21 26  2  0
 21 22  1  0
 22 23  2  0
 23 24  1  0
 25 24  2  0
 26 25  1  0
 27 28  1  0
 27 19  1  0
 29 27  2  0
M  END
$$$$
