KDF.pdb
     RDKit          3D

 29 29  0  0  1  0  0  0  0  0999 V2000
    6.3436  -16.1486   21.1976 N   0  0  0  0  0  0  0  0  0  0  0  0
    7.7372  -15.6778   21.2309 C   0  0  1  0  0  0  0  0  0  0  0  0
    7.6857  -14.1716   21.3692 C   0  0  0  0  0  0  0  0  0  0  0  0
    7.4219  -13.4786   20.0825 C   0  0  0  0  0  0  0  0  0  0  0  0
    8.4120  -13.7332   18.9989 C   0  0  0  0  0  0  0  0  0  0  0  0
    8.1790  -12.9267   17.7516 C   0  0  0  0  0  0  0  0  0  0  0  0
    9.1404  -13.2682   16.7213 N   0  0  0  0  0  0  0  0  0  0  0  0
    8.3482  -16.3189   22.4234 C   0  0  0  0  0  0  0  0  0  0  0  0
    7.7312  -16.5962   23.4675 O   0  0  0  0  0  0  0  0  0  0  0  0
    9.7539  -16.6444   22.3726 N   0  0  0  0  0  0  0  0  0  0  0  0
   10.4076  -17.2875   23.4910 C   0  0  1  0  0  0  0  0  0  0  0  0
   11.6534  -18.0101   23.0620 C   0  0  0  0  0  0  0  0  0  0  0  0
   11.3829  -19.0012   21.9974 C   0  0  0  0  0  0  0  0  0  0  0  0
   10.4021  -19.7814   22.0235 O   0  0  0  0  0  0  0  0  0  0  0  0
   10.7644  -16.3207   24.5553 C   0  0  0  0  0  0  0  0  0  0  0  0
   11.5193  -15.3374   24.3477 O   0  0  0  0  0  0  0  0  0  0  0  0
   12.2460  -19.0819   20.9149 O   0  0  0  0  0  0  0  0  0  0  0  0
   10.2487  -16.4861   25.8688 N   0  0  0  0  0  0  0  0  0  0  0  0
   10.7250  -15.7155   26.9864 C   0  0  1  0  0  0  0  0  0  0  0  0
   10.5166  -14.2421   26.6790 C   0  0  0  0  0  0  0  0  0  0  0  0
    9.1068  -13.8523   26.7463 C   0  0  0  0  0  0  0  0  0  0  0  0
    8.6653  -13.0432   27.7700 C   0  0  0  0  0  0  0  0  0  0  0  0
    7.3550  -12.6540   27.8719 C   0  0  0  0  0  0  0  0  0  0  0  0
    6.4412  -13.0698   26.9402 C   0  0  0  0  0  0  0  0  0  0  0  0
    6.8839  -13.8811   25.9138 C   0  0  0  0  0  0  0  0  0  0  0  0
    8.1952  -14.2739   25.8069 C   0  0  0  0  0  0  0  0  0  0  0  0
   10.0466  -16.1054   28.2329 C   0  0  0  0  0  0  0  0  0  0  0  0
   10.4758  -15.5467   29.4249 O   0  0  0  0  0  0  0  0  0  0  0  0
    9.0981  -16.9155   28.2942 O   0  0  0  0  0  0  0  0  0  0  0  0
  2  1  1  1
  2  3  1  0
  4  3  1  0
  4  5  1  0
  6  7  1  0
  6  5  1  0
  8  2  1  0
  9  8  2  0
 10  8  1  0
 11 10  1  0
 11 12  1  6
 12 13  1  0
 13 17  1  0
 14 13  2  0
 15 16  2  0
 15 11  1  0
 18 15  1  0
 19 18  1  0
 19 20  1  6
 20 21  1  0
 21 26  2  0
 21 22  1  0
 22 23  2  0
 23 24  1  0
 25 24  2  0
 26 25  1  0
 27 28  1  0
 27 19  1  0
 29 27  2  0
M  END
$$$$
