KDF.pdb
     RDKit          3D

 29 29  0  0  1  0  0  0  0  0999 V2000
    9.8289  -14.2954   19.2448 N   0  0  0  0  0  0  0  0  0  0  0  0
    8.8256  -13.7640   20.1809 C   0  0  1  0  0  0  0  0  0  0  0  0
    7.5031  -13.7568   19.4452 C   0  0  0  0  0  0  0  0  0  0  0  0
    7.6154  -13.2527   18.0528 C   0  0  0  0  0  0  0  0  0  0  0  0
    7.7477  -14.2969   16.9985 C   0  0  0  0  0  0  0  0  0  0  0  0
    7.6765  -13.7647   15.5942 C   0  0  0  0  0  0  0  0  0  0  0  0
    7.6774  -14.8439   14.6257 N   0  0  0  0  0  0  0  0  0  0  0  0
    8.8109  -14.7058   21.3294 C   0  0  0  0  0  0  0  0  0  0  0  0
    7.9540  -14.7030   22.2314 O   0  0  0  0  0  0  0  0  0  0  0  0
    9.8604  -15.6941   21.4093 N   0  0  0  0  0  0  0  0  0  0  0  0
    9.9022  -16.6460   22.4973 C   0  0  1  0  0  0  0  0  0  0  0  0
   10.7516  -17.8378   22.1566 C   0  0  0  0  0  0  0  0  0  0  0  0
   10.8757  -18.7759   23.2940 C   0  0  0  0  0  0  0  0  0  0  0  0
    9.9158  -19.4565   23.7261 O   0  0  0  0  0  0  0  0  0  0  0  0
   10.4186  -16.0385   23.7459 C   0  0  0  0  0  0  0  0  0  0  0  0
   11.4628  -15.3394   23.7739 O   0  0  0  0  0  0  0  0  0  0  0  0
   12.1048  -18.9189   23.9203 O   0  0  0  0  0  0  0  0  0  0  0  0
    9.7286  -16.2367   24.9719 N   0  0  0  0  0  0  0  0  0  0  0  0
   10.2485  -15.7764   26.2319 C   0  0  1  0  0  0  0  0  0  0  0  0
   10.2041  -14.2576   26.2452 C   0  0  0  0  0  0  0  0  0  0  0  0
    8.8482  -13.7409   26.4411 C   0  0  0  0  0  0  0  0  0  0  0  0
    8.4914  -13.1876   27.6511 C   0  0  0  0  0  0  0  0  0  0  0  0
    7.2337  -12.6921   27.8782 C   0  0  0  0  0  0  0  0  0  0  0  0
    6.2888  -12.7382   26.8880 C   0  0  0  0  0  0  0  0  0  0  0  0
    6.6465  -13.2930   25.6747 C   0  0  0  0  0  0  0  0  0  0  0  0
    7.9047  -13.7908   25.4417 C   0  0  0  0  0  0  0  0  0  0  0  0
    9.4957  -16.3457   27.3613 C   0  0  0  0  0  0  0  0  0  0  0  0
    8.4676  -17.2336   27.0933 O   0  0  0  0  0  0  0  0  0  0  0  0
    9.7204  -16.0820   28.5611 O   0  0  0  0  0  0  0  0  0  0  0  0
  2  1  1  6
  2  3  1  0
  4  3  1  0
  4  5  1  0
  6  7  1  0
  6  5  1  0
  8  2  1  0
  9  8  2  0
 10  8  1  0
 11 10  1  0
 11 12  1  6
 12 13  1  0
 13 17  1  0
 14 13  2  0
 15 16  2  0
 15 11  1  0
 18 15  1  0
 19 18  1  0
 19 20  1  6
 20 21  1  0
 21 26  2  0
 21 22  1  0
 22 23  2  0
 23 24  1  0
 25 24  2  0
 26 25  1  0
 27 28  1  0
 27 19  1  0
 29 27  2  0
M  END
$$$$
