NRQ.pdb
     RDKit          3D

 29 28  0  0  1  0  0  0  0  0999 V2000
   11.9603  -14.6974   17.3838 N   0  0  0  0  0  0  0  0  0  0  0  0
   12.2505  -13.8574   18.4934 C   0  0  0  0  0  0  0  0  0  0  0  0
   13.3231  -13.1861   18.5595 O   0  0  0  0  0  0  0  0  0  0  0  0
   11.2839  -13.7483   19.6172 C   0  0  0  0  0  0  0  0  0  0  0  0
    9.9538  -14.3757   19.2438 C   0  0  2  0  0  0  0  0  0  0  0  0
    9.2534  -13.3696   18.4530 N   0  0  0  0  0  0  0  0  0  0  0  0
    9.1744  -14.6644   20.4460 C   0  0  0  0  0  0  0  0  0  0  0  0
    8.5333  -13.7319   21.0049 O   0  0  0  0  0  0  0  0  0  0  0  0
    7.9482  -21.2112   23.9264 N   0  0  0  0  0  0  0  0  0  0  0  0
    6.7668  -20.9975   24.6892 C   0  0  0  0  0  0  0  0  0  0  0  0
    6.6339  -21.6145   25.8093 N   0  0  0  0  0  0  0  0  0  0  0  0
    5.7908  -20.1088   24.1701 N   0  0  0  0  0  0  0  0  0  0  0  0
    6.0841  -19.5499   22.8233 C   0  0  0  0  0  0  0  0  0  0  0  0
    6.6848  -18.1997   22.9950 C   0  0  0  0  0  0  0  0  0  0  0  0
    7.5081  -17.6643   21.9127 C   0  0  0  0  0  0  0  0  0  0  0  0
    8.1831  -16.3594   22.0091 C   0  0  2  0  0  0  0  0  0  0  0  0
    9.1216  -15.9965   21.0099 N   0  0  0  0  0  0  0  0  0  0  0  0
    8.7149  -16.0776   23.3889 C   0  0  0  0  0  0  0  0  0  0  0  0
    9.8722  -16.4692   23.6429 O   0  0  0  0  0  0  0  0  0  0  0  0
    5.7770  -21.5037   26.3878 N   0  0  0  0  0  0  0  0  0  0  0  0
    5.4079  -12.6381   27.5447 C   0  0  0  0  0  0  0  0  0  0  0  0
    6.3234  -12.0818   26.6132 O   0  0  0  0  0  0  0  0  0  0  0  0
    6.1681  -10.8694   26.3161 C   0  0  0  0  0  0  0  0  0  0  0  0
    7.4061  -12.8604   26.0114 C   0  0  0  0  0  0  0  0  0  0  0  0
    7.5550  -14.2535   26.4869 C   0  0  2  0  0  0  0  0  0  0  0  0
    8.4855  -15.1318   25.7138 N   0  0  0  0  0  0  0  0  0  0  0  0
    7.9571  -15.4008   24.3714 C   0  0  0  0  0  0  0  0  0  0  0  0
    8.6436  -16.4331   26.3923 O   0  0  0  0  0  0  0  0  0  0  0  0
    9.2127  -16.4873   27.5018 O   0  0  0  0  0  0  0  0  0  0  0  0
  1  2  1  0
  2  3  2  0
  4  5  1  0
  4  2  1  0
  5  7  1  0
  5  6  1  6
  7  8  2  0
 10 12  1  0
 10  9  1  0
 11 10  2  0
 13 14  1  0
 13 12  1  0
 14 15  1  0
 16 15  1  1
 17 16  1  0
 17  7  1  0
 18 19  2  0
 18 16  1  0
 20 21  1  0
 21 22  2  0
 23 21  1  0
 23 24  1  0
 25 24  1  6
 25 27  1  0
 25 26  1  0
 26 18  1  0
 27 29  1  0
 28 27  2  0
M  END
$$$$
