NRQ.pdb
     RDKit          3D

 29 28  0  0  1  0  0  0  0  0999 V2000
    9.4219  -13.7298   16.9397 N   0  0  0  0  0  0  0  0  0  0  0  0
   10.2593  -13.7327   18.0885 C   0  0  0  0  0  0  0  0  0  0  0  0
   11.5060  -13.5217   18.0060 O   0  0  0  0  0  0  0  0  0  0  0  0
    9.6781  -13.9876   19.4325 C   0  0  0  0  0  0  0  0  0  0  0  0
    8.1818  -14.2192   19.3350 C   0  0  2  0  0  0  0  0  0  0  0  0
    7.6062  -12.9254   18.9845 N   0  0  0  0  0  0  0  0  0  0  0  0
    7.6493  -14.6432   20.6284 C   0  0  0  0  0  0  0  0  0  0  0  0
    7.5396  -13.7970   21.5583 O   0  0  0  0  0  0  0  0  0  0  0  0
    2.4316  -20.2691   21.6690 N   0  0  0  0  0  0  0  0  0  0  0  0
    2.3921  -19.7176   20.3585 C   0  0  0  0  0  0  0  0  0  0  0  0
    1.2500  -19.5500   19.7923 N   0  0  0  0  0  0  0  0  0  0  0  0
    3.6234  -19.3795   19.7409 N   0  0  0  0  0  0  0  0  0  0  0  0
    4.8049  -19.3436   20.6437 C   0  0  0  0  0  0  0  0  0  0  0  0
    4.8638  -18.0039   21.2881 C   0  0  0  0  0  0  0  0  0  0  0  0
    5.9847  -17.7119   22.1794 C   0  0  0  0  0  0  0  0  0  0  0  0
    6.7311  -16.4444   22.1155 C   0  0  2  0  0  0  0  0  0  0  0  0
    7.2448  -16.0126   20.8663 N   0  0  0  0  0  0  0  0  0  0  0  0
    7.7620  -16.3184   23.2051 C   0  0  0  0  0  0  0  0  0  0  0  0
    8.9162  -16.7148   22.9443 O   0  0  0  0  0  0  0  0  0  0  0  0
    1.1652  -19.0427   18.8886 N   0  0  0  0  0  0  0  0  0  0  0  0
    8.1469  -11.6321   27.3072 C   0  0  0  0  0  0  0  0  0  0  0  0
    7.0416  -12.5229   27.2932 O   0  0  0  0  0  0  0  0  0  0  0  0
    5.9500  -12.0835   27.7378 C   0  0  0  0  0  0  0  0  0  0  0  0
    7.1403  -13.8934   26.7908 C   0  0  0  0  0  0  0  0  0  0  0  0
    8.4136  -14.2608   26.1329 C   0  0  1  0  0  0  0  0  0  0  0  0
    8.4840  -15.6212   25.5171 N   0  0  0  0  0  0  0  0  0  0  0  0
    7.4616  -15.7780   24.4761 C   0  0  0  0  0  0  0  0  0  0  0  0
    8.2347  -16.6586   26.5371 O   0  0  0  0  0  0  0  0  0  0  0  0
    7.1765  -17.3195   26.5016 O   0  0  0  0  0  0  0  0  0  0  0  0
  1  2  1  0
  2  3  2  0
  4  5  1  0
  4  2  1  0
  5  7  1  0
  5  6  1  1
  7  8  2  0
 10 12  1  0
 10  9  1  0
 11 10  2  0
 13 14  1  0
 13 12  1  0
 14 15  1  0
 16 15  1  6
 17 16  1  0
 17  7  1  0
 18 19  2  0
 18 16  1  0
 20 21  1  0
 21 22  2  0
 23 21  1  0
 23 24  1  0
 25 24  1  6
 25 27  1  0
 25 26  1  0
 26 18  1  0
 27 29  1  0
 28 27  2  0
M  END
$$$$
