NRQ.pdb
     RDKit          3D

 29 28  0  0  1  0  0  0  0  0999 V2000
   15.6597  -14.7024   17.7279 N   0  0  0  0  0  0  0  0  0  0  0  0
   14.5673  -14.4722   16.8477 C   0  0  0  0  0  0  0  0  0  0  0  0
   14.6975  -13.7929   15.7861 O   0  0  0  0  0  0  0  0  0  0  0  0
   13.2276  -15.0345   17.1613 C   0  0  0  0  0  0  0  0  0  0  0  0
   13.2450  -15.7476   18.5004 C   0  0  2  0  0  0  0  0  0  0  0  0
   12.5592  -17.0159   18.2788 N   0  0  0  0  0  0  0  0  0  0  0  0
   12.5060  -14.9739   19.4962 C   0  0  0  0  0  0  0  0  0  0  0  0
   13.0146  -13.9145   19.9567 O   0  0  0  0  0  0  0  0  0  0  0  0
    8.3106  -15.2062   17.0748 N   0  0  0  0  0  0  0  0  0  0  0  0
    8.3192  -13.8295   16.7174 C   0  0  0  0  0  0  0  0  0  0  0  0
    7.8845  -13.4895   15.5561 N   0  0  0  0  0  0  0  0  0  0  0  0
    8.8104  -12.8980   17.6674 N   0  0  0  0  0  0  0  0  0  0  0  0
    8.1980  -12.9787   19.0204 C   0  0  0  0  0  0  0  0  0  0  0  0
    8.3758  -14.3632   19.5353 C   0  0  0  0  0  0  0  0  0  0  0  0
    9.0297  -14.5428   20.8300 C   0  0  0  0  0  0  0  0  0  0  0  0
   10.4895  -14.6820   20.9616 C   0  0  2  0  0  0  0  0  0  0  0  0
   11.2035  -15.3959   19.9660 N   0  0  0  0  0  0  0  0  0  0  0  0
   10.9141  -15.0975   22.3447 C   0  0  0  0  0  0  0  0  0  0  0  0
   10.0207  -15.1840   23.2116 O   0  0  0  0  0  0  0  0  0  0  0  0
    7.9084  -12.4992   15.2399 N   0  0  0  0  0  0  0  0  0  0  0  0
   11.2931  -20.3895   23.3656 C   0  0  0  0  0  0  0  0  0  0  0  0
   11.1448  -19.7086   24.6025 O   0  0  0  0  0  0  0  0  0  0  0  0
   10.6590  -20.3647   25.5594 C   0  0  0  0  0  0  0  0  0  0  0  0
   11.5308  -18.3089   24.7827 C   0  0  0  0  0  0  0  0  0  0  0  0
   12.1187  -17.6337   23.6048 C   0  0  2  0  0  0  0  0  0  0  0  0
   12.6183  -16.2395   23.8090 N   0  0  0  0  0  0  0  0  0  0  0  0
   12.2589  -15.3832   22.6727 C   0  0  0  0  0  0  0  0  0  0  0  0
   14.0905  -16.2335   23.9149 O   0  0  0  0  0  0  0  0  0  0  0  0
   14.6383  -16.6683   24.9487 O   0  0  0  0  0  0  0  0  0  0  0  0
  1  2  1  0
  2  3  2  0
  4  5  1  0
  4  2  1  0
  5  7  1  0
  5  6  1  6
  7  8  2  0
 10 12  1  0
 10  9  1  0
 11 10  2  0
 13 14  1  0
 13 12  1  0
 14 15  1  0
 16 15  1  1
 17 16  1  0
 17  7  1  0
 18 19  2  0
 18 16  1  0
 20 21  1  0
 21 22  2  0
 23 21  1  0
 23 24  1  0
 25 24  1  1
 25 27  1  0
 25 26  1  0
 26 18  1  0
 27 29  1  0
 28 27  2  0
M  END
$$$$
