NRQ.pdb
     RDKit          3D

 29 28  0  0  1  0  0  0  0  0999 V2000
29839.1367-272141.4375-1271810.7500 N   0  0  0  0  0  0  0  0  0  0  0  0
29839.5859-272142.6875-1271809.0000 C   0  0  0  0  0  0  0  0  0  0  0  0
29840.7383-272142.5000-1271808.7500 O   0  0  0  0  0  0  0  0  0  0  0  0
29838.7188-272143.5625-1271809.1250 C   0  0  0  0  0  0  0  0  0  0  0  0
29838.8164-272144.8750-1271809.8750 C   0  0  2  0  0  0  0  0  0  0  0  0
29840.3047-272145.0625-1271810.1250 N   0  0  0  0  0  0  0  0  0  0  0  0
29838.2891-272144.5312-1271811.3750 C   0  0  0  0  0  0  0  0  0  0  0  0
29836.8945-272144.7188-1271811.5000 O   0  0  0  0  0  0  0  0  0  0  0  0
29837.0547-272138.5625-1271810.0000 N   0  0  0  0  0  0  0  0  0  0  0  0
29838.3398-272139.0625-1271811.0000 C   0  0  0  0  0  0  0  0  0  0  0  0
29839.1719-272138.5625-1271810.3750 N   0  0  0  0  0  0  0  0  0  0  0  0
29838.3516-272139.0000-1271812.0000 N   0  0  0  0  0  0  0  0  0  0  0  0
29839.0391-272140.3125-1271812.2500 C   0  0  0  0  0  0  0  0  0  0  0  0
29837.8203-272141.3125-1271813.1250 C   0  0  0  0  0  0  0  0  0  0  0  0
29838.1367-272142.4375-1271813.8750 C   0  0  0  0  0  0  0  0  0  0  0  0
29838.2188-272143.8750-1271813.7500 C   0  0  2  0  0  0  0  0  0  0  0  0
29838.8555-272144.0000-1271812.5000 N   0  0  0  0  0  0  0  0  0  0  0  0
29838.6562-272144.7500-1271814.8750 C   0  0  0  0  0  0  0  0  0  0  0  0
29839.7617-272145.4688-1271814.6250 O   0  0  0  0  0  0  0  0  0  0  0  0
29840.1758-272137.8750-1271810.6250 N   0  0  0  0  0  0  0  0  0  0  0  0
29841.0391-272143.4062-1271817.0000 C   0  0  0  0  0  0  0  0  0  0  0  0
29841.4336-272143.9375-1271817.6250 O   0  0  0  0  0  0  0  0  0  0  0  0
29842.0742-272144.0000-1271818.2500 C   0  0  0  0  0  0  0  0  0  0  0  0
29841.1992-272145.5000-1271817.0000 C   0  0  0  0  0  0  0  0  0  0  0  0
29839.8789-272146.1875-1271817.2500 C   0  0  2  0  0  0  0  0  0  0  0  0
29838.6836-272145.3125-1271817.3750 N   0  0  0  0  0  0  0  0  0  0  0  0
29837.8242-272145.0625-1271815.5000 C   0  0  0  0  0  0  0  0  0  0  0  0
29837.5547-272145.6250-1271818.1250 O   0  0  0  0  0  0  0  0  0  0  0  0
29836.7539-272145.0625-1271818.3750 O   0  0  0  0  0  0  0  0  0  0  0  0
  1  2  1  0
  2  3  2  0
  4  5  1  0
  4  2  1  0
  5  7  1  0
  5  6  1  6
  7  8  2  0
 10 12  1  0
 10  9  1  0
 11 10  2  0
 13 14  1  0
 13 12  1  0
 14 15  1  0
 16 15  1  6
 17 16  1  0
 17  7  1  0
 18 19  2  0
 18 16  1  0
 20 21  1  0
 21 22  2  0
 23 21  1  0
 23 24  1  0
 25 24  1  1
 25 27  1  0
 25 26  1  0
 26 18  1  0
 27 29  1  0
 28 27  2  0
M  END
$$$$
