NRQ.pdb
     RDKit          3D

 29 28  0  0  1  0  0  0  0  0999 V2000
    4.7076  -21.1561   22.8387 N   0  0  0  0  0  0  0  0  0  0  0  0
    5.2453  -20.5089   23.9845 C   0  0  0  0  0  0  0  0  0  0  0  0
    4.9438  -20.8737   25.1599 O   0  0  0  0  0  0  0  0  0  0  0  0
    6.1887  -19.3718   23.8228 C   0  0  0  0  0  0  0  0  0  0  0  0
    6.2629  -18.9384   22.3706 C   0  0  2  0  0  0  0  0  0  0  0  0
    6.4817  -20.1616   21.6064 N   0  0  0  0  0  0  0  0  0  0  0  0
    7.3978  -18.0401   22.1672 C   0  0  0  0  0  0  0  0  0  0  0  0
    8.5687  -18.5105   22.1863 O   0  0  0  0  0  0  0  0  0  0  0  0
    9.2194  -13.8890   17.5450 N   0  0  0  0  0  0  0  0  0  0  0  0
    7.9431  -13.5536   17.0144 C   0  0  0  0  0  0  0  0  0  0  0  0
    7.7094  -13.7865   15.7716 N   0  0  0  0  0  0  0  0  0  0  0  0
    6.9888  -12.9757   17.8902 N   0  0  0  0  0  0  0  0  0  0  0  0
    7.4064  -12.8700   19.3138 C   0  0  0  0  0  0  0  0  0  0  0  0
    7.7591  -14.2302   19.8027 C   0  0  0  0  0  0  0  0  0  0  0  0
    8.0652  -14.3992   21.2218 C   0  0  0  0  0  0  0  0  0  0  0  0
    8.2972  -15.7222   21.8245 C   0  0  2  0  0  0  0  0  0  0  0  0
    7.2082  -16.6224   21.9444 N   0  0  0  0  0  0  0  0  0  0  0  0
    9.0926  -15.6511   23.1006 C   0  0  0  0  0  0  0  0  0  0  0  0
    8.4781  -15.3228   24.1359 O   0  0  0  0  0  0  0  0  0  0  0  0
    6.8221  -13.4818   15.3233 N   0  0  0  0  0  0  0  0  0  0  0  0
    9.7661  -19.4656   26.7924 C   0  0  0  0  0  0  0  0  0  0  0  0
   10.8526  -18.6714   27.2443 O   0  0  0  0  0  0  0  0  0  0  0  0
   11.3892  -19.0056   28.3318 C   0  0  0  0  0  0  0  0  0  0  0  0
   11.3450  -17.5125   26.4992 C   0  0  0  0  0  0  0  0  0  0  0  0
   10.6551  -17.2099   25.2258 C   0  0  1  0  0  0  0  0  0  0  0  0
   11.1975  -16.0726   24.4213 N   0  0  0  0  0  0  0  0  0  0  0  0
   10.4754  -15.9392   23.1507 C   0  0  0  0  0  0  0  0  0  0  0  0
   12.6182  -16.3068   24.0964 O   0  0  0  0  0  0  0  0  0  0  0  0
   12.9465  -16.5915   22.9264 O   0  0  0  0  0  0  0  0  0  0  0  0
  1  2  1  0
  2  3  2  0
  4  5  1  0
  4  2  1  0
  5  7  1  0
  5  6  1  6
  7  8  2  0
 10 12  1  0
 10  9  1  0
 11 10  2  0
 13 14  1  0
 13 12  1  0
 14 15  1  0
 16 15  1  1
 17 16  1  0
 17  7  1  0
 18 19  2  0
 18 16  1  0
 20 21  1  0
 21 22  2  0
 23 21  1  0
 23 24  1  0
 25 24  1  1
 25 27  1  0
 25 26  1  0
 26 18  1  0
 27 29  1  0
 28 27  2  0
M  END
$$$$
