NRQ.pdb
     RDKit          3D

 29 28  0  0  1  0  0  0  0  0999 V2000
   14.6274  -13.6969   15.9183 N   0  0  0  0  0  0  0  0  0  0  0  0
   14.9383  -13.7531   17.3043 C   0  0  0  0  0  0  0  0  0  0  0  0
   16.1279  -13.8982   17.7160 O   0  0  0  0  0  0  0  0  0  0  0  0
   13.8547  -13.6405   18.3153 C   0  0  0  0  0  0  0  0  0  0  0  0
   13.5685  -14.9896   18.9479 C   0  0  2  0  0  0  0  0  0  0  0  0
   12.9564  -15.7944   17.8964 N   0  0  0  0  0  0  0  0  0  0  0  0
   12.6186  -14.8418   20.0489 C   0  0  0  0  0  0  0  0  0  0  0  0
   13.0141  -14.3556   21.1444 O   0  0  0  0  0  0  0  0  0  0  0  0
    8.2196  -12.9173   16.7258 N   0  0  0  0  0  0  0  0  0  0  0  0
    7.5714  -14.1421   17.0464 C   0  0  0  0  0  0  0  0  0  0  0  0
    7.5474  -15.0782   16.1652 N   0  0  0  0  0  0  0  0  0  0  0  0
    6.9812  -14.2671   18.3300 N   0  0  0  0  0  0  0  0  0  0  0  0
    7.2792  -13.1645   19.2828 C   0  0  0  0  0  0  0  0  0  0  0  0
    8.6448  -13.3757   19.8342 C   0  0  0  0  0  0  0  0  0  0  0  0
    8.9146  -14.6134   20.5630 C   0  0  0  0  0  0  0  0  0  0  0  0
   10.2779  -15.0261   20.9354 C   0  0  2  0  0  0  0  0  0  0  0  0
   11.2341  -15.2407   19.9104 N   0  0  0  0  0  0  0  0  0  0  0  0
   10.2948  -16.1438   21.9436 C   0  0  0  0  0  0  0  0  0  0  0  0
   10.0550  -17.2935   21.5217 O   0  0  0  0  0  0  0  0  0  0  0  0
    7.0740  -15.9846   16.3539 N   0  0  0  0  0  0  0  0  0  0  0  0
   14.2336  -18.8862   25.1575 C   0  0  0  0  0  0  0  0  0  0  0  0
   14.1062  -17.9366   24.1099 O   0  0  0  0  0  0  0  0  0  0  0  0
   15.1387  -17.6912   23.4347 C   0  0  0  0  0  0  0  0  0  0  0  0
   12.8444  -17.2601   23.8087 C   0  0  0  0  0  0  0  0  0  0  0  0
   11.6650  -17.6934   24.5898 C   0  0  2  0  0  0  0  0  0  0  0  0
   10.3804  -16.9778   24.3204 N   0  0  0  0  0  0  0  0  0  0  0  0
   10.5679  -15.9271   23.3133 C   0  0  0  0  0  0  0  0  0  0  0  0
    9.8903  -16.3248   25.5501 O   0  0  0  0  0  0  0  0  0  0  0  0
    9.7958  -15.0810   25.5947 O   0  0  0  0  0  0  0  0  0  0  0  0
  1  2  1  0
  2  3  2  0
  4  5  1  0
  4  2  1  0
  5  7  1  0
  5  6  1  6
  7  8  2  0
 10 12  1  0
 10  9  1  0
 11 10  2  0
 13 14  1  0
 13 12  1  0
 14 15  1  0
 16 15  1  6
 17 16  1  0
 17  7  1  0
 18 19  2  0
 18 16  1  0
 20 21  1  0
 21 22  2  0
 23 21  1  0
 23 24  1  0
 25 24  1  6
 25 27  1  0
 25 26  1  0
 26 18  1  0
 27 29  1  0
 28 27  2  0
M  END
$$$$
