NRQ.pdb
     RDKit          3D

 29 28  0  0  1  0  0  0  0  0999 V2000
    7.7977  -12.2773   17.0109 N   0  0  0  0  0  0  0  0  0  0  0  0
    7.7332  -13.6974   17.0192 C   0  0  0  0  0  0  0  0  0  0  0  0
    7.8585  -14.3772   15.9573 O   0  0  0  0  0  0  0  0  0  0  0  0
    7.5142  -14.4250   18.2966 C   0  0  0  0  0  0  0  0  0  0  0  0
    8.6808  -14.2112   19.2428 C   0  0  2  0  0  0  0  0  0  0  0  0
    9.8637  -14.6572   18.5149 N   0  0  0  0  0  0  0  0  0  0  0  0
    8.5196  -15.0339   20.4401 C   0  0  0  0  0  0  0  0  0  0  0  0
    7.5125  -14.8567   21.1799 O   0  0  0  0  0  0  0  0  0  0  0  0
    7.4784  -22.2795   20.4602 N   0  0  0  0  0  0  0  0  0  0  0  0
    8.4559  -22.0258   19.4586 C   0  0  0  0  0  0  0  0  0  0  0  0
    8.5097  -22.8034   18.4360 N   0  0  0  0  0  0  0  0  0  0  0  0
    9.3261  -20.9209   19.6421 N   0  0  0  0  0  0  0  0  0  0  0  0
    9.1861  -20.2025   20.9368 C   0  0  0  0  0  0  0  0  0  0  0  0
   10.1113  -19.0374   20.9307 C   0  0  0  0  0  0  0  0  0  0  0  0
   10.0687  -18.1123   22.0614 C   0  0  0  0  0  0  0  0  0  0  0  0
    9.3861  -16.8099   21.9872 C   0  0  2  0  0  0  0  0  0  0  0  0
    9.4896  -16.0477   20.7960 N   0  0  0  0  0  0  0  0  0  0  0  0
    9.6207  -15.9575   23.2056 C   0  0  0  0  0  0  0  0  0  0  0  0
   10.7044  -15.3421   23.2686 O   0  0  0  0  0  0  0  0  0  0  0  0
    9.2111  -22.6561   17.6826 N   0  0  0  0  0  0  0  0  0  0  0  0
    5.5400  -12.0978   25.8000 C   0  0  0  0  0  0  0  0  0  0  0  0
    6.6026  -12.1161   26.7412 O   0  0  0  0  0  0  0  0  0  0  0  0
    6.5395  -11.2901   27.6879 C   0  0  0  0  0  0  0  0  0  0  0  0
    7.7307  -13.0419   26.6383 C   0  0  0  0  0  0  0  0  0  0  0  0
    7.6979  -13.9925   25.5050 C   0  0  1  0  0  0  0  0  0  0  0  0
    8.8603  -14.9234   25.3746 N   0  0  0  0  0  0  0  0  0  0  0  0
    8.6710  -15.8421   24.2460 C   0  0  0  0  0  0  0  0  0  0  0  0
    8.9965  -15.7463   26.5924 O   0  0  0  0  0  0  0  0  0  0  0  0
    8.5194  -16.8994   26.6166 O   0  0  0  0  0  0  0  0  0  0  0  0
  1  2  1  0
  2  3  2  0
  4  5  1  0
  4  2  1  0
  5  7  1  0
  5  6  1  6
  7  8  2  0
 10 12  1  0
 10  9  1  0
 11 10  2  0
 13 14  1  0
 13 12  1  0
 14 15  1  0
 16 15  1  6
 17 16  1  0
 17  7  1  0
 18 19  2  0
 18 16  1  0
 20 21  1  0
 21 22  2  0
 23 21  1  0
 23 24  1  0
 25 24  1  6
 25 27  1  0
 25 26  1  0
 26 18  1  0
 27 29  1  0
 28 27  2  0
M  END
$$$$
