FSW.pdb
     RDKit          3D

 32 34  0  0  1  0  0  0  0  0999 V2000
    7.2368  -17.0166   19.8900 N   0  0  0  0  0  0  0  0  0  0  0  0
    8.2933  -16.4516   20.7248 C   0  0  1  0  0  0  0  0  0  0  0  0
    7.6923  -15.1525   21.2699 C   0  0  0  0  0  0  0  0  0  0  0  0
    7.7482  -14.0709   20.2837 C   0  0  0  0  0  0  0  0  0  0  0  0
    8.8856  -13.3497   20.0718 C   0  0  0  0  0  0  0  0  0  0  0  0
    8.9867  -12.3246   19.1512 C   0  0  0  0  0  0  0  0  0  0  0  0
    7.8613  -12.0212   18.4081 C   0  0  0  0  0  0  0  0  0  0  0  0
    6.7000  -12.7327   18.6012 C   0  0  0  0  0  0  0  0  0  0  0  0
    6.6317  -13.7568   19.5335 C   0  0  0  0  0  0  0  0  0  0  0  0
    8.6185  -17.3277   21.8807 C   0  0  0  0  0  0  0  0  0  0  0  0
    7.7392  -17.6687   22.7523 O   0  0  0  0  0  0  0  0  0  0  0  0
   12.6278  -18.3678   22.5848 O   0  0  0  0  0  0  0  0  0  0  0  0
   11.6798  -19.2403   23.0557 C   0  0  0  0  0  0  0  0  0  0  0  0
   10.3853  -18.4684   23.2937 C   0  0  2  0  0  0  0  0  0  0  0  0
    9.9166  -17.8477   22.0979 N   0  0  0  0  0  0  0  0  0  0  0  0
   10.5697  -17.5018   24.4058 C   0  0  0  0  0  0  0  0  0  0  0  0
   11.1078  -16.4163   24.1244 O   0  0  0  0  0  0  0  0  0  0  0  0
   10.1908  -17.7092   25.7490 N   0  0  0  0  0  0  0  0  0  0  0  0
   10.5318  -16.8066   26.8399 C   0  0  1  0  0  0  0  0  0  0  0  0
   10.2312  -15.3998   26.5670 C   0  0  0  0  0  0  0  0  0  0  0  0
    8.7747  -15.1219   26.6148 C   0  0  0  0  0  0  0  0  0  0  0  0
    7.7339  -16.0151   26.4508 C   0  0  0  0  0  0  0  0  0  0  0  0
    6.5568  -15.3770   26.5262 N   0  0  0  0  0  0  0  0  0  0  0  0
    6.7690  -14.0641   26.7399 C   0  0  0  0  0  0  0  0  0  0  0  0
    5.8774  -13.0260   26.8983 C   0  0  0  0  0  0  0  0  0  0  0  0
    6.4082  -11.7462   27.1292 C   0  0  0  0  0  0  0  0  0  0  0  0
    7.7741  -11.5574   27.1926 C   0  0  0  0  0  0  0  0  0  0  0  0
    8.6103  -12.6293   27.0263 C   0  0  0  0  0  0  0  0  0  0  0  0
    8.1494  -13.8871   26.7989 C   0  0  0  0  0  0  0  0  0  0  0  0
   10.1521  -17.3254   28.1451 C   0  0  0  0  0  0  0  0  0  0  0  0
   10.4403  -16.6915   29.1799 O   0  0  0  0  0  0  0  0  0  0  0  0
    9.4675  -18.5193   28.2701 O   0  0  0  0  0  0  0  0  0  0  0  0
  2  1  1  6
  3  2  1  0
  4  3  1  0
  5  4  2  0
  6  5  1  0
  7  8  1  0
  7  6  2  0
  8  9  2  0
  9  4  1  0
 10 11  2  0
 10  2  1  0
 12 13  1  0
 14 13  1  6
 14 15  1  0
 15 10  1  0
 16 14  1  0
 17 16  2  0
 18 16  1  0
 19 20  1  6
 19 18  1  0
 21 20  1  0
 22 21  2  0
 23 24  1  0
 23 22  1  0
 24 29  2  0
 25 24  1  0
 25 26  2  0
 26 27  1  0
 27 28  2  0
 29 21  1  0
 29 28  1  0
 30 32  1  0
 30 19  1  0
 31 30  2  0
M  END
$$$$
