FSW.pdb
     RDKit          3D

 32 34  0  0  1  0  0  0  0  0999 V2000
    7.1490  -17.5075   17.8167 N   0  0  0  0  0  0  0  0  0  0  0  0
    7.7796  -16.5463   18.7172 C   0  0  1  0  0  0  0  0  0  0  0  0
    6.6730  -15.5335   19.0263 C   0  0  0  0  0  0  0  0  0  0  0  0
    7.0806  -14.5809   20.0618 C   0  0  0  0  0  0  0  0  0  0  0  0
    7.7886  -13.4546   19.7636 C   0  0  0  0  0  0  0  0  0  0  0  0
    8.1912  -12.5269   20.7047 C   0  0  0  0  0  0  0  0  0  0  0  0
    7.8509  -12.7663   22.0229 C   0  0  0  0  0  0  0  0  0  0  0  0
    7.1368  -13.8949   22.3524 C   0  0  0  0  0  0  0  0  0  0  0  0
    6.7472  -14.8068   21.3831 C   0  0  0  0  0  0  0  0  0  0  0  0
    8.1980  -17.1744   19.9977 C   0  0  0  0  0  0  0  0  0  0  0  0
    7.3931  -17.8713   20.7157 O   0  0  0  0  0  0  0  0  0  0  0  0
   12.2593  -17.5695   20.8901 O   0  0  0  0  0  0  0  0  0  0  0  0
   11.3228  -18.4783   21.3131 C   0  0  0  0  0  0  0  0  0  0  0  0
   10.0370  -17.7291   21.6501 C   0  0  2  0  0  0  0  0  0  0  0  0
    9.5109  -17.0500   20.5111 N   0  0  0  0  0  0  0  0  0  0  0  0
   10.2678  -16.8206   22.8018 C   0  0  0  0  0  0  0  0  0  0  0  0
   10.7593  -15.7062   22.5497 O   0  0  0  0  0  0  0  0  0  0  0  0
    9.9810  -17.1127   24.1521 N   0  0  0  0  0  0  0  0  0  0  0  0
   10.3171  -16.2348   25.2643 C   0  0  1  0  0  0  0  0  0  0  0  0
    9.9031  -14.8434   25.0729 C   0  0  0  0  0  0  0  0  0  0  0  0
    8.4823  -14.6291   25.4420 C   0  0  0  0  0  0  0  0  0  0  0  0
    7.4657  -15.5633   25.4843 C   0  0  0  0  0  0  0  0  0  0  0  0
    6.3096  -14.9776   25.8290 N   0  0  0  0  0  0  0  0  0  0  0  0
    6.5128  -13.6606   26.0253 C   0  0  0  0  0  0  0  0  0  0  0  0
    5.6378  -12.6646   26.3995 C   0  0  0  0  0  0  0  0  0  0  0  0
    6.1568  -11.3672   26.5428 C   0  0  0  0  0  0  0  0  0  0  0  0
    7.4955  -11.1210   26.3139 C   0  0  0  0  0  0  0  0  0  0  0  0
    8.3160  -12.1531   25.9431 C   0  0  0  0  0  0  0  0  0  0  0  0
    7.8652  -13.4255   25.7887 C   0  0  0  0  0  0  0  0  0  0  0  0
   10.0478  -16.8349   26.5621 C   0  0  0  0  0  0  0  0  0  0  0  0
   10.3702  -16.2373   27.6084 O   0  0  0  0  0  0  0  0  0  0  0  0
    9.4323  -18.0676   26.6676 O   0  0  0  0  0  0  0  0  0  0  0  0
  2  1  1  6
  3  2  1  0
  4  3  1  0
  5  4  2  0
  6  5  1  0
  7  8  1  0
  7  6  2  0
  8  9  2  0
  9  4  1  0
 10 11  2  0
 10  2  1  0
 12 13  1  0
 14 13  1  6
 14 15  1  0
 15 10  1  0
 16 14  1  0
 17 16  2  0
 18 16  1  0
 19 20  1  6
 19 18  1  0
 21 20  1  0
 22 21  2  0
 23 24  1  0
 23 22  1  0
 24 29  2  0
 25 24  1  0
 25 26  2  0
 26 27  1  0
 27 28  2  0
 29 21  1  0
 29 28  1  0
 30 32  1  0
 30 19  1  0
 31 30  2  0
M  END
$$$$
