FSW.pdb
     RDKit          3D

 32 34  0  0  1  0  0  0  0  0999 V2000
    7.8175  -16.6810   17.8055 N   0  0  0  0  0  0  0  0  0  0  0  0
    9.0934  -16.7029   18.5155 C   0  0  1  0  0  0  0  0  0  0  0  0
    9.5452  -15.2394   18.5292 C   0  0  0  0  0  0  0  0  0  0  0  0
    8.6912  -14.4141   19.3866 C   0  0  0  0  0  0  0  0  0  0  0  0
    7.5741  -13.7966   18.9074 C   0  0  0  0  0  0  0  0  0  0  0  0
    6.7374  -13.0127   19.6780 C   0  0  0  0  0  0  0  0  0  0  0  0
    7.0631  -12.8518   21.0117 C   0  0  0  0  0  0  0  0  0  0  0  0
    8.1846  -13.4634   21.5221 C   0  0  0  0  0  0  0  0  0  0  0  0
    9.0038  -14.2447   20.7214 C   0  0  0  0  0  0  0  0  0  0  0  0
    8.9389  -17.1490   19.9249 C   0  0  0  0  0  0  0  0  0  0  0  0
    7.8521  -16.9722   20.5857 O   0  0  0  0  0  0  0  0  0  0  0  0
   12.0738  -19.2088   21.8323 O   0  0  0  0  0  0  0  0  0  0  0  0
   10.7813  -19.5935   22.0837 C   0  0  0  0  0  0  0  0  0  0  0  0
    9.8746  -18.3753   21.9350 C   0  0  2  0  0  0  0  0  0  0  0  0
    9.9763  -17.8008   20.6332 N   0  0  0  0  0  0  0  0  0  0  0  0
   10.1595  -17.3976   23.0157 C   0  0  0  0  0  0  0  0  0  0  0  0
   10.7880  -16.3729   22.6962 O   0  0  0  0  0  0  0  0  0  0  0  0
    9.7822  -17.5318   24.3687 N   0  0  0  0  0  0  0  0  0  0  0  0
   10.1745  -16.6029   25.4194 C   0  0  1  0  0  0  0  0  0  0  0  0
    9.8379  -15.2060   25.1377 C   0  0  0  0  0  0  0  0  0  0  0  0
    8.4122  -14.9086   25.4200 C   0  0  0  0  0  0  0  0  0  0  0  0
    7.3228  -15.7424   25.2592 C   0  0  0  0  0  0  0  0  0  0  0  0
    6.1925  -15.0997   25.5871 N   0  0  0  0  0  0  0  0  0  0  0  0
    6.4845  -13.8420   25.9708 C   0  0  0  0  0  0  0  0  0  0  0  0
    5.6642  -12.8236   26.4040 C   0  0  0  0  0  0  0  0  0  0  0  0
    6.2728  -11.6080   26.7574 C   0  0  0  0  0  0  0  0  0  0  0  0
    7.6423  -11.4604   26.6680 C   0  0  0  0  0  0  0  0  0  0  0  0
    8.4052  -12.5097   26.2292 C   0  0  0  0  0  0  0  0  0  0  0  0
    7.8673  -13.7057   25.8734 C   0  0  0  0  0  0  0  0  0  0  0  0
    9.8807  -17.1002   26.7548 C   0  0  0  0  0  0  0  0  0  0  0  0
   10.2600  -16.4639   27.7584 O   0  0  0  0  0  0  0  0  0  0  0  0
    9.1791  -18.2757   26.9435 O   0  0  0  0  0  0  0  0  0  0  0  0
  2  1  1  6
  3  2  1  0
  4  3  1  0
  5  4  2  0
  6  5  1  0
  7  8  1  0
  7  6  2  0
  8  9  2  0
  9  4  1  0
 10 11  2  0
 10  2  1  0
 12 13  1  0
 14 13  1  6
 14 15  1  0
 15 10  1  0
 16 14  1  0
 17 16  2  0
 18 16  1  0
 19 20  1  6
 19 18  1  0
 21 20  1  0
 22 21  2  0
 23 24  1  0
 23 22  1  0
 24 29  2  0
 25 24  1  0
 25 26  2  0
 26 27  1  0
 27 28  2  0
 29 21  1  0
 29 28  1  0
 30 32  1  0
 30 19  1  0
 31 30  2  0
M  END
$$$$
