FSW.pdb
     RDKit          3D

 32 34  0  0  1  0  0  0  0  0999 V2000
    5.6033  -17.9090   23.2453 N   0  0  0  0  0  0  0  0  0  0  0  0
    6.5171  -17.1571   22.3896 C   0  0  1  0  0  0  0  0  0  0  0  0
    6.0683  -15.7007   22.5425 C   0  0  0  0  0  0  0  0  0  0  0  0
    6.7379  -14.8210   21.5815 C   0  0  0  0  0  0  0  0  0  0  0  0
    6.5666  -14.9634   20.2364 C   0  0  0  0  0  0  0  0  0  0  0  0
    7.1734  -14.1564   19.2935 C   0  0  0  0  0  0  0  0  0  0  0  0
    8.0014  -13.1496   19.7534 C   0  0  0  0  0  0  0  0  0  0  0  0
    8.1924  -12.9830   21.1054 C   0  0  0  0  0  0  0  0  0  0  0  0
    7.5677  -13.8104   22.0263 C   0  0  0  0  0  0  0  0  0  0  0  0
    7.9249  -17.2553   22.8563 C   0  0  0  0  0  0  0  0  0  0  0  0
    8.2311  -17.3441   24.1003 O   0  0  0  0  0  0  0  0  0  0  0  0
   10.6077  -18.0547   19.7934 O   0  0  0  0  0  0  0  0  0  0  0  0
   10.5138  -18.8712   20.8917 C   0  0  0  0  0  0  0  0  0  0  0  0
   10.2287  -18.0067   22.1162 C   0  0  2  0  0  0  0  0  0  0  0  0
    9.0225  -17.2606   21.9630 N   0  0  0  0  0  0  0  0  0  0  0  0
   11.4012  -17.1445   22.4109 C   0  0  0  0  0  0  0  0  0  0  0  0
   12.5226  -17.6060   22.1344 O   0  0  0  0  0  0  0  0  0  0  0  0
   11.3527  -15.8532   22.9776 N   0  0  0  0  0  0  0  0  0  0  0  0
   10.9768  -15.5835   24.3584 C   0  0  1  0  0  0  0  0  0  0  0  0
    9.5496  -15.3157   24.5473 C   0  0  0  0  0  0  0  0  0  0  0  0
    9.2547  -14.7999   25.9066 C   0  0  0  0  0  0  0  0  0  0  0  0
    9.8459  -15.1652   27.1004 C   0  0  0  0  0  0  0  0  0  0  0  0
    9.2827  -14.5020   28.1207 N   0  0  0  0  0  0  0  0  0  0  0  0
    8.3177  -13.6880   27.6510 C   0  0  0  0  0  0  0  0  0  0  0  0
    7.4839  -12.8123   28.3109 C   0  0  0  0  0  0  0  0  0  0  0  0
    6.5756  -12.0738   27.5347 C   0  0  0  0  0  0  0  0  0  0  0  0
    6.5367  -12.2335   26.1642 C   0  0  0  0  0  0  0  0  0  0  0  0
    7.3909  -13.1208   25.5653 C   0  0  0  0  0  0  0  0  0  0  0  0
    8.2872  -13.8607   26.2692 C   0  0  0  0  0  0  0  0  0  0  0  0
   11.6141  -16.4848   25.3062 C   0  0  0  0  0  0  0  0  0  0  0  0
   11.6050  -17.7156   25.1044 O   0  0  0  0  0  0  0  0  0  0  0  0
   12.2414  -16.0053   26.4403 O   0  0  0  0  0  0  0  0  0  0  0  0
  2  1  1  1
  3  2  1  0
  4  3  1  0
  5  4  2  0
  6  5  1  0
  7  8  1  0
  7  6  2  0
  8  9  2  0
  9  4  1  0
 10 11  2  0
 10  2  1  0
 12 13  1  0
 14 13  1  6
 14 15  1  0
 15 10  1  0
 16 14  1  0
 17 16  2  0
 18 16  1  0
 19 20  1  6
 19 18  1  0
 21 20  1  0
 22 21  2  0
 23 24  1  0
 23 22  1  0
 24 29  2  0
 25 24  1  0
 25 26  2  0
 26 27  1  0
 27 28  2  0
 29 21  1  0
 29 28  1  0
 30 32  1  0
 30 19  1  0
 31 30  2  0
M  END
$$$$
