FSW.pdb
     RDKit          3D

 32 34  0  0  1  0  0  0  0  0999 V2000
    7.1604  -17.3513   17.7249 N   0  0  0  0  0  0  0  0  0  0  0  0
    7.8093  -16.4504   18.6735 C   0  0  1  0  0  0  0  0  0  0  0  0
    6.7090  -15.4621   19.0716 C   0  0  0  0  0  0  0  0  0  0  0  0
    7.1389  -14.5769   20.1566 C   0  0  0  0  0  0  0  0  0  0  0  0
    6.8960  -14.8735   21.4650 C   0  0  0  0  0  0  0  0  0  0  0  0
    7.2851  -14.0722   22.5209 C   0  0  0  0  0  0  0  0  0  0  0  0
    7.9587  -12.9031   22.2202 C   0  0  0  0  0  0  0  0  0  0  0  0
    8.2173  -12.5789   20.9086 C   0  0  0  0  0  0  0  0  0  0  0  0
    7.8133  -13.4057   19.8713 C   0  0  0  0  0  0  0  0  0  0  0  0
    8.2547  -17.1607   19.9009 C   0  0  0  0  0  0  0  0  0  0  0  0
    7.4638  -17.9004   20.5911 O   0  0  0  0  0  0  0  0  0  0  0  0
   12.2939  -17.5907   20.6973 O   0  0  0  0  0  0  0  0  0  0  0  0
   11.3929  -18.4879   21.2123 C   0  0  0  0  0  0  0  0  0  0  0  0
   10.0997  -17.7455   21.5359 C   0  0  2  0  0  0  0  0  0  0  0  0
    9.5796  -17.0729   20.3905 N   0  0  0  0  0  0  0  0  0  0  0  0
   10.3150  -16.8324   22.6870 C   0  0  0  0  0  0  0  0  0  0  0  0
   10.7926  -15.7120   22.4347 O   0  0  0  0  0  0  0  0  0  0  0  0
   10.0278  -17.1263   24.0368 N   0  0  0  0  0  0  0  0  0  0  0  0
   10.2709  -16.2071   25.1399 C   0  0  1  0  0  0  0  0  0  0  0  0
    9.8592  -14.8281   24.8697 C   0  0  0  0  0  0  0  0  0  0  0  0
    8.4090  -14.6233   25.1058 C   0  0  0  0  0  0  0  0  0  0  0  0
    7.3834  -15.5318   24.9308 C   0  0  0  0  0  0  0  0  0  0  0  0
    6.2032  -14.9615   25.2140 N   0  0  0  0  0  0  0  0  0  0  0  0
    6.3984  -13.6803   25.5810 C   0  0  0  0  0  0  0  0  0  0  0  0
    5.4990  -12.7125   25.9708 C   0  0  0  0  0  0  0  0  0  0  0  0
    6.0137  -11.4523   26.3173 C   0  0  0  0  0  0  0  0  0  0  0  0
    7.3722  -11.2137   26.2637 C   0  0  0  0  0  0  0  0  0  0  0  0
    8.2166  -12.2164   25.8673 C   0  0  0  0  0  0  0  0  0  0  0  0
    7.7712  -13.4522   25.5200 C   0  0  0  0  0  0  0  0  0  0  0  0
    9.9105  -16.7660   26.4339 C   0  0  0  0  0  0  0  0  0  0  0  0
   10.1865  -16.1490   27.4823 O   0  0  0  0  0  0  0  0  0  0  0  0
    9.2579  -17.9799   26.5335 O   0  0  0  0  0  0  0  0  0  0  0  0
  2  1  1  6
  3  2  1  0
  4  3  1  0
  5  4  2  0
  6  5  1  0
  7  8  1  0
  7  6  2  0
  8  9  2  0
  9  4  1  0
 10 11  2  0
 10  2  1  0
 12 13  1  0
 14 13  1  6
 14 15  1  0
 15 10  1  0
 16 14  1  0
 17 16  2  0
 18 16  1  0
 19 20  1  6
 19 18  1  0
 21 20  1  0
 22 21  2  0
 23 24  1  0
 23 22  1  0
 24 29  2  0
 25 24  1  0
 25 26  2  0
 26 27  1  0
 27 28  2  0
 29 21  1  0
 29 28  1  0
 30 32  1  0
 30 19  1  0
 31 30  2  0
M  END
$$$$
