FSW.pdb
     RDKit          3D

 32 34  0  0  1  0  0  0  0  0999 V2000
    5.4855  -17.9131   24.3863 N   0  0  0  0  0  0  0  0  0  0  0  0
    6.3092  -16.7330   24.1388 C   0  0  1  0  0  0  0  0  0  0  0  0
    6.4175  -16.0522   25.5065 C   0  0  0  0  0  0  0  0  0  0  0  0
    6.6732  -14.6154   25.3808 C   0  0  0  0  0  0  0  0  0  0  0  0
    5.9700  -13.6947   26.0995 C   0  0  0  0  0  0  0  0  0  0  0  0
    6.1782  -12.3315   26.0170 C   0  0  0  0  0  0  0  0  0  0  0  0
    7.1594  -11.8873   25.1506 C   0  0  0  0  0  0  0  0  0  0  0  0
    7.8845  -12.7942   24.4130 C   0  0  0  0  0  0  0  0  0  0  0  0
    7.6509  -14.1569   24.5195 C   0  0  0  0  0  0  0  0  0  0  0  0
    7.6812  -17.0944   23.6957 C   0  0  0  0  0  0  0  0  0  0  0  0
    8.3945  -17.9661   24.3125 O   0  0  0  0  0  0  0  0  0  0  0  0
    9.0206  -15.0686   20.5797 O   0  0  0  0  0  0  0  0  0  0  0  0
    9.8070  -16.1888   20.6731 C   0  0  0  0  0  0  0  0  0  0  0  0
    9.5804  -16.8282   22.0398 C   0  0  2  0  0  0  0  0  0  0  0  0
    8.2934  -16.5055   22.5637 N   0  0  0  0  0  0  0  0  0  0  0  0
   10.6833  -16.4557   22.9617 C   0  0  0  0  0  0  0  0  0  0  0  0
   11.2184  -15.3476   22.7802 O   0  0  0  0  0  0  0  0  0  0  0  0
   11.1759  -17.2485   24.0199 N   0  0  0  0  0  0  0  0  0  0  0  0
   12.4907  -17.0768   24.6223 C   0  0  1  0  0  0  0  0  0  0  0  0
   12.4589  -16.8345   26.0661 C   0  0  0  0  0  0  0  0  0  0  0  0
   11.0764  -16.6409   26.5681 C   0  0  0  0  0  0  0  0  0  0  0  0
    9.9553  -17.3952   26.2816 C   0  0  0  0  0  0  0  0  0  0  0  0
    8.8801  -16.8836   26.8983 N   0  0  0  0  0  0  0  0  0  0  0  0
    9.2410  -15.7940   27.6032 C   0  0  0  0  0  0  0  0  0  0  0  0
    8.4942  -14.9531   28.3988 C   0  0  0  0  0  0  0  0  0  0  0  0
    9.1660  -13.8932   29.0300 C   0  0  0  0  0  0  0  0  0  0  0  0
   10.5231  -13.7191   28.8481 C   0  0  0  0  0  0  0  0  0  0  0  0
   11.2114  -14.5882   28.0440 C   0  0  0  0  0  0  0  0  0  0  0  0
   10.6103  -15.6283   27.4090 C   0  0  0  0  0  0  0  0  0  0  0  0
   13.4690  -18.0353   24.1315 C   0  0  0  0  0  0  0  0  0  0  0  0
   13.1223  -18.9368   23.3422 O   0  0  0  0  0  0  0  0  0  0  0  0
   14.7934  -17.9705   24.5206 O   0  0  0  0  0  0  0  0  0  0  0  0
  2  1  1  1
  3  2  1  0
  4  3  1  0
  5  4  2  0
  6  5  1  0
  7  8  1  0
  7  6  2  0
  8  9  2  0
  9  4  1  0
 10 11  2  0
 10  2  1  0
 12 13  1  0
 14 13  1  6
 14 15  1  0
 15 10  1  0
 16 14  1  0
 17 16  2  0
 18 16  1  0
 19 20  1  1
 19 18  1  0
 21 20  1  0
 22 21  2  0
 23 24  1  0
 23 22  1  0
 24 29  2  0
 25 24  1  0
 25 26  2  0
 26 27  1  0
 27 28  2  0
 29 21  1  0
 29 28  1  0
 30 32  1  0
 30 19  1  0
 31 30  2  0
M  END
$$$$
