FSW.pdb
     RDKit          3D

 32 34  0  0  1  0  0  0  0  0999 V2000
    5.6143  -17.4860   20.6423 N   0  0  0  0  0  0  0  0  0  0  0  0
    6.7938  -16.6519   20.8553 C   0  0  1  0  0  0  0  0  0  0  0  0
    6.2280  -15.3056   21.3170 C   0  0  0  0  0  0  0  0  0  0  0  0
    6.9859  -14.1791   20.7669 C   0  0  0  0  0  0  0  0  0  0  0  0
    7.7645  -13.3839   21.5543 C   0  0  0  0  0  0  0  0  0  0  0  0
    8.4991  -12.3142   21.0803 C   0  0  0  0  0  0  0  0  0  0  0  0
    8.4315  -12.0439   19.7264 C   0  0  0  0  0  0  0  0  0  0  0  0
    7.6537  -12.8300   18.9083 C   0  0  0  0  0  0  0  0  0  0  0  0
    6.9285  -13.8973   19.4159 C   0  0  0  0  0  0  0  0  0  0  0  0
    7.6620  -17.1813   21.9395 C   0  0  0  0  0  0  0  0  0  0  0  0
    7.1933  -17.5447   23.0785 O   0  0  0  0  0  0  0  0  0  0  0  0
   11.7993  -17.1333   21.4819 O   0  0  0  0  0  0  0  0  0  0  0  0
   11.3022  -18.2360   22.1292 C   0  0  0  0  0  0  0  0  0  0  0  0
    9.9605  -17.8674   22.7554 C   0  0  2  0  0  0  0  0  0  0  0  0
    9.0620  -17.3237   21.7899 N   0  0  0  0  0  0  0  0  0  0  0  0
   10.1741  -16.9613   23.9123 C   0  0  0  0  0  0  0  0  0  0  0  0
   10.6598  -15.8425   23.6686 O   0  0  0  0  0  0  0  0  0  0  0  0
    9.8769  -17.2602   25.2589 N   0  0  0  0  0  0  0  0  0  0  0  0
   10.5733  -16.6746   26.3959 C   0  0  1  0  0  0  0  0  0  0  0  0
   10.1353  -15.3179   26.7302 C   0  0  0  0  0  0  0  0  0  0  0  0
    8.6690  -15.1525   26.5774 C   0  0  0  0  0  0  0  0  0  0  0  0
    7.7251  -16.1303   26.3311 C   0  0  0  0  0  0  0  0  0  0  0  0
    6.5057  -15.5831   26.2215 N   0  0  0  0  0  0  0  0  0  0  0  0
    6.5938  -14.2494   26.3889 C   0  0  0  0  0  0  0  0  0  0  0  0
    5.6173  -13.2780   26.3762 C   0  0  0  0  0  0  0  0  0  0  0  0
    6.0205  -11.9517   26.6030 C   0  0  0  0  0  0  0  0  0  0  0  0
    7.3493  -11.6544   26.8292 C   0  0  0  0  0  0  0  0  0  0  0  0
    8.2745  -12.6643   26.8289 C   0  0  0  0  0  0  0  0  0  0  0  0
    7.9384  -13.9630   26.6133 C   0  0  0  0  0  0  0  0  0  0  0  0
   10.7433  -17.6079   27.4990 C   0  0  0  0  0  0  0  0  0  0  0  0
   10.2647  -18.7575   27.4271 O   0  0  0  0  0  0  0  0  0  0  0  0
   11.4341  -17.2495   28.6409 O   0  0  0  0  0  0  0  0  0  0  0  0
  2  1  1  1
  3  2  1  0
  4  3  1  0
  5  4  2  0
  6  5  1  0
  7  8  1  0
  7  6  2  0
  8  9  2  0
  9  4  1  0
 10 11  2  0
 10  2  1  0
 12 13  1  0
 14 13  1  6
 14 15  1  0
 15 10  1  0
 16 14  1  0
 17 16  2  0
 18 16  1  0
 19 20  1  1
 19 18  1  0
 21 20  1  0
 22 21  2  0
 23 24  1  0
 23 22  1  0
 24 29  2  0
 25 24  1  0
 25 26  2  0
 26 27  1  0
 27 28  2  0
 29 21  1  0
 29 28  1  0
 30 32  1  0
 30 19  1  0
 31 30  2  0
M  END
$$$$
