FSW.pdb
     RDKit          3D

 32 34  0  0  1  0  0  0  0  0999 V2000
    5.9120  -17.8916   19.1994 N   0  0  0  0  0  0  0  0  0  0  0  0
    6.8048  -16.8264   19.6475 C   0  0  1  0  0  0  0  0  0  0  0  0
    5.8675  -15.7693   20.2390 C   0  0  0  0  0  0  0  0  0  0  0  0
    6.6028  -14.5962   20.7173 C   0  0  0  0  0  0  0  0  0  0  0  0
    7.1593  -13.6968   19.8569 C   0  0  0  0  0  0  0  0  0  0  0  0
    7.8574  -12.5754   20.2611 C   0  0  0  0  0  0  0  0  0  0  0  0
    7.9937  -12.3642   21.6203 C   0  0  0  0  0  0  0  0  0  0  0  0
    7.4423  -13.2555   22.5112 C   0  0  0  0  0  0  0  0  0  0  0  0
    6.7466  -14.3719   22.0727 C   0  0  0  0  0  0  0  0  0  0  0  0
    7.7200  -17.2837   20.7259 C   0  0  0  0  0  0  0  0  0  0  0  0
    7.2889  -17.8139   21.8131 O   0  0  0  0  0  0  0  0  0  0  0  0
   11.9030  -16.7335   20.4057 O   0  0  0  0  0  0  0  0  0  0  0  0
   11.4338  -17.9238   20.9004 C   0  0  0  0  0  0  0  0  0  0  0  0
   10.0803  -17.6757   21.5596 C   0  0  2  0  0  0  0  0  0  0  0  0
    9.1271  -17.1688   20.6272 N   0  0  0  0  0  0  0  0  0  0  0  0
   10.2478  -16.7942   22.7428 C   0  0  0  0  0  0  0  0  0  0  0  0
   10.5831  -15.6165   22.5242 O   0  0  0  0  0  0  0  0  0  0  0  0
   10.0625  -17.1769   24.0882 N   0  0  0  0  0  0  0  0  0  0  0  0
   10.4496  -16.3578   25.2285 C   0  0  1  0  0  0  0  0  0  0  0  0
   10.1028  -14.9418   25.0917 C   0  0  0  0  0  0  0  0  0  0  0  0
    8.6502  -14.7036   25.2767 C   0  0  0  0  0  0  0  0  0  0  0  0
    7.6102  -15.5854   25.0561 C   0  0  0  0  0  0  0  0  0  0  0  0
    6.4345  -14.9888   25.3014 N   0  0  0  0  0  0  0  0  0  0  0  0
    6.6469  -13.7158   25.6869 C   0  0  0  0  0  0  0  0  0  0  0  0
    5.7574  -12.7296   26.0525 C   0  0  0  0  0  0  0  0  0  0  0  0
    6.2893  -11.4852   26.4290 C   0  0  0  0  0  0  0  0  0  0  0  0
    7.6542  -11.2793   26.4271 C   0  0  0  0  0  0  0  0  0  0  0  0
    8.4882  -12.2991   26.0525 C   0  0  0  0  0  0  0  0  0  0  0  0
    8.0261  -13.5208   25.6780 C   0  0  0  0  0  0  0  0  0  0  0  0
   10.1609  -16.9915   26.5060 C   0  0  0  0  0  0  0  0  0  0  0  0
    9.5244  -18.0635   26.5446 O   0  0  0  0  0  0  0  0  0  0  0  0
   10.5823  -16.4295   27.6961 O   0  0  0  0  0  0  0  0  0  0  0  0
  2  1  1  1
  3  2  1  0
  4  3  1  0
  5  4  2  0
  6  5  1  0
  7  8  1  0
  7  6  2  0
  8  9  2  0
  9  4  1  0
 10 11  2  0
 10  2  1  0
 12 13  1  0
 14 13  1  6
 14 15  1  0
 15 10  1  0
 16 14  1  0
 17 16  2  0
 18 16  1  0
 19 20  1  1
 19 18  1  0
 21 20  1  0
 22 21  2  0
 23 24  1  0
 23 22  1  0
 24 29  2  0
 25 24  1  0
 25 26  2  0
 26 27  1  0
 27 28  2  0
 29 21  1  0
 29 28  1  0
 30 32  1  0
 30 19  1  0
 31 30  2  0
M  END
$$$$
