FSW.pdb
     RDKit          3D

 32 34  0  0  1  0  0  0  0  0999 V2000
    5.6228  -18.1152   19.4918 N   0  0  0  0  0  0  0  0  0  0  0  0
    6.6058  -17.0416   19.6087 C   0  0  1  0  0  0  0  0  0  0  0  0
    5.8179  -15.8684   20.1992 C   0  0  0  0  0  0  0  0  0  0  0  0
    6.6402  -14.6612   20.3101 C   0  0  0  0  0  0  0  0  0  0  0  0
    6.9591  -14.1175   21.5190 C   0  0  0  0  0  0  0  0  0  0  0  0
    7.7336  -12.9840   21.6729 C   0  0  0  0  0  0  0  0  0  0  0  0
    8.2063  -12.3738   20.5262 C   0  0  0  0  0  0  0  0  0  0  0  0
    7.9000  -12.9008   19.2931 C   0  0  0  0  0  0  0  0  0  0  0  0
    7.1200  -14.0410   19.1730 C   0  0  0  0  0  0  0  0  0  0  0  0
    7.6967  -17.3862   20.5577 C   0  0  0  0  0  0  0  0  0  0  0  0
    7.4638  -17.7797   21.7577 O   0  0  0  0  0  0  0  0  0  0  0  0
   11.7445  -16.7411   19.5604 O   0  0  0  0  0  0  0  0  0  0  0  0
   11.4268  -17.9273   20.1719 C   0  0  0  0  0  0  0  0  0  0  0  0
   10.1675  -17.7201   21.0083 C   0  0  2  0  0  0  0  0  0  0  0  0
    9.0646  -17.3071   20.2034 N   0  0  0  0  0  0  0  0  0  0  0  0
   10.4486  -16.7777   22.1209 C   0  0  0  0  0  0  0  0  0  0  0  0
   10.6190  -15.5836   21.8173 O   0  0  0  0  0  0  0  0  0  0  0  0
   10.5409  -17.1194   23.4867 N   0  0  0  0  0  0  0  0  0  0  0  0
   10.8181  -16.1622   24.5487 C   0  0  1  0  0  0  0  0  0  0  0  0
   10.0564  -14.9161   24.4432 C   0  0  0  0  0  0  0  0  0  0  0  0
    9.3095  -14.6126   25.6886 C   0  0  0  0  0  0  0  0  0  0  0  0
    9.4477  -15.2065   26.9279 C   0  0  0  0  0  0  0  0  0  0  0  0
    8.5676  -14.6848   27.7947 N   0  0  0  0  0  0  0  0  0  0  0  0
    7.8290  -13.7439   27.1754 C   0  0  0  0  0  0  0  0  0  0  0  0
    6.8212  -12.9362   27.6546 C   0  0  0  0  0  0  0  0  0  0  0  0
    6.2420  -12.0230   26.7582 C   0  0  0  0  0  0  0  0  0  0  0  0
    6.6810  -11.9525   25.4515 C   0  0  0  0  0  0  0  0  0  0  0  0
    7.6868  -12.7830   25.0336 C   0  0  0  0  0  0  0  0  0  0  0  0
    8.2798  -13.6849   25.8588 C   0  0  0  0  0  0  0  0  0  0  0  0
   10.8997  -16.7810   25.8630 C   0  0  0  0  0  0  0  0  0  0  0  0
   10.1721  -17.7544   26.1440 O   0  0  0  0  0  0  0  0  0  0  0  0
   11.7777  -16.3131   26.8220 O   0  0  0  0  0  0  0  0  0  0  0  0
  2  1  1  1
  3  2  1  0
  4  3  1  0
  5  4  2  0
  6  5  1  0
  7  8  1  0
  7  6  2  0
  8  9  2  0
  9  4  1  0
 10 11  2  0
 10  2  1  0
 12 13  1  0
 14 13  1  6
 14 15  1  0
 15 10  1  0
 16 14  1  0
 17 16  2  0
 18 16  1  0
 19 20  1  1
 19 18  1  0
 21 20  1  0
 22 21  2  0
 23 24  1  0
 23 22  1  0
 24 29  2  0
 25 24  1  0
 25 26  2  0
 26 27  1  0
 27 28  2  0
 29 21  1  0
 29 28  1  0
 30 32  1  0
 30 19  1  0
 31 30  2  0
M  END
$$$$
