RFR.pdb
     RDKit          3D

 34 34  0  0  1  0  0  0  0  0999 V2000
    8.2507  -13.0497   16.0997 N   0  0  0  0  0  0  0  0  0  0  0  0
    7.8905  -12.6584   17.4236 C   0  0  0  0  0  0  0  0  0  0  0  0
    8.5344  -11.7475   18.0459 N   0  0  0  0  0  0  0  0  0  0  0  0
    6.7853  -13.2906   18.0829 N   0  0  0  0  0  0  0  0  0  0  0  0
    6.6059  -13.3352   19.5004 C   0  0  0  0  0  0  0  0  0  0  0  0
    6.9529  -14.6446   20.1157 C   0  0  0  0  0  0  0  0  0  0  0  0
    8.3764  -14.8163   20.5516 C   0  0  0  0  0  0  0  0  0  0  0  0
    8.5887  -15.8904   21.5392 C   0  0  2  0  0  0  0  0  0  0  0  0
    7.3291  -16.5198   21.8560 N   0  0  0  0  0  0  0  0  0  0  0  0
    9.2463  -15.4928   22.7838 C   0  0  0  0  0  0  0  0  0  0  0  0
   10.3537  -14.8829   22.6919 O   0  0  0  0  0  0  0  0  0  0  0  0
    8.4037  -11.4521   19.0194 N   0  0  0  0  0  0  0  0  0  0  0  0
    8.6711  -15.7757   24.0615 C   0  0  1  0  0  0  0  0  0  0  0  0
    9.3391  -15.5020   25.2883 C   0  0  0  0  0  0  0  0  0  0  0  0
    8.2462  -15.4296   26.3679 C   0  0  0  0  0  0  0  0  0  0  0  0
    7.5357  -14.1289   26.3047 C   0  0  0  0  0  0  0  0  0  0  0  0
    8.1204  -13.0535   26.9260 C   0  0  0  0  0  0  0  0  0  0  0  0
    7.5067  -11.8105   26.9024 C   0  0  0  0  0  0  0  0  0  0  0  0
    6.3023  -11.6190   26.2611 C   0  0  0  0  0  0  0  0  0  0  0  0
    5.7223  -12.7022   25.6405 C   0  0  0  0  0  0  0  0  0  0  0  0
    6.3482  -13.9518   25.6691 C   0  0  0  0  0  0  0  0  0  0  0  0
   10.3342  -16.5347   25.6492 O   0  0  0  0  0  0  0  0  0  0  0  0
   10.8752  -16.6018   26.7846 N   0  0  0  0  0  0  0  0  0  0  0  0
   12.0084  -23.7680   25.0294 C   0  0  0  0  0  0  0  0  0  0  0  0
   13.3434  -23.7033   24.5374 N   0  0  0  0  0  0  0  0  0  0  0  0
   14.2001  -24.5603   24.9711 N   0  0  0  0  0  0  0  0  0  0  0  0
   13.7249  -22.7052   23.5767 C   0  0  0  0  0  0  0  0  0  0  0  0
   12.7437  -21.7317   23.2002 C   0  0  0  0  0  0  0  0  0  0  0  0
   12.6852  -20.6940   24.3238 C   0  0  0  0  0  0  0  0  0  0  0  0
   11.6526  -19.6453   24.0163 C   0  0  1  0  0  0  0  0  0  0  0  0
   11.6944  -18.5576   25.0257 N   0  0  0  0  0  0  0  0  0  0  0  0
   10.7074  -17.4987   24.6862 C   0  0  0  0  0  0  0  0  0  0  0  0
   13.0113  -17.9638   25.2330 O   0  0  0  0  0  0  0  0  0  0  0  0
   13.4848  -16.9781   24.6240 O   0  0  0  0  0  0  0  0  0  0  0  0
  2  3  2  0
  2  1  1  0
  4  2  1  0
  5  4  1  0
  6  5  1  0
  6  7  1  0
  8  7  1  0
  8  9  1  1
 10 11  2  0
 10  8  1  0
 12 10  1  0
 13 12  1  0
 13 14  1  1
 15 16  2  0
 15 14  1  0
 17 16  1  0
 18 17  2  0
 19 18  1  0
 19 20  2  0
 20 15  1  0
 21 13  1  0
 21 31  1  0
 22 21  2  0
 23 24  1  0
 24 26  1  0
 24 25  2  0
 26 27  1  0
 27 28  1  0
 28 29  1  0
 30 29  1  1
 30 31  1  0
 30 32  1  0
 32 33  2  0
 32 34  1  0
M  END
$$$$
