RFR.pdb
     RDKit          3D

 34 34  0  0  1  0  0  0  0  0999 V2000
    8.6231  -13.7184   13.2136 N   0  0  0  0  0  0  0  0  0  0  0  0
    8.4497  -13.9213   14.6152 C   0  0  0  0  0  0  0  0  0  0  0  0
    8.1170  -15.0613   15.0856 N   0  0  0  0  0  0  0  0  0  0  0  0
    8.6495  -12.8336   15.5277 N   0  0  0  0  0  0  0  0  0  0  0  0
    8.3735  -12.8913   16.9291 C   0  0  0  0  0  0  0  0  0  0  0  0
    7.7820  -14.1801   17.3792 C   0  0  0  0  0  0  0  0  0  0  0  0
    7.3651  -14.2524   18.8169 C   0  0  0  0  0  0  0  0  0  0  0  0
    8.0801  -15.2683   19.6111 C   0  0  2  0  0  0  0  0  0  0  0  0
    7.3015  -16.4824   19.6677 N   0  0  0  0  0  0  0  0  0  0  0  0
    8.4445  -14.8750   20.9721 C   0  0  0  0  0  0  0  0  0  0  0  0
    9.4431  -14.1068   21.1119 O   0  0  0  0  0  0  0  0  0  0  0  0
    8.0635  -15.3316   16.0735 N   0  0  0  0  0  0  0  0  0  0  0  0
    7.7094  -15.3332   22.1093 C   0  0  1  0  0  0  0  0  0  0  0  0
    8.0557  -14.9857   23.4455 C   0  0  0  0  0  0  0  0  0  0  0  0
    6.7481  -14.5575   24.1326 C   0  0  0  0  0  0  0  0  0  0  0  0
    7.0352  -13.8227   25.3890 C   0  0  0  0  0  0  0  0  0  0  0  0
    7.2393  -12.4681   25.3016 C   0  0  0  0  0  0  0  0  0  0  0  0
    7.5111  -11.7247   26.4399 C   0  0  0  0  0  0  0  0  0  0  0  0
    7.5846  -12.3176   27.6814 C   0  0  0  0  0  0  0  0  0  0  0  0
    7.3788  -13.6763   27.7608 C   0  0  0  0  0  0  0  0  0  0  0  0
    7.1050  -14.4182   26.6080 C   0  0  0  0  0  0  0  0  0  0  0  0
    8.6739  -16.1020   24.1929 O   0  0  0  0  0  0  0  0  0  0  0  0
    8.1250  -17.2276   24.3269 N   0  0  0  0  0  0  0  0  0  0  0  0
   16.7388  -19.2964   24.0335 C   0  0  0  0  0  0  0  0  0  0  0  0
   15.8402  -20.2405   24.6079 N   0  0  0  0  0  0  0  0  0  0  0  0
   16.1614  -21.4866   24.5855 N   0  0  0  0  0  0  0  0  0  0  0  0
   14.6039  -19.8113   25.2012 C   0  0  0  0  0  0  0  0  0  0  0  0
   14.1378  -18.4923   24.8923 C   0  0  0  0  0  0  0  0  0  0  0  0
   12.7253  -18.3678   25.4685 C   0  0  0  0  0  0  0  0  0  0  0  0
   12.0376  -17.1514   24.9134 C   0  0  2  0  0  0  0  0  0  0  0  0
   10.6483  -17.0553   25.4276 N   0  0  0  0  0  0  0  0  0  0  0  0
    9.9395  -15.9132   24.7919 C   0  0  0  0  0  0  0  0  0  0  0  0
   10.5367  -16.9654   26.8798 O   0  0  0  0  0  0  0  0  0  0  0  0
   10.3127  -15.9283   27.5439 O   0  0  0  0  0  0  0  0  0  0  0  0
  2  3  2  0
  2  1  1  0
  4  2  1  0
  5  4  1  0
  6  5  1  0
  6  7  1  0
  8  7  1  0
  8  9  1  1
 10 11  2  0
 10  8  1  0
 12 10  1  0
 13 12  1  0
 13 14  1  1
 15 16  2  0
 15 14  1  0
 17 16  1  0
 18 17  2  0
 19 18  1  0
 19 20  2  0
 20 15  1  0
 21 13  1  0
 21 31  1  0
 22 21  2  0
 23 24  1  0
 24 26  1  0
 24 25  2  0
 26 27  1  0
 27 28  1  0
 28 29  1  0
 30 29  1  6
 30 31  1  0
 30 32  1  0
 32 33  2  0
 32 34  1  0
M  END
$$$$
