RFR.pdb
     RDKit          3D

 34 34  0  0  1  0  0  0  0  0999 V2000
    8.0314  -13.2287   13.1262 N   0  0  0  0  0  0  0  0  0  0  0  0
    8.3447  -14.0639   14.2397 C   0  0  0  0  0  0  0  0  0  0  0  0
    9.1848  -15.0206   14.1374 N   0  0  0  0  0  0  0  0  0  0  0  0
    7.7125  -13.8376   15.5066 N   0  0  0  0  0  0  0  0  0  0  0  0
    7.8756  -14.6745   16.6539 C   0  0  0  0  0  0  0  0  0  0  0  0
    9.1744  -14.4952   17.3569 C   0  0  0  0  0  0  0  0  0  0  0  0
    9.1003  -14.0223   18.7771 C   0  0  0  0  0  0  0  0  0  0  0  0
    8.9777  -15.1004   19.7755 C   0  0  2  0  0  0  0  0  0  0  0  0
    7.7162  -15.7814   19.6080 N   0  0  0  0  0  0  0  0  0  0  0  0
    9.1154  -14.6945   21.1741 C   0  0  0  0  0  0  0  0  0  0  0  0
   10.2173  -14.1774   21.5278 O   0  0  0  0  0  0  0  0  0  0  0  0
    9.5478  -15.6092   14.8949 N   0  0  0  0  0  0  0  0  0  0  0  0
    8.0539  -14.8693   22.1154 C   0  0  1  0  0  0  0  0  0  0  0  0
    8.1544  -14.4687   23.4777 C   0  0  0  0  0  0  0  0  0  0  0  0
    6.8389  -13.7460   23.8130 C   0  0  0  0  0  0  0  0  0  0  0  0
    6.8477  -13.2716   25.2185 C   0  0  0  0  0  0  0  0  0  0  0  0
    7.6074  -12.1668   25.5125 C   0  0  0  0  0  0  0  0  0  0  0  0
    7.6569  -11.6737   26.8074 C   0  0  0  0  0  0  0  0  0  0  0  0
    6.9523  -12.2726   27.8288 C   0  0  0  0  0  0  0  0  0  0  0  0
    6.1929  -13.3800   27.5260 C   0  0  0  0  0  0  0  0  0  0  0  0
    6.1485  -13.8703   26.2177 C   0  0  0  0  0  0  0  0  0  0  0  0
    8.3533  -15.6051   24.4028 O   0  0  0  0  0  0  0  0  0  0  0  0
    7.5232  -16.5441   24.5275 N   0  0  0  0  0  0  0  0  0  0  0  0
   14.1085  -17.9062   20.9429 C   0  0  0  0  0  0  0  0  0  0  0  0
   12.8717  -18.5971   20.7955 N   0  0  0  0  0  0  0  0  0  0  0  0
   12.6177  -19.1689   19.6707 N   0  0  0  0  0  0  0  0  0  0  0  0
   11.9295  -18.6565   21.8788 C   0  0  0  0  0  0  0  0  0  0  0  0
   12.2108  -17.8826   23.0511 C   0  0  0  0  0  0  0  0  0  0  0  0
   11.1211  -18.2064   24.0761 C   0  0  0  0  0  0  0  0  0  0  0  0
   11.2787  -17.3460   25.2989 C   0  0  2  0  0  0  0  0  0  0  0  0
    9.9526  -16.9316   25.8219 N   0  0  0  0  0  0  0  0  0  0  0  0
    9.5242  -15.6548   25.1919 C   0  0  0  0  0  0  0  0  0  0  0  0
    9.8735  -16.8218   27.2749 O   0  0  0  0  0  0  0  0  0  0  0  0
   10.0564  -17.7454   28.0997 O   0  0  0  0  0  0  0  0  0  0  0  0
  2  3  2  0
  2  1  1  0
  4  2  1  0
  5  4  1  0
  6  5  1  0
  6  7  1  0
  8  7  1  0
  8  9  1  1
 10 11  2  0
 10  8  1  0
 12 10  1  0
 13 12  1  0
 13 14  1  1
 15 16  2  0
 15 14  1  0
 17 16  1  0
 18 17  2  0
 19 18  1  0
 19 20  2  0
 20 15  1  0
 21 13  1  0
 21 31  1  0
 22 21  2  0
 23 24  1  0
 24 26  1  0
 24 25  2  0
 26 27  1  0
 27 28  1  0
 28 29  1  0
 30 29  1  6
 30 31  1  0
 30 32  1  0
 32 33  2  0
 32 34  1  0
M  END
$$$$
