RFR.pdb
     RDKit          3D

 34 34  0  0  1  0  0  0  0  0999 V2000
    7.7960  -16.6631   15.5963 N   0  0  0  0  0  0  0  0  0  0  0  0
    8.1609  -17.8920   16.2226 C   0  0  0  0  0  0  0  0  0  0  0  0
    8.9797  -18.7021   15.6702 N   0  0  0  0  0  0  0  0  0  0  0  0
    7.6065  -18.2395   17.4983 N   0  0  0  0  0  0  0  0  0  0  0  0
    6.9027  -17.3320   18.3496 C   0  0  0  0  0  0  0  0  0  0  0  0
    7.4615  -15.9532   18.3618 C   0  0  0  0  0  0  0  0  0  0  0  0
    8.3144  -15.5935   19.5405 C   0  0  0  0  0  0  0  0  0  0  0  0
    7.7012  -14.6236   20.4664 C   0  0  2  0  0  0  0  0  0  0  0  0
    7.6901  -13.3119   19.8641 N   0  0  0  0  0  0  0  0  0  0  0  0
    8.3127  -14.5314   21.7920 C   0  0  0  0  0  0  0  0  0  0  0  0
    9.4072  -13.8994   21.8891 O   0  0  0  0  0  0  0  0  0  0  0  0
    9.2607  -19.6273   16.0123 N   0  0  0  0  0  0  0  0  0  0  0  0
    7.7078  -15.1275   22.9419 C   0  0  2  0  0  0  0  0  0  0  0  0
    8.3479  -15.1816   24.2122 C   0  0  0  0  0  0  0  0  0  0  0  0
    7.2288  -15.0920   25.2633 C   0  0  0  0  0  0  0  0  0  0  0  0
    7.0184  -13.6846   25.6827 C   0  0  0  0  0  0  0  0  0  0  0  0
    7.8323  -13.1860   26.6691 C   0  0  0  0  0  0  0  0  0  0  0  0
    7.6863  -11.8779   27.1048 C   0  0  0  0  0  0  0  0  0  0  0  0
    6.7282  -11.0469   26.5662 C   0  0  0  0  0  0  0  0  0  0  0  0
    5.9159  -11.5543   25.5776 C   0  0  0  0  0  0  0  0  0  0  0  0
    6.0702  -12.8743   25.1442 C   0  0  0  0  0  0  0  0  0  0  0  0
    9.1296  -16.4204   24.4149 O   0  0  0  0  0  0  0  0  0  0  0  0
    8.6685  -17.5700   24.1864 N   0  0  0  0  0  0  0  0  0  0  0  0
   16.9700  -17.1440   21.6962 C   0  0  0  0  0  0  0  0  0  0  0  0
   16.7438  -16.7962   23.0587 N   0  0  0  0  0  0  0  0  0  0  0  0
   17.6129  -16.0594   23.6571 N   0  0  0  0  0  0  0  0  0  0  0  0
   15.5704  -17.2558   23.7493 C   0  0  0  0  0  0  0  0  0  0  0  0
   14.6610  -18.0986   23.0319 C   0  0  0  0  0  0  0  0  0  0  0  0
   13.4837  -18.3884   23.9662 C   0  0  0  0  0  0  0  0  0  0  0  0
   12.5984  -17.1790   24.0853 C   0  0  2  0  0  0  0  0  0  0  0  0
   11.3592  -17.5090   24.8332 N   0  0  0  0  0  0  0  0  0  0  0  0
   10.4578  -16.3278   24.8874 C   0  0  0  0  0  0  0  0  0  0  0  0
   11.5758  -18.0332   26.1778 O   0  0  0  0  0  0  0  0  0  0  0  0
   11.2490  -17.4791   27.2515 O   0  0  0  0  0  0  0  0  0  0  0  0
  2  3  2  0
  2  1  1  0
  4  2  1  0
  5  4  1  0
  6  5  1  0
  6  7  1  0
  8  7  1  0
  8  9  1  6
 10 11  2  0
 10  8  1  0
 12 10  1  0
 13 12  1  0
 13 14  1  6
 15 16  2  0
 15 14  1  0
 17 16  1  0
 18 17  2  0
 19 18  1  0
 19 20  2  0
 20 15  1  0
 21 13  1  0
 21 31  1  0
 22 21  2  0
 23 24  1  0
 24 26  1  0
 24 25  2  0
 26 27  1  0
 27 28  1  0
 28 29  1  0
 30 29  1  6
 30 31  1  0
 30 32  1  0
 32 33  2  0
 32 34  1  0
M  END
$$$$
