RFR.pdb
     RDKit          3D

 34 34  0  0  1  0  0  0  0  0999 V2000
    8.0304  -14.1610   15.3149 N   0  0  0  0  0  0  0  0  0  0  0  0
    8.6578  -15.4301   15.4922 C   0  0  0  0  0  0  0  0  0  0  0  0
    9.4433  -15.9125   14.6080 N   0  0  0  0  0  0  0  0  0  0  0  0
    8.4122  -16.1920   16.6817 N   0  0  0  0  0  0  0  0  0  0  0  0
    7.4612  -15.8375   17.6884 C   0  0  0  0  0  0  0  0  0  0  0  0
    7.9830  -14.8907   18.7105 C   0  0  0  0  0  0  0  0  0  0  0  0
    7.0314  -14.5009   19.8008 C   0  0  0  0  0  0  0  0  0  0  0  0
    7.5494  -13.4787   20.7286 C   0  0  2  0  0  0  0  0  0  0  0  0
    8.4444  -12.5897   20.0272 N   0  0  0  0  0  0  0  0  0  0  0  0
    8.2239  -13.9843   21.9241 C   0  0  0  0  0  0  0  0  0  0  0  0
    9.4895  -14.0507   21.8981 O   0  0  0  0  0  0  0  0  0  0  0  0
    9.8879  -16.8369   14.6131 N   0  0  0  0  0  0  0  0  0  0  0  0
    7.4939  -14.3908   23.0839 C   0  0  1  0  0  0  0  0  0  0  0  0
    8.1151  -14.9761   24.2231 C   0  0  0  0  0  0  0  0  0  0  0  0
    7.1481  -14.7617   25.3996 C   0  0  0  0  0  0  0  0  0  0  0  0
    7.1780  -13.3481   25.8487 C   0  0  0  0  0  0  0  0  0  0  0  0
    6.1110  -12.5517   25.5151 C   0  0  0  0  0  0  0  0  0  0  0  0
    6.0789  -11.2218   25.9057 C   0  0  0  0  0  0  0  0  0  0  0  0
    7.1078  -10.6645   26.6332 C   0  0  0  0  0  0  0  0  0  0  0  0
    8.1743  -11.4695   26.9637 C   0  0  0  0  0  0  0  0  0  0  0  0
    8.1983  -12.8094   26.5660 C   0  0  0  0  0  0  0  0  0  0  0  0
    8.3903  -16.4194   24.0556 O   0  0  0  0  0  0  0  0  0  0  0  0
    7.8734  -17.1170   23.1432 N   0  0  0  0  0  0  0  0  0  0  0  0
   14.7789  -18.3098   19.8478 C   0  0  0  0  0  0  0  0  0  0  0  0
   14.9065  -19.2507   20.9095 N   0  0  0  0  0  0  0  0  0  0  0  0
   15.9278  -20.0339   20.9169 N   0  0  0  0  0  0  0  0  0  0  0  0
   13.9184  -19.3225   21.9503 C   0  0  0  0  0  0  0  0  0  0  0  0
   12.6967  -18.5987   21.7619 C   0  0  0  0  0  0  0  0  0  0  0  0
   11.7442  -19.0241   22.8820 C   0  0  0  0  0  0  0  0  0  0  0  0
   10.8963  -17.8621   23.3193 C   0  0  1  0  0  0  0  0  0  0  0  0
   10.0837  -18.2249   24.5075 N   0  0  0  0  0  0  0  0  0  0  0  0
    9.2719  -17.0618   24.9536 C   0  0  0  0  0  0  0  0  0  0  0  0
   10.8454  -18.7614   25.6307 O   0  0  0  0  0  0  0  0  0  0  0  0
   11.4788  -19.8408   25.6494 O   0  0  0  0  0  0  0  0  0  0  0  0
  2  3  2  0
  2  1  1  0
  4  2  1  0
  5  4  1  0
  6  5  1  0
  6  7  1  0
  8  7  1  0
  8  9  1  6
 10 11  2  0
 10  8  1  0
 12 10  1  0
 13 12  1  0
 13 14  1  1
 15 16  2  0
 15 14  1  0
 17 16  1  0
 18 17  2  0
 19 18  1  0
 19 20  2  0
 20 15  1  0
 21 13  1  0
 21 31  1  0
 22 21  2  0
 23 24  1  0
 24 26  1  0
 24 25  2  0
 26 27  1  0
 27 28  1  0
 28 29  1  0
 30 29  1  6
 30 31  1  0
 30 32  1  0
 32 33  2  0
 32 34  1  0
M  END
$$$$
