RFR.pdb
     RDKit          3D

 34 34  0  0  1  0  0  0  0  0999 V2000
   10.1181  -13.5679   16.5732 N   0  0  0  0  0  0  0  0  0  0  0  0
    8.8956  -13.7220   15.8538 C   0  0  0  0  0  0  0  0  0  0  0  0
    8.8540  -13.6096   14.5821 N   0  0  0  0  0  0  0  0  0  0  0  0
    7.6801  -14.0094   16.5579 N   0  0  0  0  0  0  0  0  0  0  0  0
    7.6163  -14.6396   17.8394 C   0  0  0  0  0  0  0  0  0  0  0  0
    8.2587  -15.9806   17.8895 C   0  0  0  0  0  0  0  0  0  0  0  0
    9.4694  -16.1040   18.7641 C   0  0  0  0  0  0  0  0  0  0  0  0
    9.1907  -16.5802   20.1314 C   0  0  2  0  0  0  0  0  0  0  0  0
    7.8662  -17.1507   20.1905 N   0  0  0  0  0  0  0  0  0  0  0  0
    9.3258  -15.5845   21.1945 C   0  0  0  0  0  0  0  0  0  0  0  0
   10.3843  -14.8873   21.2124 O   0  0  0  0  0  0  0  0  0  0  0  0
    8.0328  -13.7195   13.9775 N   0  0  0  0  0  0  0  0  0  0  0  0
    8.3091  -15.3959   22.1814 C   0  0  1  0  0  0  0  0  0  0  0  0
    8.4084  -14.4263   23.2189 C   0  0  0  0  0  0  0  0  0  0  0  0
    6.9662  -14.0848   23.6297 C   0  0  0  0  0  0  0  0  0  0  0  0
    6.9593  -13.1165   24.7535 C   0  0  0  0  0  0  0  0  0  0  0  0
    6.4467  -13.5392   25.9546 C   0  0  0  0  0  0  0  0  0  0  0  0
    6.4126  -12.6818   27.0436 C   0  0  0  0  0  0  0  0  0  0  0  0
    6.8871  -11.3914   26.9538 C   0  0  0  0  0  0  0  0  0  0  0  0
    7.3995  -10.9749   25.7461 C   0  0  0  0  0  0  0  0  0  0  0  0
    7.4302  -11.8461   24.6532 C   0  0  0  0  0  0  0  0  0  0  0  0
    9.1643  -14.9105   24.3941 O   0  0  0  0  0  0  0  0  0  0  0  0
    9.4779  -14.1698   25.3633 N   0  0  0  0  0  0  0  0  0  0  0  0
   10.1863  -20.8608   30.2705 C   0  0  0  0  0  0  0  0  0  0  0  0
    9.3910  -21.0083   29.0981 N   0  0  0  0  0  0  0  0  0  0  0  0
    8.6361  -22.0455   28.9944 N   0  0  0  0  0  0  0  0  0  0  0  0
    9.4289  -20.0203   28.0554 C   0  0  0  0  0  0  0  0  0  0  0  0
    8.5995  -18.8617   28.2033 C   0  0  0  0  0  0  0  0  0  0  0  0
    9.3726  -17.6773   27.6183 C   0  0  0  0  0  0  0  0  0  0  0  0
    9.7619  -17.9571   26.1933 C   0  0  2  0  0  0  0  0  0  0  0  0
   10.3907  -16.7614   25.5779 N   0  0  0  0  0  0  0  0  0  0  0  0
    9.5619  -16.2652   24.4476 C   0  0  0  0  0  0  0  0  0  0  0  0
   11.7696  -16.9508   25.1395 O   0  0  0  0  0  0  0  0  0  0  0  0
   12.1714  -17.7799   24.2922 O   0  0  0  0  0  0  0  0  0  0  0  0
  2  3  2  0
  2  1  1  0
  4  2  1  0
  5  4  1  0
  6  5  1  0
  6  7  1  0
  8  7  1  0
  8  9  1  6
 10 11  2  0
 10  8  1  0
 12 10  1  0
 13 12  1  0
 13 14  1  1
 15 16  2  0
 15 14  1  0
 17 16  1  0
 18 17  2  0
 19 18  1  0
 19 20  2  0
 20 15  1  0
 21 13  1  0
 21 31  1  0
 22 21  2  0
 23 24  1  0
 24 26  1  0
 24 25  2  0
 26 27  1  0
 27 28  1  0
 28 29  1  0
 30 29  1  1
 30 31  1  0
 30 32  1  0
 32 33  2  0
 32 34  1  0
M  END
$$$$
