RFR.pdb
     RDKit          3D

 34 34  0  0  1  0  0  0  0  0999 V2000
    8.1442  -15.1941   15.5196 N   0  0  0  0  0  0  0  0  0  0  0  0
    8.0923  -13.7685   15.5474 C   0  0  0  0  0  0  0  0  0  0  0  0
    7.6019  -13.1022   14.5743 N   0  0  0  0  0  0  0  0  0  0  0  0
    8.5966  -13.0543   16.6838 N   0  0  0  0  0  0  0  0  0  0  0  0
    9.0838  -13.6718   17.8773 C   0  0  0  0  0  0  0  0  0  0  0  0
    8.0178  -14.0543   18.8421 C   0  0  0  0  0  0  0  0  0  0  0  0
    7.7470  -15.5215   18.9841 C   0  0  0  0  0  0  0  0  0  0  0  0
    8.6100  -16.2114   19.9604 C   0  0  2  0  0  0  0  0  0  0  0  0
    8.0610  -17.5108   20.2665 N   0  0  0  0  0  0  0  0  0  0  0  0
    8.8588  -15.4952   21.2114 C   0  0  0  0  0  0  0  0  0  0  0  0
    9.8764  -14.7410   21.2616 O   0  0  0  0  0  0  0  0  0  0  0  0
    7.5759  -12.0817   14.4737 N   0  0  0  0  0  0  0  0  0  0  0  0
    7.9938  -15.6327   22.3411 C   0  0  1  0  0  0  0  0  0  0  0  0
    8.2577  -15.0166   23.5969 C   0  0  0  0  0  0  0  0  0  0  0  0
    6.9974  -14.2116   23.9558 C   0  0  0  0  0  0  0  0  0  0  0  0
    7.1952  -13.4714   25.2261 C   0  0  0  0  0  0  0  0  0  0  0  0
    6.7478  -14.0607   26.3823 C   0  0  0  0  0  0  0  0  0  0  0  0
    6.9036  -13.4201   27.6020 C   0  0  0  0  0  0  0  0  0  0  0  0
    7.5060  -12.1840   27.6896 C   0  0  0  0  0  0  0  0  0  0  0  0
    7.9519  -11.5997   26.5258 C   0  0  0  0  0  0  0  0  0  0  0  0
    7.7909  -12.2527   25.3003 C   0  0  0  0  0  0  0  0  0  0  0  0
    8.5542  -15.9906   24.6694 O   0  0  0  0  0  0  0  0  0  0  0  0
    7.7602  -16.9098   25.0027 N   0  0  0  0  0  0  0  0  0  0  0  0
   13.3726  -21.9539   27.4893 C   0  0  0  0  0  0  0  0  0  0  0  0
   13.7909  -21.1657   26.3791 N   0  0  0  0  0  0  0  0  0  0  0  0
   15.0449  -20.9087   26.2459 N   0  0  0  0  0  0  0  0  0  0  0  0
   12.8346  -20.6705   25.4277 C   0  0  0  0  0  0  0  0  0  0  0  0
   11.5774  -20.2002   25.9281 C   0  0  0  0  0  0  0  0  0  0  0  0
   11.8308  -18.8328   26.5676 C   0  0  0  0  0  0  0  0  0  0  0  0
   11.3639  -17.7325   25.6555 C   0  0  1  0  0  0  0  0  0  0  0  0
   10.2220  -17.0010   26.2595 N   0  0  0  0  0  0  0  0  0  0  0  0
    9.7814  -15.8993   25.3635 C   0  0  0  0  0  0  0  0  0  0  0  0
   10.4662  -16.4842   27.6022 O   0  0  0  0  0  0  0  0  0  0  0  0
   10.4801  -15.2797   27.9423 O   0  0  0  0  0  0  0  0  0  0  0  0
  2  3  2  0
  2  1  1  0
  4  2  1  0
  5  4  1  0
  6  5  1  0
  6  7  1  0
  8  7  1  0
  8  9  1  1
 10 11  2  0
 10  8  1  0
 12 10  1  0
 13 12  1  0
 13 14  1  6
 15 16  2  0
 15 14  1  0
 17 16  1  0
 18 17  2  0
 19 18  1  0
 19 20  2  0
 20 15  1  0
 21 13  1  0
 21 31  1  0
 22 21  2  0
 23 24  1  0
 24 26  1  0
 24 25  2  0
 26 27  1  0
 27 28  1  0
 28 29  1  0
 30 29  1  6
 30 31  1  0
 30 32  1  0
 32 33  2  0
 32 34  1  0
M  END
$$$$
