RFR.pdb
     RDKit          3D

 34 34  0  0  1  0  0  0  0  0999 V2000
    8.1601  -20.3039   17.8981 N   0  0  0  0  0  0  0  0  0  0  0  0
    8.9969  -21.3779   18.3248 C   0  0  0  0  0  0  0  0  0  0  0  0
    8.9205  -22.5340   17.7871 N   0  0  0  0  0  0  0  0  0  0  0  0
    9.9484  -21.1715   19.3772 N   0  0  0  0  0  0  0  0  0  0  0  0
   10.0128  -19.9989   20.1922 C   0  0  0  0  0  0  0  0  0  0  0  0
   10.4341  -18.7735   19.4611 C   0  0  0  0  0  0  0  0  0  0  0  0
   10.5455  -17.5204   20.2757 C   0  0  0  0  0  0  0  0  0  0  0  0
    9.2549  -16.9621   20.7192 C   0  0  2  0  0  0  0  0  0  0  0  0
    8.5902  -16.3239   19.6084 N   0  0  0  0  0  0  0  0  0  0  0  0
    9.3164  -16.0222   21.8384 C   0  0  0  0  0  0  0  0  0  0  0  0
   10.3740  -15.3356   21.9687 O   0  0  0  0  0  0  0  0  0  0  0  0
    9.4638  -23.3684   18.0335 N   0  0  0  0  0  0  0  0  0  0  0  0
    8.2310  -15.8749   22.7568 C   0  0  2  0  0  0  0  0  0  0  0  0
    8.2852  -15.0101   23.8862 C   0  0  0  0  0  0  0  0  0  0  0  0
    6.8277  -14.6675   24.2376 C   0  0  0  0  0  0  0  0  0  0  0  0
    6.7729  -13.7647   25.4135 C   0  0  0  0  0  0  0  0  0  0  0  0
    6.4430  -14.3178   26.6257 C   0  0  0  0  0  0  0  0  0  0  0  0
    6.3755  -13.5271   27.7626 C   0  0  0  0  0  0  0  0  0  0  0  0
    6.6345  -12.1748   27.7104 C   0  0  0  0  0  0  0  0  0  0  0  0
    6.9645  -11.6276   26.4912 C   0  0  0  0  0  0  0  0  0  0  0  0
    7.0306  -12.4323   25.3500 C   0  0  0  0  0  0  0  0  0  0  0  0
    8.9528  -15.6238   25.0544 O   0  0  0  0  0  0  0  0  0  0  0  0
    8.6455  -16.7592   25.5045 N   0  0  0  0  0  0  0  0  0  0  0  0
   16.7765  -15.8245   24.0350 C   0  0  0  0  0  0  0  0  0  0  0  0
   16.3008  -17.0930   24.4747 N   0  0  0  0  0  0  0  0  0  0  0  0
   16.9612  -18.1461   24.1408 N   0  0  0  0  0  0  0  0  0  0  0  0
   15.1118  -17.1948   25.2750 C   0  0  0  0  0  0  0  0  0  0  0  0
   14.3048  -16.0206   25.4237 C   0  0  0  0  0  0  0  0  0  0  0  0
   13.0937  -16.4116   26.2742 C   0  0  0  0  0  0  0  0  0  0  0  0
   12.2491  -15.2037   26.5712 C   0  0  2  0  0  0  0  0  0  0  0  0
   10.8248  -15.5884   26.7354 N   0  0  0  0  0  0  0  0  0  0  0  0
    9.9858  -14.9158   25.7085 C   0  0  0  0  0  0  0  0  0  0  0  0
   10.2740  -15.3477   28.0651 O   0  0  0  0  0  0  0  0  0  0  0  0
    9.6812  -14.3133   28.4464 O   0  0  0  0  0  0  0  0  0  0  0  0
  2  3  2  0
  2  1  1  0
  4  2  1  0
  5  4  1  0
  6  5  1  0
  6  7  1  0
  8  7  1  0
  8  9  1  6
 10 11  2  0
 10  8  1  0
 12 10  1  0
 13 12  1  0
 13 14  1  6
 15 16  2  0
 15 14  1  0
 17 16  1  0
 18 17  2  0
 19 18  1  0
 19 20  2  0
 20 15  1  0
 21 13  1  0
 21 31  1  0
 22 21  2  0
 23 24  1  0
 24 26  1  0
 24 25  2  0
 26 27  1  0
 27 28  1  0
 28 29  1  0
 30 29  1  6
 30 31  1  0
 30 32  1  0
 32 33  2  0
 32 34  1  0
M  END
$$$$
