NEQ.pdb
     RDKit          3D

 27 26  0  0  1  0  0  0  0  0999 V2000
    5.7938  -12.4993   17.3000 N   0  0  0  0  0  0  0  0  0  0  0  0
    6.3365  -13.4943   16.4468 C   0  0  0  0  0  0  0  0  0  0  0  0
    6.1225  -13.4097   15.2237 O   0  0  0  0  0  0  0  0  0  0  0  0
    7.1341  -14.5841   17.0825 C   0  0  0  0  0  0  0  0  0  0  0  0
    8.1689  -14.0186   18.0330 C   0  0  2  0  0  0  0  0  0  0  0  0
    9.0786  -13.2014   17.2562 N   0  0  0  0  0  0  0  0  0  0  0  0
    8.8997  -15.1457   18.6190 C   0  0  0  0  0  0  0  0  0  0  0  0
    8.2620  -16.0424   19.2335 O   0  0  0  0  0  0  0  0  0  0  0  0
   10.3221  -15.2828   18.5281 N   0  0  0  0  0  0  0  0  0  0  0  0
   10.9552  -16.3725   19.1866 C   0  0  1  0  0  0  0  0  0  0  0  0
   12.1433  -16.8405   18.3814 C   0  0  0  0  0  0  0  0  0  0  0  0
   11.7353  -17.4984   17.0870 C   0  0  0  0  0  0  0  0  0  0  0  0
   12.9808  -17.9152   16.3935 C   0  0  0  0  0  0  0  0  0  0  0  0
   13.5205  -19.0381   16.5723 O   0  0  0  0  0  0  0  0  0  0  0  0
   11.3905  -16.0347   20.5725 C   0  0  0  0  0  0  0  0  0  0  0  0
   12.0391  -14.9769   20.7712 O   0  0  0  0  0  0  0  0  0  0  0  0
   13.6103  -17.0421   15.4916 O   0  0  0  0  0  0  0  0  0  0  0  0
    8.2831  -17.1228   26.0399 N   0  0  0  0  0  0  0  0  0  0  0  0
    9.5705  -16.6358   26.3703 C   0  0  0  0  0  0  0  0  0  0  0  0
    9.7730  -16.3522   27.6046 O   0  0  0  0  0  0  0  0  0  0  0  0
   10.6694  -16.4444   25.4154 C   0  0  0  0  0  0  0  0  0  0  0  0
   10.3903  -16.7608   23.9944 C   0  0  0  0  0  0  0  0  0  0  0  0
   11.5021  -16.4876   23.0691 C   0  0  2  0  0  0  0  0  0  0  0  0
   11.1097  -16.8497   21.6874 N   0  0  0  0  0  0  0  0  0  0  0  0
   12.7903  -17.0900   23.2975 C   0  0  0  0  0  0  0  0  0  0  0  0
   13.8385  -16.4526   23.9967 O   0  0  0  0  0  0  0  0  0  0  0  0
   13.0715  -18.2356   22.8856 O   0  0  0  0  0  0  0  0  0  0  0  0
  2  3  2  0
  2  1  1  0
  4  2  1  0
  5  4  1  0
  5  6  1  6
  7  8  2  0
  7  5  1  0
  9  7  1  0
 10 11  1  6
 10  9  1  0
 11 12  1  0
 12 13  1  0
 13 17  1  0
 14 13  2  0
 15 24  1  0
 15 10  1  0
 16 15  2  0
 19 18  1  0
 20 19  2  0
 21 19  1  0
 22 21  1  0
 23 22  1  1
 23 24  1  0
 25 26  1  0
 25 23  1  0
 27 25  2  0
M  END
$$$$
