NEQ.pdb
     RDKit          3D

 27 26  0  0  1  0  0  0  0  0999 V2000
   13.6994  -19.6607   19.1404 N   0  0  0  0  0  0  0  0  0  0  0  0
   13.5645  -19.8037   20.5454 C   0  0  0  0  0  0  0  0  0  0  0  0
   13.9138  -20.8769   21.0698 O   0  0  0  0  0  0  0  0  0  0  0  0
   13.0075  -18.6450   21.3036 C   0  0  0  0  0  0  0  0  0  0  0  0
   12.6335  -17.5121   20.3705 C   0  0  2  0  0  0  0  0  0  0  0  0
   13.8614  -16.8777   19.9359 N   0  0  0  0  0  0  0  0  0  0  0  0
   11.8286  -16.5534   21.1326 C   0  0  0  0  0  0  0  0  0  0  0  0
   12.4067  -15.6444   21.7867 O   0  0  0  0  0  0  0  0  0  0  0  0
   10.3980  -16.5967   21.1729 N   0  0  0  0  0  0  0  0  0  0  0  0
    9.7015  -15.6766   22.0038 C   0  0  1  0  0  0  0  0  0  0  0  0
    8.4396  -15.2150   21.3157 C   0  0  0  0  0  0  0  0  0  0  0  0
    8.7229  -14.2872   20.1609 C   0  0  0  0  0  0  0  0  0  0  0  0
    7.4179  -13.9502   19.5368 C   0  0  0  0  0  0  0  0  0  0  0  0
    6.3186  -14.3763   19.9770 O   0  0  0  0  0  0  0  0  0  0  0  0
    9.3641  -16.2472   23.3398 C   0  0  0  0  0  0  0  0  0  0  0  0
    9.1494  -17.4810   23.4436 O   0  0  0  0  0  0  0  0  0  0  0  0
    7.3726  -13.1216   18.4039 O   0  0  0  0  0  0  0  0  0  0  0  0
    9.9971  -13.4402   29.2074 N   0  0  0  0  0  0  0  0  0  0  0  0
   10.0264  -14.8550   29.2447 C   0  0  0  0  0  0  0  0  0  0  0  0
   10.4141  -15.3881   30.3448 O   0  0  0  0  0  0  0  0  0  0  0  0
    9.6435  -15.7351   28.1334 C   0  0  0  0  0  0  0  0  0  0  0  0
    9.1575  -15.0831   26.8940 C   0  0  0  0  0  0  0  0  0  0  0  0
    8.8033  -16.0085   25.8054 C   0  0  2  0  0  0  0  0  0  0  0  0
    9.2716  -15.4659   24.5090 N   0  0  0  0  0  0  0  0  0  0  0  0
    7.4298  -16.3967   25.6118 C   0  0  0  0  0  0  0  0  0  0  0  0
    6.5657  -15.7768   24.6828 O   0  0  0  0  0  0  0  0  0  0  0  0
    6.9020  -17.3229   26.2635 O   0  0  0  0  0  0  0  0  0  0  0  0
  2  3  2  0
  2  1  1  0
  4  2  1  0
  5  4  1  0
  5  6  1  1
  7  8  2  0
  7  5  1  0
  9  7  1  0
 10 11  1  6
 10  9  1  0
 11 12  1  0
 12 13  1  0
 13 17  1  0
 14 13  2  0
 15 24  1  0
 15 10  1  0
 16 15  2  0
 19 18  1  0
 20 19  2  0
 21 19  1  0
 22 21  1  0
 23 22  1  1
 23 24  1  0
 25 26  1  0
 25 23  1  0
 27 25  2  0
M  END
$$$$
