NEQ.pdb
     RDKit          3D

 27 26  0  0  1  0  0  0  0  0999 V2000
    9.0518  -13.1564   16.1295 N   0  0  0  0  0  0  0  0  0  0  0  0
    8.1757  -14.2671   16.2358 C   0  0  0  0  0  0  0  0  0  0  0  0
    7.6425  -14.7047   15.1999 O   0  0  0  0  0  0  0  0  0  0  0  0
    7.9526  -14.8385   17.5965 C   0  0  0  0  0  0  0  0  0  0  0  0
    8.6942  -14.0425   18.6502 C   0  0  2  0  0  0  0  0  0  0  0  0
    8.8787  -12.7001   18.1374 N   0  0  0  0  0  0  0  0  0  0  0  0
   10.0007  -14.6756   18.8505 C   0  0  0  0  0  0  0  0  0  0  0  0
   10.0557  -15.8377   19.3351 O   0  0  0  0  0  0  0  0  0  0  0  0
   11.2363  -14.0324   18.5191 N   0  0  0  0  0  0  0  0  0  0  0  0
   12.4602  -14.6988   18.8017 C   0  0  1  0  0  0  0  0  0  0  0  0
   13.5246  -14.2556   17.8271 C   0  0  0  0  0  0  0  0  0  0  0  0
   14.8451  -14.9431   18.0685 C   0  0  0  0  0  0  0  0  0  0  0  0
   15.3482  -15.4052   16.7497 C   0  0  0  0  0  0  0  0  0  0  0  0
   16.1344  -16.3795   16.6205 O   0  0  0  0  0  0  0  0  0  0  0  0
   12.9323  -14.4703   20.1978 C   0  0  0  0  0  0  0  0  0  0  0  0
   13.1770  -13.2980   20.5786 O   0  0  0  0  0  0  0  0  0  0  0  0
   14.9490  -14.7484   15.5746 O   0  0  0  0  0  0  0  0  0  0  0  0
    9.7512  -18.2024   23.7268 N   0  0  0  0  0  0  0  0  0  0  0  0
   10.7600  -17.3129   24.1680 C   0  0  0  0  0  0  0  0  0  0  0  0
   10.5706  -16.7565   25.3080 O   0  0  0  0  0  0  0  0  0  0  0  0
   11.9873  -16.9965   23.4265 C   0  0  0  0  0  0  0  0  0  0  0  0
   12.4417  -15.5856   23.4460 C   0  0  0  0  0  0  0  0  0  0  0  0
   13.5485  -15.2786   22.5254 C   0  0  2  0  0  0  0  0  0  0  0  0
   13.1215  -15.5133   21.1265 N   0  0  0  0  0  0  0  0  0  0  0  0
   14.8167  -15.9436   22.6808 C   0  0  0  0  0  0  0  0  0  0  0  0
   15.6896  -15.7182   23.7677 O   0  0  0  0  0  0  0  0  0  0  0  0
   15.2365  -16.7780   21.8509 O   0  0  0  0  0  0  0  0  0  0  0  0
  2  3  2  0
  2  1  1  0
  4  2  1  0
  5  4  1  0
  5  6  1  6
  7  8  2  0
  7  5  1  0
  9  7  1  0
 10 11  1  6
 10  9  1  0
 11 12  1  0
 12 13  1  0
 13 17  1  0
 14 13  2  0
 15 24  1  0
 15 10  1  0
 16 15  2  0
 19 18  1  0
 20 19  2  0
 21 19  1  0
 22 21  1  0
 23 22  1  1
 23 24  1  0
 25 26  1  0
 25 23  1  0
 27 25  2  0
M  END
$$$$
