NEQ.pdb
     RDKit          3D

 27 26  0  0  1  0  0  0  0  0999 V2000
    8.6093  -12.2505   17.8072 N   0  0  0  0  0  0  0  0  0  0  0  0
    7.6109  -13.2554   17.7303 C   0  0  0  0  0  0  0  0  0  0  0  0
    6.8606  -13.2731   16.7375 O   0  0  0  0  0  0  0  0  0  0  0  0
    7.5297  -14.2309   18.8571 C   0  0  0  0  0  0  0  0  0  0  0  0
    8.5182  -13.8838   19.9508 C   0  0  2  0  0  0  0  0  0  0  0  0
    9.8241  -13.7532   19.3371 N   0  0  0  0  0  0  0  0  0  0  0  0
    8.5339  -14.9943   20.9071 C   0  0  0  0  0  0  0  0  0  0  0  0
    7.5153  -15.2126   21.6164 O   0  0  0  0  0  0  0  0  0  0  0  0
    9.6637  -15.8569   21.0797 N   0  0  0  0  0  0  0  0  0  0  0  0
    9.6512  -16.8095   22.1353 C   0  0  1  0  0  0  0  0  0  0  0  0
   10.0642  -18.1638   21.6113 C   0  0  0  0  0  0  0  0  0  0  0  0
    9.1432  -18.6642   20.5268 C   0  0  0  0  0  0  0  0  0  0  0  0
    9.6603  -19.9844   20.0847 C   0  0  0  0  0  0  0  0  0  0  0  0
   10.6847  -20.5196   20.5828 O   0  0  0  0  0  0  0  0  0  0  0  0
   10.5342  -16.4216   23.2729 C   0  0  0  0  0  0  0  0  0  0  0  0
   11.4165  -15.5450   23.0935 O   0  0  0  0  0  0  0  0  0  0  0  0
    9.0010  -20.6940   19.0681 O   0  0  0  0  0  0  0  0  0  0  0  0
   10.2093  -12.4176   28.5697 N   0  0  0  0  0  0  0  0  0  0  0  0
   10.1497  -13.7898   28.2273 C   0  0  0  0  0  0  0  0  0  0  0  0
    9.2220  -14.4769   28.7861 O   0  0  0  0  0  0  0  0  0  0  0  0
   11.0558  -14.4640   27.2888 C   0  0  0  0  0  0  0  0  0  0  0  0
   10.4357  -15.1648   26.1391 C   0  0  0  0  0  0  0  0  0  0  0  0
   11.0971  -16.4209   25.7495 C   0  0  2  0  0  0  0  0  0  0  0  0
   10.4309  -16.9934   24.5568 N   0  0  0  0  0  0  0  0  0  0  0  0
   11.2180  -17.4940   26.7027 C   0  0  0  0  0  0  0  0  0  0  0  0
   12.2173  -17.5457   27.6990 O   0  0  0  0  0  0  0  0  0  0  0  0
   10.4342  -18.4669   26.7121 O   0  0  0  0  0  0  0  0  0  0  0  0
  2  3  2  0
  2  1  1  0
  4  2  1  0
  5  4  1  0
  5  6  1  6
  7  8  2  0
  7  5  1  0
  9  7  1  0
 10 11  1  6
 10  9  1  0
 11 12  1  0
 12 13  1  0
 13 17  1  0
 14 13  2  0
 15 24  1  0
 15 10  1  0
 16 15  2  0
 19 18  1  0
 20 19  2  0
 21 19  1  0
 22 21  1  0
 23 22  1  1
 23 24  1  0
 25 26  1  0
 25 23  1  0
 27 25  2  0
M  END
$$$$
