NEQ.pdb
     RDKit          3D

 27 26  0  0  1  0  0  0  0  0999 V2000
    7.2274  -12.7582   17.9243 N   0  0  0  0  0  0  0  0  0  0  0  0
    7.6109  -13.0085   19.2669 C   0  0  0  0  0  0  0  0  0  0  0  0
    6.8811  -12.5861   20.1822 O   0  0  0  0  0  0  0  0  0  0  0  0
    8.8759  -13.7688   19.4898 C   0  0  0  0  0  0  0  0  0  0  0  0
    9.5634  -14.0798   18.1766 C   0  0  2  0  0  0  0  0  0  0  0  0
    8.6921  -14.9573   17.4217 N   0  0  0  0  0  0  0  0  0  0  0  0
   10.8162  -14.7762   18.4825 C   0  0  0  0  0  0  0  0  0  0  0  0
   10.7856  -16.0016   18.7752 O   0  0  0  0  0  0  0  0  0  0  0  0
   12.0920  -14.1265   18.4658 N   0  0  0  0  0  0  0  0  0  0  0  0
   13.2578  -14.8847   18.7624 C   0  0  1  0  0  0  0  0  0  0  0  0
   14.4048  -14.4258   17.8945 C   0  0  0  0  0  0  0  0  0  0  0  0
   15.6724  -15.1971   18.1647 C   0  0  0  0  0  0  0  0  0  0  0  0
   16.7226  -14.6447   17.2715 C   0  0  0  0  0  0  0  0  0  0  0  0
   17.6964  -13.9700   17.6962 O   0  0  0  0  0  0  0  0  0  0  0  0
   13.6509  -14.8001   20.1985 C   0  0  0  0  0  0  0  0  0  0  0  0
   13.8830  -13.6741   20.7058 O   0  0  0  0  0  0  0  0  0  0  0  0
   16.6565  -14.8661   15.8864 O   0  0  0  0  0  0  0  0  0  0  0  0
   10.9991  -18.3032   24.7185 N   0  0  0  0  0  0  0  0  0  0  0  0
   12.0335  -17.5640   25.3409 C   0  0  0  0  0  0  0  0  0  0  0  0
   12.1323  -17.6830   26.6141 O   0  0  0  0  0  0  0  0  0  0  0  0
   12.9862  -16.6937   24.6401 C   0  0  0  0  0  0  0  0  0  0  0  0
   12.8780  -16.6275   23.1632 C   0  0  0  0  0  0  0  0  0  0  0  0
   13.9284  -15.8377   22.5000 C   0  0  2  0  0  0  0  0  0  0  0  0
   13.7779  -15.9313   21.0294 N   0  0  0  0  0  0  0  0  0  0  0  0
   15.3148  -16.1046   22.7851 C   0  0  0  0  0  0  0  0  0  0  0  0
   16.1456  -16.8916   21.9578 O   0  0  0  0  0  0  0  0  0  0  0  0
   15.8848  -15.6504   23.7999 O   0  0  0  0  0  0  0  0  0  0  0  0
  2  3  2  0
  2  1  1  0
  4  2  1  0
  5  4  1  0
  5  6  1  6
  7  8  2  0
  7  5  1  0
  9  7  1  0
 10 11  1  6
 10  9  1  0
 11 12  1  0
 12 13  1  0
 13 17  1  0
 14 13  2  0
 15 24  1  0
 15 10  1  0
 16 15  2  0
 19 18  1  0
 20 19  2  0
 21 19  1  0
 22 21  1  0
 23 22  1  1
 23 24  1  0
 25 26  1  0
 25 23  1  0
 27 25  2  0
M  END
$$$$
