NEQ.pdb
     RDKit          3D

 27 26  0  0  1  0  0  0  0  0999 V2000
    7.5357  -12.0546   17.0004 N   0  0  0  0  0  0  0  0  0  0  0  0
    7.8801  -13.4304   17.0318 C   0  0  0  0  0  0  0  0  0  0  0  0
    8.5217  -13.9045   16.0766 O   0  0  0  0  0  0  0  0  0  0  0  0
    7.4443  -14.2209   18.2206 C   0  0  0  0  0  0  0  0  0  0  0  0
    8.2873  -13.8893   19.4344 C   0  0  2  0  0  0  0  0  0  0  0  0
    9.6402  -13.6464   18.9764 N   0  0  0  0  0  0  0  0  0  0  0  0
    8.2712  -15.0560   20.3212 C   0  0  0  0  0  0  0  0  0  0  0  0
    9.1119  -15.9779   20.1437 O   0  0  0  0  0  0  0  0  0  0  0  0
    7.3357  -15.2046   21.3950 N   0  0  0  0  0  0  0  0  0  0  0  0
    7.4028  -16.3645   22.2148 C   0  0  1  0  0  0  0  0  0  0  0  0
    7.0568  -17.5893   21.4028 C   0  0  0  0  0  0  0  0  0  0  0  0
    6.9771  -18.8348   22.2497 C   0  0  0  0  0  0  0  0  0  0  0  0
    7.7346  -19.8979   21.5412 C   0  0  0  0  0  0  0  0  0  0  0  0
    8.8463  -19.6929   20.9879 O   0  0  0  0  0  0  0  0  0  0  0  0
    8.7400  -16.5454   22.8498 C   0  0  0  0  0  0  0  0  0  0  0  0
    9.7756  -16.3312   22.1711 O   0  0  0  0  0  0  0  0  0  0  0  0
    7.2163  -21.2009   21.4665 O   0  0  0  0  0  0  0  0  0  0  0  0
    6.2838  -12.5788   25.2670 N   0  0  0  0  0  0  0  0  0  0  0  0
    7.1460  -12.8779   26.3491 C   0  0  0  0  0  0  0  0  0  0  0  0
    7.0261  -12.1430   27.3933 O   0  0  0  0  0  0  0  0  0  0  0  0
    8.1430  -13.9558   26.3587 C   0  0  0  0  0  0  0  0  0  0  0  0
    8.0861  -14.9365   25.2484 C   0  0  0  0  0  0  0  0  0  0  0  0
    9.1118  -15.9910   25.3003 C   0  0  2  0  0  0  0  0  0  0  0  0
    8.9072  -16.9494   24.1895 N   0  0  0  0  0  0  0  0  0  0  0  0
    9.2700  -16.7802   26.4949 C   0  0  0  0  0  0  0  0  0  0  0  0
   10.3448  -16.6251   27.3976 O   0  0  0  0  0  0  0  0  0  0  0  0
    8.4537  -17.6692   26.8179 O   0  0  0  0  0  0  0  0  0  0  0  0
  2  3  2  0
  2  1  1  0
  4  2  1  0
  5  4  1  0
  5  6  1  6
  7  8  2  0
  7  5  1  0
  9  7  1  0
 10 11  1  6
 10  9  1  0
 11 12  1  0
 12 13  1  0
 13 17  1  0
 14 13  2  0
 15 24  1  0
 15 10  1  0
 16 15  2  0
 19 18  1  0
 20 19  2  0
 21 19  1  0
 22 21  1  0
 23 22  1  1
 23 24  1  0
 25 26  1  0
 25 23  1  0
 27 25  2  0
M  END
$$$$
