NEQ.pdb
     RDKit          3D

 27 26  0  0  1  0  0  0  0  0999 V2000
    7.2609  -18.1799   16.5001 N   0  0  0  0  0  0  0  0  0  0  0  0
    6.7776  -19.1006   17.4652 C   0  0  0  0  0  0  0  0  0  0  0  0
    6.0402  -20.0281   17.0848 O   0  0  0  0  0  0  0  0  0  0  0  0
    7.1919  -18.8900   18.8836 C   0  0  0  0  0  0  0  0  0  0  0  0
    8.0631  -17.6585   19.0198 C   0  0  2  0  0  0  0  0  0  0  0  0
    8.2897  -17.1316   17.6894 N   0  0  0  0  0  0  0  0  0  0  0  0
    9.3393  -18.0773   19.6061 C   0  0  0  0  0  0  0  0  0  0  0  0
    9.3453  -18.6421   20.7327 O   0  0  0  0  0  0  0  0  0  0  0  0
   10.5985  -17.8749   18.9552 N   0  0  0  0  0  0  0  0  0  0  0  0
   11.7836  -18.3541   19.5781 C   0  0  1  0  0  0  0  0  0  0  0  0
   12.7961  -18.7426   18.5278 C   0  0  0  0  0  0  0  0  0  0  0  0
   14.0717  -17.9455   18.6385 C   0  0  0  0  0  0  0  0  0  0  0  0
   14.9805  -18.4177   17.5629 C   0  0  0  0  0  0  0  0  0  0  0  0
   15.8751  -19.2822   17.7536 O   0  0  0  0  0  0  0  0  0  0  0  0
   12.3866  -17.3601   20.5122 C   0  0  0  0  0  0  0  0  0  0  0  0
   12.7056  -16.2249   20.0779 O   0  0  0  0  0  0  0  0  0  0  0  0
   14.8639  -17.8973   16.2639 O   0  0  0  0  0  0  0  0  0  0  0  0
   10.9515  -18.1606   27.0595 N   0  0  0  0  0  0  0  0  0  0  0  0
   10.8919  -17.4796   25.8200 C   0  0  0  0  0  0  0  0  0  0  0  0
    9.8991  -16.6849   25.6535 O   0  0  0  0  0  0  0  0  0  0  0  0
   11.8745  -17.6136   24.7371 C   0  0  0  0  0  0  0  0  0  0  0  0
   12.1306  -16.4125   23.9069 C   0  0  0  0  0  0  0  0  0  0  0  0
   13.1114  -16.6044   22.8261 C   0  0  2  0  0  0  0  0  0  0  0  0
   12.6212  -17.6292   21.8755 N   0  0  0  0  0  0  0  0  0  0  0  0
   14.4699  -16.9615   23.1448 C   0  0  0  0  0  0  0  0  0  0  0  0
   15.3733  -16.0947   23.7981 O   0  0  0  0  0  0  0  0  0  0  0  0
   14.9480  -18.0801   22.8602 O   0  0  0  0  0  0  0  0  0  0  0  0
  2  3  2  0
  2  1  1  0
  4  2  1  0
  5  4  1  0
  5  6  1  6
  7  8  2  0
  7  5  1  0
  9  7  1  0
 10 11  1  6
 10  9  1  0
 11 12  1  0
 12 13  1  0
 13 17  1  0
 14 13  2  0
 15 24  1  0
 15 10  1  0
 16 15  2  0
 19 18  1  0
 20 19  2  0
 21 19  1  0
 22 21  1  0
 23 22  1  1
 23 24  1  0
 25 26  1  0
 25 23  1  0
 27 25  2  0
M  END
$$$$
