NEQ.pdb
     RDKit          3D

 27 26  0  0  1  0  0  0  0  0999 V2000
   13.1307  -16.0806   13.1652 N   0  0  0  0  0  0  0  0  0  0  0  0
   12.6653  -16.9475   14.1872 C   0  0  0  0  0  0  0  0  0  0  0  0
   12.1539  -18.0334   13.8583 O   0  0  0  0  0  0  0  0  0  0  0  0
   12.8232  -16.4915   15.5997 C   0  0  0  0  0  0  0  0  0  0  0  0
   11.4774  -16.3472   16.2794 C   0  0  2  0  0  0  0  0  0  0  0  0
   10.7607  -15.2794   15.6123 N   0  0  0  0  0  0  0  0  0  0  0  0
   11.7205  -15.9773   17.6766 C   0  0  0  0  0  0  0  0  0  0  0  0
   12.1150  -14.8113   17.9467 O   0  0  0  0  0  0  0  0  0  0  0  0
   11.5300  -16.8859   18.7668 N   0  0  0  0  0  0  0  0  0  0  0  0
   11.8045  -16.4447   20.0904 C   0  0  1  0  0  0  0  0  0  0  0  0
   11.1355  -17.3601   21.0872 C   0  0  0  0  0  0  0  0  0  0  0  0
   11.3142  -16.8885   22.5086 C   0  0  0  0  0  0  0  0  0  0  0  0
   10.6307  -17.8713   23.3876 C   0  0  0  0  0  0  0  0  0  0  0  0
   11.1882  -18.9194   23.8053 O   0  0  0  0  0  0  0  0  0  0  0  0
   13.2652  -16.3685   20.3816 C   0  0  0  0  0  0  0  0  0  0  0  0
   14.0295  -17.2538   19.9222 O   0  0  0  0  0  0  0  0  0  0  0  0
    9.3032  -17.6522   23.7896 O   0  0  0  0  0  0  0  0  0  0  0  0
   17.7971  -12.4338   19.2579 N   0  0  0  0  0  0  0  0  0  0  0  0
   16.6235  -12.9514   18.6590 C   0  0  0  0  0  0  0  0  0  0  0  0
   16.4700  -12.7146   17.4080 O   0  0  0  0  0  0  0  0  0  0  0  0
   15.5948  -13.7317   19.3583 C   0  0  0  0  0  0  0  0  0  0  0  0
   15.7585  -13.9045   20.8215 C   0  0  0  0  0  0  0  0  0  0  0  0
   15.3053  -15.2031   21.3462 C   0  0  2  0  0  0  0  0  0  0  0  0
   13.8429  -15.3422   21.1556 N   0  0  0  0  0  0  0  0  0  0  0  0
   15.5725  -15.5559   22.7169 C   0  0  0  0  0  0  0  0  0  0  0  0
   14.5714  -15.6553   23.7079 O   0  0  0  0  0  0  0  0  0  0  0  0
   16.7265  -15.8017   23.1278 O   0  0  0  0  0  0  0  0  0  0  0  0
  2  3  2  0
  2  1  1  0
  4  2  1  0
  5  4  1  0
  5  6  1  6
  7  8  2  0
  7  5  1  0
  9  7  1  0
 10 11  1  1
 10  9  1  0
 11 12  1  0
 12 13  1  0
 13 17  1  0
 14 13  2  0
 15 24  1  0
 15 10  1  0
 16 15  2  0
 19 18  1  0
 20 19  2  0
 21 19  1  0
 22 21  1  0
 23 22  1  1
 23 24  1  0
 25 26  1  0
 25 23  1  0
 27 25  2  0
M  END
$$$$
