NEQ.pdb
     RDKit          3D

 27 26  0  0  1  0  0  0  0  0999 V2000
    8.8213  -12.3758   17.8881 N   0  0  0  0  0  0  0  0  0  0  0  0
    7.6239  -13.1322   17.9686 C   0  0  0  0  0  0  0  0  0  0  0  0
    6.7828  -13.0123   17.0592 O   0  0  0  0  0  0  0  0  0  0  0  0
    7.4551  -14.0279   19.1506 C   0  0  0  0  0  0  0  0  0  0  0  0
    8.6048  -13.8685   20.1236 C   0  0  2  0  0  0  0  0  0  0  0  0
    9.8313  -13.8383   19.3531 N   0  0  0  0  0  0  0  0  0  0  0  0
    8.6081  -15.0386   21.0061 C   0  0  0  0  0  0  0  0  0  0  0  0
    7.6425  -15.2190   21.7956 O   0  0  0  0  0  0  0  0  0  0  0  0
    9.6675  -16.0018   21.0177 N   0  0  0  0  0  0  0  0  0  0  0  0
    9.6654  -17.0199   22.0105 C   0  0  1  0  0  0  0  0  0  0  0  0
   10.3810  -18.2445   21.4934 C   0  0  0  0  0  0  0  0  0  0  0  0
    9.6603  -18.8818   20.3318 C   0  0  0  0  0  0  0  0  0  0  0  0
   10.4762  -20.0418   19.8906 C   0  0  0  0  0  0  0  0  0  0  0  0
   10.8248  -20.2176   18.6941 O   0  0  0  0  0  0  0  0  0  0  0  0
   10.2893  -16.5781   23.2910 C   0  0  0  0  0  0  0  0  0  0  0  0
   11.1035  -15.6211   23.2787 O   0  0  0  0  0  0  0  0  0  0  0  0
   10.8944  -21.0040   20.8240 O   0  0  0  0  0  0  0  0  0  0  0  0
    8.4312  -12.9233   27.0521 N   0  0  0  0  0  0  0  0  0  0  0  0
    9.4458  -13.5470   27.8171 C   0  0  0  0  0  0  0  0  0  0  0  0
    9.7763  -12.9626   28.9098 O   0  0  0  0  0  0  0  0  0  0  0  0
   10.1264  -14.7966   27.4544 C   0  0  0  0  0  0  0  0  0  0  0  0
    9.7327  -15.4313   26.1739 C   0  0  0  0  0  0  0  0  0  0  0  0
   10.4952  -16.6402   25.8217 C   0  0  2  0  0  0  0  0  0  0  0  0
   10.0108  -17.1848   24.5321 N   0  0  0  0  0  0  0  0  0  0  0  0
   10.5453  -17.7496   26.7390 C   0  0  0  0  0  0  0  0  0  0  0  0
   11.3606  -17.7747   27.8916 O   0  0  0  0  0  0  0  0  0  0  0  0
    9.8597  -18.7810   26.5737 O   0  0  0  0  0  0  0  0  0  0  0  0
  2  3  2  0
  2  1  1  0
  4  2  1  0
  5  4  1  0
  5  6  1  6
  7  8  2  0
  7  5  1  0
  9  7  1  0
 10 11  1  6
 10  9  1  0
 11 12  1  0
 12 13  1  0
 13 17  1  0
 14 13  2  0
 15 24  1  0
 15 10  1  0
 16 15  2  0
 19 18  1  0
 20 19  2  0
 21 19  1  0
 22 21  1  0
 23 22  1  1
 23 24  1  0
 25 26  1  0
 25 23  1  0
 27 25  2  0
M  END
$$$$
