NEQ.pdb
     RDKit          3D

 27 26  0  0  1  0  0  0  0  0999 V2000
    8.0502  -12.7281   17.1647 N   0  0  0  0  0  0  0  0  0  0  0  0
    7.5589  -14.0504   17.0134 C   0  0  0  0  0  0  0  0  0  0  0  0
    7.0835  -14.3856   15.9132 O   0  0  0  0  0  0  0  0  0  0  0  0
    7.6475  -14.9559   18.1967 C   0  0  0  0  0  0  0  0  0  0  0  0
    8.0092  -14.1833   19.4482 C   0  0  2  0  0  0  0  0  0  0  0  0
    9.1936  -13.4022   19.1552 N   0  0  0  0  0  0  0  0  0  0  0  0
    8.3110  -15.1564   20.5018 C   0  0  0  0  0  0  0  0  0  0  0  0
    7.3758  -15.8427   20.9945 O   0  0  0  0  0  0  0  0  0  0  0  0
    9.6332  -15.3708   21.0078 N   0  0  0  0  0  0  0  0  0  0  0  0
    9.8154  -16.2362   22.1212 C   0  0  1  0  0  0  0  0  0  0  0  0
   11.0057  -17.1344   21.8856 C   0  0  0  0  0  0  0  0  0  0  0  0
   10.8190  -18.0310   20.6873 C   0  0  0  0  0  0  0  0  0  0  0  0
   12.0802  -18.7947   20.5082 C   0  0  0  0  0  0  0  0  0  0  0  0
   13.1410  -18.2723   20.0771 O   0  0  0  0  0  0  0  0  0  0  0  0
    9.9919  -15.4962   23.4040 C   0  0  0  0  0  0  0  0  0  0  0  0
   10.4094  -14.3113   23.3764 O   0  0  0  0  0  0  0  0  0  0  0  0
   12.1261  -20.1621   20.8245 O   0  0  0  0  0  0  0  0  0  0  0  0
    6.5442  -11.2054   26.3993 N   0  0  0  0  0  0  0  0  0  0  0  0
    6.5251  -12.5971   26.1414 C   0  0  0  0  0  0  0  0  0  0  0  0
    5.4883  -13.0507   25.5378 O   0  0  0  0  0  0  0  0  0  0  0  0
    7.5941  -13.5359   26.5045 C   0  0  0  0  0  0  0  0  0  0  0  0
    8.1504  -14.3769   25.4179 C   0  0  0  0  0  0  0  0  0  0  0  0
    9.2549  -15.2617   25.8232 C   0  0  2  0  0  0  0  0  0  0  0  0
    9.7118  -16.0625   24.6637 N   0  0  0  0  0  0  0  0  0  0  0  0
    9.0701  -16.1883   26.9104 C   0  0  0  0  0  0  0  0  0  0  0  0
    9.3985  -15.8948   28.2520 O   0  0  0  0  0  0  0  0  0  0  0  0
    8.5994  -17.3325   26.7366 O   0  0  0  0  0  0  0  0  0  0  0  0
  2  3  2  0
  2  1  1  0
  4  2  1  0
  5  4  1  0
  5  6  1  6
  7  8  2  0
  7  5  1  0
  9  7  1  0
 10 11  1  6
 10  9  1  0
 11 12  1  0
 12 13  1  0
 13 17  1  0
 14 13  2  0
 15 24  1  0
 15 10  1  0
 16 15  2  0
 19 18  1  0
 20 19  2  0
 21 19  1  0
 22 21  1  0
 23 22  1  6
 23 24  1  0
 25 26  1  0
 25 23  1  0
 27 25  2  0
M  END
$$$$
