NEQ.pdb
     RDKit          3D

 27 26  0  0  1  0  0  0  0  0999 V2000
   13.8157  -18.1462   18.2338 N   0  0  0  0  0  0  0  0  0  0  0  0
   14.3377  -17.4963   19.3817 C   0  0  0  0  0  0  0  0  0  0  0  0
   15.3607  -16.7987   19.2560 O   0  0  0  0  0  0  0  0  0  0  0  0
   13.6160  -17.6969   20.6727 C   0  0  0  0  0  0  0  0  0  0  0  0
   12.5466  -18.7611   20.5395 C   0  0  2  0  0  0  0  0  0  0  0  0
   11.5819  -18.2946   19.5644 N   0  0  0  0  0  0  0  0  0  0  0  0
   11.8952  -18.9051   21.8445 C   0  0  0  0  0  0  0  0  0  0  0  0
   11.0006  -19.7800   21.9947 O   0  0  0  0  0  0  0  0  0  0  0  0
   12.2277  -18.0909   22.9744 N   0  0  0  0  0  0  0  0  0  0  0  0
   11.7892  -18.4898   24.2669 C   0  0  1  0  0  0  0  0  0  0  0  0
   12.3100  -19.8709   24.5837 C   0  0  0  0  0  0  0  0  0  0  0  0
   11.8904  -20.3416   25.9538 C   0  0  0  0  0  0  0  0  0  0  0  0
   12.4826  -21.6885   26.1570 C   0  0  0  0  0  0  0  0  0  0  0  0
   11.8510  -22.7541   25.9346 O   0  0  0  0  0  0  0  0  0  0  0  0
   12.2074  -17.5388   25.3369 C   0  0  0  0  0  0  0  0  0  0  0  0
   13.0493  -17.9097   26.1928 O   0  0  0  0  0  0  0  0  0  0  0  0
   13.8034  -21.8147   26.6166 O   0  0  0  0  0  0  0  0  0  0  0  0
    9.1731  -12.4243   27.0575 N   0  0  0  0  0  0  0  0  0  0  0  0
    9.0739  -13.5012   27.9709 C   0  0  0  0  0  0  0  0  0  0  0  0
    9.1407  -13.2005   29.2159 O   0  0  0  0  0  0  0  0  0  0  0  0
    8.8960  -14.9098   27.5963 C   0  0  0  0  0  0  0  0  0  0  0  0
    9.6522  -15.3943   26.4169 C   0  0  0  0  0  0  0  0  0  0  0  0
   11.0682  -15.7041   26.6736 C   0  0  2  0  0  0  0  0  0  0  0  0
   11.7020  -16.2274   25.4412 N   0  0  0  0  0  0  0  0  0  0  0  0
   11.4232  -16.6143   27.7319 C   0  0  0  0  0  0  0  0  0  0  0  0
   11.7633  -17.9680   27.5176 O   0  0  0  0  0  0  0  0  0  0  0  0
   11.4547  -16.2616   28.9301 O   0  0  0  0  0  0  0  0  0  0  0  0
  2  3  2  0
  2  1  1  0
  4  2  1  0
  5  4  1  0
  5  6  1  6
  7  8  2  0
  7  5  1  0
  9  7  1  0
 10 11  1  1
 10  9  1  0
 11 12  1  0
 12 13  1  0
 13 17  1  0
 14 13  2  0
 15 24  1  0
 15 10  1  0
 16 15  2  0
 19 18  1  0
 20 19  2  0
 21 19  1  0
 22 21  1  0
 23 22  1  6
 23 24  1  0
 25 26  1  0
 25 23  1  0
 27 25  2  0
M  END
$$$$
