MNT.pdb
     RDKit          3D

 24 23  0  0  1  0  0  0  0  0999 V2000
    8.6877  -11.7566   19.7811 C   0  0  0  0  0  0  0  0  0  0  0  0
    7.3813  -12.4334   18.7278 S   0  0  0  0  0  0  0  0  0  0  0  0
    7.3623  -14.2278   18.8909 C   0  0  0  0  0  0  0  0  0  0  0  0
    8.7775  -14.7831   19.0190 C   0  0  0  0  0  0  0  0  0  0  0  0
    8.6451  -16.2894   19.0998 C   0  0  2  0  0  0  0  0  0  0  0  0
    7.7538  -16.5673   20.2093 N   0  0  0  0  0  0  0  0  0  0  0  0
    9.9700  -16.9277   19.3813 C   0  0  0  0  0  0  0  0  0  0  0  0
   10.7188  -17.3300   18.4477 O   0  0  0  0  0  0  0  0  0  0  0  0
   13.0774  -14.2439   18.6785 N   0  0  0  0  0  0  0  0  0  0  0  0
   12.8679  -14.6076   20.0128 C   0  0  0  0  0  0  0  0  0  0  0  0
   13.8836  -14.5142   20.7834 O   0  0  0  0  0  0  0  0  0  0  0  0
   11.6251  -15.0752   20.6025 C   0  0  0  0  0  0  0  0  0  0  0  0
   11.6270  -16.4195   21.2393 C   0  0  2  0  0  0  0  0  0  0  0  0
   10.4321  -17.1039   20.7044 N   0  0  0  0  0  0  0  0  0  0  0  0
   11.4753  -16.3829   22.7098 C   0  0  0  0  0  0  0  0  0  0  0  0
   12.4067  -15.8650   23.4258 O   0  0  0  0  0  0  0  0  0  0  0  0
    8.6475  -14.5276   24.2995 C   0  0  0  0  0  0  0  0  0  0  0  0
    8.7876  -15.8364   25.0005 C   0  0  1  0  0  0  0  0  0  0  0  0
    7.8367  -16.7287   24.4673 O   0  0  0  0  0  0  0  0  0  0  0  0
   10.1324  -16.4998   24.8159 C   0  0  2  0  0  0  0  0  0  0  0  0
   10.3623  -16.8781   23.4366 N   0  0  0  0  0  0  0  0  0  0  0  0
   10.3024  -17.5908   25.7798 C   0  0  0  0  0  0  0  0  0  0  0  0
   10.2882  -17.3864   27.1492 O   0  0  0  0  0  0  0  0  0  0  0  0
   10.4682  -18.7635   25.3428 O   0  0  0  0  0  0  0  0  0  0  0  0
  1  2  1  0
  2  3  1  0
  3  4  1  0
  5  7  1  0
  5  4  1  0
  5  6  1  1
  7  8  2  0
  9 10  1  0
 10 12  1  0
 11 10  2  0
 13 12  1  6
 14 13  1  0
 14  7  1  0
 15 21  1  0
 15 13  1  0
 16 15  2  0
 18 17  1  6
 19 18  1  0
 20 21  1  6
 20 18  1  0
 22 20  1  0
 23 22  1  0
 24 22  2  0
M  END
$$$$
