MNT.pdb
     RDKit          3D

 24 23  0  0  1  0  0  0  0  0999 V2000
    8.6128  -11.5963   20.4536 C   0  0  0  0  0  0  0  0  0  0  0  0
    7.2124  -12.4878   19.7339 S   0  0  0  0  0  0  0  0  0  0  0  0
    7.4457  -14.2564   19.9874 C   0  0  0  0  0  0  0  0  0  0  0  0
    8.8816  -14.6710   19.6810 C   0  0  0  0  0  0  0  0  0  0  0  0
    8.8890  -16.1836   19.6105 C   0  0  2  0  0  0  0  0  0  0  0  0
    8.2305  -16.6570   20.8125 N   0  0  0  0  0  0  0  0  0  0  0  0
   10.2905  -16.7107   19.5956 C   0  0  0  0  0  0  0  0  0  0  0  0
   10.7878  -17.2300   18.5578 O   0  0  0  0  0  0  0  0  0  0  0  0
   13.3704  -14.0496   18.7734 N   0  0  0  0  0  0  0  0  0  0  0  0
   13.6574  -15.3030   19.3241 C   0  0  0  0  0  0  0  0  0  0  0  0
   14.3058  -16.1084   18.5722 O   0  0  0  0  0  0  0  0  0  0  0  0
   13.2961  -15.7744   20.6501 C   0  0  0  0  0  0  0  0  0  0  0  0
   12.5316  -17.0469   20.7448 C   0  0  2  0  0  0  0  0  0  0  0  0
   11.1097  -16.6462   20.7445 N   0  0  0  0  0  0  0  0  0  0  0  0
   12.7651  -17.7906   22.0015 C   0  0  0  0  0  0  0  0  0  0  0  0
   12.3901  -17.2758   23.1163 O   0  0  0  0  0  0  0  0  0  0  0  0
   13.5210  -21.9469   24.5623 C   0  0  0  0  0  0  0  0  0  0  0  0
   13.5193  -21.2219   23.2592 C   0  0  1  0  0  0  0  0  0  0  0  0
   12.3203  -21.5255   22.5847 O   0  0  0  0  0  0  0  0  0  0  0  0
   13.5580  -19.7167   23.3849 C   0  0  2  0  0  0  0  0  0  0  0  0
   13.3819  -19.0639   22.1038 N   0  0  0  0  0  0  0  0  0  0  0  0
   14.7531  -19.2945   24.1208 C   0  0  0  0  0  0  0  0  0  0  0  0
   14.7586  -19.1091   25.4930 O   0  0  0  0  0  0  0  0  0  0  0  0
   15.8198  -19.0920   23.4767 O   0  0  0  0  0  0  0  0  0  0  0  0
  1  2  1  0
  2  3  1  0
  3  4  1  0
  5  7  1  0
  5  4  1  0
  5  6  1  1
  7  8  2  0
  9 10  1  0
 10 12  1  0
 11 10  2  0
 13 12  1  1
 14 13  1  0
 14  7  1  0
 15 21  1  0
 15 13  1  0
 16 15  2  0
 18 17  1  1
 19 18  1  0
 20 21  1  6
 20 18  1  0
 22 20  1  0
 23 22  1  0
 24 22  2  0
M  END
$$$$
