MNT.pdb
     RDKit          3D

 24 23  0  0  1  0  0  0  0  0999 V2000
    8.0401  -11.7362   21.0046 C   0  0  0  0  0  0  0  0  0  0  0  0
    7.3827  -12.6048   19.5599 S   0  0  0  0  0  0  0  0  0  0  0  0
    7.7992  -14.3536   19.6829 C   0  0  0  0  0  0  0  0  0  0  0  0
    8.0282  -14.7634   21.1345 C   0  0  0  0  0  0  0  0  0  0  0  0
    8.2689  -16.2584   21.1288 C   0  0  2  0  0  0  0  0  0  0  0  0
    7.0297  -16.8751   20.6969 N   0  0  0  0  0  0  0  0  0  0  0  0
    8.5932  -16.7524   22.5046 C   0  0  0  0  0  0  0  0  0  0  0  0
    7.6903  -17.1570   23.2890 O   0  0  0  0  0  0  0  0  0  0  0  0
   11.6485  -18.7158   26.5647 N   0  0  0  0  0  0  0  0  0  0  0  0
   12.1487  -18.7082   25.2584 C   0  0  0  0  0  0  0  0  0  0  0  0
   13.2476  -19.3358   25.0772 O   0  0  0  0  0  0  0  0  0  0  0  0
   11.5501  -18.0653   24.1010 C   0  0  0  0  0  0  0  0  0  0  0  0
   10.2942  -17.2965   24.3120 C   0  0  2  0  0  0  0  0  0  0  0  0
    9.9241  -16.7842   22.9768 N   0  0  0  0  0  0  0  0  0  0  0  0
   10.4567  -16.1186   25.1912 C   0  0  0  0  0  0  0  0  0  0  0  0
   11.4396  -15.3167   24.9935 O   0  0  0  0  0  0  0  0  0  0  0  0
    8.6227  -12.9059   25.9507 C   0  0  0  0  0  0  0  0  0  0  0  0
    8.8310  -13.6494   27.2266 C   0  0  1  0  0  0  0  0  0  0  0  0
    7.6483  -14.3532   27.5276 O   0  0  0  0  0  0  0  0  0  0  0  0
    9.9302  -14.6846   27.1708 C   0  0  2  0  0  0  0  0  0  0  0  0
    9.6031  -15.7703   26.2693 N   0  0  0  0  0  0  0  0  0  0  0  0
   10.3019  -15.1109   28.5229 C   0  0  0  0  0  0  0  0  0  0  0  0
   10.8090  -14.2361   29.4688 O   0  0  0  0  0  0  0  0  0  0  0  0
   10.1533  -16.3246   28.8366 O   0  0  0  0  0  0  0  0  0  0  0  0
  1  2  1  0
  2  3  1  0
  3  4  1  0
  5  7  1  0
  5  4  1  0
  5  6  1  1
  7  8  2  0
  9 10  1  0
 10 12  1  0
 11 10  2  0
 13 12  1  6
 14 13  1  0
 14  7  1  0
 15 21  1  0
 15 13  1  0
 16 15  2  0
 18 17  1  6
 19 18  1  0
 20 21  1  6
 20 18  1  0
 22 20  1  0
 23 22  1  0
 24 22  2  0
M  END
$$$$
