MNT.pdb
     RDKit          3D

 24 23  0  0  1  0  0  0  0  0999 V2000
    7.5833  -11.2758   20.4708 C   0  0  0  0  0  0  0  0  0  0  0  0
    7.2004  -12.5865   19.2836 S   0  0  0  0  0  0  0  0  0  0  0  0
    8.3220  -13.9711   19.5512 C   0  0  0  0  0  0  0  0  0  0  0  0
    8.2796  -14.4404   21.0021 C   0  0  0  0  0  0  0  0  0  0  0  0
    9.3042  -15.5482   21.1282 C   0  0  2  0  0  0  0  0  0  0  0  0
    8.9062  -16.5874   20.1986 N   0  0  0  0  0  0  0  0  0  0  0  0
    9.3043  -16.1208   22.5118 C   0  0  0  0  0  0  0  0  0  0  0  0
    8.2601  -16.1282   23.2216 O   0  0  0  0  0  0  0  0  0  0  0  0
   11.9944  -19.4763   22.1461 N   0  0  0  0  0  0  0  0  0  0  0  0
   12.2794  -18.4835   23.0893 C   0  0  0  0  0  0  0  0  0  0  0  0
   13.2232  -17.6771   22.7837 O   0  0  0  0  0  0  0  0  0  0  0  0
   11.6171  -18.2804   24.3664 C   0  0  0  0  0  0  0  0  0  0  0  0
   10.5118  -17.2863   24.4196 C   0  0  2  0  0  0  0  0  0  0  0  0
   10.4750  -16.6749   23.0754 N   0  0  0  0  0  0  0  0  0  0  0  0
   10.7438  -16.1877   25.3819 C   0  0  0  0  0  0  0  0  0  0  0  0
   11.6851  -15.3437   25.1585 O   0  0  0  0  0  0  0  0  0  0  0  0
    9.4295  -12.9765   26.1454 C   0  0  0  0  0  0  0  0  0  0  0  0
    9.3787  -13.7485   27.4203 C   0  0  1  0  0  0  0  0  0  0  0  0
    8.0960  -14.3179   27.5428 O   0  0  0  0  0  0  0  0  0  0  0  0
   10.3550  -14.8996   27.4895 C   0  0  2  0  0  0  0  0  0  0  0  0
   10.0022  -15.9618   26.5699 N   0  0  0  0  0  0  0  0  0  0  0  0
   10.5364  -15.3350   28.8772 C   0  0  0  0  0  0  0  0  0  0  0  0
   10.9916  -14.4869   29.8725 O   0  0  0  0  0  0  0  0  0  0  0  0
   10.2666  -16.5315   29.1758 O   0  0  0  0  0  0  0  0  0  0  0  0
  1  2  1  0
  2  3  1  0
  3  4  1  0
  5  7  1  0
  5  4  1  0
  5  6  1  6
  7  8  2  0
  9 10  1  0
 10 12  1  0
 11 10  2  0
 13 12  1  6
 14 13  1  0
 14  7  1  0
 15 21  1  0
 15 13  1  0
 16 15  2  0
 18 17  1  6
 19 18  1  0
 20 21  1  6
 20 18  1  0
 22 20  1  0
 23 22  1  0
 24 22  2  0
M  END
$$$$
