MNT.pdb
     RDKit          3D

 24 23  0  0  1  0  0  0  0  0999 V2000
    1.5191  -20.2908   22.0049 C   0  0  0  0  0  0  0  0  0  0  0  0
    2.1396  -19.6948   20.4132 S   0  0  0  0  0  0  0  0  0  0  0  0
    3.7248  -18.8765   20.6668 C   0  0  0  0  0  0  0  0  0  0  0  0
    3.7337  -18.0881   21.9728 C   0  0  0  0  0  0  0  0  0  0  0  0
    5.1073  -17.4618   22.0903 C   0  0  2  0  0  0  0  0  0  0  0  0
    6.0145  -18.3113   21.3433 N   0  0  0  0  0  0  0  0  0  0  0  0
    5.5566  -17.4237   23.5181 C   0  0  0  0  0  0  0  0  0  0  0  0
    4.8458  -16.8963   24.4185 O   0  0  0  0  0  0  0  0  0  0  0  0
   10.4236  -19.4221   26.7491 N   0  0  0  0  0  0  0  0  0  0  0  0
    9.0732  -19.0741   26.6400 C   0  0  0  0  0  0  0  0  0  0  0  0
    8.4779  -18.7951   27.7365 O   0  0  0  0  0  0  0  0  0  0  0  0
    8.2896  -18.9991   25.4188 C   0  0  0  0  0  0  0  0  0  0  0  0
    7.3239  -17.8754   25.2870 C   0  0  2  0  0  0  0  0  0  0  0  0
    6.7951  -17.9777   23.9115 N   0  0  0  0  0  0  0  0  0  0  0  0
    7.9447  -16.5386   25.4072 C   0  0  0  0  0  0  0  0  0  0  0  0
    8.8772  -16.2022   24.5914 O   0  0  0  0  0  0  0  0  0  0  0  0
    6.7641  -13.0477   24.8370 C   0  0  0  0  0  0  0  0  0  0  0  0
    7.3471  -13.1189   26.2078 C   0  0  1  0  0  0  0  0  0  0  0  0
    6.2951  -13.2954   27.1281 O   0  0  0  0  0  0  0  0  0  0  0  0
    8.2896  -14.2799   26.4232 C   0  0  2  0  0  0  0  0  0  0  0  0
    7.5995  -15.5523   26.3666 N   0  0  0  0  0  0  0  0  0  0  0  0
    9.0854  -14.0757   27.6369 C   0  0  0  0  0  0  0  0  0  0  0  0
    9.8782  -12.9571   27.8307 O   0  0  0  0  0  0  0  0  0  0  0  0
    9.0457  -14.9556   28.5412 O   0  0  0  0  0  0  0  0  0  0  0  0
  1  2  1  0
  2  3  1  0
  3  4  1  0
  5  7  1  0
  5  4  1  0
  5  6  1  6
  7  8  2  0
  9 10  1  0
 10 12  1  0
 11 10  2  0
 13 12  1  6
 14 13  1  0
 14  7  1  0
 15 21  1  0
 15 13  1  0
 16 15  2  0
 18 17  1  6
 19 18  1  0
 20 21  1  1
 20 18  1  0
 22 20  1  0
 23 22  1  0
 24 22  2  0
M  END
$$$$
