MNT.pdb
     RDKit          3D

 24 23  0  0  1  0  0  0  0  0999 V2000
    7.9074  -11.5179   20.3049 C   0  0  0  0  0  0  0  0  0  0  0  0
    6.9759  -12.4205   19.0432 S   0  0  0  0  0  0  0  0  0  0  0  0
    7.8731  -13.9213   18.6083 C   0  0  0  0  0  0  0  0  0  0  0  0
    7.9806  -14.8634   19.8034 C   0  0  0  0  0  0  0  0  0  0  0  0
    8.7242  -16.0910   19.3207 C   0  0  2  0  0  0  0  0  0  0  0  0
    7.7874  -16.8527   18.5177 N   0  0  0  0  0  0  0  0  0  0  0  0
    9.1620  -16.9385   20.4748 C   0  0  0  0  0  0  0  0  0  0  0  0
    8.4346  -17.8684   20.9224 O   0  0  0  0  0  0  0  0  0  0  0  0
   12.9052  -19.8883   21.1458 N   0  0  0  0  0  0  0  0  0  0  0  0
   12.8355  -18.4919   21.1038 C   0  0  0  0  0  0  0  0  0  0  0  0
   13.2662  -17.9430   20.0325 O   0  0  0  0  0  0  0  0  0  0  0  0
   12.3282  -17.6141   22.1445 C   0  0  0  0  0  0  0  0  0  0  0  0
   10.8523  -17.4961   22.2882 C   0  0  2  0  0  0  0  0  0  0  0  0
   10.4077  -16.7286   21.1069 N   0  0  0  0  0  0  0  0  0  0  0  0
   10.4286  -16.7293   23.4795 C   0  0  0  0  0  0  0  0  0  0  0  0
   11.0161  -15.6219   23.7567 O   0  0  0  0  0  0  0  0  0  0  0  0
    7.6118  -14.6695   24.7117 C   0  0  0  0  0  0  0  0  0  0  0  0
    7.8283  -15.7646   25.7005 C   0  0  1  0  0  0  0  0  0  0  0  0
    6.9029  -16.7926   25.4330 O   0  0  0  0  0  0  0  0  0  0  0  0
    9.1952  -16.4046   25.6302 C   0  0  2  0  0  0  0  0  0  0  0  0
    9.3985  -17.1059   24.3792 N   0  0  0  0  0  0  0  0  0  0  0  0
    9.4440  -17.2145   26.8262 C   0  0  0  0  0  0  0  0  0  0  0  0
    9.6554  -18.5818   26.7715 O   0  0  0  0  0  0  0  0  0  0  0  0
    9.4663  -16.6413   27.9508 O   0  0  0  0  0  0  0  0  0  0  0  0
  1  2  1  0
  2  3  1  0
  3  4  1  0
  5  7  1  0
  5  4  1  0
  5  6  1  6
  7  8  2  0
  9 10  1  0
 10 12  1  0
 11 10  2  0
 13 12  1  6
 14 13  1  0
 14  7  1  0
 15 21  1  0
 15 13  1  0
 16 15  2  0
 18 17  1  6
 19 18  1  0
 20 21  1  6
 20 18  1  0
 22 20  1  0
 23 22  1  0
 24 22  2  0
M  END
$$$$
