MNT.pdb
     RDKit          3D

 24 23  0  0  1  0  0  0  0  0999 V2000
    9.1639  -12.1841   18.7400 C   0  0  0  0  0  0  0  0  0  0  0  0
    7.5331  -12.6546   19.3667 S   0  0  0  0  0  0  0  0  0  0  0  0
    7.6262  -14.3115   20.0686 C   0  0  0  0  0  0  0  0  0  0  0  0
    7.7699  -15.3648   18.9743 C   0  0  0  0  0  0  0  0  0  0  0  0
    7.9794  -16.6905   19.6753 C   0  0  2  0  0  0  0  0  0  0  0  0
    7.1110  -16.6862   20.8365 N   0  0  0  0  0  0  0  0  0  0  0  0
    9.3959  -16.8311   20.1398 C   0  0  0  0  0  0  0  0  0  0  0  0
   10.1191  -17.7961   19.7656 O   0  0  0  0  0  0  0  0  0  0  0  0
   12.0597  -13.8761   18.8075 N   0  0  0  0  0  0  0  0  0  0  0  0
   12.5102  -14.7751   19.7799 C   0  0  0  0  0  0  0  0  0  0  0  0
   13.3895  -15.6197   19.3952 O   0  0  0  0  0  0  0  0  0  0  0  0
   12.0829  -14.8432   21.1669 C   0  0  0  0  0  0  0  0  0  0  0  0
   11.3254  -16.0491   21.5966 C   0  0  2  0  0  0  0  0  0  0  0  0
    9.9768  -15.8874   21.0158 N   0  0  0  0  0  0  0  0  0  0  0  0
   11.1497  -16.1523   23.0612 C   0  0  0  0  0  0  0  0  0  0  0  0
   12.1184  -15.8215   23.8361 O   0  0  0  0  0  0  0  0  0  0  0  0
    8.2741  -14.5215   25.0369 C   0  0  0  0  0  0  0  0  0  0  0  0
    8.5075  -15.8988   25.5591 C   0  0  1  0  0  0  0  0  0  0  0  0
    7.5202  -16.7491   25.0234 O   0  0  0  0  0  0  0  0  0  0  0  0
    9.8359  -16.4981   25.1605 C   0  0  2  0  0  0  0  0  0  0  0  0
    9.9744  -16.5937   23.7218 N   0  0  0  0  0  0  0  0  0  0  0  0
   10.0659  -17.7563   25.8762 C   0  0  0  0  0  0  0  0  0  0  0  0
   10.2297  -17.8150   27.2499 O   0  0  0  0  0  0  0  0  0  0  0  0
   10.1165  -18.8290   25.2126 O   0  0  0  0  0  0  0  0  0  0  0  0
  1  2  1  0
  2  3  1  0
  3  4  1  0
  5  7  1  0
  5  4  1  0
  5  6  1  1
  7  8  2  0
  9 10  1  0
 10 12  1  0
 11 10  2  0
 13 12  1  1
 14 13  1  0
 14  7  1  0
 15 21  1  0
 15 13  1  0
 16 15  2  0
 18 17  1  6
 19 18  1  0
 20 21  1  6
 20 18  1  0
 22 20  1  0
 23 22  1  0
 24 22  2  0
M  END
$$$$
