MNT.pdb
     RDKit          3D

 24 23  0  0  1  0  0  0  0  0999 V2000
    8.9149  -12.0446   19.4520 C   0  0  0  0  0  0  0  0  0  0  0  0
    7.4700  -13.1318   19.5151 S   0  0  0  0  0  0  0  0  0  0  0  0
    7.6832  -14.4664   18.3235 C   0  0  0  0  0  0  0  0  0  0  0  0
    9.1347  -14.9334   18.2751 C   0  0  0  0  0  0  0  0  0  0  0  0
    9.1611  -16.3253   18.8709 C   0  0  2  0  0  0  0  0  0  0  0  0
    8.1975  -16.3297   19.9544 N   0  0  0  0  0  0  0  0  0  0  0  0
   10.5126  -16.6399   19.4335 C   0  0  0  0  0  0  0  0  0  0  0  0
   11.2272  -17.5635   18.9533 O   0  0  0  0  0  0  0  0  0  0  0  0
   13.5111  -13.6937   18.6718 N   0  0  0  0  0  0  0  0  0  0  0  0
   13.7366  -14.7644   19.5432 C   0  0  0  0  0  0  0  0  0  0  0  0
   14.5348  -15.6695   19.1212 O   0  0  0  0  0  0  0  0  0  0  0  0
   13.1606  -14.9474   20.8644 C   0  0  0  0  0  0  0  0  0  0  0  0
   12.3698  -16.1839   21.1065 C   0  0  2  0  0  0  0  0  0  0  0  0
   11.0393  -15.9136   20.5245 N   0  0  0  0  0  0  0  0  0  0  0  0
   12.1562  -16.4841   22.5387 C   0  0  0  0  0  0  0  0  0  0  0  0
   12.2107  -15.5304   23.3965 O   0  0  0  0  0  0  0  0  0  0  0  0
    9.3305  -16.9483   24.4838 C   0  0  0  0  0  0  0  0  0  0  0  0
   10.1755  -18.1358   24.7997 C   0  0  1  0  0  0  0  0  0  0  0  0
    9.7449  -19.2118   23.9988 O   0  0  0  0  0  0  0  0  0  0  0  0
   11.6444  -17.9519   24.4973 C   0  0  2  0  0  0  0  0  0  0  0  0
   11.8842  -17.7664   23.0808 N   0  0  0  0  0  0  0  0  0  0  0  0
   12.4321  -19.0255   25.1097 C   0  0  0  0  0  0  0  0  0  0  0  0
   12.5987  -19.1414   26.4794 O   0  0  0  0  0  0  0  0  0  0  0  0
   12.9802  -19.8780   24.3572 O   0  0  0  0  0  0  0  0  0  0  0  0
  1  2  1  0
  2  3  1  0
  3  4  1  0
  5  7  1  0
  5  4  1  0
  5  6  1  1
  7  8  2  0
  9 10  1  0
 10 12  1  0
 11 10  2  0
 13 12  1  1
 14 13  1  0
 14  7  1  0
 15 21  1  0
 15 13  1  0
 16 15  2  0
 18 17  1  6
 19 18  1  0
 20 21  1  6
 20 18  1  0
 22 20  1  0
 23 22  1  0
 24 22  2  0
M  END
$$$$
