MNT.pdb
     RDKit          3D

 24 23  0  0  1  0  0  0  0  0999 V2000
    8.1348  -11.5926   20.5239 C   0  0  0  0  0  0  0  0  0  0  0  0
    7.7463  -12.4298   18.9677 S   0  0  0  0  0  0  0  0  0  0  0  0
    8.1796  -14.1729   19.1113 C   0  0  0  0  0  0  0  0  0  0  0  0
    8.2062  -14.6143   20.5715 C   0  0  0  0  0  0  0  0  0  0  0  0
    8.5421  -16.0908   20.5707 C   0  0  2  0  0  0  0  0  0  0  0  0
    7.4393  -16.7655   19.9141 N   0  0  0  0  0  0  0  0  0  0  0  0
    8.6561  -16.6133   21.9692 C   0  0  0  0  0  0  0  0  0  0  0  0
    7.6333  -16.9194   22.6434 O   0  0  0  0  0  0  0  0  0  0  0  0
   11.1673  -18.3182   26.5432 N   0  0  0  0  0  0  0  0  0  0  0  0
   11.8341  -18.4299   25.3186 C   0  0  0  0  0  0  0  0  0  0  0  0
   12.9550  -19.0441   25.3468 O   0  0  0  0  0  0  0  0  0  0  0  0
   11.3844  -17.9230   24.0334 C   0  0  0  0  0  0  0  0  0  0  0  0
   10.0721  -17.2240   23.9887 C   0  0  2  0  0  0  0  0  0  0  0  0
    9.9147  -16.7836   22.5875 N   0  0  0  0  0  0  0  0  0  0  0  0
   10.0157  -16.0074   24.8274 C   0  0  0  0  0  0  0  0  0  0  0  0
   10.7002  -14.9760   24.4867 O   0  0  0  0  0  0  0  0  0  0  0  0
    7.9750  -12.5744   27.4221 C   0  0  0  0  0  0  0  0  0  0  0  0
    7.9682  -13.8963   26.7318 C   0  0  1  0  0  0  0  0  0  0  0  0
    7.6961  -13.6818   25.3663 O   0  0  0  0  0  0  0  0  0  0  0  0
    9.2867  -14.6322   26.7844 C   0  0  2  0  0  0  0  0  0  0  0  0
    9.2514  -15.8578   26.0130 N   0  0  0  0  0  0  0  0  0  0  0  0
    9.7235  -14.8027   28.1730 C   0  0  0  0  0  0  0  0  0  0  0  0
   10.0629  -13.7343   28.9857 O   0  0  0  0  0  0  0  0  0  0  0  0
    9.7927  -15.9711   28.6460 O   0  0  0  0  0  0  0  0  0  0  0  0
  1  2  1  0
  2  3  1  0
  3  4  1  0
  5  7  1  0
  5  4  1  0
  5  6  1  6
  7  8  2  0
  9 10  1  0
 10 12  1  0
 11 10  2  0
 13 12  1  6
 14 13  1  0
 14  7  1  0
 15 21  1  0
 15 13  1  0
 16 15  2  0
 18 17  1  1
 19 18  1  0
 20 21  1  1
 20 18  1  0
 22 20  1  0
 23 22  1  0
 24 22  2  0
M  END
$$$$
