SKP.pdb
     RDKit          3D

 23 23  0  0  1  0  0  0  0  0999 V2000
   14.2564   -4.7342   -8.5834 O   0  0  0  0  0  0  0  0  0  0  0  0
   15.4525   -5.3196   -9.0423 C   0  0  0  0  0  0  0  0  0  0  0  0
   15.2383   -6.8036   -9.2657 C   0  0  2  0  0  0  0  0  0  0  0  0
   15.1053   -7.4221   -7.9564 N   0  0  0  0  0  0  0  0  0  0  0  0
   16.3749   -7.4096  -10.0029 C   0  0  0  0  0  0  0  0  0  0  0  0
   17.4666   -7.6118   -9.4431 O   0  0  0  0  0  0  0  0  0  0  0  0
   16.2273   -7.7696  -11.3715 N   0  0  0  0  0  0  0  0  0  0  0  0
   17.3092   -8.2298  -12.1928 C   0  0  1  0  0  0  0  0  0  0  0  0
   16.7138   -8.9287  -13.3986 C   0  0  0  0  0  0  0  0  0  0  0  0
   16.1884  -10.2650  -12.9724 C   0  0  0  0  0  0  0  0  0  0  0  0
   15.5578  -11.0207  -14.1302 C   0  0  0  0  0  0  0  0  0  0  0  0
   14.8224  -12.2486  -13.6613 C   0  0  0  0  0  0  0  0  0  0  0  0
   14.1951  -12.8465  -14.8263 N   0  0  0  0  0  0  0  0  0  0  0  0
   18.1023   -7.0411  -12.6217 C   0  0  0  0  0  0  0  0  0  0  0  0
   17.5841   -5.8969  -12.6214 O   0  0  0  0  0  0  0  0  0  0  0  0
   19.4539   -7.1584  -13.0400 N   0  0  0  0  0  0  0  0  0  0  0  0
   20.2488   -8.3565  -13.2274 C   0  0  0  0  0  0  0  0  0  0  0  0
   21.6270   -7.9099  -12.7730 C   0  0  0  0  0  0  0  0  0  0  0  0
   21.5928   -6.4198  -12.6516 C   0  0  0  0  0  0  0  0  0  0  0  0
   20.3074   -6.0482  -13.3757 C   0  0  1  0  0  0  0  0  0  0  0  0
   20.5757   -5.9578  -14.8249 C   0  0  0  0  0  0  0  0  0  0  0  0
   20.1968   -6.9163  -15.5453 O   0  0  0  0  0  0  0  0  0  0  0  0
   21.2072   -4.9046  -15.4364 O   0  0  0  0  0  0  0  0  0  0  0  0
  1  2  1  0
  2  3  1  0
  3  5  1  0
  3  4  1  1
  5  6  2  0
  7  8  1  0
  7  5  1  0
  8 14  1  0
  8  9  1  6
 10  9  1  0
 10 11  1  0
 11 12  1  0
 13 12  1  0
 14 15  2  0
 16 14  1  0
 16 17  1  0
 17 18  1  0
 19 18  1  0
 20 16  1  0
 20 19  1  0
 20 21  1  6
 22 21  2  0
 23 21  1  0
M  END
$$$$
