SKP.pdb
     RDKit          3D

 23 23  0  0  1  0  0  0  0  0999 V2000
   20.6634  -19.1263  -19.9159 O   0  0  0  0  0  0  0  0  0  0  0  0
   21.7019  -18.3938  -19.3088 C   0  0  0  0  0  0  0  0  0  0  0  0
   21.2759  -17.9665  -17.9180 C   0  0  2  0  0  0  0  0  0  0  0  0
   20.6947  -16.6387  -18.0339 N   0  0  0  0  0  0  0  0  0  0  0  0
   22.4285  -17.9390  -16.9835 C   0  0  0  0  0  0  0  0  0  0  0  0
   23.2565  -17.0119  -17.0147 O   0  0  0  0  0  0  0  0  0  0  0  0
   22.6010  -18.9827  -16.0321 N   0  0  0  0  0  0  0  0  0  0  0  0
   23.6722  -19.0196  -15.0791 C   0  0  1  0  0  0  0  0  0  0  0  0
   23.1356  -19.6282  -13.7989 C   0  0  0  0  0  0  0  0  0  0  0  0
   24.2709  -19.8166  -12.8402 C   0  0  0  0  0  0  0  0  0  0  0  0
   23.8094  -20.4357  -11.5314 C   0  0  0  0  0  0  0  0  0  0  0  0
   24.9145  -20.4679  -10.5085 C   0  0  0  0  0  0  0  0  0  0  0  0
   24.3702  -21.0701   -9.3046 N   0  0  0  0  0  0  0  0  0  0  0  0
   24.7617  -19.8702  -15.6407 C   0  0  0  0  0  0  0  0  0  0  0  0
   24.4891  -20.8398  -16.3911 O   0  0  0  0  0  0  0  0  0  0  0  0
   26.1285  -19.6176  -15.3513 N   0  0  0  0  0  0  0  0  0  0  0  0
   26.7008  -18.6958  -14.3894 C   0  0  0  0  0  0  0  0  0  0  0  0
   27.9476  -18.2074  -15.1051 C   0  0  0  0  0  0  0  0  0  0  0  0
   28.1637  -19.1045  -16.2819 C   0  0  0  0  0  0  0  0  0  0  0  0
   27.2374  -20.2760  -15.9921 C   0  0  1  0  0  0  0  0  0  0  0  0
   27.9249  -21.2282  -15.0971 C   0  0  0  0  0  0  0  0  0  0  0  0
   27.5269  -21.2949  -13.9061 O   0  0  0  0  0  0  0  0  0  0  0  0
   28.9634  -22.0414  -15.4743 O   0  0  0  0  0  0  0  0  0  0  0  0
  1  2  1  0
  2  3  1  0
  3  5  1  0
  3  4  1  6
  5  6  2  0
  7  8  1  0
  7  5  1  0
  8 14  1  0
  8  9  1  1
 10  9  1  0
 10 11  1  0
 11 12  1  0
 13 12  1  0
 14 15  2  0
 16 14  1  0
 16 17  1  0
 17 18  1  0
 19 18  1  0
 20 16  1  0
 20 19  1  0
 20 21  1  1
 22 21  2  0
 23 21  1  0
M  END
$$$$
