SKP.pdb
     RDKit          3D

 23 23  0  0  1  0  0  0  0  0999 V2000
   26.6800  -18.2770  -16.4245 O   0  0  0  0  0  0  0  0  0  0  0  0
   27.5035  -19.2831  -16.9661 C   0  0  0  0  0  0  0  0  0  0  0  0
   27.9570  -20.2171  -15.8615 C   0  0  2  0  0  0  0  0  0  0  0  0
   28.8290  -21.2104  -16.4675 N   0  0  0  0  0  0  0  0  0  0  0  0
   26.8029  -20.8826  -15.2074 C   0  0  0  0  0  0  0  0  0  0  0  0
   26.1532  -21.7637  -15.7971 O   0  0  0  0  0  0  0  0  0  0  0  0
   26.4230  -20.5169  -13.8860 N   0  0  0  0  0  0  0  0  0  0  0  0
   25.2451  -21.0101  -13.2330 C   0  0  1  0  0  0  0  0  0  0  0  0
   25.3649  -20.6940  -11.7556 C   0  0  0  0  0  0  0  0  0  0  0  0
   24.1201  -21.1528  -11.0604 C   0  0  0  0  0  0  0  0  0  0  0  0
   24.1697  -20.8729   -9.5677 C   0  0  0  0  0  0  0  0  0  0  0  0
   22.9254  -21.3528   -8.8678 C   0  0  0  0  0  0  0  0  0  0  0  0
   23.0645  -21.0166   -7.4621 N   0  0  0  0  0  0  0  0  0  0  0  0
   24.0645  -20.3110  -13.8188 C   0  0  0  0  0  0  0  0  0  0  0  0
   24.1387  -19.0997  -14.1430 O   0  0  0  0  0  0  0  0  0  0  0  0
   22.8304  -20.9807  -14.0287 N   0  0  0  0  0  0  0  0  0  0  0  0
   22.4557  -22.3343  -13.6685 C   0  0  0  0  0  0  0  0  0  0  0  0
   21.5631  -22.7463  -14.8257 C   0  0  0  0  0  0  0  0  0  0  0  0
   21.2437  -21.5087  -15.6020 C   0  0  0  0  0  0  0  0  0  0  0  0
   21.6768  -20.3946  -14.6608 C   0  0  1  0  0  0  0  0  0  0  0  0
   20.5867  -20.1165  -13.7043 C   0  0  0  0  0  0  0  0  0  0  0  0
   20.7408  -20.5096  -12.5198 O   0  0  0  0  0  0  0  0  0  0  0  0
   19.4228  -19.4618  -14.0180 O   0  0  0  0  0  0  0  0  0  0  0  0
  1  2  1  0
  2  3  1  0
  3  5  1  0
  3  4  1  6
  5  6  2  0
  7  8  1  0
  7  5  1  0
  8 14  1  0
  8  9  1  1
 10  9  1  0
 10 11  1  0
 11 12  1  0
 13 12  1  0
 14 15  2  0
 16 14  1  0
 16 17  1  0
 17 18  1  0
 19 18  1  0
 20 16  1  0
 20 19  1  0
 20 21  1  1
 22 21  2  0
 23 21  1  0
M  END
$$$$
