SKP.pdb
     RDKit          3D

 23 23  0  0  1  0  0  0  0  0999 V2000
   26.0075  -18.5581   -8.2992 O   0  0  0  0  0  0  0  0  0  0  0  0
   26.2387  -19.3662   -9.4294 C   0  0  0  0  0  0  0  0  0  0  0  0
   25.0704  -20.3122   -9.6246 C   0  0  2  0  0  0  0  0  0  0  0  0
   25.1325  -21.2999   -8.5592 N   0  0  0  0  0  0  0  0  0  0  0  0
   25.1326  -20.9836  -10.9467 C   0  0  0  0  0  0  0  0  0  0  0  0
   25.9496  -21.8954  -11.1643 O   0  0  0  0  0  0  0  0  0  0  0  0
   24.2500  -20.5883  -11.9902 N   0  0  0  0  0  0  0  0  0  0  0  0
   24.3808  -21.0262  -13.3497 C   0  0  1  0  0  0  0  0  0  0  0  0
   23.0109  -20.9584  -13.9945 C   0  0  0  0  0  0  0  0  0  0  0  0
   22.1531  -22.0451  -13.4230 C   0  0  0  0  0  0  0  0  0  0  0  0
   20.7383  -21.9989  -13.9757 C   0  0  0  0  0  0  0  0  0  0  0  0
   19.8496  -23.0243  -13.3220 C   0  0  0  0  0  0  0  0  0  0  0  0
   18.5089  -22.8282  -13.8439 N   0  0  0  0  0  0  0  0  0  0  0  0
   25.3267  -20.1044  -14.0435 C   0  0  0  0  0  0  0  0  0  0  0  0
   25.3621  -18.8852  -13.7434 O   0  0  0  0  0  0  0  0  0  0  0  0
   26.2100  -20.5657  -15.0547 N   0  0  0  0  0  0  0  0  0  0  0  0
   26.3420  -21.8985  -15.6104 C   0  0  0  0  0  0  0  0  0  0  0  0
   27.8360  -22.0031  -15.8600 C   0  0  0  0  0  0  0  0  0  0  0  0
   28.4065  -20.6278  -15.7204 C   0  0  0  0  0  0  0  0  0  0  0  0
   27.1699  -19.7419  -15.7430 C   0  0  1  0  0  0  0  0  0  0  0  0
   26.7880  -19.4778  -17.1448 C   0  0  0  0  0  0  0  0  0  0  0  0
   27.5448  -18.7361  -17.8218 O   0  0  0  0  0  0  0  0  0  0  0  0
   25.6691  -19.9840  -17.7563 O   0  0  0  0  0  0  0  0  0  0  0  0
  1  2  1  0
  2  3  1  0
  3  5  1  0
  3  4  1  1
  5  6  2  0
  7  8  1  0
  7  5  1  0
  8 14  1  0
  8  9  1  6
 10  9  1  0
 10 11  1  0
 11 12  1  0
 13 12  1  0
 14 15  2  0
 16 14  1  0
 16 17  1  0
 17 18  1  0
 19 18  1  0
 20 16  1  0
 20 19  1  0
 20 21  1  6
 22 21  2  0
 23 21  1  0
M  END
$$$$
