SKP.pdb
     RDKit          3D

 23 23  0  0  1  0  0  0  0  0999 V2000
   28.3441  -10.3485  -16.0969 O   0  0  0  0  0  0  0  0  0  0  0  0
   27.2166  -10.3322  -15.2531 C   0  0  0  0  0  0  0  0  0  0  0  0
   26.0976  -11.1362  -15.8854 C   0  0  2  0  0  0  0  0  0  0  0  0
   26.6850  -11.9241  -16.9571 N   0  0  0  0  0  0  0  0  0  0  0  0
   25.0346  -10.2525  -16.4256 C   0  0  0  0  0  0  0  0  0  0  0  0
   25.1128   -9.7857  -17.5754 O   0  0  0  0  0  0  0  0  0  0  0  0
   23.9034   -9.9263  -15.6268 N   0  0  0  0  0  0  0  0  0  0  0  0
   22.8477   -9.0583  -16.0618 C   0  0  1  0  0  0  0  0  0  0  0  0
   21.5288   -9.7144  -15.7053 C   0  0  0  0  0  0  0  0  0  0  0  0
   21.3777  -10.9665  -16.5133 C   0  0  0  0  0  0  0  0  0  0  0  0
   20.0461  -11.6507  -16.2528 C   0  0  0  0  0  0  0  0  0  0  0  0
   19.8709  -12.8766  -17.1102 C   0  0  0  0  0  0  0  0  0  0  0  0
   18.6016  -13.4800  -16.7454 N   0  0  0  0  0  0  0  0  0  0  0  0
   22.9916   -7.7590  -15.3428 C   0  0  0  0  0  0  0  0  0  0  0  0
   23.5431   -7.7135  -14.2152 O   0  0  0  0  0  0  0  0  0  0  0  0
   22.5168   -6.5424  -15.8998 N   0  0  0  0  0  0  0  0  0  0  0  0
   21.8373   -6.3223  -17.1616 C   0  0  0  0  0  0  0  0  0  0  0  0
   22.3868   -4.9763  -17.5995 C   0  0  0  0  0  0  0  0  0  0  0  0
   23.0981   -4.3843  -16.4248 C   0  0  0  0  0  0  0  0  0  0  0  0
   22.6277   -5.2531  -15.2680 C   0  0  1  0  0  0  0  0  0  0  0  0
   21.3291   -4.7483  -14.7790 C   0  0  0  0  0  0  0  0  0  0  0  0
   20.2900   -5.3177  -15.2004 O   0  0  0  0  0  0  0  0  0  0  0  0
   21.1791   -3.7055  -13.9004 O   0  0  0  0  0  0  0  0  0  0  0  0
  1  2  1  0
  2  3  1  0
  3  5  1  0
  3  4  1  6
  5  6  2  0
  7  8  1  0
  7  5  1  0
  8 14  1  0
  8  9  1  1
 10  9  1  0
 10 11  1  0
 11 12  1  0
 13 12  1  0
 14 15  2  0
 16 14  1  0
 16 17  1  0
 17 18  1  0
 19 18  1  0
 20 16  1  0
 20 19  1  0
 20 21  1  6
 22 21  2  0
 23 21  1  0
M  END
$$$$
