SKP.pdb
     RDKit          3D

 23 23  0  0  1  0  0  0  0  0999 V2000
   28.2989  -19.9617  -16.8119 O   0  0  0  0  0  0  0  0  0  0  0  0
   27.3009  -20.2090  -17.7745 C   0  0  0  0  0  0  0  0  0  0  0  0
   26.4457  -21.3792  -17.3299 C   0  0  2  0  0  0  0  0  0  0  0  0
   25.8215  -21.0037  -16.0714 N   0  0  0  0  0  0  0  0  0  0  0  0
   27.2599  -22.6068  -17.1491 C   0  0  0  0  0  0  0  0  0  0  0  0
   27.6806  -22.9368  -16.0265 O   0  0  0  0  0  0  0  0  0  0  0  0
   27.5715  -23.4279  -18.2684 N   0  0  0  0  0  0  0  0  0  0  0  0
   28.3599  -24.6229  -18.1819 C   0  0  1  0  0  0  0  0  0  0  0  0
   28.2824  -25.3298  -19.5203 C   0  0  0  0  0  0  0  0  0  0  0  0
   29.1727  -26.5338  -19.4835 C   0  0  0  0  0  0  0  0  0  0  0  0
   28.3967  -27.8187  -19.7201 C   0  0  0  0  0  0  0  0  0  0  0  0
   29.2876  -29.0309  -19.6455 C   0  0  0  0  0  0  0  0  0  0  0  0
   28.4489  -30.1962  -19.8623 N   0  0  0  0  0  0  0  0  0  0  0  0
   29.7676  -24.2276  -17.8850 C   0  0  0  0  0  0  0  0  0  0  0  0
   30.2038  -23.1072  -18.2484 O   0  0  0  0  0  0  0  0  0  0  0  0
   30.6536  -25.0921  -17.1898 N   0  0  0  0  0  0  0  0  0  0  0  0
   30.3972  -26.4095  -16.6409 C   0  0  0  0  0  0  0  0  0  0  0  0
   31.2362  -26.4063  -15.3754 C   0  0  0  0  0  0  0  0  0  0  0  0
   32.1438  -25.2200  -15.4479 C   0  0  0  0  0  0  0  0  0  0  0  0
   32.0334  -24.7948  -16.9044 C   0  0  1  0  0  0  0  0  0  0  0  0
   32.9663  -25.6008  -17.7172 C   0  0  0  0  0  0  0  0  0  0  0  0
   34.1946  -25.3575  -17.6014 O   0  0  0  0  0  0  0  0  0  0  0  0
   32.5865  -26.5922  -18.5859 O   0  0  0  0  0  0  0  0  0  0  0  0
  1  2  1  0
  2  3  1  0
  3  5  1  0
  3  4  1  1
  5  6  2  0
  7  8  1  0
  7  5  1  0
  8 14  1  0
  8  9  1  6
 10  9  1  0
 10 11  1  0
 11 12  1  0
 13 12  1  0
 14 15  2  0
 16 14  1  0
 16 17  1  0
 17 18  1  0
 19 18  1  0
 20 16  1  0
 20 19  1  0
 20 21  1  6
 22 21  2  0
 23 21  1  0
M  END
$$$$
