SKP.pdb
     RDKit          3D

 23 23  0  0  1  0  0  0  0  0999 V2000
   23.3709  -13.4748  -17.5525 O   0  0  0  0  0  0  0  0  0  0  0  0
   24.6091  -12.8551  -17.8107 C   0  0  0  0  0  0  0  0  0  0  0  0
   24.8748  -11.7945  -16.7605 C   0  0  2  0  0  0  0  0  0  0  0  0
   24.8499  -12.4546  -15.4651 N   0  0  0  0  0  0  0  0  0  0  0  0
   23.8518  -10.7202  -16.8053 C   0  0  0  0  0  0  0  0  0  0  0  0
   23.7867   -9.9376  -17.7694 O   0  0  0  0  0  0  0  0  0  0  0  0
   22.9253  -10.5719  -15.7359 N   0  0  0  0  0  0  0  0  0  0  0  0
   21.9045   -9.5649  -15.7033 C   0  0  1  0  0  0  0  0  0  0  0  0
   20.7519  -10.0970  -14.8754 C   0  0  0  0  0  0  0  0  0  0  0  0
   19.8621  -10.9184  -15.7569 C   0  0  0  0  0  0  0  0  0  0  0  0
   18.6762  -11.4846  -14.9939 C   0  0  0  0  0  0  0  0  0  0  0  0
   17.8547  -12.4141  -15.8481 C   0  0  0  0  0  0  0  0  0  0  0  0
   16.8100  -12.9652  -15.0036 N   0  0  0  0  0  0  0  0  0  0  0  0
   22.4795   -8.3440  -15.0673 C   0  0  0  0  0  0  0  0  0  0  0  0
   23.4014   -8.4422  -14.2198 O   0  0  0  0  0  0  0  0  0  0  0  0
   22.0119   -7.0436  -15.3927 N   0  0  0  0  0  0  0  0  0  0  0  0
   20.9931   -6.6545  -16.3483 C   0  0  0  0  0  0  0  0  0  0  0  0
   21.5404   -5.3492  -16.8978 C   0  0  0  0  0  0  0  0  0  0  0  0
   22.6663   -4.9304  -16.0071 C   0  0  0  0  0  0  0  0  0  0  0  0
   22.4895   -5.8260  -14.7901 C   0  0  1  0  0  0  0  0  0  0  0  0
   21.4986   -5.2176  -13.8800 C   0  0  0  0  0  0  0  0  0  0  0  0
   21.8686   -4.2278  -13.1984 O   0  0  0  0  0  0  0  0  0  0  0  0
   20.2077   -5.6564  -13.7279 O   0  0  0  0  0  0  0  0  0  0  0  0
  1  2  1  0
  2  3  1  0
  3  5  1  0
  3  4  1  1
  5  6  2  0
  7  8  1  0
  7  5  1  0
  8 14  1  0
  8  9  1  1
 10  9  1  0
 10 11  1  0
 11 12  1  0
 13 12  1  0
 14 15  2  0
 16 14  1  0
 16 17  1  0
 17 18  1  0
 19 18  1  0
 20 16  1  0
 20 19  1  0
 20 21  1  1
 22 21  2  0
 23 21  1  0
M  END
$$$$
