ETV.pdb
     RDKit          3D

 24 23  0  0  1  0  0  0  0  0999 V2000
   11.4569  -17.7396   19.6431 N   0  0  0  0  0  0  0  0  0  0  0  0
   12.1050  -17.6978   20.9685 C   0  0  1  0  0  0  0  0  0  0  0  0
   13.4296  -17.0601   20.7493 C   0  0  0  0  0  0  0  0  0  0  0  0
   14.3746  -18.0111   20.0640 C   0  0  0  0  0  0  0  0  0  0  0  0
   15.6521  -17.2554   19.8708 C   0  0  0  0  0  0  0  0  0  0  0  0
   15.7643  -16.4572   18.9190 O   0  0  0  0  0  0  0  0  0  0  0  0
   11.1983  -17.0034   21.8910 C   0  0  0  0  0  0  0  0  0  0  0  0
   10.5392  -15.9782   21.4905 O   0  0  0  0  0  0  0  0  0  0  0  0
   16.6794  -17.4618   20.7615 O   0  0  0  0  0  0  0  0  0  0  0  0
    8.1547  -17.7426   22.8032 C   0  0  0  0  0  0  0  0  0  0  0  0
    8.8204  -17.6245   24.1501 C   0  0  1  0  0  0  0  0  0  0  0  0
    9.2757  -18.9375   24.4400 O   0  0  0  0  0  0  0  0  0  0  0  0
   10.0157  -16.7173   24.1316 C   0  0  2  0  0  0  0  0  0  0  0  0
   10.9708  -17.3705   23.2274 N   0  0  0  0  0  0  0  0  0  0  0  0
   10.6117  -16.4382   25.4275 C   0  0  0  0  0  0  0  0  0  0  0  0
   11.7663  -16.9705   25.6516 O   0  0  0  0  0  0  0  0  0  0  0  0
   10.8288  -13.0436   27.4402 C   0  0  0  0  0  0  0  0  0  0  0  0
   10.2730  -14.1106   28.3583 C   0  0  1  0  0  0  0  0  0  0  0  0
    8.7801  -13.9765   28.4101 C   0  0  0  0  0  0  0  0  0  0  0  0
   10.6978  -15.4324   27.7688 C   0  0  2  0  0  0  0  0  0  0  0  0
   10.0964  -15.6626   26.4723 N   0  0  0  0  0  0  0  0  0  0  0  0
   10.2752  -16.5681   28.6595 C   0  0  0  0  0  0  0  0  0  0  0  0
   10.9327  -16.7649   29.8478 O   0  0  0  0  0  0  0  0  0  0  0  0
    9.3404  -17.3340   28.3425 O   0  0  0  0  0  0  0  0  0  0  0  0
  2  1  1  6
  3  2  1  0
  4  3  1  0
  4  5  1  0
  5  6  2  0
  7  2  1  0
  7  8  2  0
  9  5  1  0
 11 10  1  6
 11 12  1  0
 11 13  1  0
 13 14  1  6
 14  7  1  0
 15 21  1  0
 15 13  1  0
 16 15  2  0
 18 17  1  6
 18 20  1  0
 19 18  1  0
 20 21  1  6
 20 22  1  0
 22 23  1  0
 24 22  2  0
M  END
$$$$
