ETV.pdb
     RDKit          3D

 24 23  0  0  1  0  0  0  0  0999 V2000
   11.2025  -17.8022   19.6437 N   0  0  0  0  0  0  0  0  0  0  0  0
   11.9911  -17.6359   20.8802 C   0  0  1  0  0  0  0  0  0  0  0  0
   13.2688  -17.0025   20.4611 C   0  0  0  0  0  0  0  0  0  0  0  0
   14.2469  -16.9626   21.6051 C   0  0  0  0  0  0  0  0  0  0  0  0
   15.6049  -17.1036   20.9917 C   0  0  0  0  0  0  0  0  0  0  0  0
   16.2033  -16.0948   20.5678 O   0  0  0  0  0  0  0  0  0  0  0  0
   11.1757  -16.8752   21.8351 C   0  0  0  0  0  0  0  0  0  0  0  0
   10.6993  -15.7317   21.5018 O   0  0  0  0  0  0  0  0  0  0  0  0
   16.1645  -18.3574   20.9143 O   0  0  0  0  0  0  0  0  0  0  0  0
    8.0151  -17.4660   22.7008 C   0  0  0  0  0  0  0  0  0  0  0  0
    8.6852  -17.4178   24.0499 C   0  0  1  0  0  0  0  0  0  0  0  0
    9.0480  -18.7641   24.3168 O   0  0  0  0  0  0  0  0  0  0  0  0
    9.9404  -16.5953   24.0479 C   0  0  2  0  0  0  0  0  0  0  0  0
   10.8501  -17.2981   23.1342 N   0  0  0  0  0  0  0  0  0  0  0  0
   10.5511  -16.3795   25.3489 C   0  0  0  0  0  0  0  0  0  0  0  0
   11.6880  -16.9578   25.5491 O   0  0  0  0  0  0  0  0  0  0  0  0
   10.8099  -13.1047   27.6489 C   0  0  0  0  0  0  0  0  0  0  0  0
   10.2120  -14.2462   28.4424 C   0  0  1  0  0  0  0  0  0  0  0  0
    8.7195  -14.0980   28.4562 C   0  0  0  0  0  0  0  0  0  0  0  0
   10.6439  -15.5119   27.7446 C   0  0  2  0  0  0  0  0  0  0  0  0
   10.0671  -15.6217   26.4214 N   0  0  0  0  0  0  0  0  0  0  0  0
   10.2001  -16.7208   28.5214 C   0  0  0  0  0  0  0  0  0  0  0  0
   10.8000  -16.9989   29.7239 O   0  0  0  0  0  0  0  0  0  0  0  0
    9.2991  -17.4753   28.0973 O   0  0  0  0  0  0  0  0  0  0  0  0
  2  1  1  6
  3  2  1  0
  4  3  1  0
  4  5  1  0
  5  6  2  0
  7  2  1  0
  7  8  2  0
  9  5  1  0
 11 10  1  6
 11 12  1  0
 11 13  1  0
 13 14  1  6
 14  7  1  0
 15 21  1  0
 15 13  1  0
 16 15  2  0
 18 17  1  6
 18 20  1  0
 19 18  1  0
 20 21  1  6
 20 22  1  0
 22 23  1  0
 24 22  2  0
M  END
$$$$
