ETV.pdb
     RDKit          3D

 24 23  0  0  1  0  0  0  0  0999 V2000
   10.7896  -17.8056   19.5687 N   0  0  0  0  0  0  0  0  0  0  0  0
   11.4996  -17.8255   20.8625 C   0  0  1  0  0  0  0  0  0  0  0  0
   12.8133  -17.1769   20.6112 C   0  0  0  0  0  0  0  0  0  0  0  0
   13.6549  -18.0140   19.6850 C   0  0  0  0  0  0  0  0  0  0  0  0
   14.9735  -17.3135   19.5798 C   0  0  0  0  0  0  0  0  0  0  0  0
   15.1629  -16.2485   20.2007 O   0  0  0  0  0  0  0  0  0  0  0  0
   10.6384  -17.1761   21.8584 C   0  0  0  0  0  0  0  0  0  0  0  0
    9.8447  -16.2336   21.5014 O   0  0  0  0  0  0  0  0  0  0  0  0
   15.9541  -17.8722   18.7940 O   0  0  0  0  0  0  0  0  0  0  0  0
    7.8347  -18.1714   23.0728 C   0  0  0  0  0  0  0  0  0  0  0  0
    8.5757  -17.9143   24.3597 C   0  0  1  0  0  0  0  0  0  0  0  0
    9.1670  -19.1627   24.6869 O   0  0  0  0  0  0  0  0  0  0  0  0
    9.6794  -16.9093   24.2057 C   0  0  2  0  0  0  0  0  0  0  0  0
   10.5956  -17.5030   23.2237 N   0  0  0  0  0  0  0  0  0  0  0  0
   10.3717  -16.5452   25.4306 C   0  0  0  0  0  0  0  0  0  0  0  0
   11.5465  -17.0547   25.5957 O   0  0  0  0  0  0  0  0  0  0  0  0
   10.4274  -13.0138   27.2860 C   0  0  0  0  0  0  0  0  0  0  0  0
   10.1351  -14.1004   28.2980 C   0  0  1  0  0  0  0  0  0  0  0  0
    8.6579  -14.1398   28.5545 C   0  0  0  0  0  0  0  0  0  0  0  0
   10.6332  -15.3863   27.6866 C   0  0  2  0  0  0  0  0  0  0  0  0
    9.9310  -15.7086   26.4625 N   0  0  0  0  0  0  0  0  0  0  0  0
   10.4230  -16.5367   28.6322 C   0  0  0  0  0  0  0  0  0  0  0  0
   11.1722  -16.6029   29.7800 O   0  0  0  0  0  0  0  0  0  0  0  0
    9.5830  -17.4309   28.3965 O   0  0  0  0  0  0  0  0  0  0  0  0
  2  1  1  6
  3  2  1  0
  4  3  1  0
  4  5  1  0
  5  6  2  0
  7  2  1  0
  7  8  2  0
  9  5  1  0
 11 10  1  6
 11 12  1  0
 11 13  1  0
 13 14  1  6
 14  7  1  0
 15 21  1  0
 15 13  1  0
 16 15  2  0
 18 17  1  6
 18 20  1  0
 19 18  1  0
 20 21  1  6
 20 22  1  0
 22 23  1  0
 24 22  2  0
M  END
$$$$
