ETV.pdb
     RDKit          3D

 24 23  0  0  1  0  0  0  0  0999 V2000
   11.7266  -16.6749   19.3614 N   0  0  0  0  0  0  0  0  0  0  0  0
   11.1640  -17.4063   20.5133 C   0  0  1  0  0  0  0  0  0  0  0  0
   12.2127  -18.3753   20.9264 C   0  0  0  0  0  0  0  0  0  0  0  0
   13.4139  -17.6587   21.4837 C   0  0  0  0  0  0  0  0  0  0  0  0
   14.3978  -18.7259   21.8492 C   0  0  0  0  0  0  0  0  0  0  0  0
   15.2956  -19.0456   21.0447 O   0  0  0  0  0  0  0  0  0  0  0  0
   10.7642  -16.4177   21.5224 C   0  0  0  0  0  0  0  0  0  0  0  0
   11.2681  -15.2382   21.4980 O   0  0  0  0  0  0  0  0  0  0  0  0
   14.2856  -19.3302   23.0794 O   0  0  0  0  0  0  0  0  0  0  0  0
    7.4354  -15.0183   22.1976 C   0  0  0  0  0  0  0  0  0  0  0  0
    7.9389  -15.6190   23.4848 C   0  0  1  0  0  0  0  0  0  0  0  0
    7.4696  -16.9585   23.4615 O   0  0  0  0  0  0  0  0  0  0  0  0
    9.4371  -15.6582   23.5626 C   0  0  2  0  0  0  0  0  0  0  0  0
    9.8410  -16.6476   22.5555 N   0  0  0  0  0  0  0  0  0  0  0  0
    9.9894  -15.9703   24.8701 C   0  0  0  0  0  0  0  0  0  0  0  0
   10.7124  -17.0374   24.9448 O   0  0  0  0  0  0  0  0  0  0  0  0
   10.9168  -13.3122   27.8813 C   0  0  0  0  0  0  0  0  0  0  0  0
   10.1564  -14.5216   28.3810 C   0  0  1  0  0  0  0  0  0  0  0  0
    8.7040  -14.1665   28.4996 C   0  0  0  0  0  0  0  0  0  0  0  0
   10.3867  -15.6105   27.3628 C   0  0  2  0  0  0  0  0  0  0  0  0
    9.8411  -15.2620   26.0681 N   0  0  0  0  0  0  0  0  0  0  0  0
    9.7187  -16.8868   27.7944 C   0  0  0  0  0  0  0  0  0  0  0  0
   10.2283  -17.5784   28.8646 O   0  0  0  0  0  0  0  0  0  0  0  0
    8.7120  -17.3300   27.2019 O   0  0  0  0  0  0  0  0  0  0  0  0
  2  1  1  6
  3  2  1  0
  4  3  1  0
  4  5  1  0
  5  6  2  0
  7  2  1  0
  7  8  2  0
  9  5  1  0
 11 10  1  6
 11 12  1  0
 11 13  1  0
 13 14  1  6
 14  7  1  0
 15 21  1  0
 15 13  1  0
 16 15  2  0
 18 17  1  6
 18 20  1  0
 19 18  1  0
 20 21  1  6
 20 22  1  0
 22 23  1  0
 24 22  2  0
M  END
$$$$
