ETV.pdb
     RDKit          3D

 24 23  0  0  1  0  0  0  0  0999 V2000
   10.2681  -19.4575   20.4714 N   0  0  0  0  0  0  0  0  0  0  0  0
   10.7461  -18.0744   20.6641 C   0  0  1  0  0  0  0  0  0  0  0  0
   11.2711  -17.6417   19.3426 C   0  0  0  0  0  0  0  0  0  0  0  0
   12.5897  -18.3057   19.0470 C   0  0  0  0  0  0  0  0  0  0  0  0
   13.4541  -17.2501   18.4316 C   0  0  0  0  0  0  0  0  0  0  0  0
   14.5093  -16.9023   18.9983 O   0  0  0  0  0  0  0  0  0  0  0  0
    9.6336  -17.2854   21.2073 C   0  0  0  0  0  0  0  0  0  0  0  0
    8.5809  -17.0914   20.5001 O   0  0  0  0  0  0  0  0  0  0  0  0
   13.0579  -16.6874   17.2409 O   0  0  0  0  0  0  0  0  0  0  0  0
    6.3968  -17.4573   24.2163 C   0  0  0  0  0  0  0  0  0  0  0  0
    7.5809  -17.5801   23.2922 C   0  0  1  0  0  0  0  0  0  0  0  0
    7.0125  -17.8113   22.0121 O   0  0  0  0  0  0  0  0  0  0  0  0
    8.3920  -16.3198   23.2140 C   0  0  2  0  0  0  0  0  0  0  0  0
    9.6079  -16.6988   22.4832 N   0  0  0  0  0  0  0  0  0  0  0  0
    8.7068  -15.6964   24.4885 C   0  0  0  0  0  0  0  0  0  0  0  0
    9.7325  -16.1664   25.1162 O   0  0  0  0  0  0  0  0  0  0  0  0
    7.7594  -11.8544   25.5997 C   0  0  0  0  0  0  0  0  0  0  0  0
    7.5088  -12.8518   26.7100 C   0  0  1  0  0  0  0  0  0  0  0  0
    6.0524  -13.2101   26.7207 C   0  0  0  0  0  0  0  0  0  0  0  0
    8.3783  -14.0458   26.4038 C   0  0  2  0  0  0  0  0  0  0  0  0
    8.0412  -14.6457   25.1302 N   0  0  0  0  0  0  0  0  0  0  0  0
    8.2036  -15.1091   27.4528 C   0  0  0  0  0  0  0  0  0  0  0  0
    8.9128  -15.0146   28.6238 O   0  0  0  0  0  0  0  0  0  0  0  0
    7.4285  -16.0740   27.2823 O   0  0  0  0  0  0  0  0  0  0  0  0
  2  1  1  6
  3  2  1  0
  4  3  1  0
  4  5  1  0
  5  6  2  0
  7  2  1  0
  7  8  2  0
  9  5  1  0
 11 10  1  1
 11 12  1  0
 11 13  1  0
 13 14  1  1
 14  7  1  0
 15 21  1  0
 15 13  1  0
 16 15  2  0
 18 17  1  6
 18 20  1  0
 19 18  1  0
 20 21  1  6
 20 22  1  0
 22 23  1  0
 24 22  2  0
M  END
$$$$
