ETV.pdb
     RDKit          3D

 24 23  0  0  1  0  0  0  0  0999 V2000
   11.8215  -18.1094   19.6448 N   0  0  0  0  0  0  0  0  0  0  0  0
   12.3294  -18.0747   21.0302 C   0  0  1  0  0  0  0  0  0  0  0  0
   13.6392  -17.3755   20.9618 C   0  0  0  0  0  0  0  0  0  0  0  0
   14.6442  -18.1954   20.1972 C   0  0  0  0  0  0  0  0  0  0  0  0
   15.9383  -17.4483   20.2850 C   0  0  0  0  0  0  0  0  0  0  0  0
   16.2192  -16.5885   19.4264 O   0  0  0  0  0  0  0  0  0  0  0  0
   11.3034  -17.4440   21.8699 C   0  0  0  0  0  0  0  0  0  0  0  0
   10.5419  -16.5366   21.3774 O   0  0  0  0  0  0  0  0  0  0  0  0
   16.7918  -17.7317   21.3255 O   0  0  0  0  0  0  0  0  0  0  0  0
    8.3654  -18.6674   22.8316 C   0  0  0  0  0  0  0  0  0  0  0  0
    8.9696  -18.2811   24.1571 C   0  0  1  0  0  0  0  0  0  0  0  0
    9.6443  -19.4502   24.5964 O   0  0  0  0  0  0  0  0  0  0  0  0
    9.9849  -17.1825   24.0364 C   0  0  2  0  0  0  0  0  0  0  0  0
   11.0626  -17.7534   23.2185 N   0  0  0  0  0  0  0  0  0  0  0  0
   10.4898  -16.6542   25.2926 C   0  0  0  0  0  0  0  0  0  0  0  0
   11.6996  -16.9803   25.6041 O   0  0  0  0  0  0  0  0  0  0  0  0
   10.2032  -13.8037   29.3232 C   0  0  0  0  0  0  0  0  0  0  0  0
    9.5081  -14.2468   28.0539 C   0  0  1  0  0  0  0  0  0  0  0  0
    9.4297  -13.0823   27.1119 C   0  0  0  0  0  0  0  0  0  0  0  0
   10.3426  -15.3697   27.4902 C   0  0  2  0  0  0  0  0  0  0  0  0
    9.8341  -15.8322   26.2162 N   0  0  0  0  0  0  0  0  0  0  0  0
   10.3383  -16.5501   28.4220 C   0  0  0  0  0  0  0  0  0  0  0  0
   11.3287  -16.6595   29.3656 O   0  0  0  0  0  0  0  0  0  0  0  0
    9.4546  -17.4308   28.3567 O   0  0  0  0  0  0  0  0  0  0  0  0
  2  1  1  6
  3  2  1  0
  4  3  1  0
  4  5  1  0
  5  6  2  0
  7  2  1  0
  7  8  2  0
  9  5  1  0
 11 10  1  6
 11 12  1  0
 11 13  1  0
 13 14  1  6
 14  7  1  0
 15 21  1  0
 15 13  1  0
 16 15  2  0
 18 17  1  1
 18 20  1  0
 19 18  1  0
 20 21  1  6
 20 22  1  0
 22 23  1  0
 24 22  2  0
M  END
$$$$
