ETV.pdb
     RDKit          3D

 24 23  0  0  1  0  0  0  0  0999 V2000
   11.0413  -17.5634   19.1516 N   0  0  0  0  0  0  0  0  0  0  0  0
   11.4806  -17.8240   20.5364 C   0  0  1  0  0  0  0  0  0  0  0  0
   12.9098  -17.4193   20.5886 C   0  0  0  0  0  0  0  0  0  0  0  0
   13.7109  -18.1475   19.5421 C   0  0  0  0  0  0  0  0  0  0  0  0
   15.1438  -17.8076   19.8093 C   0  0  0  0  0  0  0  0  0  0  0  0
   15.5070  -17.5092   20.9646 O   0  0  0  0  0  0  0  0  0  0  0  0
   10.5723  -17.1061   21.4392 C   0  0  0  0  0  0  0  0  0  0  0  0
    9.5166  -16.5459   20.9728 O   0  0  0  0  0  0  0  0  0  0  0  0
   16.0332  -17.8372   18.7608 O   0  0  0  0  0  0  0  0  0  0  0  0
    7.6893  -17.7623   24.7867 C   0  0  0  0  0  0  0  0  0  0  0  0
    8.7121  -17.7696   23.6799 C   0  0  1  0  0  0  0  0  0  0  0  0
    7.9562  -17.5770   22.4938 O   0  0  0  0  0  0  0  0  0  0  0  0
    9.6945  -16.6403   23.7872 C   0  0  2  0  0  0  0  0  0  0  0  0
   10.7539  -16.9695   22.8251 N   0  0  0  0  0  0  0  0  0  0  0  0
   10.2340  -16.4021   25.1155 C   0  0  0  0  0  0  0  0  0  0  0  0
   11.1248  -17.2403   25.5288 O   0  0  0  0  0  0  0  0  0  0  0  0
    8.6329  -13.7420   27.8244 C   0  0  0  0  0  0  0  0  0  0  0  0
   10.1462  -13.7420   27.8213 C   0  0  1  0  0  0  0  0  0  0  0  0
   10.6343  -13.5363   29.2245 C   0  0  0  0  0  0  0  0  0  0  0  0
   10.5634  -15.0839   27.2730 C   0  0  2  0  0  0  0  0  0  0  0  0
    9.9142  -15.3766   26.0127 N   0  0  0  0  0  0  0  0  0  0  0  0
   10.1897  -16.1838   28.2280 C   0  0  0  0  0  0  0  0  0  0  0  0
   11.0922  -16.5707   29.1868 O   0  0  0  0  0  0  0  0  0  0  0  0
    9.0783  -16.7513   28.1684 O   0  0  0  0  0  0  0  0  0  0  0  0
  2  1  1  6
  3  2  1  0
  4  3  1  0
  4  5  1  0
  5  6  2  0
  7  2  1  0
  7  8  2  0
  9  5  1  0
 11 10  1  1
 11 12  1  0
 11 13  1  0
 13 14  1  6
 14  7  1  0
 15 21  1  0
 15 13  1  0
 16 15  2  0
 18 17  1  1
 18 20  1  0
 19 18  1  0
 20 21  1  6
 20 22  1  0
 22 23  1  0
 24 22  2  0
M  END
$$$$
