ETV.pdb
     RDKit          3D

 24 23  0  0  1  0  0  0  0  0999 V2000
   10.5449  -17.9231   19.0048 N   0  0  0  0  0  0  0  0  0  0  0  0
   10.8905  -17.5354   20.3864 C   0  0  1  0  0  0  0  0  0  0  0  0
   12.3436  -17.2231   20.3658 C   0  0  0  0  0  0  0  0  0  0  0  0
   13.1581  -18.4773   20.1907 C   0  0  0  0  0  0  0  0  0  0  0  0
   14.5865  -18.0706   20.3767 C   0  0  0  0  0  0  0  0  0  0  0  0
   15.4897  -18.9286   20.3187 O   0  0  0  0  0  0  0  0  0  0  0  0
    9.9993  -16.4379   20.7821 C   0  0  0  0  0  0  0  0  0  0  0  0
   10.0040  -15.3390   20.1202 O   0  0  0  0  0  0  0  0  0  0  0  0
   14.8679  -16.7442   20.6062 O   0  0  0  0  0  0  0  0  0  0  0  0
    6.5802  -16.3252   20.5660 C   0  0  0  0  0  0  0  0  0  0  0  0
    6.8143  -15.9375   22.0034 C   0  0  1  0  0  0  0  0  0  0  0  0
    6.6996  -17.1546   22.7249 O   0  0  0  0  0  0  0  0  0  0  0  0
    8.1909  -15.3897   22.2421 C   0  0  2  0  0  0  0  0  0  0  0  0
    9.1008  -16.4773   21.8609 N   0  0  0  0  0  0  0  0  0  0  0  0
    8.4542  -14.9212   23.5925 C   0  0  0  0  0  0  0  0  0  0  0  0
    9.5011  -15.4066   24.1714 O   0  0  0  0  0  0  0  0  0  0  0  0
    5.7173  -13.0627   26.1687 C   0  0  0  0  0  0  0  0  0  0  0  0
    7.0892  -12.4259   26.1159 C   0  0  1  0  0  0  0  0  0  0  0  0
    7.4332  -11.9011   27.4781 C   0  0  0  0  0  0  0  0  0  0  0  0
    8.0383  -13.5130   25.6769 C   0  0  2  0  0  0  0  0  0  0  0  0
    7.7182  -14.0062   24.3541 N   0  0  0  0  0  0  0  0  0  0  0  0
    7.9672  -14.6864   26.6148 C   0  0  0  0  0  0  0  0  0  0  0  0
    7.2645  -15.8025   26.2356 O   0  0  0  0  0  0  0  0  0  0  0  0
    8.5330  -14.6679   27.7285 O   0  0  0  0  0  0  0  0  0  0  0  0
  2  1  1  6
  3  2  1  0
  4  3  1  0
  4  5  1  0
  5  6  2  0
  7  2  1  0
  7  8  2  0
  9  5  1  0
 11 10  1  6
 11 12  1  0
 11 13  1  0
 13 14  1  1
 14  7  1  0
 15 21  1  0
 15 13  1  0
 16 15  2  0
 18 17  1  1
 18 20  1  0
 19 18  1  0
 20 21  1  6
 20 22  1  0
 22 23  1  0
 24 22  2  0
M  END
$$$$
