ETV.pdb
     RDKit          3D

 24 23  0  0  1  0  0  0  0  0999 V2000
   10.5411  -16.9705   19.4724 N   0  0  0  0  0  0  0  0  0  0  0  0
   10.7289  -17.2839   20.9024 C   0  0  1  0  0  0  0  0  0  0  0  0
   12.1119  -16.8498   21.2318 C   0  0  0  0  0  0  0  0  0  0  0  0
   13.0315  -17.0561   20.0575 C   0  0  0  0  0  0  0  0  0  0  0  0
   14.3847  -17.3280   20.6364 C   0  0  0  0  0  0  0  0  0  0  0  0
   14.8529  -18.4836   20.6063 O   0  0  0  0  0  0  0  0  0  0  0  0
    9.6502  -16.6285   21.6522 C   0  0  0  0  0  0  0  0  0  0  0  0
    9.0402  -15.6197   21.1463 O   0  0  0  0  0  0  0  0  0  0  0  0
   15.0855  -16.2821   21.1898 O   0  0  0  0  0  0  0  0  0  0  0  0
    6.0199  -17.1742   24.8769 C   0  0  0  0  0  0  0  0  0  0  0  0
    7.2532  -17.5898   24.1170 C   0  0  1  0  0  0  0  0  0  0  0  0
    6.7565  -18.2729   22.9759 O   0  0  0  0  0  0  0  0  0  0  0  0
    8.0629  -16.4212   23.6366 C   0  0  2  0  0  0  0  0  0  0  0  0
    9.2000  -17.0177   22.9243 N   0  0  0  0  0  0  0  0  0  0  0  0
    8.5037  -15.4970   24.6681 C   0  0  0  0  0  0  0  0  0  0  0  0
    9.6642  -15.7286   25.1844 O   0  0  0  0  0  0  0  0  0  0  0  0
    7.8949  -11.5225   25.0175 C   0  0  0  0  0  0  0  0  0  0  0  0
    7.5110  -12.2272   26.3006 C   0  0  1  0  0  0  0  0  0  0  0  0
    6.0231  -12.4149   26.3245 C   0  0  0  0  0  0  0  0  0  0  0  0
    8.2430  -13.5460   26.2887 C   0  0  2  0  0  0  0  0  0  0  0  0
    7.8323  -14.3805   25.1795 N   0  0  0  0  0  0  0  0  0  0  0  0
    7.9624  -14.3171   27.5490 C   0  0  0  0  0  0  0  0  0  0  0  0
    7.1676  -15.4340   27.4852 O   0  0  0  0  0  0  0  0  0  0  0  0
    8.4363  -13.9645   28.6498 O   0  0  0  0  0  0  0  0  0  0  0  0
  2  1  1  6
  3  2  1  0
  4  3  1  0
  4  5  1  0
  5  6  2  0
  7  2  1  0
  7  8  2  0
  9  5  1  0
 11 10  1  1
 11 12  1  0
 11 13  1  0
 13 14  1  1
 14  7  1  0
 15 21  1  0
 15 13  1  0
 16 15  2  0
 18 17  1  6
 18 20  1  0
 19 18  1  0
 20 21  1  6
 20 22  1  0
 22 23  1  0
 24 22  2  0
M  END
$$$$
