ETV.pdb
     RDKit          3D

 24 23  0  0  1  0  0  0  0  0999 V2000
    8.7715  -20.3190   20.6869 N   0  0  0  0  0  0  0  0  0  0  0  0
    9.0423  -18.8696   20.7534 C   0  0  1  0  0  0  0  0  0  0  0  0
    9.0555  -18.3971   19.3442 C   0  0  0  0  0  0  0  0  0  0  0  0
   10.4561  -18.4005   18.7916 C   0  0  0  0  0  0  0  0  0  0  0  0
   10.3327  -18.0063   17.3529 C   0  0  0  0  0  0  0  0  0  0  0  0
    9.6203  -18.6804   16.5826 O   0  0  0  0  0  0  0  0  0  0  0  0
    8.0321  -18.2627   21.6290 C   0  0  0  0  0  0  0  0  0  0  0  0
    6.7897  -18.5301   21.4544 O   0  0  0  0  0  0  0  0  0  0  0  0
   11.0144  -16.8952   16.9149 O   0  0  0  0  0  0  0  0  0  0  0  0
    6.2265  -19.1205   23.3757 C   0  0  0  0  0  0  0  0  0  0  0  0
    6.7919  -18.1063   24.3363 C   0  0  1  0  0  0  0  0  0  0  0  0
    7.8918  -18.7655   24.9453 O   0  0  0  0  0  0  0  0  0  0  0  0
    7.3152  -16.8800   23.6475 C   0  0  2  0  0  0  0  0  0  0  0  0
    8.3066  -17.3811   22.6872 N   0  0  0  0  0  0  0  0  0  0  0  0
    7.8813  -15.8641   24.5192 C   0  0  0  0  0  0  0  0  0  0  0  0
    9.1661  -15.7399   24.4921 O   0  0  0  0  0  0  0  0  0  0  0  0
    7.4571  -11.8306   27.3477 C   0  0  0  0  0  0  0  0  0  0  0  0
    6.7357  -12.8852   26.5368 C   0  0  1  0  0  0  0  0  0  0  0  0
    6.0987  -12.2308   25.3470 C   0  0  0  0  0  0  0  0  0  0  0  0
    7.7844  -13.8902   26.1301 C   0  0  2  0  0  0  0  0  0  0  0  0
    7.2135  -14.9957   25.3902 N   0  0  0  0  0  0  0  0  0  0  0  0
    8.4573  -14.4714   27.3430 C   0  0  0  0  0  0  0  0  0  0  0  0
    9.4131  -13.7329   27.9945 O   0  0  0  0  0  0  0  0  0  0  0  0
    8.1656  -15.6087   27.7700 O   0  0  0  0  0  0  0  0  0  0  0  0
  2  1  1  6
  3  2  1  0
  4  3  1  0
  4  5  1  0
  5  6  2  0
  7  2  1  0
  7  8  2  0
  9  5  1  0
 11 10  1  6
 11 12  1  0
 11 13  1  0
 13 14  1  6
 14  7  1  0
 15 21  1  0
 15 13  1  0
 16 15  2  0
 18 17  1  1
 18 20  1  0
 19 18  1  0
 20 21  1  1
 20 22  1  0
 22 23  1  0
 24 22  2  0
M  END
$$$$
