HTG.pdb
     RDKit          3D

 22 22  0  0  1  0  0  0  0  0999 V2000
   22.0849  -10.5585  -15.5584 N   0  0  0  0  0  0  0  0  0  0  0  0
   22.1232   -9.3378  -16.3350 C   0  0  1  0  0  0  0  0  0  0  0  0
   21.4976   -9.5277  -17.7009 C   0  0  0  0  0  0  0  0  0  0  0  0
   22.1384  -10.6228  -18.4547 C   0  0  0  0  0  0  0  0  0  0  0  0
   21.4966  -11.3737  -19.4047 C   0  0  0  0  0  0  0  0  0  0  0  0
   22.3897  -12.2670  -19.8712 N   0  0  0  0  0  0  0  0  0  0  0  0
   23.5654  -12.1087  -19.2542 C   0  0  0  0  0  0  0  0  0  0  0  0
   23.3951  -11.0938  -18.3860 N   0  0  0  0  0  0  0  0  0  0  0  0
   21.4340   -8.2824  -15.5695 C   0  0  0  0  0  0  0  0  0  0  0  0
   20.4454   -8.5796  -14.8629 O   0  0  0  0  0  0  0  0  0  0  0  0
   21.7347   -3.7607  -13.5975 C   0  0  0  0  0  0  0  0  0  0  0  0
   22.3269   -4.9818  -14.2571 C   0  0  1  0  0  0  0  0  0  0  0  0
   23.0747   -5.7545  -13.3842 O   0  0  0  0  0  0  0  0  0  0  0  0
   21.2730   -5.8435  -14.9173 C   0  0  2  0  0  0  0  0  0  0  0  0
   21.9025   -6.9488  -15.6466 N   0  0  0  0  0  0  0  0  0  0  0  0
   20.3949   -5.0683  -15.8372 C   0  0  0  0  0  0  0  0  0  0  0  0
   20.7951   -4.7745  -17.0182 O   0  0  0  0  0  0  0  0  0  0  0  0
   19.0979   -4.6041  -15.5148 N   0  0  0  0  0  0  0  0  0  0  0  0
   18.3157   -3.8033  -16.4722 C   0  0  0  0  0  0  0  0  0  0  0  0
   17.0835   -4.4751  -16.8651 C   0  0  0  0  0  0  0  0  0  0  0  0
   16.1436   -3.8199  -17.6293 O   0  0  0  0  0  0  0  0  0  0  0  0
   16.8671   -5.6525  -16.5126 O   0  0  0  0  0  0  0  0  0  0  0  0
  2  1  1  1
  2  9  1  0
  3  2  1  0
  3  4  1  0
  4  5  2  0
  5  6  1  0
  7  6  1  0
  8  4  1  0
  8  7  2  0
  9 10  2  0
 12 11  1  1
 12 13  1  0
 12 14  1  0
 14 16  1  0
 14 15  1  6
 15  9  1  0
 16 17  2  0
 16 18  1  0
 18 19  1  0
 19 20  1  0
 20 22  2  0
 20 21  1  0
M  END
$$$$
