HTG.pdb
     RDKit          3D

 22 22  0  0  1  0  0  0  0  0999 V2000
   20.5009  -13.4211  -16.8335 N   0  0  0  0  0  0  0  0  0  0  0  0
   19.7981  -12.1706  -16.6411 C   0  0  1  0  0  0  0  0  0  0  0  0
   18.8399  -12.2454  -15.4708 C   0  0  0  0  0  0  0  0  0  0  0  0
   17.8232  -13.2989  -15.6556 C   0  0  0  0  0  0  0  0  0  0  0  0
   16.7877  -13.2126  -16.5493 C   0  0  0  0  0  0  0  0  0  0  0  0
   16.0741  -14.3490  -16.4375 N   0  0  0  0  0  0  0  0  0  0  0  0
   16.6178  -15.1455  -15.5112 C   0  0  0  0  0  0  0  0  0  0  0  0
   17.6927  -14.4860  -15.0394 N   0  0  0  0  0  0  0  0  0  0  0  0
   20.7984  -11.1040  -16.4502 C   0  0  0  0  0  0  0  0  0  0  0  0
   21.8011  -11.3206  -15.7342 O   0  0  0  0  0  0  0  0  0  0  0  0
   22.5090   -9.2260  -19.2648 C   0  0  0  0  0  0  0  0  0  0  0  0
   21.8821   -8.1981  -18.3552 C   0  0  1  0  0  0  0  0  0  0  0  0
   20.7334   -7.6379  -18.8888 O   0  0  0  0  0  0  0  0  0  0  0  0
   21.5797   -8.7574  -16.9823 C   0  0  2  0  0  0  0  0  0  0  0  0
   20.6078   -9.8509  -17.0807 N   0  0  0  0  0  0  0  0  0  0  0  0
   21.0764   -7.7193  -16.0404 C   0  0  0  0  0  0  0  0  0  0  0  0
   19.8231   -7.6240  -15.7929 O   0  0  0  0  0  0  0  0  0  0  0  0
   21.8911   -6.7842  -15.3596 N   0  0  0  0  0  0  0  0  0  0  0  0
   21.3143   -5.8304  -14.3965 C   0  0  0  0  0  0  0  0  0  0  0  0
   22.3129   -4.8983  -13.8888 C   0  0  0  0  0  0  0  0  0  0  0  0
   21.9341   -3.8144  -13.1283 O   0  0  0  0  0  0  0  0  0  0  0  0
   23.5232   -5.0730  -14.1382 O   0  0  0  0  0  0  0  0  0  0  0  0
  2  1  1  1
  2  9  1  0
  3  2  1  0
  3  4  1  0
  4  5  2  0
  5  6  1  0
  7  6  1  0
  8  4  1  0
  8  7  2  0
  9 10  2  0
 12 11  1  6
 12 13  1  0
 12 14  1  0
 14 16  1  0
 14 15  1  6
 15  9  1  0
 16 17  2  0
 16 18  1  0
 18 19  1  0
 19 20  1  0
 20 22  2  0
 20 21  1  0
M  END
$$$$
