HTG.pdb
     RDKit          3D

 22 22  0  0  1  0  0  0  0  0999 V2000
   19.7404  -12.3380  -16.7025 N   0  0  0  0  0  0  0  0  0  0  0  0
   19.2631  -10.9950  -16.4506 C   0  0  1  0  0  0  0  0  0  0  0  0
   18.0985  -10.9911  -15.4827 C   0  0  0  0  0  0  0  0  0  0  0  0
   16.9259  -11.7034  -16.0263 C   0  0  0  0  0  0  0  0  0  0  0  0
   15.9756  -11.1158  -16.8199 C   0  0  0  0  0  0  0  0  0  0  0  0
   15.0691  -12.0655  -17.1192 N   0  0  0  0  0  0  0  0  0  0  0  0
   15.4101  -13.2249  -16.5469 C   0  0  0  0  0  0  0  0  0  0  0  0
   16.5541  -12.9862  -15.8782 N   0  0  0  0  0  0  0  0  0  0  0  0
   20.3904  -10.1933  -15.9394 C   0  0  0  0  0  0  0  0  0  0  0  0
   21.0870  -10.6381  -15.0003 O   0  0  0  0  0  0  0  0  0  0  0  0
   23.4704   -9.4277  -17.4255 C   0  0  0  0  0  0  0  0  0  0  0  0
   22.8542   -8.0703  -17.1918 C   0  0  1  0  0  0  0  0  0  0  0  0
   22.3162   -7.5192  -18.3429 O   0  0  0  0  0  0  0  0  0  0  0  0
   21.8004   -8.0996  -16.1065 C   0  0  2  0  0  0  0  0  0  0  0  0
   20.6664   -8.9320  -16.5200 N   0  0  0  0  0  0  0  0  0  0  0  0
   21.3191   -6.7384  -15.7404 C   0  0  0  0  0  0  0  0  0  0  0  0
   20.3390   -6.2078  -16.3720 O   0  0  0  0  0  0  0  0  0  0  0  0
   21.8679   -5.9381  -14.7109 N   0  0  0  0  0  0  0  0  0  0  0  0
   21.3257   -4.6009  -14.4147 C   0  0  0  0  0  0  0  0  0  0  0  0
   21.9963   -3.9808  -13.2790 C   0  0  0  0  0  0  0  0  0  0  0  0
   21.7406   -2.6687  -12.9478 O   0  0  0  0  0  0  0  0  0  0  0  0
   22.8102   -4.6334  -12.5939 O   0  0  0  0  0  0  0  0  0  0  0  0
  2  1  1  1
  2  9  1  0
  3  2  1  0
  3  4  1  0
  4  5  2  0
  5  6  1  0
  7  6  1  0
  8  4  1  0
  8  7  2  0
  9 10  2  0
 12 11  1  6
 12 13  1  0
 12 14  1  0
 14 16  1  0
 14 15  1  6
 15  9  1  0
 16 17  2  0
 16 18  1  0
 18 19  1  0
 19 20  1  0
 20 22  2  0
 20 21  1  0
M  END
$$$$
