HTG.pdb
     RDKit          3D

 22 22  0  0  1  0  0  0  0  0999 V2000
   20.4837  -12.3417  -16.5445 N   0  0  0  0  0  0  0  0  0  0  0  0
   19.7963  -11.0986  -16.2669 C   0  0  1  0  0  0  0  0  0  0  0  0
   18.6689  -11.2960  -15.2752 C   0  0  0  0  0  0  0  0  0  0  0  0
   17.6515  -12.2404  -15.7760 C   0  0  0  0  0  0  0  0  0  0  0  0
   16.9630  -12.0701  -16.9488 C   0  0  0  0  0  0  0  0  0  0  0  0
   16.1298  -13.1207  -17.0733 N   0  0  0  0  0  0  0  0  0  0  0  0
   16.2661  -13.9435  -16.0282 C   0  0  0  0  0  0  0  0  0  0  0  0
   17.2055  -13.3887  -15.2391 N   0  0  0  0  0  0  0  0  0  0  0  0
   20.7861  -10.1252  -15.7696 C   0  0  0  0  0  0  0  0  0  0  0  0
   21.4196  -10.3724  -14.7195 O   0  0  0  0  0  0  0  0  0  0  0  0
   23.6958   -8.8905  -17.6805 C   0  0  0  0  0  0  0  0  0  0  0  0
   22.9533   -7.6535  -17.2385 C   0  0  1  0  0  0  0  0  0  0  0  0
   22.2593   -7.0457  -18.2715 O   0  0  0  0  0  0  0  0  0  0  0  0
   22.0074   -7.9332  -16.0913 C   0  0  2  0  0  0  0  0  0  0  0  0
   21.0039   -8.9256  -16.4890 N   0  0  0  0  0  0  0  0  0  0  0  0
   21.3300   -6.7027  -15.5960 C   0  0  0  0  0  0  0  0  0  0  0  0
   20.1803   -6.3695  -16.0522 O   0  0  0  0  0  0  0  0  0  0  0  0
   21.8617   -5.8253  -14.6217 N   0  0  0  0  0  0  0  0  0  0  0  0
   21.1042   -4.6487  -14.1618 C   0  0  0  0  0  0  0  0  0  0  0  0
   21.8727   -3.8382  -13.2257 C   0  0  0  0  0  0  0  0  0  0  0  0
   21.3741   -2.6393  -12.7666 O   0  0  0  0  0  0  0  0  0  0  0  0
   22.9921   -4.2227  -12.8299 O   0  0  0  0  0  0  0  0  0  0  0  0
  2  1  1  1
  2  9  1  0
  3  2  1  0
  3  4  1  0
  4  5  2  0
  5  6  1  0
  7  6  1  0
  8  4  1  0
  8  7  2  0
  9 10  2  0
 12 11  1  6
 12 13  1  0
 12 14  1  0
 14 16  1  0
 14 15  1  6
 15  9  1  0
 16 17  2  0
 16 18  1  0
 18 19  1  0
 19 20  1  0
 20 22  2  0
 20 21  1  0
M  END
$$$$
