HTG.pdb
     RDKit          3D

 22 22  0  0  1  0  0  0  0  0999 V2000
   18.0708  -11.0357  -17.0079 N   0  0  0  0  0  0  0  0  0  0  0  0
   19.0835  -10.0723  -17.3836 C   0  0  1  0  0  0  0  0  0  0  0  0
   18.7503   -9.3996  -18.6989 C   0  0  0  0  0  0  0  0  0  0  0  0
   18.7088  -10.3621  -19.8168 C   0  0  0  0  0  0  0  0  0  0  0  0
   17.5725  -10.6682  -20.5193 C   0  0  0  0  0  0  0  0  0  0  0  0
   17.9181  -11.5746  -21.4532 N   0  0  0  0  0  0  0  0  0  0  0  0
   19.2236  -11.8507  -21.3668 C   0  0  0  0  0  0  0  0  0  0  0  0
   19.6961  -11.0973  -20.3559 N   0  0  0  0  0  0  0  0  0  0  0  0
   19.2109   -9.0880  -16.2930 C   0  0  0  0  0  0  0  0  0  0  0  0
   18.2143   -8.8187  -15.5864 O   0  0  0  0  0  0  0  0  0  0  0  0
   22.1744   -6.9189  -13.0501 C   0  0  0  0  0  0  0  0  0  0  0  0
   21.8584   -7.9239  -14.1303 C   0  0  1  0  0  0  0  0  0  0  0  0
   21.6368   -9.1969  -13.6316 O   0  0  0  0  0  0  0  0  0  0  0  0
   20.6780   -7.5015  -14.9773 C   0  0  2  0  0  0  0  0  0  0  0  0
   20.4601   -8.4629  -16.0628 N   0  0  0  0  0  0  0  0  0  0  0  0
   20.8402   -6.1328  -15.5418 C   0  0  0  0  0  0  0  0  0  0  0  0
   21.6152   -5.9337  -16.5422 O   0  0  0  0  0  0  0  0  0  0  0  0
   20.1870   -4.9762  -15.0545 N   0  0  0  0  0  0  0  0  0  0  0  0
   20.4393   -3.6520  -15.6480 C   0  0  0  0  0  0  0  0  0  0  0  0
   19.6289   -2.6129  -15.0255 C   0  0  0  0  0  0  0  0  0  0  0  0
   19.8043   -1.2907  -15.3683 O   0  0  0  0  0  0  0  0  0  0  0  0
   18.7665   -2.9111  -14.1741 O   0  0  0  0  0  0  0  0  0  0  0  0
  2  1  1  1
  2  9  1  0
  3  2  1  0
  3  4  1  0
  4  5  2  0
  5  6  1  0
  7  6  1  0
  8  4  1  0
  8  7  2  0
  9 10  2  0
 12 11  1  1
 12 13  1  0
 12 14  1  0
 14 16  1  0
 14 15  1  6
 15  9  1  0
 16 17  2  0
 16 18  1  0
 18 19  1  0
 19 20  1  0
 20 22  2  0
 20 21  1  0
M  END
$$$$
