HTG.pdb
     RDKit          3D

 22 22  0  0  1  0  0  0  0  0999 V2000
   19.2672  -13.3914  -16.2495 N   0  0  0  0  0  0  0  0  0  0  0  0
   18.7750  -12.0357  -16.1284 C   0  0  1  0  0  0  0  0  0  0  0  0
   17.9351  -11.8584  -14.8808 C   0  0  0  0  0  0  0  0  0  0  0  0
   16.7112  -12.6822  -14.9171 C   0  0  0  0  0  0  0  0  0  0  0  0
   15.5919  -12.3559  -15.6376 C   0  0  0  0  0  0  0  0  0  0  0  0
   14.6894  -13.3332  -15.4289 N   0  0  0  0  0  0  0  0  0  0  0  0
   15.1948  -14.2596  -14.6076 C   0  0  0  0  0  0  0  0  0  0  0  0
   16.4387  -13.8452  -14.3015 N   0  0  0  0  0  0  0  0  0  0  0  0
   19.9330  -11.1226  -16.1316 C   0  0  0  0  0  0  0  0  0  0  0  0
   20.9888  -11.4644  -15.5542 O   0  0  0  0  0  0  0  0  0  0  0  0
   22.1077   -7.2788  -18.3684 C   0  0  0  0  0  0  0  0  0  0  0  0
   20.9590   -8.2469  -18.2256 C   0  0  1  0  0  0  0  0  0  0  0  0
   20.9358   -9.2043  -19.2262 O   0  0  0  0  0  0  0  0  0  0  0  0
   20.9498   -8.9286  -16.8750 C   0  0  2  0  0  0  0  0  0  0  0  0
   19.8313   -9.8728  -16.7887 N   0  0  0  0  0  0  0  0  0  0  0  0
   20.8791   -7.9596  -15.7461 C   0  0  0  0  0  0  0  0  0  0  0  0
   19.7919   -7.3266  -15.5047 O   0  0  0  0  0  0  0  0  0  0  0  0
   21.9506   -7.6584  -14.8727 N   0  0  0  0  0  0  0  0  0  0  0  0
   21.7883   -6.6919  -13.7730 C   0  0  0  0  0  0  0  0  0  0  0  0
   22.1639   -5.3422  -14.1744 C   0  0  0  0  0  0  0  0  0  0  0  0
   22.0349   -4.2903  -13.2949 O   0  0  0  0  0  0  0  0  0  0  0  0
   22.6071   -5.1255  -15.3207 O   0  0  0  0  0  0  0  0  0  0  0  0
  2  1  1  1
  2  9  1  0
  3  2  1  0
  3  4  1  0
  4  5  2  0
  5  6  1  0
  7  6  1  0
  8  4  1  0
  8  7  2  0
  9 10  2  0
 12 11  1  6
 12 13  1  0
 12 14  1  0
 14 16  1  0
 14 15  1  6
 15  9  1  0
 16 17  2  0
 16 18  1  0
 18 19  1  0
 19 20  1  0
 20 22  2  0
 20 21  1  0
M  END
$$$$
