HTG.pdb
     RDKit          3D

 22 22  0  0  1  0  0  0  0  0999 V2000
   27.7176  -19.8849  -15.9357 N   0  0  0  0  0  0  0  0  0  0  0  0
   26.5546  -20.7366  -16.0653 C   0  0  1  0  0  0  0  0  0  0  0  0
   26.7862  -22.0938  -15.4347 C   0  0  0  0  0  0  0  0  0  0  0  0
   27.9695  -22.7709  -15.9996 C   0  0  0  0  0  0  0  0  0  0  0  0
   28.7537  -22.2388  -16.9897 C   0  0  0  0  0  0  0  0  0  0  0  0
   29.7285  -23.1323  -17.2441 N   0  0  0  0  0  0  0  0  0  0  0  0
   29.5894  -24.2032  -16.4554 C   0  0  0  0  0  0  0  0  0  0  0  0
   28.5034  -23.9660  -15.6958 N   0  0  0  0  0  0  0  0  0  0  0  0
   25.4063  -20.0460  -15.4494 C   0  0  0  0  0  0  0  0  0  0  0  0
   25.5385  -19.5126  -14.3256 O   0  0  0  0  0  0  0  0  0  0  0  0
   23.8965  -17.0341  -16.3011 C   0  0  0  0  0  0  0  0  0  0  0  0
   22.7622  -18.0206  -16.4316 C   0  0  1  0  0  0  0  0  0  0  0  0
   22.4938  -18.3596  -17.7474 O   0  0  0  0  0  0  0  0  0  0  0  0
   23.0022  -19.2784  -15.6256 C   0  0  2  0  0  0  0  0  0  0  0  0
   24.1717  -19.9977  -16.1404 N   0  0  0  0  0  0  0  0  0  0  0  0
   21.8195  -20.1835  -15.6131 C   0  0  0  0  0  0  0  0  0  0  0  0
   21.8356  -21.2776  -16.2793 O   0  0  0  0  0  0  0  0  0  0  0  0
   20.6226  -19.9377  -14.8997 N   0  0  0  0  0  0  0  0  0  0  0  0
   19.5341  -20.9297  -14.8737 C   0  0  0  0  0  0  0  0  0  0  0  0
   18.3470  -20.4179  -14.2006 C   0  0  0  0  0  0  0  0  0  0  0  0
   17.1944  -21.1699  -14.1486 O   0  0  0  0  0  0  0  0  0  0  0  0
   18.3629  -19.2914  -13.6638 O   0  0  0  0  0  0  0  0  0  0  0  0
  2  1  1  1
  2  9  1  0
  3  2  1  0
  3  4  1  0
  4  5  2  0
  5  6  1  0
  7  6  1  0
  8  4  1  0
  8  7  2  0
  9 10  2  0
 12 11  1  6
 12 13  1  0
 12 14  1  0
 14 16  1  0
 14 15  1  6
 15  9  1  0
 16 17  2  0
 16 18  1  0
 18 19  1  0
 19 20  1  0
 20 22  2  0
 20 21  1  0
M  END
$$$$
