HTG.pdb
     RDKit          3D

 22 22  0  0  1  0  0  0  0  0999 V2000
   20.9872  -12.6835  -16.9006 N   0  0  0  0  0  0  0  0  0  0  0  0
   22.0401  -12.0932  -17.6993 C   0  0  1  0  0  0  0  0  0  0  0  0
   21.9866  -12.5753  -19.1339 C   0  0  0  0  0  0  0  0  0  0  0  0
   22.1442  -14.0394  -19.2309 C   0  0  0  0  0  0  0  0  0  0  0  0
   21.3769  -14.9379  -18.5364 C   0  0  0  0  0  0  0  0  0  0  0  0
   21.8053  -16.1684  -18.8763 N   0  0  0  0  0  0  0  0  0  0  0  0
   22.8093  -16.0806  -19.7551 C   0  0  0  0  0  0  0  0  0  0  0  0
   23.0061  -14.7650  -19.9633 N   0  0  0  0  0  0  0  0  0  0  0  0
   21.9121  -10.6262  -17.6195 C   0  0  0  0  0  0  0  0  0  0  0  0
   22.5349   -9.9082  -18.4330 O   0  0  0  0  0  0  0  0  0  0  0  0
   18.9721   -8.7059  -18.2188 C   0  0  0  0  0  0  0  0  0  0  0  0
   19.3727   -8.3191  -16.8163 C   0  0  1  0  0  0  0  0  0  0  0  0
   18.5865   -8.9207  -15.8478 O   0  0  0  0  0  0  0  0  0  0  0  0
   20.8304   -8.6122  -16.5363 C   0  0  2  0  0  0  0  0  0  0  0  0
   21.0859  -10.0534  -16.6228 N   0  0  0  0  0  0  0  0  0  0  0  0
   21.2712   -8.1013  -15.2085 C   0  0  0  0  0  0  0  0  0  0  0  0
   21.3577   -8.8951  -14.2067 O   0  0  0  0  0  0  0  0  0  0  0  0
   21.6212   -6.7578  -14.9362 N   0  0  0  0  0  0  0  0  0  0  0  0
   22.0725   -6.3448  -13.5963 C   0  0  0  0  0  0  0  0  0  0  0  0
   22.4356   -4.9340  -13.5549 C   0  0  0  0  0  0  0  0  0  0  0  0
   22.8001   -4.3409  -12.3666 O   0  0  0  0  0  0  0  0  0  0  0  0
   22.4198   -4.2478  -14.5972 O   0  0  0  0  0  0  0  0  0  0  0  0
  2  1  1  1
  2  9  1  0
  3  2  1  0
  3  4  1  0
  4  5  2  0
  5  6  1  0
  7  6  1  0
  8  4  1  0
  8  7  2  0
  9 10  2  0
 12 11  1  6
 12 13  1  0
 12 14  1  0
 14 16  1  0
 14 15  1  1
 15  9  1  0
 16 17  2  0
 16 18  1  0
 18 19  1  0
 19 20  1  0
 20 22  2  0
 20 21  1  0
M  END
$$$$
