HTG.pdb
     RDKit          3D

 22 22  0  0  1  0  0  0  0  0999 V2000
   29.8137  -29.3500  -17.1337 N   0  0  0  0  0  0  0  0  0  0  0  0
   28.4230  -29.0298  -16.8922 C   0  0  1  0  0  0  0  0  0  0  0  0
   27.8750  -29.7926  -15.7043 C   0  0  0  0  0  0  0  0  0  0  0  0
   27.8682  -31.2496  -15.9386 C   0  0  0  0  0  0  0  0  0  0  0  0
   28.8524  -32.0979  -15.5025 C   0  0  0  0  0  0  0  0  0  0  0  0
   28.5081  -33.3382  -15.8981 N   0  0  0  0  0  0  0  0  0  0  0  0
   27.3493  -33.3046  -16.5643 C   0  0  0  0  0  0  0  0  0  0  0  0
   26.9682  -32.0133  -16.5809 N   0  0  0  0  0  0  0  0  0  0  0  0
   28.3130  -27.5728  -16.6933 C   0  0  0  0  0  0  0  0  0  0  0  0
   29.2265  -26.9617  -16.0957 O   0  0  0  0  0  0  0  0  0  0  0  0
   28.3763  -24.9347  -19.0790 C   0  0  0  0  0  0  0  0  0  0  0  0
   27.0380  -24.7726  -18.4011 C   0  0  1  0  0  0  0  0  0  0  0  0
   25.9853  -25.2361  -19.1727 O   0  0  0  0  0  0  0  0  0  0  0  0
   26.9999  -25.4390  -17.0433 C   0  0  2  0  0  0  0  0  0  0  0  0
   27.1744  -26.8882  -17.1822 N   0  0  0  0  0  0  0  0  0  0  0  0
   25.7409  -25.1521  -16.3010 C   0  0  0  0  0  0  0  0  0  0  0  0
   24.8935  -26.0870  -16.0797 O   0  0  0  0  0  0  0  0  0  0  0  0
   25.3753  -23.8837  -15.7919 N   0  0  0  0  0  0  0  0  0  0  0  0
   24.0912  -23.6824  -15.0988 C   0  0  0  0  0  0  0  0  0  0  0  0
   23.9490  -22.3202  -14.6007 C   0  0  0  0  0  0  0  0  0  0  0  0
   22.8038  -21.9335  -13.9408 O   0  0  0  0  0  0  0  0  0  0  0  0
   24.8649  -21.4889  -14.7673 O   0  0  0  0  0  0  0  0  0  0  0  0
  2  1  1  1
  2  9  1  0
  3  2  1  0
  3  4  1  0
  4  5  2  0
  5  6  1  0
  7  6  1  0
  8  4  1  0
  8  7  2  0
  9 10  2  0
 12 11  1  6
 12 13  1  0
 12 14  1  0
 14 16  1  0
 14 15  1  6
 15  9  1  0
 16 17  2  0
 16 18  1  0
 18 19  1  0
 19 20  1  0
 20 22  2  0
 20 21  1  0
M  END
$$$$
