HTG.pdb
     RDKit          3D

 22 22  0  0  1  0  0  0  0  0999 V2000
   22.0891  -12.5357  -17.4986 N   0  0  0  0  0  0  0  0  0  0  0  0
   22.6667  -11.7299  -16.4442 C   0  0  1  0  0  0  0  0  0  0  0  0
   24.1795  -11.7258  -16.5127 C   0  0  0  0  0  0  0  0  0  0  0  0
   24.7389  -13.0902  -16.4557 C   0  0  0  0  0  0  0  0  0  0  0  0
   25.1197  -13.7116  -15.2950 C   0  0  0  0  0  0  0  0  0  0  0  0
   25.5769  -14.9324  -15.6326 N   0  0  0  0  0  0  0  0  0  0  0  0
   25.4993  -15.1038  -16.9565 C   0  0  0  0  0  0  0  0  0  0  0  0
   24.9820  -13.9623  -17.4487 N   0  0  0  0  0  0  0  0  0  0  0  0
   22.1194  -10.3649  -16.5545 C   0  0  0  0  0  0  0  0  0  0  0  0
   22.1520   -9.7752  -17.6573 O   0  0  0  0  0  0  0  0  0  0  0  0
   18.6821   -9.4778  -16.1871 C   0  0  0  0  0  0  0  0  0  0  0  0
   19.3935   -8.6513  -15.1441 C   0  0  1  0  0  0  0  0  0  0  0  0
   19.2669   -9.1728  -13.8673 O   0  0  0  0  0  0  0  0  0  0  0  0
   20.8590   -8.4597  -15.4677 C   0  0  2  0  0  0  0  0  0  0  0  0
   21.5654   -9.7432  -15.4097 N   0  0  0  0  0  0  0  0  0  0  0  0
   21.5207   -7.4792  -14.5627 C   0  0  0  0  0  0  0  0  0  0  0  0
   22.2396   -7.8861  -13.5836 O   0  0  0  0  0  0  0  0  0  0  0  0
   21.4264   -6.0732  -14.6888 N   0  0  0  0  0  0  0  0  0  0  0  0
   22.0786   -5.1761  -13.7195 C   0  0  0  0  0  0  0  0  0  0  0  0
   21.8585   -3.7722  -14.0432 C   0  0  0  0  0  0  0  0  0  0  0  0
   22.3456   -2.7808  -13.2208 O   0  0  0  0  0  0  0  0  0  0  0  0
   21.2255   -3.4537  -15.0706 O   0  0  0  0  0  0  0  0  0  0  0  0
  2  1  1  6
  2  9  1  0
  3  2  1  0
  3  4  1  0
  4  5  2  0
  5  6  1  0
  7  6  1  0
  8  4  1  0
  8  7  2  0
  9 10  2  0
 12 11  1  6
 12 13  1  0
 12 14  1  0
 14 16  1  0
 14 15  1  1
 15  9  1  0
 16 17  2  0
 16 18  1  0
 18 19  1  0
 19 20  1  0
 20 22  2  0
 20 21  1  0
M  END
$$$$
