HTG.pdb
     RDKit          3D

 22 22  0  0  1  0  0  0  0  0999 V2000
   19.8889  -12.6552  -18.5615 N   0  0  0  0  0  0  0  0  0  0  0  0
   20.9607  -11.8559  -18.0072 C   0  0  1  0  0  0  0  0  0  0  0  0
   22.1406  -11.7751  -18.9531 C   0  0  0  0  0  0  0  0  0  0  0  0
   22.7924  -13.0864  -19.1364 C   0  0  0  0  0  0  0  0  0  0  0  0
   24.0421  -13.3909  -18.6633 C   0  0  0  0  0  0  0  0  0  0  0  0
   24.2990  -14.6642  -19.0180 N   0  0  0  0  0  0  0  0  0  0  0  0
   23.2632  -15.1723  -19.6940 C   0  0  0  0  0  0  0  0  0  0  0  0
   22.3446  -14.1900  -19.7587 N   0  0  0  0  0  0  0  0  0  0  0  0
   20.4254  -10.5167  -17.6992 C   0  0  0  0  0  0  0  0  0  0  0  0
   19.9725   -9.8064  -18.6240 O   0  0  0  0  0  0  0  0  0  0  0  0
   18.0256   -7.6356  -14.7009 C   0  0  0  0  0  0  0  0  0  0  0  0
   18.6319   -8.9487  -15.1313 C   0  0  1  0  0  0  0  0  0  0  0  0
   17.7375   -9.7546  -15.8161 O   0  0  0  0  0  0  0  0  0  0  0  0
   19.8792   -8.7568  -15.9659 C   0  0  2  0  0  0  0  0  0  0  0  0
   20.4326  -10.0560  -16.3606 N   0  0  0  0  0  0  0  0  0  0  0  0
   20.9208   -7.9585  -15.2617 C   0  0  0  0  0  0  0  0  0  0  0  0
   21.5656   -8.4630  -14.2764 O   0  0  0  0  0  0  0  0  0  0  0  0
   21.2836   -6.6322  -15.5949 N   0  0  0  0  0  0  0  0  0  0  0  0
   22.3341   -5.9194  -14.8478 C   0  0  0  0  0  0  0  0  0  0  0  0
   21.8333   -5.3700  -13.5943 C   0  0  0  0  0  0  0  0  0  0  0  0
   20.5123   -5.5305  -13.2394 O   0  0  0  0  0  0  0  0  0  0  0  0
   22.5974   -4.7477  -12.8286 O   0  0  0  0  0  0  0  0  0  0  0  0
  2  1  1  6
  2  9  1  0
  3  2  1  0
  3  4  1  0
  4  5  2  0
  5  6  1  0
  7  6  1  0
  8  4  1  0
  8  7  2  0
  9 10  2  0
 12 11  1  6
 12 13  1  0
 12 14  1  0
 14 16  1  0
 14 15  1  1
 15  9  1  0
 16 17  2  0
 16 18  1  0
 18 19  1  0
 19 20  1  0
 20 22  2  0
 20 21  1  0
M  END
$$$$
