NWW.pdb
     RDKit          3D

 37 40  0  0  1  0  0  0  0  0999 V2000
   12.5379  -17.6211   17.5462 N   0  0  0  0  0  0  0  0  0  0  0  0
   11.1758  -17.6061   17.1640 C   0  0  0  0  0  0  0  0  0  0  0  0
   10.7051  -18.4984   16.4280 O   0  0  0  0  0  0  0  0  0  0  0  0
   10.3038  -16.5156   17.6433 C   0  0  0  0  0  0  0  0  0  0  0  0
    9.2440  -17.1576   18.5211 C   0  0  2  0  0  0  0  0  0  0  0  0
    7.9568  -16.8292   17.9344 N   0  0  0  0  0  0  0  0  0  0  0  0
    9.2785  -16.6147   19.8987 C   0  0  0  0  0  0  0  0  0  0  0  0
    9.8536  -15.5293   20.1430 O   0  0  0  0  0  0  0  0  0  0  0  0
    8.6348  -17.3777   20.9092 N   0  0  0  0  0  0  0  0  0  0  0  0
    8.8281  -17.1225   22.3032 C   0  0  1  0  0  0  0  0  0  0  0  0
    7.6099  -17.6439   23.0941 C   0  0  0  0  0  0  0  0  0  0  0  0
    7.1735  -16.7265   24.1453 C   0  0  0  0  0  0  0  0  0  0  0  0
    6.2558  -17.1233   25.1286 C   0  0  0  0  0  0  0  0  0  0  0  0
    6.0922  -16.0884   25.9489 N   0  0  0  0  0  0  0  0  0  0  0  0
    6.8337  -15.0363   25.5801 C   0  0  0  0  0  0  0  0  0  0  0  0
    7.0018  -13.7566   26.0963 C   0  0  0  0  0  0  0  0  0  0  0  0
    7.8420  -12.8847   25.4816 C   0  0  0  0  0  0  0  0  0  0  0  0
    8.5381  -13.2237   24.3580 C   0  0  0  0  0  0  0  0  0  0  0  0
    8.3590  -14.5116   23.8523 C   0  0  0  0  0  0  0  0  0  0  0  0
    7.5226  -15.4374   24.4332 C   0  0  0  0  0  0  0  0  0  0  0  0
   10.0440  -17.5610   22.9255 C   0  0  0  0  0  0  0  0  0  0  0  0
   10.6733  -18.6016   22.6369 O   0  0  0  0  0  0  0  0  0  0  0  0
   10.5902  -16.7332   23.9641 N   0  0  0  0  0  0  0  0  0  0  0  0
   11.7629  -17.1673   24.7082 C   0  0  1  0  0  0  0  0  0  0  0  0
   12.2971  -15.9996   25.5219 C   0  0  0  0  0  0  0  0  0  0  0  0
   11.5499  -15.7040   26.7431 C   0  0  0  0  0  0  0  0  0  0  0  0
   11.3809  -16.5923   27.8292 C   0  0  0  0  0  0  0  0  0  0  0  0
   10.6710  -15.9924   28.7901 N   0  0  0  0  0  0  0  0  0  0  0  0
   10.3485  -14.7342   28.4060 C   0  0  0  0  0  0  0  0  0  0  0  0
    9.6284  -13.7439   29.0446 C   0  0  0  0  0  0  0  0  0  0  0  0
    9.4482  -12.5414   28.3913 C   0  0  0  0  0  0  0  0  0  0  0  0
    9.9643  -12.3218   27.1403 C   0  0  0  0  0  0  0  0  0  0  0  0
   10.6785  -13.3469   26.5432 C   0  0  0  0  0  0  0  0  0  0  0  0
   10.8973  -14.5645   27.1340 C   0  0  0  0  0  0  0  0  0  0  0  0
   11.4999  -18.3803   25.4533 C   0  0  0  0  0  0  0  0  0  0  0  0
   10.3235  -18.7091   25.7458 O   0  0  0  0  0  0  0  0  0  0  0  0
   12.5042  -19.2404   25.8786 O   0  0  0  0  0  0  0  0  0  0  0  0
  2  1  1  0
  3  2  2  0
  4  2  1  0
  5  6  1  6
  5  4  1  0
  7  5  1  0
  8  7  2  0
  9  7  1  0
 10  9  1  0
 10 11  1  1
 11 12  1  0
 12 13  2  0
 13 14  1  0
 15 16  2  0
 15 14  1  0
 17 16  1  0
 18 17  2  0
 19 18  1  0
 19 20  2  0
 20 12  1  0
 20 15  1  0
 21 23  1  0
 21 10  1  0
 22 21  2  0
 24 23  1  0
 24 25  1  1
 25 26  1  0
 26 27  2  0
 26 34  1  0
 27 28  1  0
 28 29  1  0
 29 30  2  0
 30 31  1  0
 32 31  2  0
 33 32  1  0
 34 33  2  0
 34 29  1  0
 35 37  1  0
 35 24  1  0
 36 35  2  0
M  END
$$$$
