NWW.pdb
     RDKit          3D

 37 40  0  0  1  0  0  0  0  0999 V2000
   12.0754  -17.9607   17.0689 N   0  0  0  0  0  0  0  0  0  0  0  0
   11.3144  -16.9218   16.4830 C   0  0  0  0  0  0  0  0  0  0  0  0
   11.7508  -16.2781   15.5060 O   0  0  0  0  0  0  0  0  0  0  0  0
    9.9869  -16.5969   17.0411 C   0  0  0  0  0  0  0  0  0  0  0  0
    9.7689  -17.5285   18.2203 C   0  0  2  0  0  0  0  0  0  0  0  0
    8.4880  -18.1796   18.0105 N   0  0  0  0  0  0  0  0  0  0  0  0
    9.7063  -16.7814   19.4977 C   0  0  0  0  0  0  0  0  0  0  0  0
   10.6877  -16.1123   19.8948 O   0  0  0  0  0  0  0  0  0  0  0  0
    8.4944  -16.8629   20.2341 N   0  0  0  0  0  0  0  0  0  0  0  0
    8.4081  -16.4920   21.6127 C   0  0  1  0  0  0  0  0  0  0  0  0
    6.9259  -16.4431   22.0393 C   0  0  0  0  0  0  0  0  0  0  0  0
    6.7433  -16.0402   23.4325 C   0  0  0  0  0  0  0  0  0  0  0  0
    6.2820  -16.9431   24.4013 C   0  0  0  0  0  0  0  0  0  0  0  0
    6.2573  -16.2910   25.5610 N   0  0  0  0  0  0  0  0  0  0  0  0
    6.6678  -15.0233   25.4303 C   0  0  0  0  0  0  0  0  0  0  0  0
    6.8124  -13.9680   26.3235 C   0  0  0  0  0  0  0  0  0  0  0  0
    7.2573  -12.7638   25.8807 C   0  0  0  0  0  0  0  0  0  0  0  0
    7.5724  -12.5481   24.5706 C   0  0  0  0  0  0  0  0  0  0  0  0
    7.4223  -13.6170   23.6867 C   0  0  0  0  0  0  0  0  0  0  0  0
    6.9772  -14.8592   24.0783 C   0  0  0  0  0  0  0  0  0  0  0  0
    9.1744  -17.2274   22.5771 C   0  0  0  0  0  0  0  0  0  0  0  0
    9.3772  -18.4605   22.5559 O   0  0  0  0  0  0  0  0  0  0  0  0
    9.7648  -16.4859   23.6559 N   0  0  0  0  0  0  0  0  0  0  0  0
   10.8074  -17.0859   24.4747 C   0  0  1  0  0  0  0  0  0  0  0  0
   11.4139  -16.0179   25.3705 C   0  0  0  0  0  0  0  0  0  0  0  0
   10.8236  -15.9215   26.7044 C   0  0  0  0  0  0  0  0  0  0  0  0
   10.7454  -16.9792   27.6384 C   0  0  0  0  0  0  0  0  0  0  0  0
   10.1742  -16.5392   28.7641 N   0  0  0  0  0  0  0  0  0  0  0  0
    9.8593  -15.2279   28.6378 C   0  0  0  0  0  0  0  0  0  0  0  0
    9.2564  -14.3480   29.5149 C   0  0  0  0  0  0  0  0  0  0  0  0
    9.0499  -13.0482   29.0988 C   0  0  0  0  0  0  0  0  0  0  0  0
    9.4275  -12.6275   27.8498 C   0  0  0  0  0  0  0  0  0  0  0  0
   10.0280  -13.5488   27.0082 C   0  0  0  0  0  0  0  0  0  0  0  0
   10.2651  -14.8534   27.3560 C   0  0  0  0  0  0  0  0  0  0  0  0
   10.3328  -18.2743   25.1517 C   0  0  0  0  0  0  0  0  0  0  0  0
    9.1019  -18.4864   25.2846 O   0  0  0  0  0  0  0  0  0  0  0  0
   11.1846  -19.2354   25.6808 O   0  0  0  0  0  0  0  0  0  0  0  0
  2  1  1  0
  3  2  2  0
  4  2  1  0
  5  6  1  6
  5  4  1  0
  7  5  1  0
  8  7  2  0
  9  7  1  0
 10  9  1  0
 10 11  1  1
 11 12  1  0
 12 13  2  0
 13 14  1  0
 15 16  2  0
 15 14  1  0
 17 16  1  0
 18 17  2  0
 19 18  1  0
 19 20  2  0
 20 12  1  0
 20 15  1  0
 21 23  1  0
 21 10  1  0
 22 21  2  0
 24 23  1  0
 24 25  1  1
 25 26  1  0
 26 27  2  0
 26 34  1  0
 27 28  1  0
 28 29  1  0
 29 30  2  0
 30 31  1  0
 32 31  2  0
 33 32  1  0
 34 33  2  0
 34 29  1  0
 35 37  1  0
 35 24  1  0
 36 35  2  0
M  END
$$$$
