NWW.pdb
     RDKit          3D

 37 40  0  0  1  0  0  0  0  0999 V2000
   12.7163  -16.4147   16.0944 N   0  0  0  0  0  0  0  0  0  0  0  0
   11.3917  -16.8331   16.3623 C   0  0  0  0  0  0  0  0  0  0  0  0
   10.8247  -17.6758   15.6358 O   0  0  0  0  0  0  0  0  0  0  0  0
   10.6734  -16.2594   17.5174 C   0  0  0  0  0  0  0  0  0  0  0  0
   10.9379  -17.1789   18.6966 C   0  0  2  0  0  0  0  0  0  0  0  0
   10.0871  -18.3426   18.5215 N   0  0  0  0  0  0  0  0  0  0  0  0
   10.5809  -16.5316   19.9802 C   0  0  0  0  0  0  0  0  0  0  0  0
   11.0987  -15.4401   20.3105 O   0  0  0  0  0  0  0  0  0  0  0  0
    9.6361  -17.2035   20.8007 N   0  0  0  0  0  0  0  0  0  0  0  0
    9.2807  -16.7338   22.1040 C   0  0  1  0  0  0  0  0  0  0  0  0
    7.7461  -16.7703   22.2620 C   0  0  0  0  0  0  0  0  0  0  0  0
    7.2922  -16.2864   23.5647 C   0  0  0  0  0  0  0  0  0  0  0  0
    6.7982  -14.9845   23.7305 C   0  0  0  0  0  0  0  0  0  0  0  0
    6.4393  -14.8637   25.0061 N   0  0  0  0  0  0  0  0  0  0  0  0
    6.6600  -15.9897   25.6961 C   0  0  0  0  0  0  0  0  0  0  0  0
    6.4613  -16.3526   27.0232 C   0  0  0  0  0  0  0  0  0  0  0  0
    6.7984  -17.6002   27.4406 C   0  0  0  0  0  0  0  0  0  0  0  0
    7.3336  -18.5250   26.5919 C   0  0  0  0  0  0  0  0  0  0  0  0
    7.5266  -18.1458   25.2632 C   0  0  0  0  0  0  0  0  0  0  0  0
    7.2030  -16.8970   24.7836 C   0  0  0  0  0  0  0  0  0  0  0  0
    9.9082  -17.3276   23.2493 C   0  0  0  0  0  0  0  0  0  0  0  0
    9.3238  -17.9800   24.1409 O   0  0  0  0  0  0  0  0  0  0  0  0
   11.3289  -17.1660   23.3820 N   0  0  0  0  0  0  0  0  0  0  0  0
   11.8899  -16.5594   24.5798 C   0  0  1  0  0  0  0  0  0  0  0  0
   11.3760  -15.1341   24.7040 C   0  0  0  0  0  0  0  0  0  0  0  0
   10.4341  -14.9098   25.7992 C   0  0  0  0  0  0  0  0  0  0  0  0
   10.5193  -15.5008   27.0801 C   0  0  0  0  0  0  0  0  0  0  0  0
    9.5164  -15.0567   27.8442 N   0  0  0  0  0  0  0  0  0  0  0  0
    8.7510  -14.1892   27.1397 C   0  0  0  0  0  0  0  0  0  0  0  0
    7.6158  -13.4852   27.4899 C   0  0  0  0  0  0  0  0  0  0  0  0
    7.0340  -12.6685   26.5413 C   0  0  0  0  0  0  0  0  0  0  0  0
    7.5579  -12.5500   25.2799 C   0  0  0  0  0  0  0  0  0  0  0  0
    8.6973  -13.2772   24.9790 C   0  0  0  0  0  0  0  0  0  0  0  0
    9.3276  -14.1051   25.8715 C   0  0  0  0  0  0  0  0  0  0  0  0
   11.6925  -17.3989   25.7425 C   0  0  0  0  0  0  0  0  0  0  0  0
   11.5456  -18.6401   25.6179 O   0  0  0  0  0  0  0  0  0  0  0  0
   11.6580  -16.9011   27.0388 O   0  0  0  0  0  0  0  0  0  0  0  0
  2  1  1  0
  3  2  2  0
  4  2  1  0
  5  6  1  6
  5  4  1  0
  7  5  1  0
  8  7  2  0
  9  7  1  0
 10  9  1  0
 10 11  1  1
 11 12  1  0
 12 13  2  0
 13 14  1  0
 15 16  2  0
 15 14  1  0
 17 16  1  0
 18 17  2  0
 19 18  1  0
 19 20  2  0
 20 12  1  0
 20 15  1  0
 21 23  1  0
 21 10  1  0
 22 21  2  0
 24 23  1  0
 24 25  1  1
 25 26  1  0
 26 27  2  0
 26 34  1  0
 27 28  1  0
 28 29  1  0
 29 30  2  0
 30 31  1  0
 32 31  2  0
 33 32  1  0
 34 33  2  0
 34 29  1  0
 35 37  1  0
 35 24  1  0
 36 35  2  0
M  END
$$$$
