NWW.pdb
     RDKit          3D

 37 40  0  0  1  0  0  0  0  0999 V2000
   12.6940  -18.5859   17.7046 N   0  0  0  0  0  0  0  0  0  0  0  0
   11.8204  -18.7875   18.7990 C   0  0  0  0  0  0  0  0  0  0  0  0
   11.5212  -19.9390   19.1786 O   0  0  0  0  0  0  0  0  0  0  0  0
   11.2553  -17.6157   19.4967 C   0  0  0  0  0  0  0  0  0  0  0  0
   11.1298  -17.9978   20.9610 C   0  0  2  0  0  0  0  0  0  0  0  0
   10.0208  -18.9302   21.0585 N   0  0  0  0  0  0  0  0  0  0  0  0
   10.8218  -16.8200   21.8046 C   0  0  0  0  0  0  0  0  0  0  0  0
   11.6809  -15.9287   21.9949 O   0  0  0  0  0  0  0  0  0  0  0  0
    9.5226  -16.7571   22.3752 N   0  0  0  0  0  0  0  0  0  0  0  0
    9.0540  -15.6112   23.0914 C   0  0  1  0  0  0  0  0  0  0  0  0
    7.5580  -15.3903   22.7841 C   0  0  0  0  0  0  0  0  0  0  0  0
    7.3014  -15.0767   21.3796 C   0  0  0  0  0  0  0  0  0  0  0  0
    6.5602  -15.9404   20.5602 C   0  0  0  0  0  0  0  0  0  0  0  0
    6.4741  -15.3640   19.3640 N   0  0  0  0  0  0  0  0  0  0  0  0
    7.1042  -14.1830   19.3318 C   0  0  0  0  0  0  0  0  0  0  0  0
    7.2966  -13.2283   18.3399 C   0  0  0  0  0  0  0  0  0  0  0  0
    8.0054  -12.1027   18.6133 C   0  0  0  0  0  0  0  0  0  0  0  0
    8.5445  -11.8709   19.8452 C   0  0  0  0  0  0  0  0  0  0  0  0
    8.3426  -12.8381   20.8301 C   0  0  0  0  0  0  0  0  0  0  0  0
    7.6324  -13.9966   20.6113 C   0  0  0  0  0  0  0  0  0  0  0  0
    9.2826  -15.5372   24.5057 C   0  0  0  0  0  0  0  0  0  0  0  0
    8.9643  -14.5799   25.2437 O   0  0  0  0  0  0  0  0  0  0  0  0
    9.9258  -16.6589   25.1305 N   0  0  0  0  0  0  0  0  0  0  0  0
   10.2465  -16.6243   26.5494 C   0  0  1  0  0  0  0  0  0  0  0  0
    8.9561  -16.6452   27.3526 C   0  0  0  0  0  0  0  0  0  0  0  0
    7.9502  -15.6715   26.9320 C   0  0  0  0  0  0  0  0  0  0  0  0
    6.6780  -15.9908   26.4061 C   0  0  0  0  0  0  0  0  0  0  0  0
    6.0034  -14.8643   26.1546 N   0  0  0  0  0  0  0  0  0  0  0  0
    6.7608  -13.7913   26.4857 C   0  0  0  0  0  0  0  0  0  0  0  0
    6.5059  -12.4367   26.4020 C   0  0  0  0  0  0  0  0  0  0  0  0
    7.4899  -11.5594   26.8113 C   0  0  0  0  0  0  0  0  0  0  0  0
    8.6942  -12.0068   27.2900 C   0  0  0  0  0  0  0  0  0  0  0  0
    8.9000  -13.3747   27.3537 C   0  0  0  0  0  0  0  0  0  0  0  0
    7.9676  -14.3019   26.9662 C   0  0  0  0  0  0  0  0  0  0  0  0
   11.2174  -17.6397   26.8991 C   0  0  0  0  0  0  0  0  0  0  0  0
   11.6773  -17.7103   28.0658 O   0  0  0  0  0  0  0  0  0  0  0  0
   11.6884  -18.5810   25.9927 O   0  0  0  0  0  0  0  0  0  0  0  0
  2  1  1  0
  3  2  2  0
  4  2  1  0
  5  6  1  6
  5  4  1  0
  7  5  1  0
  8  7  2  0
  9  7  1  0
 10  9  1  0
 10 11  1  1
 11 12  1  0
 12 13  2  0
 13 14  1  0
 15 16  2  0
 15 14  1  0
 17 16  1  0
 18 17  2  0
 19 18  1  0
 19 20  2  0
 20 12  1  0
 20 15  1  0
 21 23  1  0
 21 10  1  0
 22 21  2  0
 24 23  1  0
 24 25  1  1
 25 26  1  0
 26 27  2  0
 26 34  1  0
 27 28  1  0
 28 29  1  0
 29 30  2  0
 30 31  1  0
 32 31  2  0
 33 32  1  0
 34 33  2  0
 34 29  1  0
 35 37  1  0
 35 24  1  0
 36 35  2  0
M  END
$$$$
