NWW.pdb
     RDKit          3D

 37 40  0  0  1  0  0  0  0  0999 V2000
    9.7762  -21.4365   18.9566 N   0  0  0  0  0  0  0  0  0  0  0  0
   11.0741  -20.9749   19.2789 C   0  0  0  0  0  0  0  0  0  0  0  0
   12.0359  -21.7671   19.3609 O   0  0  0  0  0  0  0  0  0  0  0  0
   11.2877  -19.5347   19.5235 C   0  0  0  0  0  0  0  0  0  0  0  0
   11.3875  -19.3574   21.0283 C   0  0  2  0  0  0  0  0  0  0  0  0
   10.1016  -19.7412   21.5831 N   0  0  0  0  0  0  0  0  0  0  0  0
   11.6474  -17.9453   21.3922 C   0  0  0  0  0  0  0  0  0  0  0  0
   12.3562  -17.2174   20.6599 O   0  0  0  0  0  0  0  0  0  0  0  0
   11.0592  -17.4702   22.5946 N   0  0  0  0  0  0  0  0  0  0  0  0
   11.1712  -16.1085   23.0174 C   0  0  1  0  0  0  0  0  0  0  0  0
   10.6907  -15.1779   21.8840 C   0  0  0  0  0  0  0  0  0  0  0  0
    9.2347  -15.1217   21.7669 C   0  0  0  0  0  0  0  0  0  0  0  0
    8.4263  -16.1967   22.1636 C   0  0  0  0  0  0  0  0  0  0  0  0
    7.1631  -15.8273   21.9669 N   0  0  0  0  0  0  0  0  0  0  0  0
    7.0767  -14.5875   21.4689 C   0  0  0  0  0  0  0  0  0  0  0  0
    6.0092  -13.7774   21.0995 C   0  0  0  0  0  0  0  0  0  0  0  0
    6.2431  -12.5340   20.6063 C   0  0  0  0  0  0  0  0  0  0  0  0
    7.5075  -12.0428   20.4575 C   0  0  0  0  0  0  0  0  0  0  0  0
    8.5683  -12.8676   20.8329 C   0  0  0  0  0  0  0  0  0  0  0  0
    8.3918  -14.1351   21.3395 C   0  0  0  0  0  0  0  0  0  0  0  0
   10.5737  -15.7183   24.2619 C   0  0  0  0  0  0  0  0  0  0  0  0
   10.5500  -14.5569   24.7235 O   0  0  0  0  0  0  0  0  0  0  0  0
    9.9433  -16.7454   25.0427 N   0  0  0  0  0  0  0  0  0  0  0  0
   10.2847  -16.9135   26.4472 C   0  0  1  0  0  0  0  0  0  0  0  0
    9.5709  -15.8487   27.2643 C   0  0  0  0  0  0  0  0  0  0  0  0
    8.2880  -15.4080   26.7195 C   0  0  0  0  0  0  0  0  0  0  0  0
    7.2456  -16.2639   26.2976 C   0  0  0  0  0  0  0  0  0  0  0  0
    6.2071  -15.5314   25.8827 N   0  0  0  0  0  0  0  0  0  0  0  0
    6.4965  -14.2137   26.0030 C   0  0  0  0  0  0  0  0  0  0  0  0
    5.7561  -13.0879   25.7011 C   0  0  0  0  0  0  0  0  0  0  0  0
    6.3263  -11.8507   25.9239 C   0  0  0  0  0  0  0  0  0  0  0  0
    7.5942  -11.7274   26.4306 C   0  0  0  0  0  0  0  0  0  0  0  0
    8.2948  -12.8871   26.7168 C   0  0  0  0  0  0  0  0  0  0  0  0
    7.7903  -14.1468   26.5222 C   0  0  0  0  0  0  0  0  0  0  0  0
   10.0799  -18.2786   26.8837 C   0  0  0  0  0  0  0  0  0  0  0  0
   10.4386  -18.6441   28.0306 O   0  0  0  0  0  0  0  0  0  0  0  0
    9.4847  -19.2473   26.0858 O   0  0  0  0  0  0  0  0  0  0  0  0
  2  1  1  0
  3  2  2  0
  4  2  1  0
  5  6  1  1
  5  4  1  0
  7  5  1  0
  8  7  2  0
  9  7  1  0
 10  9  1  0
 10 11  1  6
 11 12  1  0
 12 13  2  0
 13 14  1  0
 15 16  2  0
 15 14  1  0
 17 16  1  0
 18 17  2  0
 19 18  1  0
 19 20  2  0
 20 12  1  0
 20 15  1  0
 21 23  1  0
 21 10  1  0
 22 21  2  0
 24 23  1  0
 24 25  1  1
 25 26  1  0
 26 27  2  0
 26 34  1  0
 27 28  1  0
 28 29  1  0
 29 30  2  0
 30 31  1  0
 32 31  2  0
 33 32  1  0
 34 33  2  0
 34 29  1  0
 35 37  1  0
 35 24  1  0
 36 35  2  0
M  END
$$$$
