KLN.pdb
     RDKit          3D

 26 25  0  0  1  0  0  0  0  0999 V2000
   26.2854  -23.0332  -16.9392 N   0  0  0  0  0  0  0  0  0  0  0  0
   25.9725  -21.7286  -16.3633 C   0  0  1  0  0  0  0  0  0  0  0  0
   24.8339  -21.1735  -17.2023 C   0  0  0  0  0  0  0  0  0  0  0  0
   25.4630  -20.2903  -18.2452 C   0  0  0  0  0  0  0  0  0  0  0  0
   25.1533  -18.8295  -18.0195 C   0  0  0  0  0  0  0  0  0  0  0  0
   25.7193  -17.9748  -19.1430 C   0  0  0  0  0  0  0  0  0  0  0  0
   25.4690  -16.5771  -18.9296 N   0  0  0  0  0  0  0  0  0  0  0  0
   25.4866  -21.9250  -14.9508 C   0  0  0  0  0  0  0  0  0  0  0  0
   24.8559  -22.9681  -14.6135 O   0  0  0  0  0  0  0  0  0  0  0  0
   28.1668  -20.0374  -12.6534 C   0  0  0  0  0  0  0  0  0  0  0  0
   27.3362  -20.6150  -11.4921 C   0  0  2  0  0  0  0  0  0  0  0  0
   27.5752  -22.1041  -11.5348 C   0  0  0  0  0  0  0  0  0  0  0  0
   25.9137  -20.2141  -11.6726 C   0  0  0  0  0  0  0  0  0  0  0  0
   25.1183  -21.0545  -12.6288 C   0  0  2  0  0  0  0  0  0  0  0  0
   25.7167  -20.9510  -13.9472 N   0  0  0  0  0  0  0  0  0  0  0  0
   23.6744  -20.7968  -12.6062 C   0  0  0  0  0  0  0  0  0  0  0  0
   23.0544  -21.0323  -11.5382 O   0  0  0  0  0  0  0  0  0  0  0  0
   18.7922  -18.0523  -15.4471 N   0  0  0  0  0  0  0  0  0  0  0  0
   19.5607  -18.7585  -14.4851 C   0  0  0  0  0  0  0  0  0  0  0  0
   18.9080  -19.0870  -13.4321 O   0  0  0  0  0  0  0  0  0  0  0  0
   20.9820  -19.1037  -14.6415 C   0  0  0  0  0  0  0  0  0  0  0  0
   21.5004  -20.0576  -13.6188 C   0  0  2  0  0  0  0  0  0  0  0  0
   22.9212  -20.3009  -13.7037 N   0  0  0  0  0  0  0  0  0  0  0  0
   20.7776  -21.3571  -13.6263 C   0  0  0  0  0  0  0  0  0  0  0  0
   19.9548  -21.6225  -12.7156 O   0  0  0  0  0  0  0  0  0  0  0  0
   20.9743  -22.3106  -14.6138 O   0  0  0  0  0  0  0  0  0  0  0  0
  2  1  1  6
  3  4  1  0
  3  2  1  0
  5  6  1  0
  5  4  1  0
  7  6  1  0
  8  2  1  0
  8  9  2  0
 11 10  1  6
 11 13  1  0
 12 11  1  0
 14 13  1  1
 14 15  1  0
 15  8  1  0
 16 14  1  0
 17 16  2  0
 19 18  1  0
 19 21  1  0
 20 19  2  0
 22 21  1  6
 22 23  1  0
 22 24  1  0
 23 16  1  0
 24 26  1  0
 25 24  2  0
M  END
$$$$
