KLN.pdb
     RDKit          3D

 26 25  0  0  1  0  0  0  0  0999 V2000
   21.9294  -20.5257  -12.4495 N   0  0  0  0  0  0  0  0  0  0  0  0
   22.1093  -20.7491  -13.8810 C   0  0  1  0  0  0  0  0  0  0  0  0
   20.8339  -20.2472  -14.5368 C   0  0  0  0  0  0  0  0  0  0  0  0
   19.7858  -21.2986  -14.2925 C   0  0  0  0  0  0  0  0  0  0  0  0
   20.0183  -22.5405  -15.1199 C   0  0  0  0  0  0  0  0  0  0  0  0
   18.9668  -22.6703  -16.2112 C   0  0  0  0  0  0  0  0  0  0  0  0
   17.7564  -23.2657  -15.7192 N   0  0  0  0  0  0  0  0  0  0  0  0
   23.2665  -19.9125  -14.3616 C   0  0  0  0  0  0  0  0  0  0  0  0
   23.3997  -18.7081  -13.9995 O   0  0  0  0  0  0  0  0  0  0  0  0
   27.2160  -18.7955  -13.4509 C   0  0  0  0  0  0  0  0  0  0  0  0
   26.9565  -20.2553  -13.8678 C   0  0  2  0  0  0  0  0  0  0  0  0
   28.2062  -21.0071  -13.4812 C   0  0  0  0  0  0  0  0  0  0  0  0
   26.6414  -20.2910  -15.3224 C   0  0  0  0  0  0  0  0  0  0  0  0
   25.3524  -19.6349  -15.7242 C   0  0  2  0  0  0  0  0  0  0  0  0
   24.2486  -20.4412  -15.2361 N   0  0  0  0  0  0  0  0  0  0  0  0
   25.2618  -19.2979  -17.1490 C   0  0  0  0  0  0  0  0  0  0  0  0
   25.1115  -20.2419  -17.9653 O   0  0  0  0  0  0  0  0  0  0  0  0
   22.4729  -15.6219  -17.8636 N   0  0  0  0  0  0  0  0  0  0  0  0
   22.9812  -16.5703  -18.7895 C   0  0  0  0  0  0  0  0  0  0  0  0
   22.1593  -17.5095  -19.0815 O   0  0  0  0  0  0  0  0  0  0  0  0
   24.3250  -16.5184  -19.3855 C   0  0  0  0  0  0  0  0  0  0  0  0
   25.1777  -17.7049  -19.0864 C   0  0  2  0  0  0  0  0  0  0  0  0
   25.3329  -17.9814  -17.6776 N   0  0  0  0  0  0  0  0  0  0  0  0
   26.5195  -17.6234  -19.7221 C   0  0  0  0  0  0  0  0  0  0  0  0
   26.6166  -17.4641  -20.9639 O   0  0  0  0  0  0  0  0  0  0  0  0
   27.6944  -17.7172  -18.9915 O   0  0  0  0  0  0  0  0  0  0  0  0
  2  1  1  1
  3  4  1  0
  3  2  1  0
  5  6  1  0
  5  4  1  0
  7  6  1  0
  8  2  1  0
  8  9  2  0
 11 10  1  6
 11 13  1  0
 12 11  1  0
 14 13  1  6
 14 15  1  0
 15  8  1  0
 16 14  1  0
 17 16  2  0
 19 18  1  0
 19 21  1  0
 20 19  2  0
 22 21  1  1
 22 23  1  0
 22 24  1  0
 23 16  1  0
 24 26  1  0
 25 24  2  0
M  END
$$$$
