KLN.pdb
     RDKit          3D

 26 25  0  0  1  0  0  0  0  0999 V2000
   27.4944  -21.5244  -15.9737 N   0  0  0  0  0  0  0  0  0  0  0  0
   26.7321  -20.4228  -15.3931 C   0  0  1  0  0  0  0  0  0  0  0  0
   25.7214  -20.0209  -16.4540 C   0  0  0  0  0  0  0  0  0  0  0  0
   26.2491  -18.7649  -17.0925 C   0  0  0  0  0  0  0  0  0  0  0  0
   25.2979  -18.2045  -18.1230 C   0  0  0  0  0  0  0  0  0  0  0  0
   25.9157  -17.0149  -18.8416 C   0  0  0  0  0  0  0  0  0  0  0  0
   25.0128  -16.4408  -19.7991 N   0  0  0  0  0  0  0  0  0  0  0  0
   25.9925  -20.9292  -14.1821 C   0  0  0  0  0  0  0  0  0  0  0  0
   25.5956  -22.1278  -14.1100 O   0  0  0  0  0  0  0  0  0  0  0  0
   26.1841  -19.5979   -8.2917 C   0  0  0  0  0  0  0  0  0  0  0  0
   25.4832  -20.4823   -9.3399 C   0  0  2  0  0  0  0  0  0  0  0  0
   25.7997  -21.9016   -8.9380 C   0  0  0  0  0  0  0  0  0  0  0  0
   25.9719  -20.1020  -10.6939 C   0  0  0  0  0  0  0  0  0  0  0  0
   25.1466  -20.5981  -11.8455 C   0  0  2  0  0  0  0  0  0  0  0  0
   25.7135  -20.0842  -13.0789 N   0  0  0  0  0  0  0  0  0  0  0  0
   23.7058  -20.3607  -11.7057 C   0  0  0  0  0  0  0  0  0  0  0  0
   23.1078  -20.9311  -10.7584 O   0  0  0  0  0  0  0  0  0  0  0  0
   21.0140  -19.3652  -16.0823 N   0  0  0  0  0  0  0  0  0  0  0  0
   21.9014  -20.4514  -15.8638 C   0  0  0  0  0  0  0  0  0  0  0  0
   22.2780  -21.0439  -16.9362 O   0  0  0  0  0  0  0  0  0  0  0  0
   22.3726  -20.8919  -14.5418 C   0  0  0  0  0  0  0  0  0  0  0  0
   21.8837  -20.0596  -13.4049 C   0  0  2  0  0  0  0  0  0  0  0  0
   22.9326  -19.5335  -12.5633 N   0  0  0  0  0  0  0  0  0  0  0  0
   20.8855  -20.7686  -12.5611 C   0  0  0  0  0  0  0  0  0  0  0  0
   19.8414  -20.1760  -12.1929 O   0  0  0  0  0  0  0  0  0  0  0  0
   21.0577  -22.0826  -12.1527 O   0  0  0  0  0  0  0  0  0  0  0  0
  2  1  1  6
  3  4  1  0
  3  2  1  0
  5  6  1  0
  5  4  1  0
  7  6  1  0
  8  2  1  0
  8  9  2  0
 11 10  1  1
 11 13  1  0
 12 11  1  0
 14 13  1  1
 14 15  1  0
 15  8  1  0
 16 14  1  0
 17 16  2  0
 19 18  1  0
 19 21  1  0
 20 19  2  0
 22 21  1  6
 22 23  1  0
 22 24  1  0
 23 16  1  0
 24 26  1  0
 25 24  2  0
M  END
$$$$
