KLN.pdb
     RDKit          3D

 26 25  0  0  1  0  0  0  0  0999 V2000
   20.0665  -21.2194  -11.6436 N   0  0  0  0  0  0  0  0  0  0  0  0
   21.3350  -21.6537  -12.2214 C   0  0  1  0  0  0  0  0  0  0  0  0
   21.2233  -21.3740  -13.7106 C   0  0  0  0  0  0  0  0  0  0  0  0
   20.0161  -22.1286  -14.1975 C   0  0  0  0  0  0  0  0  0  0  0  0
   20.3913  -23.3848  -14.9473 C   0  0  0  0  0  0  0  0  0  0  0  0
   19.1541  -24.0809  -15.4933 C   0  0  0  0  0  0  0  0  0  0  0  0
   18.5131  -23.3059  -16.5181 N   0  0  0  0  0  0  0  0  0  0  0  0
   22.4439  -20.8097  -11.6487 C   0  0  0  0  0  0  0  0  0  0  0  0
   22.3971  -19.5467  -11.6947 O   0  0  0  0  0  0  0  0  0  0  0  0
   26.6702  -21.1083   -7.3092 C   0  0  0  0  0  0  0  0  0  0  0  0
   26.2652  -20.3729   -8.6005 C   0  0  2  0  0  0  0  0  0  0  0  0
   25.9645  -18.9573   -8.1740 C   0  0  0  0  0  0  0  0  0  0  0  0
   25.1149  -21.0872   -9.2198 C   0  0  0  0  0  0  0  0  0  0  0  0
   24.6999  -20.5966  -10.5764 C   0  0  2  0  0  0  0  0  0  0  0  0
   23.5798  -21.3966  -11.0373 N   0  0  0  0  0  0  0  0  0  0  0  0
   25.7968  -20.4905  -11.5446 C   0  0  0  0  0  0  0  0  0  0  0  0
   26.9101  -20.9781  -11.2235 O   0  0  0  0  0  0  0  0  0  0  0  0
   27.8763  -23.3563  -15.6999 N   0  0  0  0  0  0  0  0  0  0  0  0
   27.6065  -22.0304  -15.2708 C   0  0  0  0  0  0  0  0  0  0  0  0
   28.1927  -21.1260  -15.9644 O   0  0  0  0  0  0  0  0  0  0  0  0
   26.7380  -21.6801  -14.1365 C   0  0  0  0  0  0  0  0  0  0  0  0
   26.5769  -20.2141  -13.9138 C   0  0  2  0  0  0  0  0  0  0  0  0
   25.6960  -19.8753  -12.8209 N   0  0  0  0  0  0  0  0  0  0  0  0
   26.1419  -19.4912  -15.1383 C   0  0  0  0  0  0  0  0  0  0  0  0
   26.7964  -19.6107  -16.2032 O   0  0  0  0  0  0  0  0  0  0  0  0
   25.0224  -18.6730  -15.1594 O   0  0  0  0  0  0  0  0  0  0  0  0
  2  1  1  1
  3  4  1  0
  3  2  1  0
  5  6  1  0
  5  4  1  0
  7  6  1  0
  8  2  1  0
  8  9  2  0
 11 10  1  1
 11 13  1  0
 12 11  1  0
 14 13  1  1
 14 15  1  0
 15  8  1  0
 16 14  1  0
 17 16  2  0
 19 18  1  0
 19 21  1  0
 20 19  2  0
 22 21  1  6
 22 23  1  0
 22 24  1  0
 23 16  1  0
 24 26  1  0
 25 24  2  0
M  END
$$$$
