KLN.pdb
     RDKit          3D

 26 25  0  0  1  0  0  0  0  0999 V2000
   27.9080  -22.8243  -16.3591 N   0  0  0  0  0  0  0  0  0  0  0  0
   26.4647  -22.9333  -16.1677 C   0  0  1  0  0  0  0  0  0  0  0  0
   26.2273  -24.3371  -15.6370 C   0  0  0  0  0  0  0  0  0  0  0  0
   26.6774  -25.2835  -16.7165 C   0  0  0  0  0  0  0  0  0  0  0  0
   25.6761  -25.3837  -17.8427 C   0  0  0  0  0  0  0  0  0  0  0  0
   26.1663  -26.3371  -18.9216 C   0  0  0  0  0  0  0  0  0  0  0  0
   25.2138  -26.4740  -19.9872 N   0  0  0  0  0  0  0  0  0  0  0  0
   26.0369  -21.9376  -15.1211 C   0  0  0  0  0  0  0  0  0  0  0  0
   25.5621  -22.3158  -14.0116 O   0  0  0  0  0  0  0  0  0  0  0  0
   27.8337  -18.7183  -16.5773 C   0  0  0  0  0  0  0  0  0  0  0  0
   26.8178  -17.8352  -15.8287 C   0  0  2  0  0  0  0  0  0  0  0  0
   27.3844  -16.4382  -15.8903 C   0  0  0  0  0  0  0  0  0  0  0  0
   26.6419  -18.3682  -14.4497 C   0  0  0  0  0  0  0  0  0  0  0  0
   25.7586  -19.5758  -14.3278 C   0  0  2  0  0  0  0  0  0  0  0  0
   26.1497  -20.5416  -15.3384 N   0  0  0  0  0  0  0  0  0  0  0  0
   24.3224  -19.2774  -14.3106 C   0  0  0  0  0  0  0  0  0  0  0  0
   23.8942  -18.5132  -13.4090 O   0  0  0  0  0  0  0  0  0  0  0  0
   21.0572  -17.5001  -18.3385 N   0  0  0  0  0  0  0  0  0  0  0  0
   21.7362  -18.3270  -17.4056 C   0  0  0  0  0  0  0  0  0  0  0  0
   22.4713  -19.2288  -17.9432 O   0  0  0  0  0  0  0  0  0  0  0  0
   21.6339  -18.1958  -15.9441 C   0  0  0  0  0  0  0  0  0  0  0  0
   21.9769  -19.4355  -15.1890 C   0  0  2  0  0  0  0  0  0  0  0  0
   23.3760  -19.7895  -15.2378 N   0  0  0  0  0  0  0  0  0  0  0  0
   21.1589  -20.6060  -15.6037 C   0  0  0  0  0  0  0  0  0  0  0  0
   19.9067  -20.5562  -15.5236 O   0  0  0  0  0  0  0  0  0  0  0  0
   21.7269  -21.7758  -16.0853 O   0  0  0  0  0  0  0  0  0  0  0  0
  2  1  1  1
  3  4  1  0
  3  2  1  0
  5  6  1  0
  5  4  1  0
  7  6  1  0
  8  2  1  0
  8  9  2  0
 11 10  1  6
 11 13  1  0
 12 11  1  0
 14 13  1  6
 14 15  1  0
 15  8  1  0
 16 14  1  0
 17 16  2  0
 19 18  1  0
 19 21  1  0
 20 19  2  0
 22 21  1  6
 22 23  1  0
 22 24  1  0
 23 16  1  0
 24 26  1  0
 25 24  2  0
M  END
$$$$
