KLN.pdb
     RDKit          3D

 26 25  0  0  1  0  0  0  0  0999 V2000
   27.1589  -19.3905  -13.6962 N   0  0  0  0  0  0  0  0  0  0  0  0
   26.8606  -20.8081  -13.8774 C   0  0  1  0  0  0  0  0  0  0  0  0
   28.2063  -21.4892  -14.0605 C   0  0  0  0  0  0  0  0  0  0  0  0
   28.6411  -21.2033  -15.4722 C   0  0  0  0  0  0  0  0  0  0  0  0
   27.9997  -22.1397  -16.4685 C   0  0  0  0  0  0  0  0  0  0  0  0
   28.9826  -22.5225  -17.5642 C   0  0  0  0  0  0  0  0  0  0  0  0
   29.2457  -21.4262  -18.4533 N   0  0  0  0  0  0  0  0  0  0  0  0
   26.2152  -21.3332  -12.6213 C   0  0  0  0  0  0  0  0  0  0  0  0
   25.7376  -22.5031  -12.5694 O   0  0  0  0  0  0  0  0  0  0  0  0
   27.7271  -21.1622   -8.6043 C   0  0  0  0  0  0  0  0  0  0  0  0
   27.0445  -19.8323   -8.9754 C   0  0  2  0  0  0  0  0  0  0  0  0
   27.3830  -18.8846   -7.8514 C   0  0  0  0  0  0  0  0  0  0  0  0
   25.5870  -20.0748   -9.1587 C   0  0  0  0  0  0  0  0  0  0  0  0
   25.2089  -20.8745  -10.3715 C   0  0  2  0  0  0  0  0  0  0  0  0
   26.1184  -20.5386  -11.4517 N   0  0  0  0  0  0  0  0  0  0  0  0
   23.7906  -20.7892  -10.7362 C   0  0  0  0  0  0  0  0  0  0  0  0
   22.9407  -21.0106   -9.8369 O   0  0  0  0  0  0  0  0  0  0  0  0
   19.4501  -18.1164  -14.1695 N   0  0  0  0  0  0  0  0  0  0  0  0
   20.0343  -18.9898  -13.2150 C   0  0  0  0  0  0  0  0  0  0  0  0
   19.1863  -19.6975  -12.5647 O   0  0  0  0  0  0  0  0  0  0  0  0
   21.4788  -19.1046  -12.9621 C   0  0  0  0  0  0  0  0  0  0  0  0
   21.8929  -20.3900  -12.3291 C   0  0  2  0  0  0  0  0  0  0  0  0
   23.3037  -20.4758  -12.0332 N   0  0  0  0  0  0  0  0  0  0  0  0
   21.4838  -21.5794  -13.1223 C   0  0  0  0  0  0  0  0  0  0  0  0
   22.2684  -22.0659  -13.9736 O   0  0  0  0  0  0  0  0  0  0  0  0
   20.2489  -22.1898  -12.9624 O   0  0  0  0  0  0  0  0  0  0  0  0
  2  1  1  1
  3  4  1  0
  3  2  1  0
  5  6  1  0
  5  4  1  0
  7  6  1  0
  8  2  1  0
  8  9  2  0
 11 10  1  1
 11 13  1  0
 12 11  1  0
 14 13  1  1
 14 15  1  0
 15  8  1  0
 16 14  1  0
 17 16  2  0
 19 18  1  0
 19 21  1  0
 20 19  2  0
 22 21  1  6
 22 23  1  0
 22 24  1  0
 23 16  1  0
 24 26  1  0
 25 24  2  0
M  END
$$$$
