SQM.pdb
     RDKit          3D

 24 23  0  0  1  0  0  0  0  0999 V2000
   13.4477  -12.7365  -12.5231 O   0  0  0  0  0  0  0  0  0  0  0  0
   13.5085  -11.3521  -12.3856 C   0  0  0  0  0  0  0  0  0  0  0  0
   14.9036  -10.8745  -12.6491 C   0  0  2  0  0  0  0  0  0  0  0  0
   15.8239  -11.6149  -11.8456 N   0  0  0  0  0  0  0  0  0  0  0  0
   15.0480   -9.4159  -12.3933 C   0  0  0  0  0  0  0  0  0  0  0  0
   14.3985   -8.5472  -13.0101 O   0  0  0  0  0  0  0  0  0  0  0  0
   15.6433   -6.7430   -7.0343 N   0  0  0  0  0  0  0  0  0  0  0  0
   14.5035   -7.0284   -7.8322 C   0  0  0  0  0  0  0  0  0  0  0  0
   13.3610   -7.0527   -7.3255 O   0  0  0  0  0  0  0  0  0  0  0  0
   14.6978   -7.2909   -9.2552 C   0  0  0  0  0  0  0  0  0  0  0  0
   16.1025   -7.2720   -9.7416 C   0  0  0  0  0  0  0  0  0  0  0  0
   16.2772   -7.5924  -11.2034 C   0  0  2  0  0  0  0  0  0  0  0  0
   15.9618   -8.9842  -11.4066 N   0  0  0  0  0  0  0  0  0  0  0  0
   17.6699   -7.2402  -11.6347 C   0  0  0  0  0  0  0  0  0  0  0  0
   18.1640   -6.1499  -11.3470 O   0  0  0  0  0  0  0  0  0  0  0  0
   24.3069  -10.3281  -14.6178 C   0  0  0  0  0  0  0  0  0  0  0  0
   22.5845  -10.6761  -14.0949 S   0  0  0  0  0  0  0  0  0  0  0  0
   21.8299   -9.0922  -13.6815 C   0  0  0  0  0  0  0  0  0  0  0  0
   20.4560   -9.2031  -13.1448 C   0  0  0  0  0  0  0  0  0  0  0  0
   19.7725   -7.9566  -12.8661 C   0  0  2  0  0  0  0  0  0  0  0  0
   18.4087   -8.1601  -12.3686 N   0  0  0  0  0  0  0  0  0  0  0  0
   19.7040   -6.9700  -13.9237 C   0  0  0  0  0  0  0  0  0  0  0  0
   20.7046   -5.9605  -13.9604 O   0  0  0  0  0  0  0  0  0  0  0  0
   18.8432   -6.8916  -14.8419 O   0  0  0  0  0  0  0  0  0  0  0  0
  2  1  1  0
  3  2  1  0
  3  4  1  1
  5  6  2  0
  5  3  1  0
  7  8  1  0
  8 10  1  0
  9  8  2  0
 10 11  1  0
 12 11  1  1
 12 13  1  0
 13  5  1  0
 14 12  1  0
 15 14  2  0
 16 17  1  0
 17 18  1  0
 19 18  1  0
 20 19  1  6
 20 21  1  0
 20 22  1  0
 21 14  1  0
 22 23  1  0
 24 22  2  0
M  END
$$$$
