SQM.pdb
     RDKit          3D

 24 23  0  0  1  0  0  0  0  0999 V2000
   24.5344  -11.7632  -19.2022 O   0  0  0  0  0  0  0  0  0  0  0  0
   23.6712  -10.6760  -19.0921 C   0  0  0  0  0  0  0  0  0  0  0  0
   22.3321  -11.1358  -18.6031 C   0  0  2  0  0  0  0  0  0  0  0  0
   21.6558  -11.8387  -19.6467 N   0  0  0  0  0  0  0  0  0  0  0  0
   21.5001  -10.0022  -18.1169 C   0  0  0  0  0  0  0  0  0  0  0  0
   20.8754   -9.2375  -18.8798 O   0  0  0  0  0  0  0  0  0  0  0  0
   18.3401  -10.0137  -12.7880 N   0  0  0  0  0  0  0  0  0  0  0  0
   18.0418   -8.7351  -13.3296 C   0  0  0  0  0  0  0  0  0  0  0  0
   17.1266   -8.0353  -12.8442 O   0  0  0  0  0  0  0  0  0  0  0  0
   18.8285   -8.2583  -14.4632 C   0  0  0  0  0  0  0  0  0  0  0  0
   19.8077   -9.2198  -15.0350 C   0  0  0  0  0  0  0  0  0  0  0  0
   20.6374   -8.6861  -16.1737 C   0  0  2  0  0  0  0  0  0  0  0  0
   21.4069   -9.7726  -16.7264 N   0  0  0  0  0  0  0  0  0  0  0  0
   21.4918   -7.5530  -15.6883 C   0  0  0  0  0  0  0  0  0  0  0  0
   22.5243   -7.7670  -15.0529 O   0  0  0  0  0  0  0  0  0  0  0  0
   22.7034    0.1957  -16.6805 C   0  0  0  0  0  0  0  0  0  0  0  0
   21.7123   -1.2581  -17.1958 S   0  0  0  0  0  0  0  0  0  0  0  0
   22.1718   -2.6203  -16.1085 C   0  0  0  0  0  0  0  0  0  0  0  0
   21.4864   -3.8939  -16.4184 C   0  0  0  0  0  0  0  0  0  0  0  0
   21.8793   -5.0436  -15.6297 C   0  0  2  0  0  0  0  0  0  0  0  0
   21.1089   -6.2456  -15.9620 N   0  0  0  0  0  0  0  0  0  0  0  0
   21.8724   -4.9108  -14.1878 C   0  0  0  0  0  0  0  0  0  0  0  0
   20.7139   -5.3391  -13.4837 O   0  0  0  0  0  0  0  0  0  0  0  0
   22.7914   -4.4491  -13.4579 O   0  0  0  0  0  0  0  0  0  0  0  0
  2  1  1  0
  3  2  1  0
  3  4  1  6
  5  6  2  0
  5  3  1  0
  7  8  1  0
  8 10  1  0
  9  8  2  0
 10 11  1  0
 12 11  1  1
 12 13  1  0
 13  5  1  0
 14 12  1  0
 15 14  2  0
 16 17  1  0
 17 18  1  0
 19 18  1  0
 20 19  1  6
 20 21  1  0
 20 22  1  0
 21 14  1  0
 22 23  1  0
 24 22  2  0
M  END
$$$$
