SQM.pdb
     RDKit          3D

 24 23  0  0  1  0  0  0  0  0999 V2000
   21.3566  -13.7915  -20.1726 O   0  0  0  0  0  0  0  0  0  0  0  0
   21.6986  -12.4419  -20.1450 C   0  0  0  0  0  0  0  0  0  0  0  0
   20.6768  -11.6729  -19.3650 C   0  0  2  0  0  0  0  0  0  0  0  0
   19.4359  -11.6699  -20.0725 N   0  0  0  0  0  0  0  0  0  0  0  0
   21.1216  -10.2798  -19.0910 C   0  0  0  0  0  0  0  0  0  0  0  0
   20.8182   -9.3111  -19.8166 O   0  0  0  0  0  0  0  0  0  0  0  0
   21.8896   -8.2797  -13.3982 N   0  0  0  0  0  0  0  0  0  0  0  0
   20.7334   -8.2434  -14.2222 C   0  0  0  0  0  0  0  0  0  0  0  0
   19.5931   -8.1602  -13.7167 O   0  0  0  0  0  0  0  0  0  0  0  0
   20.9083   -8.3043  -15.6704 C   0  0  0  0  0  0  0  0  0  0  0  0
   22.2993   -8.5007  -16.1571 C   0  0  0  0  0  0  0  0  0  0  0  0
   22.4321   -8.7195  -17.6418 C   0  0  2  0  0  0  0  0  0  0  0  0
   21.9264  -10.0320  -17.9570 N   0  0  0  0  0  0  0  0  0  0  0  0
   23.8616   -8.5299  -18.0543 C   0  0  0  0  0  0  0  0  0  0  0  0
   24.6687   -9.4567  -17.9820 O   0  0  0  0  0  0  0  0  0  0  0  0
   29.6758   -8.5600  -22.2362 C   0  0  0  0  0  0  0  0  0  0  0  0
   28.0407   -9.0778  -21.5884 S   0  0  0  0  0  0  0  0  0  0  0  0
   27.4674   -7.7637  -20.4960 C   0  0  0  0  0  0  0  0  0  0  0  0
   26.1217   -7.9984  -19.9286 C   0  0  0  0  0  0  0  0  0  0  0  0
   25.6121   -6.9751  -19.0388 C   0  0  2  0  0  0  0  0  0  0  0  0
   24.2761   -7.2895  -18.5241 N   0  0  0  0  0  0  0  0  0  0  0  0
   25.5786   -5.6110  -19.5232 C   0  0  0  0  0  0  0  0  0  0  0  0
   26.8171   -4.9368  -19.7053 O   0  0  0  0  0  0  0  0  0  0  0  0
   24.5594   -4.9266  -19.8115 O   0  0  0  0  0  0  0  0  0  0  0  0
  2  1  1  0
  3  2  1  0
  3  4  1  6
  5  6  2  0
  5  3  1  0
  7  8  1  0
  8 10  1  0
  9  8  2  0
 10 11  1  0
 12 11  1  1
 12 13  1  0
 13  5  1  0
 14 12  1  0
 15 14  2  0
 16 17  1  0
 17 18  1  0
 19 18  1  0
 20 19  1  6
 20 21  1  0
 20 22  1  0
 21 14  1  0
 22 23  1  0
 24 22  2  0
M  END
$$$$
