SQM.pdb
     RDKit          3D

 24 23  0  0  1  0  0  0  0  0999 V2000
   28.0840  -18.2543  -16.6286 O   0  0  0  0  0  0  0  0  0  0  0  0
   27.8976  -18.8430  -15.3805 C   0  0  0  0  0  0  0  0  0  0  0  0
   27.2881  -20.2016  -15.5437 C   0  0  2  0  0  0  0  0  0  0  0  0
   28.0905  -20.9841  -16.4294 N   0  0  0  0  0  0  0  0  0  0  0  0
   25.8883  -20.1252  -16.0421 C   0  0  0  0  0  0  0  0  0  0  0  0
   25.5652  -20.4022  -17.2151 O   0  0  0  0  0  0  0  0  0  0  0  0
   20.8715  -21.1229  -12.5115 N   0  0  0  0  0  0  0  0  0  0  0  0
   20.2869  -20.6889  -13.7309 C   0  0  0  0  0  0  0  0  0  0  0  0
   19.0536  -20.7801  -13.9142 O   0  0  0  0  0  0  0  0  0  0  0  0
   21.1585  -20.1339  -14.7623 C   0  0  0  0  0  0  0  0  0  0  0  0
   22.6175  -20.1684  -14.4787 C   0  0  0  0  0  0  0  0  0  0  0  0
   23.4930  -19.5929  -15.5614 C   0  0  2  0  0  0  0  0  0  0  0  0
   24.8691  -19.7205  -15.1519 N   0  0  0  0  0  0  0  0  0  0  0  0
   23.0935  -18.1728  -15.8322 C   0  0  0  0  0  0  0  0  0  0  0  0
   23.3946  -17.2712  -15.0498 O   0  0  0  0  0  0  0  0  0  0  0  0
   22.6782  -12.6528  -21.1262 C   0  0  0  0  0  0  0  0  0  0  0  0
   23.3061  -14.2908  -20.5934 S   0  0  0  0  0  0  0  0  0  0  0  0
   22.3798  -14.7550  -19.1185 C   0  0  0  0  0  0  0  0  0  0  0  0
   22.7326  -16.0876  -18.5821 C   0  0  0  0  0  0  0  0  0  0  0  0
   21.9856  -16.5322  -17.4233 C   0  0  2  0  0  0  0  0  0  0  0  0
   22.3739  -17.8754  -16.9832 N   0  0  0  0  0  0  0  0  0  0  0  0
   20.5398  -16.5026  -17.4967 C   0  0  0  0  0  0  0  0  0  0  0  0
   19.8597  -17.7239  -17.7564 O   0  0  0  0  0  0  0  0  0  0  0  0
   19.7871  -15.5006  -17.3557 O   0  0  0  0  0  0  0  0  0  0  0  0
  2  1  1  0
  3  2  1  0
  3  4  1  6
  5  6  2  0
  5  3  1  0
  7  8  1  0
  8 10  1  0
  9  8  2  0
 10 11  1  0
 12 11  1  1
 12 13  1  0
 13  5  1  0
 14 12  1  0
 15 14  2  0
 16 17  1  0
 17 18  1  0
 19 18  1  0
 20 19  1  6
 20 21  1  0
 20 22  1  0
 21 14  1  0
 22 23  1  0
 24 22  2  0
M  END
$$$$
