SQM.pdb
     RDKit          3D

 24 23  0  0  1  0  0  0  0  0999 V2000
   28.3353  -21.9073  -13.7824 O   0  0  0  0  0  0  0  0  0  0  0  0
   28.4805  -20.6970  -14.4557 C   0  0  0  0  0  0  0  0  0  0  0  0
   27.1328  -20.1197  -14.7629 C   0  0  2  0  0  0  0  0  0  0  0  0
   27.2799  -18.9902  -15.6248 N   0  0  0  0  0  0  0  0  0  0  0  0
   26.3985  -19.7373  -13.5266 C   0  0  0  0  0  0  0  0  0  0  0  0
   26.5969  -18.6658  -12.9187 O   0  0  0  0  0  0  0  0  0  0  0  0
   21.0216  -19.7251  -10.8242 N   0  0  0  0  0  0  0  0  0  0  0  0
   21.3005  -19.4882  -12.1964 C   0  0  0  0  0  0  0  0  0  0  0  0
   20.5515  -18.7592  -12.8822 O   0  0  0  0  0  0  0  0  0  0  0  0
   22.4808  -20.1141  -12.7852 C   0  0  0  0  0  0  0  0  0  0  0  0
   23.3480  -20.8862  -11.8567 C   0  0  0  0  0  0  0  0  0  0  0  0
   24.7674  -20.3928  -11.7485 C   0  0  2  0  0  0  0  0  0  0  0  0
   25.4283  -20.6234  -13.0086 N   0  0  0  0  0  0  0  0  0  0  0  0
   25.4511  -21.0698  -10.5979 C   0  0  0  0  0  0  0  0  0  0  0  0
   25.7973  -22.2488  -10.6733 O   0  0  0  0  0  0  0  0  0  0  0  0
   28.7673  -17.9536   -6.2510 C   0  0  0  0  0  0  0  0  0  0  0  0
   28.7370  -19.5379   -5.3288 S   0  0  0  0  0  0  0  0  0  0  0  0
   27.4966  -20.5816   -6.1167 C   0  0  0  0  0  0  0  0  0  0  0  0
   27.0639  -20.1009   -7.4469 C   0  0  0  0  0  0  0  0  0  0  0  0
   26.1013  -20.9267   -8.1469 C   0  0  2  0  0  0  0  0  0  0  0  0
   25.6951  -20.3526   -9.4330 N   0  0  0  0  0  0  0  0  0  0  0  0
   24.8944  -21.3059   -7.4424 C   0  0  0  0  0  0  0  0  0  0  0  0
   25.0293  -22.0689   -6.2503 O   0  0  0  0  0  0  0  0  0  0  0  0
   23.7049  -21.0368   -7.7634 O   0  0  0  0  0  0  0  0  0  0  0  0
  2  1  1  0
  3  2  1  0
  3  4  1  6
  5  6  2  0
  5  3  1  0
  7  8  1  0
  8 10  1  0
  9  8  2  0
 10 11  1  0
 12 11  1  6
 12 13  1  0
 13  5  1  0
 14 12  1  0
 15 14  2  0
 16 17  1  0
 17 18  1  0
 19 18  1  0
 20 19  1  1
 20 21  1  0
 20 22  1  0
 21 14  1  0
 22 23  1  0
 24 22  2  0
M  END
$$$$
