SQM.pdb
     RDKit          3D

 24 23  0  0  1  0  0  0  0  0999 V2000
   13.4725  -11.4164  -12.0619 O   0  0  0  0  0  0  0  0  0  0  0  0
   14.0555  -10.3696  -11.3524 C   0  0  0  0  0  0  0  0  0  0  0  0
   15.4231  -10.7676  -10.8886 C   0  0  2  0  0  0  0  0  0  0  0  0
   15.3211  -11.8654   -9.9805 N   0  0  0  0  0  0  0  0  0  0  0  0
   16.1449   -9.6328  -10.2522 C   0  0  0  0  0  0  0  0  0  0  0  0
   16.0934   -9.3909   -9.0291 O   0  0  0  0  0  0  0  0  0  0  0  0
   21.7551   -6.0053  -11.6422 N   0  0  0  0  0  0  0  0  0  0  0  0
   20.4585   -5.5072  -11.9385 C   0  0  0  0  0  0  0  0  0  0  0  0
   20.2766   -4.7418  -12.9099 O   0  0  0  0  0  0  0  0  0  0  0  0
   19.3456   -5.9105  -11.0838 C   0  0  0  0  0  0  0  0  0  0  0  0
   18.6401   -7.1610  -11.4694 C   0  0  0  0  0  0  0  0  0  0  0  0
   17.4974   -7.5538  -10.5694 C   0  0  2  0  0  0  0  0  0  0  0  0
   16.9286   -8.7827  -11.0634 N   0  0  0  0  0  0  0  0  0  0  0  0
   16.5008   -6.4350  -10.5011 C   0  0  0  0  0  0  0  0  0  0  0  0
   15.4898   -6.4451  -11.2037 O   0  0  0  0  0  0  0  0  0  0  0  0
   11.2180   -3.5922   -6.3097 C   0  0  0  0  0  0  0  0  0  0  0  0
   12.3439   -4.9031   -6.9222 S   0  0  0  0  0  0  0  0  0  0  0  0
   13.6677   -4.0795   -7.8266 C   0  0  0  0  0  0  0  0  0  0  0  0
   14.6705   -5.0043   -8.3984 C   0  0  0  0  0  0  0  0  0  0  0  0
   15.7201   -4.4017   -9.1945 C   0  0  2  0  0  0  0  0  0  0  0  0
   16.7257   -5.3747   -9.6315 N   0  0  0  0  0  0  0  0  0  0  0  0
   16.4287   -3.2691   -8.6363 C   0  0  0  0  0  0  0  0  0  0  0  0
   15.6710   -2.1244   -8.2661 O   0  0  0  0  0  0  0  0  0  0  0  0
   17.6690   -3.1679   -8.4322 O   0  0  0  0  0  0  0  0  0  0  0  0
  2  1  1  0
  3  2  1  0
  3  4  1  1
  5  6  2  0
  5  3  1  0
  7  8  1  0
  8 10  1  0
  9  8  2  0
 10 11  1  0
 12 11  1  6
 12 13  1  0
 13  5  1  0
 14 12  1  0
 15 14  2  0
 16 17  1  0
 17 18  1  0
 19 18  1  0
 20 19  1  1
 20 21  1  0
 20 22  1  0
 21 14  1  0
 22 23  1  0
 24 22  2  0
M  END
$$$$
