DMV.pdb
     RDKit          3D

 24 23  0  0  1  0  0  0  0  0999 V2000
   28.5857  -21.5397  -15.0286 N   0  0  0  0  0  0  0  0  0  0  0  0
   27.8128  -20.5025  -14.3723 C   0  0  1  0  0  0  0  0  0  0  0  0
   27.0872  -19.6405  -15.3861 C   0  0  0  0  0  0  0  0  0  0  0  0
   28.0208  -18.8249  -16.1907 C   0  0  0  0  0  0  0  0  0  0  0  0
   29.2641  -18.8656  -15.9405 O   0  0  0  0  0  0  0  0  0  0  0  0
   26.8050  -21.1441  -13.4964 C   0  0  0  0  0  0  0  0  0  0  0  0
   26.1818  -22.1737  -13.8947 O   0  0  0  0  0  0  0  0  0  0  0  0
   27.6219  -17.9950  -17.2291 O   0  0  0  0  0  0  0  0  0  0  0  0
   27.0579  -21.1120   -6.9889 C   0  0  0  0  0  0  0  0  0  0  0  0
   26.5448  -19.5283   -7.7222 S   0  0  0  0  0  0  0  0  0  0  0  0
   26.4352  -19.7571   -9.5032 C   0  0  0  0  0  0  0  0  0  0  0  0
   25.6035  -20.8962   -9.9518 C   0  0  0  0  0  0  0  0  0  0  0  0
   25.4404  -21.1037  -11.4123 C   0  0  2  0  0  0  0  0  0  0  0  0
   26.5302  -20.6128  -12.2084 N   0  0  0  0  0  0  0  0  0  0  0  0
   24.1675  -20.5494  -11.9430 C   0  0  0  0  0  0  0  0  0  0  0  0
   24.0741  -19.3164  -12.2158 O   0  0  0  0  0  0  0  0  0  0  0  0
   22.7013  -20.9886  -15.0434 C   0  0  0  0  0  0  0  0  0  0  0  0
   21.5327  -21.2949  -14.1308 C   0  0  1  0  0  0  0  0  0  0  0  0
   21.3394  -22.7917  -14.1213 C   0  0  0  0  0  0  0  0  0  0  0  0
   21.8400  -20.7409  -12.7661 C   0  0  2  0  0  0  0  0  0  0  0  0
   23.0121  -21.3426  -12.1708 N   0  0  0  0  0  0  0  0  0  0  0  0
   20.6886  -20.9540  -11.8767 C   0  0  0  0  0  0  0  0  0  0  0  0
   20.7963  -21.7048  -10.8886 O   0  0  0  0  0  0  0  0  0  0  0  0
   19.4925  -20.3281  -12.1310 O   0  0  0  0  0  0  0  0  0  0  0  0
  2  1  1  6
  2  3  1  0
  4  3  1  0
  4  8  1  0
  5  4  2  0
  6  7  2  0
  6  2  1  0
  9 10  1  0
 10 11  1  0
 11 12  1  0
 13 12  1  1
 13 14  1  0
 14  6  1  0
 15 13  1  0
 15 21  1  0
 16 15  2  0
 18 17  1  6
 18 20  1  0
 19 18  1  0
 20 21  1  1
 20 22  1  0
 22 24  1  0
 23 22  2  0
M  END
$$$$
