DMV.pdb
     RDKit          3D

 24 23  0  0  1  0  0  0  0  0999 V2000
   20.2714  -20.5697  -11.1954 N   0  0  0  0  0  0  0  0  0  0  0  0
   21.0631  -21.1864  -12.2425 C   0  0  1  0  0  0  0  0  0  0  0  0
   20.4197  -20.9871  -13.6005 C   0  0  0  0  0  0  0  0  0  0  0  0
   19.3131  -21.9381  -13.8352 C   0  0  0  0  0  0  0  0  0  0  0  0
   19.0173  -22.2750  -15.0222 O   0  0  0  0  0  0  0  0  0  0  0  0
   22.4019  -20.5526  -12.2611 C   0  0  0  0  0  0  0  0  0  0  0  0
   22.5055  -19.2891  -12.2715 O   0  0  0  0  0  0  0  0  0  0  0  0
   18.5541  -22.5039  -12.8204 O   0  0  0  0  0  0  0  0  0  0  0  0
   26.7519  -20.0750   -7.0393 C   0  0  0  0  0  0  0  0  0  0  0  0
   26.8220  -21.2020   -8.4655 S   0  0  0  0  0  0  0  0  0  0  0  0
   25.8193  -20.4900   -9.7785 C   0  0  0  0  0  0  0  0  0  0  0  0
   25.6761  -21.3198  -10.9956 C   0  0  0  0  0  0  0  0  0  0  0  0
   24.8799  -20.7697  -12.1209 C   0  0  2  0  0  0  0  0  0  0  0  0
   23.5754  -21.3522  -12.2674 N   0  0  0  0  0  0  0  0  0  0  0  0
   25.5878  -20.8376  -13.4260 C   0  0  0  0  0  0  0  0  0  0  0  0
   25.4362  -21.8423  -14.1817 O   0  0  0  0  0  0  0  0  0  0  0  0
   28.6195  -18.1403  -14.7535 C   0  0  0  0  0  0  0  0  0  0  0  0
   27.5209  -18.5522  -15.7105 C   0  0  1  0  0  0  0  0  0  0  0  0
   28.1234  -18.6316  -17.0920 C   0  0  0  0  0  0  0  0  0  0  0  0
   26.9578  -19.8680  -15.2466 C   0  0  2  0  0  0  0  0  0  0  0  0
   26.4514  -19.8121  -13.8936 N   0  0  0  0  0  0  0  0  0  0  0  0
   27.9975  -20.9047  -15.3260 C   0  0  0  0  0  0  0  0  0  0  0  0
   28.5482  -21.3143  -14.2865 O   0  0  0  0  0  0  0  0  0  0  0  0
   28.3651  -21.4245  -16.5433 O   0  0  0  0  0  0  0  0  0  0  0  0
  2  1  1  1
  2  3  1  0
  4  3  1  0
  4  8  1  0
  5  4  2  0
  6  7  2  0
  6  2  1  0
  9 10  1  0
 10 11  1  0
 11 12  1  0
 13 12  1  1
 13 14  1  0
 14  6  1  0
 15 13  1  0
 15 21  1  0
 16 15  2  0
 18 17  1  1
 18 20  1  0
 19 18  1  0
 20 21  1  1
 20 22  1  0
 22 24  1  0
 23 22  2  0
M  END
$$$$
