DMV.pdb
     RDKit          3D

 24 23  0  0  1  0  0  0  0  0999 V2000
   21.6738  -12.0580  -19.6701 N   0  0  0  0  0  0  0  0  0  0  0  0
   21.8629  -10.6214  -19.7362 C   0  0  1  0  0  0  0  0  0  0  0  0
   20.5944   -9.9255  -20.1881 C   0  0  0  0  0  0  0  0  0  0  0  0
   20.2952  -10.1866  -21.6116 C   0  0  0  0  0  0  0  0  0  0  0  0
   19.0931  -10.3631  -21.9773 O   0  0  0  0  0  0  0  0  0  0  0  0
   22.2128  -10.1261  -18.3846 C   0  0  0  0  0  0  0  0  0  0  0  0
   21.6525  -10.6235  -17.3620 O   0  0  0  0  0  0  0  0  0  0  0  0
   21.2636  -10.2540  -22.6034 O   0  0  0  0  0  0  0  0  0  0  0  0
   27.3109  -12.1192  -14.8597 C   0  0  0  0  0  0  0  0  0  0  0  0
   27.1390  -10.5543  -15.7711 S   0  0  0  0  0  0  0  0  0  0  0  0
   25.3818  -10.2192  -15.9613 C   0  0  0  0  0  0  0  0  0  0  0  0
   25.0427   -8.9467  -16.6366 C   0  0  0  0  0  0  0  0  0  0  0  0
   23.6124   -8.6728  -16.9231 C   0  0  2  0  0  0  0  0  0  0  0  0
   23.1749   -9.0939  -18.2245 N   0  0  0  0  0  0  0  0  0  0  0  0
   23.2394   -7.2474  -16.7268 C   0  0  0  0  0  0  0  0  0  0  0  0
   23.7072   -6.3549  -17.4936 O   0  0  0  0  0  0  0  0  0  0  0  0
   20.5488   -5.3945  -17.4944 C   0  0  0  0  0  0  0  0  0  0  0  0
   20.6664   -5.0631  -16.0217 C   0  0  1  0  0  0  0  0  0  0  0  0
   19.6093   -5.8527  -15.2891 C   0  0  0  0  0  0  0  0  0  0  0  0
   22.0610   -5.4021  -15.5702 C   0  0  2  0  0  0  0  0  0  0  0  0
   22.3623   -6.8103  -15.6994 N   0  0  0  0  0  0  0  0  0  0  0  0
   22.2355   -5.0022  -14.1661 C   0  0  0  0  0  0  0  0  0  0  0  0
   22.3525   -5.8715  -13.2816 O   0  0  0  0  0  0  0  0  0  0  0  0
   22.2700   -3.6722  -13.8244 O   0  0  0  0  0  0  0  0  0  0  0  0
  2  1  1  1
  2  3  1  0
  4  3  1  0
  4  8  1  0
  5  4  2  0
  6  7  2  0
  6  2  1  0
  9 10  1  0
 10 11  1  0
 11 12  1  0
 13 12  1  6
 13 14  1  0
 14  6  1  0
 15 13  1  0
 15 21  1  0
 16 15  2  0
 18 17  1  6
 18 20  1  0
 19 18  1  0
 20 21  1  1
 20 22  1  0
 22 24  1  0
 23 22  2  0
M  END
$$$$
