DMV.pdb
     RDKit          3D

 24 23  0  0  1  0  0  0  0  0999 V2000
   27.9620  -20.1795  -18.1858 N   0  0  0  0  0  0  0  0  0  0  0  0
   28.2089  -19.3982  -16.9890 C   0  0  1  0  0  0  0  0  0  0  0  0
   27.2948  -18.1905  -16.9291 C   0  0  0  0  0  0  0  0  0  0  0  0
   27.6546  -17.1716  -17.9373 C   0  0  0  0  0  0  0  0  0  0  0  0
   26.7970  -16.8152  -18.8019 O   0  0  0  0  0  0  0  0  0  0  0  0
   27.9418  -20.2469  -15.8045 C   0  0  0  0  0  0  0  0  0  0  0  0
   26.9224  -21.0000  -15.7807 O   0  0  0  0  0  0  0  0  0  0  0  0
   28.8988  -16.5607  -18.0065 O   0  0  0  0  0  0  0  0  0  0  0  0
   31.8009  -20.5031  -10.2081 C   0  0  0  0  0  0  0  0  0  0  0  0
   31.0492  -22.1514  -10.3733 S   0  0  0  0  0  0  0  0  0  0  0  0
   29.5813  -21.9857  -11.3999 C   0  0  0  0  0  0  0  0  0  0  0  0
   29.7689  -21.2499  -12.6702 C   0  0  0  0  0  0  0  0  0  0  0  0
   28.5760  -21.0236  -13.5238 C   0  0  2  0  0  0  0  0  0  0  0  0
   28.8224  -20.2235  -14.6907 N   0  0  0  0  0  0  0  0  0  0  0  0
   27.4249  -20.4490  -12.7794 C   0  0  0  0  0  0  0  0  0  0  0  0
   27.3510  -19.1999  -12.5855 O   0  0  0  0  0  0  0  0  0  0  0  0
   23.7238  -22.2914  -12.4158 C   0  0  0  0  0  0  0  0  0  0  0  0
   23.9513  -20.8031  -12.2555 C   0  0  1  0  0  0  0  0  0  0  0  0
   22.7904  -20.2448  -11.4690 C   0  0  0  0  0  0  0  0  0  0  0  0
   25.2722  -20.5979  -11.5649 C   0  0  2  0  0  0  0  0  0  0  0  0
   26.3683  -21.2397  -12.2555 N   0  0  0  0  0  0  0  0  0  0  0  0
   25.1981  -21.1223  -10.1932 C   0  0  0  0  0  0  0  0  0  0  0  0
   25.8841  -22.1094   -9.8666 O   0  0  0  0  0  0  0  0  0  0  0  0
   24.3743  -20.5278   -9.2685 O   0  0  0  0  0  0  0  0  0  0  0  0
  2  1  1  6
  2  3  1  0
  4  3  1  0
  4  8  1  0
  5  4  2  0
  6  7  2  0
  6  2  1  0
  9 10  1  0
 10 11  1  0
 11 12  1  0
 13 12  1  1
 13 14  1  0
 14  6  1  0
 15 13  1  0
 15 21  1  0
 16 15  2  0
 18 17  1  1
 18 20  1  0
 19 18  1  0
 20 21  1  6
 20 22  1  0
 22 24  1  0
 23 22  2  0
M  END
$$$$
