DMV.pdb
     RDKit          3D

 24 23  0  0  1  0  0  0  0  0999 V2000
   18.8851  -15.0435  -17.2959 N   0  0  0  0  0  0  0  0  0  0  0  0
   18.9159  -13.7025  -17.8478 C   0  0  1  0  0  0  0  0  0  0  0  0
   17.5167  -13.1329  -17.9724 C   0  0  0  0  0  0  0  0  0  0  0  0
   16.6920  -13.8926  -18.9351 C   0  0  0  0  0  0  0  0  0  0  0  0
   15.4268  -13.8455  -18.8507 O   0  0  0  0  0  0  0  0  0  0  0  0
   19.6963  -12.8324  -16.9375 C   0  0  0  0  0  0  0  0  0  0  0  0
   19.4907  -12.8758  -15.6874 O   0  0  0  0  0  0  0  0  0  0  0  0
   17.2190  -14.6752  -19.9529 O   0  0  0  0  0  0  0  0  0  0  0  0
   26.5973  -10.2850  -14.7655 C   0  0  0  0  0  0  0  0  0  0  0  0
   25.6291  -11.3371  -15.8901 S   0  0  0  0  0  0  0  0  0  0  0  0
   23.9125  -10.8069  -15.7973 C   0  0  0  0  0  0  0  0  0  0  0  0
   22.9602  -11.5737  -16.6312 C   0  0  0  0  0  0  0  0  0  0  0  0
   21.5294  -11.1815  -16.5896 C   0  0  2  0  0  0  0  0  0  0  0  0
   20.6773  -11.9464  -17.4563 N   0  0  0  0  0  0  0  0  0  0  0  0
   21.3118   -9.7349  -16.8531 C   0  0  0  0  0  0  0  0  0  0  0  0
   21.5772   -9.2476  -17.9912 O   0  0  0  0  0  0  0  0  0  0  0  0
   18.5533   -7.7015  -17.3471 C   0  0  0  0  0  0  0  0  0  0  0  0
   19.2653   -6.9595  -16.2359 C   0  0  1  0  0  0  0  0  0  0  0  0
   18.5216   -7.2352  -14.9518 C   0  0  0  0  0  0  0  0  0  0  0  0
   20.6936   -7.4302  -16.1917 C   0  0  2  0  0  0  0  0  0  0  0  0
   20.8080   -8.8364  -15.8759 N   0  0  0  0  0  0  0  0  0  0  0  0
   21.4382   -6.6526  -15.1902 C   0  0  0  0  0  0  0  0  0  0  0  0
   21.8258   -7.1996  -14.1404 O   0  0  0  0  0  0  0  0  0  0  0  0
   21.7088   -5.3234  -15.4072 O   0  0  0  0  0  0  0  0  0  0  0  0
  2  1  1  1
  2  3  1  0
  4  3  1  0
  4  8  1  0
  5  4  2  0
  6  7  2  0
  6  2  1  0
  9 10  1  0
 10 11  1  0
 11 12  1  0
 13 12  1  6
 13 14  1  0
 14  6  1  0
 15 13  1  0
 15 21  1  0
 16 15  2  0
 18 17  1  6
 18 20  1  0
 19 18  1  0
 20 21  1  1
 20 22  1  0
 22 24  1  0
 23 22  2  0
M  END
$$$$
