SEC.pdb
     RDKit          3D

 22 21  0  0  1  0  0  0  0  0999 V2000
    7.6587  -12.7562   20.3634 O   0  0  0  0  0  0  0  0  0  0  0  0
    8.4527  -13.8323   19.9911 C   0  0  0  0  0  0  0  0  0  0  0  0
    7.8043  -15.1490   20.2616 C   0  0  2  0  0  0  0  0  0  0  0  0
    6.4452  -15.1552   19.8155 N   0  0  0  0  0  0  0  0  0  0  0  0
    7.9110  -15.5037   21.7164 C   0  0  0  0  0  0  0  0  0  0  0  0
    6.8858  -15.4490   22.4422 O   0  0  0  0  0  0  0  0  0  0  0  0
    9.1791  -15.8927   22.2272 N   0  0  0  0  0  0  0  0  0  0  0  0
    9.3406  -16.2863   23.5852 C   0  0  1  0  0  0  0  0  0  0  0  0
   10.6081  -17.0732   23.8439 C   0  0  0  0  0  0  0  0  0  0  0  0
   10.4660  -17.9982   25.0231 C   0  0  0  0  0  0  0  0  0  0  0  0
   11.7469  -18.7317   25.1816 C   0  0  0  0  0  0  0  0  0  0  0  0
   11.9739  -19.3821   26.2323 O   0  0  0  0  0  0  0  0  0  0  0  0
    9.3188  -15.1535   24.5387 C   0  0  0  0  0  0  0  0  0  0  0  0
   10.1385  -14.2185   24.3553 O   0  0  0  0  0  0  0  0  0  0  0  0
   12.7372  -18.7400   24.2066 O   0  0  0  0  0  0  0  0  0  0  0  0
    8.4389  -15.0468   25.6453 N   0  0  0  0  0  0  0  0  0  0  0  0
    8.5328  -13.9515   26.6076 C   0  0  1  0  0  0  0  0  0  0  0  0
    7.1686  -13.4159   26.9646 C   0  0  0  0  0  0  0  0  0  0  0  0
    6.1942  -13.0113   25.4954 S   0  0  0  0  0  0  0  0  0  0  0  0
    9.2808  -14.4177   27.8220 C   0  0  0  0  0  0  0  0  0  0  0  0
    9.5784  -13.5538   28.8652 O   0  0  0  0  0  0  0  0  0  0  0  0
    9.6655  -15.6108   27.9379 O   0  0  0  0  0  0  0  0  0  0  0  0
  1  2  1  0
  2  3  1  0
  3  4  1  1
  5  7  1  0
  5  3  1  0
  6  5  2  0
  8 13  1  0
  8  7  1  0
  8  9  1  6
 10 11  1  0
 10  9  1  0
 11 15  1  0
 12 11  2  0
 13 16  1  0
 14 13  2  0
 16 17  1  0
 17 20  1  0
 17 18  1  1
 18 19  1  0
 20 21  1  0
 22 20  2  0
M  END
$$$$
