SEC.pdb
     RDKit          3D

 22 21  0  0  1  0  0  0  0  0999 V2000
   11.8966  -15.3180   20.4548 O   0  0  0  0  0  0  0  0  0  0  0  0
   12.6345  -16.4712   20.6844 C   0  0  0  0  0  0  0  0  0  0  0  0
   11.7764  -17.6774   20.8740 C   0  0  2  0  0  0  0  0  0  0  0  0
   10.7902  -17.7753   19.8424 N   0  0  0  0  0  0  0  0  0  0  0  0
   11.1514  -17.6744   22.2389 C   0  0  0  0  0  0  0  0  0  0  0  0
    9.9195  -17.4500   22.3535 O   0  0  0  0  0  0  0  0  0  0  0  0
   11.9817  -17.9276   23.3643 N   0  0  0  0  0  0  0  0  0  0  0  0
   11.4407  -18.0180   24.6775 C   0  0  1  0  0  0  0  0  0  0  0  0
   12.2349  -18.9163   25.6021 C   0  0  0  0  0  0  0  0  0  0  0  0
   11.6246  -18.9909   26.9763 C   0  0  0  0  0  0  0  0  0  0  0  0
   12.5289  -19.8002   27.8313 C   0  0  0  0  0  0  0  0  0  0  0  0
   13.6527  -19.3475   28.1641 O   0  0  0  0  0  0  0  0  0  0  0  0
   11.2928  -16.7074   25.3507 C   0  0  0  0  0  0  0  0  0  0  0  0
   12.1983  -15.8538   25.1748 O   0  0  0  0  0  0  0  0  0  0  0  0
   12.1938  -21.0658   28.2977 O   0  0  0  0  0  0  0  0  0  0  0  0
   10.2019  -16.3449   26.1807 N   0  0  0  0  0  0  0  0  0  0  0  0
   10.1091  -15.0289   26.8083 C   0  0  1  0  0  0  0  0  0  0  0  0
    8.7342  -14.4334   26.6344 C   0  0  0  0  0  0  0  0  0  0  0  0
    8.5100  -12.9433   27.6348 S   0  0  0  0  0  0  0  0  0  0  0  0
   10.4865  -15.1395   28.2563 C   0  0  0  0  0  0  0  0  0  0  0  0
   10.8151  -14.0205   29.0067 O   0  0  0  0  0  0  0  0  0  0  0  0
   10.5187  -16.2529   28.8430 O   0  0  0  0  0  0  0  0  0  0  0  0
  1  2  1  0
  2  3  1  0
  3  4  1  6
  5  7  1  0
  5  3  1  0
  6  5  2  0
  8 13  1  0
  8  7  1  0
  8  9  1  1
 10 11  1  0
 10  9  1  0
 11 15  1  0
 12 11  2  0
 13 16  1  0
 14 13  2  0
 16 17  1  0
 17 20  1  0
 17 18  1  1
 18 19  1  0
 20 21  1  0
 22 20  2  0
M  END
$$$$
