SEC.pdb
     RDKit          3D

 22 21  0  0  1  0  0  0  0  0999 V2000
    6.5938  -14.5037   20.5643 O   0  0  0  0  0  0  0  0  0  0  0  0
    7.5138  -15.1218   19.7286 C   0  0  0  0  0  0  0  0  0  0  0  0
    7.7958  -16.5330   20.1239 C   0  0  2  0  0  0  0  0  0  0  0  0
    6.6107  -17.3317   20.0625 N   0  0  0  0  0  0  0  0  0  0  0  0
    8.4295  -16.5862   21.4838 C   0  0  0  0  0  0  0  0  0  0  0  0
    7.7343  -16.9214   22.4763 O   0  0  0  0  0  0  0  0  0  0  0  0
    9.8060  -16.2527   21.6028 N   0  0  0  0  0  0  0  0  0  0  0  0
   10.4589  -16.2456   22.8673 C   0  0  1  0  0  0  0  0  0  0  0  0
   11.9658  -16.1320   22.7733 C   0  0  0  0  0  0  0  0  0  0  0  0
   12.6266  -16.2760   24.1183 C   0  0  0  0  0  0  0  0  0  0  0  0
   14.0938  -16.1735   23.9166 C   0  0  0  0  0  0  0  0  0  0  0  0
   14.6610  -15.0542   23.9794 O   0  0  0  0  0  0  0  0  0  0  0  0
    9.9883  -15.1727   23.7730 C   0  0  0  0  0  0  0  0  0  0  0  0
    9.8247  -14.0258   23.2858 O   0  0  0  0  0  0  0  0  0  0  0  0
   14.8982  -17.2761   23.6547 O   0  0  0  0  0  0  0  0  0  0  0  0
    9.7085  -15.3456   25.1521 N   0  0  0  0  0  0  0  0  0  0  0  0
    9.1480  -14.2725   25.9699 C   0  0  1  0  0  0  0  0  0  0  0  0
    7.7872  -13.8553   25.4706 C   0  0  0  0  0  0  0  0  0  0  0  0
    6.9890  -12.6757   26.5856 S   0  0  0  0  0  0  0  0  0  0  0  0
    9.1020  -14.7110   27.4042 C   0  0  0  0  0  0  0  0  0  0  0  0
    9.5544  -15.9627   27.7937 O   0  0  0  0  0  0  0  0  0  0  0  0
    8.6509  -13.9580   28.3066 O   0  0  0  0  0  0  0  0  0  0  0  0
  1  2  1  0
  2  3  1  0
  3  4  1  1
  5  7  1  0
  5  3  1  0
  6  5  2  0
  8 13  1  0
  8  7  1  0
  8  9  1  6
 10 11  1  0
 10  9  1  0
 11 15  1  0
 12 11  2  0
 13 16  1  0
 14 13  2  0
 16 17  1  0
 17 20  1  0
 17 18  1  6
 18 19  1  0
 20 21  1  0
 22 20  2  0
M  END
$$$$
