SEC.pdb
     RDKit          3D

 22 21  0  0  1  0  0  0  0  0999 V2000
   13.3268  -15.5235   19.2440 O   0  0  0  0  0  0  0  0  0  0  0  0
   12.4897  -15.5393   20.3513 C   0  0  0  0  0  0  0  0  0  0  0  0
   11.7529  -16.8286   20.4995 C   0  0  2  0  0  0  0  0  0  0  0  0
   10.8237  -17.0170   19.4283 N   0  0  0  0  0  0  0  0  0  0  0  0
   11.0769  -16.9023   21.8379 C   0  0  0  0  0  0  0  0  0  0  0  0
    9.9074  -16.4583   21.9644 O   0  0  0  0  0  0  0  0  0  0  0  0
   11.7893  -17.4766   22.9255 N   0  0  0  0  0  0  0  0  0  0  0  0
   11.1667  -17.6909   24.1871 C   0  0  1  0  0  0  0  0  0  0  0  0
   11.8413  -18.7561   25.0254 C   0  0  0  0  0  0  0  0  0  0  0  0
   11.1492  -18.9547   26.3475 C   0  0  0  0  0  0  0  0  0  0  0  0
   11.8820  -20.0113   27.0893 C   0  0  0  0  0  0  0  0  0  0  0  0
   12.2043  -19.8292   28.2900 O   0  0  0  0  0  0  0  0  0  0  0  0
   11.0695  -16.4683   25.0169 C   0  0  0  0  0  0  0  0  0  0  0  0
   12.0824  -15.7276   25.0884 O   0  0  0  0  0  0  0  0  0  0  0  0
   12.2421  -21.2247   26.5152 O   0  0  0  0  0  0  0  0  0  0  0  0
    9.9149  -16.0718   25.7379 N   0  0  0  0  0  0  0  0  0  0  0  0
    9.8778  -14.8431   26.5275 C   0  0  1  0  0  0  0  0  0  0  0  0
    8.5266  -14.1778   26.4446 C   0  0  0  0  0  0  0  0  0  0  0  0
    8.3912  -12.7759   27.5795 S   0  0  0  0  0  0  0  0  0  0  0  0
   10.2587  -15.1504   27.9459 C   0  0  0  0  0  0  0  0  0  0  0  0
   10.7607  -14.1708   28.7895 O   0  0  0  0  0  0  0  0  0  0  0  0
   10.1362  -16.3094   28.4220 O   0  0  0  0  0  0  0  0  0  0  0  0
  1  2  1  0
  2  3  1  0
  3  4  1  6
  5  7  1  0
  5  3  1  0
  6  5  2  0
  8 13  1  0
  8  7  1  0
  8  9  1  1
 10 11  1  0
 10  9  1  0
 11 15  1  0
 12 11  2  0
 13 16  1  0
 14 13  2  0
 16 17  1  0
 17 20  1  0
 17 18  1  1
 18 19  1  0
 20 21  1  0
 22 20  2  0
M  END
$$$$
