SEC.pdb
     RDKit          3D

 22 21  0  0  1  0  0  0  0  0999 V2000
    9.3333  -11.9704   18.5796 O   0  0  0  0  0  0  0  0  0  0  0  0
    8.7610  -12.4847   19.7351 C   0  0  0  0  0  0  0  0  0  0  0  0
    8.3913  -13.9246   19.6046 C   0  0  2  0  0  0  0  0  0  0  0  0
    7.2706  -14.0916   18.7314 N   0  0  0  0  0  0  0  0  0  0  0  0
    8.1369  -14.5312   20.9540 C   0  0  0  0  0  0  0  0  0  0  0  0
    6.9860  -14.4612   21.4555 O   0  0  0  0  0  0  0  0  0  0  0  0
    9.2159  -15.1693   21.6238 N   0  0  0  0  0  0  0  0  0  0  0  0
    9.0333  -15.8014   22.8858 C   0  0  1  0  0  0  0  0  0  0  0  0
    9.9900  -16.9480   23.1359 C   0  0  0  0  0  0  0  0  0  0  0  0
    9.7827  -17.5690   24.4916 C   0  0  0  0  0  0  0  0  0  0  0  0
   10.8020  -18.6345   24.6634 C   0  0  0  0  0  0  0  0  0  0  0  0
   11.9029  -18.3705   25.2085 O   0  0  0  0  0  0  0  0  0  0  0  0
    9.1407  -14.8746   24.0356 C   0  0  0  0  0  0  0  0  0  0  0  0
   10.2135  -14.2342   24.1726 O   0  0  0  0  0  0  0  0  0  0  0  0
   10.6024  -19.9444   24.2440 O   0  0  0  0  0  0  0  0  0  0  0  0
    8.1196  -14.6566   24.9948 N   0  0  0  0  0  0  0  0  0  0  0  0
    8.2601  -13.6744   26.0672 C   0  0  1  0  0  0  0  0  0  0  0  0
    7.0729  -12.7455   26.1198 C   0  0  0  0  0  0  0  0  0  0  0  0
    5.5184  -13.6447   26.3356 S   0  0  0  0  0  0  0  0  0  0  0  0
    8.4653  -14.3868   27.3717 C   0  0  0  0  0  0  0  0  0  0  0  0
    8.8381  -13.7033   28.5193 O   0  0  0  0  0  0  0  0  0  0  0  0
    8.3063  -15.6316   27.4719 O   0  0  0  0  0  0  0  0  0  0  0  0
  1  2  1  0
  2  3  1  0
  3  4  1  6
  5  7  1  0
  5  3  1  0
  6  5  2  0
  8 13  1  0
  8  7  1  0
  8  9  1  1
 10 11  1  0
 10  9  1  0
 11 15  1  0
 12 11  2  0
 13 16  1  0
 14 13  2  0
 16 17  1  0
 17 20  1  0
 17 18  1  1
 18 19  1  0
 20 21  1  0
 22 20  2  0
M  END
$$$$
