SEC.pdb
     RDKit          3D

 22 21  0  0  1  0  0  0  0  0999 V2000
    8.1667  -12.7194   18.2779 O   0  0  0  0  0  0  0  0  0  0  0  0
    7.9677  -13.1389   19.5861 C   0  0  0  0  0  0  0  0  0  0  0  0
    7.9387  -14.6252   19.7177 C   0  0  2  0  0  0  0  0  0  0  0  0
    6.8306  -15.1838   19.0060 N   0  0  0  0  0  0  0  0  0  0  0  0
    7.9286  -15.0295   21.1634 C   0  0  0  0  0  0  0  0  0  0  0  0
    6.8339  -15.2914   21.7238 O   0  0  0  0  0  0  0  0  0  0  0  0
    9.1684  -15.1028   21.8546 N   0  0  0  0  0  0  0  0  0  0  0  0
    9.2371  -15.5430   23.2062 C   0  0  1  0  0  0  0  0  0  0  0  0
   10.5289  -16.2543   23.5494 C   0  0  0  0  0  0  0  0  0  0  0  0
   10.5753  -17.6455   22.9760 C   0  0  0  0  0  0  0  0  0  0  0  0
   11.9289  -18.1979   23.2340 C   0  0  0  0  0  0  0  0  0  0  0  0
   12.9349  -17.6791   22.6886 O   0  0  0  0  0  0  0  0  0  0  0  0
    9.0522  -14.4564   24.1950 C   0  0  0  0  0  0  0  0  0  0  0  0
    9.1994  -13.2729   23.7983 O   0  0  0  0  0  0  0  0  0  0  0  0
   12.1530  -19.2869   24.0678 O   0  0  0  0  0  0  0  0  0  0  0  0
    8.7205  -14.6544   25.5592 N   0  0  0  0  0  0  0  0  0  0  0  0
    8.5595  -13.5380   26.4879 C   0  0  1  0  0  0  0  0  0  0  0  0
    7.4952  -12.5796   26.0149 C   0  0  0  0  0  0  0  0  0  0  0  0
    5.8289  -13.2033   26.3409 S   0  0  0  0  0  0  0  0  0  0  0  0
    8.2581  -14.0693   27.8584 C   0  0  0  0  0  0  0  0  0  0  0  0
    8.0482  -15.4219   28.0808 O   0  0  0  0  0  0  0  0  0  0  0  0
    8.1848  -13.3058   28.8568 O   0  0  0  0  0  0  0  0  0  0  0  0
  1  2  1  0
  2  3  1  0
  3  4  1  6
  5  7  1  0
  5  3  1  0
  6  5  2  0
  8 13  1  0
  8  7  1  0
  8  9  1  1
 10 11  1  0
 10  9  1  0
 11 15  1  0
 12 11  2  0
 13 16  1  0
 14 13  2  0
 16 17  1  0
 17 20  1  0
 17 18  1  6
 18 19  1  0
 20 21  1  0
 22 20  2  0
M  END
$$$$
