LPM.pdb
     RDKit          3D

 24 24  0  0  1  0  0  0  0  0999 V2000
    9.0391  -19.2545   17.4755 C   0  0  0  0  0  0  0  0  0  0  0  0
   10.1268  -19.6318   18.4192 C   0  0  2  0  0  0  0  0  0  0  0  0
   10.0471  -21.1139   18.7170 C   0  0  0  0  0  0  0  0  0  0  0  0
   10.2869  -18.7819   19.6236 C   0  0  0  0  0  0  0  0  0  0  0  0
   10.3943  -17.2978   19.3618 C   0  0  2  0  0  0  0  0  0  0  0  0
   11.6238  -16.9502   18.7249 N   0  0  0  0  0  0  0  0  0  0  0  0
   10.1300  -16.4628   20.5258 C   0  0  0  0  0  0  0  0  0  0  0  0
   11.1646  -16.0413   21.1551 O   0  0  0  0  0  0  0  0  0  0  0  0
    8.8687  -16.0616   21.0454 N   0  0  0  0  0  0  0  0  0  0  0  0
    7.6128  -16.2690   20.4013 C   0  0  0  0  0  0  0  0  0  0  0  0
    6.6926  -15.2573   21.0551 C   0  0  0  0  0  0  0  0  0  0  0  0
    7.2591  -15.0756   22.4409 C   0  0  0  0  0  0  0  0  0  0  0  0
    8.6836  -15.4060   22.2806 C   0  0  1  0  0  0  0  0  0  0  0  0
    9.2506  -16.1523   23.4386 C   0  0  0  0  0  0  0  0  0  0  0  0
    9.5651  -17.3424   23.2671 O   0  0  0  0  0  0  0  0  0  0  0  0
   10.3829  -12.5508   28.8028 C   0  0  0  0  0  0  0  0  0  0  0  0
   10.6977  -14.1989   29.4747 S   0  0  0  0  0  0  0  0  0  0  0  0
   10.6036  -15.4337   28.2470 C   0  0  0  0  0  0  0  0  0  0  0  0
   10.1988  -15.2447   26.8782 C   0  0  0  0  0  0  0  0  0  0  0  0
   10.0612  -16.2841   25.8465 C   0  0  2  0  0  0  0  0  0  0  0  0
    9.4259  -15.5344   24.6852 N   0  0  0  0  0  0  0  0  0  0  0  0
    8.9790  -17.2427   26.2051 C   0  0  0  0  0  0  0  0  0  0  0  0
    9.3292  -18.4292   26.8761 O   0  0  0  0  0  0  0  0  0  0  0  0
    7.7801  -17.0999   25.9685 O   0  0  0  0  0  0  0  0  0  0  0  0
  2  1  1  1
  2  3  1  0
  4  2  1  0
  5  6  1  1
  5  7  1  0
  5  4  1  0
  7  9  1  0
  7  8  2  0
  9 10  1  0
 11 10  1  0
 12 13  1  0
 12 11  1  0
 13  9  1  0
 14 15  2  0
 13 14  1  1
 16 17  1  0
 18 19  1  0
 18 17  1  0
 20 19  1  1
 20 21  1  0
 21 14  1  0
 22 20  1  0
 22 23  1  0
 24 22  2  0
M  END
$$$$
