LPM.pdb
     RDKit          3D

 24 24  0  0  1  0  0  0  0  0999 V2000
    7.3767  -20.4243   20.3148 C   0  0  0  0  0  0  0  0  0  0  0  0
    8.4418  -19.4196   20.0470 C   0  0  2  0  0  0  0  0  0  0  0  0
    9.6840  -20.1213   19.5406 C   0  0  0  0  0  0  0  0  0  0  0  0
    8.7033  -18.4263   21.1164 C   0  0  0  0  0  0  0  0  0  0  0  0
    9.5921  -17.2690   20.7249 C   0  0  2  0  0  0  0  0  0  0  0  0
   10.9669  -17.6463   20.6496 N   0  0  0  0  0  0  0  0  0  0  0  0
    9.4011  -16.0681   21.5270 C   0  0  0  0  0  0  0  0  0  0  0  0
   10.1272  -15.9807   22.5801 O   0  0  0  0  0  0  0  0  0  0  0  0
    8.5102  -14.9870   21.2836 N   0  0  0  0  0  0  0  0  0  0  0  0
    7.7051  -14.8347   20.1157 C   0  0  0  0  0  0  0  0  0  0  0  0
    7.3629  -13.3581   20.0948 C   0  0  0  0  0  0  0  0  0  0  0  0
    7.3735  -12.9500   21.5466 C   0  0  0  0  0  0  0  0  0  0  0  0
    8.2926  -13.9132   22.1722 C   0  0  1  0  0  0  0  0  0  0  0  0
    7.8594  -14.3463   23.5302 C   0  0  0  0  0  0  0  0  0  0  0  0
    8.0138  -15.5405   23.8377 O   0  0  0  0  0  0  0  0  0  0  0  0
   10.5224  -15.4737   29.6366 C   0  0  0  0  0  0  0  0  0  0  0  0
   10.3111  -14.0431   28.5524 S   0  0  0  0  0  0  0  0  0  0  0  0
    8.7067  -13.9698   27.8729 C   0  0  0  0  0  0  0  0  0  0  0  0
    8.3782  -13.8152   26.4796 C   0  0  0  0  0  0  0  0  0  0  0  0
    7.0344  -13.8344   25.8818 C   0  0  2  0  0  0  0  0  0  0  0  0
    7.2947  -13.4373   24.4365 N   0  0  0  0  0  0  0  0  0  0  0  0
    6.2266  -12.6793   26.3633 C   0  0  0  0  0  0  0  0  0  0  0  0
    6.5675  -11.3894   25.9153 O   0  0  0  0  0  0  0  0  0  0  0  0
    5.2681  -12.7389   27.1323 O   0  0  0  0  0  0  0  0  0  0  0  0
  2  1  1  1
  2  3  1  0
  4  2  1  0
  5  6  1  1
  5  7  1  0
  5  4  1  0
  7  9  1  0
  7  8  2  0
  9 10  1  0
 11 10  1  0
 12 13  1  0
 12 11  1  0
 13  9  1  0
 14 15  2  0
 13 14  1  1
 16 17  1  0
 18 19  1  0
 18 17  1  0
 20 19  1  1
 20 21  1  0
 21 14  1  0
 22 20  1  0
 22 23  1  0
 24 22  2  0
M  END
$$$$
