LPM.pdb
     RDKit          3D

 24 24  0  0  1  0  0  0  0  0999 V2000
    3.2348  -18.2998   19.0362 C   0  0  0  0  0  0  0  0  0  0  0  0
    3.7109  -18.7055   20.3869 C   0  0  2  0  0  0  0  0  0  0  0  0
    2.5237  -18.8899   21.3080 C   0  0  0  0  0  0  0  0  0  0  0  0
    4.8107  -17.9024   20.9734 C   0  0  0  0  0  0  0  0  0  0  0  0
    6.0452  -17.7654   20.1132 C   0  0  2  0  0  0  0  0  0  0  0  0
    6.6310  -19.0303   19.8052 N   0  0  0  0  0  0  0  0  0  0  0  0
    7.0295  -16.8202   20.6230 C   0  0  0  0  0  0  0  0  0  0  0  0
    7.9125  -17.3084   21.4141 O   0  0  0  0  0  0  0  0  0  0  0  0
    7.1276  -15.4282   20.3502 N   0  0  0  0  0  0  0  0  0  0  0  0
    6.3498  -14.7252   19.3826 C   0  0  0  0  0  0  0  0  0  0  0  0
    7.1477  -13.4644   19.1148 C   0  0  0  0  0  0  0  0  0  0  0  0
    7.8872  -13.2077   20.4039 C   0  0  0  0  0  0  0  0  0  0  0  0
    8.0076  -14.5435   21.0080 C   0  0  1  0  0  0  0  0  0  0  0  0
    7.8454  -14.5384   22.4890 C   0  0  0  0  0  0  0  0  0  0  0  0
    6.7982  -14.0619   22.9588 O   0  0  0  0  0  0  0  0  0  0  0  0
    8.3128  -12.5259   28.7340 C   0  0  0  0  0  0  0  0  0  0  0  0
    7.1200  -12.8219   27.4087 S   0  0  0  0  0  0  0  0  0  0  0  0
    7.3120  -14.4029   26.6983 C   0  0  0  0  0  0  0  0  0  0  0  0
    7.6921  -14.6851   25.3385 C   0  0  0  0  0  0  0  0  0  0  0  0
    9.0266  -14.5199   24.7422 C   0  0  2  0  0  0  0  0  0  0  0  0
    8.8414  -15.0549   23.3302 N   0  0  0  0  0  0  0  0  0  0  0  0
    9.9835  -15.5106   25.3091 C   0  0  0  0  0  0  0  0  0  0  0  0
   10.2096  -16.7057   24.6011 O   0  0  0  0  0  0  0  0  0  0  0  0
   10.6122  -15.3880   26.3596 O   0  0  0  0  0  0  0  0  0  0  0  0
  2  1  1  6
  2  3  1  0
  4  2  1  0
  5  6  1  1
  5  7  1  0
  5  4  1  0
  7  9  1  0
  7  8  2  0
  9 10  1  0
 11 10  1  0
 12 13  1  0
 12 11  1  0
 13  9  1  0
 14 15  2  0
 13 14  1  1
 16 17  1  0
 18 19  1  0
 18 17  1  0
 20 19  1  1
 20 21  1  0
 21 14  1  0
 22 20  1  0
 22 23  1  0
 24 22  2  0
M  END
$$$$
