LPM.pdb
     RDKit          3D

 24 24  0  0  1  0  0  0  0  0999 V2000
    8.6846  -13.6947   18.9095 C   0  0  0  0  0  0  0  0  0  0  0  0
    7.7206  -13.4196   20.0100 C   0  0  2  0  0  0  0  0  0  0  0  0
    7.6089  -11.9251   20.2235 C   0  0  0  0  0  0  0  0  0  0  0  0
    7.8995  -14.1962   21.2604 C   0  0  0  0  0  0  0  0  0  0  0  0
    7.8129  -15.6971   21.1109 C   0  0  2  0  0  0  0  0  0  0  0  0
    6.4662  -16.1477   20.9638 N   0  0  0  0  0  0  0  0  0  0  0  0
    8.5269  -16.4442   22.1376 C   0  0  0  0  0  0  0  0  0  0  0  0
    7.8702  -16.6789   23.2135 O   0  0  0  0  0  0  0  0  0  0  0  0
    9.8582  -16.9414   22.0901 N   0  0  0  0  0  0  0  0  0  0  0  0
   10.6931  -16.9409   20.9332 C   0  0  0  0  0  0  0  0  0  0  0  0
   11.7441  -17.9900   21.2376 C   0  0  0  0  0  0  0  0  0  0  0  0
   11.8609  -17.9787   22.7412 C   0  0  0  0  0  0  0  0  0  0  0  0
   10.5439  -17.5002   23.1889 C   0  0  1  0  0  0  0  0  0  0  0  0
   10.6152  -16.5914   24.3673 C   0  0  0  0  0  0  0  0  0  0  0  0
   10.5922  -15.3662   24.1603 O   0  0  0  0  0  0  0  0  0  0  0  0
    7.6379  -12.0612   27.3771 C   0  0  0  0  0  0  0  0  0  0  0  0
    9.0921  -13.0569   27.7778 S   0  0  0  0  0  0  0  0  0  0  0  0
    8.7226  -14.7603   27.8319 C   0  0  0  0  0  0  0  0  0  0  0  0
    9.2778  -15.7796   26.9800 C   0  0  0  0  0  0  0  0  0  0  0  0
   10.6925  -16.1687   26.8748 C   0  0  2  0  0  0  0  0  0  0  0  0
   10.7052  -17.0992   25.6714 N   0  0  0  0  0  0  0  0  0  0  0  0
   11.0651  -17.1033   27.9732 C   0  0  0  0  0  0  0  0  0  0  0  0
   11.8365  -16.6090   29.0416 O   0  0  0  0  0  0  0  0  0  0  0  0
   10.7601  -18.2931   28.0436 O   0  0  0  0  0  0  0  0  0  0  0  0
  2  1  1  6
  2  3  1  0
  4  2  1  0
  5  6  1  1
  5  7  1  0
  5  4  1  0
  7  9  1  0
  7  8  2  0
  9 10  1  0
 11 10  1  0
 12 13  1  0
 12 11  1  0
 13  9  1  0
 14 15  2  0
 13 14  1  1
 16 17  1  0
 18 19  1  0
 18 17  1  0
 20 19  1  1
 20 21  1  0
 21 14  1  0
 22 20  1  0
 22 23  1  0
 24 22  2  0
M  END
$$$$
