LPM.pdb
     RDKit          3D

 24 24  0  0  1  0  0  0  0  0999 V2000
    5.8076  -12.2152   26.7269 C   0  0  0  0  0  0  0  0  0  0  0  0
    6.4145  -13.4689   26.2019 C   0  0  2  0  0  0  0  0  0  0  0  0
    7.8411  -13.1998   25.7729 C   0  0  0  0  0  0  0  0  0  0  0  0
    5.6181  -14.2278   25.2077 C   0  0  0  0  0  0  0  0  0  0  0  0
    5.9616  -15.6937   25.0826 C   0  0  2  0  0  0  0  0  0  0  0  0
    5.8104  -16.3905   26.3194 N   0  0  0  0  0  0  0  0  0  0  0  0
    7.2547  -15.9561   24.4653 C   0  0  0  0  0  0  0  0  0  0  0  0
    8.0547  -16.6954   25.1417 O   0  0  0  0  0  0  0  0  0  0  0  0
    7.7339  -15.4928   23.2094 N   0  0  0  0  0  0  0  0  0  0  0  0
    7.0304  -14.6080   22.3390 C   0  0  0  0  0  0  0  0  0  0  0  0
    7.6789  -14.8295   20.9868 C   0  0  0  0  0  0  0  0  0  0  0  0
    9.0928  -15.2413   21.3119 C   0  0  0  0  0  0  0  0  0  0  0  0
    8.9817  -15.8402   22.6509 C   0  0  1  0  0  0  0  0  0  0  0  0
   10.1365  -15.5232   23.5371 C   0  0  0  0  0  0  0  0  0  0  0  0
   10.1881  -14.3896   24.0438 O   0  0  0  0  0  0  0  0  0  0  0  0
   10.6870  -13.9076   29.3144 C   0  0  0  0  0  0  0  0  0  0  0  0
   10.8790  -14.3510   27.5728 S   0  0  0  0  0  0  0  0  0  0  0  0
   11.2183  -16.0488   27.3646 C   0  0  0  0  0  0  0  0  0  0  0  0
   11.3717  -16.7391   26.1104 C   0  0  0  0  0  0  0  0  0  0  0  0
   12.1246  -16.2770   24.9343 C   0  0  2  0  0  0  0  0  0  0  0  0
   11.1364  -16.4722   23.7942 N   0  0  0  0  0  0  0  0  0  0  0  0
   13.1885  -17.2544   24.5720 C   0  0  0  0  0  0  0  0  0  0  0  0
   14.0060  -16.9749   23.4610 O   0  0  0  0  0  0  0  0  0  0  0  0
   13.4317  -18.3078   25.1593 O   0  0  0  0  0  0  0  0  0  0  0  0
  2  1  1  6
  2  3  1  0
  4  2  1  0
  5  6  1  1
  5  7  1  0
  5  4  1  0
  7  9  1  0
  7  8  2  0
  9 10  1  0
 11 10  1  0
 12 13  1  0
 12 11  1  0
 13  9  1  0
 14 15  2  0
 13 14  1  1
 16 17  1  0
 18 19  1  0
 18 17  1  0
 20 19  1  1
 20 21  1  0
 21 14  1  0
 22 20  1  0
 22 23  1  0
 24 22  2  0
M  END
$$$$
