LPM.pdb
     RDKit          3D

 24 24  0  0  1  0  0  0  0  0999 V2000
    5.8414  -12.7484   27.2331 C   0  0  0  0  0  0  0  0  0  0  0  0
    6.6275  -13.5185   26.2308 C   0  0  2  0  0  0  0  0  0  0  0  0
    7.7961  -12.6830   25.7534 C   0  0  0  0  0  0  0  0  0  0  0  0
    5.8610  -14.1644   25.1382 C   0  0  0  0  0  0  0  0  0  0  0  0
    6.1362  -15.6358   24.9332 C   0  0  2  0  0  0  0  0  0  0  0  0
    5.9399  -16.3926   26.1277 N   0  0  0  0  0  0  0  0  0  0  0  0
    7.4217  -15.9246   24.3118 C   0  0  0  0  0  0  0  0  0  0  0  0
    8.2067  -16.6840   24.9836 O   0  0  0  0  0  0  0  0  0  0  0  0
    7.9080  -15.4674   23.0564 N   0  0  0  0  0  0  0  0  0  0  0  0
    7.1999  -14.6052   22.1672 C   0  0  0  0  0  0  0  0  0  0  0  0
    7.8687  -14.8309   20.8257 C   0  0  0  0  0  0  0  0  0  0  0  0
    9.2856  -15.2139   21.1726 C   0  0  0  0  0  0  0  0  0  0  0  0
    9.1686  -15.7991   22.5171 C   0  0  1  0  0  0  0  0  0  0  0  0
   10.3067  -15.4516   23.4134 C   0  0  0  0  0  0  0  0  0  0  0  0
   10.4118  -14.2722   23.7910 O   0  0  0  0  0  0  0  0  0  0  0  0
   10.5864  -13.1643   28.2503 C   0  0  0  0  0  0  0  0  0  0  0  0
   11.9677  -14.3296   28.2247 S   0  0  0  0  0  0  0  0  0  0  0  0
   11.5167  -15.8618   27.5248 C   0  0  0  0  0  0  0  0  0  0  0  0
   11.1965  -16.1053   26.1423 C   0  0  0  0  0  0  0  0  0  0  0  0
   12.1411  -16.1828   25.0174 C   0  0  2  0  0  0  0  0  0  0  0  0
   11.2328  -16.4226   23.8209 N   0  0  0  0  0  0  0  0  0  0  0  0
   12.9109  -17.4572   25.0624 C   0  0  0  0  0  0  0  0  0  0  0  0
   12.2098  -18.6696   24.9228 O   0  0  0  0  0  0  0  0  0  0  0  0
   14.1275  -17.5611   25.2133 O   0  0  0  0  0  0  0  0  0  0  0  0
  2  1  1  6
  2  3  1  0
  4  2  1  0
  5  6  1  1
  5  7  1  0
  5  4  1  0
  7  9  1  0
  7  8  2  0
  9 10  1  0
 11 10  1  0
 12 13  1  0
 12 11  1  0
 13  9  1  0
 14 15  2  0
 13 14  1  1
 16 17  1  0
 18 19  1  0
 18 17  1  0
 20 19  1  1
 20 21  1  0
 21 14  1  0
 22 20  1  0
 22 23  1  0
 24 22  2  0
M  END
$$$$
