LPM.pdb
     RDKit          3D

 24 24  0  0  1  0  0  0  0  0999 V2000
    8.9829  -13.6491   19.0118 C   0  0  0  0  0  0  0  0  0  0  0  0
    7.6593  -13.6382   19.6927 C   0  0  2  0  0  0  0  0  0  0  0  0
    7.1304  -12.2209   19.7489 C   0  0  0  0  0  0  0  0  0  0  0  0
    7.5676  -14.3682   20.9801 C   0  0  0  0  0  0  0  0  0  0  0  0
    7.9186  -15.8365   20.9209 C   0  0  2  0  0  0  0  0  0  0  0  0
    6.8341  -16.6313   20.4411 N   0  0  0  0  0  0  0  0  0  0  0  0
    8.4786  -16.3695   22.1555 C   0  0  0  0  0  0  0  0  0  0  0  0
    7.6623  -16.4702   23.1391 O   0  0  0  0  0  0  0  0  0  0  0  0
    9.8152  -16.7888   22.3995 N   0  0  0  0  0  0  0  0  0  0  0  0
   10.8031  -17.0063   21.3935 C   0  0  0  0  0  0  0  0  0  0  0  0
   11.8265  -17.8972   22.0695 C   0  0  0  0  0  0  0  0  0  0  0  0
   11.7319  -17.5354   23.5305 C   0  0  0  0  0  0  0  0  0  0  0  0
   10.3541  -17.0418   23.6783 C   0  0  1  0  0  0  0  0  0  0  0  0
   10.2382  -15.8848   24.6097 C   0  0  0  0  0  0  0  0  0  0  0  0
   10.4855  -14.7512   24.1643 O   0  0  0  0  0  0  0  0  0  0  0  0
    6.2421  -11.4034   26.1574 C   0  0  0  0  0  0  0  0  0  0  0  0
    7.6203  -11.7385   27.2776 S   0  0  0  0  0  0  0  0  0  0  0  0
    7.7762  -13.4391   27.6308 C   0  0  0  0  0  0  0  0  0  0  0  0
    8.4246  -14.4245   26.8052 C   0  0  0  0  0  0  0  0  0  0  0  0
    9.8159  -14.8896   26.9127 C   0  0  2  0  0  0  0  0  0  0  0  0
    9.8615  -16.0653   25.9484 N   0  0  0  0  0  0  0  0  0  0  0  0
   10.0447  -15.5703   28.2177 C   0  0  0  0  0  0  0  0  0  0  0  0
    9.8846  -16.9671   28.2826 O   0  0  0  0  0  0  0  0  0  0  0  0
   10.3670  -15.0227   29.2712 O   0  0  0  0  0  0  0  0  0  0  0  0
  2  1  1  1
  2  3  1  0
  4  2  1  0
  5  6  1  1
  5  7  1  0
  5  4  1  0
  7  9  1  0
  7  8  2  0
  9 10  1  0
 11 10  1  0
 12 13  1  0
 12 11  1  0
 13  9  1  0
 14 15  2  0
 13 14  1  1
 16 17  1  0
 18 19  1  0
 18 17  1  0
 20 19  1  1
 20 21  1  0
 21 14  1  0
 22 20  1  0
 22 23  1  0
 24 22  2  0
M  END
$$$$
