LPM.pdb
     RDKit          3D

 24 24  0  0  1  0  0  0  0  0999 V2000
    7.0525  -12.2728   26.8374 C   0  0  0  0  0  0  0  0  0  0  0  0
    6.6229  -13.3092   25.8591 C   0  0  2  0  0  0  0  0  0  0  0  0
    5.5140  -12.7560   24.9897 C   0  0  0  0  0  0  0  0  0  0  0  0
    6.3474  -14.6617   26.4009 C   0  0  0  0  0  0  0  0  0  0  0  0
    6.2360  -15.7631   25.3728 C   0  0  2  0  0  0  0  0  0  0  0  0
    5.7744  -16.9880   25.9425 N   0  0  0  0  0  0  0  0  0  0  0  0
    7.4349  -15.9557   24.5680 C   0  0  0  0  0  0  0  0  0  0  0  0
    8.3128  -16.7511   25.0584 O   0  0  0  0  0  0  0  0  0  0  0  0
    7.7468  -15.3700   23.3104 N   0  0  0  0  0  0  0  0  0  0  0  0
    6.9975  -14.3321   22.6806 C   0  0  0  0  0  0  0  0  0  0  0  0
    7.3971  -14.4236   21.2212 C   0  0  0  0  0  0  0  0  0  0  0  0
    8.8007  -14.9744   21.2505 C   0  0  0  0  0  0  0  0  0  0  0  0
    8.8513  -15.7313   22.5108 C   0  0  1  0  0  0  0  0  0  0  0  0
   10.1577  -15.6150   23.2174 C   0  0  0  0  0  0  0  0  0  0  0  0
   10.8866  -14.6478   22.9388 O   0  0  0  0  0  0  0  0  0  0  0  0
   10.5646  -14.4798   29.7055 C   0  0  0  0  0  0  0  0  0  0  0  0
   11.0779  -13.9969   28.0412 S   0  0  0  0  0  0  0  0  0  0  0  0
   11.5650  -15.3705   27.0835 C   0  0  0  0  0  0  0  0  0  0  0  0
   11.8813  -15.3603   25.6789 C   0  0  0  0  0  0  0  0  0  0  0  0
   11.9481  -16.5229   24.7803 C   0  0  2  0  0  0  0  0  0  0  0  0
   10.5560  -16.5656   24.1683 N   0  0  0  0  0  0  0  0  0  0  0  0
   11.9655  -17.7917   25.5604 C   0  0  0  0  0  0  0  0  0  0  0  0
   13.1993  -18.2632   26.0465 O   0  0  0  0  0  0  0  0  0  0  0  0
   10.9872  -18.4874   25.8298 O   0  0  0  0  0  0  0  0  0  0  0  0
  2  1  1  1
  2  3  1  0
  4  2  1  0
  5  6  1  1
  5  7  1  0
  5  4  1  0
  7  9  1  0
  7  8  2  0
  9 10  1  0
 11 10  1  0
 12 13  1  0
 12 11  1  0
 13  9  1  0
 14 15  2  0
 13 14  1  1
 16 17  1  0
 18 19  1  0
 18 17  1  0
 20 19  1  1
 20 21  1  0
 21 14  1  0
 22 20  1  0
 22 23  1  0
 24 22  2  0
M  END
$$$$
