LPM.pdb
     RDKit          3D

 24 24  0  0  1  0  0  0  0  0999 V2000
    5.0324  -12.2130   25.3228 C   0  0  0  0  0  0  0  0  0  0  0  0
    5.7175  -12.8040   26.5048 C   0  0  2  0  0  0  0  0  0  0  0  0
    6.1786  -11.6971   27.4287 C   0  0  0  0  0  0  0  0  0  0  0  0
    6.7515  -13.8306   26.2298 C   0  0  0  0  0  0  0  0  0  0  0  0
    6.2917  -15.0118   25.4075 C   0  0  2  0  0  0  0  0  0  0  0  0
    5.6155  -15.9890   26.1985 N   0  0  0  0  0  0  0  0  0  0  0  0
    7.3319  -15.6074   24.5797 C   0  0  0  0  0  0  0  0  0  0  0  0
    7.9248  -16.6284   25.0798 O   0  0  0  0  0  0  0  0  0  0  0  0
    7.7665  -15.1943   23.2904 N   0  0  0  0  0  0  0  0  0  0  0  0
    7.0770  -14.2710   22.4494 C   0  0  0  0  0  0  0  0  0  0  0  0
    7.6255  -14.5543   21.0648 C   0  0  0  0  0  0  0  0  0  0  0  0
    9.0234  -15.0634   21.3121 C   0  0  0  0  0  0  0  0  0  0  0  0
    8.9505  -15.6373   22.6646 C   0  0  1  0  0  0  0  0  0  0  0  0
   10.1762  -15.3945   23.4759 C   0  0  0  0  0  0  0  0  0  0  0  0
   10.2618  -14.3202   24.0948 O   0  0  0  0  0  0  0  0  0  0  0  0
   10.2852  -13.6435   28.0832 C   0  0  0  0  0  0  0  0  0  0  0  0
   11.7478  -14.6031   27.6289 S   0  0  0  0  0  0  0  0  0  0  0  0
   11.3423  -16.2386   27.1797 C   0  0  0  0  0  0  0  0  0  0  0  0
   11.3176  -16.7735   25.8431 C   0  0  0  0  0  0  0  0  0  0  0  0
   12.1718  -16.3715   24.7151 C   0  0  2  0  0  0  0  0  0  0  0  0
   11.2037  -16.3465   23.5419 N   0  0  0  0  0  0  0  0  0  0  0  0
   13.0825  -17.4825   24.3215 C   0  0  0  0  0  0  0  0  0  0  0  0
   12.5148  -18.7166   23.9533 O   0  0  0  0  0  0  0  0  0  0  0  0
   14.3112  -17.4306   24.2846 O   0  0  0  0  0  0  0  0  0  0  0  0
  2  1  1  6
  2  3  1  0
  4  2  1  0
  5  6  1  1
  5  7  1  0
  5  4  1  0
  7  9  1  0
  7  8  2  0
  9 10  1  0
 11 10  1  0
 12 13  1  0
 12 11  1  0
 13  9  1  0
 14 15  2  0
 13 14  1  1
 16 17  1  0
 18 19  1  0
 18 17  1  0
 20 19  1  1
 20 21  1  0
 21 14  1  0
 22 20  1  0
 22 23  1  0
 24 22  2  0
M  END
$$$$
