LPM.pdb
     RDKit          3D

 24 24  0  0  1  0  0  0  0  0999 V2000
    8.2172  -13.3793   25.3414 C   0  0  0  0  0  0  0  0  0  0  0  0
    6.7621  -13.5187   25.6228 C   0  0  2  0  0  0  0  0  0  0  0  0
    6.3175  -12.4089   26.5515 C   0  0  0  0  0  0  0  0  0  0  0  0
    6.2878  -14.8657   26.0216 C   0  0  0  0  0  0  0  0  0  0  0  0
    6.1988  -15.8799   24.9053 C   0  0  2  0  0  0  0  0  0  0  0  0
    5.6034  -17.1042   25.3352 N   0  0  0  0  0  0  0  0  0  0  0  0
    7.4521  -16.1041   24.1974 C   0  0  0  0  0  0  0  0  0  0  0  0
    8.3101  -16.8392   24.8035 O   0  0  0  0  0  0  0  0  0  0  0  0
    7.8361  -15.6077   22.9215 N   0  0  0  0  0  0  0  0  0  0  0  0
    7.0060  -14.8303   22.0601 C   0  0  0  0  0  0  0  0  0  0  0  0
    7.6392  -14.9946   20.6926 C   0  0  0  0  0  0  0  0  0  0  0  0
    9.1013  -15.2253   20.9815 C   0  0  0  0  0  0  0  0  0  0  0  0
    9.1013  -15.8100   22.3314 C   0  0  1  0  0  0  0  0  0  0  0  0
   10.2326  -15.3393   23.1787 C   0  0  0  0  0  0  0  0  0  0  0  0
   10.2743  -14.1338   23.4777 O   0  0  0  0  0  0  0  0  0  0  0  0
   11.2892  -13.8600   29.7535 C   0  0  0  0  0  0  0  0  0  0  0  0
   10.5152  -14.3228   28.1872 S   0  0  0  0  0  0  0  0  0  0  0  0
   11.4933  -15.4480   27.2826 C   0  0  0  0  0  0  0  0  0  0  0  0
   11.2278  -15.9287   25.9516 C   0  0  0  0  0  0  0  0  0  0  0  0
   12.1298  -15.8603   24.7917 C   0  0  2  0  0  0  0  0  0  0  0  0
   11.2218  -16.2264   23.6273 N   0  0  0  0  0  0  0  0  0  0  0  0
   13.0805  -17.0070   24.7951 C   0  0  0  0  0  0  0  0  0  0  0  0
   14.4079  -16.7764   25.2022 O   0  0  0  0  0  0  0  0  0  0  0  0
   12.8176  -18.1641   24.4700 O   0  0  0  0  0  0  0  0  0  0  0  0
  2  1  1  1
  2  3  1  0
  4  2  1  0
  5  6  1  1
  5  7  1  0
  5  4  1  0
  7  9  1  0
  7  8  2  0
  9 10  1  0
 11 10  1  0
 12 13  1  0
 12 11  1  0
 13  9  1  0
 14 15  2  0
 13 14  1  1
 16 17  1  0
 18 19  1  0
 18 17  1  0
 20 19  1  1
 20 21  1  0
 21 14  1  0
 22 20  1  0
 22 23  1  0
 24 22  2  0
M  END
$$$$
