LPM.pdb
     RDKit          3D

 24 24  0  0  1  0  0  0  0  0999 V2000
    7.7787  -18.9181   17.9589 C   0  0  0  0  0  0  0  0  0  0  0  0
    8.6592  -19.6339   18.9222 C   0  0  2  0  0  0  0  0  0  0  0  0
    8.0623  -20.9872   19.2446 C   0  0  0  0  0  0  0  0  0  0  0  0
    9.1013  -18.8699   20.1137 C   0  0  0  0  0  0  0  0  0  0  0  0
    9.7148  -17.5191   19.8283 C   0  0  2  0  0  0  0  0  0  0  0  0
   10.9770  -17.6282   19.1703 N   0  0  0  0  0  0  0  0  0  0  0  0
    9.7785  -16.6334   20.9831 C   0  0  0  0  0  0  0  0  0  0  0  0
   10.9297  -16.5222   21.5366 O   0  0  0  0  0  0  0  0  0  0  0  0
    8.7225  -15.8815   21.5673 N   0  0  0  0  0  0  0  0  0  0  0  0
    7.3902  -15.8093   21.0622 C   0  0  0  0  0  0  0  0  0  0  0  0
    6.8286  -14.5465   21.6851 C   0  0  0  0  0  0  0  0  0  0  0  0
    7.5744  -14.4076   22.9885 C   0  0  0  0  0  0  0  0  0  0  0  0
    8.8454  -15.1047   22.7383 C   0  0  1  0  0  0  0  0  0  0  0  0
    9.3361  -15.8777   23.9135 C   0  0  0  0  0  0  0  0  0  0  0  0
    9.0389  -17.0824   23.9837 O   0  0  0  0  0  0  0  0  0  0  0  0
    8.4468  -12.2559   27.7287 C   0  0  0  0  0  0  0  0  0  0  0  0
    9.6748  -13.4009   28.3977 S   0  0  0  0  0  0  0  0  0  0  0  0
   10.9302  -13.7608   27.2420 C   0  0  0  0  0  0  0  0  0  0  0  0
   11.3899  -15.0720   26.8646 C   0  0  0  0  0  0  0  0  0  0  0  0
   10.6520  -16.0752   26.0819 C   0  0  2  0  0  0  0  0  0  0  0  0
   10.1101  -15.2684   24.9115 N   0  0  0  0  0  0  0  0  0  0  0  0
    9.3941  -16.4655   26.7776 C   0  0  0  0  0  0  0  0  0  0  0  0
    9.4566  -17.4665   27.7649 O   0  0  0  0  0  0  0  0  0  0  0  0
    8.2779  -15.9906   26.5720 O   0  0  0  0  0  0  0  0  0  0  0  0
  2  1  1  1
  2  3  1  0
  4  2  1  0
  5  6  1  1
  5  7  1  0
  5  4  1  0
  7  9  1  0
  7  8  2  0
  9 10  1  0
 11 10  1  0
 12 13  1  0
 12 11  1  0
 13  9  1  0
 14 15  2  0
 13 14  1  1
 16 17  1  0
 18 19  1  0
 18 17  1  0
 20 19  1  1
 20 21  1  0
 21 14  1  0
 22 20  1  0
 22 23  1  0
 24 22  2  0
M  END
$$$$
