LPM.pdb
     RDKit          3D

 24 24  0  0  1  0  0  0  0  0999 V2000
    8.1232  -11.7355   19.3451 C   0  0  0  0  0  0  0  0  0  0  0  0
    8.1600  -13.2155   19.1892 C   0  0  2  0  0  0  0  0  0  0  0  0
    7.5421  -13.6003   17.8619 C   0  0  0  0  0  0  0  0  0  0  0  0
    7.6725  -14.0175   20.3371 C   0  0  0  0  0  0  0  0  0  0  0  0
    7.7828  -15.5157   20.1764 C   0  0  2  0  0  0  0  0  0  0  0  0
    6.6110  -16.0829   19.5905 N   0  0  0  0  0  0  0  0  0  0  0  0
    8.1811  -16.2210   21.3871 C   0  0  0  0  0  0  0  0  0  0  0  0
    7.2586  -16.3914   22.2612 O   0  0  0  0  0  0  0  0  0  0  0  0
    9.4637  -16.7401   21.7143 N   0  0  0  0  0  0  0  0  0  0  0  0
   10.5396  -16.9090   20.7928 C   0  0  0  0  0  0  0  0  0  0  0  0
   11.4440  -17.9229   21.4651 C   0  0  0  0  0  0  0  0  0  0  0  0
   11.2151  -17.7097   22.9404 C   0  0  0  0  0  0  0  0  0  0  0  0
    9.8541  -17.1550   23.0048 C   0  0  1  0  0  0  0  0  0  0  0  0
    9.6965  -16.0961   24.0408 C   0  0  0  0  0  0  0  0  0  0  0  0
    9.9415  -14.9219   23.7157 O   0  0  0  0  0  0  0  0  0  0  0  0
    6.8754  -11.3456   25.8843 C   0  0  0  0  0  0  0  0  0  0  0  0
    7.2646  -12.3495   27.3360 S   0  0  0  0  0  0  0  0  0  0  0  0
    6.9389  -14.0413   27.0666 C   0  0  0  0  0  0  0  0  0  0  0  0
    7.6949  -14.9304   26.2233 C   0  0  0  0  0  0  0  0  0  0  0  0
    9.1029  -15.3218   26.3904 C   0  0  2  0  0  0  0  0  0  0  0  0
    9.2842  -16.4107   25.3437 N   0  0  0  0  0  0  0  0  0  0  0  0
    9.2898  -16.0919   27.6516 C   0  0  0  0  0  0  0  0  0  0  0  0
   10.0107  -15.4938   28.7020 O   0  0  0  0  0  0  0  0  0  0  0  0
    8.8682  -17.2260   27.8745 O   0  0  0  0  0  0  0  0  0  0  0  0
  2  1  1  1
  2  3  1  0
  4  2  1  0
  5  6  1  1
  5  7  1  0
  5  4  1  0
  7  9  1  0
  7  8  2  0
  9 10  1  0
 11 10  1  0
 12 13  1  0
 12 11  1  0
 13  9  1  0
 14 15  2  0
 13 14  1  1
 16 17  1  0
 18 19  1  0
 18 17  1  0
 20 19  1  1
 20 21  1  0
 21 14  1  0
 22 20  1  0
 22 23  1  0
 24 22  2  0
M  END
$$$$
