MKW.pdb
     RDKit          3D

 32 33  0  0  1  0  0  0  0  0999 V2000
    8.1649  -10.4658   19.8723 C   0  0  0  0  0  0  0  0  0  0  0  0
    7.5812  -11.9686   20.6971 S   0  0  0  0  0  0  0  0  0  0  0  0
    8.3144  -13.4106   19.8596 C   0  0  0  0  0  0  0  0  0  0  0  0
    7.8329  -14.6471   20.5400 C   0  0  0  0  0  0  0  0  0  0  0  0
    8.4692  -15.8744   19.9468 C   0  0  2  0  0  0  0  0  0  0  0  0
    7.6289  -16.4071   18.8724 N   0  0  0  0  0  0  0  0  0  0  0  0
    8.6035  -16.9157   20.9739 C   0  0  0  0  0  0  0  0  0  0  0  0
    7.7273  -17.8335   21.1588 O   0  0  0  0  0  0  0  0  0  0  0  0
    9.7256  -16.9440   21.8126 N   0  0  0  0  0  0  0  0  0  0  0  0
    9.8686  -17.9380   22.9271 C   0  0  1  0  0  0  0  0  0  0  0  0
   11.0332  -18.7601   22.5039 C   0  0  0  0  0  0  0  0  0  0  0  0
   11.5553  -19.8292   23.3459 C   0  0  0  0  0  0  0  0  0  0  0  0
   10.7531  -20.9639   23.7824 C   0  0  0  0  0  0  0  0  0  0  0  0
   11.2378  -21.9932   24.7033 C   0  0  0  0  0  0  0  0  0  0  0  0
   12.3720  -22.6609   23.9823 N   0  0  0  0  0  0  0  0  0  0  0  0
   10.1783  -17.0543   24.1114 C   0  0  0  0  0  0  0  0  0  0  0  0
   10.9681  -16.0464   23.9930 O   0  0  0  0  0  0  0  0  0  0  0  0
    9.5797  -17.3622   25.3445 N   0  0  0  0  0  0  0  0  0  0  0  0
   10.0382  -16.6079   26.5320 C   0  0  1  0  0  0  0  0  0  0  0  0
    8.7975  -16.3610   27.3349 C   0  0  0  0  0  0  0  0  0  0  0  0
    7.7724  -15.6561   26.5697 C   0  0  0  0  0  0  0  0  0  0  0  0
    6.7141  -16.2285   25.8960 C   0  0  0  0  0  0  0  0  0  0  0  0
    5.9944  -15.2792   25.2753 N   0  0  0  0  0  0  0  0  0  0  0  0
    6.5629  -14.0877   25.5310 C   0  0  0  0  0  0  0  0  0  0  0  0
    6.2174  -12.8096   25.1521 C   0  0  0  0  0  0  0  0  0  0  0  0
    6.9657  -11.7119   25.5659 C   0  0  0  0  0  0  0  0  0  0  0  0
    8.0732  -11.8901   26.3679 C   0  0  0  0  0  0  0  0  0  0  0  0
    8.4047  -13.1726   26.7363 C   0  0  0  0  0  0  0  0  0  0  0  0
    7.6825  -14.3007   26.3434 C   0  0  0  0  0  0  0  0  0  0  0  0
   11.1465  -17.2822   27.1900 C   0  0  0  0  0  0  0  0  0  0  0  0
   11.5503  -18.4335   26.9206 O   0  0  0  0  0  0  0  0  0  0  0  0
   11.8419  -16.6158   28.2154 O   0  0  0  0  0  0  0  0  0  0  0  0
  2  1  1  0
  3  2  1  0
  4  3  1  0
  5  4  1  0
  5  6  1  6
  7  5  1  0
  7  8  2  0
  9  7  1  0
 10  9  1  0
 10 11  1  6
 11 12  1  0
 12 13  1  0
 13 14  1  0
 14 15  1  0
 16 10  1  0
 17 16  2  0
 18 16  1  0
 19 18  1  0
 19 20  1  1
 20 21  1  0
 21 22  2  0
 22 23  1  0
 24 23  1  0
 25 24  2  0
 26 25  1  0
 27 28  1  0
 27 26  2  0
 28 29  2  0
 29 21  1  0
 29 24  1  0
 30 19  1  0
 30 32  1  0
 31 30  2  0
M  END
$$$$
