MKW.pdb
     RDKit          3D

 32 33  0  0  1  0  0  0  0  0999 V2000
    9.0570  -11.5757   20.0324 C   0  0  0  0  0  0  0  0  0  0  0  0
    8.0170  -12.0726   18.6357 S   0  0  0  0  0  0  0  0  0  0  0  0
    8.2929  -13.8434   18.3096 C   0  0  0  0  0  0  0  0  0  0  0  0
    8.2316  -14.5775   19.6062 C   0  0  0  0  0  0  0  0  0  0  0  0
    8.5432  -16.0371   19.4175 C   0  0  2  0  0  0  0  0  0  0  0  0
    7.5523  -16.6524   18.5323 N   0  0  0  0  0  0  0  0  0  0  0  0
    8.4884  -16.7326   20.7100 C   0  0  0  0  0  0  0  0  0  0  0  0
    7.4133  -17.2477   21.1824 O   0  0  0  0  0  0  0  0  0  0  0  0
    9.6415  -16.8614   21.4955 N   0  0  0  0  0  0  0  0  0  0  0  0
    9.6554  -17.6406   22.7773 C   0  0  1  0  0  0  0  0  0  0  0  0
   10.1889  -18.9661   22.3653 C   0  0  0  0  0  0  0  0  0  0  0  0
   10.4627  -20.0125   23.3423 C   0  0  0  0  0  0  0  0  0  0  0  0
   11.0389  -21.3026   22.9884 C   0  0  0  0  0  0  0  0  0  0  0  0
   11.4514  -22.3040   23.9730 C   0  0  0  0  0  0  0  0  0  0  0  0
   10.7167  -23.5553   23.5902 N   0  0  0  0  0  0  0  0  0  0  0  0
   10.6306  -16.8567   23.6223 C   0  0  0  0  0  0  0  0  0  0  0  0
   11.8852  -17.1390   23.6140 O   0  0  0  0  0  0  0  0  0  0  0  0
   10.1307  -15.8107   24.4159 N   0  0  0  0  0  0  0  0  0  0  0  0
    9.8525  -16.1075   25.8384 C   0  0  1  0  0  0  0  0  0  0  0  0
    8.4639  -16.6700   25.8507 C   0  0  0  0  0  0  0  0  0  0  0  0
    7.4487  -15.6379   26.0442 C   0  0  0  0  0  0  0  0  0  0  0  0
    6.0856  -15.8326   26.1170 C   0  0  0  0  0  0  0  0  0  0  0  0
    5.4582  -14.6541   26.2650 N   0  0  0  0  0  0  0  0  0  0  0  0
    6.3891  -13.6840   26.2916 C   0  0  0  0  0  0  0  0  0  0  0  0
    6.2830  -12.3187   26.4373 C   0  0  0  0  0  0  0  0  0  0  0  0
    7.4146  -11.5090   26.4529 C   0  0  0  0  0  0  0  0  0  0  0  0
    8.6686  -12.0673   26.3214 C   0  0  0  0  0  0  0  0  0  0  0  0
    8.7566  -13.4317   26.1761 C   0  0  0  0  0  0  0  0  0  0  0  0
    7.6482  -14.2797   26.1545 C   0  0  0  0  0  0  0  0  0  0  0  0
   10.9128  -16.9110   26.4270 C   0  0  0  0  0  0  0  0  0  0  0  0
   11.2909  -16.8437   27.6159 O   0  0  0  0  0  0  0  0  0  0  0  0
   11.5879  -17.8481   25.6238 O   0  0  0  0  0  0  0  0  0  0  0  0
  2  1  1  0
  3  2  1  0
  4  3  1  0
  5  4  1  0
  5  6  1  6
  7  5  1  0
  7  8  2  0
  9  7  1  0
 10  9  1  0
 10 11  1  6
 11 12  1  0
 12 13  1  0
 13 14  1  0
 14 15  1  0
 16 10  1  0
 17 16  2  0
 18 16  1  0
 19 18  1  0
 19 20  1  6
 20 21  1  0
 21 22  2  0
 22 23  1  0
 24 23  1  0
 25 24  2  0
 26 25  1  0
 27 28  1  0
 27 26  2  0
 28 29  2  0
 29 21  1  0
 29 24  1  0
 30 19  1  0
 30 32  1  0
 31 30  2  0
M  END
$$$$
