MKW.pdb
     RDKit          3D

 32 33  0  0  1  0  0  0  0  0999 V2000
    8.4388  -10.8634   18.6048 C   0  0  0  0  0  0  0  0  0  0  0  0
    8.1790  -11.9007   20.0662 S   0  0  0  0  0  0  0  0  0  0  0  0
    8.1401  -13.6441   19.5392 C   0  0  0  0  0  0  0  0  0  0  0  0
    8.0090  -14.5012   20.7524 C   0  0  0  0  0  0  0  0  0  0  0  0
    8.0156  -15.9607   20.3876 C   0  0  2  0  0  0  0  0  0  0  0  0
    6.7176  -16.3453   19.8296 N   0  0  0  0  0  0  0  0  0  0  0  0
    8.2517  -16.7760   21.5862 C   0  0  0  0  0  0  0  0  0  0  0  0
    7.3068  -17.1927   22.3464 O   0  0  0  0  0  0  0  0  0  0  0  0
    9.5550  -17.1376   21.9526 N   0  0  0  0  0  0  0  0  0  0  0  0
    9.8358  -18.1098   23.0600 C   0  0  1  0  0  0  0  0  0  0  0  0
   11.0750  -18.7952   22.6063 C   0  0  0  0  0  0  0  0  0  0  0  0
   11.6896  -19.8556   23.3952 C   0  0  0  0  0  0  0  0  0  0  0  0
   12.9079  -20.5449   22.9925 C   0  0  0  0  0  0  0  0  0  0  0  0
   13.5983  -21.5274   23.8295 C   0  0  0  0  0  0  0  0  0  0  0  0
   12.6290  -22.6630   23.9805 N   0  0  0  0  0  0  0  0  0  0  0  0
   10.0726  -17.1975   24.2395 C   0  0  0  0  0  0  0  0  0  0  0  0
   10.5259  -16.0060   24.0706 O   0  0  0  0  0  0  0  0  0  0  0  0
    9.7832  -17.6850   25.5250 N   0  0  0  0  0  0  0  0  0  0  0  0
   10.1451  -16.8287   26.6760 C   0  0  1  0  0  0  0  0  0  0  0  0
    8.9020  -16.7567   27.5092 C   0  0  0  0  0  0  0  0  0  0  0  0
    7.8493  -15.9725   26.8688 C   0  0  0  0  0  0  0  0  0  0  0  0
    6.7839  -16.4665   26.1461 C   0  0  0  0  0  0  0  0  0  0  0  0
    6.0364  -15.4545   25.6756 N   0  0  0  0  0  0  0  0  0  0  0  0
    6.5936  -14.2990   26.0788 C   0  0  0  0  0  0  0  0  0  0  0  0
    6.2210  -12.9875   25.8847 C   0  0  0  0  0  0  0  0  0  0  0  0
    6.9630  -11.9432   26.4280 C   0  0  0  0  0  0  0  0  0  0  0  0
    8.0913  -12.2093   27.1747 C   0  0  0  0  0  0  0  0  0  0  0  0
    8.4496  -13.5239   27.3582 C   0  0  0  0  0  0  0  0  0  0  0  0
    7.7348  -14.6006   26.8309 C   0  0  0  0  0  0  0  0  0  0  0  0
   11.3638  -17.2957   27.3186 C   0  0  0  0  0  0  0  0  0  0  0  0
   11.9613  -18.3576   27.0424 O   0  0  0  0  0  0  0  0  0  0  0  0
   11.9437  -16.5157   28.3357 O   0  0  0  0  0  0  0  0  0  0  0  0
  2  1  1  0
  3  2  1  0
  4  3  1  0
  5  4  1  0
  5  6  1  1
  7  5  1  0
  7  8  2  0
  9  7  1  0
 10  9  1  0
 10 11  1  6
 11 12  1  0
 12 13  1  0
 13 14  1  0
 14 15  1  0
 16 10  1  0
 17 16  2  0
 18 16  1  0
 19 18  1  0
 19 20  1  1
 20 21  1  0
 21 22  2  0
 22 23  1  0
 24 23  1  0
 25 24  2  0
 26 25  1  0
 27 28  1  0
 27 26  2  0
 28 29  2  0
 29 21  1  0
 29 24  1  0
 30 19  1  0
 30 32  1  0
 31 30  2  0
M  END
$$$$
