MKW.pdb
     RDKit          3D

 32 33  0  0  1  0  0  0  0  0999 V2000
    9.2893  -11.7649   19.7636 C   0  0  0  0  0  0  0  0  0  0  0  0
    7.6355  -11.8992   20.4889 S   0  0  0  0  0  0  0  0  0  0  0  0
    7.0008  -13.5779   20.1763 C   0  0  0  0  0  0  0  0  0  0  0  0
    7.6307  -14.5106   21.1546 C   0  0  0  0  0  0  0  0  0  0  0  0
    7.2905  -15.9408   20.8355 C   0  0  2  0  0  0  0  0  0  0  0  0
    5.8495  -16.1587   20.9781 N   0  0  0  0  0  0  0  0  0  0  0  0
    7.9783  -16.8404   21.7708 C   0  0  0  0  0  0  0  0  0  0  0  0
    7.4084  -17.3466   22.8019 O   0  0  0  0  0  0  0  0  0  0  0  0
    9.3201  -17.1873   21.5640 N   0  0  0  0  0  0  0  0  0  0  0  0
   10.0394  -18.1671   22.4433 C   0  0  1  0  0  0  0  0  0  0  0  0
   11.1490  -18.6504   21.5793 C   0  0  0  0  0  0  0  0  0  0  0  0
   12.0391  -19.7203   22.0125 C   0  0  0  0  0  0  0  0  0  0  0  0
   13.1279  -20.2327   21.1918 C   0  0  0  0  0  0  0  0  0  0  0  0
   12.9260  -20.9402   19.9264 C   0  0  0  0  0  0  0  0  0  0  0  0
   13.8046  -20.2317   18.9374 N   0  0  0  0  0  0  0  0  0  0  0  0
   10.5210  -17.2927   23.5761 C   0  0  0  0  0  0  0  0  0  0  0  0
   11.2667  -16.2701   23.3482 O   0  0  0  0  0  0  0  0  0  0  0  0
   10.1315  -17.6257   24.8842 N   0  0  0  0  0  0  0  0  0  0  0  0
   10.7544  -16.8708   25.9938 C   0  0  1  0  0  0  0  0  0  0  0  0
   10.3667  -15.4434   25.7547 C   0  0  0  0  0  0  0  0  0  0  0  0
    8.9265  -15.2320   25.8744 C   0  0  0  0  0  0  0  0  0  0  0  0
    7.9838  -16.1813   26.2085 C   0  0  0  0  0  0  0  0  0  0  0  0
    6.7552  -15.6386   26.1891 N   0  0  0  0  0  0  0  0  0  0  0  0
    6.8743  -14.3435   25.8474 C   0  0  0  0  0  0  0  0  0  0  0  0
    5.9355  -13.3467   25.6998 C   0  0  0  0  0  0  0  0  0  0  0  0
    6.3117  -12.0533   25.3509 C   0  0  0  0  0  0  0  0  0  0  0  0
    7.6410  -11.7489   25.1463 C   0  0  0  0  0  0  0  0  0  0  0  0
    8.5650  -12.7558   25.2970 C   0  0  0  0  0  0  0  0  0  0  0  0
    8.2310  -14.0657   25.6450 C   0  0  0  0  0  0  0  0  0  0  0  0
   10.4198  -17.4555   27.2831 C   0  0  0  0  0  0  0  0  0  0  0  0
    9.5641  -18.3469   27.4686 O   0  0  0  0  0  0  0  0  0  0  0  0
   11.0926  -17.0061   28.4340 O   0  0  0  0  0  0  0  0  0  0  0  0
  2  1  1  0
  3  2  1  0
  4  3  1  0
  5  4  1  0
  5  6  1  1
  7  5  1  0
  7  8  2  0
  9  7  1  0
 10  9  1  0
 10 11  1  6
 11 12  1  0
 12 13  1  0
 13 14  1  0
 14 15  1  0
 16 10  1  0
 17 16  2  0
 18 16  1  0
 19 18  1  0
 19 20  1  1
 20 21  1  0
 21 22  2  0
 22 23  1  0
 24 23  1  0
 25 24  2  0
 26 25  1  0
 27 28  1  0
 27 26  2  0
 28 29  2  0
 29 21  1  0
 29 24  1  0
 30 19  1  0
 30 32  1  0
 31 30  2  0
M  END
$$$$
