MKW.pdb
     RDKit          3D

 32 33  0  0  1  0  0  0  0  0999 V2000
    8.2082  -19.6718   27.7686 C   0  0  0  0  0  0  0  0  0  0  0  0
    6.6182  -19.4467   26.9317 S   0  0  0  0  0  0  0  0  0  0  0  0
    6.8937  -19.5306   25.1330 C   0  0  0  0  0  0  0  0  0  0  0  0
    5.6008  -19.2524   24.4438 C   0  0  0  0  0  0  0  0  0  0  0  0
    5.7505  -19.3539   22.9503 C   0  0  2  0  0  0  0  0  0  0  0  0
    6.2687  -20.6739   22.5855 N   0  0  0  0  0  0  0  0  0  0  0  0
    6.7055  -18.3455   22.4726 C   0  0  0  0  0  0  0  0  0  0  0  0
    7.9259  -18.6172   22.1874 O   0  0  0  0  0  0  0  0  0  0  0  0
    6.3061  -17.0127   22.3068 N   0  0  0  0  0  0  0  0  0  0  0  0
    7.2509  -15.9448   21.8405 C   0  0  1  0  0  0  0  0  0  0  0  0
    6.3419  -14.8808   21.3377 C   0  0  0  0  0  0  0  0  0  0  0  0
    6.8311  -13.8017   20.4886 C   0  0  0  0  0  0  0  0  0  0  0  0
    7.4448  -14.0273   19.1871 C   0  0  0  0  0  0  0  0  0  0  0  0
    7.9320  -12.9511   18.3228 C   0  0  0  0  0  0  0  0  0  0  0  0
    8.4001  -13.6352   17.0718 N   0  0  0  0  0  0  0  0  0  0  0  0
    7.9545  -15.5547   23.1182 C   0  0  0  0  0  0  0  0  0  0  0  0
    7.3457  -14.8763   24.0252 O   0  0  0  0  0  0  0  0  0  0  0  0
    9.2907  -15.9539   23.2892 N   0  0  0  0  0  0  0  0  0  0  0  0
   10.0905  -15.2386   24.3079 C   0  0  1  0  0  0  0  0  0  0  0  0
    9.4937  -15.6438   25.6212 C   0  0  0  0  0  0  0  0  0  0  0  0
    8.1912  -15.0252   25.8533 C   0  0  0  0  0  0  0  0  0  0  0  0
    6.9645  -15.6526   25.7982 C   0  0  0  0  0  0  0  0  0  0  0  0
    5.9820  -14.7669   26.0319 N   0  0  0  0  0  0  0  0  0  0  0  0
    6.5439  -13.5632   26.2412 C   0  0  0  0  0  0  0  0  0  0  0  0
    5.9930  -12.3355   26.5342 C   0  0  0  0  0  0  0  0  0  0  0  0
    6.7971  -11.2168   26.7297 C   0  0  0  0  0  0  0  0  0  0  0  0
    8.1685  -11.3228   26.6318 C   0  0  0  0  0  0  0  0  0  0  0  0
    8.7020  -12.5555   26.3379 C   0  0  0  0  0  0  0  0  0  0  0  0
    7.9324  -13.7020   26.1339 C   0  0  0  0  0  0  0  0  0  0  0  0
   11.5146  -15.4635   24.1142 C   0  0  0  0  0  0  0  0  0  0  0  0
   12.4211  -15.0022   24.8399 O   0  0  0  0  0  0  0  0  0  0  0  0
   11.9417  -16.2579   23.0345 O   0  0  0  0  0  0  0  0  0  0  0  0
  2  1  1  0
  3  2  1  0
  4  3  1  0
  5  4  1  0
  5  6  1  1
  7  5  1  0
  7  8  2  0
  9  7  1  0
 10  9  1  0
 10 11  1  1
 11 12  1  0
 12 13  1  0
 13 14  1  0
 14 15  1  0
 16 10  1  0
 17 16  2  0
 18 16  1  0
 19 18  1  0
 19 20  1  1
 20 21  1  0
 21 22  2  0
 22 23  1  0
 24 23  1  0
 25 24  2  0
 26 25  1  0
 27 28  1  0
 27 26  2  0
 28 29  2  0
 29 21  1  0
 29 24  1  0
 30 19  1  0
 30 32  1  0
 31 30  2  0
M  END
$$$$
