MKW.pdb
     RDKit          3D

 32 33  0  0  1  0  0  0  0  0999 V2000
    9.0118  -11.4801   19.7321 C   0  0  0  0  0  0  0  0  0  0  0  0
    8.1865  -12.2284   18.3044 S   0  0  0  0  0  0  0  0  0  0  0  0
    8.5687  -14.0094   18.2826 C   0  0  0  0  0  0  0  0  0  0  0  0
    8.0920  -14.6103   19.5614 C   0  0  0  0  0  0  0  0  0  0  0  0
    8.4159  -16.0780   19.6239 C   0  0  2  0  0  0  0  0  0  0  0  0
    7.8584  -16.7661   18.4577 N   0  0  0  0  0  0  0  0  0  0  0  0
    7.8192  -16.6723   20.8272 C   0  0  0  0  0  0  0  0  0  0  0  0
    6.5764  -16.5577   21.1217 O   0  0  0  0  0  0  0  0  0  0  0  0
    8.6090  -17.4062   21.7221 N   0  0  0  0  0  0  0  0  0  0  0  0
    8.0257  -18.1252   22.9025 C   0  0  1  0  0  0  0  0  0  0  0  0
    7.9722  -19.5400   22.4481 C   0  0  0  0  0  0  0  0  0  0  0  0
    8.9501  -20.0742   21.5084 C   0  0  0  0  0  0  0  0  0  0  0  0
    8.9600  -21.4639   21.0722 C   0  0  0  0  0  0  0  0  0  0  0  0
    9.9147  -22.0026   20.1022 C   0  0  0  0  0  0  0  0  0  0  0  0
   10.2529  -23.3749   20.6066 N   0  0  0  0  0  0  0  0  0  0  0  0
    9.0685  -17.8946   23.9698 C   0  0  0  0  0  0  0  0  0  0  0  0
    9.0775  -18.5991   25.0455 O   0  0  0  0  0  0  0  0  0  0  0  0
   10.0283  -16.8914   23.7550 N   0  0  0  0  0  0  0  0  0  0  0  0
   10.2662  -15.9294   24.8537 C   0  0  1  0  0  0  0  0  0  0  0  0
    9.4574  -14.7216   24.4907 C   0  0  0  0  0  0  0  0  0  0  0  0
    8.2003  -14.6524   25.2312 C   0  0  0  0  0  0  0  0  0  0  0  0
    7.2674  -15.6599   25.3580 C   0  0  0  0  0  0  0  0  0  0  0  0
    6.2197  -15.2305   26.0808 N   0  0  0  0  0  0  0  0  0  0  0  0
    6.4489  -13.9533   26.4335 C   0  0  0  0  0  0  0  0  0  0  0  0
    5.7088  -13.0640   27.1804 C   0  0  0  0  0  0  0  0  0  0  0  0
    6.1735  -11.7764   27.4303 C   0  0  0  0  0  0  0  0  0  0  0  0
    7.3920  -11.3695   26.9292 C   0  0  0  0  0  0  0  0  0  0  0  0
    8.1178  -12.2694   26.1851 C   0  0  0  0  0  0  0  0  0  0  0  0
    7.6889  -13.5689   25.9103 C   0  0  0  0  0  0  0  0  0  0  0  0
   10.0244  -16.5402   26.1516 C   0  0  0  0  0  0  0  0  0  0  0  0
   10.3131  -16.0267   27.2534 O   0  0  0  0  0  0  0  0  0  0  0  0
    9.4193  -17.8090   26.2091 O   0  0  0  0  0  0  0  0  0  0  0  0
  2  1  1  0
  3  2  1  0
  4  3  1  0
  5  4  1  0
  5  6  1  6
  7  5  1  0
  7  8  2  0
  9  7  1  0
 10  9  1  0
 10 11  1  6
 11 12  1  0
 12 13  1  0
 13 14  1  0
 14 15  1  0
 16 10  1  0
 17 16  2  0
 18 16  1  0
 19 18  1  0
 19 20  1  6
 20 21  1  0
 21 22  2  0
 22 23  1  0
 24 23  1  0
 25 24  2  0
 26 25  1  0
 27 28  1  0
 27 26  2  0
 28 29  2  0
 29 21  1  0
 29 24  1  0
 30 19  1  0
 30 32  1  0
 31 30  2  0
M  END
$$$$
