MKW.pdb
     RDKit          3D

 32 33  0  0  1  0  0  0  0  0999 V2000
    8.6728  -11.3511   20.3509 C   0  0  0  0  0  0  0  0  0  0  0  0
    7.1339  -11.9307   19.5924 S   0  0  0  0  0  0  0  0  0  0  0  0
    7.3504  -13.6714   19.1011 C   0  0  0  0  0  0  0  0  0  0  0  0
    7.4179  -14.5055   20.3354 C   0  0  0  0  0  0  0  0  0  0  0  0
    7.5837  -15.9618   19.9965 C   0  0  2  0  0  0  0  0  0  0  0  0
    6.4207  -16.4388   19.2455 N   0  0  0  0  0  0  0  0  0  0  0  0
    7.6826  -16.7551   21.2285 C   0  0  0  0  0  0  0  0  0  0  0  0
    6.6630  -17.0820   21.9341 O   0  0  0  0  0  0  0  0  0  0  0  0
    8.9301  -17.1954   21.6904 N   0  0  0  0  0  0  0  0  0  0  0  0
    9.0715  -18.0976   22.8805 C   0  0  1  0  0  0  0  0  0  0  0  0
   10.0020  -19.1533   22.3999 C   0  0  0  0  0  0  0  0  0  0  0  0
    9.5431  -20.2375   21.5407 C   0  0  0  0  0  0  0  0  0  0  0  0
   10.4169  -21.3005   21.0631 C   0  0  0  0  0  0  0  0  0  0  0  0
    9.9764  -22.3718   20.1682 C   0  0  0  0  0  0  0  0  0  0  0  0
   11.2174  -23.1550   19.8545 N   0  0  0  0  0  0  0  0  0  0  0  0
    9.7033  -17.1858   23.9048 C   0  0  0  0  0  0  0  0  0  0  0  0
   10.7198  -16.4588   23.6021 O   0  0  0  0  0  0  0  0  0  0  0  0
    9.1499  -17.1526   25.1957 N   0  0  0  0  0  0  0  0  0  0  0  0
    9.9308  -16.4761   26.2548 C   0  0  1  0  0  0  0  0  0  0  0  0
    8.9081  -15.9792   27.2304 C   0  0  0  0  0  0  0  0  0  0  0  0
    7.9292  -15.0936   26.6054 C   0  0  0  0  0  0  0  0  0  0  0  0
    6.7562  -15.4741   25.9883 C   0  0  0  0  0  0  0  0  0  0  0  0
    6.1224  -14.3964   25.4971 N   0  0  0  0  0  0  0  0  0  0  0  0
    6.8609  -13.3094   25.7824 C   0  0  0  0  0  0  0  0  0  0  0  0
    6.6588  -11.9725   25.5214 C   0  0  0  0  0  0  0  0  0  0  0  0
    7.5747  -11.0131   25.9421 C   0  0  0  0  0  0  0  0  0  0  0  0
    8.7073  -11.3911   26.6320 C   0  0  0  0  0  0  0  0  0  0  0  0
    8.8941  -12.7298   26.8835 C   0  0  0  0  0  0  0  0  0  0  0  0
    8.0016  -13.7241   26.4793 C   0  0  0  0  0  0  0  0  0  0  0  0
   10.9877  -17.3371   26.7627 C   0  0  0  0  0  0  0  0  0  0  0  0
   11.0923  -18.5605   26.5316 O   0  0  0  0  0  0  0  0  0  0  0  0
   11.9879  -16.7827   27.5821 O   0  0  0  0  0  0  0  0  0  0  0  0
  2  1  1  0
  3  2  1  0
  4  3  1  0
  5  4  1  0
  5  6  1  1
  7  5  1  0
  7  8  2  0
  9  7  1  0
 10  9  1  0
 10 11  1  6
 11 12  1  0
 12 13  1  0
 13 14  1  0
 14 15  1  0
 16 10  1  0
 17 16  2  0
 18 16  1  0
 19 18  1  0
 19 20  1  1
 20 21  1  0
 21 22  2  0
 22 23  1  0
 24 23  1  0
 25 24  2  0
 26 25  1  0
 27 28  1  0
 27 26  2  0
 28 29  2  0
 29 21  1  0
 29 24  1  0
 30 19  1  0
 30 32  1  0
 31 30  2  0
M  END
$$$$
