MKW.pdb
     RDKit          3D

 32 33  0  0  1  0  0  0  0  0999 V2000
    8.8244  -21.5278   15.9320 C   0  0  0  0  0  0  0  0  0  0  0  0
    7.2396  -20.7821   16.3921 S   0  0  0  0  0  0  0  0  0  0  0  0
    7.3974  -20.0710   18.0618 C   0  0  0  0  0  0  0  0  0  0  0  0
    8.8412  -19.8110   18.3297 C   0  0  0  0  0  0  0  0  0  0  0  0
    9.0411  -19.2306   19.7032 C   0  0  2  0  0  0  0  0  0  0  0  0
    7.7741  -19.2281   20.4373 N   0  0  0  0  0  0  0  0  0  0  0  0
    9.5050  -17.8411   19.5976 C   0  0  0  0  0  0  0  0  0  0  0  0
   10.5772  -17.5064   18.9790 O   0  0  0  0  0  0  0  0  0  0  0  0
    8.7719  -16.8020   20.1859 N   0  0  0  0  0  0  0  0  0  0  0  0
    9.2417  -15.3775   20.1646 C   0  0  1  0  0  0  0  0  0  0  0  0
    8.3381  -14.7349   19.1737 C   0  0  0  0  0  0  0  0  0  0  0  0
    8.5726  -14.8562   17.7403 C   0  0  0  0  0  0  0  0  0  0  0  0
    8.2063  -13.8221   16.7822 C   0  0  0  0  0  0  0  0  0  0  0  0
    8.4592  -13.9228   15.3440 C   0  0  0  0  0  0  0  0  0  0  0  0
    7.7942  -12.7185   14.7443 N   0  0  0  0  0  0  0  0  0  0  0  0
    8.9705  -14.9259   21.5796 C   0  0  0  0  0  0  0  0  0  0  0  0
    7.8581  -14.3598   21.8890 O   0  0  0  0  0  0  0  0  0  0  0  0
    9.9651  -15.1421   22.5480 N   0  0  0  0  0  0  0  0  0  0  0  0
    9.5230  -15.3471   23.9450 C   0  0  1  0  0  0  0  0  0  0  0  0
    8.0304  -15.4502   23.8660 C   0  0  0  0  0  0  0  0  0  0  0  0
    7.3770  -14.9940   25.0901 C   0  0  0  0  0  0  0  0  0  0  0  0
    6.6990  -15.7791   25.9986 C   0  0  0  0  0  0  0  0  0  0  0  0
    6.1990  -15.0166   26.9850 N   0  0  0  0  0  0  0  0  0  0  0  0
    6.5386  -13.7387   26.7402 C   0  0  0  0  0  0  0  0  0  0  0  0
    6.2935  -12.5775   27.4389 C   0  0  0  0  0  0  0  0  0  0  0  0
    6.7742  -11.3528   26.9858 C   0  0  0  0  0  0  0  0  0  0  0  0
    7.5090  -11.2842   25.8209 C   0  0  0  0  0  0  0  0  0  0  0  0
    7.7439  -12.4526   25.1353 C   0  0  0  0  0  0  0  0  0  0  0  0
    7.2800  -13.7009   25.5537 C   0  0  0  0  0  0  0  0  0  0  0  0
   10.2445  -16.4441   24.5713 C   0  0  0  0  0  0  0  0  0  0  0  0
   10.5296  -17.5270   24.0171 O   0  0  0  0  0  0  0  0  0  0  0  0
   10.6701  -16.3104   25.9055 O   0  0  0  0  0  0  0  0  0  0  0  0
  2  1  1  0
  3  2  1  0
  4  3  1  0
  5  4  1  0
  5  6  1  1
  7  5  1  0
  7  8  2  0
  9  7  1  0
 10  9  1  0
 10 11  1  6
 11 12  1  0
 12 13  1  0
 13 14  1  0
 14 15  1  0
 16 10  1  0
 17 16  2  0
 18 16  1  0
 19 18  1  0
 19 20  1  6
 20 21  1  0
 21 22  2  0
 22 23  1  0
 24 23  1  0
 25 24  2  0
 26 25  1  0
 27 28  1  0
 27 26  2  0
 28 29  2  0
 29 21  1  0
 29 24  1  0
 30 19  1  0
 30 32  1  0
 31 30  2  0
M  END
$$$$
