MKW.pdb
     RDKit          3D

 32 33  0  0  1  0  0  0  0  0999 V2000
    8.9090  -11.6074   20.6919 C   0  0  0  0  0  0  0  0  0  0  0  0
    7.6207  -11.9179   19.4578 S   0  0  0  0  0  0  0  0  0  0  0  0
    7.6863  -13.6751   18.9818 C   0  0  0  0  0  0  0  0  0  0  0  0
    7.8047  -14.4959   20.2212 C   0  0  0  0  0  0  0  0  0  0  0  0
    8.0630  -15.9407   19.8913 C   0  0  2  0  0  0  0  0  0  0  0  0
    6.9481  -16.4861   19.1142 N   0  0  0  0  0  0  0  0  0  0  0  0
    8.1779  -16.7245   21.1281 C   0  0  0  0  0  0  0  0  0  0  0  0
    7.1622  -17.1789   21.7655 O   0  0  0  0  0  0  0  0  0  0  0  0
    9.4372  -17.0116   21.6714 N   0  0  0  0  0  0  0  0  0  0  0  0
    9.6144  -17.9354   22.8400 C   0  0  1  0  0  0  0  0  0  0  0  0
   10.7451  -18.8048   22.4194 C   0  0  0  0  0  0  0  0  0  0  0  0
   11.2199  -19.8952   23.2621 C   0  0  0  0  0  0  0  0  0  0  0  0
   12.2539  -20.8326   22.8454 C   0  0  0  0  0  0  0  0  0  0  0  0
   12.7093  -21.9554   23.6666 C   0  0  0  0  0  0  0  0  0  0  0  0
   13.3048  -21.3275   24.8926 N   0  0  0  0  0  0  0  0  0  0  0  0
    9.9919  -16.9842   23.9502 C   0  0  0  0  0  0  0  0  0  0  0  0
   10.7947  -16.0034   23.7332 O   0  0  0  0  0  0  0  0  0  0  0  0
    9.4416  -17.1991   25.2248 N   0  0  0  0  0  0  0  0  0  0  0  0
   10.0643  -16.4901   26.3644 C   0  0  1  0  0  0  0  0  0  0  0  0
    8.9382  -16.2269   27.3169 C   0  0  0  0  0  0  0  0  0  0  0  0
    7.8716  -15.4347   26.7100 C   0  0  0  0  0  0  0  0  0  0  0  0
    6.7369  -15.9216   26.0964 C   0  0  0  0  0  0  0  0  0  0  0  0
    5.9959  -14.9060   25.6233 N   0  0  0  0  0  0  0  0  0  0  0  0
    6.6261  -13.7549   25.9172 C   0  0  0  0  0  0  0  0  0  0  0  0
    6.2911  -12.4414   25.6746 C   0  0  0  0  0  0  0  0  0  0  0  0
    7.1116  -11.4015   26.1010 C   0  0  0  0  0  0  0  0  0  0  0  0
    8.2815  -11.6742   26.7781 C   0  0  0  0  0  0  0  0  0  0  0  0
    8.6013  -12.9909   27.0113 C   0  0  0  0  0  0  0  0  0  0  0  0
    7.8078  -14.0634   26.6008 C   0  0  0  0  0  0  0  0  0  0  0  0
   11.2209  -17.2144   26.8682 C   0  0  0  0  0  0  0  0  0  0  0  0
   11.5613  -18.3629   26.5130 O   0  0  0  0  0  0  0  0  0  0  0  0
   12.0439  -16.6045   27.8326 O   0  0  0  0  0  0  0  0  0  0  0  0
  2  1  1  0
  3  2  1  0
  4  3  1  0
  5  4  1  0
  5  6  1  6
  7  5  1  0
  7  8  2  0
  9  7  1  0
 10  9  1  0
 10 11  1  6
 11 12  1  0
 12 13  1  0
 13 14  1  0
 14 15  1  0
 16 10  1  0
 17 16  2  0
 18 16  1  0
 19 18  1  0
 19 20  1  1
 20 21  1  0
 21 22  2  0
 22 23  1  0
 24 23  1  0
 25 24  2  0
 26 25  1  0
 27 28  1  0
 27 26  2  0
 28 29  2  0
 29 21  1  0
 29 24  1  0
 30 19  1  0
 30 32  1  0
 31 30  2  0
M  END
$$$$
