KNC.pdb
     RDKit          3D

 24 23  0  0  1  0  0  0  0  0999 V2000
    9.2295  -17.8786   17.5137 N   0  0  0  0  0  0  0  0  0  0  0  0
   10.1100  -16.8284   18.0921 C   0  0  1  0  0  0  0  0  0  0  0  0
    9.1556  -15.7114   18.4578 C   0  0  0  0  0  0  0  0  0  0  0  0
    8.5415  -15.0024   17.3021 C   0  0  0  0  0  0  0  0  0  0  0  0
    7.7544  -13.7848   17.7055 C   0  0  0  0  0  0  0  0  0  0  0  0
    7.1909  -13.0604   16.4906 C   0  0  0  0  0  0  0  0  0  0  0  0
    6.4275  -11.8957   16.8908 N   0  0  0  0  0  0  0  0  0  0  0  0
   10.7491  -17.4599   19.2775 C   0  0  0  0  0  0  0  0  0  0  0  0
   10.1066  -18.2761   19.9977 O   0  0  0  0  0  0  0  0  0  0  0  0
   15.9858  -19.7132   21.0164 N   0  0  0  0  0  0  0  0  0  0  0  0
   15.0013  -18.7836   21.4352 C   0  0  0  0  0  0  0  0  0  0  0  0
   14.8703  -18.5893   22.6749 O   0  0  0  0  0  0  0  0  0  0  0  0
   14.1636  -18.0702   20.4856 C   0  0  0  0  0  0  0  0  0  0  0  0
   12.7414  -17.8703   20.8064 C   0  0  2  0  0  0  0  0  0  0  0  0
   12.0997  -17.1983   19.6722 N   0  0  0  0  0  0  0  0  0  0  0  0
   12.3787  -17.2671   22.0827 C   0  0  0  0  0  0  0  0  0  0  0  0
   12.7342  -16.0379   22.2528 O   0  0  0  0  0  0  0  0  0  0  0  0
   11.6891  -17.8655   23.1538 N   0  0  0  0  0  0  0  0  0  0  0  0
   11.6090  -17.1696   24.4303 C   0  0  1  0  0  0  0  0  0  0  0  0
   10.2571  -16.5830   24.7082 C   0  0  0  0  0  0  0  0  0  0  0  0
    8.9289  -17.7694   24.4161 S   0  0  0  0  0  0  0  0  0  0  0  0
   11.9066  -18.1366   25.5507 C   0  0  0  0  0  0  0  0  0  0  0  0
   11.9905  -19.3624   25.3470 O   0  0  0  0  0  0  0  0  0  0  0  0
   12.0842  -17.6382   26.8131 O   0  0  0  0  0  0  0  0  0  0  0  0
  2  1  1  1
  3  2  1  0
  4  3  1  0
  4  5  1  0
  5  6  1  0
  7  6  1  0
  8 15  1  0
  8  2  1  0
  9  8  2  0
 10 11  1  0
 11 13  1  0
 12 11  2  0
 14 13  1  6
 14 15  1  0
 14 16  1  0
 16 18  1  0
 16 17  2  0
 18 19  1  0
 19 20  1  1
 21 20  1  0
 22 19  1  0
 22 24  1  0
 23 22  2  0
M  END
$$$$
