KNC.pdb
     RDKit          3D

 24 23  0  0  1  0  0  0  0  0999 V2000
    9.9487  -14.4577   19.7990 N   0  0  0  0  0  0  0  0  0  0  0  0
    8.9167  -13.5348   20.3429 C   0  0  1  0  0  0  0  0  0  0  0  0
    7.8472  -13.5096   19.2715 C   0  0  0  0  0  0  0  0  0  0  0  0
    8.1184  -14.3719   18.0889 C   0  0  0  0  0  0  0  0  0  0  0  0
    7.6036  -13.7884   16.8009 C   0  0  0  0  0  0  0  0  0  0  0  0
    7.9055  -14.6994   15.6188 C   0  0  0  0  0  0  0  0  0  0  0  0
    7.2891  -14.1968   14.4076 N   0  0  0  0  0  0  0  0  0  0  0  0
    8.4564  -14.1625   21.6105 C   0  0  0  0  0  0  0  0  0  0  0  0
    7.4310  -13.7291   22.2090 O   0  0  0  0  0  0  0  0  0  0  0  0
    9.6862  -18.8408   21.5807 N   0  0  0  0  0  0  0  0  0  0  0  0
    8.7492  -18.2315   22.4520 C   0  0  0  0  0  0  0  0  0  0  0  0
    7.5325  -18.5304   22.3039 O   0  0  0  0  0  0  0  0  0  0  0  0
    9.1564  -17.2937   23.4852 C   0  0  0  0  0  0  0  0  0  0  0  0
    8.6302  -15.9201   23.4423 C   0  0  2  0  0  0  0  0  0  0  0  0
    9.1211  -15.2728   22.2217 N   0  0  0  0  0  0  0  0  0  0  0  0
    8.7735  -15.0672   24.6155 C   0  0  0  0  0  0  0  0  0  0  0  0
    9.9740  -14.6872   24.8997 O   0  0  0  0  0  0  0  0  0  0  0  0
    7.7595  -14.6101   25.4779 N   0  0  0  0  0  0  0  0  0  0  0  0
    8.1162  -13.8039   26.6367 C   0  0  1  0  0  0  0  0  0  0  0  0
    7.0239  -12.8767   27.0798 C   0  0  0  0  0  0  0  0  0  0  0  0
    6.0175  -12.3026   25.6961 S   0  0  0  0  0  0  0  0  0  0  0  0
    8.4240  -14.7094   27.8048 C   0  0  0  0  0  0  0  0  0  0  0  0
    8.3091  -15.9464   27.7170 O   0  0  0  0  0  0  0  0  0  0  0  0
    8.8364  -14.1414   28.9799 O   0  0  0  0  0  0  0  0  0  0  0  0
  2  1  1  6
  3  2  1  0
  4  3  1  0
  4  5  1  0
  5  6  1  0
  7  6  1  0
  8 15  1  0
  8  2  1  0
  9  8  2  0
 10 11  1  0
 11 13  1  0
 12 11  2  0
 14 13  1  1
 14 15  1  0
 14 16  1  0
 16 18  1  0
 16 17  2  0
 18 19  1  0
 19 20  1  1
 21 20  1  0
 22 19  1  0
 22 24  1  0
 23 22  2  0
M  END
$$$$
