KNC.pdb
     RDKit          3D

 24 23  0  0  1  0  0  0  0  0999 V2000
    7.8020  -15.7703   20.5664 N   0  0  0  0  0  0  0  0  0  0  0  0
    7.9612  -14.5745   21.4366 C   0  0  1  0  0  0  0  0  0  0  0  0
    6.8714  -13.6335   20.9683 C   0  0  0  0  0  0  0  0  0  0  0  0
    6.8434  -13.3806   19.5017 C   0  0  0  0  0  0  0  0  0  0  0  0
    8.2141  -13.3419   18.8819 C   0  0  0  0  0  0  0  0  0  0  0  0
    8.1378  -13.1045   17.3798 C   0  0  0  0  0  0  0  0  0  0  0  0
    9.4555  -13.1584   16.7799 N   0  0  0  0  0  0  0  0  0  0  0  0
    7.7491  -15.0666   22.8242 C   0  0  0  0  0  0  0  0  0  0  0  0
    7.5858  -14.2538   23.7783 O   0  0  0  0  0  0  0  0  0  0  0  0
    7.1438  -18.4560   26.9934 N   0  0  0  0  0  0  0  0  0  0  0  0
    6.9303  -19.0698   25.7339 C   0  0  0  0  0  0  0  0  0  0  0  0
    6.5783  -20.2813   25.7259 O   0  0  0  0  0  0  0  0  0  0  0  0
    7.1056  -18.3458   24.4859 C   0  0  0  0  0  0  0  0  0  0  0  0
    7.5120  -16.9324   24.5381 C   0  0  2  0  0  0  0  0  0  0  0  0
    7.7118  -16.4558   23.1659 N   0  0  0  0  0  0  0  0  0  0  0  0
    8.6007  -16.5382   25.4234 C   0  0  0  0  0  0  0  0  0  0  0  0
    9.7952  -16.6827   24.9561 O   0  0  0  0  0  0  0  0  0  0  0  0
    8.5055  -16.0208   26.7289 N   0  0  0  0  0  0  0  0  0  0  0  0
    9.7069  -15.5403   27.3967 C   0  0  1  0  0  0  0  0  0  0  0  0
    9.4710  -14.3370   28.2601 C   0  0  0  0  0  0  0  0  0  0  0  0
   10.9859  -13.7655   29.0572 S   0  0  0  0  0  0  0  0  0  0  0  0
   10.2520  -16.6246   28.2946 C   0  0  0  0  0  0  0  0  0  0  0  0
    9.5875  -17.6437   28.5612 O   0  0  0  0  0  0  0  0  0  0  0  0
   11.5061  -16.4677   28.8201 O   0  0  0  0  0  0  0  0  0  0  0  0
  2  1  1  6
  3  2  1  0
  4  3  1  0
  4  5  1  0
  5  6  1  0
  7  6  1  0
  8 15  1  0
  8  2  1  0
  9  8  2  0
 10 11  1  0
 11 13  1  0
 12 11  2  0
 14 13  1  6
 14 15  1  0
 14 16  1  0
 16 18  1  0
 16 17  2  0
 18 19  1  0
 19 20  1  1
 21 20  1  0
 22 19  1  0
 22 24  1  0
 23 22  2  0
M  END
$$$$
