KNC.pdb
     RDKit          3D

 24 23  0  0  1  0  0  0  0  0999 V2000
    7.4753  -18.1438   19.1171 N   0  0  0  0  0  0  0  0  0  0  0  0
    8.9222  -17.9948   18.8059 C   0  0  1  0  0  0  0  0  0  0  0  0
    8.9679  -17.9454   17.2933 C   0  0  0  0  0  0  0  0  0  0  0  0
    8.3012  -19.0841   16.6044 C   0  0  0  0  0  0  0  0  0  0  0  0
    8.3248  -18.9636   15.1045 C   0  0  0  0  0  0  0  0  0  0  0  0
    7.6095  -20.1332   14.4422 C   0  0  0  0  0  0  0  0  0  0  0  0
    7.7154  -20.0545   12.9994 N   0  0  0  0  0  0  0  0  0  0  0  0
    9.3319  -16.7147   19.4430 C   0  0  0  0  0  0  0  0  0  0  0  0
   10.5380  -16.3378   19.4147 O   0  0  0  0  0  0  0  0  0  0  0  0
    6.1411  -12.9738   18.7698 N   0  0  0  0  0  0  0  0  0  0  0  0
    7.4753  -13.2395   19.1670 C   0  0  0  0  0  0  0  0  0  0  0  0
    8.3727  -13.1754   18.2824 O   0  0  0  0  0  0  0  0  0  0  0  0
    7.8169  -13.5750   20.5393 C   0  0  0  0  0  0  0  0  0  0  0  0
    8.8348  -14.6095   20.7831 C   0  0  2  0  0  0  0  0  0  0  0  0
    8.4142  -15.8424   20.1102 N   0  0  0  0  0  0  0  0  0  0  0  0
    9.2890  -14.8521   22.1467 C   0  0  0  0  0  0  0  0  0  0  0  0
    8.6130  -14.2753   23.0830 O   0  0  0  0  0  0  0  0  0  0  0  0
   10.3788  -15.6385   22.5650 N   0  0  0  0  0  0  0  0  0  0  0  0
   10.6010  -15.8529   23.9880 C   0  0  1  0  0  0  0  0  0  0  0  0
    9.4961  -16.6138   24.6582 C   0  0  0  0  0  0  0  0  0  0  0  0
    9.8777  -16.9880   26.3820 S   0  0  0  0  0  0  0  0  0  0  0  0
   11.8666  -16.6518   24.1854 C   0  0  0  0  0  0  0  0  0  0  0  0
   12.4475  -17.1975   23.2283 O   0  0  0  0  0  0  0  0  0  0  0  0
   12.3730  -16.7701   25.4516 O   0  0  0  0  0  0  0  0  0  0  0  0
  2  1  1  6
  3  2  1  0
  4  3  1  0
  4  5  1  0
  5  6  1  0
  7  6  1  0
  8 15  1  0
  8  2  1  0
  9  8  2  0
 10 11  1  0
 11 13  1  0
 12 11  2  0
 14 13  1  1
 14 15  1  0
 14 16  1  0
 16 18  1  0
 16 17  2  0
 18 19  1  0
 19 20  1  6
 21 20  1  0
 22 19  1  0
 22 24  1  0
 23 22  2  0
M  END
$$$$
