KNC.pdb
     RDKit          3D

 24 23  0  0  1  0  0  0  0  0999 V2000
   11.2537  -16.8773   17.2708 N   0  0  0  0  0  0  0  0  0  0  0  0
   12.1726  -15.7081   17.3059 C   0  0  1  0  0  0  0  0  0  0  0  0
   12.0517  -15.1061   15.9219 C   0  0  0  0  0  0  0  0  0  0  0  0
   12.4517  -16.0055   14.8054 C   0  0  0  0  0  0  0  0  0  0  0  0
   12.4305  -15.3268   13.4625 C   0  0  0  0  0  0  0  0  0  0  0  0
   12.9707  -16.2398   12.3703 C   0  0  0  0  0  0  0  0  0  0  0  0
   13.1201  -15.5204   11.1216 N   0  0  0  0  0  0  0  0  0  0  0  0
   11.6405  -14.8214   18.3752 C   0  0  0  0  0  0  0  0  0  0  0  0
   12.2574  -13.7690   18.7059 O   0  0  0  0  0  0  0  0  0  0  0  0
    9.0678  -12.7881   17.8265 N   0  0  0  0  0  0  0  0  0  0  0  0
    8.1197  -13.2615   18.7675 C   0  0  0  0  0  0  0  0  0  0  0  0
    6.8997  -13.0500   18.5256 O   0  0  0  0  0  0  0  0  0  0  0  0
    8.5195  -13.9674   19.9735 C   0  0  0  0  0  0  0  0  0  0  0  0
    9.9474  -14.2518   20.1873 C   0  0  2  0  0  0  0  0  0  0  0  0
   10.4248  -15.0881   19.0816 N   0  0  0  0  0  0  0  0  0  0  0  0
   10.3865  -14.7491   21.4851 C   0  0  0  0  0  0  0  0  0  0  0  0
   10.0366  -14.0485   22.5112 O   0  0  0  0  0  0  0  0  0  0  0  0
   11.1490  -15.9013   21.7536 N   0  0  0  0  0  0  0  0  0  0  0  0
   11.6693  -16.1172   23.0963 C   0  0  1  0  0  0  0  0  0  0  0  0
   10.9051  -17.1456   23.8759 C   0  0  0  0  0  0  0  0  0  0  0  0
   11.6780  -17.5041   25.4669 S   0  0  0  0  0  0  0  0  0  0  0  0
   13.0965  -16.6019   23.0116 C   0  0  0  0  0  0  0  0  0  0  0  0
   13.6202  -16.8955   21.9204 O   0  0  0  0  0  0  0  0  0  0  0  0
   13.8166  -16.7167   24.1700 O   0  0  0  0  0  0  0  0  0  0  0  0
  2  1  1  6
  3  2  1  0
  4  3  1  0
  4  5  1  0
  5  6  1  0
  7  6  1  0
  8 15  1  0
  8  2  1  0
  9  8  2  0
 10 11  1  0
 11 13  1  0
 12 11  2  0
 14 13  1  1
 14 15  1  0
 14 16  1  0
 16 18  1  0
 16 17  2  0
 18 19  1  0
 19 20  1  6
 21 20  1  0
 22 19  1  0
 22 24  1  0
 23 22  2  0
M  END
$$$$
