KNC.pdb
     RDKit          3D

 24 23  0  0  1  0  0  0  0  0999 V2000
    8.9821  -16.1730   20.3171 N   0  0  0  0  0  0  0  0  0  0  0  0
    8.6283  -14.7670   20.6498 C   0  0  1  0  0  0  0  0  0  0  0  0
    7.7358  -14.3339   19.5060 C   0  0  0  0  0  0  0  0  0  0  0  0
    8.2804  -14.5972   18.1460 C   0  0  0  0  0  0  0  0  0  0  0  0
    7.9705  -13.5013   17.1624 C   0  0  0  0  0  0  0  0  0  0  0  0
    8.5841  -13.7892   15.7989 C   0  0  0  0  0  0  0  0  0  0  0  0
    8.1878  -12.7864   14.8311 N   0  0  0  0  0  0  0  0  0  0  0  0
    7.9128  -14.8388   21.9519 C   0  0  0  0  0  0  0  0  0  0  0  0
    7.3361  -13.8195   22.4274 O   0  0  0  0  0  0  0  0  0  0  0  0
    8.1804  -19.4189   23.9342 N   0  0  0  0  0  0  0  0  0  0  0  0
    7.5861  -18.4534   24.7847 C   0  0  0  0  0  0  0  0  0  0  0  0
    7.8732  -18.4995   26.0123 O   0  0  0  0  0  0  0  0  0  0  0  0
    6.6764  -17.4388   24.2789 C   0  0  0  0  0  0  0  0  0  0  0  0
    7.1883  -16.0777   24.0531 C   0  0  2  0  0  0  0  0  0  0  0  0
    7.8258  -16.0345   22.7334 N   0  0  0  0  0  0  0  0  0  0  0  0
    8.0050  -15.4458   25.0817 C   0  0  0  0  0  0  0  0  0  0  0  0
    9.2732  -15.3908   24.8476 O   0  0  0  0  0  0  0  0  0  0  0  0
    7.5765  -14.8903   26.3019 N   0  0  0  0  0  0  0  0  0  0  0  0
    8.4289  -13.9301   26.9886 C   0  0  1  0  0  0  0  0  0  0  0  0
    7.6753  -12.7750   27.5776 C   0  0  0  0  0  0  0  0  0  0  0  0
    6.7113  -11.8889   26.3356 S   0  0  0  0  0  0  0  0  0  0  0  0
    9.1430  -14.6154   28.1285 C   0  0  0  0  0  0  0  0  0  0  0  0
    9.9312  -13.9968   28.8682 O   0  0  0  0  0  0  0  0  0  0  0  0
    8.9084  -15.9474   28.3390 O   0  0  0  0  0  0  0  0  0  0  0  0
  2  1  1  6
  3  2  1  0
  4  3  1  0
  4  5  1  0
  5  6  1  0
  7  6  1  0
  8 15  1  0
  8  2  1  0
  9  8  2  0
 10 11  1  0
 11 13  1  0
 12 11  2  0
 14 13  1  1
 14 15  1  0
 14 16  1  0
 16 18  1  0
 16 17  2  0
 18 19  1  0
 19 20  1  1
 21 20  1  0
 22 19  1  0
 22 24  1  0
 23 22  2  0
M  END
$$$$
