KNC.pdb
     RDKit          3D

 24 23  0  0  1  0  0  0  0  0999 V2000
    9.6369  -19.2114   19.6107 N   0  0  0  0  0  0  0  0  0  0  0  0
   10.8623  -18.4437   19.2622 C   0  0  1  0  0  0  0  0  0  0  0  0
   11.0857  -18.7562   17.7977 C   0  0  0  0  0  0  0  0  0  0  0  0
    9.9488  -19.4337   17.1165 C   0  0  0  0  0  0  0  0  0  0  0  0
   10.3175  -20.7750   16.5425 C   0  0  0  0  0  0  0  0  0  0  0  0
    9.2296  -21.3005   15.6159 C   0  0  0  0  0  0  0  0  0  0  0  0
    9.4667  -22.6885   15.2746 N   0  0  0  0  0  0  0  0  0  0  0  0
   10.5162  -17.0179   19.5071 C   0  0  0  0  0  0  0  0  0  0  0  0
   11.3870  -16.1114   19.3742 O   0  0  0  0  0  0  0  0  0  0  0  0
    7.9074  -12.4408   20.0326 N   0  0  0  0  0  0  0  0  0  0  0  0
    7.0994  -13.5113   19.5744 C   0  0  0  0  0  0  0  0  0  0  0  0
    5.9563  -13.2289   19.1214 O   0  0  0  0  0  0  0  0  0  0  0  0
    7.5543  -14.8911   19.6167 C   0  0  0  0  0  0  0  0  0  0  0  0
    8.8857  -15.1812   20.1725 C   0  0  2  0  0  0  0  0  0  0  0  0
    9.2088  -16.5843   19.8953 N   0  0  0  0  0  0  0  0  0  0  0  0
    9.1764  -14.8098   21.5516 C   0  0  0  0  0  0  0  0  0  0  0  0
    9.8495  -13.7210   21.7181 O   0  0  0  0  0  0  0  0  0  0  0  0
    8.8130  -15.4979   22.7245 N   0  0  0  0  0  0  0  0  0  0  0  0
    9.2501  -14.9885   24.0166 C   0  0  1  0  0  0  0  0  0  0  0  0
    8.1300  -14.8025   24.9964 C   0  0  0  0  0  0  0  0  0  0  0  0
    6.9665  -13.5297   24.4642 S   0  0  0  0  0  0  0  0  0  0  0  0
   10.2211  -15.9621   24.6396 C   0  0  0  0  0  0  0  0  0  0  0  0
   10.7185  -15.7562   25.7626 O   0  0  0  0  0  0  0  0  0  0  0  0
   10.5524  -17.0911   23.9401 O   0  0  0  0  0  0  0  0  0  0  0  0
  2  1  1  6
  3  2  1  0
  4  3  1  0
  4  5  1  0
  5  6  1  0
  7  6  1  0
  8 15  1  0
  8  2  1  0
  9  8  2  0
 10 11  1  0
 11 13  1  0
 12 11  2  0
 14 13  1  1
 14 15  1  0
 14 16  1  0
 16 18  1  0
 16 17  2  0
 18 19  1  0
 19 20  1  1
 21 20  1  0
 22 19  1  0
 22 24  1  0
 23 22  2  0
M  END
$$$$
