KNC.pdb
     RDKit          3D

 24 23  0  0  1  0  0  0  0  0999 V2000
    8.4899  -12.4987   18.2410 N   0  0  0  0  0  0  0  0  0  0  0  0
    7.8949  -13.7513   18.7792 C   0  0  1  0  0  0  0  0  0  0  0  0
    8.5080  -14.8428   17.9276 C   0  0  0  0  0  0  0  0  0  0  0  0
    8.0215  -14.8945   16.5219 C   0  0  0  0  0  0  0  0  0  0  0  0
    8.6847  -15.9710   15.7057 C   0  0  0  0  0  0  0  0  0  0  0  0
    8.0941  -16.0485   14.3044 C   0  0  0  0  0  0  0  0  0  0  0  0
    8.7101  -17.1153   13.5417 N   0  0  0  0  0  0  0  0  0  0  0  0
    8.3253  -13.8117   20.2018 C   0  0  0  0  0  0  0  0  0  0  0  0
    9.4391  -13.3327   20.5590 O   0  0  0  0  0  0  0  0  0  0  0  0
    6.9263  -13.2321   25.8377 N   0  0  0  0  0  0  0  0  0  0  0  0
    6.9412  -14.3223   24.9321 C   0  0  0  0  0  0  0  0  0  0  0  0
    7.0678  -15.4813   25.4142 O   0  0  0  0  0  0  0  0  0  0  0  0
    6.8164  -14.1315   23.4966 C   0  0  0  0  0  0  0  0  0  0  0  0
    7.9644  -14.4589   22.6361 C   0  0  2  0  0  0  0  0  0  0  0  0
    7.5289  -14.3960   21.2374 N   0  0  0  0  0  0  0  0  0  0  0  0
    8.7450  -15.6570   22.9180 C   0  0  0  0  0  0  0  0  0  0  0  0
    8.1810  -16.7833   22.6357 O   0  0  0  0  0  0  0  0  0  0  0  0
   10.0400  -15.7333   23.4640 N   0  0  0  0  0  0  0  0  0  0  0  0
   10.6503  -17.0380   23.6768 C   0  0  1  0  0  0  0  0  0  0  0  0
   12.1263  -17.0586   23.4118 C   0  0  0  0  0  0  0  0  0  0  0  0
   12.6651  -15.6239   22.4586 S   0  0  0  0  0  0  0  0  0  0  0  0
   10.4566  -17.4564   25.1143 C   0  0  0  0  0  0  0  0  0  0  0  0
   10.8940  -18.5418   25.5406 O   0  0  0  0  0  0  0  0  0  0  0  0
    9.7816  -16.6124   25.9544 O   0  0  0  0  0  0  0  0  0  0  0  0
  2  1  1  6
  3  2  1  0
  4  3  1  0
  4  5  1  0
  5  6  1  0
  7  6  1  0
  8 15  1  0
  8  2  1  0
  9  8  2  0
 10 11  1  0
 11 13  1  0
 12 11  2  0
 14 13  1  1
 14 15  1  0
 14 16  1  0
 16 18  1  0
 16 17  2  0
 18 19  1  0
 19 20  1  1
 21 20  1  0
 22 19  1  0
 22 24  1  0
 23 22  2  0
M  END
$$$$
