CLD.pdb
     RDKit          3D

 23 22  0  0  1  0  0  0  0  0999 V2000
   21.3418  -19.9042   -8.0141 N   0  0  0  0  0  0  0  0  0  0  0  0
   22.4385  -20.7815   -7.7099 C   0  0  1  0  0  0  0  0  0  0  0  0
   22.1278  -22.1825   -8.2198 C   0  0  0  0  0  0  0  0  0  0  0  0
   20.8117  -22.9577   -7.2538 S   0  0  0  0  0  0  0  0  0  0  0  0
   23.6375  -20.3168   -8.4411 C   0  0  0  0  0  0  0  0  0  0  0  0
   23.5492  -19.5329   -9.4227 O   0  0  0  0  0  0  0  0  0  0  0  0
   28.5325  -20.3869   -5.6826 C   0  0  0  0  0  0  0  0  0  0  0  0
   27.2580  -19.8890   -6.4011 C   0  0  1  0  0  0  0  0  0  0  0  0
   27.3009  -18.3876   -6.2817 C   0  0  0  0  0  0  0  0  0  0  0  0
   27.3292  -20.4224   -7.7835 C   0  0  0  0  0  0  0  0  0  0  0  0
   26.1292  -20.2502   -8.6508 C   0  0  2  0  0  0  0  0  0  0  0  0
   24.9292  -20.7541   -8.0415 N   0  0  0  0  0  0  0  0  0  0  0  0
   26.3218  -20.7543  -10.0248 C   0  0  0  0  0  0  0  0  0  0  0  0
   27.0484  -21.7580  -10.2254 O   0  0  0  0  0  0  0  0  0  0  0  0
   25.7115  -20.1454  -11.1551 N   0  0  0  0  0  0  0  0  0  0  0  0
   25.6400  -20.8148  -12.4395 C   0  0  1  0  0  0  0  0  0  0  0  0
   25.0237  -22.1791  -12.3265 C   0  0  0  0  0  0  0  0  0  0  0  0
   24.8099  -22.8455  -13.6326 C   0  0  0  0  0  0  0  0  0  0  0  0
   25.7776  -23.3808  -14.2183 O   0  0  0  0  0  0  0  0  0  0  0  0
   24.9384  -19.9644  -13.4294 C   0  0  0  0  0  0  0  0  0  0  0  0
   23.8511  -19.1639  -13.0681 O   0  0  0  0  0  0  0  0  0  0  0  0
   23.5668  -22.8990  -14.2370 O   0  0  0  0  0  0  0  0  0  0  0  0
   25.2944  -19.9306  -14.6310 O   0  0  0  0  0  0  0  0  0  0  0  0
  2  1  1  6
  2  5  1  0
  3  2  1  0
  4  3  1  0
  5  6  2  0
  8  7  1  1
  8  9  1  0
 11 10  1  1
 10  8  1  0
 11 13  1  0
 12  5  1  0
 12 11  1  0
 13 15  1  0
 14 13  2  0
 16 15  1  0
 16 20  1  0
 16 17  1  1
 18 17  1  0
 18 22  1  0
 19 18  2  0
 20 21  1  0
 23 20  2  0
M  END
$$$$
