CLD.pdb
     RDKit          3D

 23 22  0  0  1  0  0  0  0  0999 V2000
   26.0429  -21.5976  -11.9022 N   0  0  0  0  0  0  0  0  0  0  0  0
   25.7773  -21.5607  -13.3139 C   0  0  1  0  0  0  0  0  0  0  0  0
   24.8460  -22.7062  -13.6880 C   0  0  0  0  0  0  0  0  0  0  0  0
   25.7740  -24.1552  -14.2409 S   0  0  0  0  0  0  0  0  0  0  0  0
   25.0606  -20.3062  -13.6314 C   0  0  0  0  0  0  0  0  0  0  0  0
   24.2109  -19.8142  -12.8431 O   0  0  0  0  0  0  0  0  0  0  0  0
   27.3366  -16.1417  -16.6064 C   0  0  0  0  0  0  0  0  0  0  0  0
   26.5502  -16.8101  -15.4560 C   0  0  1  0  0  0  0  0  0  0  0  0
   26.1631  -15.6808  -14.5367 C   0  0  0  0  0  0  0  0  0  0  0  0
   25.4212  -17.5313  -16.0929 C   0  0  0  0  0  0  0  0  0  0  0  0
   24.6094  -18.4376  -15.2318 C   0  0  2  0  0  0  0  0  0  0  0  0
   25.3234  -19.6249  -14.8505 N   0  0  0  0  0  0  0  0  0  0  0  0
   23.2740  -18.7333  -15.7872 C   0  0  0  0  0  0  0  0  0  0  0  0
   23.1241  -19.7032  -16.5697 O   0  0  0  0  0  0  0  0  0  0  0  0
   22.1260  -17.9566  -15.4721 N   0  0  0  0  0  0  0  0  0  0  0  0
   20.7837  -18.4221  -15.7630 C   0  0  1  0  0  0  0  0  0  0  0  0
   20.2630  -19.3351  -14.6912 C   0  0  0  0  0  0  0  0  0  0  0  0
   18.9223  -19.8937  -14.9849 C   0  0  0  0  0  0  0  0  0  0  0  0
   18.3658  -19.6238  -16.0729 O   0  0  0  0  0  0  0  0  0  0  0  0
   19.8786  -17.2751  -16.0091 C   0  0  0  0  0  0  0  0  0  0  0  0
   18.7897  -17.3744  -16.8797 O   0  0  0  0  0  0  0  0  0  0  0  0
   18.2537  -20.7117  -14.0919 O   0  0  0  0  0  0  0  0  0  0  0  0
   20.0558  -16.1699  -15.4446 O   0  0  0  0  0  0  0  0  0  0  0  0
  2  1  1  1
  2  5  1  0
  3  2  1  0
  4  3  1  0
  5  6  2  0
  8  7  1  6
  8  9  1  0
 11 10  1  6
 10  8  1  0
 11 13  1  0
 12  5  1  0
 12 11  1  0
 13 15  1  0
 14 13  2  0
 16 15  1  0
 16 20  1  0
 16 17  1  1
 18 17  1  0
 18 22  1  0
 19 18  2  0
 20 21  1  0
 23 20  2  0
M  END
$$$$
