CLD.pdb
     RDKit          3D

 23 22  0  0  1  0  0  0  0  0999 V2000
   18.3776  -12.7978  -16.2992 N   0  0  0  0  0  0  0  0  0  0  0  0
   19.0478  -11.7956  -17.0810 C   0  0  1  0  0  0  0  0  0  0  0  0
   18.0393  -10.7551  -17.5495 C   0  0  0  0  0  0  0  0  0  0  0  0
   16.8316  -11.4739  -18.6857 S   0  0  0  0  0  0  0  0  0  0  0  0
   20.0205  -11.0899  -16.2184 C   0  0  0  0  0  0  0  0  0  0  0  0
   19.7269  -10.7345  -15.0465 O   0  0  0  0  0  0  0  0  0  0  0  0
   25.9661  -11.1351  -15.3851 C   0  0  0  0  0  0  0  0  0  0  0  0
   24.7391  -10.2252  -15.1503 C   0  0  1  0  0  0  0  0  0  0  0  0
   25.2132   -8.8335  -15.4800 C   0  0  0  0  0  0  0  0  0  0  0  0
   23.6603  -10.7556  -16.0194 C   0  0  0  0  0  0  0  0  0  0  0  0
   22.3103  -10.1356  -15.8975 C   0  0  2  0  0  0  0  0  0  0  0  0
   21.3228  -10.7966  -16.7055 N   0  0  0  0  0  0  0  0  0  0  0  0
   22.3170   -8.6727  -16.0949 C   0  0  0  0  0  0  0  0  0  0  0  0
   22.6162   -8.1955  -17.2167 O   0  0  0  0  0  0  0  0  0  0  0  0
   21.9944   -7.7594  -15.0545 N   0  0  0  0  0  0  0  0  0  0  0  0
   21.9562   -6.3271  -15.2782 C   0  0  1  0  0  0  0  0  0  0  0  0
   20.5517   -5.8231  -15.4425 C   0  0  0  0  0  0  0  0  0  0  0  0
   20.1322   -5.6811  -16.8566 C   0  0  0  0  0  0  0  0  0  0  0  0
   20.9701   -5.8550  -17.7697 O   0  0  0  0  0  0  0  0  0  0  0  0
   22.6839   -5.6144  -14.2021 C   0  0  0  0  0  0  0  0  0  0  0  0
   23.0017   -4.2573  -14.3066 O   0  0  0  0  0  0  0  0  0  0  0  0
   18.8342   -5.3595  -17.2106 O   0  0  0  0  0  0  0  0  0  0  0  0
   23.0428   -6.2029  -13.1550 O   0  0  0  0  0  0  0  0  0  0  0  0
  2  1  1  1
  2  5  1  0
  3  2  1  0
  4  3  1  0
  5  6  2  0
  8  7  1  6
  8  9  1  0
 11 10  1  6
 10  8  1  0
 11 13  1  0
 12  5  1  0
 12 11  1  0
 13 15  1  0
 14 13  2  0
 16 15  1  0
 16 20  1  0
 16 17  1  1
 18 17  1  0
 18 22  1  0
 19 18  2  0
 20 21  1  0
 23 20  2  0
M  END
$$$$
