CLD.pdb
     RDKit          3D

 23 22  0  0  1  0  0  0  0  0999 V2000
   22.5012  -20.4295  -16.5275 N   0  0  0  0  0  0  0  0  0  0  0  0
   23.1260  -19.5838  -17.5069 C   0  0  1  0  0  0  0  0  0  0  0  0
   22.2353  -19.4850  -18.7383 C   0  0  0  0  0  0  0  0  0  0  0  0
   22.0742  -21.0844  -19.5641 S   0  0  0  0  0  0  0  0  0  0  0  0
   23.2417  -18.2173  -16.9524 C   0  0  0  0  0  0  0  0  0  0  0  0
   22.3768  -17.7490  -16.1659 O   0  0  0  0  0  0  0  0  0  0  0  0
   25.7421  -14.0843  -14.8118 C   0  0  0  0  0  0  0  0  0  0  0  0
   26.2186  -14.2614  -16.2713 C   0  0  1  0  0  0  0  0  0  0  0  0
   27.6761  -13.8797  -16.2578 C   0  0  0  0  0  0  0  0  0  0  0  0
   25.9305  -15.6715  -16.6307 C   0  0  0  0  0  0  0  0  0  0  0  0
   24.5016  -16.0621  -16.7956 C   0  0  2  0  0  0  0  0  0  0  0  0
   24.3481  -17.3976  -17.3035 N   0  0  0  0  0  0  0  0  0  0  0  0
   23.7071  -15.0737  -17.5513 C   0  0  0  0  0  0  0  0  0  0  0  0
   23.8599  -14.9677  -18.7927 O   0  0  0  0  0  0  0  0  0  0  0  0
   22.7578  -14.2187  -16.9283 N   0  0  0  0  0  0  0  0  0  0  0  0
   21.9872  -13.2508  -17.6849 C   0  0  1  0  0  0  0  0  0  0  0  0
   20.6652  -12.9576  -17.0368 C   0  0  0  0  0  0  0  0  0  0  0  0
   19.8586  -11.9473  -17.7610 C   0  0  0  0  0  0  0  0  0  0  0  0
   19.3216  -12.2509  -18.8498 O   0  0  0  0  0  0  0  0  0  0  0  0
   22.7816  -12.0216  -17.9161 C   0  0  0  0  0  0  0  0  0  0  0  0
   22.7235  -11.3287  -19.1285 O   0  0  0  0  0  0  0  0  0  0  0  0
   19.6742  -10.6657  -17.2741 O   0  0  0  0  0  0  0  0  0  0  0  0
   23.5375  -11.5558  -17.0311 O   0  0  0  0  0  0  0  0  0  0  0  0
  2  1  1  1
  2  5  1  0
  3  2  1  0
  4  3  1  0
  5  6  2  0
  8  7  1  1
  8  9  1  0
 11 10  1  6
 10  8  1  0
 11 13  1  0
 12  5  1  0
 12 11  1  0
 13 15  1  0
 14 13  2  0
 16 15  1  0
 16 20  1  0
 16 17  1  1
 18 17  1  0
 18 22  1  0
 19 18  2  0
 20 21  1  0
 23 20  2  0
M  END
$$$$
