CLD.pdb
     RDKit          3D

 23 22  0  0  1  0  0  0  0  0999 V2000
   21.5408  -14.3465  -16.4649 N   0  0  0  0  0  0  0  0  0  0  0  0
   21.4781  -13.1988  -17.3273 C   0  0  1  0  0  0  0  0  0  0  0  0
   20.0659  -13.0509  -17.8780 C   0  0  0  0  0  0  0  0  0  0  0  0
   19.5392  -14.5445  -18.7487 S   0  0  0  0  0  0  0  0  0  0  0  0
   21.7539  -11.9857  -16.5271 C   0  0  0  0  0  0  0  0  0  0  0  0
   21.1726  -11.7722  -15.4306 O   0  0  0  0  0  0  0  0  0  0  0  0
   26.8000   -9.8029  -15.9513 C   0  0  0  0  0  0  0  0  0  0  0  0
   25.3973  -10.3921  -15.6799 C   0  0  1  0  0  0  0  0  0  0  0  0
   25.3054  -10.5133  -14.1808 C   0  0  0  0  0  0  0  0  0  0  0  0
   24.4296   -9.4583  -16.3060 C   0  0  0  0  0  0  0  0  0  0  0  0
   22.9860   -9.8259  -16.2551 C   0  0  2  0  0  0  0  0  0  0  0  0
   22.6945  -11.0261  -16.9896 N   0  0  0  0  0  0  0  0  0  0  0  0
   22.0846   -8.7118  -16.6091 C   0  0  0  0  0  0  0  0  0  0  0  0
   21.9071   -8.4114  -17.8149 O   0  0  0  0  0  0  0  0  0  0  0  0
   21.3934   -7.9471  -15.6303 N   0  0  0  0  0  0  0  0  0  0  0  0
   20.5384   -6.8333  -15.9928 C   0  0  1  0  0  0  0  0  0  0  0  0
   19.1811   -6.9401  -15.3605 C   0  0  0  0  0  0  0  0  0  0  0  0
   18.2994   -5.7838  -15.6451 C   0  0  0  0  0  0  0  0  0  0  0  0
   17.9549   -5.5455  -16.8244 O   0  0  0  0  0  0  0  0  0  0  0  0
   21.2020   -5.5462  -15.6791 C   0  0  0  0  0  0  0  0  0  0  0  0
   20.6567   -4.3235  -16.0806 O   0  0  0  0  0  0  0  0  0  0  0  0
   17.8369   -4.9469  -14.6454 O   0  0  0  0  0  0  0  0  0  0  0  0
   22.2798   -5.5052  -15.0402 O   0  0  0  0  0  0  0  0  0  0  0  0
  2  1  1  1
  2  5  1  0
  3  2  1  0
  4  3  1  0
  5  6  2  0
  8  7  1  1
  8  9  1  0
 11 10  1  6
 10  8  1  0
 11 13  1  0
 12  5  1  0
 12 11  1  0
 13 15  1  0
 14 13  2  0
 16 15  1  0
 16 20  1  0
 16 17  1  1
 18 17  1  0
 18 22  1  0
 19 18  2  0
 20 21  1  0
 23 20  2  0
M  END
$$$$
