IWV.pdb
     RDKit          3D

 30 31  0  0  1  0  0  0  0  0999 V2000
    6.8630  -12.7059   18.7709 C   0  0  0  0  0  0  0  0  0  0  0  0
    7.3341  -14.0623   19.1943 C   0  0  0  0  0  0  0  0  0  0  0  0
    7.9836  -14.0288   20.5763 C   0  0  2  0  0  0  0  0  0  0  0  0
    9.0664  -13.0059   20.5683 C   0  0  0  0  0  0  0  0  0  0  0  0
    8.4219  -15.4346   20.8650 C   0  0  2  0  0  0  0  0  0  0  0  0
    7.1759  -16.2239   20.8963 N   0  0  0  0  0  0  0  0  0  0  0  0
    9.1181  -15.5632   22.1924 C   0  0  0  0  0  0  0  0  0  0  0  0
   10.2201  -14.9798   22.3279 O   0  0  0  0  0  0  0  0  0  0  0  0
    8.5753  -16.2965   23.2418 N   0  0  0  0  0  0  0  0  0  0  0  0
    9.2420  -16.3942   24.5590 C   0  0  1  0  0  0  0  0  0  0  0  0
    8.1677  -16.4716   25.5756 C   0  0  0  0  0  0  0  0  0  0  0  0
    7.2359  -15.3341   25.5889 C   0  0  0  0  0  0  0  0  0  0  0  0
    5.9220  -15.3084   25.1586 C   0  0  0  0  0  0  0  0  0  0  0  0
    5.4694  -14.0563   25.3350 N   0  0  0  0  0  0  0  0  0  0  0  0
    6.4493  -13.2899   25.8610 C   0  0  0  0  0  0  0  0  0  0  0  0
    6.4633  -11.9443   26.2173 C   0  0  0  0  0  0  0  0  0  0  0  0
    7.6354  -11.4348   26.7402 C   0  0  0  0  0  0  0  0  0  0  0  0
    8.7642  -12.2013   26.9154 C   0  0  0  0  0  0  0  0  0  0  0  0
    8.7300  -13.5284   26.5571 C   0  0  0  0  0  0  0  0  0  0  0  0
    7.5713  -14.0527   26.0348 C   0  0  0  0  0  0  0  0  0  0  0  0
   10.2108  -17.4910   24.5356 C   0  0  0  0  0  0  0  0  0  0  0  0
    9.8534  -18.6029   24.0302 O   0  0  0  0  0  0  0  0  0  0  0  0
   13.4968  -17.6130   22.9979 C   0  0  0  0  0  0  0  0  0  0  0  0
   13.6941  -18.1586   24.3836 C   0  0  1  0  0  0  0  0  0  0  0  0
   14.2367  -17.0246   25.2444 C   0  0  0  0  0  0  0  0  0  0  0  0
   12.3708  -18.5736   25.0039 C   0  0  2  0  0  0  0  0  0  0  0  0
   11.5382  -17.3871   25.0431 N   0  0  0  0  0  0  0  0  0  0  0  0
   12.6039  -19.1038   26.3529 C   0  0  0  0  0  0  0  0  0  0  0  0
   13.2495  -20.3179   26.5333 O   0  0  0  0  0  0  0  0  0  0  0  0
   12.2373  -18.4954   27.3828 O   0  0  0  0  0  0  0  0  0  0  0  0
  1  2  1  0
  2  3  1  0
  3  4  1  6
  5  3  1  0
  5  6  1  1
  7  9  1  0
  7  5  1  0
  8  7  2  0
 10  9  1  0
 10 11  1  1
 12 13  2  0
 12 11  1  0
 14 13  1  0
 15 20  2  0
 15 14  1  0
 16 15  1  0
 17 18  1  0
 17 16  2  0
 18 19  2  0
 19 20  1  0
 20 12  1  0
 21 10  1  0
 21 27  1  0
 22 21  2  0
 24 23  1  6
 24 26  1  0
 24 25  1  0
 26 27  1  1
 26 28  1  0
 28 29  1  0
 30 28  2  0
M  END
$$$$
