IWV.pdb
     RDKit          3D

 30 31  0  0  1  0  0  0  0  0999 V2000
   11.3023  -19.6988   17.0680 C   0  0  0  0  0  0  0  0  0  0  0  0
   10.1811  -18.7872   17.4592 C   0  0  0  0  0  0  0  0  0  0  0  0
   10.4143  -18.1624   18.8333 C   0  0  2  0  0  0  0  0  0  0  0  0
   10.6929  -19.2520   19.8101 C   0  0  0  0  0  0  0  0  0  0  0  0
    9.2017  -17.3271   19.1224 C   0  0  2  0  0  0  0  0  0  0  0  0
    9.1533  -16.3347   18.0319 N   0  0  0  0  0  0  0  0  0  0  0  0
    9.2960  -16.6054   20.4391 C   0  0  0  0  0  0  0  0  0  0  0  0
   10.2464  -15.8015   20.5927 O   0  0  0  0  0  0  0  0  0  0  0  0
    8.3730  -16.8085   21.4591 N   0  0  0  0  0  0  0  0  0  0  0  0
    8.4659  -16.1001   22.7547 C   0  0  1  0  0  0  0  0  0  0  0  0
    7.0824  -15.7437   23.1454 C   0  0  0  0  0  0  0  0  0  0  0  0
    6.9302  -15.2409   24.5189 C   0  0  0  0  0  0  0  0  0  0  0  0
    6.5178  -15.9409   25.6378 C   0  0  0  0  0  0  0  0  0  0  0  0
    6.5026  -15.0764   26.6655 N   0  0  0  0  0  0  0  0  0  0  0  0
    6.8904  -13.8556   26.2368 C   0  0  0  0  0  0  0  0  0  0  0  0
    7.0325  -12.6512   26.9201 C   0  0  0  0  0  0  0  0  0  0  0  0
    7.4548  -11.5532   26.1968 C   0  0  0  0  0  0  0  0  0  0  0  0
    7.7329  -11.6139   24.8510 C   0  0  0  0  0  0  0  0  0  0  0  0
    7.5862  -12.8131   24.1942 C   0  0  0  0  0  0  0  0  0  0  0  0
    7.1667  -13.9168   24.8985 C   0  0  0  0  0  0  0  0  0  0  0  0
    9.2321  -16.9120   23.7012 C   0  0  0  0  0  0  0  0  0  0  0  0
    8.8695  -18.1160   23.8971 O   0  0  0  0  0  0  0  0  0  0  0  0
   12.9814  -17.2464   23.6710 C   0  0  0  0  0  0  0  0  0  0  0  0
   12.5549  -17.0866   25.1025 C   0  0  1  0  0  0  0  0  0  0  0  0
   12.7557  -15.6228   25.4747 C   0  0  0  0  0  0  0  0  0  0  0  0
   11.0723  -17.3729   25.2690 C   0  0  2  0  0  0  0  0  0  0  0  0
   10.3680  -16.4347   24.4168 N   0  0  0  0  0  0  0  0  0  0  0  0
   10.6924  -17.2006   26.6766 C   0  0  0  0  0  0  0  0  0  0  0  0
   11.1092  -18.1095   27.6375 O   0  0  0  0  0  0  0  0  0  0  0  0
    9.9879  -16.2430   27.0663 O   0  0  0  0  0  0  0  0  0  0  0  0
  1  2  1  0
  2  3  1  0
  3  4  1  1
  5  3  1  0
  5  6  1  6
  7  9  1  0
  7  5  1  0
  8  7  2  0
 10  9  1  0
 10 11  1  1
 12 13  2  0
 12 11  1  0
 14 13  1  0
 15 20  2  0
 15 14  1  0
 16 15  1  0
 17 18  1  0
 17 16  2  0
 18 19  2  0
 19 20  1  0
 20 12  1  0
 21 10  1  0
 21 27  1  0
 22 21  2  0
 24 23  1  6
 24 26  1  0
 24 25  1  0
 26 27  1  6
 26 28  1  0
 28 29  1  0
 30 28  2  0
M  END
$$$$
