IWV.pdb
     RDKit          3D

 30 31  0  0  1  0  0  0  0  0999 V2000
   14.0899  -18.4020   20.8720 C   0  0  0  0  0  0  0  0  0  0  0  0
   12.8917  -17.5567   20.5702 C   0  0  0  0  0  0  0  0  0  0  0  0
   11.6427  -18.4067   20.3457 C   0  0  2  0  0  0  0  0  0  0  0  0
   11.9310  -19.4024   19.2758 C   0  0  0  0  0  0  0  0  0  0  0  0
   10.5303  -17.4434   20.0521 C   0  0  2  0  0  0  0  0  0  0  0  0
   11.0283  -16.6133   18.9388 N   0  0  0  0  0  0  0  0  0  0  0  0
   10.2101  -16.5540   21.2225 C   0  0  0  0  0  0  0  0  0  0  0  0
   10.8390  -15.4731   21.3182 O   0  0  0  0  0  0  0  0  0  0  0  0
    9.2554  -16.9003   22.1723 N   0  0  0  0  0  0  0  0  0  0  0  0
    8.9136  -16.0095   23.3031 C   0  0  1  0  0  0  0  0  0  0  0  0
    7.4350  -15.9639   23.3776 C   0  0  0  0  0  0  0  0  0  0  0  0
    6.8890  -15.2919   24.5661 C   0  0  0  0  0  0  0  0  0  0  0  0
    6.2661  -15.8703   25.6568 C   0  0  0  0  0  0  0  0  0  0  0  0
    5.9089  -14.8756   26.4854 N   0  0  0  0  0  0  0  0  0  0  0  0
    6.2833  -13.6898   25.9582 C   0  0  0  0  0  0  0  0  0  0  0  0
    6.1357  -12.3911   26.4370 C   0  0  0  0  0  0  0  0  0  0  0  0
    6.6304  -11.3637   25.6580 C   0  0  0  0  0  0  0  0  0  0  0  0
    7.2508  -11.5818   24.4498 C   0  0  0  0  0  0  0  0  0  0  0  0
    7.3866  -12.8721   23.9943 C   0  0  0  0  0  0  0  0  0  0  0  0
    6.9001  -13.9074   24.7569 C   0  0  0  0  0  0  0  0  0  0  0  0
    9.6230  -16.4516   24.5045 C   0  0  0  0  0  0  0  0  0  0  0  0
    9.9567  -17.6764   24.5936 O   0  0  0  0  0  0  0  0  0  0  0  0
   10.3670  -14.0502   27.9594 C   0  0  0  0  0  0  0  0  0  0  0  0
   11.4093  -14.9607   27.3751 C   0  0  1  0  0  0  0  0  0  0  0  0
   12.2054  -15.5427   28.5365 C   0  0  0  0  0  0  0  0  0  0  0  0
   10.7705  -16.1385   26.6591 C   0  0  2  0  0  0  0  0  0  0  0  0
    9.9683  -15.5880   25.5840 N   0  0  0  0  0  0  0  0  0  0  0  0
    9.9430  -16.8991   27.6036 C   0  0  0  0  0  0  0  0  0  0  0  0
    8.5602  -16.8913   27.4970 O   0  0  0  0  0  0  0  0  0  0  0  0
   10.4387  -17.5768   28.5311 O   0  0  0  0  0  0  0  0  0  0  0  0
  1  2  1  0
  2  3  1  0
  3  4  1  6
  5  3  1  0
  5  6  1  6
  7  9  1  0
  7  5  1  0
  8  7  2  0
 10  9  1  0
 10 11  1  1
 12 13  2  0
 12 11  1  0
 14 13  1  0
 15 20  2  0
 15 14  1  0
 16 15  1  0
 17 18  1  0
 17 16  2  0
 18 19  2  0
 19 20  1  0
 20 12  1  0
 21 10  1  0
 21 27  1  0
 22 21  2  0
 24 23  1  1
 24 26  1  0
 24 25  1  0
 26 27  1  6
 26 28  1  0
 28 29  1  0
 30 28  2  0
M  END
$$$$
