IWV.pdb
     RDKit          3D

 30 31  0  0  1  0  0  0  0  0999 V2000
    6.5236  -12.7708   19.0015 C   0  0  0  0  0  0  0  0  0  0  0  0
    7.0940  -14.0830   19.4416 C   0  0  0  0  0  0  0  0  0  0  0  0
    7.8187  -13.9634   20.7808 C   0  0  2  0  0  0  0  0  0  0  0  0
    8.8039  -12.8496   20.6906 C   0  0  0  0  0  0  0  0  0  0  0  0
    8.3968  -15.3188   21.0644 C   0  0  2  0  0  0  0  0  0  0  0  0
    7.2324  -16.2213   21.1433 N   0  0  0  0  0  0  0  0  0  0  0  0
    9.1453  -15.3680   22.3685 C   0  0  0  0  0  0  0  0  0  0  0  0
   10.1697  -14.6525   22.4761 O   0  0  0  0  0  0  0  0  0  0  0  0
    8.7316  -16.1700   23.4264 N   0  0  0  0  0  0  0  0  0  0  0  0
    9.4903  -16.2508   24.6940 C   0  0  1  0  0  0  0  0  0  0  0  0
    8.4955  -16.4429   25.7744 C   0  0  0  0  0  0  0  0  0  0  0  0
    7.4018  -15.4603   25.7997 C   0  0  0  0  0  0  0  0  0  0  0  0
    6.0767  -15.6566   25.4566 C   0  0  0  0  0  0  0  0  0  0  0  0
    5.4475  -14.4797   25.6076 N   0  0  0  0  0  0  0  0  0  0  0  0
    6.3266  -13.5470   26.0335 C   0  0  0  0  0  0  0  0  0  0  0  0
    6.1537  -12.1977   26.3289 C   0  0  0  0  0  0  0  0  0  0  0  0
    7.2619  -11.4896   26.7503 C   0  0  0  0  0  0  0  0  0  0  0  0
    8.5037  -12.0661   26.8837 C   0  0  0  0  0  0  0  0  0  0  0  0
    8.6537  -13.4004   26.5869 C   0  0  0  0  0  0  0  0  0  0  0  0
    7.5611  -14.1209   26.1659 C   0  0  0  0  0  0  0  0  0  0  0  0
   10.5382  -17.2652   24.5719 C   0  0  0  0  0  0  0  0  0  0  0  0
   10.6269  -18.1553   25.4770 O   0  0  0  0  0  0  0  0  0  0  0  0
   11.7435  -18.9415   21.2048 C   0  0  0  0  0  0  0  0  0  0  0  0
   12.9107  -18.5841   22.0805 C   0  0  1  0  0  0  0  0  0  0  0  0
   13.4553  -17.2492   21.5877 C   0  0  0  0  0  0  0  0  0  0  0  0
   12.4716  -18.3646   23.5182 C   0  0  2  0  0  0  0  0  0  0  0  0
   11.4671  -17.3193   23.4927 N   0  0  0  0  0  0  0  0  0  0  0  0
   13.6283  -17.9702   24.3317 C   0  0  0  0  0  0  0  0  0  0  0  0
   13.7361  -16.6798   24.8283 O   0  0  0  0  0  0  0  0  0  0  0  0
   14.5530  -18.7660   24.6090 O   0  0  0  0  0  0  0  0  0  0  0  0
  1  2  1  0
  2  3  1  0
  3  4  1  6
  5  3  1  0
  5  6  1  1
  7  9  1  0
  7  5  1  0
  8  7  2  0
 10  9  1  0
 10 11  1  1
 12 13  2  0
 12 11  1  0
 14 13  1  0
 15 20  2  0
 15 14  1  0
 16 15  1  0
 17 18  1  0
 17 16  2  0
 18 19  2  0
 19 20  1  0
 20 12  1  0
 21 10  1  0
 21 27  1  0
 22 21  2  0
 24 23  1  6
 24 26  1  0
 24 25  1  0
 26 27  1  6
 26 28  1  0
 28 29  1  0
 30 28  2  0
M  END
$$$$
