IWV.pdb
     RDKit          3D

 30 31  0  0  1  0  0  0  0  0999 V2000
    7.4804  -13.0570   17.9883 C   0  0  0  0  0  0  0  0  0  0  0  0
    7.0755  -14.0503   19.0326 C   0  0  0  0  0  0  0  0  0  0  0  0
    7.9500  -13.9462   20.2806 C   0  0  2  0  0  0  0  0  0  0  0  0
    9.3792  -14.0216   19.8675 C   0  0  0  0  0  0  0  0  0  0  0  0
    7.4849  -15.0311   21.2071 C   0  0  2  0  0  0  0  0  0  0  0  0
    6.0325  -14.8146   21.3494 N   0  0  0  0  0  0  0  0  0  0  0  0
    8.1287  -14.9492   22.5643 C   0  0  0  0  0  0  0  0  0  0  0  0
    8.2012  -13.8195   23.1043 O   0  0  0  0  0  0  0  0  0  0  0  0
    8.6298  -16.0732   23.2118 N   0  0  0  0  0  0  0  0  0  0  0  0
    9.5296  -15.9696   24.3817 C   0  0  1  0  0  0  0  0  0  0  0  0
    8.7429  -16.3933   25.5629 C   0  0  0  0  0  0  0  0  0  0  0  0
    7.5917  -15.5379   25.8874 C   0  0  0  0  0  0  0  0  0  0  0  0
    6.2481  -15.8402   25.7627 C   0  0  0  0  0  0  0  0  0  0  0  0
    5.5579  -14.7552   26.1500 N   0  0  0  0  0  0  0  0  0  0  0  0
    6.4162  -13.7782   26.5149 C   0  0  0  0  0  0  0  0  0  0  0  0
    6.1845  -12.4877   26.9823 C   0  0  0  0  0  0  0  0  0  0  0  0
    7.2858  -11.7087   27.2779 C   0  0  0  0  0  0  0  0  0  0  0  0
    8.5761  -12.1610   27.1272 C   0  0  0  0  0  0  0  0  0  0  0  0
    8.7839  -13.4390   26.6640 C   0  0  0  0  0  0  0  0  0  0  0  0
    7.6991  -14.2287   26.3648 C   0  0  0  0  0  0  0  0  0  0  0  0
   10.7666  -16.7041   24.1128 C   0  0  0  0  0  0  0  0  0  0  0  0
   10.6954  -17.7839   23.4431 O   0  0  0  0  0  0  0  0  0  0  0  0
   15.6411  -16.5890   24.0364 C   0  0  0  0  0  0  0  0  0  0  0  0
   14.2644  -16.1017   23.6843 C   0  0  1  0  0  0  0  0  0  0  0  0
   14.1702  -16.0690   22.1639 C   0  0  0  0  0  0  0  0  0  0  0  0
   13.1991  -17.0747   24.1600 C   0  0  2  0  0  0  0  0  0  0  0  0
   12.0530  -16.2787   24.5538 N   0  0  0  0  0  0  0  0  0  0  0  0
   13.7160  -17.8571   25.2897 C   0  0  0  0  0  0  0  0  0  0  0  0
   14.7042  -18.8105   25.0957 O   0  0  0  0  0  0  0  0  0  0  0  0
   13.2958  -17.7022   26.4578 O   0  0  0  0  0  0  0  0  0  0  0  0
  1  2  1  0
  2  3  1  0
  3  4  1  6
  5  3  1  0
  5  6  1  1
  7  9  1  0
  7  5  1  0
  8  7  2  0
 10  9  1  0
 10 11  1  1
 12 13  2  0
 12 11  1  0
 14 13  1  0
 15 20  2  0
 15 14  1  0
 16 15  1  0
 17 18  1  0
 17 16  2  0
 18 19  2  0
 19 20  1  0
 20 12  1  0
 21 10  1  0
 21 27  1  0
 22 21  2  0
 24 23  1  6
 24 26  1  0
 24 25  1  0
 26 27  1  1
 26 28  1  0
 28 29  1  0
 30 28  2  0
M  END
$$$$
