IWV.pdb
     RDKit          3D

 30 31  0  0  1  0  0  0  0  0999 V2000
   14.6842  -17.1659   21.0436 C   0  0  0  0  0  0  0  0  0  0  0  0
   13.2896  -16.8004   20.6403 C   0  0  0  0  0  0  0  0  0  0  0  0
   12.3665  -18.0172   20.6327 C   0  0  2  0  0  0  0  0  0  0  0  0
   12.9001  -19.0130   19.6618 C   0  0  0  0  0  0  0  0  0  0  0  0
   10.9913  -17.4952   20.3361 C   0  0  2  0  0  0  0  0  0  0  0  0
   11.1256  -16.7711   19.0577 N   0  0  0  0  0  0  0  0  0  0  0  0
   10.4933  -16.5434   21.3894 C   0  0  0  0  0  0  0  0  0  0  0  0
   10.7352  -15.3233   21.2290 O   0  0  0  0  0  0  0  0  0  0  0  0
    9.7889  -16.9814   22.5054 N   0  0  0  0  0  0  0  0  0  0  0  0
    9.2762  -16.0434   23.5283 C   0  0  1  0  0  0  0  0  0  0  0  0
    7.8048  -16.2095   23.5593 C   0  0  0  0  0  0  0  0  0  0  0  0
    7.1137  -15.4673   24.6240 C   0  0  0  0  0  0  0  0  0  0  0  0
    6.3653  -15.9800   25.6676 C   0  0  0  0  0  0  0  0  0  0  0  0
    5.9038  -14.9373   26.3771 N   0  0  0  0  0  0  0  0  0  0  0  0
    6.3333  -13.7843   25.8199 C   0  0  0  0  0  0  0  0  0  0  0  0
    6.1210  -12.4586   26.1878 C   0  0  0  0  0  0  0  0  0  0  0  0
    6.7015  -11.4788   25.4067 C   0  0  0  0  0  0  0  0  0  0  0  0
    7.4663  -11.7685   24.3005 C   0  0  0  0  0  0  0  0  0  0  0  0
    7.6640  -13.0844   23.9538 C   0  0  0  0  0  0  0  0  0  0  0  0
    7.0936  -14.0730   24.7201 C   0  0  0  0  0  0  0  0  0  0  0  0
    9.9922  -16.2549   24.7872 C   0  0  0  0  0  0  0  0  0  0  0  0
   10.5337  -17.3881   24.9920 O   0  0  0  0  0  0  0  0  0  0  0  0
    9.3754  -13.9086   28.1095 C   0  0  0  0  0  0  0  0  0  0  0  0
   10.7792  -14.4120   27.9281 C   0  0  1  0  0  0  0  0  0  0  0  0
   11.2745  -14.8754   29.2925 C   0  0  0  0  0  0  0  0  0  0  0  0
   10.8126  -15.6310   27.0220 C   0  0  2  0  0  0  0  0  0  0  0  0
   10.1242  -15.2618   25.8005 N   0  0  0  0  0  0  0  0  0  0  0  0
   10.1468  -16.7576   27.6874 C   0  0  0  0  0  0  0  0  0  0  0  0
   10.8519  -17.5890   28.5447 O   0  0  0  0  0  0  0  0  0  0  0  0
    8.9347  -17.0144   27.5144 O   0  0  0  0  0  0  0  0  0  0  0  0
  1  2  1  0
  2  3  1  0
  3  4  1  6
  5  3  1  0
  5  6  1  6
  7  9  1  0
  7  5  1  0
  8  7  2  0
 10  9  1  0
 10 11  1  1
 12 13  2  0
 12 11  1  0
 14 13  1  0
 15 20  2  0
 15 14  1  0
 16 15  1  0
 17 18  1  0
 17 16  2  0
 18 19  2  0
 19 20  1  0
 20 12  1  0
 21 10  1  0
 21 27  1  0
 22 21  2  0
 24 23  1  1
 24 26  1  0
 24 25  1  0
 26 27  1  6
 26 28  1  0
 28 29  1  0
 30 28  2  0
M  END
$$$$
