IWV.pdb
     RDKit          3D

 30 31  0  0  1  0  0  0  0  0999 V2000
   10.8614  -20.0355   17.1323 C   0  0  0  0  0  0  0  0  0  0  0  0
    9.7052  -19.2099   17.6042 C   0  0  0  0  0  0  0  0  0  0  0  0
   10.0072  -18.5229   18.9345 C   0  0  2  0  0  0  0  0  0  0  0  0
    9.9656  -19.5447   20.0177 C   0  0  0  0  0  0  0  0  0  0  0  0
    9.0153  -17.4040   19.0604 C   0  0  2  0  0  0  0  0  0  0  0  0
    9.3126  -16.5018   17.9316 N   0  0  0  0  0  0  0  0  0  0  0  0
    9.1619  -16.6423   20.3495 C   0  0  0  0  0  0  0  0  0  0  0  0
   10.2044  -15.9628   20.5058 O   0  0  0  0  0  0  0  0  0  0  0  0
    8.1883  -16.6776   21.3416 N   0  0  0  0  0  0  0  0  0  0  0  0
    8.3642  -15.9890   22.6393 C   0  0  1  0  0  0  0  0  0  0  0  0
    7.0164  -15.5634   23.0819 C   0  0  0  0  0  0  0  0  0  0  0  0
    6.9359  -15.0849   24.4700 C   0  0  0  0  0  0  0  0  0  0  0  0
    6.5947  -15.8079   25.5983 C   0  0  0  0  0  0  0  0  0  0  0  0
    6.6277  -14.9604   26.6396 N   0  0  0  0  0  0  0  0  0  0  0  0
    6.9773  -13.7284   26.2106 C   0  0  0  0  0  0  0  0  0  0  0  0
    7.1442  -12.5336   26.9052 C   0  0  0  0  0  0  0  0  0  0  0  0
    7.5132  -11.4190   26.1782 C   0  0  0  0  0  0  0  0  0  0  0  0
    7.7160  -11.4545   24.8181 C   0  0  0  0  0  0  0  0  0  0  0  0
    7.5459  -12.6445   24.1503 C   0  0  0  0  0  0  0  0  0  0  0  0
    7.1788  -13.7644   24.8582 C   0  0  0  0  0  0  0  0  0  0  0  0
    9.1183  -16.8506   23.5509 C   0  0  0  0  0  0  0  0  0  0  0  0
    8.7450  -18.0595   23.6880 O   0  0  0  0  0  0  0  0  0  0  0  0
   12.5791  -17.8291   23.3734 C   0  0  0  0  0  0  0  0  0  0  0  0
   12.3750  -17.3809   24.7926 C   0  0  1  0  0  0  0  0  0  0  0  0
   12.8415  -15.9332   24.8824 C   0  0  0  0  0  0  0  0  0  0  0  0
   10.9014  -17.3812   25.1620 C   0  0  2  0  0  0  0  0  0  0  0  0
   10.2536  -16.4167   24.2946 N   0  0  0  0  0  0  0  0  0  0  0  0
   10.7477  -17.0125   26.5748 C   0  0  0  0  0  0  0  0  0  0  0  0
   11.1542  -17.8779   27.5793 O   0  0  0  0  0  0  0  0  0  0  0  0
   10.2518  -15.9203   26.9304 O   0  0  0  0  0  0  0  0  0  0  0  0
  1  2  1  0
  2  3  1  0
  3  4  1  1
  5  3  1  0
  5  6  1  6
  7  9  1  0
  7  5  1  0
  8  7  2  0
 10  9  1  0
 10 11  1  1
 12 13  2  0
 12 11  1  0
 14 13  1  0
 15 20  2  0
 15 14  1  0
 16 15  1  0
 17 18  1  0
 17 16  2  0
 18 19  2  0
 19 20  1  0
 20 12  1  0
 21 10  1  0
 21 27  1  0
 22 21  2  0
 24 23  1  6
 24 26  1  0
 24 25  1  0
 26 27  1  6
 26 28  1  0
 28 29  1  0
 30 28  2  0
M  END
$$$$
