IWV.pdb
     RDKit          3D

 30 31  0  0  1  0  0  0  0  0999 V2000
    7.4863  -13.0082   17.9789 C   0  0  0  0  0  0  0  0  0  0  0  0
    7.0248  -13.9953   19.0054 C   0  0  0  0  0  0  0  0  0  0  0  0
    7.9183  -13.9819   20.2441 C   0  0  2  0  0  0  0  0  0  0  0  0
    9.3346  -14.1412   19.8107 C   0  0  0  0  0  0  0  0  0  0  0  0
    7.3924  -15.0571   21.1490 C   0  0  2  0  0  0  0  0  0  0  0  0
    5.9545  -14.7618   21.2970 N   0  0  0  0  0  0  0  0  0  0  0  0
    8.0395  -15.0390   22.5071 C   0  0  0  0  0  0  0  0  0  0  0  0
    8.1784  -13.9260   23.0681 O   0  0  0  0  0  0  0  0  0  0  0  0
    8.4732  -16.2026   23.1329 N   0  0  0  0  0  0  0  0  0  0  0  0
    9.3345  -16.1732   24.3355 C   0  0  1  0  0  0  0  0  0  0  0  0
    8.4694  -16.5168   25.4875 C   0  0  0  0  0  0  0  0  0  0  0  0
    7.4144  -15.5385   25.7912 C   0  0  0  0  0  0  0  0  0  0  0  0
    6.0512  -15.6747   25.6030 C   0  0  0  0  0  0  0  0  0  0  0  0
    5.4780  -14.5252   25.9952 N   0  0  0  0  0  0  0  0  0  0  0  0
    6.4291  -13.6676   26.4244 C   0  0  0  0  0  0  0  0  0  0  0  0
    6.3315  -12.3711   26.9215 C   0  0  0  0  0  0  0  0  0  0  0  0
    7.5032  -11.7372   27.2852 C   0  0  0  0  0  0  0  0  0  0  0  0
    8.7363  -12.3365   27.1731 C   0  0  0  0  0  0  0  0  0  0  0  0
    8.8114  -13.6178   26.6796 C   0  0  0  0  0  0  0  0  0  0  0  0
    7.6550  -14.2642   26.3126 C   0  0  0  0  0  0  0  0  0  0  0  0
   10.5092  -17.0181   24.1153 C   0  0  0  0  0  0  0  0  0  0  0  0
   10.3314  -18.1971   23.6708 O   0  0  0  0  0  0  0  0  0  0  0  0
   13.4561  -16.2330   22.0470 C   0  0  0  0  0  0  0  0  0  0  0  0
   13.9893  -16.7830   23.3393 C   0  0  1  0  0  0  0  0  0  0  0  0
   14.3770  -15.5955   24.2117 C   0  0  0  0  0  0  0  0  0  0  0  0
   12.9139  -17.5412   24.0987 C   0  0  2  0  0  0  0  0  0  0  0  0
   11.8470  -16.5964   24.3657 N   0  0  0  0  0  0  0  0  0  0  0  0
   13.4752  -18.0752   25.3457 C   0  0  0  0  0  0  0  0  0  0  0  0
   14.4421  -19.0690   25.3170 O   0  0  0  0  0  0  0  0  0  0  0  0
   13.1132  -17.6654   26.4710 O   0  0  0  0  0  0  0  0  0  0  0  0
  1  2  1  0
  2  3  1  0
  3  4  1  6
  5  3  1  0
  5  6  1  1
  7  9  1  0
  7  5  1  0
  8  7  2  0
 10  9  1  0
 10 11  1  1
 12 13  2  0
 12 11  1  0
 14 13  1  0
 15 20  2  0
 15 14  1  0
 16 15  1  0
 17 18  1  0
 17 16  2  0
 18 19  2  0
 19 20  1  0
 20 12  1  0
 21 10  1  0
 21 27  1  0
 22 21  2  0
 24 23  1  6
 24 26  1  0
 24 25  1  0
 26 27  1  1
 26 28  1  0
 28 29  1  0
 30 28  2  0
M  END
$$$$
