IHE.pdb
     RDKit          3D

 28 28  0  0  1  0  0  0  0  0999 V2000
   43.7877  -28.4184  -16.9921 C   0  0  0  0  0  0  0  0  0  0  0  0
   42.5062  -29.0116  -17.4563 C   0  0  0  0  0  0  0  0  0  0  0  0
   42.2973  -30.4264  -17.0133 C   0  0  2  0  0  0  0  0  0  0  0  0
   43.4400  -31.2679  -17.5002 C   0  0  0  0  0  0  0  0  0  0  0  0
   40.9356  -30.9093  -17.4627 C   0  0  2  0  0  0  0  0  0  0  0  0
   39.9767  -29.8882  -16.9465 N   0  0  0  0  0  0  0  0  0  0  0  0
   40.5781  -32.1360  -16.7107 C   0  0  0  0  0  0  0  0  0  0  0  0
   41.2662  -32.5186  -15.7706 O   0  0  0  0  0  0  0  0  0  0  0  0
   39.4351  -32.9461  -17.0043 N   0  0  0  0  0  0  0  0  0  0  0  0
   39.0366  -34.1154  -16.3252 C   0  0  1  0  0  0  0  0  0  0  0  0
   37.6018  -34.4898  -16.3549 C   0  0  0  0  0  0  0  0  0  0  0  0
   36.7738  -33.4845  -15.6121 C   0  0  0  0  0  0  0  0  0  0  0  0
   37.2389  -32.5245  -14.7338 C   0  0  0  0  0  0  0  0  0  0  0  0
   36.2239  -31.7886  -14.2459 N   0  0  0  0  0  0  0  0  0  0  0  0
   35.0873  -32.2797  -14.8162 C   0  0  0  0  0  0  0  0  0  0  0  0
   35.4261  -33.3002  -15.6372 N   0  0  0  0  0  0  0  0  0  0  0  0
   39.8774  -35.2650  -16.7323 C   0  0  0  0  0  0  0  0  0  0  0  0
   40.2781  -35.4711  -17.8888 O   0  0  0  0  0  0  0  0  0  0  0  0
   40.2761  -36.2293  -15.7477 N   0  0  0  0  0  0  0  0  0  0  0  0
   41.1185  -37.3941  -16.0819 C   0  0  1  0  0  0  0  0  0  0  0  0
   41.7197  -37.8533  -14.7879 C   0  0  0  0  0  0  0  0  0  0  0  0
   42.5584  -39.0605  -14.7900 C   0  0  0  0  0  0  0  0  0  0  0  0
   43.0655  -39.4688  -13.4857 C   0  0  0  0  0  0  0  0  0  0  0  0
   42.6952  -38.8660  -12.4382 O   0  0  0  0  0  0  0  0  0  0  0  0
   40.4256  -38.3474  -16.9102 C   0  0  0  0  0  0  0  0  0  0  0  0
   39.1548  -38.3943  -16.8993 O   0  0  0  0  0  0  0  0  0  0  0  0
   43.9581  -40.5273  -13.3605 O   0  0  0  0  0  0  0  0  0  0  0  0
   41.0701  -39.2390  -17.7506 O   0  0  0  0  0  0  0  0  0  0  0  0
  2  1  1  0
  3  2  1  0
  3  4  1  6
  5  7  1  0
  5  3  1  0
  5  6  1  1
  7  8  2  0
  9 10  1  0
  9  7  1  0
 10 11  1  6
 11 12  1  0
 12 13  2  0
 13 14  1  0
 15 14  1  0
 16 12  1  0
 16 15  2  0
 17 19  1  0
 17 10  1  0
 18 17  2  0
 20 19  1  0
 20 21  1  1
 22 21  1  0
 22 23  1  0
 23 24  2  0
 25 20  1  0
 26 25  2  0
 27 23  1  0
 28 25  1  0
M  END
$$$$
