IHE.pdb
     RDKit          3D

 28 28  0  0  1  0  0  0  0  0999 V2000
   28.6998  -13.2863  -15.9450 C   0  0  0  0  0  0  0  0  0  0  0  0
   27.3668  -13.8541  -15.6129 C   0  0  0  0  0  0  0  0  0  0  0  0
   26.2615  -12.8441  -15.6089 C   0  0  2  0  0  0  0  0  0  0  0  0
   26.6087  -11.7391  -14.6553 C   0  0  0  0  0  0  0  0  0  0  0  0
   24.9436  -13.5266  -15.3142 C   0  0  2  0  0  0  0  0  0  0  0  0
   24.8474  -14.6258  -16.3197 N   0  0  0  0  0  0  0  0  0  0  0  0
   23.8296  -12.6194  -15.6805 C   0  0  0  0  0  0  0  0  0  0  0  0
   23.6283  -12.3136  -16.8508 O   0  0  0  0  0  0  0  0  0  0  0  0
   22.9220  -12.0485  -14.7321 N   0  0  0  0  0  0  0  0  0  0  0  0
   21.7835  -11.2695  -15.0218 C   0  0  1  0  0  0  0  0  0  0  0  0
   20.4770  -11.7038  -14.4704 C   0  0  0  0  0  0  0  0  0  0  0  0
   20.0545  -13.0117  -15.0696 C   0  0  0  0  0  0  0  0  0  0  0  0
   20.7388  -13.7366  -16.0264 C   0  0  0  0  0  0  0  0  0  0  0  0
   20.0755  -14.8645  -16.3390 N   0  0  0  0  0  0  0  0  0  0  0  0
   18.9471  -14.8686  -15.5743 C   0  0  0  0  0  0  0  0  0  0  0  0
   18.9413  -13.7503  -14.8128 N   0  0  0  0  0  0  0  0  0  0  0  0
   22.0317   -9.8456  -14.6974 C   0  0  0  0  0  0  0  0  0  0  0  0
   22.7203   -9.4492  -13.7439 O   0  0  0  0  0  0  0  0  0  0  0  0
   21.4512   -8.8243  -15.5209 N   0  0  0  0  0  0  0  0  0  0  0  0
   21.6813   -7.3876  -15.2736 C   0  0  1  0  0  0  0  0  0  0  0  0
   21.5591   -6.7147  -16.6074 C   0  0  0  0  0  0  0  0  0  0  0  0
   21.7343   -5.2570  -16.6796 C   0  0  0  0  0  0  0  0  0  0  0  0
   20.8347   -4.5662  -17.5953 C   0  0  0  0  0  0  0  0  0  0  0  0
   19.9874   -5.2163  -18.2715 O   0  0  0  0  0  0  0  0  0  0  0  0
   20.9037   -6.8944  -14.1658 C   0  0  0  0  0  0  0  0  0  0  0  0
   19.8091   -7.4619  -13.8545 O   0  0  0  0  0  0  0  0  0  0  0  0
   20.8808   -3.1846  -17.7430 O   0  0  0  0  0  0  0  0  0  0  0  0
   21.2840   -5.8149  -13.3870 O   0  0  0  0  0  0  0  0  0  0  0  0
  2  1  1  0
  3  2  1  0
  3  4  1  1
  5  7  1  0
  5  3  1  0
  5  6  1  6
  7  8  2  0
  9 10  1  0
  9  7  1  0
 10 11  1  1
 11 12  1  0
 12 13  2  0
 13 14  1  0
 15 14  1  0
 16 12  1  0
 16 15  2  0
 17 19  1  0
 17 10  1  0
 18 17  2  0
 20 19  1  0
 20 21  1  6
 22 21  1  0
 22 23  1  0
 23 24  2  0
 25 20  1  0
 26 25  2  0
 27 23  1  0
 28 25  1  0
M  END
$$$$
