IHE.pdb
     RDKit          3D

 28 28  0  0  1  0  0  0  0  0999 V2000
   22.8862  -10.3379  -20.0708 C   0  0  0  0  0  0  0  0  0  0  0  0
   22.7281  -10.8082  -18.6696 C   0  0  0  0  0  0  0  0  0  0  0  0
   21.8989   -9.9004  -17.8151 C   0  0  2  0  0  0  0  0  0  0  0  0
   22.4786   -8.5174  -17.8607 C   0  0  0  0  0  0  0  0  0  0  0  0
   21.7774  -10.4766  -16.4213 C   0  0  2  0  0  0  0  0  0  0  0  0
   21.1469  -11.8161  -16.6134 N   0  0  0  0  0  0  0  0  0  0  0  0
   20.7556   -9.7149  -15.6638 C   0  0  0  0  0  0  0  0  0  0  0  0
   19.6441   -9.5112  -16.1398 O   0  0  0  0  0  0  0  0  0  0  0  0
   20.9709   -9.1767  -14.3549 N   0  0  0  0  0  0  0  0  0  0  0  0
   20.0839   -8.3587  -13.6261 C   0  0  1  0  0  0  0  0  0  0  0  0
   20.0899   -8.4610  -12.1465 C   0  0  0  0  0  0  0  0  0  0  0  0
   18.9042   -7.7560  -11.5592 C   0  0  0  0  0  0  0  0  0  0  0  0
   17.8359   -7.2241  -12.2560 C   0  0  0  0  0  0  0  0  0  0  0  0
   16.9473   -6.6628  -11.4164 N   0  0  0  0  0  0  0  0  0  0  0  0
   17.4478   -6.8336  -10.1600 C   0  0  0  0  0  0  0  0  0  0  0  0
   18.6258   -7.4923  -10.2539 N   0  0  0  0  0  0  0  0  0  0  0  0
   20.2179   -6.9442  -14.0451 C   0  0  0  0  0  0  0  0  0  0  0  0
   21.2383   -6.2555  -13.8868 O   0  0  0  0  0  0  0  0  0  0  0  0
   19.1109   -6.2905  -14.6817 N   0  0  0  0  0  0  0  0  0  0  0  0
   19.1810   -4.8893  -15.1399 C   0  0  1  0  0  0  0  0  0  0  0  0
   18.8673   -4.9183  -16.6053 C   0  0  0  0  0  0  0  0  0  0  0  0
   18.8360   -3.6479  -17.3442 C   0  0  0  0  0  0  0  0  0  0  0  0
   18.5146   -3.7596  -18.7617 C   0  0  0  0  0  0  0  0  0  0  0  0
   18.2804   -4.8897  -19.2773 O   0  0  0  0  0  0  0  0  0  0  0  0
   18.4421   -3.9985  -14.2823 C   0  0  0  0  0  0  0  0  0  0  0  0
   18.9011   -2.8420  -14.0198 O   0  0  0  0  0  0  0  0  0  0  0  0
   18.4520   -2.6342  -19.5756 O   0  0  0  0  0  0  0  0  0  0  0  0
   17.2227   -4.3237  -13.7131 O   0  0  0  0  0  0  0  0  0  0  0  0
  2  1  1  0
  3  2  1  0
  3  4  1  1
  5  7  1  0
  5  3  1  0
  5  6  1  6
  7  8  2  0
  9 10  1  0
  9  7  1  0
 10 11  1  1
 11 12  1  0
 12 13  2  0
 13 14  1  0
 15 14  1  0
 16 12  1  0
 16 15  2  0
 17 19  1  0
 17 10  1  0
 18 17  2  0
 20 19  1  0
 20 21  1  6
 22 21  1  0
 22 23  1  0
 23 24  2  0
 25 20  1  0
 26 25  2  0
 27 23  1  0
 28 25  1  0
M  END
$$$$
