IHE.pdb
     RDKit          3D

 28 28  0  0  1  0  0  0  0  0999 V2000
   16.3284  -14.1840  -15.1643 C   0  0  0  0  0  0  0  0  0  0  0  0
   17.4522  -14.2909  -16.1315 C   0  0  0  0  0  0  0  0  0  0  0  0
   18.3455  -13.0896  -16.1582 C   0  0  2  0  0  0  0  0  0  0  0  0
   17.5078  -11.8580  -16.3379 C   0  0  0  0  0  0  0  0  0  0  0  0
   19.4172  -13.2700  -17.2110 C   0  0  2  0  0  0  0  0  0  0  0  0
   20.1461  -14.5090  -16.8081 N   0  0  0  0  0  0  0  0  0  0  0  0
   20.4347  -12.2020  -17.0621 C   0  0  0  0  0  0  0  0  0  0  0  0
   20.9093  -11.9362  -15.9632 O   0  0  0  0  0  0  0  0  0  0  0  0
   20.9367  -11.4221  -18.1524 N   0  0  0  0  0  0  0  0  0  0  0  0
   21.9064  -10.4015  -18.0796 C   0  0  1  0  0  0  0  0  0  0  0  0
   22.8206  -10.2184  -19.2330 C   0  0  0  0  0  0  0  0  0  0  0  0
   23.6718  -11.4359  -19.4363 C   0  0  0  0  0  0  0  0  0  0  0  0
   23.7017  -12.5611  -18.6347 C   0  0  0  0  0  0  0  0  0  0  0  0
   24.5791  -13.4642  -19.1082 N   0  0  0  0  0  0  0  0  0  0  0  0
   25.1241  -12.9153  -20.2307 C   0  0  0  0  0  0  0  0  0  0  0  0
   24.5732  -11.6946  -20.4218 N   0  0  0  0  0  0  0  0  0  0  0  0
   21.2773   -9.1120  -17.7112 C   0  0  0  0  0  0  0  0  0  0  0  0
   20.1327   -8.7654  -18.0433 O   0  0  0  0  0  0  0  0  0  0  0  0
   22.0127   -8.1719  -16.9153 N   0  0  0  0  0  0  0  0  0  0  0  0
   21.4608   -6.8553  -16.5407 C   0  0  1  0  0  0  0  0  0  0  0  0
   21.9036   -6.6086  -15.1302 C   0  0  0  0  0  0  0  0  0  0  0  0
   21.5013   -5.3560  -14.4746 C   0  0  0  0  0  0  0  0  0  0  0  0
   21.9526   -5.2011  -13.0971 C   0  0  0  0  0  0  0  0  0  0  0  0
   21.1159   -5.1637  -12.1503 O   0  0  0  0  0  0  0  0  0  0  0  0
   21.7183   -5.8522  -17.5419 C   0  0  0  0  0  0  0  0  0  0  0  0
   22.7854   -5.9014  -18.2319 O   0  0  0  0  0  0  0  0  0  0  0  0
   23.3047   -5.0971  -12.7908 O   0  0  0  0  0  0  0  0  0  0  0  0
   20.8506   -4.8094  -17.8184 O   0  0  0  0  0  0  0  0  0  0  0  0
  2  1  1  0
  3  2  1  0
  3  4  1  6
  5  7  1  0
  5  3  1  0
  5  6  1  1
  7  8  2  0
  9 10  1  0
  9  7  1  0
 10 11  1  6
 11 12  1  0
 12 13  2  0
 13 14  1  0
 15 14  1  0
 16 12  1  0
 16 15  2  0
 17 19  1  0
 17 10  1  0
 18 17  2  0
 20 19  1  0
 20 21  1  1
 22 21  1  0
 22 23  1  0
 23 24  2  0
 25 20  1  0
 26 25  2  0
 27 23  1  0
 28 25  1  0
M  END
$$$$
