IHE.pdb
     RDKit          3D

 28 28  0  0  1  0  0  0  0  0999 V2000
   18.8112  -12.2355    4.2833 C   0  0  0  0  0  0  0  0  0  0  0  0
   18.3452  -13.5390    3.7416 C   0  0  0  0  0  0  0  0  0  0  0  0
   17.9581  -14.5299    4.7952 C   0  0  2  0  0  0  0  0  0  0  0  0
   18.8829  -14.3870    5.9679 C   0  0  0  0  0  0  0  0  0  0  0  0
   17.9190  -15.9213    4.2019 C   0  0  2  0  0  0  0  0  0  0  0  0
   16.7891  -15.8909    3.2267 N   0  0  0  0  0  0  0  0  0  0  0  0
   17.4630  -16.8817    5.2352 C   0  0  0  0  0  0  0  0  0  0  0  0
   17.2546  -16.5133    6.3860 O   0  0  0  0  0  0  0  0  0  0  0  0
   17.2292  -18.2714    4.9837 N   0  0  0  0  0  0  0  0  0  0  0  0
   16.8934  -19.2534    5.9376 C   0  0  1  0  0  0  0  0  0  0  0  0
   16.5942  -20.6245    5.4579 C   0  0  0  0  0  0  0  0  0  0  0  0
   15.6581  -20.5866    4.2873 C   0  0  0  0  0  0  0  0  0  0  0  0
   14.4880  -19.8575    4.1939 C   0  0  0  0  0  0  0  0  0  0  0  0
   13.8934  -20.0551    3.0034 N   0  0  0  0  0  0  0  0  0  0  0  0
   14.6896  -20.9240    2.3182 C   0  0  0  0  0  0  0  0  0  0  0  0
   15.7497  -21.2395    3.0972 N   0  0  0  0  0  0  0  0  0  0  0  0
   17.9051  -19.2953    7.0188 C   0  0  0  0  0  0  0  0  0  0  0  0
   18.9729  -18.6625    7.0104 O   0  0  0  0  0  0  0  0  0  0  0  0
   17.6689  -20.1144    8.1727 N   0  0  0  0  0  0  0  0  0  0  0  0
   18.5906  -20.1362    9.3252 C   0  0  1  0  0  0  0  0  0  0  0  0
   18.7262  -18.7119    9.7720 C   0  0  0  0  0  0  0  0  0  0  0  0
   19.4840  -18.4277   10.9990 C   0  0  0  0  0  0  0  0  0  0  0  0
   19.5141  -17.0271   11.4022 C   0  0  0  0  0  0  0  0  0  0  0  0
   18.8778  -16.1575   10.7413 O   0  0  0  0  0  0  0  0  0  0  0  0
   18.2309  -21.1426   10.2910 C   0  0  0  0  0  0  0  0  0  0  0  0
   18.9867  -21.3651   11.2893 O   0  0  0  0  0  0  0  0  0  0  0  0
   20.2329  -16.6156   12.5188 O   0  0  0  0  0  0  0  0  0  0  0  0
   17.0767  -21.9026   10.2076 O   0  0  0  0  0  0  0  0  0  0  0  0
  2  1  1  0
  3  2  1  0
  3  4  1  1
  5  7  1  0
  5  3  1  0
  5  6  1  6
  7  8  2  0
  9 10  1  0
  9  7  1  0
 10 11  1  6
 11 12  1  0
 12 13  2  0
 13 14  1  0
 15 14  1  0
 16 12  1  0
 16 15  2  0
 17 19  1  0
 17 10  1  0
 18 17  2  0
 20 19  1  0
 20 21  1  1
 22 21  1  0
 22 23  1  0
 23 24  2  0
 25 20  1  0
 26 25  2  0
 27 23  1  0
 28 25  1  0
M  END
$$$$
