IHE.pdb
     RDKit          3D

 28 28  0  0  1  0  0  0  0  0999 V2000
   20.6239  -10.9649    6.5373 C   0  0  0  0  0  0  0  0  0  0  0  0
   19.5886  -11.5378    5.6375 C   0  0  0  0  0  0  0  0  0  0  0  0
   19.1352  -12.9095    6.0307 C   0  0  2  0  0  0  0  0  0  0  0  0
   20.3360  -13.7890    6.2186 C   0  0  0  0  0  0  0  0  0  0  0  0
   18.1372  -13.4298    5.0195 C   0  0  2  0  0  0  0  0  0  0  0  0
   16.9315  -12.5663    5.1909 N   0  0  0  0  0  0  0  0  0  0  0  0
   17.6683  -14.7720    5.4401 C   0  0  0  0  0  0  0  0  0  0  0  0
   17.1511  -14.9401    6.5391 O   0  0  0  0  0  0  0  0  0  0  0  0
   17.7706  -15.9437    4.6241 N   0  0  0  0  0  0  0  0  0  0  0  0
   17.4642  -17.2649    5.0083 C   0  0  1  0  0  0  0  0  0  0  0  0
   16.7379  -18.1258    4.0435 C   0  0  0  0  0  0  0  0  0  0  0  0
   15.3176  -17.6711    3.8886 C   0  0  0  0  0  0  0  0  0  0  0  0
   14.6901  -16.6747    4.6116 C   0  0  0  0  0  0  0  0  0  0  0  0
   13.4137  -16.5247    4.2140 N   0  0  0  0  0  0  0  0  0  0  0  0
   13.2132  -17.4367    3.2208 C   0  0  0  0  0  0  0  0  0  0  0  0
   14.3635  -18.1230    3.0305 N   0  0  0  0  0  0  0  0  0  0  0  0
   18.6767  -17.9564    5.5042 C   0  0  0  0  0  0  0  0  0  0  0  0
   19.7902  -17.9063    4.9581 O   0  0  0  0  0  0  0  0  0  0  0  0
   18.5968  -18.7496    6.6970 N   0  0  0  0  0  0  0  0  0  0  0  0
   19.7149  -19.5963    7.1563 C   0  0  1  0  0  0  0  0  0  0  0  0
   20.1700  -19.0082    8.4578 C   0  0  0  0  0  0  0  0  0  0  0  0
   21.2630  -19.6690    9.1854 C   0  0  0  0  0  0  0  0  0  0  0  0
   21.5276  -19.1469   10.5205 C   0  0  0  0  0  0  0  0  0  0  0  0
   21.1805  -17.9708   10.8276 O   0  0  0  0  0  0  0  0  0  0  0  0
   19.3962  -20.9997    7.0946 C   0  0  0  0  0  0  0  0  0  0  0  0
   18.1821  -21.3775    7.1112 O   0  0  0  0  0  0  0  0  0  0  0  0
   22.1582  -19.9247   11.4849 O   0  0  0  0  0  0  0  0  0  0  0  0
   20.3530  -21.9965    7.0070 O   0  0  0  0  0  0  0  0  0  0  0  0
  2  1  1  0
  3  2  1  0
  3  4  1  6
  5  7  1  0
  5  3  1  0
  5  6  1  1
  7  8  2  0
  9 10  1  0
  9  7  1  0
 10 11  1  6
 11 12  1  0
 12 13  2  0
 13 14  1  0
 15 14  1  0
 16 12  1  0
 16 15  2  0
 17 19  1  0
 17 10  1  0
 18 17  2  0
 20 19  1  0
 20 21  1  1
 22 21  1  0
 22 23  1  0
 23 24  2  0
 25 20  1  0
 26 25  2  0
 27 23  1  0
 28 25  1  0
M  END
$$$$
