IHE.pdb
     RDKit          3D

 28 28  0  0  1  0  0  0  0  0999 V2000
   26.5778  -16.1542  -16.9947 C   0  0  0  0  0  0  0  0  0  0  0  0
   26.4153  -14.8564  -16.2882 C   0  0  0  0  0  0  0  0  0  0  0  0
   25.4045  -13.9471  -16.9152 C   0  0  2  0  0  0  0  0  0  0  0  0
   25.7138  -13.8010  -18.3759 C   0  0  0  0  0  0  0  0  0  0  0  0
   25.3521  -12.6381  -16.1581 C   0  0  2  0  0  0  0  0  0  0  0  0
   25.3167  -13.0289  -14.7178 N   0  0  0  0  0  0  0  0  0  0  0  0
   24.0335  -11.9971  -16.3787 C   0  0  0  0  0  0  0  0  0  0  0  0
   23.7337  -11.5403  -17.4764 O   0  0  0  0  0  0  0  0  0  0  0  0
   23.0309  -11.8677  -15.3653 N   0  0  0  0  0  0  0  0  0  0  0  0
   21.7758  -11.2401  -15.4998 C   0  0  1  0  0  0  0  0  0  0  0  0
   20.5579  -12.0401  -15.2236 C   0  0  0  0  0  0  0  0  0  0  0  0
   20.2131  -12.9074  -16.3970 C   0  0  0  0  0  0  0  0  0  0  0  0
   20.8698  -12.9453  -17.6122 C   0  0  0  0  0  0  0  0  0  0  0  0
   20.2966  -13.8377  -18.4396 N   0  0  0  0  0  0  0  0  0  0  0  0
   19.2551  -14.3839  -17.7503 C   0  0  0  0  0  0  0  0  0  0  0  0
   19.2110  -13.8190  -16.5217 N   0  0  0  0  0  0  0  0  0  0  0  0
   21.7439   -9.9723  -14.7343 C   0  0  0  0  0  0  0  0  0  0  0  0
   22.1962   -9.8295  -13.5873 O   0  0  0  0  0  0  0  0  0  0  0  0
   21.1562   -8.8060  -15.3280 N   0  0  0  0  0  0  0  0  0  0  0  0
   21.1146   -7.5045  -14.6333 C   0  0  1  0  0  0  0  0  0  0  0  0
   21.7551   -6.5194  -15.5640 C   0  0  0  0  0  0  0  0  0  0  0  0
   21.8424   -5.1121  -15.1488 C   0  0  0  0  0  0  0  0  0  0  0  0
   22.4858   -4.2194  -16.1049 C   0  0  0  0  0  0  0  0  0  0  0  0
   22.9997   -4.6798  -17.1641 O   0  0  0  0  0  0  0  0  0  0  0  0
   19.8095   -7.2153  -14.0965 C   0  0  0  0  0  0  0  0  0  0  0  0
   18.7690   -7.6457  -14.6875 O   0  0  0  0  0  0  0  0  0  0  0  0
   22.5451   -2.8485  -15.8814 O   0  0  0  0  0  0  0  0  0  0  0  0
   19.6053   -6.4843  -12.9387 O   0  0  0  0  0  0  0  0  0  0  0  0
  2  1  1  0
  3  2  1  0
  3  4  1  6
  5  7  1  0
  5  3  1  0
  5  6  1  1
  7  8  2  0
  9 10  1  0
  9  7  1  0
 10 11  1  1
 11 12  1  0
 12 13  2  0
 13 14  1  0
 15 14  1  0
 16 12  1  0
 16 15  2  0
 17 19  1  0
 17 10  1  0
 18 17  2  0
 20 19  1  0
 20 21  1  6
 22 21  1  0
 22 23  1  0
 23 24  2  0
 25 20  1  0
 26 25  2  0
 27 23  1  0
 28 25  1  0
M  END
$$$$
