EEQ.pdb
     RDKit          3D

 28 27  0  0  1  0  0  0  0  0999 V2000
   10.2002  -14.4332   18.9681 N   0  0  0  0  0  0  0  0  0  0  0  0
   10.9296  -15.5226   19.5075 C   0  0  1  0  0  0  0  0  0  0  0  0
   12.4004  -15.3048   19.6483 C   0  0  0  0  0  0  0  0  0  0  0  0
   12.9575  -14.2885   18.7138 C   0  0  0  0  0  0  0  0  0  0  0  0
   14.4149  -14.1399   18.7752 C   0  0  0  0  0  0  0  0  0  0  0  0
   14.9639  -13.0201   18.7949 O   0  0  0  0  0  0  0  0  0  0  0  0
   10.3815  -15.7935   20.8924 C   0  0  0  0  0  0  0  0  0  0  0  0
    9.5416  -15.0238   21.3764 O   0  0  0  0  0  0  0  0  0  0  0  0
   15.2810  -15.2346   18.8154 O   0  0  0  0  0  0  0  0  0  0  0  0
   10.8129  -16.9168   21.6490 N   0  0  0  0  0  0  0  0  0  0  0  0
   10.2371  -17.3380   22.8951 C   0  0  1  0  0  0  0  0  0  0  0  0
   10.7436  -18.6426   23.3859 C   0  0  0  0  0  0  0  0  0  0  0  0
   10.2120  -19.1720   24.6594 C   0  0  0  0  0  0  0  0  0  0  0  0
   10.7367  -20.4597   25.1288 C   0  0  0  0  0  0  0  0  0  0  0  0
   10.6308  -21.4823   24.4179 O   0  0  0  0  0  0  0  0  0  0  0  0
   10.2741  -16.3263   23.9681 C   0  0  0  0  0  0  0  0  0  0  0  0
   11.2856  -15.5730   24.1466 O   0  0  0  0  0  0  0  0  0  0  0  0
   11.3584  -20.5896   26.3575 O   0  0  0  0  0  0  0  0  0  0  0  0
    5.4478  -12.9653   25.5250 N   0  0  0  0  0  0  0  0  0  0  0  0
    6.3991  -12.4746   26.4501 C   0  0  0  0  0  0  0  0  0  0  0  0
    6.1005  -11.4497   27.1141 O   0  0  0  0  0  0  0  0  0  0  0  0
    7.7298  -13.1556   26.6377 C   0  0  0  0  0  0  0  0  0  0  0  0
    7.8030  -14.3637   25.7034 C   0  0  0  0  0  0  0  0  0  0  0  0
    9.1923  -15.0127   25.8265 C   0  0  2  0  0  0  0  0  0  0  0  0
    9.1922  -16.1195   24.8719 N   0  0  0  0  0  0  0  0  0  0  0  0
    9.2747  -15.4724   27.2284 C   0  0  0  0  0  0  0  0  0  0  0  0
    9.6278  -14.6174   28.2540 O   0  0  0  0  0  0  0  0  0  0  0  0
    9.0197  -16.6641   27.5020 O   0  0  0  0  0  0  0  0  0  0  0  0
  2  1  1  1
  2  7  1  0
  2  3  1  0
  4  3  1  0
  4  5  1  0
  5  6  2  0
  7  8  2  0
  9  5  1  0
 10 11  1  0
 10  7  1  0
 11 12  1  1
 12 13  1  0
 13 14  1  0
 14 15  2  0
 14 18  1  0
 16 11  1  0
 17 16  2  0
 20 22  1  0
 20 19  1  0
 21 20  2  0
 23 22  1  0
 24 23  1  1
 24 25  1  0
 25 16  1  0
 26 24  1  0
 27 26  1  0
 28 26  2  0
M  END
$$$$
