EEQ.pdb
     RDKit          3D

 28 27  0  0  1  0  0  0  0  0999 V2000
   12.0727  -14.0449   18.0642 N   0  0  0  0  0  0  0  0  0  0  0  0
   13.0001  -15.0209   17.6201 C   0  0  1  0  0  0  0  0  0  0  0  0
   14.4239  -14.5744   17.5593 C   0  0  0  0  0  0  0  0  0  0  0  0
   14.8644  -13.7823   18.7405 C   0  0  0  0  0  0  0  0  0  0  0  0
   16.2311  -13.2594   18.6469 C   0  0  0  0  0  0  0  0  0  0  0  0
   16.7816  -13.0444   17.5485 O   0  0  0  0  0  0  0  0  0  0  0  0
   12.9349  -16.1819   18.5894 C   0  0  0  0  0  0  0  0  0  0  0  0
   12.3144  -16.0536   19.6527 O   0  0  0  0  0  0  0  0  0  0  0  0
   17.0035  -12.9689   19.7734 O   0  0  0  0  0  0  0  0  0  0  0  0
   13.5729  -17.4190   18.3015 N   0  0  0  0  0  0  0  0  0  0  0  0
   13.5041  -18.5908   19.1286 C   0  0  1  0  0  0  0  0  0  0  0  0
   14.0494  -19.8142   18.4919 C   0  0  0  0  0  0  0  0  0  0  0  0
   13.3618  -20.3562   17.3010 C   0  0  0  0  0  0  0  0  0  0  0  0
   13.9506  -21.5368   16.6582 C   0  0  0  0  0  0  0  0  0  0  0  0
   13.2421  -22.5322   16.3946 O   0  0  0  0  0  0  0  0  0  0  0  0
   14.0501  -18.4222   20.4886 C   0  0  0  0  0  0  0  0  0  0  0  0
   15.0044  -17.6150   20.7341 O   0  0  0  0  0  0  0  0  0  0  0  0
   15.2919  -21.5931   16.3252 O   0  0  0  0  0  0  0  0  0  0  0  0
   11.1182  -20.4113   25.7129 N   0  0  0  0  0  0  0  0  0  0  0  0
   12.2288  -19.7163   26.2469 C   0  0  0  0  0  0  0  0  0  0  0  0
   12.2959  -19.5837   27.4952 O   0  0  0  0  0  0  0  0  0  0  0  0
   13.3006  -19.1511   25.3516 C   0  0  0  0  0  0  0  0  0  0  0  0
   12.9732  -19.5088   23.9016 C   0  0  0  0  0  0  0  0  0  0  0  0
   14.0015  -18.8405   22.9730 C   0  0  2  0  0  0  0  0  0  0  0  0
   13.5538  -19.1407   21.6144 N   0  0  0  0  0  0  0  0  0  0  0  0
   15.2885  -19.4873   23.3024 C   0  0  0  0  0  0  0  0  0  0  0  0
   16.1757  -18.9254   24.1995 O   0  0  0  0  0  0  0  0  0  0  0  0
   15.5900  -20.5713   22.7599 O   0  0  0  0  0  0  0  0  0  0  0  0
  2  1  1  1
  2  7  1  0
  2  3  1  0
  4  3  1  0
  4  5  1  0
  5  6  2  0
  7  8  2  0
  9  5  1  0
 10 11  1  0
 10  7  1  0
 11 12  1  6
 12 13  1  0
 13 14  1  0
 14 15  2  0
 14 18  1  0
 16 11  1  0
 17 16  2  0
 20 22  1  0
 20 19  1  0
 21 20  2  0
 23 22  1  0
 24 23  1  1
 24 25  1  0
 25 16  1  0
 26 24  1  0
 27 26  1  0
 28 26  2  0
M  END
$$$$
