EEQ.pdb
     RDKit          3D

 28 27  0  0  1  0  0  0  0  0999 V2000
    9.6840  -12.7441   19.1077 N   0  0  0  0  0  0  0  0  0  0  0  0
    8.3877  -13.2777   19.3189 C   0  0  1  0  0  0  0  0  0  0  0  0
    7.7356  -13.8776   18.1167 C   0  0  0  0  0  0  0  0  0  0  0  0
    8.6687  -14.6188   17.2242 C   0  0  0  0  0  0  0  0  0  0  0  0
    8.0341  -15.2252   16.0497 C   0  0  0  0  0  0  0  0  0  0  0  0
    6.7955  -15.2423   15.9039 O   0  0  0  0  0  0  0  0  0  0  0  0
    8.5124  -14.3738   20.3556 C   0  0  0  0  0  0  0  0  0  0  0  0
    7.4908  -14.9236   20.7867 O   0  0  0  0  0  0  0  0  0  0  0  0
    8.7686  -15.8208   15.0220 O   0  0  0  0  0  0  0  0  0  0  0  0
    9.7823  -14.7851   20.8442 N   0  0  0  0  0  0  0  0  0  0  0  0
    9.9908  -15.8017   21.8366 C   0  0  1  0  0  0  0  0  0  0  0  0
   11.0832  -16.7504   21.5114 C   0  0  0  0  0  0  0  0  0  0  0  0
   11.4210  -17.8013   22.4943 C   0  0  0  0  0  0  0  0  0  0  0  0
   12.5195  -18.7147   22.1583 C   0  0  0  0  0  0  0  0  0  0  0  0
   13.6643  -18.5239   22.6222 O   0  0  0  0  0  0  0  0  0  0  0  0
   10.1278  -15.3008   23.2174 C   0  0  0  0  0  0  0  0  0  0  0  0
   11.0991  -14.5550   23.5681 O   0  0  0  0  0  0  0  0  0  0  0  0
   12.3333  -19.8046   21.3273 O   0  0  0  0  0  0  0  0  0  0  0  0
    5.5320  -12.8322   26.1265 N   0  0  0  0  0  0  0  0  0  0  0  0
    6.5952  -12.5946   27.0291 C   0  0  0  0  0  0  0  0  0  0  0  0
    6.4460  -11.6906   27.8898 O   0  0  0  0  0  0  0  0  0  0  0  0
    7.8684  -13.3975   26.9651 C   0  0  0  0  0  0  0  0  0  0  0  0
    7.9540  -14.0809   25.6001 C   0  0  0  0  0  0  0  0  0  0  0  0
    9.2311  -14.9366   25.5439 C   0  0  2  0  0  0  0  0  0  0  0  0
    9.1932  -15.6101   24.2473 N   0  0  0  0  0  0  0  0  0  0  0  0
    9.1085  -15.8780   26.6762 C   0  0  0  0  0  0  0  0  0  0  0  0
    8.8216  -17.2150   26.4821 O   0  0  0  0  0  0  0  0  0  0  0  0
    9.2670  -15.4619   27.8433 O   0  0  0  0  0  0  0  0  0  0  0  0
  2  1  1  6
  2  7  1  0
  2  3  1  0
  4  3  1  0
  4  5  1  0
  5  6  2  0
  7  8  2  0
  9  5  1  0
 10 11  1  0
 10  7  1  0
 11 12  1  6
 12 13  1  0
 13 14  1  0
 14 15  2  0
 14 18  1  0
 16 11  1  0
 17 16  2  0
 20 22  1  0
 20 19  1  0
 21 20  2  0
 23 22  1  0
 24 23  1  6
 24 25  1  0
 25 16  1  0
 26 24  1  0
 27 26  1  0
 28 26  2  0
M  END
$$$$
