EEQ.pdb
     RDKit          3D

 28 27  0  0  1  0  0  0  0  0999 V2000
    9.6081  -18.3938   19.6138 N   0  0  0  0  0  0  0  0  0  0  0  0
    8.7788  -17.2461   19.5446 C   0  0  1  0  0  0  0  0  0  0  0  0
    7.6455  -17.3292   18.5755 C   0  0  0  0  0  0  0  0  0  0  0  0
    7.9544  -18.1046   17.3427 C   0  0  0  0  0  0  0  0  0  0  0  0
    6.8317  -18.2346   16.4086 C   0  0  0  0  0  0  0  0  0  0  0  0
    6.8587  -17.7272   15.2695 O   0  0  0  0  0  0  0  0  0  0  0  0
    8.1794  -17.0368   20.9190 C   0  0  0  0  0  0  0  0  0  0  0  0
    7.4393  -16.0651   21.1193 O   0  0  0  0  0  0  0  0  0  0  0  0
    5.6640  -18.9303   16.7291 O   0  0  0  0  0  0  0  0  0  0  0  0
    8.4501  -17.9363   21.9858 N   0  0  0  0  0  0  0  0  0  0  0  0
    7.9145  -17.8214   23.3131 C   0  0  1  0  0  0  0  0  0  0  0  0
    7.9655  -19.0789   24.0976 C   0  0  0  0  0  0  0  0  0  0  0  0
    7.4361  -19.0716   25.4776 C   0  0  0  0  0  0  0  0  0  0  0  0
    7.5859  -20.2999   26.2666 C   0  0  0  0  0  0  0  0  0  0  0  0
    7.1288  -20.3646   27.4282 O   0  0  0  0  0  0  0  0  0  0  0  0
    8.4463  -16.6928   24.1003 C   0  0  0  0  0  0  0  0  0  0  0  0
    9.6915  -16.4265   24.1362 O   0  0  0  0  0  0  0  0  0  0  0  0
    8.2297  -21.4160   25.7634 O   0  0  0  0  0  0  0  0  0  0  0  0
    4.9943  -11.7591   25.8643 N   0  0  0  0  0  0  0  0  0  0  0  0
    6.2909  -11.3751   26.2801 C   0  0  0  0  0  0  0  0  0  0  0  0
    6.4531  -10.1982   26.6910 O   0  0  0  0  0  0  0  0  0  0  0  0
    7.4447  -12.3429   26.2342 C   0  0  0  0  0  0  0  0  0  0  0  0
    6.9571  -13.6659   25.6427 C   0  0  0  0  0  0  0  0  0  0  0  0
    8.1476  -14.6322   25.5194 C   0  0  2  0  0  0  0  0  0  0  0  0
    7.6149  -15.8271   24.8679 N   0  0  0  0  0  0  0  0  0  0  0  0
    8.5760  -14.8874   26.9104 C   0  0  0  0  0  0  0  0  0  0  0  0
    9.4657  -14.0552   27.5612 O   0  0  0  0  0  0  0  0  0  0  0  0
    8.1265  -15.8798   27.5212 O   0  0  0  0  0  0  0  0  0  0  0  0
  2  1  1  1
  2  7  1  0
  2  3  1  0
  4  3  1  0
  4  5  1  0
  5  6  2  0
  7  8  2  0
  9  5  1  0
 10 11  1  0
 10  7  1  0
 11 12  1  1
 12 13  1  0
 13 14  1  0
 14 15  2  0
 14 18  1  0
 16 11  1  0
 17 16  2  0
 20 22  1  0
 20 19  1  0
 21 20  2  0
 23 22  1  0
 24 23  1  1
 24 25  1  0
 25 16  1  0
 26 24  1  0
 27 26  1  0
 28 26  2  0
M  END
$$$$
