EEQ.pdb
     RDKit          3D

 28 27  0  0  1  0  0  0  0  0999 V2000
    9.5516  -17.8504   18.3175 N   0  0  0  0  0  0  0  0  0  0  0  0
    9.0173  -19.0515   18.8483 C   0  0  1  0  0  0  0  0  0  0  0  0
    8.6759  -20.1025   17.8437 C   0  0  0  0  0  0  0  0  0  0  0  0
    9.5095  -20.0599   16.6108 C   0  0  0  0  0  0  0  0  0  0  0  0
   10.0213  -21.3637   16.1773 C   0  0  0  0  0  0  0  0  0  0  0  0
    9.5733  -21.9468   15.1699 O   0  0  0  0  0  0  0  0  0  0  0  0
   10.0589  -19.6393   19.7764 C   0  0  0  0  0  0  0  0  0  0  0  0
    9.7917  -20.6602   20.4232 O   0  0  0  0  0  0  0  0  0  0  0  0
   11.0380  -22.0363   16.8587 O   0  0  0  0  0  0  0  0  0  0  0  0
   11.3403  -19.0411   19.9193 N   0  0  0  0  0  0  0  0  0  0  0  0
   12.4029  -19.5598   20.7341 C   0  0  1  0  0  0  0  0  0  0  0  0
   13.7404  -19.0085   20.4079 C   0  0  0  0  0  0  0  0  0  0  0  0
   14.9253  -19.5933   21.0703 C   0  0  0  0  0  0  0  0  0  0  0  0
   16.2411  -19.0621   20.6961 C   0  0  0  0  0  0  0  0  0  0  0  0
   16.8396  -19.5057   19.6924 O   0  0  0  0  0  0  0  0  0  0  0  0
   12.1542  -19.5019   22.1870 C   0  0  0  0  0  0  0  0  0  0  0  0
   11.9628  -18.3976   22.7924 O   0  0  0  0  0  0  0  0  0  0  0  0
   16.8607  -18.0659   21.4289 O   0  0  0  0  0  0  0  0  0  0  0  0
   10.2589  -23.9014   27.8154 N   0  0  0  0  0  0  0  0  0  0  0  0
   10.0626  -23.2407   26.5798 C   0  0  0  0  0  0  0  0  0  0  0  0
    9.2762  -23.7642   25.7505 O   0  0  0  0  0  0  0  0  0  0  0  0
   10.7715  -21.9495   26.2633 C   0  0  0  0  0  0  0  0  0  0  0  0
   11.0377  -21.8875   24.7589 C   0  0  0  0  0  0  0  0  0  0  0  0
   11.7865  -20.5839   24.4328 C   0  0  2  0  0  0  0  0  0  0  0  0
   12.1090  -20.6644   23.0095 N   0  0  0  0  0  0  0  0  0  0  0  0
   12.9898  -20.6118   25.2899 C   0  0  0  0  0  0  0  0  0  0  0  0
   12.9065  -20.4962   26.6637 O   0  0  0  0  0  0  0  0  0  0  0  0
   14.1162  -20.7430   24.7664 O   0  0  0  0  0  0  0  0  0  0  0  0
  2  1  1  6
  2  7  1  0
  2  3  1  0
  4  3  1  0
  4  5  1  0
  5  6  2  0
  7  8  2  0
  9  5  1  0
 10 11  1  0
 10  7  1  0
 11 12  1  1
 12 13  1  0
 13 14  1  0
 14 15  2  0
 14 18  1  0
 16 11  1  0
 17 16  2  0
 20 22  1  0
 20 19  1  0
 21 20  2  0
 23 22  1  0
 24 23  1  1
 24 25  1  0
 25 16  1  0
 26 24  1  0
 27 26  1  0
 28 26  2  0
M  END
$$$$
