SHR.pdb
     RDKit          3D

 28 28  0  0  1  0  0  0  0  0999 V2000
   12.4812  -11.6190  -11.9371 O   0  0  0  0  0  0  0  0  0  0  0  0
   13.8670  -11.6971  -12.0436 C   0  0  0  0  0  0  0  0  0  0  0  0
   14.5314  -11.2201  -10.7438 C   0  0  2  0  0  0  0  0  0  0  0  0
   13.5092  -10.7997   -9.8092 N   0  0  0  0  0  0  0  0  0  0  0  0
   15.4108  -10.0542  -11.0858 C   0  0  0  0  0  0  0  0  0  0  0  0
   15.1142   -8.8651  -10.7707 O   0  0  0  0  0  0  0  0  0  0  0  0
   16.6100  -10.3124  -11.7866 N   0  0  0  0  0  0  0  0  0  0  0  0
   17.5266   -9.2814  -12.2050 C   0  0  1  0  0  0  0  0  0  0  0  0
   18.7729   -9.8704  -12.8564 C   0  0  0  0  0  0  0  0  0  0  0  0
   19.7346   -8.8190  -13.2509 C   0  0  0  0  0  0  0  0  0  0  0  0
   19.5679   -7.4780  -13.0179 C   0  0  0  0  0  0  0  0  0  0  0  0
   20.6170   -6.7898  -13.4980 N   0  0  0  0  0  0  0  0  0  0  0  0
   21.4451   -7.7013  -14.0342 C   0  0  0  0  0  0  0  0  0  0  0  0
   20.9039   -8.9455  -13.8826 N   0  0  0  0  0  0  0  0  0  0  0  0
   16.8263   -8.3657  -13.1338 C   0  0  0  0  0  0  0  0  0  0  0  0
   16.1579   -8.8535  -14.1102 O   0  0  0  0  0  0  0  0  0  0  0  0
   14.0876   -0.2441  -11.4308 N   0  0  0  0  0  0  0  0  0  0  0  0
   13.7086   -0.4127  -12.7847 C   0  0  0  0  0  0  0  0  0  0  0  0
   13.0065    0.4894  -13.3810 N   0  0  0  0  0  0  0  0  0  0  0  0
   14.0737   -1.5618  -13.5475 N   0  0  0  0  0  0  0  0  0  0  0  0
   14.8101   -2.6256  -12.9206 C   0  0  0  0  0  0  0  0  0  0  0  0
   15.0975   -3.7694  -13.8789 C   0  0  0  0  0  0  0  0  0  0  0  0
   15.8025   -4.8267  -13.0715 C   0  0  0  0  0  0  0  0  0  0  0  0
   16.1708   -6.0628  -13.8412 C   0  0  2  0  0  0  0  0  0  0  0  0
   16.8918   -6.9624  -12.9473 N   0  0  0  0  0  0  0  0  0  0  0  0
   17.0091   -5.7514  -15.0175 C   0  0  0  0  0  0  0  0  0  0  0  0
   18.2536   -5.6677  -14.9465 O   0  0  0  0  0  0  0  0  0  0  0  0
   16.3741   -5.5450  -16.2505 O   0  0  0  0  0  0  0  0  0  0  0  0
  2  3  1  0
  2  1  1  0
  3  4  1  1
  5  6  2  0
  5  3  1  0
  7  5  1  0
  8  7  1  0
  9 10  1  0
  8  9  1  6
 10 14  1  0
 11 12  1  0
 11 10  2  0
 12 13  1  0
 13 14  2  0
 15 25  1  0
 15  8  1  0
 16 15  2  0
 18 20  1  0
 18 17  1  0
 19 18  2  0
 21 22  1  0
 21 20  1  0
 22 23  1  0
 24 23  1  1
 24 25  1  0
 26 24  1  0
 27 26  2  0
 28 26  1  0
M  END
$$$$
