SHR.pdb
     RDKit          3D

 28 28  0  0  1  0  0  0  0  0999 V2000
   18.7278   -1.3557  -17.6167 O   0  0  0  0  0  0  0  0  0  0  0  0
   18.8805   -2.7384  -17.6684 C   0  0  0  0  0  0  0  0  0  0  0  0
   20.3084   -3.1034  -18.0999 C   0  0  2  0  0  0  0  0  0  0  0  0
   20.4735   -2.8105  -19.5077 N   0  0  0  0  0  0  0  0  0  0  0  0
   20.4902   -4.5739  -17.8672 C   0  0  0  0  0  0  0  0  0  0  0  0
   20.1391   -5.4439  -18.7164 O   0  0  0  0  0  0  0  0  0  0  0  0
   21.0760   -4.9841  -16.6487 N   0  0  0  0  0  0  0  0  0  0  0  0
   21.1842   -6.3624  -16.2405 C   0  0  1  0  0  0  0  0  0  0  0  0
   22.3651   -6.5773  -15.3005 C   0  0  0  0  0  0  0  0  0  0  0  0
   22.4828   -7.9902  -14.8815 C   0  0  0  0  0  0  0  0  0  0  0  0
   22.9883   -8.9986  -15.6612 C   0  0  0  0  0  0  0  0  0  0  0  0
   22.9581  -10.1626  -14.9911 N   0  0  0  0  0  0  0  0  0  0  0  0
   22.4322   -9.8845  -13.7870 C   0  0  0  0  0  0  0  0  0  0  0  0
   22.1408   -8.5523  -13.7198 N   0  0  0  0  0  0  0  0  0  0  0  0
   19.9150   -6.7731  -15.5985 C   0  0  0  0  0  0  0  0  0  0  0  0
   19.3696   -6.0003  -14.7363 O   0  0  0  0  0  0  0  0  0  0  0  0
   15.1241  -13.3745  -18.3624 N   0  0  0  0  0  0  0  0  0  0  0  0
   15.2495  -12.0172  -18.7465 C   0  0  0  0  0  0  0  0  0  0  0  0
   15.0339  -11.6641  -19.9676 N   0  0  0  0  0  0  0  0  0  0  0  0
   15.6120  -10.9886  -17.8267 N   0  0  0  0  0  0  0  0  0  0  0  0
   15.8599  -11.3219  -16.4503 C   0  0  0  0  0  0  0  0  0  0  0  0
   16.1727  -10.0961  -15.6086 C   0  0  0  0  0  0  0  0  0  0  0  0
   17.5390   -9.6302  -16.0365 C   0  0  0  0  0  0  0  0  0  0  0  0
   18.0122   -8.3725  -15.3653 C   0  0  2  0  0  0  0  0  0  0  0  0
   19.3059   -8.0083  -15.9326 N   0  0  0  0  0  0  0  0  0  0  0  0
   18.1388   -8.5413  -13.9029 C   0  0  0  0  0  0  0  0  0  0  0  0
   19.1887   -8.9560  -13.3675 O   0  0  0  0  0  0  0  0  0  0  0  0
   17.0355   -8.2214  -13.0987 O   0  0  0  0  0  0  0  0  0  0  0  0
  2  3  1  0
  2  1  1  0
  3  4  1  6
  5  6  2  0
  5  3  1  0
  7  5  1  0
  8  7  1  0
  9 10  1  0
  8  9  1  1
 10 14  1  0
 11 12  1  0
 11 10  2  0
 12 13  1  0
 13 14  2  0
 15 25  1  0
 15  8  1  0
 16 15  2  0
 18 20  1  0
 18 17  1  0
 19 18  2  0
 21 22  1  0
 21 20  1  0
 22 23  1  0
 24 23  1  6
 24 25  1  0
 26 24  1  0
 27 26  2  0
 28 26  1  0
M  END
$$$$
