SHR.pdb
     RDKit          3D

 28 28  0  0  1  0  0  0  0  0999 V2000
   24.9272  -22.4761  -12.6229 O   0  0  0  0  0  0  0  0  0  0  0  0
   26.2836  -22.3468  -12.3374 C   0  0  0  0  0  0  0  0  0  0  0  0
   26.5333  -21.0972  -11.4803 C   0  0  2  0  0  0  0  0  0  0  0  0
   25.7625  -21.1916  -10.2589 N   0  0  0  0  0  0  0  0  0  0  0  0
   26.0787  -19.9069  -12.2715 C   0  0  0  0  0  0  0  0  0  0  0  0
   25.0426  -19.2463  -11.9689 O   0  0  0  0  0  0  0  0  0  0  0  0
   26.8478  -19.5242  -13.3931 N   0  0  0  0  0  0  0  0  0  0  0  0
   26.5704  -18.3542  -14.1882 C   0  0  1  0  0  0  0  0  0  0  0  0
   27.8209  -17.8519  -14.9012 C   0  0  0  0  0  0  0  0  0  0  0  0
   27.5452  -16.6427  -15.7059 C   0  0  0  0  0  0  0  0  0  0  0  0
   27.7224  -16.5476  -17.0623 C   0  0  0  0  0  0  0  0  0  0  0  0
   27.3827  -15.3201  -17.4896 N   0  0  0  0  0  0  0  0  0  0  0  0
   26.9910  -14.6421  -16.3984 C   0  0  0  0  0  0  0  0  0  0  0  0
   27.0906  -15.4532  -15.3046 N   0  0  0  0  0  0  0  0  0  0  0  0
   25.5010  -18.6774  -15.1597 C   0  0  0  0  0  0  0  0  0  0  0  0
   25.5214  -19.8064  -15.7621 O   0  0  0  0  0  0  0  0  0  0  0  0
   17.1737  -16.7838  -14.5805 N   0  0  0  0  0  0  0  0  0  0  0  0
   17.7232  -18.0865  -14.6601 C   0  0  0  0  0  0  0  0  0  0  0  0
   17.1620  -19.0683  -14.0410 N   0  0  0  0  0  0  0  0  0  0  0  0
   18.8997  -18.3796  -15.4119 N   0  0  0  0  0  0  0  0  0  0  0  0
   19.6998  -17.3021  -15.9275 C   0  0  0  0  0  0  0  0  0  0  0  0
   20.9077  -17.8016  -16.7023 C   0  0  0  0  0  0  0  0  0  0  0  0
   22.0944  -17.6184  -15.7940 C   0  0  0  0  0  0  0  0  0  0  0  0
   23.4038  -18.0737  -16.3723 C   0  0  2  0  0  0  0  0  0  0  0  0
   24.4626  -17.7495  -15.4225 N   0  0  0  0  0  0  0  0  0  0  0  0
   23.6864  -17.4308  -17.6724 C   0  0  0  0  0  0  0  0  0  0  0  0
   23.9496  -16.2135  -17.7715 O   0  0  0  0  0  0  0  0  0  0  0  0
   23.6551  -18.2250  -18.8275 O   0  0  0  0  0  0  0  0  0  0  0  0
  2  3  1  0
  2  1  1  0
  3  4  1  1
  5  6  2  0
  5  3  1  0
  7  5  1  0
  8  7  1  0
  9 10  1  0
  8  9  1  6
 10 14  1  0
 11 12  1  0
 11 10  2  0
 12 13  1  0
 13 14  2  0
 15 25  1  0
 15  8  1  0
 16 15  2  0
 18 20  1  0
 18 17  1  0
 19 18  2  0
 21 22  1  0
 21 20  1  0
 22 23  1  0
 24 23  1  1
 24 25  1  0
 26 24  1  0
 27 26  2  0
 28 26  1  0
M  END
$$$$
