SHR.pdb
     RDKit          3D

 28 28  0  0  1  0  0  0  0  0999 V2000
   18.2019  -10.5443  -16.6598 O   0  0  0  0  0  0  0  0  0  0  0  0
   19.3787   -9.9318  -17.0816 C   0  0  0  0  0  0  0  0  0  0  0  0
   20.5664  -10.4159  -16.2371 C   0  0  2  0  0  0  0  0  0  0  0  0
   20.6304  -11.8612  -16.2836 N   0  0  0  0  0  0  0  0  0  0  0  0
   20.3311   -9.9679  -14.8252 C   0  0  0  0  0  0  0  0  0  0  0  0
   19.8204  -10.7249  -13.9492 O   0  0  0  0  0  0  0  0  0  0  0  0
   20.6987   -8.6484  -14.4792 N   0  0  0  0  0  0  0  0  0  0  0  0
   20.3623   -8.0312  -13.2206 C   0  0  1  0  0  0  0  0  0  0  0  0
   21.2828   -6.8565  -12.9088 C   0  0  0  0  0  0  0  0  0  0  0  0
   20.9744   -6.2514  -11.5956 C   0  0  0  0  0  0  0  0  0  0  0  0
   21.3773   -6.7574  -10.3864 C   0  0  0  0  0  0  0  0  0  0  0  0
   20.9356   -5.9765   -9.3865 N   0  0  0  0  0  0  0  0  0  0  0  0
   20.2533   -4.9771   -9.9693 C   0  0  0  0  0  0  0  0  0  0  0  0
   20.2772   -5.1458  -11.3239 N   0  0  0  0  0  0  0  0  0  0  0  0
   18.9471   -7.5983  -13.2622 C   0  0  0  0  0  0  0  0  0  0  0  0
   18.4668   -7.1287  -14.3516 O   0  0  0  0  0  0  0  0  0  0  0  0
   12.7031   -9.0155   -7.2583 N   0  0  0  0  0  0  0  0  0  0  0  0
   12.3255   -9.2960   -8.5939 C   0  0  0  0  0  0  0  0  0  0  0  0
   11.3595  -10.1142   -8.8388 N   0  0  0  0  0  0  0  0  0  0  0  0
   12.9761   -8.7037   -9.7170 N   0  0  0  0  0  0  0  0  0  0  0  0
   14.0859   -7.8142   -9.5070 C   0  0  0  0  0  0  0  0  0  0  0  0
   14.6111   -7.2318  -10.8086 C   0  0  0  0  0  0  0  0  0  0  0  0
   16.0319   -7.7124  -10.9406 C   0  0  0  0  0  0  0  0  0  0  0  0
   16.7852   -7.1326  -12.1036 C   0  0  2  0  0  0  0  0  0  0  0  0
   18.1284   -7.7018  -12.1101 N   0  0  0  0  0  0  0  0  0  0  0  0
   16.8685   -5.6593  -12.0281 C   0  0  0  0  0  0  0  0  0  0  0  0
   17.7401   -5.0740  -11.3507 O   0  0  0  0  0  0  0  0  0  0  0  0
   15.9313   -4.9028  -12.7462 O   0  0  0  0  0  0  0  0  0  0  0  0
  2  3  1  0
  2  1  1  0
  3  4  1  1
  5  6  2  0
  5  3  1  0
  7  5  1  0
  8  7  1  0
  9 10  1  0
  8  9  1  6
 10 14  1  0
 11 12  1  0
 11 10  2  0
 12 13  1  0
 13 14  2  0
 15 25  1  0
 15  8  1  0
 16 15  2  0
 18 20  1  0
 18 17  1  0
 19 18  2  0
 21 22  1  0
 21 20  1  0
 22 23  1  0
 24 23  1  1
 24 25  1  0
 26 24  1  0
 27 26  2  0
 28 26  1  0
M  END
$$$$
