SHR.pdb
     RDKit          3D

 28 28  0  0  1  0  0  0  0  0999 V2000
   28.7322  -19.1291  -21.4518 O   0  0  0  0  0  0  0  0  0  0  0  0
   29.8483  -18.9922  -20.6311 C   0  0  0  0  0  0  0  0  0  0  0  0
   29.4268  -18.9672  -19.1545 C   0  0  2  0  0  0  0  0  0  0  0  0
   28.5930  -20.1167  -18.8744 N   0  0  0  0  0  0  0  0  0  0  0  0
   28.6421  -17.7092  -18.9285 C   0  0  0  0  0  0  0  0  0  0  0  0
   27.3825  -17.7077  -18.8072 O   0  0  0  0  0  0  0  0  0  0  0  0
   29.3524  -16.4904  -18.8518 N   0  0  0  0  0  0  0  0  0  0  0  0
   28.7185  -15.2084  -18.6707 C   0  0  1  0  0  0  0  0  0  0  0  0
   29.6883  -14.1793  -18.1005 C   0  0  0  0  0  0  0  0  0  0  0  0
   29.0379  -12.8678  -17.8944 C   0  0  0  0  0  0  0  0  0  0  0  0
   27.7689  -12.5498  -18.3056 C   0  0  0  0  0  0  0  0  0  0  0  0
   27.4756  -11.2831  -17.9676 N   0  0  0  0  0  0  0  0  0  0  0  0
   28.5634  -10.8041  -17.3424 C   0  0  0  0  0  0  0  0  0  0  0  0
   29.5214  -11.7758  -17.2975 N   0  0  0  0  0  0  0  0  0  0  0  0
   28.1708  -14.7567  -19.9698 C   0  0  0  0  0  0  0  0  0  0  0  0
   28.9219  -14.7711  -21.0060 O   0  0  0  0  0  0  0  0  0  0  0  0
   20.0101  -15.3467  -22.1358 N   0  0  0  0  0  0  0  0  0  0  0  0
   20.6262  -14.3267  -21.3707 C   0  0  0  0  0  0  0  0  0  0  0  0
   19.9859  -13.7611  -20.4049 N   0  0  0  0  0  0  0  0  0  0  0  0
   21.9577  -13.8783  -21.6183 N   0  0  0  0  0  0  0  0  0  0  0  0
   22.7545  -14.5369  -22.6175 C   0  0  0  0  0  0  0  0  0  0  0  0
   24.1535  -13.9519  -22.7158 C   0  0  0  0  0  0  0  0  0  0  0  0
   24.8529  -14.3183  -21.4338 C   0  0  0  0  0  0  0  0  0  0  0  0
   26.2871  -13.8790  -21.3534 C   0  0  2  0  0  0  0  0  0  0  0  0
   26.8287  -14.3128  -20.0702 N   0  0  0  0  0  0  0  0  0  0  0  0
   26.4236  -12.4134  -21.4825 C   0  0  0  0  0  0  0  0  0  0  0  0
   26.0636  -11.6278  -20.5802 O   0  0  0  0  0  0  0  0  0  0  0  0
   26.9781  -11.8988  -22.6630 O   0  0  0  0  0  0  0  0  0  0  0  0
  2  3  1  0
  2  1  1  0
  3  4  1  6
  5  6  2  0
  5  3  1  0
  7  5  1  0
  8  7  1  0
  9 10  1  0
  8  9  1  6
 10 14  1  0
 11 12  1  0
 11 10  2  0
 12 13  1  0
 13 14  2  0
 15 25  1  0
 15  8  1  0
 16 15  2  0
 18 20  1  0
 18 17  1  0
 19 18  2  0
 21 22  1  0
 21 20  1  0
 22 23  1  0
 24 23  1  1
 24 25  1  0
 26 24  1  0
 27 26  2  0
 28 26  1  0
M  END
$$$$
