SHR.pdb
     RDKit          3D

 28 28  0  0  1  0  0  0  0  0999 V2000
   15.4044   -6.6414   -8.4012 O   0  0  0  0  0  0  0  0  0  0  0  0
   16.7272   -6.7077   -7.9726 C   0  0  0  0  0  0  0  0  0  0  0  0
   17.6011   -5.7380   -8.7815 C   0  0  2  0  0  0  0  0  0  0  0  0
   17.0508   -4.4027   -8.6855 N   0  0  0  0  0  0  0  0  0  0  0  0
   17.5765   -6.1907  -10.2112 C   0  0  0  0  0  0  0  0  0  0  0  0
   16.9660   -5.5499  -11.1156 O   0  0  0  0  0  0  0  0  0  0  0  0
   18.2652   -7.3792  -10.5414 N   0  0  0  0  0  0  0  0  0  0  0  0
   18.3597   -7.8994  -11.8825 C   0  0  1  0  0  0  0  0  0  0  0  0
   19.8113   -8.0654  -12.3182 C   0  0  0  0  0  0  0  0  0  0  0  0
   20.4513   -6.7632  -12.6015 C   0  0  0  0  0  0  0  0  0  0  0  0
   21.3596   -6.1426  -11.7828 C   0  0  0  0  0  0  0  0  0  0  0  0
   21.7508   -4.9767  -12.3237 N   0  0  0  0  0  0  0  0  0  0  0  0
   21.0864   -4.8648  -13.4855 C   0  0  0  0  0  0  0  0  0  0  0  0
   20.2895   -5.9603  -13.6558 N   0  0  0  0  0  0  0  0  0  0  0  0
   17.6365   -9.1896  -11.9482 C   0  0  0  0  0  0  0  0  0  0  0  0
   17.9068  -10.1041  -11.0947 O   0  0  0  0  0  0  0  0  0  0  0  0
    9.6347  -10.2840  -10.5177 N   0  0  0  0  0  0  0  0  0  0  0  0
   10.0788  -11.6108  -10.7362 C   0  0  0  0  0  0  0  0  0  0  0  0
    9.3850  -12.6084  -10.3053 N   0  0  0  0  0  0  0  0  0  0  0  0
   11.2891  -11.9117  -11.4291 N   0  0  0  0  0  0  0  0  0  0  0  0
   12.3092  -10.9055  -11.5463 C   0  0  0  0  0  0  0  0  0  0  0  0
   13.4296  -11.3278  -12.4820 C   0  0  0  0  0  0  0  0  0  0  0  0
   14.4462  -10.2178  -12.4477 C   0  0  0  0  0  0  0  0  0  0  0  0
   15.8215  -10.6118  -12.9055 C   0  0  2  0  0  0  0  0  0  0  0  0
   16.6532   -9.4139  -12.9438 N   0  0  0  0  0  0  0  0  0  0  0  0
   15.7987  -11.2459  -14.2399 C   0  0  0  0  0  0  0  0  0  0  0  0
   16.0918  -10.6203  -15.2809 O   0  0  0  0  0  0  0  0  0  0  0  0
   15.4341  -12.5970  -14.3278 O   0  0  0  0  0  0  0  0  0  0  0  0
  2  3  1  0
  2  1  1  0
  3  4  1  6
  5  6  2  0
  5  3  1  0
  7  5  1  0
  8  7  1  0
  9 10  1  0
  8  9  1  1
 10 14  1  0
 11 12  1  0
 11 10  2  0
 12 13  1  0
 13 14  2  0
 15 25  1  0
 15  8  1  0
 16 15  2  0
 18 20  1  0
 18 17  1  0
 19 18  2  0
 21 22  1  0
 21 20  1  0
 22 23  1  0
 24 23  1  6
 24 25  1  0
 26 24  1  0
 27 26  2  0
 28 26  1  0
M  END
$$$$
