SHR.pdb
     RDKit          3D

 28 28  0  0  1  0  0  0  0  0999 V2000
   19.1443  -13.8391  -14.3395 O   0  0  0  0  0  0  0  0  0  0  0  0
   18.2270  -13.6147  -15.3623 C   0  0  0  0  0  0  0  0  0  0  0  0
   18.7143  -14.2577  -16.6689 C   0  0  2  0  0  0  0  0  0  0  0  0
   19.1229  -15.6217  -16.4088 N   0  0  0  0  0  0  0  0  0  0  0  0
   19.8909  -13.4638  -17.1535 C   0  0  0  0  0  0  0  0  0  0  0  0
   21.0523  -13.9581  -17.2440 O   0  0  0  0  0  0  0  0  0  0  0  0
   19.6757  -12.1156  -17.5169 N   0  0  0  0  0  0  0  0  0  0  0  0
   20.7054  -11.2599  -18.0512 C   0  0  1  0  0  0  0  0  0  0  0  0
   20.1180  -10.1448  -18.9091 C   0  0  0  0  0  0  0  0  0  0  0  0
   21.1712   -9.2738  -19.4731 C   0  0  0  0  0  0  0  0  0  0  0  0
   21.9913   -9.6132  -20.5184 C   0  0  0  0  0  0  0  0  0  0  0  0
   22.8383   -8.6062  -20.7893 N   0  0  0  0  0  0  0  0  0  0  0  0
   22.5494   -7.6315  -19.9116 C   0  0  0  0  0  0  0  0  0  0  0  0
   21.5271   -8.0409  -19.1045 N   0  0  0  0  0  0  0  0  0  0  0  0
   21.4964  -10.7042  -16.9299 C   0  0  0  0  0  0  0  0  0  0  0  0
   20.9222  -10.4789  -15.8086 O   0  0  0  0  0  0  0  0  0  0  0  0
   29.8457  -11.5612  -16.4089 N   0  0  0  0  0  0  0  0  0  0  0  0
   28.6593  -12.2970  -16.1714 C   0  0  0  0  0  0  0  0  0  0  0  0
   28.6403  -13.5745  -16.3445 N   0  0  0  0  0  0  0  0  0  0  0  0
   27.4475  -11.6818  -15.7372 N   0  0  0  0  0  0  0  0  0  0  0  0
   27.4148  -10.2635  -15.5046 C   0  0  0  0  0  0  0  0  0  0  0  0
   26.0301   -9.7762  -15.1118 C   0  0  0  0  0  0  0  0  0  0  0  0
   25.0946  -10.2565  -16.1894 C   0  0  0  0  0  0  0  0  0  0  0  0
   23.6550   -9.8795  -15.9847 C   0  0  2  0  0  0  0  0  0  0  0  0
   22.8762  -10.4240  -17.0915 N   0  0  0  0  0  0  0  0  0  0  0  0
   23.4718   -8.4148  -15.9191 C   0  0  0  0  0  0  0  0  0  0  0  0
   23.4618   -7.6972  -16.9419 O   0  0  0  0  0  0  0  0  0  0  0  0
   23.3042   -7.8215  -14.6598 O   0  0  0  0  0  0  0  0  0  0  0  0
  2  3  1  0
  2  1  1  0
  3  4  1  1
  5  6  2  0
  5  3  1  0
  7  5  1  0
  8  7  1  0
  9 10  1  0
  8  9  1  1
 10 14  1  0
 11 12  1  0
 11 10  2  0
 12 13  1  0
 13 14  2  0
 15 25  1  0
 15  8  1  0
 16 15  2  0
 18 20  1  0
 18 17  1  0
 19 18  2  0
 21 22  1  0
 21 20  1  0
 22 23  1  0
 24 23  1  6
 24 25  1  0
 26 24  1  0
 27 26  2  0
 28 26  1  0
M  END
$$$$
