YNP.pdb
     RDKit          3D

 28 29  0  0  1  0  0  0  0  0999 V2000
    8.8897  -13.3623   15.9336 O   0  0  0  0  0  0  0  0  0  0  0  0
    8.5269  -13.5543   17.2710 C   0  0  0  0  0  0  0  0  0  0  0  0
    9.4051  -14.0859   18.1915 C   0  0  0  0  0  0  0  0  0  0  0  0
    9.0392  -14.2719   19.5088 C   0  0  0  0  0  0  0  0  0  0  0  0
    7.7820  -13.9363   19.9662 C   0  0  0  0  0  0  0  0  0  0  0  0
    7.3858  -14.1355   21.3846 C   0  0  0  0  0  0  0  0  0  0  0  0
    7.2834  -15.6139   21.6848 C   0  0  2  0  0  0  0  0  0  0  0  0
    6.2907  -16.1989   20.8409 N   0  0  0  0  0  0  0  0  0  0  0  0
    7.0448  -15.8686   23.1281 C   0  0  0  0  0  0  0  0  0  0  0  0
    5.8785  -15.8503   23.6003 O   0  0  0  0  0  0  0  0  0  0  0  0
    6.8982  -13.4018   19.0420 C   0  0  0  0  0  0  0  0  0  0  0  0
    7.2690  -13.2179   17.7260 C   0  0  0  0  0  0  0  0  0  0  0  0
    7.8118  -19.4447   27.4854 N   0  0  0  0  0  0  0  0  0  0  0  0
    7.2200  -18.2817   26.9394 C   0  0  0  0  0  0  0  0  0  0  0  0
    6.4835  -17.5693   27.6526 O   0  0  0  0  0  0  0  0  0  0  0  0
    7.4538  -17.8851   25.5338 C   0  0  0  0  0  0  0  0  0  0  0  0
    7.8920  -16.4409   25.4517 C   0  0  2  0  0  0  0  0  0  0  0  0
    8.0947  -16.1427   24.0459 N   0  0  0  0  0  0  0  0  0  0  0  0
    9.1930  -16.3648   26.2035 C   0  0  0  0  0  0  0  0  0  0  0  0
   10.1178  -17.0926   25.7792 O   0  0  0  0  0  0  0  0  0  0  0  0
    9.3959  -15.5443   27.3118 N   0  0  0  0  0  0  0  0  0  0  0  0
    8.4276  -14.6233   27.9196 C   0  0  0  0  0  0  0  0  0  0  0  0
    9.3585  -13.4494   28.2535 C   0  0  0  0  0  0  0  0  0  0  0  0
   10.5012  -14.1854   28.9205 C   0  0  0  0  0  0  0  0  0  0  0  0
   10.6011  -15.4345   28.0895 C   0  0  1  0  0  0  0  0  0  0  0  0
   10.7967  -16.5778   28.9926 C   0  0  0  0  0  0  0  0  0  0  0  0
    9.8740  -17.3934   29.1910 O   0  0  0  0  0  0  0  0  0  0  0  0
   12.0058  -16.7506   29.6242 O   0  0  0  0  0  0  0  0  0  0  0  0
  2 12  2  0
  2  1  1  0
  3  2  1  0
  4  5  1  0
  4  3  2  0
  5 11  2  0
  6  7  1  0
  6  5  1  0
  7  8  1  6
  9  7  1  0
  9 10  2  0
 11 12  1  0
 13 14  1  0
 14 16  1  0
 15 14  2  0
 17 16  1  6
 17 18  1  0
 18  9  1  0
 19 17  1  0
 20 19  2  0
 21 22  1  0
 21 19  1  0
 22 23  1  0
 24 23  1  0
 25 21  1  0
 25 24  1  0
 25 26  1  1
 27 26  2  0
 28 26  1  0
M  END
$$$$
