YNP.pdb
     RDKit          3D

 28 29  0  0  1  0  0  0  0  0999 V2000
   10.2365  -16.5389   31.4056 O   0  0  0  0  0  0  0  0  0  0  0  0
   10.2155  -16.1447   30.0635 C   0  0  0  0  0  0  0  0  0  0  0  0
   10.7041  -14.9202   29.6596 C   0  0  0  0  0  0  0  0  0  0  0  0
   10.6796  -14.5392   28.3336 C   0  0  0  0  0  0  0  0  0  0  0  0
   10.1672  -15.3619   27.3523 C   0  0  0  0  0  0  0  0  0  0  0  0
   10.1401  -14.9539   25.9237 C   0  0  0  0  0  0  0  0  0  0  0  0
   10.7925  -16.0208   25.0739 C   0  0  2  0  0  0  0  0  0  0  0  0
   11.9897  -16.4661   25.7130 N   0  0  0  0  0  0  0  0  0  0  0  0
   11.0136  -15.5578   23.6804 C   0  0  0  0  0  0  0  0  0  0  0  0
   11.8278  -14.6311   23.4321 O   0  0  0  0  0  0  0  0  0  0  0  0
    9.6758  -16.5931   27.7569 C   0  0  0  0  0  0  0  0  0  0  0  0
    9.7025  -16.9693   29.0839 C   0  0  0  0  0  0  0  0  0  0  0  0
   13.2104  -15.6228   21.5329 N   0  0  0  0  0  0  0  0  0  0  0  0
   12.6729  -16.5924   20.6543 C   0  0  0  0  0  0  0  0  0  0  0  0
   13.4389  -17.3691   20.0470 O   0  0  0  0  0  0  0  0  0  0  0  0
   11.2149  -16.7103   20.4353 C   0  0  0  0  0  0  0  0  0  0  0  0
   10.4711  -15.6411   21.2019 C   0  0  2  0  0  0  0  0  0  0  0  0
   10.3348  -16.1195   22.5653 N   0  0  0  0  0  0  0  0  0  0  0  0
    9.1237  -15.5271   20.5422 C   0  0  0  0  0  0  0  0  0  0  0  0
    8.3020  -16.4321   20.8078 O   0  0  0  0  0  0  0  0  0  0  0  0
    8.7730  -14.4896   19.6799 N   0  0  0  0  0  0  0  0  0  0  0  0
    9.5583  -13.2865   19.3783 C   0  0  0  0  0  0  0  0  0  0  0  0
    8.4310  -12.2463   19.3232 C   0  0  0  0  0  0  0  0  0  0  0  0
    7.4362  -12.9654   18.4367 C   0  0  0  0  0  0  0  0  0  0  0  0
    7.5648  -14.3881   18.9058 C   0  0  1  0  0  0  0  0  0  0  0  0
    7.5739  -15.2660   17.7269 C   0  0  0  0  0  0  0  0  0  0  0  0
    6.5549  -15.3843   17.0172 O   0  0  0  0  0  0  0  0  0  0  0  0
    8.7140  -15.9629   17.4025 O   0  0  0  0  0  0  0  0  0  0  0  0
  2 12  2  0
  2  1  1  0
  3  2  1  0
  4  5  1  0
  4  3  2  0
  5 11  2  0
  6  7  1  0
  6  5  1  0
  7  8  1  1
  9  7  1  0
  9 10  2  0
 11 12  1  0
 13 14  1  0
 14 16  1  0
 15 14  2  0
 17 16  1  6
 17 18  1  0
 18  9  1  0
 19 17  1  0
 20 19  2  0
 21 22  1  0
 21 19  1  0
 22 23  1  0
 24 23  1  0
 25 21  1  0
 25 24  1  0
 25 26  1  6
 27 26  2  0
 28 26  1  0
M  END
$$$$
