YNP.pdb
     RDKit          3D

 28 29  0  0  1  0  0  0  0  0999 V2000
    5.8386  -10.7808   26.3878 O   0  0  0  0  0  0  0  0  0  0  0  0
    6.3185  -12.0698   26.1325 C   0  0  0  0  0  0  0  0  0  0  0  0
    5.8368  -13.1704   26.8092 C   0  0  0  0  0  0  0  0  0  0  0  0
    6.3157  -14.4384   26.5512 C   0  0  0  0  0  0  0  0  0  0  0  0
    7.2956  -14.6650   25.6074 C   0  0  0  0  0  0  0  0  0  0  0  0
    7.8128  -16.0298   25.3276 C   0  0  0  0  0  0  0  0  0  0  0  0
    6.8520  -16.7655   24.4210 C   0  0  2  0  0  0  0  0  0  0  0  0
    6.0124  -17.6100   25.2097 N   0  0  0  0  0  0  0  0  0  0  0  0
    7.5622  -17.4955   23.3404 C   0  0  0  0  0  0  0  0  0  0  0  0
    7.8275  -18.7199   23.4580 O   0  0  0  0  0  0  0  0  0  0  0  0
    7.7809  -13.5596   24.9263 C   0  0  0  0  0  0  0  0  0  0  0  0
    7.2987  -12.2939   25.1881 C   0  0  0  0  0  0  0  0  0  0  0  0
    9.9714  -16.8256   17.8020 N   0  0  0  0  0  0  0  0  0  0  0  0
    8.9709  -17.4148   18.6099 C   0  0  0  0  0  0  0  0  0  0  0  0
    8.5232  -18.5426   18.3160 O   0  0  0  0  0  0  0  0  0  0  0  0
    8.4375  -16.7231   19.8035 C   0  0  0  0  0  0  0  0  0  0  0  0
    8.6411  -17.5630   21.0435 C   0  0  2  0  0  0  0  0  0  0  0  0
    7.9775  -16.8711   22.1331 N   0  0  0  0  0  0  0  0  0  0  0  0
   10.1280  -17.6058   21.2692 C   0  0  0  0  0  0  0  0  0  0  0  0
   10.8017  -18.1895   20.3915 O   0  0  0  0  0  0  0  0  0  0  0  0
   10.7560  -17.0402   22.3775 N   0  0  0  0  0  0  0  0  0  0  0  0
   10.1272  -16.2488   23.4422 C   0  0  0  0  0  0  0  0  0  0  0  0
   11.2167  -15.1892   23.6575 C   0  0  0  0  0  0  0  0  0  0  0  0
   12.4448  -16.0707   23.7429 C   0  0  0  0  0  0  0  0  0  0  0  0
   12.1544  -17.1194   22.7051 C   0  0  1  0  0  0  0  0  0  0  0  0
   12.5332  -18.4302   23.2520 C   0  0  0  0  0  0  0  0  0  0  0  0
   11.6655  -19.2979   23.4758 O   0  0  0  0  0  0  0  0  0  0  0  0
   13.8540  -18.7033   23.5193 O   0  0  0  0  0  0  0  0  0  0  0  0
  2 12  2  0
  2  1  1  0
  3  2  1  0
  4  5  1  0
  4  3  2  0
  5 11  2  0
  6  7  1  0
  6  5  1  0
  7  8  1  1
  9  7  1  0
  9 10  2  0
 11 12  1  0
 13 14  1  0
 14 16  1  0
 15 14  2  0
 17 16  1  6
 17 18  1  0
 18  9  1  0
 19 17  1  0
 20 19  2  0
 21 22  1  0
 21 19  1  0
 22 23  1  0
 24 23  1  0
 25 21  1  0
 25 24  1  0
 25 26  1  1
 27 26  2  0
 28 26  1  0
M  END
$$$$
