YNP.pdb
     RDKit          3D

 28 29  0  0  1  0  0  0  0  0999 V2000
   13.4587  -20.7285   30.7917 O   0  0  0  0  0  0  0  0  0  0  0  0
   13.2034  -19.7811   29.7945 C   0  0  0  0  0  0  0  0  0  0  0  0
   13.6942  -19.9257   28.5142 C   0  0  0  0  0  0  0  0  0  0  0  0
   13.4377  -18.9865   27.5364 C   0  0  0  0  0  0  0  0  0  0  0  0
   12.6808  -17.8621   27.7921 C   0  0  0  0  0  0  0  0  0  0  0  0
   12.4030  -16.8493   26.7407 C   0  0  0  0  0  0  0  0  0  0  0  0
   10.9383  -16.8871   26.3676 C   0  0  2  0  0  0  0  0  0  0  0  0
   10.6263  -18.1647   25.8106 N   0  0  0  0  0  0  0  0  0  0  0  0
   10.5660  -15.7574   25.4787 C   0  0  0  0  0  0  0  0  0  0  0  0
   11.0904  -14.6231   25.6261 O   0  0  0  0  0  0  0  0  0  0  0  0
   12.1868  -17.7154   29.0788 C   0  0  0  0  0  0  0  0  0  0  0  0
   12.4462  -18.6574   30.0527 C   0  0  0  0  0  0  0  0  0  0  0  0
    9.8498  -15.5338   21.5911 N   0  0  0  0  0  0  0  0  0  0  0  0
    8.4671  -15.7826   21.7558 C   0  0  0  0  0  0  0  0  0  0  0  0
    7.8194  -16.3132   20.8296 O   0  0  0  0  0  0  0  0  0  0  0  0
    7.7636  -15.4273   23.0074 C   0  0  0  0  0  0  0  0  0  0  0  0
    8.7226  -14.8209   24.0059 C   0  0  2  0  0  0  0  0  0  0  0  0
    9.6155  -15.8836   24.4296 N   0  0  0  0  0  0  0  0  0  0  0  0
    7.8733  -14.3512   25.1556 C   0  0  0  0  0  0  0  0  0  0  0  0
    7.5322  -15.2262   25.9819 O   0  0  0  0  0  0  0  0  0  0  0  0
    7.4695  -13.0279   25.3255 N   0  0  0  0  0  0  0  0  0  0  0  0
    7.7110  -11.9052   24.4110 C   0  0  0  0  0  0  0  0  0  0  0  0
    8.0041  -10.7964   25.4311 C   0  0  0  0  0  0  0  0  0  0  0  0
    6.8504  -10.9942   26.3915 C   0  0  0  0  0  0  0  0  0  0  0  0
    6.7291  -12.4922   26.4363 C   0  0  1  0  0  0  0  0  0  0  0  0
    5.3027  -12.8436   26.3865 C   0  0  0  0  0  0  0  0  0  0  0  0
    4.5695  -12.6579   27.3785 O   0  0  0  0  0  0  0  0  0  0  0  0
    4.7710  -13.3812   25.2380 O   0  0  0  0  0  0  0  0  0  0  0  0
  2 12  2  0
  2  1  1  0
  3  2  1  0
  4  5  1  0
  4  3  2  0
  5 11  2  0
  6  7  1  0
  6  5  1  0
  7  8  1  6
  9  7  1  0
  9 10  2  0
 11 12  1  0
 13 14  1  0
 14 16  1  0
 15 14  2  0
 17 16  1  6
 17 18  1  0
 18  9  1  0
 19 17  1  0
 20 19  2  0
 21 22  1  0
 21 19  1  0
 22 23  1  0
 24 23  1  0
 25 21  1  0
 25 24  1  0
 25 26  1  6
 27 26  2  0
 28 26  1  0
M  END
$$$$
