YNP.pdb
     RDKit          3D

 28 29  0  0  1  0  0  0  0  0999 V2000
    9.3337  -13.9216   15.3423 O   0  0  0  0  0  0  0  0  0  0  0  0
    8.9587  -13.9339   16.6900 C   0  0  0  0  0  0  0  0  0  0  0  0
    7.9457  -13.1301   17.1683 C   0  0  0  0  0  0  0  0  0  0  0  0
    7.5820  -13.1484   18.4992 C   0  0  0  0  0  0  0  0  0  0  0  0
    8.2122  -13.9687   19.4116 C   0  0  0  0  0  0  0  0  0  0  0  0
    7.8222  -13.9903   20.8453 C   0  0  0  0  0  0  0  0  0  0  0  0
    7.5200  -15.4089   21.2724 C   0  0  2  0  0  0  0  0  0  0  0  0
    6.4423  -15.9188   20.4858 N   0  0  0  0  0  0  0  0  0  0  0  0
    7.2709  -15.5042   22.7332 C   0  0  0  0  0  0  0  0  0  0  0  0
    6.2197  -15.0321   23.2387 O   0  0  0  0  0  0  0  0  0  0  0  0
    9.2308  -14.7773   18.9322 C   0  0  0  0  0  0  0  0  0  0  0  0
    9.5905  -14.7552   17.6005 C   0  0  0  0  0  0  0  0  0  0  0  0
    6.0855  -18.7563   23.5354 N   0  0  0  0  0  0  0  0  0  0  0  0
    6.2163  -17.9563   24.6947 C   0  0  0  0  0  0  0  0  0  0  0  0
    5.1988  -17.4624   25.2234 O   0  0  0  0  0  0  0  0  0  0  0  0
    7.5384  -17.6882   25.3011 C   0  0  0  0  0  0  0  0  0  0  0  0
    7.9571  -16.2563   25.0587 C   0  0  2  0  0  0  0  0  0  0  0  0
    8.1835  -16.1206   23.6316 N   0  0  0  0  0  0  0  0  0  0  0  0
    9.2416  -16.0711   25.8199 C   0  0  0  0  0  0  0  0  0  0  0  0
   10.2379  -16.6841   25.3764 O   0  0  0  0  0  0  0  0  0  0  0  0
    9.3558  -15.2724   26.9564 N   0  0  0  0  0  0  0  0  0  0  0  0
    8.2917  -14.4920   27.5996 C   0  0  0  0  0  0  0  0  0  0  0  0
    9.0826  -13.2306   27.9729 C   0  0  0  0  0  0  0  0  0  0  0  0
   10.3074  -13.8523   28.6098 C   0  0  0  0  0  0  0  0  0  0  0  0
   10.5455  -15.0512   27.7342 C   0  0  1  0  0  0  0  0  0  0  0  0
   10.8784  -16.1953   28.5951 C   0  0  0  0  0  0  0  0  0  0  0  0
   11.9377  -16.2054   29.2537 O   0  0  0  0  0  0  0  0  0  0  0  0
   10.0162  -17.2633   28.6759 O   0  0  0  0  0  0  0  0  0  0  0  0
  2 12  2  0
  2  1  1  0
  3  2  1  0
  4  5  1  0
  4  3  2  0
  5 11  2  0
  6  7  1  0
  6  5  1  0
  7  8  1  6
  9  7  1  0
  9 10  2  0
 11 12  1  0
 13 14  1  0
 14 16  1  0
 15 14  2  0
 17 16  1  6
 17 18  1  0
 18  9  1  0
 19 17  1  0
 20 19  2  0
 21 22  1  0
 21 19  1  0
 22 23  1  0
 24 23  1  0
 25 21  1  0
 25 24  1  0
 25 26  1  1
 27 26  2  0
 28 26  1  0
M  END
$$$$
