YNP.pdb
     RDKit          3D

 28 29  0  0  1  0  0  0  0  0999 V2000
    8.7350  -12.7145   16.5184 O   0  0  0  0  0  0  0  0  0  0  0  0
    8.3382  -13.0428   17.8192 C   0  0  0  0  0  0  0  0  0  0  0  0
    9.2506  -13.4159   18.7833 C   0  0  0  0  0  0  0  0  0  0  0  0
    8.8508  -13.7381   20.0640 C   0  0  0  0  0  0  0  0  0  0  0  0
    7.5241  -13.7026   20.4397 C   0  0  0  0  0  0  0  0  0  0  0  0
    7.0911  -14.0490   21.8184 C   0  0  0  0  0  0  0  0  0  0  0  0
    7.0533  -15.5518   21.9809 C   0  0  2  0  0  0  0  0  0  0  0  0
    6.0266  -16.0907   21.1469 N   0  0  0  0  0  0  0  0  0  0  0  0
    6.9159  -15.9496   23.4049 C   0  0  0  0  0  0  0  0  0  0  0  0
    5.7869  -15.9732   23.9601 O   0  0  0  0  0  0  0  0  0  0  0  0
    6.6058  -13.3278   19.4715 C   0  0  0  0  0  0  0  0  0  0  0  0
    7.0108  -13.0066   18.1924 C   0  0  0  0  0  0  0  0  0  0  0  0
    7.9260  -19.8625   27.4862 N   0  0  0  0  0  0  0  0  0  0  0  0
    7.3373  -18.6830   26.9732 C   0  0  0  0  0  0  0  0  0  0  0  0
    6.5538  -18.0222   27.6861 O   0  0  0  0  0  0  0  0  0  0  0  0
    7.6288  -18.2092   25.6027 C   0  0  0  0  0  0  0  0  0  0  0  0
    7.9241  -16.7269   25.6012 C   0  0  2  0  0  0  0  0  0  0  0  0
    8.0256  -16.3202   24.2118 N   0  0  0  0  0  0  0  0  0  0  0  0
    9.2489  -16.5729   26.2975 C   0  0  0  0  0  0  0  0  0  0  0  0
   10.2058  -17.2134   25.8087 O   0  0  0  0  0  0  0  0  0  0  0  0
    9.4397  -15.7734   27.4232 N   0  0  0  0  0  0  0  0  0  0  0  0
    8.4069  -15.0702   28.1940 C   0  0  0  0  0  0  0  0  0  0  0  0
    9.1492  -13.7597   28.4895 C   0  0  0  0  0  0  0  0  0  0  0  0
   10.4783  -14.2994   28.9739 C   0  0  0  0  0  0  0  0  0  0  0  0
   10.6936  -15.4754   28.0619 C   0  0  1  0  0  0  0  0  0  0  0  0
   11.1997  -16.5980   28.8646 C   0  0  0  0  0  0  0  0  0  0  0  0
   10.4968  -17.6118   29.0500 O   0  0  0  0  0  0  0  0  0  0  0  0
   12.4575  -16.5315   29.4161 O   0  0  0  0  0  0  0  0  0  0  0  0
  2 12  2  0
  2  1  1  0
  3  2  1  0
  4  5  1  0
  4  3  2  0
  5 11  2  0
  6  7  1  0
  6  5  1  0
  7  8  1  6
  9  7  1  0
  9 10  2  0
 11 12  1  0
 13 14  1  0
 14 16  1  0
 15 14  2  0
 17 16  1  6
 17 18  1  0
 18  9  1  0
 19 17  1  0
 20 19  2  0
 21 22  1  0
 21 19  1  0
 22 23  1  0
 24 23  1  0
 25 21  1  0
 25 24  1  0
 25 26  1  1
 27 26  2  0
 28 26  1  0
M  END
$$$$
