YNP.pdb
     RDKit          3D

 28 29  0  0  1  0  0  0  0  0999 V2000
   10.3881  -15.7700   31.5391 O   0  0  0  0  0  0  0  0  0  0  0  0
   10.6186  -15.6037   30.1693 C   0  0  0  0  0  0  0  0  0  0  0  0
   11.6308  -16.2758   29.5174 C   0  0  0  0  0  0  0  0  0  0  0  0
   11.8513  -16.1062   28.1660 C   0  0  0  0  0  0  0  0  0  0  0  0
   11.0727  -15.2592   27.4052 C   0  0  0  0  0  0  0  0  0  0  0  0
   11.3082  -15.0750   25.9495 C   0  0  0  0  0  0  0  0  0  0  0  0
   10.9181  -16.3317   25.2047 C   0  0  2  0  0  0  0  0  0  0  0  0
   11.7415  -17.4138   25.6417 N   0  0  0  0  0  0  0  0  0  0  0  0
   10.9492  -16.1332   23.7334 C   0  0  0  0  0  0  0  0  0  0  0  0
   11.9376  -15.5863   23.1789 O   0  0  0  0  0  0  0  0  0  0  0  0
   10.0548  -14.5829   28.0592 C   0  0  0  0  0  0  0  0  0  0  0  0
    9.8385  -14.7561   29.4106 C   0  0  0  0  0  0  0  0  0  0  0  0
   12.1553  -17.4957   21.5444 N   0  0  0  0  0  0  0  0  0  0  0  0
   11.1278  -18.0277   20.7307 C   0  0  0  0  0  0  0  0  0  0  0  0
   11.3435  -19.0550   20.0547 O   0  0  0  0  0  0  0  0  0  0  0  0
    9.7938  -17.3928   20.6599 C   0  0  0  0  0  0  0  0  0  0  0  0
    9.7572  -16.1317   21.4921 C   0  0  2  0  0  0  0  0  0  0  0  0
    9.8889  -16.5394   22.8787 N   0  0  0  0  0  0  0  0  0  0  0  0
    8.4060  -15.5177   21.2453 C   0  0  0  0  0  0  0  0  0  0  0  0
    7.4885  -15.8775   22.0157 O   0  0  0  0  0  0  0  0  0  0  0  0
    8.1511  -14.5985   20.2290 N   0  0  0  0  0  0  0  0  0  0  0  0
    9.1409  -13.8934   19.4054 C   0  0  0  0  0  0  0  0  0  0  0  0
    8.4757  -12.5125   19.3235 C   0  0  0  0  0  0  0  0  0  0  0  0
    7.0612  -12.9097   18.9577 C   0  0  0  0  0  0  0  0  0  0  0  0
    6.8596  -14.1537   19.7779 C   0  0  1  0  0  0  0  0  0  0  0  0
    6.1773  -15.1535   18.9439 C   0  0  0  0  0  0  0  0  0  0  0  0
    6.8211  -16.0794   18.4108 O   0  0  0  0  0  0  0  0  0  0  0  0
    4.8188  -15.0686   18.7490 O   0  0  0  0  0  0  0  0  0  0  0  0
  2 12  2  0
  2  1  1  0
  3  2  1  0
  4  5  1  0
  4  3  2  0
  5 11  2  0
  6  7  1  0
  6  5  1  0
  7  8  1  6
  9  7  1  0
  9 10  2  0
 11 12  1  0
 13 14  1  0
 14 16  1  0
 15 14  2  0
 17 16  1  6
 17 18  1  0
 18  9  1  0
 19 17  1  0
 20 19  2  0
 21 22  1  0
 21 19  1  0
 22 23  1  0
 24 23  1  0
 25 21  1  0
 25 24  1  0
 25 26  1  6
 27 26  2  0
 28 26  1  0
M  END
$$$$
