YNP.pdb
     RDKit          3D

 28 29  0  0  1  0  0  0  0  0999 V2000
    9.5144  -13.0066   16.3994 O   0  0  0  0  0  0  0  0  0  0  0  0
    8.9124  -13.2718   17.6340 C   0  0  0  0  0  0  0  0  0  0  0  0
    9.6477  -13.3480   18.7980 C   0  0  0  0  0  0  0  0  0  0  0  0
    9.0459  -13.6100   20.0117 C   0  0  0  0  0  0  0  0  0  0  0  0
    7.6850  -13.8077   20.1184 C   0  0  0  0  0  0  0  0  0  0  0  0
    7.0347  -14.0898   21.4244 C   0  0  0  0  0  0  0  0  0  0  0  0
    7.1586  -15.5609   21.7510 C   0  0  2  0  0  0  0  0  0  0  0  0
    6.3110  -16.3105   20.8794 N   0  0  0  0  0  0  0  0  0  0  0  0
    6.9010  -15.8308   23.1883 C   0  0  0  0  0  0  0  0  0  0  0  0
    5.8430  -15.4291   23.7386 O   0  0  0  0  0  0  0  0  0  0  0  0
    6.9447  -13.7315   18.9491 C   0  0  0  0  0  0  0  0  0  0  0  0
    7.5512  -13.4692   17.7381 C   0  0  0  0  0  0  0  0  0  0  0  0
    5.8276  -18.0321   24.1614 N   0  0  0  0  0  0  0  0  0  0  0  0
    6.5886  -18.6965   25.1516 C   0  0  0  0  0  0  0  0  0  0  0  0
    6.3486  -19.8926   25.4172 O   0  0  0  0  0  0  0  0  0  0  0  0
    7.6701  -18.0045   25.8860 C   0  0  0  0  0  0  0  0  0  0  0  0
    7.7608  -16.5560   25.4640 C   0  0  2  0  0  0  0  0  0  0  0  0
    7.8124  -16.5434   24.0137 N   0  0  0  0  0  0  0  0  0  0  0  0
    9.0490  -16.0404   26.0456 C   0  0  0  0  0  0  0  0  0  0  0  0
   10.1002  -16.4490   25.5043 O   0  0  0  0  0  0  0  0  0  0  0  0
    9.1098  -15.1584   27.1232 N   0  0  0  0  0  0  0  0  0  0  0  0
    7.9837  -14.4751   27.7714 C   0  0  0  0  0  0  0  0  0  0  0  0
    8.6225  -13.1026   28.0246 C   0  0  0  0  0  0  0  0  0  0  0  0
    9.9434  -13.5221   28.6342 C   0  0  0  0  0  0  0  0  0  0  0  0
   10.2943  -14.7385   27.8231 C   0  0  1  0  0  0  0  0  0  0  0  0
   10.8080  -15.7711   28.7344 C   0  0  0  0  0  0  0  0  0  0  0  0
   10.1346  -16.7923   28.9787 O   0  0  0  0  0  0  0  0  0  0  0  0
   12.0404  -15.6114   29.3229 O   0  0  0  0  0  0  0  0  0  0  0  0
  2 12  2  0
  2  1  1  0
  3  2  1  0
  4  5  1  0
  4  3  2  0
  5 11  2  0
  6  7  1  0
  6  5  1  0
  7  8  1  6
  9  7  1  0
  9 10  2  0
 11 12  1  0
 13 14  1  0
 14 16  1  0
 15 14  2  0
 17 16  1  1
 17 18  1  0
 18  9  1  0
 19 17  1  0
 20 19  2  0
 21 22  1  0
 21 19  1  0
 22 23  1  0
 24 23  1  0
 25 21  1  0
 25 24  1  0
 25 26  1  1
 27 26  2  0
 28 26  1  0
M  END
$$$$
