NVA.pdb
     RDKit          3D

 21 20  0  0  1  0  0  0  0  0999 V2000
    5.2987  -20.3742   18.0550 N   0  0  0  0  0  0  0  0  0  0  0  0
    5.9903  -19.2399   17.5737 C   0  0  0  0  0  0  0  0  0  0  0  0
    5.7577  -18.8313   16.4178 O   0  0  0  0  0  0  0  0  0  0  0  0
    6.9741  -18.5497   18.4294 C   0  0  0  0  0  0  0  0  0  0  0  0
    7.4382  -17.2439   17.8208 C   0  0  2  0  0  0  0  0  0  0  0  0
    8.1502  -17.4810   16.6022 N   0  0  0  0  0  0  0  0  0  0  0  0
    8.2370  -16.5313   18.8375 C   0  0  0  0  0  0  0  0  0  0  0  0
    9.4475  -16.8619   18.9557 O   0  0  0  0  0  0  0  0  0  0  0  0
    7.7713  -12.6129   19.9393 C   0  0  0  0  0  0  0  0  0  0  0  0
    8.0224  -13.5344   21.1059 C   0  0  1  0  0  0  0  0  0  0  0  0
    6.7227  -13.8037   21.8106 C   0  0  0  0  0  0  0  0  0  0  0  0
    8.6565  -14.8036   20.5635 C   0  0  2  0  0  0  0  0  0  0  0  0
    7.7538  -15.5156   19.6817 N   0  0  0  0  0  0  0  0  0  0  0  0
    8.9836  -15.6625   21.7361 C   0  0  0  0  0  0  0  0  0  0  0  0
    8.1297  -16.4330   22.2143 O   0  0  0  0  0  0  0  0  0  0  0  0
   10.5782  -17.9670   22.7405 C   0  0  0  0  0  0  0  0  0  0  0  0
   10.6589  -16.5870   23.3803 C   0  0  2  0  0  0  0  0  0  0  0  0
   10.2736  -15.6345   22.3480 N   0  0  0  0  0  0  0  0  0  0  0  0
   12.0301  -16.2513   23.8053 C   0  0  0  0  0  0  0  0  0  0  0  0
   12.6237  -16.8742   24.7487 O   0  0  0  0  0  0  0  0  0  0  0  0
   12.7786  -15.2334   23.2123 O   0  0  0  0  0  0  0  0  0  0  0  0
  2  1  1  0
  3  2  2  0
  4  2  1  0
  5  4  1  0
  5  6  1  6
  7  8  2  0
  7  5  1  0
 10  9  1  6
 10 12  1  0
 11 10  1  0
 12 13  1  6
 12 14  1  0
 13  7  1  0
 14 18  1  0
 15 14  2  0
 17 19  1  0
 17 16  1  6
 18 17  1  0
 19 20  2  0
 19 21  1  0
M  END
$$$$
