NVA.pdb
     RDKit          3D

 21 20  0  0  1  0  0  0  0  0999 V2000
    9.3523  -21.0223   16.4930 N   0  0  0  0  0  0  0  0  0  0  0  0
    8.6941  -19.7854   16.6755 C   0  0  0  0  0  0  0  0  0  0  0  0
    7.6737  -19.5346   16.0023 O   0  0  0  0  0  0  0  0  0  0  0  0
    9.2091  -18.8050   17.6502 C   0  0  0  0  0  0  0  0  0  0  0  0
    9.2041  -17.3968   17.0955 C   0  0  2  0  0  0  0  0  0  0  0  0
   10.1563  -17.2699   16.0347 N   0  0  0  0  0  0  0  0  0  0  0  0
    9.4493  -16.4692   18.2176 C   0  0  0  0  0  0  0  0  0  0  0  0
   10.6450  -16.3083   18.5821 O   0  0  0  0  0  0  0  0  0  0  0  0
    8.1031  -13.0697   21.4969 C   0  0  0  0  0  0  0  0  0  0  0  0
    7.7131  -13.8468   20.2651 C   0  0  1  0  0  0  0  0  0  0  0  0
    7.5130  -12.8918   19.1221 C   0  0  0  0  0  0  0  0  0  0  0  0
    8.8152  -14.8543   19.9867 C   0  0  2  0  0  0  0  0  0  0  0  0
    8.4556  -15.7536   18.9091 N   0  0  0  0  0  0  0  0  0  0  0  0
    9.0163  -15.6367   21.2386 C   0  0  0  0  0  0  0  0  0  0  0  0
    8.1445  -16.4336   21.6340 O   0  0  0  0  0  0  0  0  0  0  0  0
   11.9181  -16.2191   23.5164 C   0  0  0  0  0  0  0  0  0  0  0  0
   10.4245  -16.2918   23.2268 C   0  0  2  0  0  0  0  0  0  0  0  0
   10.2026  -15.5034   22.0223 N   0  0  0  0  0  0  0  0  0  0  0  0
    9.6197  -15.6906   24.3058 C   0  0  0  0  0  0  0  0  0  0  0  0
    9.1868  -14.4909   24.2466 O   0  0  0  0  0  0  0  0  0  0  0  0
    9.2723  -16.3831   25.4667 O   0  0  0  0  0  0  0  0  0  0  0  0
  2  1  1  0
  3  2  2  0
  4  2  1  0
  5  4  1  0
  5  6  1  6
  7  8  2  0
  7  5  1  0
 10  9  1  1
 10 12  1  0
 11 10  1  0
 12 13  1  6
 12 14  1  0
 13  7  1  0
 14 18  1  0
 15 14  2  0
 17 19  1  0
 17 16  1  1
 18 17  1  0
 19 20  2  0
 19 21  1  0
M  END
$$$$
