NVA.pdb
     RDKit          3D

 21 20  0  0  1  0  0  0  0  0999 V2000
    5.5958  -19.4309   16.5662 N   0  0  0  0  0  0  0  0  0  0  0  0
    5.9223  -19.7194   17.9104 C   0  0  0  0  0  0  0  0  0  0  0  0
    5.4372  -20.7350   18.4493 O   0  0  0  0  0  0  0  0  0  0  0  0
    6.8255  -18.8292   18.6643 C   0  0  0  0  0  0  0  0  0  0  0  0
    7.1828  -17.5859   17.8786 C   0  0  2  0  0  0  0  0  0  0  0  0
    7.9473  -17.9260   16.7176 N   0  0  0  0  0  0  0  0  0  0  0  0
    7.8834  -16.6613   18.7918 C   0  0  0  0  0  0  0  0  0  0  0  0
    9.1261  -16.8192   18.9307 O   0  0  0  0  0  0  0  0  0  0  0  0
    8.1596  -12.7514   21.7540 C   0  0  0  0  0  0  0  0  0  0  0  0
    7.3364  -13.4869   20.7270 C   0  0  1  0  0  0  0  0  0  0  0  0
    7.1537  -12.6094   19.5208 C   0  0  0  0  0  0  0  0  0  0  0  0
    8.0615  -14.7793   20.3938 C   0  0  2  0  0  0  0  0  0  0  0  0
    7.2739  -15.6214   19.5163 N   0  0  0  0  0  0  0  0  0  0  0  0
    8.2984  -15.4903   21.6814 C   0  0  0  0  0  0  0  0  0  0  0  0
    7.3520  -16.0151   22.2983 O   0  0  0  0  0  0  0  0  0  0  0  0
    9.5279  -17.8397   23.0520 C   0  0  0  0  0  0  0  0  0  0  0  0
    9.8692  -16.4045   23.4312 C   0  0  2  0  0  0  0  0  0  0  0  0
    9.6044  -15.5953   22.2495 N   0  0  0  0  0  0  0  0  0  0  0  0
   11.2950  -16.2436   23.7696 C   0  0  0  0  0  0  0  0  0  0  0  0
   12.1454  -15.7796   22.9379 O   0  0  0  0  0  0  0  0  0  0  0  0
   11.8201  -16.5843   25.0171 O   0  0  0  0  0  0  0  0  0  0  0  0
  2  1  1  0
  3  2  2  0
  4  2  1  0
  5  4  1  0
  5  6  1  6
  7  8  2  0
  7  5  1  0
 10  9  1  1
 10 12  1  0
 11 10  1  0
 12 13  1  6
 12 14  1  0
 13  7  1  0
 14 18  1  0
 15 14  2  0
 17 19  1  0
 17 16  1  6
 18 17  1  0
 19 20  2  0
 19 21  1  0
M  END
$$$$
