NVA.pdb
     RDKit          3D

 21 20  0  0  1  0  0  0  0  0999 V2000
    6.2945  -20.6904   17.0137 N   0  0  0  0  0  0  0  0  0  0  0  0
    6.8804  -19.4606   16.6383 C   0  0  0  0  0  0  0  0  0  0  0  0
    6.8315  -19.1036   15.4436 O   0  0  0  0  0  0  0  0  0  0  0  0
    7.5407  -18.6118   17.6482 C   0  0  0  0  0  0  0  0  0  0  0  0
    7.9501  -17.2695   17.0814 C   0  0  2  0  0  0  0  0  0  0  0  0
    8.8428  -17.4405   15.9760 N   0  0  0  0  0  0  0  0  0  0  0  0
    8.5260  -16.4719   18.1822 C   0  0  0  0  0  0  0  0  0  0  0  0
    9.7821  -16.4495   18.2824 O   0  0  0  0  0  0  0  0  0  0  0  0
    8.2866  -13.0738   21.7101 C   0  0  0  0  0  0  0  0  0  0  0  0
    7.5524  -13.7960   20.6088 C   0  0  1  0  0  0  0  0  0  0  0  0
    7.1927  -12.8141   19.5295 C   0  0  0  0  0  0  0  0  0  0  0  0
    8.4579  -14.9041   20.0999 C   0  0  2  0  0  0  0  0  0  0  0  0
    7.7842  -15.7374   19.1246 N   0  0  0  0  0  0  0  0  0  0  0  0
    8.8391  -15.7312   21.2791 C   0  0  0  0  0  0  0  0  0  0  0  0
    7.9944  -16.4464   21.8504 O   0  0  0  0  0  0  0  0  0  0  0  0
   12.0935  -16.7038   22.8191 C   0  0  0  0  0  0  0  0  0  0  0  0
   10.5750  -16.6051   22.8878 C   0  0  2  0  0  0  0  0  0  0  0  0
   10.1718  -15.7343   21.7921 N   0  0  0  0  0  0  0  0  0  0  0  0
   10.1151  -15.9826   24.1425 C   0  0  0  0  0  0  0  0  0  0  0  0
    9.8099  -14.7451   24.2182 O   0  0  0  0  0  0  0  0  0  0  0  0
    9.9794  -16.6945   25.3354 O   0  0  0  0  0  0  0  0  0  0  0  0
  2  1  1  0
  3  2  2  0
  4  2  1  0
  5  4  1  0
  5  6  1  6
  7  8  2  0
  7  5  1  0
 10  9  1  1
 10 12  1  0
 11 10  1  0
 12 13  1  6
 12 14  1  0
 13  7  1  0
 14 18  1  0
 15 14  2  0
 17 19  1  0
 17 16  1  1
 18 17  1  0
 19 20  2  0
 19 21  1  0
M  END
$$$$
