NVA.pdb
     RDKit          3D

 21 20  0  0  1  0  0  0  0  0999 V2000
    5.6558  -18.6911   16.1590 N   0  0  0  0  0  0  0  0  0  0  0  0
    6.1610  -19.2933   17.3332 C   0  0  0  0  0  0  0  0  0  0  0  0
    5.6709  -20.3732   17.7218 O   0  0  0  0  0  0  0  0  0  0  0  0
    7.2539  -18.6511   18.0879 C   0  0  0  0  0  0  0  0  0  0  0  0
    7.5600  -17.2617   17.5716 C   0  0  2  0  0  0  0  0  0  0  0  0
    8.1754  -17.3281   16.2812 N   0  0  0  0  0  0  0  0  0  0  0  0
    8.3903  -16.5777   18.5826 C   0  0  0  0  0  0  0  0  0  0  0  0
    9.6273  -16.8186   18.5720 O   0  0  0  0  0  0  0  0  0  0  0  0
    7.8592  -12.8388   19.8436 C   0  0  0  0  0  0  0  0  0  0  0  0
    8.2227  -13.7271   21.0063 C   0  0  1  0  0  0  0  0  0  0  0  0
    6.9913  -13.9973   21.8244 C   0  0  0  0  0  0  0  0  0  0  0  0
    8.8295  -15.0003   20.4425 C   0  0  2  0  0  0  0  0  0  0  0  0
    7.9097  -15.6810   19.5536 N   0  0  0  0  0  0  0  0  0  0  0  0
    9.1438  -15.8830   21.6007 C   0  0  0  0  0  0  0  0  0  0  0  0
    8.2585  -16.5929   22.1142 O   0  0  0  0  0  0  0  0  0  0  0  0
   12.2254  -17.3215   22.9775 C   0  0  0  0  0  0  0  0  0  0  0  0
   10.7939  -16.8689   23.2348 C   0  0  2  0  0  0  0  0  0  0  0  0
   10.4568  -15.9471   22.1586 N   0  0  0  0  0  0  0  0  0  0  0  0
   10.6638  -16.1342   24.5063 C   0  0  0  0  0  0  0  0  0  0  0  0
   10.5498  -14.8633   24.5512 O   0  0  0  0  0  0  0  0  0  0  0  0
   10.6555  -16.7684   25.7495 O   0  0  0  0  0  0  0  0  0  0  0  0
  2  1  1  0
  3  2  2  0
  4  2  1  0
  5  4  1  0
  5  6  1  6
  7  8  2  0
  7  5  1  0
 10  9  1  6
 10 12  1  0
 11 10  1  0
 12 13  1  6
 12 14  1  0
 13  7  1  0
 14 18  1  0
 15 14  2  0
 17 19  1  0
 17 16  1  6
 18 17  1  0
 19 20  2  0
 19 21  1  0
M  END
$$$$
