NVA.pdb
     RDKit          3D

 21 20  0  0  1  0  0  0  0  0999 V2000
    6.9965  -20.7071   17.1924 N   0  0  0  0  0  0  0  0  0  0  0  0
    7.2974  -19.3882   16.7844 C   0  0  0  0  0  0  0  0  0  0  0  0
    6.7290  -18.9188   15.7775 O   0  0  0  0  0  0  0  0  0  0  0  0
    8.2716  -18.5791   17.5412 C   0  0  0  0  0  0  0  0  0  0  0  0
    8.4109  -17.1824   16.9749 C   0  0  2  0  0  0  0  0  0  0  0  0
    9.2572  -17.1888   15.8208 N   0  0  0  0  0  0  0  0  0  0  0  0
    8.9003  -16.3042   18.0560 C   0  0  0  0  0  0  0  0  0  0  0  0
   10.1478  -16.2331   18.2211 O   0  0  0  0  0  0  0  0  0  0  0  0
    8.3558  -13.0964   21.7371 C   0  0  0  0  0  0  0  0  0  0  0  0
    7.7144  -13.7350   20.5312 C   0  0  1  0  0  0  0  0  0  0  0  0
    7.4208  -12.6736   19.5086 C   0  0  0  0  0  0  0  0  0  0  0  0
    8.6702  -14.7917   20.0052 C   0  0  2  0  0  0  0  0  0  0  0  0
    8.0854  -15.5433   18.9132 N   0  0  0  0  0  0  0  0  0  0  0  0
    8.9669  -15.7131   21.1378 C   0  0  0  0  0  0  0  0  0  0  0  0
    8.0767  -16.4478   21.6061 O   0  0  0  0  0  0  0  0  0  0  0  0
   12.0982  -16.8844   22.7866 C   0  0  0  0  0  0  0  0  0  0  0  0
   10.5830  -16.7281   22.7879 C   0  0  2  0  0  0  0  0  0  0  0  0
   10.2680  -15.7872   21.7217 N   0  0  0  0  0  0  0  0  0  0  0  0
   10.0853  -16.1519   24.0504 C   0  0  0  0  0  0  0  0  0  0  0  0
   10.0871  -16.8067   25.1466 O   0  0  0  0  0  0  0  0  0  0  0  0
    9.5777  -14.8551   24.1424 O   0  0  0  0  0  0  0  0  0  0  0  0
  2  1  1  0
  3  2  2  0
  4  2  1  0
  5  4  1  0
  5  6  1  6
  7  8  2  0
  7  5  1  0
 10  9  1  1
 10 12  1  0
 11 10  1  0
 12 13  1  6
 12 14  1  0
 13  7  1  0
 14 18  1  0
 15 14  2  0
 17 19  1  0
 17 16  1  1
 18 17  1  0
 19 20  2  0
 19 21  1  0
M  END
$$$$
