NVA.pdb
     RDKit          3D

 21 20  0  0  1  0  0  0  0  0999 V2000
    8.9715  -18.1672   14.0212 N   0  0  0  0  0  0  0  0  0  0  0  0
    8.1807  -17.3959   14.9023 C   0  0  0  0  0  0  0  0  0  0  0  0
    6.9466  -17.3443   14.7243 O   0  0  0  0  0  0  0  0  0  0  0  0
    8.8090  -16.6621   16.0174 C   0  0  0  0  0  0  0  0  0  0  0  0
    8.4921  -17.2879   17.3585 C   0  0  2  0  0  0  0  0  0  0  0  0
    7.0831  -17.4975   17.4962 N   0  0  0  0  0  0  0  0  0  0  0  0
    9.0608  -16.4186   18.4074 C   0  0  0  0  0  0  0  0  0  0  0  0
   10.3105  -16.2550   18.4060 O   0  0  0  0  0  0  0  0  0  0  0  0
    7.7800  -12.9645   19.7114 C   0  0  0  0  0  0  0  0  0  0  0  0
    8.1139  -13.8267   20.9024 C   0  0  1  0  0  0  0  0  0  0  0  0
    6.8392  -14.3158   21.5303 C   0  0  0  0  0  0  0  0  0  0  0  0
    8.9899  -14.9678   20.4150 C   0  0  2  0  0  0  0  0  0  0  0  0
    8.3190  -15.7609   19.4049 N   0  0  0  0  0  0  0  0  0  0  0  0
    9.2894  -15.8228   21.5978 C   0  0  0  0  0  0  0  0  0  0  0  0
    8.5128  -16.7381   21.9303 O   0  0  0  0  0  0  0  0  0  0  0  0
   11.0833  -17.9210   22.5862 C   0  0  0  0  0  0  0  0  0  0  0  0
   10.9189  -16.6153   23.3533 C   0  0  2  0  0  0  0  0  0  0  0  0
   10.4647  -15.6266   22.3850 N   0  0  0  0  0  0  0  0  0  0  0  0
   12.1956  -16.1355   23.9128 C   0  0  0  0  0  0  0  0  0  0  0  0
   12.8854  -15.2197   23.3509 O   0  0  0  0  0  0  0  0  0  0  0  0
   12.7436  -16.6428   25.0920 O   0  0  0  0  0  0  0  0  0  0  0  0
  2  1  1  0
  3  2  2  0
  4  2  1  0
  5  4  1  0
  5  6  1  1
  7  8  2  0
  7  5  1  0
 10  9  1  6
 10 12  1  0
 11 10  1  0
 12 13  1  6
 12 14  1  0
 13  7  1  0
 14 18  1  0
 15 14  2  0
 17 19  1  0
 17 16  1  6
 18 17  1  0
 19 20  2  0
 19 21  1  0
M  END
$$$$
