NVA.pdb
     RDKit          3D

 21 20  0  0  1  0  0  0  0  0999 V2000
    7.2401  -19.4409   15.7540 N   0  0  0  0  0  0  0  0  0  0  0  0
    7.2438  -19.7648   17.1294 C   0  0  0  0  0  0  0  0  0  0  0  0
    6.7439  -20.8462   17.5006 O   0  0  0  0  0  0  0  0  0  0  0  0
    7.8320  -18.8342   18.1114 C   0  0  0  0  0  0  0  0  0  0  0  0
    8.1671  -17.4940   17.4931 C   0  0  2  0  0  0  0  0  0  0  0  0
    9.1214  -17.6504   16.4381 N   0  0  0  0  0  0  0  0  0  0  0  0
    8.6296  -16.6015   18.5745 C   0  0  0  0  0  0  0  0  0  0  0  0
    9.8518  -16.6489   18.8783 O   0  0  0  0  0  0  0  0  0  0  0  0
    8.0777  -12.9872   21.8562 C   0  0  0  0  0  0  0  0  0  0  0  0
    7.4364  -13.7508   20.7252 C   0  0  1  0  0  0  0  0  0  0  0  0
    7.1699  -12.8103   19.5837 C   0  0  0  0  0  0  0  0  0  0  0  0
    8.3788  -14.8762   20.3353 C   0  0  2  0  0  0  0  0  0  0  0  0
    7.8149  -15.7056   19.2895 N   0  0  0  0  0  0  0  0  0  0  0  0
    8.6008  -15.7011   21.5560 C   0  0  0  0  0  0  0  0  0  0  0  0
    7.6388  -16.2217   22.1518 O   0  0  0  0  0  0  0  0  0  0  0  0
   10.2736  -18.1860   22.7396 C   0  0  0  0  0  0  0  0  0  0  0  0
   10.1398  -16.7581   23.2528 C   0  0  2  0  0  0  0  0  0  0  0  0
    9.9098  -15.9226   22.0821 N   0  0  0  0  0  0  0  0  0  0  0  0
   11.3754  -16.2832   23.9018 C   0  0  0  0  0  0  0  0  0  0  0  0
   11.7837  -16.7519   25.0171 O   0  0  0  0  0  0  0  0  0  0  0  0
   12.1875  -15.2915   23.3496 O   0  0  0  0  0  0  0  0  0  0  0  0
  2  1  1  0
  3  2  2  0
  4  2  1  0
  5  4  1  0
  5  6  1  6
  7  8  2  0
  7  5  1  0
 10  9  1  1
 10 12  1  0
 11 10  1  0
 12 13  1  6
 12 14  1  0
 13  7  1  0
 14 18  1  0
 15 14  2  0
 17 19  1  0
 17 16  1  6
 18 17  1  0
 19 20  2  0
 19 21  1  0
M  END
$$$$
