IYQ.pdb
     RDKit          3D

 30 30  0  0  1  0  0  0  0  0999 V2000
   12.0308  -21.0143   20.5078 C   0  0  0  0  0  0  0  0  0  0  0  0
   11.0034  -19.9782   20.1409 C   0  0  0  0  0  0  0  0  0  0  0  0
   10.7975  -18.9771   21.2581 C   0  0  2  0  0  0  0  0  0  0  0  0
   10.4388  -19.7294   22.5198 C   0  0  0  0  0  0  0  0  0  0  0  0
    9.7734  -17.9247   20.9057 C   0  0  2  0  0  0  0  0  0  0  0  0
   10.2308  -17.3421   19.6344 N   0  0  0  0  0  0  0  0  0  0  0  0
    9.7217  -16.8328   21.9000 C   0  0  0  0  0  0  0  0  0  0  0  0
   10.7437  -16.0834   22.0733 O   0  0  0  0  0  0  0  0  0  0  0  0
    7.9898  -12.5207   17.9200 O   0  0  0  0  0  0  0  0  0  0  0  0
    7.8601  -12.9909   19.2198 C   0  0  0  0  0  0  0  0  0  0  0  0
    8.6942  -12.5768   20.2386 C   0  0  0  0  0  0  0  0  0  0  0  0
    8.5331  -13.0675   21.5177 C   0  0  0  0  0  0  0  0  0  0  0  0
    7.5523  -13.9811   21.8527 C   0  0  0  0  0  0  0  0  0  0  0  0
    7.3797  -14.5120   23.2181 C   0  0  0  0  0  0  0  0  0  0  0  0
    8.4305  -15.4842   23.6222 C   0  0  2  0  0  0  0  0  0  0  0  0
    8.5648  -16.5803   22.6811 N   0  0  0  0  0  0  0  0  0  0  0  0
    8.1914  -16.0519   24.9564 C   0  0  0  0  0  0  0  0  0  0  0  0
    7.9688  -15.2961   25.9234 O   0  0  0  0  0  0  0  0  0  0  0  0
    6.7199  -14.3842   20.8004 C   0  0  0  0  0  0  0  0  0  0  0  0
    6.8696  -13.9021   19.5178 C   0  0  0  0  0  0  0  0  0  0  0  0
    4.9808  -21.3809   24.7595 N   0  0  0  0  0  0  0  0  0  0  0  0
    6.3202  -21.0900   25.1142 C   0  0  0  0  0  0  0  0  0  0  0  0
    7.1389  -22.0009   25.3157 O   0  0  0  0  0  0  0  0  0  0  0  0
    6.7045  -19.6362   25.2353 C   0  0  0  0  0  0  0  0  0  0  0  0
    7.5808  -19.4238   26.4367 C   0  0  0  0  0  0  0  0  0  0  0  0
    8.0579  -18.0132   26.5075 C   0  0  2  0  0  0  0  0  0  0  0  0
    8.2082  -17.4424   25.1697 N   0  0  0  0  0  0  0  0  0  0  0  0
    9.3568  -17.9430   27.1972 C   0  0  0  0  0  0  0  0  0  0  0  0
   10.4531  -17.4700   26.4428 O   0  0  0  0  0  0  0  0  0  0  0  0
    9.5632  -18.2642   28.3795 O   0  0  0  0  0  0  0  0  0  0  0  0
  2  1  1  0
  3  2  1  0
  3  4  1  1
  5  3  1  0
  5  6  1  6
  7  5  1  0
  7  8  2  0
  9 10  1  0
 10 20  2  0
 11 10  1  0
 11 12  2  0
 12 13  1  0
 13 19  2  0
 13 14  1  0
 15 14  1  6
 15 16  1  0
 16  7  1  0
 17 15  1  0
 18 17  2  0
 20 19  1  0
 22 21  1  0
 22 23  2  0
 24 22  1  0
 25 24  1  0
 26 25  1  6
 26 27  1  0
 27 17  1  0
 28 29  1  0
 28 26  1  0
 30 28  2  0
M  END
$$$$
