IYQ.pdb
     RDKit          3D

 30 30  0  0  1  0  0  0  0  0999 V2000
    9.3340  -16.1904   17.8502 C   0  0  0  0  0  0  0  0  0  0  0  0
    9.1983  -15.0566   18.8299 C   0  0  0  0  0  0  0  0  0  0  0  0
    7.7591  -14.8576   19.2564 C   0  0  2  0  0  0  0  0  0  0  0  0
    6.9113  -14.6662   18.0190 C   0  0  0  0  0  0  0  0  0  0  0  0
    7.6028  -13.7233   20.2411 C   0  0  2  0  0  0  0  0  0  0  0  0
    8.1834  -12.5451   19.5782 N   0  0  0  0  0  0  0  0  0  0  0  0
    8.3634  -13.9498   21.4876 C   0  0  0  0  0  0  0  0  0  0  0  0
    9.5469  -13.4784   21.6033 O   0  0  0  0  0  0  0  0  0  0  0  0
    5.6065  -10.4284   27.4112 O   0  0  0  0  0  0  0  0  0  0  0  0
    6.1121  -11.5784   26.8201 C   0  0  0  0  0  0  0  0  0  0  0  0
    7.4644  -11.8523   26.7817 C   0  0  0  0  0  0  0  0  0  0  0  0
    7.9278  -13.0063   26.1848 C   0  0  0  0  0  0  0  0  0  0  0  0
    7.0902  -13.9378   25.6020 C   0  0  0  0  0  0  0  0  0  0  0  0
    7.5818  -15.1707   24.9584 C   0  0  0  0  0  0  0  0  0  0  0  0
    8.5166  -14.9265   23.8273 C   0  0  2  0  0  0  0  0  0  0  0  0
    7.8232  -14.6807   22.5767 N   0  0  0  0  0  0  0  0  0  0  0  0
    9.4553  -16.0381   23.6206 C   0  0  0  0  0  0  0  0  0  0  0  0
    9.0831  -17.0621   23.0136 O   0  0  0  0  0  0  0  0  0  0  0  0
    5.7233  -13.6353   25.6550 C   0  0  0  0  0  0  0  0  0  0  0  0
    5.2466  -12.4861   26.2483 C   0  0  0  0  0  0  0  0  0  0  0  0
   15.5690  -15.7028   22.9820 N   0  0  0  0  0  0  0  0  0  0  0  0
   15.4616  -17.0985   23.1941 C   0  0  0  0  0  0  0  0  0  0  0  0
   16.4591  -17.8335   23.1200 O   0  0  0  0  0  0  0  0  0  0  0  0
   14.0928  -17.6476   23.5113 C   0  0  0  0  0  0  0  0  0  0  0  0
   13.0771  -16.5412   23.5365 C   0  0  0  0  0  0  0  0  0  0  0  0
   11.7242  -17.0655   23.8794 C   0  0  2  0  0  0  0  0  0  0  0  0
   10.7776  -15.9724   24.0967 N   0  0  0  0  0  0  0  0  0  0  0  0
   11.7841  -17.8854   25.1007 C   0  0  0  0  0  0  0  0  0  0  0  0
   12.5088  -19.0950   25.0204 O   0  0  0  0  0  0  0  0  0  0  0  0
   11.2524  -17.6002   26.1869 O   0  0  0  0  0  0  0  0  0  0  0  0
  2  1  1  0
  3  2  1  0
  3  4  1  6
  5  3  1  0
  5  6  1  6
  7  5  1  0
  7  8  2  0
  9 10  1  0
 10 20  2  0
 11 10  1  0
 11 12  2  0
 12 13  1  0
 13 19  2  0
 13 14  1  0
 15 14  1  1
 15 16  1  0
 16  7  1  0
 17 15  1  0
 18 17  2  0
 20 19  1  0
 22 21  1  0
 22 23  2  0
 24 22  1  0
 25 24  1  0
 26 25  1  1
 26 27  1  0
 27 17  1  0
 28 29  1  0
 28 26  1  0
 30 28  2  0
M  END
$$$$
