IYQ.pdb
     RDKit          3D

 30 30  0  0  1  0  0  0  0  0999 V2000
    6.6470  -12.0038   18.9345 C   0  0  0  0  0  0  0  0  0  0  0  0
    6.7317  -13.3888   19.5161 C   0  0  0  0  0  0  0  0  0  0  0  0
    8.0316  -13.6012   20.2631 C   0  0  2  0  0  0  0  0  0  0  0  0
    9.1793  -13.2482   19.3441 C   0  0  0  0  0  0  0  0  0  0  0  0
    8.1518  -14.9990   20.8219 C   0  0  2  0  0  0  0  0  0  0  0  0
    6.7775  -15.4113   21.1474 N   0  0  0  0  0  0  0  0  0  0  0  0
    8.9349  -15.0404   22.0743 C   0  0  0  0  0  0  0  0  0  0  0  0
   10.2090  -14.9359   22.0299 O   0  0  0  0  0  0  0  0  0  0  0  0
   10.8249  -15.2483   30.7880 O   0  0  0  0  0  0  0  0  0  0  0  0
   10.1947  -15.1128   29.5584 C   0  0  0  0  0  0  0  0  0  0  0  0
   10.1391  -13.9068   28.8892 C   0  0  0  0  0  0  0  0  0  0  0  0
    9.5033  -13.8127   27.6687 C   0  0  0  0  0  0  0  0  0  0  0  0
    8.8970  -14.8911   27.0536 C   0  0  0  0  0  0  0  0  0  0  0  0
    8.2118  -14.7938   25.7509 C   0  0  0  0  0  0  0  0  0  0  0  0
    9.0345  -15.2605   24.6029 C   0  0  2  0  0  0  0  0  0  0  0  0
    8.3185  -15.1937   23.3427 N   0  0  0  0  0  0  0  0  0  0  0  0
    9.5233  -16.6350   24.7804 C   0  0  0  0  0  0  0  0  0  0  0  0
    8.7126  -17.5810   24.8394 O   0  0  0  0  0  0  0  0  0  0  0  0
    8.9682  -16.1024   27.7540 C   0  0  0  0  0  0  0  0  0  0  0  0
    9.6003  -16.2107   28.9741 C   0  0  0  0  0  0  0  0  0  0  0  0
   13.7247  -19.5557   21.3546 N   0  0  0  0  0  0  0  0  0  0  0  0
   13.2177  -18.2962   21.7562 C   0  0  0  0  0  0  0  0  0  0  0  0
   13.7327  -17.2424   21.3502 O   0  0  0  0  0  0  0  0  0  0  0  0
   12.0339  -18.2924   22.6915 C   0  0  0  0  0  0  0  0  0  0  0  0
   12.4748  -18.5892   24.0964 C   0  0  0  0  0  0  0  0  0  0  0  0
   11.3941  -18.2735   25.0737 C   0  0  2  0  0  0  0  0  0  0  0  0
   10.8990  -16.9105   24.8862 N   0  0  0  0  0  0  0  0  0  0  0  0
   11.8918  -18.4074   26.4527 C   0  0  0  0  0  0  0  0  0  0  0  0
   12.2871  -19.6994   26.8641 O   0  0  0  0  0  0  0  0  0  0  0  0
   11.9907  -17.4822   27.2761 O   0  0  0  0  0  0  0  0  0  0  0  0
  2  1  1  0
  3  2  1  0
  3  4  1  6
  5  3  1  0
  5  6  1  1
  7  5  1  0
  7  8  2  0
  9 10  1  0
 10 20  2  0
 11 10  1  0
 11 12  2  0
 12 13  1  0
 13 19  2  0
 13 14  1  0
 15 14  1  1
 15 16  1  0
 16  7  1  0
 17 15  1  0
 18 17  2  0
 20 19  1  0
 22 21  1  0
 22 23  2  0
 24 22  1  0
 25 24  1  0
 26 25  1  6
 26 27  1  0
 27 17  1  0
 28 29  1  0
 28 26  1  0
 30 28  2  0
M  END
$$$$
