IYQ.pdb
     RDKit          3D

 30 30  0  0  1  0  0  0  0  0999 V2000
    7.1615  -11.7944   20.1870 C   0  0  0  0  0  0  0  0  0  0  0  0
    7.4481  -13.1311   20.8152 C   0  0  0  0  0  0  0  0  0  0  0  0
    8.1730  -14.0533   19.8576 C   0  0  2  0  0  0  0  0  0  0  0  0
    7.3747  -14.1427   18.5766 C   0  0  0  0  0  0  0  0  0  0  0  0
    8.4449  -15.4106   20.4613 C   0  0  2  0  0  0  0  0  0  0  0  0
    7.1216  -15.9760   20.7679 N   0  0  0  0  0  0  0  0  0  0  0  0
    9.1941  -15.3228   21.7320 C   0  0  0  0  0  0  0  0  0  0  0  0
   10.4522  -15.0931   21.7123 O   0  0  0  0  0  0  0  0  0  0  0  0
   10.9208  -15.0082   30.4688 O   0  0  0  0  0  0  0  0  0  0  0  0
   10.2869  -15.0521   29.2344 C   0  0  0  0  0  0  0  0  0  0  0  0
    9.7355  -16.2132   28.7314 C   0  0  0  0  0  0  0  0  0  0  0  0
    9.1137  -16.2161   27.5001 C   0  0  0  0  0  0  0  0  0  0  0  0
    9.0057  -15.0868   26.7116 C   0  0  0  0  0  0  0  0  0  0  0  0
    8.3459  -15.0866   25.3923 C   0  0  0  0  0  0  0  0  0  0  0  0
    9.2499  -15.4500   24.2683 C   0  0  2  0  0  0  0  0  0  0  0  0
    8.5618  -15.4860   22.9914 N   0  0  0  0  0  0  0  0  0  0  0  0
    9.9093  -16.7476   24.4708 C   0  0  0  0  0  0  0  0  0  0  0  0
    9.2332  -17.7957   24.4716 O   0  0  0  0  0  0  0  0  0  0  0  0
    9.5734  -13.9226   27.2457 C   0  0  0  0  0  0  0  0  0  0  0  0
   10.1975  -13.9054   28.4746 C   0  0  0  0  0  0  0  0  0  0  0  0
   15.4467  -18.4834   22.6712 N   0  0  0  0  0  0  0  0  0  0  0  0
   14.2830  -18.1623   21.9315 C   0  0  0  0  0  0  0  0  0  0  0  0
   14.3269  -18.0325   20.6978 O   0  0  0  0  0  0  0  0  0  0  0  0
   12.9985  -17.9865   22.7029 C   0  0  0  0  0  0  0  0  0  0  0  0
   13.2278  -18.2345   24.1665 C   0  0  0  0  0  0  0  0  0  0  0  0
   11.9558  -18.1138   24.9347 C   0  0  2  0  0  0  0  0  0  0  0  0
   11.2999  -16.8350   24.6658 N   0  0  0  0  0  0  0  0  0  0  0  0
   12.2160  -18.2139   26.3804 C   0  0  0  0  0  0  0  0  0  0  0  0
   12.8102  -19.4104   26.8387 O   0  0  0  0  0  0  0  0  0  0  0  0
   11.9566  -17.3372   27.2217 O   0  0  0  0  0  0  0  0  0  0  0  0
  2  1  1  0
  3  2  1  0
  3  4  1  6
  5  3  1  0
  5  6  1  1
  7  5  1  0
  7  8  2  0
  9 10  1  0
 10 20  2  0
 11 10  1  0
 11 12  2  0
 12 13  1  0
 13 19  2  0
 13 14  1  0
 15 14  1  1
 15 16  1  0
 16  7  1  0
 17 15  1  0
 18 17  2  0
 20 19  1  0
 22 21  1  0
 22 23  2  0
 24 22  1  0
 25 24  1  0
 26 25  1  6
 26 27  1  0
 27 17  1  0
 28 29  1  0
 28 26  1  0
 30 28  2  0
M  END
$$$$
