IYQ.pdb
     RDKit          3D

 30 30  0  0  1  0  0  0  0  0999 V2000
    9.9131  -18.3788   29.0726 C   0  0  0  0  0  0  0  0  0  0  0  0
    8.5699  -18.1418   28.4376 C   0  0  0  0  0  0  0  0  0  0  0  0
    8.6954  -17.8666   26.9539 C   0  0  2  0  0  0  0  0  0  0  0  0
    9.6477  -16.7087   26.7569 C   0  0  0  0  0  0  0  0  0  0  0  0
    7.3562  -17.6272   26.2982 C   0  0  2  0  0  0  0  0  0  0  0  0
    6.6057  -18.8811   26.4691 N   0  0  0  0  0  0  0  0  0  0  0  0
    7.4755  -17.3769   24.8468 C   0  0  0  0  0  0  0  0  0  0  0  0
    7.6183  -18.3613   24.0427 O   0  0  0  0  0  0  0  0  0  0  0  0
    8.2623  -12.8742   17.1600 O   0  0  0  0  0  0  0  0  0  0  0  0
    8.0698  -13.2393   18.4856 C   0  0  0  0  0  0  0  0  0  0  0  0
    7.2018  -14.2479   18.8522 C   0  0  0  0  0  0  0  0  0  0  0  0
    7.0379  -14.5813   20.1807 C   0  0  0  0  0  0  0  0  0  0  0  0
    7.7141  -13.9438   21.2030 C   0  0  0  0  0  0  0  0  0  0  0  0
    7.5381  -14.2939   22.6251 C   0  0  0  0  0  0  0  0  0  0  0  0
    7.6620  -15.7495   22.9055 C   0  0  2  0  0  0  0  0  0  0  0  0
    7.4373  -16.0671   24.3032 N   0  0  0  0  0  0  0  0  0  0  0  0
    8.9724  -16.2897   22.5172 C   0  0  0  0  0  0  0  0  0  0  0  0
    9.0491  -17.4179   21.9910 O   0  0  0  0  0  0  0  0  0  0  0  0
    8.5883  -12.9246   20.8033 C   0  0  0  0  0  0  0  0  0  0  0  0
    8.7617  -12.5812   19.4797 C   0  0  0  0  0  0  0  0  0  0  0  0
   13.0144  -13.9854   18.8643 N   0  0  0  0  0  0  0  0  0  0  0  0
   13.5179  -15.2279   19.3198 C   0  0  0  0  0  0  0  0  0  0  0  0
   14.0475  -16.0286   18.5330 O   0  0  0  0  0  0  0  0  0  0  0  0
   13.3832  -15.5323   20.7912 C   0  0  0  0  0  0  0  0  0  0  0  0
   12.0636  -15.0370   21.3104 C   0  0  0  0  0  0  0  0  0  0  0  0
   11.4470  -16.0295   22.2363 C   0  0  2  0  0  0  0  0  0  0  0  0
   10.1540  -15.5557   22.7279 N   0  0  0  0  0  0  0  0  0  0  0  0
   12.3280  -16.2735   23.3904 C   0  0  0  0  0  0  0  0  0  0  0  0
   13.5750  -16.8799   23.1221 O   0  0  0  0  0  0  0  0  0  0  0  0
   12.0638  -15.9910   24.5711 O   0  0  0  0  0  0  0  0  0  0  0  0
  2  1  1  0
  3  2  1  0
  3  4  1  1
  5  3  1  0
  5  6  1  6
  7  5  1  0
  7  8  2  0
  9 10  1  0
 10 20  2  0
 11 10  1  0
 11 12  2  0
 12 13  1  0
 13 19  2  0
 13 14  1  0
 15 14  1  1
 15 16  1  0
 16  7  1  0
 17 15  1  0
 18 17  2  0
 20 19  1  0
 22 21  1  0
 22 23  2  0
 24 22  1  0
 25 24  1  0
 26 25  1  6
 26 27  1  0
 27 17  1  0
 28 29  1  0
 28 26  1  0
 30 28  2  0
M  END
$$$$
