IYQ.pdb
     RDKit          3D

 30 30  0  0  1  0  0  0  0  0999 V2000
    8.3598  -16.5565   16.1236 C   0  0  0  0  0  0  0  0  0  0  0  0
    7.6466  -15.6605   17.0994 C   0  0  0  0  0  0  0  0  0  0  0  0
    8.3382  -15.6404   18.4462 C   0  0  2  0  0  0  0  0  0  0  0  0
    8.4668  -17.0625   18.9437 C   0  0  0  0  0  0  0  0  0  0  0  0
    7.6365  -14.7452   19.4396 C   0  0  2  0  0  0  0  0  0  0  0  0
    7.7482  -13.3851   18.8898 N   0  0  0  0  0  0  0  0  0  0  0  0
    8.2963  -14.7439   20.7619 C   0  0  0  0  0  0  0  0  0  0  0  0
    9.4663  -14.2424   20.8867 O   0  0  0  0  0  0  0  0  0  0  0  0
    7.0480  -10.8531   27.8550 O   0  0  0  0  0  0  0  0  0  0  0  0
    7.0505  -11.9324   26.9818 C   0  0  0  0  0  0  0  0  0  0  0  0
    5.9384  -12.2841   26.2437 C   0  0  0  0  0  0  0  0  0  0  0  0
    5.9807  -13.3638   25.3863 C   0  0  0  0  0  0  0  0  0  0  0  0
    7.1092  -14.1425   25.2156 C   0  0  0  0  0  0  0  0  0  0  0  0
    7.1572  -15.3008   24.3035 C   0  0  0  0  0  0  0  0  0  0  0  0
    8.2117  -15.2000   23.2592 C   0  0  2  0  0  0  0  0  0  0  0  0
    7.6723  -15.2855   21.9150 N   0  0  0  0  0  0  0  0  0  0  0  0
    9.2494  -16.2305   23.4034 C   0  0  0  0  0  0  0  0  0  0  0  0
    8.9988  -17.4132   23.0965 O   0  0  0  0  0  0  0  0  0  0  0  0
    8.2231  -13.7636   25.9762 C   0  0  0  0  0  0  0  0  0  0  0  0
    8.1948  -12.6872   26.8366 C   0  0  0  0  0  0  0  0  0  0  0  0
   16.4204  -17.7493   23.3690 N   0  0  0  0  0  0  0  0  0  0  0  0
   15.3173  -16.8617   23.3768 C   0  0  0  0  0  0  0  0  0  0  0  0
   15.4573  -15.6675   23.0689 O   0  0  0  0  0  0  0  0  0  0  0  0
   13.9759  -17.4275   23.7726 C   0  0  0  0  0  0  0  0  0  0  0  0
   12.8962  -16.4014   23.5782 C   0  0  0  0  0  0  0  0  0  0  0  0
   11.5737  -16.9266   24.0230 C   0  0  2  0  0  0  0  0  0  0  0  0
   10.5320  -15.9098   23.8846 N   0  0  0  0  0  0  0  0  0  0  0  0
   11.6347  -17.3484   25.4322 C   0  0  0  0  0  0  0  0  0  0  0  0
   12.4115  -18.4919   25.7212 O   0  0  0  0  0  0  0  0  0  0  0  0
   11.0620  -16.7833   26.3790 O   0  0  0  0  0  0  0  0  0  0  0  0
  2  1  1  0
  3  2  1  0
  3  4  1  1
  5  3  1  0
  5  6  1  6
  7  5  1  0
  7  8  2  0
  9 10  1  0
 10 20  2  0
 11 10  1  0
 11 12  2  0
 12 13  1  0
 13 19  2  0
 13 14  1  0
 15 14  1  1
 15 16  1  0
 16  7  1  0
 17 15  1  0
 18 17  2  0
 20 19  1  0
 22 21  1  0
 22 23  2  0
 24 22  1  0
 25 24  1  0
 26 25  1  1
 26 27  1  0
 27 17  1  0
 28 29  1  0
 28 26  1  0
 30 28  2  0
M  END
$$$$
