IYQ.pdb
     RDKit          3D

 30 30  0  0  1  0  0  0  0  0999 V2000
    6.3831  -11.6537   27.6799 C   0  0  0  0  0  0  0  0  0  0  0  0
    5.8634  -12.7180   26.7520 C   0  0  0  0  0  0  0  0  0  0  0  0
    6.9913  -13.5106   26.1254 C   0  0  2  0  0  0  0  0  0  0  0  0
    8.0942  -12.5531   25.7338 C   0  0  0  0  0  0  0  0  0  0  0  0
    6.5244  -14.3553   24.9639 C   0  0  2  0  0  0  0  0  0  0  0  0
    5.5812  -15.3269   25.5393 N   0  0  0  0  0  0  0  0  0  0  0  0
    7.6261  -15.1210   24.3446 C   0  0  0  0  0  0  0  0  0  0  0  0
    7.9064  -16.2918   24.7767 O   0  0  0  0  0  0  0  0  0  0  0  0
    5.8620  -14.2675   17.3974 O   0  0  0  0  0  0  0  0  0  0  0  0
    6.8525  -14.3839   18.3633 C   0  0  0  0  0  0  0  0  0  0  0  0
    7.3121  -15.6094   18.8018 C   0  0  0  0  0  0  0  0  0  0  0  0
    8.2980  -15.6833   19.7637 C   0  0  0  0  0  0  0  0  0  0  0  0
    8.8738  -14.5651   20.3353 C   0  0  0  0  0  0  0  0  0  0  0  0
    9.9248  -14.6397   21.3676 C   0  0  0  0  0  0  0  0  0  0  0  0
    9.4864  -15.3032   22.6248 C   0  0  2  0  0  0  0  0  0  0  0  0
    8.3959  -14.5994   23.2733 N   0  0  0  0  0  0  0  0  0  0  0  0
   10.5792  -15.4507   23.5961 C   0  0  0  0  0  0  0  0  0  0  0  0
   10.5584  -14.7994   24.6597 O   0  0  0  0  0  0  0  0  0  0  0  0
    8.3892  -13.3347   19.8724 C   0  0  0  0  0  0  0  0  0  0  0  0
    7.4046  -13.2462   18.9118 C   0  0  0  0  0  0  0  0  0  0  0  0
    9.5539  -19.4137   26.4724 N   0  0  0  0  0  0  0  0  0  0  0  0
   10.3325  -18.5627   27.2935 C   0  0  0  0  0  0  0  0  0  0  0  0
   10.1731  -18.5432   28.5243 O   0  0  0  0  0  0  0  0  0  0  0  0
   11.3555  -17.6884   26.6116 C   0  0  0  0  0  0  0  0  0  0  0  0
   11.3674  -17.9512   25.1327 C   0  0  0  0  0  0  0  0  0  0  0  0
   12.3212  -17.0415   24.4359 C   0  0  2  0  0  0  0  0  0  0  0  0
   11.6590  -16.3186   23.3510 N   0  0  0  0  0  0  0  0  0  0  0  0
   13.4453  -17.8075   23.8730 C   0  0  0  0  0  0  0  0  0  0  0  0
   13.3813  -18.1123   22.4954 O   0  0  0  0  0  0  0  0  0  0  0  0
   14.4370  -18.2039   24.5080 O   0  0  0  0  0  0  0  0  0  0  0  0
  2  1  1  0
  3  2  1  0
  3  4  1  6
  5  3  1  0
  5  6  1  1
  7  5  1  0
  7  8  2  0
  9 10  1  0
 10 20  2  0
 11 10  1  0
 11 12  2  0
 12 13  1  0
 13 19  2  0
 13 14  1  0
 15 14  1  6
 15 16  1  0
 16  7  1  0
 17 15  1  0
 18 17  2  0
 20 19  1  0
 22 21  1  0
 22 23  2  0
 24 22  1  0
 25 24  1  0
 26 25  1  6
 26 27  1  0
 27 17  1  0
 28 29  1  0
 28 26  1  0
 30 28  2  0
M  END
$$$$
