IYQ.pdb
     RDKit          3D

 30 30  0  0  1  0  0  0  0  0999 V2000
   10.7449  -21.3294   19.8918 C   0  0  0  0  0  0  0  0  0  0  0  0
   10.1724  -20.0056   19.4634 C   0  0  0  0  0  0  0  0  0  0  0  0
    9.9245  -19.0957   20.6481 C   0  0  2  0  0  0  0  0  0  0  0  0
    8.9565  -19.7794   21.5873 C   0  0  0  0  0  0  0  0  0  0  0  0
    9.4486  -17.7247   20.2304 C   0  0  2  0  0  0  0  0  0  0  0  0
   10.3869  -17.2848   19.1860 N   0  0  0  0  0  0  0  0  0  0  0  0
    9.5205  -16.7428   21.3324 C   0  0  0  0  0  0  0  0  0  0  0  0
   10.6595  -16.3949   21.7991 O   0  0  0  0  0  0  0  0  0  0  0  0
    6.7850  -11.0703   27.6585 O   0  0  0  0  0  0  0  0  0  0  0  0
    6.8399  -11.9154   26.5584 C   0  0  0  0  0  0  0  0  0  0  0  0
    6.2453  -13.1611   26.5572 C   0  0  0  0  0  0  0  0  0  0  0  0
    6.3221  -13.9718   25.4439 C   0  0  0  0  0  0  0  0  0  0  0  0
    6.9819  -13.5992   24.2886 C   0  0  0  0  0  0  0  0  0  0  0  0
    7.0706  -14.4650   23.0977 C   0  0  0  0  0  0  0  0  0  0  0  0
    8.3651  -15.1874   22.9749 C   0  0  2  0  0  0  0  0  0  0  0  0
    8.3574  -16.1628   21.9008 N   0  0  0  0  0  0  0  0  0  0  0  0
    8.7481  -15.8748   24.2160 C   0  0  0  0  0  0  0  0  0  0  0  0
    9.4640  -15.2918   25.0547 O   0  0  0  0  0  0  0  0  0  0  0  0
    7.5760  -12.3307   24.3167 C   0  0  0  0  0  0  0  0  0  0  0  0
    7.5070  -11.5104   25.4221 C   0  0  0  0  0  0  0  0  0  0  0  0
    5.8653  -20.7935   26.9287 N   0  0  0  0  0  0  0  0  0  0  0  0
    6.9642  -21.2453   26.1586 C   0  0  0  0  0  0  0  0  0  0  0  0
    7.1143  -22.4516   25.9078 O   0  0  0  0  0  0  0  0  0  0  0  0
    7.9360  -20.2041   25.6611 C   0  0  0  0  0  0  0  0  0  0  0  0
    7.4906  -18.8307   26.0756 C   0  0  0  0  0  0  0  0  0  0  0  0
    8.5438  -17.8166   25.7838 C   0  0  2  0  0  0  0  0  0  0  0  0
    8.3211  -17.1886   24.4822 N   0  0  0  0  0  0  0  0  0  0  0  0
    9.8758  -18.4438   25.7814 C   0  0  0  0  0  0  0  0  0  0  0  0
   10.4215  -18.7834   27.0390 O   0  0  0  0  0  0  0  0  0  0  0  0
   10.5519  -18.6955   24.7699 O   0  0  0  0  0  0  0  0  0  0  0  0
  2  1  1  0
  3  2  1  0
  3  4  1  1
  5  3  1  0
  5  6  1  6
  7  5  1  0
  7  8  2  0
  9 10  1  0
 10 20  2  0
 11 10  1  0
 11 12  2  0
 12 13  1  0
 13 19  2  0
 13 14  1  0
 15 14  1  1
 15 16  1  0
 16  7  1  0
 17 15  1  0
 18 17  2  0
 20 19  1  0
 22 21  1  0
 22 23  2  0
 24 22  1  0
 25 24  1  0
 26 25  1  6
 26 27  1  0
 27 17  1  0
 28 29  1  0
 28 26  1  0
 30 28  2  0
M  END
$$$$
