IYQ.pdb
     RDKit          3D

 30 30  0  0  1  0  0  0  0  0999 V2000
    7.5153  -12.1632   17.7148 C   0  0  0  0  0  0  0  0  0  0  0  0
    7.1911  -13.3145   18.6275 C   0  0  0  0  0  0  0  0  0  0  0  0
    8.4006  -13.7488   19.4284 C   0  0  2  0  0  0  0  0  0  0  0  0
    9.5423  -14.0132   18.4728 C   0  0  0  0  0  0  0  0  0  0  0  0
    8.1070  -14.9354   20.3153 C   0  0  2  0  0  0  0  0  0  0  0  0
    6.8490  -14.6084   21.0047 N   0  0  0  0  0  0  0  0  0  0  0  0
    9.1412  -15.1343   21.3518 C   0  0  0  0  0  0  0  0  0  0  0  0
    9.3807  -14.2038   22.1962 O   0  0  0  0  0  0  0  0  0  0  0  0
    6.7106  -14.2974   26.6735 O   0  0  0  0  0  0  0  0  0  0  0  0
    7.6121  -15.0426   25.9255 C   0  0  0  0  0  0  0  0  0  0  0  0
    7.2885  -16.2773   25.4002 C   0  0  0  0  0  0  0  0  0  0  0  0
    8.2124  -16.9874   24.6620 C   0  0  0  0  0  0  0  0  0  0  0  0
    9.4877  -16.5208   24.4075 C   0  0  0  0  0  0  0  0  0  0  0  0
   10.4803  -17.2790   23.6228 C   0  0  0  0  0  0  0  0  0  0  0  0
   10.9543  -16.5675   22.4055 C   0  0  2  0  0  0  0  0  0  0  0  0
    9.8897  -16.3355   21.4475 N   0  0  0  0  0  0  0  0  0  0  0  0
   12.0401  -17.2827   21.7204 C   0  0  0  0  0  0  0  0  0  0  0  0
   11.7792  -18.0457   20.7688 O   0  0  0  0  0  0  0  0  0  0  0  0
    9.7897  -15.2657   24.9519 C   0  0  0  0  0  0  0  0  0  0  0  0
    8.8763  -14.5454   25.6914 C   0  0  0  0  0  0  0  0  0  0  0  0
   15.3591  -15.1501   17.6687 N   0  0  0  0  0  0  0  0  0  0  0  0
   15.3914  -14.3629   18.8452 C   0  0  0  0  0  0  0  0  0  0  0  0
   15.5201  -13.1299   18.7843 O   0  0  0  0  0  0  0  0  0  0  0  0
   15.2634  -15.0835   20.1643 C   0  0  0  0  0  0  0  0  0  0  0  0
   14.2889  -16.2207   20.0481 C   0  0  0  0  0  0  0  0  0  0  0  0
   14.4781  -17.2018   21.1547 C   0  0  2  0  0  0  0  0  0  0  0  0
   13.3804  -17.1244   22.1177 N   0  0  0  0  0  0  0  0  0  0  0  0
   15.7431  -16.9426   21.8619 C   0  0  0  0  0  0  0  0  0  0  0  0
   15.8442  -15.7170   22.5566 O   0  0  0  0  0  0  0  0  0  0  0  0
   16.7200  -17.7094   21.8957 O   0  0  0  0  0  0  0  0  0  0  0  0
  2  1  1  0
  3  2  1  0
  3  4  1  6
  5  3  1  0
  5  6  1  1
  7  5  1  0
  7  8  2  0
  9 10  1  0
 10 20  2  0
 11 10  1  0
 11 12  2  0
 12 13  1  0
 13 19  2  0
 13 14  1  0
 15 14  1  1
 15 16  1  0
 16  7  1  0
 17 15  1  0
 18 17  2  0
 20 19  1  0
 22 21  1  0
 22 23  2  0
 24 22  1  0
 25 24  1  0
 26 25  1  6
 26 27  1  0
 27 17  1  0
 28 29  1  0
 28 26  1  0
 30 28  2  0
M  END
$$$$
