IYQ.pdb
     RDKit          3D

 30 30  0  0  1  0  0  0  0  0999 V2000
    8.2731  -20.9498   26.7243 C   0  0  0  0  0  0  0  0  0  0  0  0
    7.8455  -20.8865   25.2832 C   0  0  0  0  0  0  0  0  0  0  0  0
    6.3501  -20.6874   25.1536 C   0  0  2  0  0  0  0  0  0  0  0  0
    5.6490  -21.8345   25.8459 C   0  0  0  0  0  0  0  0  0  0  0  0
    5.9134  -20.5303   23.7165 C   0  0  2  0  0  0  0  0  0  0  0  0
    6.2329  -21.8111   23.0668 N   0  0  0  0  0  0  0  0  0  0  0  0
    6.6684  -19.4748   23.0099 C   0  0  0  0  0  0  0  0  0  0  0  0
    7.7788  -19.7604   22.4427 O   0  0  0  0  0  0  0  0  0  0  0  0
    8.8185  -11.7008   19.2906 O   0  0  0  0  0  0  0  0  0  0  0  0
    8.1510  -12.7003   19.9856 C   0  0  0  0  0  0  0  0  0  0  0  0
    7.7915  -12.5605   21.3110 C   0  0  0  0  0  0  0  0  0  0  0  0
    7.1289  -13.5770   21.9670 C   0  0  0  0  0  0  0  0  0  0  0  0
    6.7913  -14.7693   21.3559 C   0  0  0  0  0  0  0  0  0  0  0  0
    6.0871  -15.8607   22.0550 C   0  0  0  0  0  0  0  0  0  0  0  0
    6.9474  -17.0370   22.3532 C   0  0  2  0  0  0  0  0  0  0  0  0
    6.2020  -18.1372   22.9355 N   0  0  0  0  0  0  0  0  0  0  0  0
    8.0602  -16.7086   23.2551 C   0  0  0  0  0  0  0  0  0  0  0  0
    7.8272  -16.3654   24.4314 O   0  0  0  0  0  0  0  0  0  0  0  0
    7.1676  -14.8847   20.0113 C   0  0  0  0  0  0  0  0  0  0  0  0
    7.8300  -13.8771   19.3436 C   0  0  0  0  0  0  0  0  0  0  0  0
   12.4026  -18.1338   27.8595 N   0  0  0  0  0  0  0  0  0  0  0  0
   12.1615  -18.4586   26.5026 C   0  0  0  0  0  0  0  0  0  0  0  0
   12.1416  -19.6404   26.1235 O   0  0  0  0  0  0  0  0  0  0  0  0
   11.9320  -17.3143   25.5468 C   0  0  0  0  0  0  0  0  0  0  0  0
   10.7481  -17.5962   24.6663 C   0  0  0  0  0  0  0  0  0  0  0  0
   10.5104  -16.4734   23.7147 C   0  0  2  0  0  0  0  0  0  0  0  0
    9.3957  -16.7734   22.8172 N   0  0  0  0  0  0  0  0  0  0  0  0
   11.7130  -16.2230   22.9031 C   0  0  0  0  0  0  0  0  0  0  0  0
   12.8658  -15.7855   23.5918 O   0  0  0  0  0  0  0  0  0  0  0  0
   11.7935  -16.3647   21.6714 O   0  0  0  0  0  0  0  0  0  0  0  0
  2  1  1  0
  3  2  1  0
  3  4  1  6
  5  3  1  0
  5  6  1  6
  7  5  1  0
  7  8  2  0
  9 10  1  0
 10 20  2  0
 11 10  1  0
 11 12  2  0
 12 13  1  0
 13 19  2  0
 13 14  1  0
 15 14  1  1
 15 16  1  0
 16  7  1  0
 17 15  1  0
 18 17  2  0
 20 19  1  0
 22 21  1  0
 22 23  2  0
 24 22  1  0
 25 24  1  0
 26 25  1  1
 26 27  1  0
 27 17  1  0
 28 29  1  0
 28 26  1  0
 30 28  2  0
M  END
$$$$
