IYQ.pdb
     RDKit          3D

 30 30  0  0  1  0  0  0  0  0999 V2000
    2.3565  -20.5261   21.8757 C   0  0  0  0  0  0  0  0  0  0  0  0
    3.0975  -19.4636   21.1104 C   0  0  0  0  0  0  0  0  0  0  0  0
    4.3028  -18.9621   21.8776 C   0  0  2  0  0  0  0  0  0  0  0  0
    3.8508  -18.5209   23.2514 C   0  0  0  0  0  0  0  0  0  0  0  0
    5.0422  -17.8724   21.1384 C   0  0  2  0  0  0  0  0  0  0  0  0
    5.4388  -18.4691   19.8533 N   0  0  0  0  0  0  0  0  0  0  0  0
    6.2781  -17.4575   21.8340 C   0  0  0  0  0  0  0  0  0  0  0  0
    7.3161  -18.2033   21.7828 O   0  0  0  0  0  0  0  0  0  0  0  0
    8.6080  -12.8177   17.5384 O   0  0  0  0  0  0  0  0  0  0  0  0
    8.3722  -13.1701   18.8604 C   0  0  0  0  0  0  0  0  0  0  0  0
    7.1055  -13.1632   19.4089 C   0  0  0  0  0  0  0  0  0  0  0  0
    6.9121  -13.5201   20.7272 C   0  0  0  0  0  0  0  0  0  0  0  0
    7.9465  -13.8973   21.5618 C   0  0  0  0  0  0  0  0  0  0  0  0
    7.7447  -14.2749   22.9733 C   0  0  0  0  0  0  0  0  0  0  0  0
    7.5686  -15.7367   23.1851 C   0  0  2  0  0  0  0  0  0  0  0  0
    6.3586  -16.2458   22.5673 N   0  0  0  0  0  0  0  0  0  0  0  0
    7.5458  -16.1024   24.6083 C   0  0  0  0  0  0  0  0  0  0  0  0
    6.4602  -16.1526   25.2205 O   0  0  0  0  0  0  0  0  0  0  0  0
    9.2210  -13.8956   20.9800 C   0  0  0  0  0  0  0  0  0  0  0  0
    9.4287  -13.5414   19.6642 C   0  0  0  0  0  0  0  0  0  0  0  0
    7.6171  -21.2791   25.7196 N   0  0  0  0  0  0  0  0  0  0  0  0
    6.9399  -20.6530   26.7938 C   0  0  0  0  0  0  0  0  0  0  0  0
    6.1217  -21.2808   27.4845 O   0  0  0  0  0  0  0  0  0  0  0  0
    7.2544  -19.2016   27.0590 C   0  0  0  0  0  0  0  0  0  0  0  0
    8.1785  -18.6641   26.0038 C   0  0  0  0  0  0  0  0  0  0  0  0
    8.7512  -17.3502   26.4139 C   0  0  2  0  0  0  0  0  0  0  0  0
    8.7327  -16.4000   25.3026 N   0  0  0  0  0  0  0  0  0  0  0  0
   10.1417  -17.5142   26.8690 C   0  0  0  0  0  0  0  0  0  0  0  0
   11.1537  -17.3359   25.9001 O   0  0  0  0  0  0  0  0  0  0  0  0
   10.4925  -17.7948   28.0274 O   0  0  0  0  0  0  0  0  0  0  0  0
  2  1  1  0
  3  2  1  0
  3  4  1  1
  5  3  1  0
  5  6  1  6
  7  5  1  0
  7  8  2  0
  9 10  1  0
 10 20  2  0
 11 10  1  0
 11 12  2  0
 12 13  1  0
 13 19  2  0
 13 14  1  0
 15 14  1  1
 15 16  1  0
 16  7  1  0
 17 15  1  0
 18 17  2  0
 20 19  1  0
 22 21  1  0
 22 23  2  0
 24 22  1  0
 25 24  1  0
 26 25  1  6
 26 27  1  0
 27 17  1  0
 28 29  1  0
 28 26  1  0
 30 28  2  0
M  END
$$$$
