IYQ.pdb
     RDKit          3D

 30 30  0  0  1  0  0  0  0  0999 V2000
    7.5110  -12.0715   20.1651 C   0  0  0  0  0  0  0  0  0  0  0  0
    7.5880  -13.4515   20.7597 C   0  0  0  0  0  0  0  0  0  0  0  0
    8.4446  -14.3740   19.9183 C   0  0  2  0  0  0  0  0  0  0  0  0
    7.8290  -14.4814   18.5413 C   0  0  0  0  0  0  0  0  0  0  0  0
    8.6433  -15.7238   20.5658 C   0  0  2  0  0  0  0  0  0  0  0  0
    7.2985  -16.3117   20.6685 N   0  0  0  0  0  0  0  0  0  0  0  0
    9.1860  -15.6175   21.9361 C   0  0  0  0  0  0  0  0  0  0  0  0
   10.3703  -15.1691   22.1166 O   0  0  0  0  0  0  0  0  0  0  0  0
    6.1387  -10.6144   26.7036 O   0  0  0  0  0  0  0  0  0  0  0  0
    6.5756  -11.8976   26.4037 C   0  0  0  0  0  0  0  0  0  0  0  0
    7.8957  -12.2765   26.5421 C   0  0  0  0  0  0  0  0  0  0  0  0
    8.2907  -13.5616   26.2336 C   0  0  0  0  0  0  0  0  0  0  0  0
    7.4136  -14.5270   25.7781 C   0  0  0  0  0  0  0  0  0  0  0  0
    7.8327  -15.9009   25.4425 C   0  0  0  0  0  0  0  0  0  0  0  0
    8.9286  -15.9667   24.4389 C   0  0  2  0  0  0  0  0  0  0  0  0
    8.4325  -15.9993   23.0758 N   0  0  0  0  0  0  0  0  0  0  0  0
    9.8055  -17.1294   24.6358 C   0  0  0  0  0  0  0  0  0  0  0  0
    9.3389  -18.2827   24.5477 O   0  0  0  0  0  0  0  0  0  0  0  0
    6.0807  -14.1161   25.6470 C   0  0  0  0  0  0  0  0  0  0  0  0
    5.6722  -12.8355   25.9516 C   0  0  0  0  0  0  0  0  0  0  0  0
   15.2851  -15.7904   24.2812 N   0  0  0  0  0  0  0  0  0  0  0  0
   14.8682  -16.5632   23.1705 C   0  0  0  0  0  0  0  0  0  0  0  0
   15.2936  -16.3218   22.0297 O   0  0  0  0  0  0  0  0  0  0  0  0
   13.8925  -17.6834   23.4333 C   0  0  0  0  0  0  0  0  0  0  0  0
   13.4939  -17.7025   24.8814 C   0  0  0  0  0  0  0  0  0  0  0  0
   12.0707  -18.1180   25.0385 C   0  0  2  0  0  0  0  0  0  0  0  0
   11.1732  -16.9692   24.9243 N   0  0  0  0  0  0  0  0  0  0  0  0
   11.8608  -18.7498   26.3516 C   0  0  0  0  0  0  0  0  0  0  0  0
   11.7378  -17.8852   27.4616 O   0  0  0  0  0  0  0  0  0  0  0  0
   11.7841  -19.9724   26.5590 O   0  0  0  0  0  0  0  0  0  0  0  0
  2  1  1  0
  3  2  1  0
  3  4  1  6
  5  3  1  0
  5  6  1  1
  7  5  1  0
  7  8  2  0
  9 10  1  0
 10 20  2  0
 11 10  1  0
 11 12  2  0
 12 13  1  0
 13 19  2  0
 13 14  1  0
 15 14  1  1
 15 16  1  0
 16  7  1  0
 17 15  1  0
 18 17  2  0
 20 19  1  0
 22 21  1  0
 22 23  2  0
 24 22  1  0
 25 24  1  0
 26 25  1  1
 26 27  1  0
 27 17  1  0
 28 29  1  0
 28 26  1  0
 30 28  2  0
M  END
$$$$
