TPL.pdb
     RDKit          3D

 23 23  0  0  1  0  0  0  0  0999 V2000
   24.9664  -14.7990  -20.3581 C   0  0  0  0  0  0  0  0  0  0  0  0
   24.5928  -13.7383  -19.3503 C   0  0  1  0  0  0  0  0  0  0  0  0
   23.2445  -13.5824  -19.3572 O   0  0  0  0  0  0  0  0  0  0  0  0
   25.2307  -14.0024  -18.0027 C   0  0  2  0  0  0  0  0  0  0  0  0
   24.7645  -15.3521  -17.6251 N   0  0  0  0  0  0  0  0  0  0  0  0
   24.8341  -13.0587  -16.9600 C   0  0  0  0  0  0  0  0  0  0  0  0
   23.9328  -13.4620  -16.1441 O   0  0  0  0  0  0  0  0  0  0  0  0
   25.3595  -11.7655  -16.7874 N   0  0  0  0  0  0  0  0  0  0  0  0
   26.4583  -11.2332  -17.6140 C   0  0  0  0  0  0  0  0  0  0  0  0
   27.3626  -10.6836  -16.5051 C   0  0  0  0  0  0  0  0  0  0  0  0
   26.4178  -10.2516  -15.4096 C   0  0  0  0  0  0  0  0  0  0  0  0
   25.0770  -10.6846  -15.8917 C   0  0  1  0  0  0  0  0  0  0  0  0
   24.2504   -9.6142  -16.4891 C   0  0  0  0  0  0  0  0  0  0  0  0
   24.4057   -9.3877  -17.7171 O   0  0  0  0  0  0  0  0  0  0  0  0
   18.9208  -10.0615  -17.4263 C   0  0  0  0  0  0  0  0  0  0  0  0
   19.8970   -8.9351  -17.3622 C   0  0  1  0  0  0  0  0  0  0  0  0
   19.1305   -7.7137  -16.8666 C   0  0  0  0  0  0  0  0  0  0  0  0
   21.1480   -9.1720  -16.6455 C   0  0  0  0  0  0  0  0  0  0  0  0
   22.1968   -8.1284  -16.5276 C   0  0  2  0  0  0  0  0  0  0  0  0
   23.3037   -8.8257  -15.7988 N   0  0  0  0  0  0  0  0  0  0  0  0
   21.9003   -6.8732  -15.8731 C   0  0  0  0  0  0  0  0  0  0  0  0
   22.0409   -6.7691  -14.5863 O   0  0  0  0  0  0  0  0  0  0  0  0
   21.4689   -5.6947  -16.4546 O   0  0  0  0  0  0  0  0  0  0  0  0
  2  1  1  6
  2  3  1  0
  4  2  1  0
  4  5  1  1
  6  8  1  0
  6  4  1  0
  7  6  2  0
  8 12  1  0
  9 10  1  0
  9  8  1  0
 10 11  1  0
 12 11  1  0
 12 13  1  6
 13 20  1  0
 14 13  2  0
 16 15  1  1
 16 17  1  0
 18 16  1  0
 19 21  1  0
 19 20  1  0
 19 18  1  1
 21 23  1  0
 22 21  2  0
M  END
$$$$
