TPL.pdb
     RDKit          3D

 23 23  0  0  1  0  0  0  0  0999 V2000
   23.2617  -19.6972  -13.4455 C   0  0  0  0  0  0  0  0  0  0  0  0
   23.1771  -21.0273  -14.1554 C   0  0  1  0  0  0  0  0  0  0  0  0
   22.1076  -21.0112  -14.9909 O   0  0  0  0  0  0  0  0  0  0  0  0
   24.5047  -21.4137  -14.7727 C   0  0  2  0  0  0  0  0  0  0  0  0
   24.1963  -22.5788  -15.6267 N   0  0  0  0  0  0  0  0  0  0  0  0
   25.5246  -21.7998  -13.8002 C   0  0  0  0  0  0  0  0  0  0  0  0
   25.5540  -23.0376  -13.4715 O   0  0  0  0  0  0  0  0  0  0  0  0
   26.4599  -20.9308  -13.2104 N   0  0  0  0  0  0  0  0  0  0  0  0
   26.5456  -19.4990  -13.5519 C   0  0  0  0  0  0  0  0  0  0  0  0
   28.0570  -19.3858  -13.7807 C   0  0  0  0  0  0  0  0  0  0  0  0
   28.6704  -20.3950  -12.8402 C   0  0  0  0  0  0  0  0  0  0  0  0
   27.5003  -21.0935  -12.2399 C   0  0  1  0  0  0  0  0  0  0  0  0
   27.1279  -20.6392  -10.8832 C   0  0  0  0  0  0  0  0  0  0  0  0
   26.1954  -19.7988  -10.7957 O   0  0  0  0  0  0  0  0  0  0  0  0
   28.7981  -20.1497   -5.0533 C   0  0  0  0  0  0  0  0  0  0  0  0
   27.6709  -20.4470   -5.9844 C   0  0  1  0  0  0  0  0  0  0  0  0
   26.6410  -19.3378   -5.7998 C   0  0  0  0  0  0  0  0  0  0  0  0
   28.0069  -20.7075   -7.3823 C   0  0  0  0  0  0  0  0  0  0  0  0
   26.9727  -21.0575   -8.3877 C   0  0  2  0  0  0  0  0  0  0  0  0
   27.7301  -21.0674   -9.6796 N   0  0  0  0  0  0  0  0  0  0  0  0
   25.7889  -20.2379   -8.5257 C   0  0  0  0  0  0  0  0  0  0  0  0
   25.8935  -19.0285   -8.9871 O   0  0  0  0  0  0  0  0  0  0  0  0
   24.4823  -20.5780   -8.2257 O   0  0  0  0  0  0  0  0  0  0  0  0
  2  1  1  6
  2  3  1  0
  4  2  1  0
  4  5  1  6
  6  8  1  0
  6  4  1  0
  7  6  2  0
  8 12  1  0
  9 10  1  0
  9  8  1  0
 10 11  1  0
 12 11  1  0
 12 13  1  1
 13 20  1  0
 14 13  2  0
 16 15  1  1
 16 17  1  0
 18 16  1  0
 19 21  1  0
 19 20  1  0
 19 18  1  1
 21 23  1  0
 22 21  2  0
M  END
$$$$
