TPL.pdb
     RDKit          3D

 23 23  0  0  1  0  0  0  0  0999 V2000
   23.3262  -17.6600  -15.8762 C   0  0  0  0  0  0  0  0  0  0  0  0
   23.9618  -18.5210  -14.8108 C   0  0  1  0  0  0  0  0  0  0  0  0
   23.0505  -18.7512  -13.8317 O   0  0  0  0  0  0  0  0  0  0  0  0
   24.6283  -19.7427  -15.4075 C   0  0  2  0  0  0  0  0  0  0  0  0
   23.5430  -20.4558  -16.1113 N   0  0  0  0  0  0  0  0  0  0  0  0
   25.2190  -20.6422  -14.4192 C   0  0  0  0  0  0  0  0  0  0  0  0
   24.5872  -21.7344  -14.1983 O   0  0  0  0  0  0  0  0  0  0  0  0
   26.4082  -20.4039  -13.7071 N   0  0  0  0  0  0  0  0  0  0  0  0
   27.1637  -19.1424  -13.8140 C   0  0  0  0  0  0  0  0  0  0  0  0
   28.5697  -19.7104  -14.0378 C   0  0  0  0  0  0  0  0  0  0  0  0
   28.5884  -21.0155  -13.2791 C   0  0  0  0  0  0  0  0  0  0  0  0
   27.1918  -21.1720  -12.7868 C   0  0  1  0  0  0  0  0  0  0  0  0
   26.9816  -20.8031  -11.3706 C   0  0  0  0  0  0  0  0  0  0  0  0
   26.8224  -19.5815  -11.1138 O   0  0  0  0  0  0  0  0  0  0  0  0
   26.4952  -19.1722   -6.6307 C   0  0  0  0  0  0  0  0  0  0  0  0
   27.7628  -19.5967   -7.2933 C   0  0  1  0  0  0  0  0  0  0  0  0
   28.5398  -20.4216   -6.2731 C   0  0  0  0  0  0  0  0  0  0  0  0
   27.6535  -20.2360   -8.6025 C   0  0  0  0  0  0  0  0  0  0  0  0
   26.6017  -21.2394   -8.9025 C   0  0  2  0  0  0  0  0  0  0  0  0
   26.9457  -21.7043  -10.2839 N   0  0  0  0  0  0  0  0  0  0  0  0
   25.2058  -20.8642   -8.8505 C   0  0  0  0  0  0  0  0  0  0  0  0
   24.3751  -21.5710   -8.1456 O   0  0  0  0  0  0  0  0  0  0  0  0
   24.5915  -19.7938   -9.4748 O   0  0  0  0  0  0  0  0  0  0  0  0
  2  1  1  6
  2  3  1  0
  4  2  1  0
  4  5  1  1
  6  8  1  0
  6  4  1  0
  7  6  2  0
  8 12  1  0
  9 10  1  0
  9  8  1  0
 10 11  1  0
 12 11  1  0
 12 13  1  1
 13 20  1  0
 14 13  2  0
 16 15  1  1
 16 17  1  0
 18 16  1  0
 19 21  1  0
 19 20  1  0
 19 18  1  6
 21 23  1  0
 22 21  2  0
M  END
$$$$
