TPL.pdb
     RDKit          3D

 23 23  0  0  1  0  0  0  0  0999 V2000
   21.4207  -12.7675  -15.0437 C   0  0  0  0  0  0  0  0  0  0  0  0
   22.3064  -12.7510  -16.2667 C   0  0  1  0  0  0  0  0  0  0  0  0
   23.0771  -13.8683  -16.2651 O   0  0  0  0  0  0  0  0  0  0  0  0
   21.5093  -12.4877  -17.5269 C   0  0  2  0  0  0  0  0  0  0  0  0
   22.4582  -12.7401  -18.6305 N   0  0  0  0  0  0  0  0  0  0  0  0
   21.0082  -11.1199  -17.6407 C   0  0  0  0  0  0  0  0  0  0  0  0
   21.8397  -10.2462  -18.0721 O   0  0  0  0  0  0  0  0  0  0  0  0
   19.7052  -10.6991  -17.3197 N   0  0  0  0  0  0  0  0  0  0  0  0
   18.6536  -11.6298  -16.8704 C   0  0  0  0  0  0  0  0  0  0  0  0
   17.5134  -11.1838  -17.7927 C   0  0  0  0  0  0  0  0  0  0  0  0
   17.7432   -9.7078  -18.0113 C   0  0  0  0  0  0  0  0  0  0  0  0
   19.0353   -9.4335  -17.3238 C   0  0  1  0  0  0  0  0  0  0  0  0
   18.9143   -8.8173  -15.9853 C   0  0  0  0  0  0  0  0  0  0  0  0
   19.0218   -9.5807  -14.9908 O   0  0  0  0  0  0  0  0  0  0  0  0
   22.2044   -4.9540  -14.4573 C   0  0  0  0  0  0  0  0  0  0  0  0
   21.9604   -6.4077  -14.2272 C   0  0  1  0  0  0  0  0  0  0  0  0
   21.8771   -6.6082  -12.7179 C   0  0  0  0  0  0  0  0  0  0  0  0
   20.8600   -7.0274  -14.9619 C   0  0  0  0  0  0  0  0  0  0  0  0
   19.4399   -6.7245  -14.6548 C   0  0  2  0  0  0  0  0  0  0  0  0
   18.6878   -7.4470  -15.7296 N   0  0  0  0  0  0  0  0  0  0  0  0
   18.9897   -5.3517  -14.5867 C   0  0  0  0  0  0  0  0  0  0  0  0
   18.7079   -4.7116  -15.6810 O   0  0  0  0  0  0  0  0  0  0  0  0
   18.7980   -4.5771  -13.4571 O   0  0  0  0  0  0  0  0  0  0  0  0
  2  1  1  1
  2  3  1  0
  4  2  1  0
  4  5  1  6
  6  8  1  0
  6  4  1  0
  7  6  2  0
  8 12  1  0
  9 10  1  0
  9  8  1  0
 10 11  1  0
 12 11  1  0
 12 13  1  1
 13 20  1  0
 14 13  2  0
 16 15  1  1
 16 17  1  0
 18 16  1  0
 19 21  1  0
 19 20  1  0
 19 18  1  6
 21 23  1  0
 22 21  2  0
M  END
$$$$
