TPL.pdb
     RDKit          3D

 23 23  0  0  1  0  0  0  0  0999 V2000
   13.8302  -10.3204  -15.0701 C   0  0  0  0  0  0  0  0  0  0  0  0
   14.3166  -11.7444  -14.9431 C   0  0  1  0  0  0  0  0  0  0  0  0
   13.7314  -12.4956  -15.9103 O   0  0  0  0  0  0  0  0  0  0  0  0
   15.8272  -11.8110  -14.8640 C   0  0  2  0  0  0  0  0  0  0  0  0
   16.1403  -13.2545  -14.8795 N   0  0  0  0  0  0  0  0  0  0  0  0
   16.3874  -11.2209  -13.6504 C   0  0  0  0  0  0  0  0  0  0  0  0
   16.3835  -11.9627  -12.6060 O   0  0  0  0  0  0  0  0  0  0  0  0
   16.9222   -9.9244  -13.5455 N   0  0  0  0  0  0  0  0  0  0  0  0
   16.9459   -8.9767  -14.6747 C   0  0  0  0  0  0  0  0  0  0  0  0
   18.4081   -8.5243  -14.5917 C   0  0  0  0  0  0  0  0  0  0  0  0
   18.7545   -8.5920  -13.1238 C   0  0  0  0  0  0  0  0  0  0  0  0
   17.5439   -9.1833  -12.4896 C   0  0  1  0  0  0  0  0  0  0  0  0
   16.6440   -8.2124  -11.8311 C   0  0  0  0  0  0  0  0  0  0  0  0
   15.9978   -7.4321  -12.5774 O   0  0  0  0  0  0  0  0  0  0  0  0
   12.6762   -8.4144   -7.4408 C   0  0  0  0  0  0  0  0  0  0  0  0
   13.4087   -7.4780   -8.3422 C   0  0  1  0  0  0  0  0  0  0  0  0
   13.5748   -6.1688   -7.5784 C   0  0  0  0  0  0  0  0  0  0  0  0
   14.6459   -7.9626   -8.9499 C   0  0  0  0  0  0  0  0  0  0  0  0
   15.4461   -7.1261   -9.8789 C   0  0  2  0  0  0  0  0  0  0  0  0
   16.4499   -8.0867  -10.4379 N   0  0  0  0  0  0  0  0  0  0  0  0
   16.1241   -5.9456   -9.3903 C   0  0  0  0  0  0  0  0  0  0  0  0
   17.2971   -6.0566   -8.8441 O   0  0  0  0  0  0  0  0  0  0  0  0
   15.6807   -4.6361   -9.4286 O   0  0  0  0  0  0  0  0  0  0  0  0
  2  1  1  6
  2  3  1  0
  4  2  1  0
  4  5  1  1
  6  8  1  0
  6  4  1  0
  7  6  2  0
  8 12  1  0
  9 10  1  0
  9  8  1  0
 10 11  1  0
 12 11  1  0
 12 13  1  6
 13 20  1  0
 14 13  2  0
 16 15  1  1
 16 17  1  0
 18 16  1  0
 19 21  1  0
 19 20  1  0
 19 18  1  1
 21 23  1  0
 22 21  2  0
M  END
$$$$
