TPL.pdb
     RDKit          3D

 23 23  0  0  1  0  0  0  0  0999 V2000
   21.6065  -36.5507  -10.7253 C   0  0  0  0  0  0  0  0  0  0  0  0
   22.5683  -36.0389   -9.6795 C   0  0  1  0  0  0  0  0  0  0  0  0
   22.7750  -37.0146   -8.7590 O   0  0  0  0  0  0  0  0  0  0  0  0
   23.8070  -35.4379  -10.3098 C   0  0  2  0  0  0  0  0  0  0  0  0
   24.3200  -36.4924  -11.2080 N   0  0  0  0  0  0  0  0  0  0  0  0
   24.8525  -35.0858   -9.3519 C   0  0  0  0  0  0  0  0  0  0  0  0
   25.8617  -35.8731   -9.3001 O   0  0  0  0  0  0  0  0  0  0  0  0
   24.8350  -33.9672   -8.4996 N   0  0  0  0  0  0  0  0  0  0  0  0
   23.6864  -33.0468   -8.4137 C   0  0  0  0  0  0  0  0  0  0  0  0
   24.4264  -31.7101   -8.5370 C   0  0  0  0  0  0  0  0  0  0  0  0
   25.7737  -31.9500   -7.8995 C   0  0  0  0  0  0  0  0  0  0  0  0
   25.7702  -33.4030   -7.5735 C   0  0  1  0  0  0  0  0  0  0  0  0
   25.4809  -33.7273   -6.1603 C   0  0  0  0  0  0  0  0  0  0  0  0
   24.2719  -33.7452   -5.8120 O   0  0  0  0  0  0  0  0  0  0  0  0
   27.4735  -37.6691   -2.1802 C   0  0  0  0  0  0  0  0  0  0  0  0
   26.6795  -36.4113   -2.2960 C   0  0  1  0  0  0  0  0  0  0  0  0
   26.9118  -35.6225   -1.0119 C   0  0  0  0  0  0  0  0  0  0  0  0
   26.8536  -35.6178   -3.5104 C   0  0  0  0  0  0  0  0  0  0  0  0
   26.0387  -34.4076   -3.7828 C   0  0  2  0  0  0  0  0  0  0  0  0
   26.4454  -34.0170   -5.1702 N   0  0  0  0  0  0  0  0  0  0  0  0
   26.1317  -33.2590   -2.9087 C   0  0  0  0  0  0  0  0  0  0  0  0
   25.3243  -33.1528   -1.8971 O   0  0  0  0  0  0  0  0  0  0  0  0
   27.0131  -32.1966   -2.9951 O   0  0  0  0  0  0  0  0  0  0  0  0
  2  1  1  6
  2  3  1  0
  4  2  1  0
  4  5  1  6
  6  8  1  0
  6  4  1  0
  7  6  2  0
  8 12  1  0
  9 10  1  0
  9  8  1  0
 10 11  1  0
 12 11  1  0
 12 13  1  1
 13 20  1  0
 14 13  2  0
 16 15  1  6
 16 17  1  0
 18 16  1  0
 19 21  1  0
 19 20  1  0
 19 18  1  1
 21 23  1  0
 22 21  2  0
M  END
$$$$
