TPL.pdb
     RDKit          3D

 23 23  0  0  1  0  0  0  0  0999 V2000
   23.8466  -19.4144  -12.4628 C   0  0  0  0  0  0  0  0  0  0  0  0
   23.5168  -20.7327  -13.1214 C   0  0  1  0  0  0  0  0  0  0  0  0
   22.5216  -20.5356  -14.0230 O   0  0  0  0  0  0  0  0  0  0  0  0
   24.7616  -21.4238  -13.6367 C   0  0  2  0  0  0  0  0  0  0  0  0
   24.2602  -22.6129  -14.3552 N   0  0  0  0  0  0  0  0  0  0  0  0
   25.6791  -21.8605  -12.5867 C   0  0  0  0  0  0  0  0  0  0  0  0
   25.4615  -23.0216  -12.0913 O   0  0  0  0  0  0  0  0  0  0  0  0
   26.7641  -21.1161  -12.0899 N   0  0  0  0  0  0  0  0  0  0  0  0
   27.0939  -19.7639  -12.5761 C   0  0  0  0  0  0  0  0  0  0  0  0
   28.5970  -19.9438  -12.8170 C   0  0  0  0  0  0  0  0  0  0  0  0
   29.0411  -20.9460  -11.7790 C   0  0  0  0  0  0  0  0  0  0  0  0
   27.7780  -21.3623  -11.1091 C   0  0  1  0  0  0  0  0  0  0  0  0
   27.5175  -20.7153   -9.8055 C   0  0  0  0  0  0  0  0  0  0  0  0
   26.6574  -19.7971   -9.7827 O   0  0  0  0  0  0  0  0  0  0  0  0
   29.8035  -20.6612   -4.0561 C   0  0  0  0  0  0  0  0  0  0  0  0
   28.6218  -20.3857   -4.9241 C   0  0  1  0  0  0  0  0  0  0  0  0
   28.2604  -18.9177   -4.7256 C   0  0  0  0  0  0  0  0  0  0  0  0
   28.7139  -20.7816   -6.3275 C   0  0  0  0  0  0  0  0  0  0  0  0
   27.5873  -20.5895   -7.2745 C   0  0  2  0  0  0  0  0  0  0  0  0
   28.1524  -21.0397   -8.5863 N   0  0  0  0  0  0  0  0  0  0  0  0
   26.9842  -19.2839   -7.4286 C   0  0  0  0  0  0  0  0  0  0  0  0
   27.6027  -18.3651   -8.1066 O   0  0  0  0  0  0  0  0  0  0  0  0
   25.7683  -18.8478   -6.9345 O   0  0  0  0  0  0  0  0  0  0  0  0
  2  1  1  6
  2  3  1  0
  4  2  1  0
  4  5  1  1
  6  8  1  0
  6  4  1  0
  7  6  2  0
  8 12  1  0
  9 10  1  0
  9  8  1  0
 10 11  1  0
 12 11  1  0
 12 13  1  1
 13 20  1  0
 14 13  2  0
 16 15  1  6
 16 17  1  0
 18 16  1  0
 19 21  1  0
 19 20  1  0
 19 18  1  1
 21 23  1  0
 22 21  2  0
M  END
$$$$
