TPL.pdb
     RDKit          3D

 23 23  0  0  1  0  0  0  0  0999 V2000
   23.5491  -13.1114  -14.6146 C   0  0  0  0  0  0  0  0  0  0  0  0
   23.8729  -13.3371  -16.0723 C   0  0  1  0  0  0  0  0  0  0  0  0
   24.5023  -14.5327  -16.2016 O   0  0  0  0  0  0  0  0  0  0  0  0
   22.6597  -13.1190  -16.9516 C   0  0  2  0  0  0  0  0  0  0  0  0
   23.0865  -13.5592  -18.2954 N   0  0  0  0  0  0  0  0  0  0  0  0
   22.2219  -11.7272  -17.0293 C   0  0  0  0  0  0  0  0  0  0  0  0
   22.8821  -10.9693  -17.8234 O   0  0  0  0  0  0  0  0  0  0  0  0
   21.1489  -11.1683  -16.3121 N   0  0  0  0  0  0  0  0  0  0  0  0
   20.3541  -11.9368  -15.3366 C   0  0  0  0  0  0  0  0  0  0  0  0
   18.9453  -11.5657  -15.8133 C   0  0  0  0  0  0  0  0  0  0  0  0
   19.0751  -10.1646  -16.3604 C   0  0  0  0  0  0  0  0  0  0  0  0
   20.5337   -9.8755  -16.2822 C   0  0  1  0  0  0  0  0  0  0  0  0
   20.9468   -9.0440  -15.1315 C   0  0  0  0  0  0  0  0  0  0  0  0
   21.5708   -9.6197  -14.2028 O   0  0  0  0  0  0  0  0  0  0  0  0
   24.8529   -6.5049  -17.1714 C   0  0  0  0  0  0  0  0  0  0  0  0
   24.0147   -6.2167  -15.9713 C   0  0  1  0  0  0  0  0  0  0  0  0
   23.9376   -4.6995  -15.8404 C   0  0  0  0  0  0  0  0  0  0  0  0
   22.7149   -6.8787  -15.8865 C   0  0  0  0  0  0  0  0  0  0  0  0
   21.8148   -6.6980  -14.7203 C   0  0  2  0  0  0  0  0  0  0  0  0
   20.6994   -7.6611  -14.9869 N   0  0  0  0  0  0  0  0  0  0  0  0
   21.2677   -5.3927  -14.4221 C   0  0  0  0  0  0  0  0  0  0  0  0
   20.2150   -4.9754  -15.0576 O   0  0  0  0  0  0  0  0  0  0  0  0
   21.7268   -4.4718  -13.4979 O   0  0  0  0  0  0  0  0  0  0  0  0
  2  1  1  1
  2  3  1  0
  4  2  1  0
  4  5  1  6
  6  8  1  0
  6  4  1  0
  7  6  2  0
  8 12  1  0
  9 10  1  0
  9  8  1  0
 10 11  1  0
 12 11  1  0
 12 13  1  1
 13 20  1  0
 14 13  2  0
 16 15  1  6
 16 17  1  0
 18 16  1  0
 19 21  1  0
 19 20  1  0
 19 18  1  6
 21 23  1  0
 22 21  2  0
M  END
$$$$
