TPL.pdb
     RDKit          3D

 23 23  0  0  1  0  0  0  0  0999 V2000
   23.7021  -19.8843  -12.5811 C   0  0  0  0  0  0  0  0  0  0  0  0
   23.5457  -21.2813  -13.1329 C   0  0  1  0  0  0  0  0  0  0  0  0
   22.4798  -21.3043  -13.9728 O   0  0  0  0  0  0  0  0  0  0  0  0
   24.8511  -21.8080  -13.6910 C   0  0  2  0  0  0  0  0  0  0  0  0
   24.4850  -23.0613  -14.3817 N   0  0  0  0  0  0  0  0  0  0  0  0
   25.8568  -22.1073  -12.6743 C   0  0  0  0  0  0  0  0  0  0  0  0
   25.8107  -23.2796  -12.1599 O   0  0  0  0  0  0  0  0  0  0  0  0
   26.8540  -21.2218  -12.2277 N   0  0  0  0  0  0  0  0  0  0  0  0
   27.0243  -19.8661  -12.7817 C   0  0  0  0  0  0  0  0  0  0  0  0
   28.5362  -19.8864  -13.0337 C   0  0  0  0  0  0  0  0  0  0  0  0
   29.0993  -20.7805  -11.9554 C   0  0  0  0  0  0  0  0  0  0  0  0
   27.8970  -21.3039  -11.2499 C   0  0  1  0  0  0  0  0  0  0  0  0
   27.5750  -20.6279   -9.9750 C   0  0  0  0  0  0  0  0  0  0  0  0
   26.4981  -19.9788   -9.9262 O   0  0  0  0  0  0  0  0  0  0  0  0
   30.0233  -20.4231   -4.2700 C   0  0  0  0  0  0  0  0  0  0  0  0
   28.7764  -20.4357   -5.0891 C   0  0  1  0  0  0  0  0  0  0  0  0
   27.9642  -19.2131   -4.6761 C   0  0  0  0  0  0  0  0  0  0  0  0
   28.9257  -20.5784   -6.5355 C   0  0  0  0  0  0  0  0  0  0  0  0
   27.7547  -20.6242   -7.4464 C   0  0  2  0  0  0  0  0  0  0  0  0
   28.3731  -20.6486   -8.8101 N   0  0  0  0  0  0  0  0  0  0  0  0
   26.7497  -19.5857   -7.3880 C   0  0  0  0  0  0  0  0  0  0  0  0
   26.9908  -18.4259   -7.9200 O   0  0  0  0  0  0  0  0  0  0  0  0
   25.4908  -19.6549   -6.8193 O   0  0  0  0  0  0  0  0  0  0  0  0
  2  1  1  6
  2  3  1  0
  4  2  1  0
  4  5  1  1
  6  8  1  0
  6  4  1  0
  7  6  2  0
  8 12  1  0
  9 10  1  0
  9  8  1  0
 10 11  1  0
 12 11  1  0
 12 13  1  1
 13 20  1  0
 14 13  2  0
 16 15  1  1
 16 17  1  0
 18 16  1  0
 19 21  1  0
 19 20  1  0
 19 18  1  1
 21 23  1  0
 22 21  2  0
M  END
$$$$
