TPL.pdb
     RDKit          3D

 23 23  0  0  1  0  0  0  0  0999 V2000
   27.7191  -18.8106  -11.5565 C   0  0  0  0  0  0  0  0  0  0  0  0
   26.5864  -19.7803  -11.7961 C   0  0  1  0  0  0  0  0  0  0  0  0
   25.8394  -19.3333  -12.8374 O   0  0  0  0  0  0  0  0  0  0  0  0
   27.0862  -21.2063  -11.8924 C   0  0  2  0  0  0  0  0  0  0  0  0
   25.8901  -22.0003  -12.2398 N   0  0  0  0  0  0  0  0  0  0  0  0
   27.6508  -21.7256  -10.6488 C   0  0  0  0  0  0  0  0  0  0  0  0
   26.8466  -22.3683   -9.8865 O   0  0  0  0  0  0  0  0  0  0  0  0
   28.9866  -21.5769  -10.2347 N   0  0  0  0  0  0  0  0  0  0  0  0
   30.0130  -20.9245  -11.0682 C   0  0  0  0  0  0  0  0  0  0  0  0
   31.1270  -21.9719  -10.9598 C   0  0  0  0  0  0  0  0  0  0  0  0
   30.9579  -22.5805   -9.5886 C   0  0  0  0  0  0  0  0  0  0  0  0
   29.7155  -21.9519   -9.0605 C   0  0  1  0  0  0  0  0  0  0  0  0
   29.9311  -20.8396   -8.1106 C   0  0  0  0  0  0  0  0  0  0  0  0
   29.7668  -19.6715   -8.5488 O   0  0  0  0  0  0  0  0  0  0  0  0
   25.7598  -20.3012   -6.1864 C   0  0  0  0  0  0  0  0  0  0  0  0
   27.1634  -19.8143   -6.3236 C   0  0  1  0  0  0  0  0  0  0  0  0
   27.1805  -18.3712   -5.8316 C   0  0  0  0  0  0  0  0  0  0  0  0
   28.2198  -20.6424   -5.7466 C   0  0  0  0  0  0  0  0  0  0  0  0
   29.6301  -20.1848   -5.6802 C   0  0  2  0  0  0  0  0  0  0  0  0
   30.3061  -20.9775   -6.7561 N   0  0  0  0  0  0  0  0  0  0  0  0
   30.3750  -20.3076   -4.4465 C   0  0  0  0  0  0  0  0  0  0  0  0
   30.8823  -21.4554   -4.1123 O   0  0  0  0  0  0  0  0  0  0  0  0
   30.6473  -19.3191   -3.5183 O   0  0  0  0  0  0  0  0  0  0  0  0
  2  1  1  6
  2  3  1  0
  4  2  1  0
  4  5  1  1
  6  8  1  0
  6  4  1  0
  7  6  2  0
  8 12  1  0
  9 10  1  0
  9  8  1  0
 10 11  1  0
 12 11  1  0
 12 13  1  1
 13 20  1  0
 14 13  2  0
 16 15  1  1
 16 17  1  0
 18 16  1  0
 19 21  1  0
 19 20  1  0
 19 18  1  1
 21 23  1  0
 22 21  2  0
M  END
$$$$
