TPL.pdb
     RDKit          3D

 23 23  0  0  1  0  0  0  0  0999 V2000
   21.4049  -13.0998  -18.9499 C   0  0  0  0  0  0  0  0  0  0  0  0
   21.3711  -11.9140  -18.0154 C   0  0  1  0  0  0  0  0  0  0  0  0
   20.7857  -10.8691  -18.6539 O   0  0  0  0  0  0  0  0  0  0  0  0
   20.7923  -12.2854  -16.6665 C   0  0  2  0  0  0  0  0  0  0  0  0
   19.4457  -12.8121  -16.9683 N   0  0  0  0  0  0  0  0  0  0  0  0
   20.6616  -11.1603  -15.7435 C   0  0  0  0  0  0  0  0  0  0  0  0
   19.4993  -10.6283  -15.6601 O   0  0  0  0  0  0  0  0  0  0  0  0
   21.6965  -10.6290  -14.9532 N   0  0  0  0  0  0  0  0  0  0  0  0
   23.0747  -11.1518  -14.9856 C   0  0  0  0  0  0  0  0  0  0  0  0
   23.3262  -11.2893  -13.4798 C   0  0  0  0  0  0  0  0  0  0  0  0
   22.5176  -10.1826  -12.8468 C   0  0  0  0  0  0  0  0  0  0  0  0
   21.7738   -9.5763  -13.9854 C   0  0  1  0  0  0  0  0  0  0  0  0
   22.3502   -8.3211  -14.5129 C   0  0  0  0  0  0  0  0  0  0  0  0
   23.3076   -8.4257  -15.3227 O   0  0  0  0  0  0  0  0  0  0  0  0
   19.6040   -4.6791  -15.9527 C   0  0  0  0  0  0  0  0  0  0  0  0
   20.3221   -5.9078  -16.4007 C   0  0  1  0  0  0  0  0  0  0  0  0
   19.8491   -6.2032  -17.8198 C   0  0  0  0  0  0  0  0  0  0  0  0
   21.7754   -5.9269  -16.2517 C   0  0  0  0  0  0  0  0  0  0  0  0
   22.4315   -5.8211  -14.9246 C   0  0  2  0  0  0  0  0  0  0  0  0
   21.9181   -7.0174  -14.1842 N   0  0  0  0  0  0  0  0  0  0  0  0
   22.2475   -4.6352  -14.1173 C   0  0  0  0  0  0  0  0  0  0  0  0
   21.5753   -4.7091  -13.0086 O   0  0  0  0  0  0  0  0  0  0  0  0
   22.7174   -3.3585  -14.3663 O   0  0  0  0  0  0  0  0  0  0  0  0
  2  1  1  6
  2  3  1  0
  4  2  1  0
  4  5  1  6
  6  8  1  0
  6  4  1  0
  7  6  2  0
  8 12  1  0
  9 10  1  0
  9  8  1  0
 10 11  1  0
 12 11  1  0
 12 13  1  6
 13 20  1  0
 14 13  2  0
 16 15  1  6
 16 17  1  0
 18 16  1  0
 19 21  1  0
 19 20  1  0
 19 18  1  6
 21 23  1  0
 22 21  2  0
M  END
$$$$
