TPL.pdb
     RDKit          3D

 23 23  0  0  1  0  0  0  0  0999 V2000
   25.3055  -17.0840  -14.6699 C   0  0  0  0  0  0  0  0  0  0  0  0
   25.1745  -17.4911  -16.1182 C   0  0  1  0  0  0  0  0  0  0  0  0
   25.0308  -16.3744  -16.8763 O   0  0  0  0  0  0  0  0  0  0  0  0
   26.2768  -18.4441  -16.5299 C   0  0  2  0  0  0  0  0  0  0  0  0
   26.1210  -18.5888  -17.9916 N   0  0  0  0  0  0  0  0  0  0  0  0
   26.1836  -19.7656  -15.9135 C   0  0  0  0  0  0  0  0  0  0  0  0
   25.4712  -20.6308  -16.5338 O   0  0  0  0  0  0  0  0  0  0  0  0
   26.8073  -20.1519  -14.7136 N   0  0  0  0  0  0  0  0  0  0  0  0
   27.5226  -19.2007  -13.8433 C   0  0  0  0  0  0  0  0  0  0  0  0
   28.8189  -19.9885  -13.6230 C   0  0  0  0  0  0  0  0  0  0  0  0
   28.4052  -21.4399  -13.6657 C   0  0  0  0  0  0  0  0  0  0  0  0
   26.9605  -21.3976  -14.0242 C   0  0  1  0  0  0  0  0  0  0  0  0
   26.0282  -21.5712  -12.8899 C   0  0  0  0  0  0  0  0  0  0  0  0
   25.9113  -22.7310  -12.4161 O   0  0  0  0  0  0  0  0  0  0  0  0
   26.2501  -19.5616   -8.2285 C   0  0  0  0  0  0  0  0  0  0  0  0
   25.8526  -20.4529   -9.3569 C   0  0  1  0  0  0  0  0  0  0  0  0
   25.8673  -21.8797   -8.8192 C   0  0  0  0  0  0  0  0  0  0  0  0
   24.6304  -20.1127  -10.0816 C   0  0  0  0  0  0  0  0  0  0  0  0
   24.1966  -20.8616  -11.2874 C   0  0  2  0  0  0  0  0  0  0  0  0
   25.2587  -20.5471  -12.2954 N   0  0  0  0  0  0  0  0  0  0  0  0
   22.8930  -20.6157  -11.8636 C   0  0  0  0  0  0  0  0  0  0  0  0
   22.7853  -19.8573  -12.9123 O   0  0  0  0  0  0  0  0  0  0  0  0
   21.6716  -21.1057  -11.4381 O   0  0  0  0  0  0  0  0  0  0  0  0
  2  1  1  1
  2  3  1  0
  4  2  1  0
  4  5  1  6
  6  8  1  0
  6  4  1  0
  7  6  2  0
  8 12  1  0
  9 10  1  0
  9  8  1  0
 10 11  1  0
 12 11  1  0
 12 13  1  1
 13 20  1  0
 14 13  2  0
 16 15  1  1
 16 17  1  0
 18 16  1  0
 19 21  1  0
 19 20  1  0
 19 18  1  1
 21 23  1  0
 22 21  2  0
M  END
$$$$
