TPL.pdb
     RDKit          3D

 23 23  0  0  1  0  0  0  0  0999 V2000
   17.4018  -13.4841  -16.1162 C   0  0  0  0  0  0  0  0  0  0  0  0
   18.3649  -14.3168  -16.9283 C   0  0  1  0  0  0  0  0  0  0  0  0
   17.9693  -15.6143  -16.8822 O   0  0  0  0  0  0  0  0  0  0  0  0
   18.5812  -13.7300  -18.3073 C   0  0  2  0  0  0  0  0  0  0  0  0
   19.3235  -14.7718  -19.0459 N   0  0  0  0  0  0  0  0  0  0  0  0
   19.3666  -12.4979  -18.3146 C   0  0  0  0  0  0  0  0  0  0  0  0
   20.6354  -12.6357  -18.4244 O   0  0  0  0  0  0  0  0  0  0  0  0
   18.8434  -11.1964  -18.2137 N   0  0  0  0  0  0  0  0  0  0  0  0
   17.3997  -10.9235  -18.0909 C   0  0  0  0  0  0  0  0  0  0  0  0
   17.2571   -9.8394  -19.1652 C   0  0  0  0  0  0  0  0  0  0  0  0
   18.5811   -9.1140  -19.1653 C   0  0  0  0  0  0  0  0  0  0  0  0
   19.4208   -9.8859  -18.2079 C   0  0  1  0  0  0  0  0  0  0  0  0
   19.5403   -9.2919  -16.8593 C   0  0  0  0  0  0  0  0  0  0  0  0
   19.0684   -9.9525  -15.8979 O   0  0  0  0  0  0  0  0  0  0  0  0
   23.7384  -10.6839  -15.2394 C   0  0  0  0  0  0  0  0  0  0  0  0
   22.4268  -10.0126  -15.0050 C   0  0  1  0  0  0  0  0  0  0  0  0
   22.2274   -9.9477  -13.4947 C   0  0  0  0  0  0  0  0  0  0  0  0
   22.1953   -8.7385  -15.6817 C   0  0  0  0  0  0  0  0  0  0  0  0
   21.0256   -7.8813  -15.3658 C   0  0  2  0  0  0  0  0  0  0  0  0
   20.1374   -8.0475  -16.5601 N   0  0  0  0  0  0  0  0  0  0  0  0
   21.2114   -6.4734  -15.0917 C   0  0  0  0  0  0  0  0  0  0  0  0
   21.2051   -5.6206  -16.0710 O   0  0  0  0  0  0  0  0  0  0  0  0
   21.3997   -5.8661  -13.8634 O   0  0  0  0  0  0  0  0  0  0  0  0
  2  1  1  6
  2  3  1  0
  4  2  1  0
  4  5  1  6
  6  8  1  0
  6  4  1  0
  7  6  2  0
  8 12  1  0
  9 10  1  0
  9  8  1  0
 10 11  1  0
 12 11  1  0
 12 13  1  1
 13 20  1  0
 14 13  2  0
 16 15  1  1
 16 17  1  0
 18 16  1  0
 19 21  1  0
 19 20  1  0
 19 18  1  6
 21 23  1  0
 22 21  2  0
M  END
$$$$
