MLG.pdb
     RDKit          3D

 21 20  0  0  1  0  0  0  0  0999 V2000
   25.5201  -15.2218  -14.7687 C   0  0  0  0  0  0  0  0  0  0  0  0
   27.1888  -15.8582  -15.0782 S   0  0  0  0  0  0  0  0  0  0  0  0
   27.1475  -17.5169  -15.7862 C   0  0  0  0  0  0  0  0  0  0  0  0
   26.3008  -18.4369  -14.9504 C   0  0  0  0  0  0  0  0  0  0  0  0
   27.1211  -19.3537  -14.0790 C   0  0  2  0  0  0  0  0  0  0  0  0
   28.0972  -20.0821  -14.8549 N   0  0  0  0  0  0  0  0  0  0  0  0
   26.3052  -20.2338  -13.2156 C   0  0  0  0  0  0  0  0  0  0  0  0
   26.0196  -21.3928  -13.6146 O   0  0  0  0  0  0  0  0  0  0  0  0
   27.2083  -21.6885   -9.3623 C   0  0  0  0  0  0  0  0  0  0  0  0
   26.4846  -20.3532   -9.1914 C   0  0  2  0  0  0  0  0  0  0  0  0
   26.5366  -20.0299   -7.7159 C   0  0  0  0  0  0  0  0  0  0  0  0
   25.0783  -20.4490   -9.6843 C   0  0  0  0  0  0  0  0  0  0  0  0
   24.9341  -20.7028  -11.1313 C   0  0  2  0  0  0  0  0  0  0  0  0
   25.8125  -19.8550  -11.9436 N   0  0  0  0  0  0  0  0  0  0  0  0
   23.5868  -20.6459  -11.7074 C   0  0  0  0  0  0  0  0  0  0  0  0
   22.9716  -19.5354  -11.7894 O   0  0  0  0  0  0  0  0  0  0  0  0
   22.8628  -21.7627  -12.2101 N   0  0  0  0  0  0  0  0  0  0  0  0
   21.4835  -21.6849  -12.6107 C   0  0  0  0  0  0  0  0  0  0  0  0
   21.3771  -21.8010  -14.0694 C   0  0  0  0  0  0  0  0  0  0  0  0
   22.3888  -21.9338  -14.7934 O   0  0  0  0  0  0  0  0  0  0  0  0
   20.1362  -21.7650  -14.6793 O   0  0  0  0  0  0  0  0  0  0  0  0
  2  1  1  0
  3  2  1  0
  4  3  1  0
  4  5  1  0
  5  6  1  6
  7  8  2  0
  7  5  1  0
 10  9  1  1
 10 12  1  0
 11 10  1  0
 13 14  1  0
 13 12  1  1
 14  7  1  0
 15 13  1  0
 16 15  2  0
 17 15  1  0
 18 17  1  0
 19 18  1  0
 19 21  1  0
 20 19  2  0
M  END
$$$$
