MLG.pdb
     RDKit          3D

 21 20  0  0  1  0  0  0  0  0999 V2000
   28.8508  -18.1438   -5.5655 C   0  0  0  0  0  0  0  0  0  0  0  0
   28.3464  -19.8551   -5.2452 S   0  0  0  0  0  0  0  0  0  0  0  0
   26.8929  -20.3121   -6.2110 C   0  0  0  0  0  0  0  0  0  0  0  0
   27.0180  -19.8310   -7.6304 C   0  0  0  0  0  0  0  0  0  0  0  0
   25.8037  -20.1520   -8.4642 C   0  0  2  0  0  0  0  0  0  0  0  0
   25.4211  -21.5374   -8.3239 N   0  0  0  0  0  0  0  0  0  0  0  0
   25.9303  -19.7344   -9.8768 C   0  0  0  0  0  0  0  0  0  0  0  0
   26.2609  -18.5489  -10.1399 O   0  0  0  0  0  0  0  0  0  0  0  0
   28.8168  -19.5241  -12.6336 C   0  0  0  0  0  0  0  0  0  0  0  0
   28.2052  -20.9211  -12.5341 C   0  0  2  0  0  0  0  0  0  0  0  0
   29.1409  -21.8463  -13.2777 C   0  0  0  0  0  0  0  0  0  0  0  0
   26.8325  -20.9386  -13.1215 C   0  0  0  0  0  0  0  0  0  0  0  0
   25.8185  -20.1677  -12.3756 C   0  0  2  0  0  0  0  0  0  0  0  0
   25.7004  -20.5943  -10.9776 N   0  0  0  0  0  0  0  0  0  0  0  0
   24.4681  -20.0823  -12.9409 C   0  0  0  0  0  0  0  0  0  0  0  0
   24.3023  -19.7371  -14.1541 O   0  0  0  0  0  0  0  0  0  0  0  0
   23.2650  -20.3617  -12.2348 N   0  0  0  0  0  0  0  0  0  0  0  0
   21.9600  -20.1966  -12.8167 C   0  0  0  0  0  0  0  0  0  0  0  0
   21.4607  -21.4871  -13.3043 C   0  0  0  0  0  0  0  0  0  0  0  0
   22.1851  -22.5070  -13.3234 O   0  0  0  0  0  0  0  0  0  0  0  0
   20.1593  -21.6004  -13.7588 O   0  0  0  0  0  0  0  0  0  0  0  0
  2  1  1  0
  3  2  1  0
  4  3  1  0
  4  5  1  0
  5  6  1  6
  7  8  2  0
  7  5  1  0
 10  9  1  6
 10 12  1  0
 11 10  1  0
 13 14  1  0
 13 12  1  6
 14  7  1  0
 15 13  1  0
 16 15  2  0
 17 15  1  0
 18 17  1  0
 19 18  1  0
 19 21  1  0
 20 19  2  0
M  END
$$$$
