MLG.pdb
     RDKit          3D

 21 20  0  0  1  0  0  0  0  0999 V2000
   22.8400  -25.9006  -20.4101 C   0  0  0  0  0  0  0  0  0  0  0  0
   22.8977  -24.6692  -19.0813 S   0  0  0  0  0  0  0  0  0  0  0  0
   23.1877  -25.4371  -17.4748 C   0  0  0  0  0  0  0  0  0  0  0  0
   23.2443  -24.4008  -16.3864 C   0  0  0  0  0  0  0  0  0  0  0  0
   24.6510  -23.9544  -16.0786 C   0  0  2  0  0  0  0  0  0  0  0  0
   25.4861  -25.0707  -15.7020 N   0  0  0  0  0  0  0  0  0  0  0  0
   24.7179  -22.8387  -15.1108 C   0  0  0  0  0  0  0  0  0  0  0  0
   24.7141  -23.0932  -13.8783 O   0  0  0  0  0  0  0  0  0  0  0  0
   27.9459  -20.1621  -13.9443 C   0  0  0  0  0  0  0  0  0  0  0  0
   27.2611  -19.7655  -15.2519 C   0  0  2  0  0  0  0  0  0  0  0  0
   28.0948  -18.6534  -15.8455 C   0  0  0  0  0  0  0  0  0  0  0  0
   25.8568  -19.3253  -14.9990 C   0  0  0  0  0  0  0  0  0  0  0  0
   24.9429  -20.3804  -14.5189 C   0  0  2  0  0  0  0  0  0  0  0  0
   24.7875  -21.4745  -15.4827 N   0  0  0  0  0  0  0  0  0  0  0  0
   23.6069  -19.9783  -14.0675 C   0  0  0  0  0  0  0  0  0  0  0  0
   23.4721  -19.0302  -13.2301 O   0  0  0  0  0  0  0  0  0  0  0  0
   22.3854  -20.5702  -14.4939 N   0  0  0  0  0  0  0  0  0  0  0  0
   21.0957  -20.0945  -14.0701 C   0  0  0  0  0  0  0  0  0  0  0  0
   20.0352  -20.8712  -14.7216 C   0  0  0  0  0  0  0  0  0  0  0  0
   20.2955  -21.8344  -15.4766 O   0  0  0  0  0  0  0  0  0  0  0  0
   18.7075  -20.5469  -14.5089 O   0  0  0  0  0  0  0  0  0  0  0  0
  2  1  1  0
  3  2  1  0
  4  3  1  0
  4  5  1  0
  5  6  1  1
  7  8  2  0
  7  5  1  0
 10  9  1  1
 10 12  1  0
 11 10  1  0
 13 14  1  0
 13 12  1  6
 14  7  1  0
 15 13  1  0
 16 15  2  0
 17 15  1  0
 18 17  1  0
 19 18  1  0
 19 21  1  0
 20 19  2  0
M  END
$$$$
