MLG.pdb
     RDKit          3D

 21 20  0  0  1  0  0  0  0  0999 V2000
   16.8779  -16.8031  -15.0581 C   0  0  0  0  0  0  0  0  0  0  0  0
   17.1617  -17.1267  -16.8189 S   0  0  0  0  0  0  0  0  0  0  0  0
   17.7766  -15.6620  -17.6739 C   0  0  0  0  0  0  0  0  0  0  0  0
   18.2537  -14.6275  -16.6921 C   0  0  0  0  0  0  0  0  0  0  0  0
   18.7622  -13.3770  -17.3634 C   0  0  2  0  0  0  0  0  0  0  0  0
   19.5031  -13.6887  -18.5630 N   0  0  0  0  0  0  0  0  0  0  0  0
   19.5015  -12.4770  -16.4527 C   0  0  0  0  0  0  0  0  0  0  0  0
   19.0694  -12.2942  -15.2849 O   0  0  0  0  0  0  0  0  0  0  0  0
   23.4292  -12.7550  -14.6401 C   0  0  0  0  0  0  0  0  0  0  0  0
   23.5025  -12.1923  -16.0592 C   0  0  2  0  0  0  0  0  0  0  0  0
   24.9713  -12.1094  -16.4059 C   0  0  0  0  0  0  0  0  0  0  0  0
   22.8442  -10.8538  -16.1301 C   0  0  0  0  0  0  0  0  0  0  0  0
   21.3832  -10.8587  -15.9196 C   0  0  2  0  0  0  0  0  0  0  0  0
   20.6873  -11.7919  -16.8113 N   0  0  0  0  0  0  0  0  0  0  0  0
   20.6786   -9.5735  -15.9663 C   0  0  0  0  0  0  0  0  0  0  0  0
   20.3280   -9.0754  -17.0833 O   0  0  0  0  0  0  0  0  0  0  0  0
   20.3287   -8.7891  -14.8321 N   0  0  0  0  0  0  0  0  0  0  0  0
   19.6799   -7.5096  -14.9357 C   0  0  0  0  0  0  0  0  0  0  0  0
   20.6478   -6.4345  -14.6909 C   0  0  0  0  0  0  0  0  0  0  0  0
   21.8658   -6.6712  -14.5300 O   0  0  0  0  0  0  0  0  0  0  0  0
   20.2237   -5.1193  -14.6329 O   0  0  0  0  0  0  0  0  0  0  0  0
  2  1  1  0
  3  2  1  0
  4  3  1  0
  4  5  1  0
  5  6  1  6
  7  8  2  0
  7  5  1  0
 10  9  1  1
 10 12  1  0
 11 10  1  0
 13 14  1  0
 13 12  1  6
 14  7  1  0
 15 13  1  0
 16 15  2  0
 17 15  1  0
 18 17  1  0
 19 18  1  0
 19 21  1  0
 20 19  2  0
M  END
$$$$
