MLG.pdb
     RDKit          3D

 21 20  0  0  1  0  0  0  0  0999 V2000
   21.2177  -21.2427   -4.6765 C   0  0  0  0  0  0  0  0  0  0  0  0
   19.9752  -21.4954   -5.9718 S   0  0  0  0  0  0  0  0  0  0  0  0
   20.7311  -21.6090   -7.6058 C   0  0  0  0  0  0  0  0  0  0  0  0
   22.0360  -20.8622   -7.6472 C   0  0  0  0  0  0  0  0  0  0  0  0
   22.6952  -20.9147   -9.0020 C   0  0  2  0  0  0  0  0  0  0  0  0
   22.7106  -22.2598   -9.5272 N   0  0  0  0  0  0  0  0  0  0  0  0
   24.0266  -20.2727   -9.0360 C   0  0  0  0  0  0  0  0  0  0  0  0
   24.1028  -19.0214   -9.1470 O   0  0  0  0  0  0  0  0  0  0  0  0
   27.1349  -18.4962   -6.6869 C   0  0  0  0  0  0  0  0  0  0  0  0
   27.0294  -20.0156   -6.5603 C   0  0  2  0  0  0  0  0  0  0  0  0
   27.9545  -20.4112   -5.4324 C   0  0  0  0  0  0  0  0  0  0  0  0
   27.4105  -20.6790   -7.8427 C   0  0  0  0  0  0  0  0  0  0  0  0
   26.5640  -20.3392   -9.0033 C   0  0  2  0  0  0  0  0  0  0  0  0
   25.2479  -20.9835   -8.9504 N   0  0  0  0  0  0  0  0  0  0  0  0
   27.1202  -20.5496  -10.3437 C   0  0  0  0  0  0  0  0  0  0  0  0
   28.3106  -20.1865  -10.6076 O   0  0  0  0  0  0  0  0  0  0  0  0
   26.4289  -21.1501  -11.4326 N   0  0  0  0  0  0  0  0  0  0  0  0
   27.0555  -21.4344  -12.6958 C   0  0  0  0  0  0  0  0  0  0  0  0
   26.0466  -21.8611  -13.6719 C   0  0  0  0  0  0  0  0  0  0  0  0
   25.3045  -22.8462  -13.4617 O   0  0  0  0  0  0  0  0  0  0  0  0
   25.8961  -21.1704  -14.8607 O   0  0  0  0  0  0  0  0  0  0  0  0
  2  1  1  0
  3  2  1  0
  4  3  1  0
  4  5  1  0
  5  6  1  1
  7  8  2  0
  7  5  1  0
 10  9  1  6
 10 12  1  0
 11 10  1  0
 13 14  1  0
 13 12  1  1
 14  7  1  0
 15 13  1  0
 16 15  2  0
 17 15  1  0
 18 17  1  0
 19 18  1  0
 19 21  1  0
 20 19  2  0
M  END
$$$$
