EWS.pdb
     RDKit          3D

 30 31  0  0  1  0  0  0  0  0999 V2000
   25.5689  -16.0556  -18.1397 N   0  0  0  0  0  0  0  0  0  0  0  0
   24.4674  -16.8874  -18.4578 C   0  0  1  0  0  0  0  0  0  0  0  0
   24.7428  -18.2396  -18.9996 C   0  0  0  0  0  0  0  0  0  0  0  0
   26.1368  -18.6223  -19.2776 C   0  0  0  0  0  0  0  0  0  0  0  0
   26.8471  -19.1453  -18.1086 C   0  0  0  0  0  0  0  0  0  0  0  0
   28.0297  -18.9280  -17.8449 O   0  0  0  0  0  0  0  0  0  0  0  0
   23.5113  -17.0444  -17.2987 C   0  0  0  0  0  0  0  0  0  0  0  0
   23.9539  -16.7653  -16.1348 O   0  0  0  0  0  0  0  0  0  0  0  0
   26.1021  -19.9664  -17.2171 O   0  0  0  0  0  0  0  0  0  0  0  0
   22.1803  -17.4726  -17.4185 N   0  0  0  0  0  0  0  0  0  0  0  0
   21.2607  -17.5013  -16.2632 C   0  0  1  0  0  0  0  0  0  0  0  0
   19.9968  -16.7983  -16.7317 C   0  0  0  0  0  0  0  0  0  0  0  0
   18.9465  -16.6896  -15.7252 C   0  0  0  0  0  0  0  0  0  0  0  0
   17.8685  -17.5416  -15.6064 C   0  0  0  0  0  0  0  0  0  0  0  0
   17.1180  -17.0923  -14.5557 N   0  0  0  0  0  0  0  0  0  0  0  0
   17.7088  -16.0008  -14.0409 C   0  0  0  0  0  0  0  0  0  0  0  0
   17.3342  -15.1937  -12.9756 C   0  0  0  0  0  0  0  0  0  0  0  0
   18.0989  -14.1032  -12.6088 C   0  0  0  0  0  0  0  0  0  0  0  0
   19.2502  -13.8125  -13.3106 C   0  0  0  0  0  0  0  0  0  0  0  0
   19.6044  -14.6258  -14.3643 C   0  0  0  0  0  0  0  0  0  0  0  0
   18.8626  -15.7183  -14.7524 C   0  0  0  0  0  0  0  0  0  0  0  0
   21.0529  -18.8728  -15.8012 C   0  0  0  0  0  0  0  0  0  0  0  0
   20.8866  -19.7922  -16.6763 O   0  0  0  0  0  0  0  0  0  0  0  0
   20.6334  -20.0674  -11.7731 O   0  0  0  0  0  0  0  0  0  0  0  0
   21.3607  -20.8438  -12.6546 C   0  0  0  0  0  0  0  0  0  0  0  0
   20.8380  -20.7078  -14.0922 C   0  0  2  0  0  0  0  0  0  0  0  0
   21.0152  -19.3177  -14.4565 N   0  0  0  0  0  0  0  0  0  0  0  0
   19.4560  -21.1737  -14.0876 C   0  0  0  0  0  0  0  0  0  0  0  0
   18.5586  -20.2834  -14.2629 O   0  0  0  0  0  0  0  0  0  0  0  0
   19.0110  -22.4565  -13.9164 O   0  0  0  0  0  0  0  0  0  0  0  0
  2  1  1  1
  2  3  1  0
  4  3  1  0
  5  4  1  0
  6  5  2  0
  7  2  1  0
  7  8  2  0
  9  5  1  0
 10  7  1  0
 11 10  1  0
 12 13  1  0
 11 12  1  6
 13 21  1  0
 14 13  2  0
 14 15  1  0
 15 16  1  0
 16 17  1  0
 17 18  2  0
 19 18  1  0
 20 19  2  0
 21 16  2  0
 21 20  1  0
 22 27  1  0
 22 11  1  0
 23 22  2  0
 24 25  1  0
 26 25  1  1
 26 27  1  0
 26 28  1  0
 28 30  1  0
 29 28  2  0
M  END
$$$$
