EWS.pdb
     RDKit          3D

 30 31  0  0  1  0  0  0  0  0999 V2000
   26.4671  -23.0492  -16.7541 N   0  0  0  0  0  0  0  0  0  0  0  0
   25.5411  -23.9950  -16.2499 C   0  0  1  0  0  0  0  0  0  0  0  0
   26.0634  -25.2854  -15.7400 C   0  0  0  0  0  0  0  0  0  0  0  0
   26.6587  -26.2364  -16.6930 C   0  0  0  0  0  0  0  0  0  0  0  0
   27.7464  -25.6662  -17.4906 C   0  0  0  0  0  0  0  0  0  0  0  0
   27.6556  -25.3305  -18.6715 O   0  0  0  0  0  0  0  0  0  0  0  0
   24.6443  -23.4106  -15.1838 C   0  0  0  0  0  0  0  0  0  0  0  0
   24.2443  -24.1971  -14.2619 O   0  0  0  0  0  0  0  0  0  0  0  0
   28.9992  -25.4922  -16.8393 O   0  0  0  0  0  0  0  0  0  0  0  0
   24.2276  -22.0713  -15.1419 N   0  0  0  0  0  0  0  0  0  0  0  0
   23.4129  -21.5398  -14.0307 C   0  0  1  0  0  0  0  0  0  0  0  0
   24.0959  -20.2496  -13.6063 C   0  0  0  0  0  0  0  0  0  0  0  0
   25.2463  -20.4253  -12.7265 C   0  0  0  0  0  0  0  0  0  0  0  0
   26.5602  -20.4915  -13.1402 C   0  0  0  0  0  0  0  0  0  0  0  0
   27.3232  -20.6721  -12.0202 N   0  0  0  0  0  0  0  0  0  0  0  0
   26.5120  -20.7164  -10.9499 C   0  0  0  0  0  0  0  0  0  0  0  0
   26.8077  -20.8819   -9.6039 C   0  0  0  0  0  0  0  0  0  0  0  0
   25.8046  -20.8979   -8.6541 C   0  0  0  0  0  0  0  0  0  0  0  0
   24.4915  -20.7473   -9.0486 C   0  0  0  0  0  0  0  0  0  0  0  0
   24.2192  -20.5843  -10.3890 C   0  0  0  0  0  0  0  0  0  0  0  0
   25.1973  -20.5644  -11.3572 C   0  0  0  0  0  0  0  0  0  0  0  0
   22.0193  -21.3782  -14.4420 C   0  0  0  0  0  0  0  0  0  0  0  0
   21.7778  -20.8483  -15.5821 O   0  0  0  0  0  0  0  0  0  0  0  0
   18.6061  -22.6964  -12.2662 O   0  0  0  0  0  0  0  0  0  0  0  0
   18.7235  -22.7962  -13.6391 C   0  0  0  0  0  0  0  0  0  0  0  0
   19.5240  -21.6239  -14.2250 C   0  0  2  0  0  0  0  0  0  0  0  0
   20.8690  -21.7532  -13.7047 N   0  0  0  0  0  0  0  0  0  0  0  0
   18.8283  -20.4007  -13.8415 C   0  0  0  0  0  0  0  0  0  0  0  0
   19.4062  -19.6720  -12.9676 O   0  0  0  0  0  0  0  0  0  0  0  0
   17.6265  -19.9449  -14.3113 O   0  0  0  0  0  0  0  0  0  0  0  0
  2  1  1  1
  2  3  1  0
  4  3  1  0
  5  4  1  0
  6  5  2  0
  7  2  1  0
  7  8  2  0
  9  5  1  0
 10  7  1  0
 11 10  1  0
 12 13  1  0
 11 12  1  6
 13 21  1  0
 14 13  2  0
 14 15  1  0
 15 16  1  0
 16 17  1  0
 17 18  2  0
 19 18  1  0
 20 19  2  0
 21 16  2  0
 21 20  1  0
 22 27  1  0
 22 11  1  0
 23 22  2  0
 24 25  1  0
 26 25  1  1
 26 27  1  0
 26 28  1  0
 28 30  1  0
 29 28  2  0
M  END
$$$$
