EWS.pdb
     RDKit          3D

 30 31  0  0  1  0  0  0  0  0999 V2000
   27.5018  -22.0627  -14.9960 N   0  0  0  0  0  0  0  0  0  0  0  0
   26.7112  -20.9770  -14.5460 C   0  0  1  0  0  0  0  0  0  0  0  0
   25.6426  -20.4695  -15.4396 C   0  0  0  0  0  0  0  0  0  0  0  0
   26.0237  -19.8305  -16.7098 C   0  0  0  0  0  0  0  0  0  0  0  0
   26.8343  -18.6228  -16.5403 C   0  0  0  0  0  0  0  0  0  0  0  0
   27.9947  -18.4904  -16.9293 O   0  0  0  0  0  0  0  0  0  0  0  0
   26.0912  -21.2384  -13.1933 C   0  0  0  0  0  0  0  0  0  0  0  0
   25.1893  -22.1389  -13.1287 O   0  0  0  0  0  0  0  0  0  0  0  0
   26.2223  -17.5254  -15.8731 O   0  0  0  0  0  0  0  0  0  0  0  0
   26.4404  -20.5618  -12.0146 N   0  0  0  0  0  0  0  0  0  0  0  0
   25.8184  -20.8833  -10.7143 C   0  0  1  0  0  0  0  0  0  0  0  0
   26.7352  -20.2774   -9.6638 C   0  0  0  0  0  0  0  0  0  0  0  0
   26.3331  -20.5237   -8.2833 C   0  0  0  0  0  0  0  0  0  0  0  0
   25.1885  -21.1882   -7.8956 C   0  0  0  0  0  0  0  0  0  0  0  0
   25.1743  -21.1953   -6.5286 N   0  0  0  0  0  0  0  0  0  0  0  0
   26.2705  -20.5582   -6.0838 C   0  0  0  0  0  0  0  0  0  0  0  0
   26.7009  -20.3069   -4.7883 C   0  0  0  0  0  0  0  0  0  0  0  0
   27.8777  -19.6229   -4.5520 C   0  0  0  0  0  0  0  0  0  0  0  0
   28.6353  -19.1838   -5.6178 C   0  0  0  0  0  0  0  0  0  0  0  0
   28.1907  -19.4433   -6.8954 C   0  0  0  0  0  0  0  0  0  0  0  0
   27.0231  -20.1219   -7.1611 C   0  0  0  0  0  0  0  0  0  0  0  0
   24.4403  -20.3973  -10.6657 C   0  0  0  0  0  0  0  0  0  0  0  0
   24.2368  -19.1348  -10.7231 O   0  0  0  0  0  0  0  0  0  0  0  0
   21.0827  -22.8973  -10.5067 O   0  0  0  0  0  0  0  0  0  0  0  0
   21.1312  -21.8431  -11.3983 C   0  0  0  0  0  0  0  0  0  0  0  0
   21.9440  -20.6662  -10.8390 C   0  0  2  0  0  0  0  0  0  0  0  0
   23.2671  -21.1849  -10.5615 N   0  0  0  0  0  0  0  0  0  0  0  0
   21.2206  -20.1651   -9.6759 C   0  0  0  0  0  0  0  0  0  0  0  0
   19.9830  -19.9056   -9.8486 O   0  0  0  0  0  0  0  0  0  0  0  0
   21.7170  -19.9410   -8.4204 O   0  0  0  0  0  0  0  0  0  0  0  0
  2  1  1  6
  2  3  1  0
  4  3  1  0
  5  4  1  0
  6  5  2  0
  7  2  1  0
  7  8  2  0
  9  5  1  0
 10  7  1  0
 11 10  1  0
 12 13  1  0
 11 12  1  1
 13 21  1  0
 14 13  2  0
 14 15  1  0
 15 16  1  0
 16 17  1  0
 17 18  2  0
 19 18  1  0
 20 19  2  0
 21 16  2  0
 21 20  1  0
 22 27  1  0
 22 11  1  0
 23 22  2  0
 24 25  1  0
 26 25  1  1
 26 27  1  0
 26 28  1  0
 28 30  1  0
 29 28  2  0
M  END
$$$$
