EWS.pdb
     RDKit          3D

 30 31  0  0  1  0  0  0  0  0999 V2000
   27.3642  -21.3117   -8.9410 N   0  0  0  0  0  0  0  0  0  0  0  0
   26.1393  -20.6119   -8.8144 C   0  0  1  0  0  0  0  0  0  0  0  0
   26.0848  -19.4548   -7.8892 C   0  0  0  0  0  0  0  0  0  0  0  0
   26.2685  -19.6895   -6.4477 C   0  0  0  0  0  0  0  0  0  0  0  0
   27.6700  -19.8412   -6.0507 C   0  0  0  0  0  0  0  0  0  0  0  0
   28.6334  -19.7519   -6.8117 O   0  0  0  0  0  0  0  0  0  0  0  0
   25.5956  -20.1574  -10.1486 C   0  0  0  0  0  0  0  0  0  0  0  0
   25.7830  -18.9367  -10.4702 O   0  0  0  0  0  0  0  0  0  0  0  0
   27.9240  -20.1127   -4.6775 O   0  0  0  0  0  0  0  0  0  0  0  0
   24.9051  -20.9833  -11.0488 N   0  0  0  0  0  0  0  0  0  0  0  0
   24.5075  -20.5161  -12.3921 C   0  0  1  0  0  0  0  0  0  0  0  0
   25.2246  -21.4325  -13.3704 C   0  0  0  0  0  0  0  0  0  0  0  0
   26.6027  -21.0561  -13.6658 C   0  0  0  0  0  0  0  0  0  0  0  0
   27.7230  -21.6725  -13.1490 C   0  0  0  0  0  0  0  0  0  0  0  0
   28.8099  -21.0183  -13.6584 N   0  0  0  0  0  0  0  0  0  0  0  0
   28.3799  -20.0313  -14.4625 C   0  0  0  0  0  0  0  0  0  0  0  0
   29.0939  -19.0990  -15.2025 C   0  0  0  0  0  0  0  0  0  0  0  0
   28.4422  -18.1565  -15.9743 C   0  0  0  0  0  0  0  0  0  0  0  0
   27.0634  -18.1418  -16.0099 C   0  0  0  0  0  0  0  0  0  0  0  0
   26.3736  -19.0754  -15.2685 C   0  0  0  0  0  0  0  0  0  0  0  0
   26.9955  -20.0257  -14.4909 C   0  0  0  0  0  0  0  0  0  0  0  0
   23.0518  -20.5089  -12.5276 C   0  0  0  0  0  0  0  0  0  0  0  0
   22.3838  -21.4526  -11.9781 O   0  0  0  0  0  0  0  0  0  0  0  0
   19.0365  -18.4783  -14.4595 O   0  0  0  0  0  0  0  0  0  0  0  0
   20.4062  -18.5044  -14.2802 C   0  0  0  0  0  0  0  0  0  0  0  0
   20.8377  -19.6784  -13.3892 C   0  0  2  0  0  0  0  0  0  0  0  0
   22.2693  -19.5485  -13.2153 N   0  0  0  0  0  0  0  0  0  0  0  0
   20.4051  -20.9004  -14.0576 C   0  0  0  0  0  0  0  0  0  0  0  0
   19.2630  -21.3569  -13.7174 O   0  0  0  0  0  0  0  0  0  0  0  0
   21.0839  -21.6139  -15.0079 O   0  0  0  0  0  0  0  0  0  0  0  0
  2  1  1  6
  2  3  1  0
  4  3  1  0
  5  4  1  0
  6  5  2  0
  7  2  1  0
  7  8  2  0
  9  5  1  0
 10  7  1  0
 11 10  1  0
 12 13  1  0
 11 12  1  6
 13 21  1  0
 14 13  2  0
 14 15  1  0
 15 16  1  0
 16 17  1  0
 17 18  2  0
 19 18  1  0
 20 19  2  0
 21 16  2  0
 21 20  1  0
 22 27  1  0
 22 11  1  0
 23 22  2  0
 24 25  1  0
 26 25  1  6
 26 27  1  0
 26 28  1  0
 28 30  1  0
 29 28  2  0
M  END
$$$$
