EWS.pdb
     RDKit          3D

 30 31  0  0  1  0  0  0  0  0999 V2000
   15.4188  -12.1740  -16.3142 N   0  0  0  0  0  0  0  0  0  0  0  0
   16.2653  -11.0908  -16.6550 C   0  0  1  0  0  0  0  0  0  0  0  0
   15.9901  -10.3536  -17.9115 C   0  0  0  0  0  0  0  0  0  0  0  0
   16.2613  -11.0168  -19.1974 C   0  0  0  0  0  0  0  0  0  0  0  0
   15.4099  -12.1814  -19.4492 C   0  0  0  0  0  0  0  0  0  0  0  0
   14.1893  -12.1438  -19.6043 O   0  0  0  0  0  0  0  0  0  0  0  0
   16.3757  -10.0745  -15.5426 C   0  0  0  0  0  0  0  0  0  0  0  0
   15.2935   -9.5336  -15.1366 O   0  0  0  0  0  0  0  0  0  0  0  0
   16.0551  -13.4475  -19.5174 O   0  0  0  0  0  0  0  0  0  0  0  0
   17.5798   -9.6913  -14.9324 N   0  0  0  0  0  0  0  0  0  0  0  0
   17.6286   -8.6580  -13.8784 C   0  0  1  0  0  0  0  0  0  0  0  0
   18.7073   -9.1156  -12.9097 C   0  0  0  0  0  0  0  0  0  0  0  0
   18.9669   -8.2002  -11.8039 C   0  0  0  0  0  0  0  0  0  0  0  0
   18.2838   -8.1873  -10.6060 C   0  0  0  0  0  0  0  0  0  0  0  0
   18.8184   -7.1800   -9.8519 N   0  0  0  0  0  0  0  0  0  0  0  0
   19.7981   -6.5890  -10.5565 C   0  0  0  0  0  0  0  0  0  0  0  0
   20.6296   -5.5281  -10.2251 C   0  0  0  0  0  0  0  0  0  0  0  0
   21.5851   -5.0718  -11.1124 C   0  0  0  0  0  0  0  0  0  0  0  0
   21.7146   -5.6786  -12.3443 C   0  0  0  0  0  0  0  0  0  0  0  0
   20.8799   -6.7297  -12.6538 C   0  0  0  0  0  0  0  0  0  0  0  0
   19.9194   -7.2055  -11.7904 C   0  0  0  0  0  0  0  0  0  0  0  0
   17.8600   -7.3366  -14.4596 C   0  0  0  0  0  0  0  0  0  0  0  0
   18.7192   -7.2272  -15.4023 O   0  0  0  0  0  0  0  0  0  0  0  0
   16.2408   -2.9060  -15.4386 O   0  0  0  0  0  0  0  0  0  0  0  0
   16.1428   -4.1052  -14.7595 C   0  0  0  0  0  0  0  0  0  0  0  0
   17.4756   -4.8680  -14.7636 C   0  0  2  0  0  0  0  0  0  0  0  0
   17.2232   -6.1255  -14.0917 N   0  0  0  0  0  0  0  0  0  0  0  0
   18.4593   -4.0080  -14.1156 C   0  0  0  0  0  0  0  0  0  0  0  0
   18.4635   -4.0157  -12.8394 O   0  0  0  0  0  0  0  0  0  0  0  0
   19.3783   -3.1932  -14.7193 O   0  0  0  0  0  0  0  0  0  0  0  0
  2  1  1  1
  2  3  1  0
  4  3  1  0
  5  4  1  0
  6  5  2  0
  7  2  1  0
  7  8  2  0
  9  5  1  0
 10  7  1  0
 11 10  1  0
 12 13  1  0
 11 12  1  1
 13 21  1  0
 14 13  2  0
 14 15  1  0
 15 16  1  0
 16 17  1  0
 17 18  2  0
 19 18  1  0
 20 19  2  0
 21 16  2  0
 21 20  1  0
 22 27  1  0
 22 11  1  0
 23 22  2  0
 24 25  1  0
 26 25  1  1
 26 27  1  0
 26 28  1  0
 28 30  1  0
 29 28  2  0
M  END
$$$$
