EWS.pdb
     RDKit          3D

 30 31  0  0  1  0  0  0  0  0999 V2000
   21.1392  -13.0081  -17.1203 N   0  0  0  0  0  0  0  0  0  0  0  0
   20.7159  -11.6935  -17.4349 C   0  0  1  0  0  0  0  0  0  0  0  0
   19.3063  -11.3257  -17.1600 C   0  0  0  0  0  0  0  0  0  0  0  0
   18.2321  -12.1136  -17.7864 C   0  0  0  0  0  0  0  0  0  0  0  0
   18.3752  -12.2537  -19.2370 C   0  0  0  0  0  0  0  0  0  0  0  0
   18.1249  -13.2756  -19.8762 O   0  0  0  0  0  0  0  0  0  0  0  0
   21.5955  -10.6393  -16.8045 C   0  0  0  0  0  0  0  0  0  0  0  0
   21.8584  -10.7650  -15.5621 O   0  0  0  0  0  0  0  0  0  0  0  0
   18.8404  -11.1144  -19.9508 O   0  0  0  0  0  0  0  0  0  0  0  0
   22.1375   -9.5419  -17.4907 N   0  0  0  0  0  0  0  0  0  0  0  0
   23.0587   -8.5890  -16.8393 C   0  0  1  0  0  0  0  0  0  0  0  0
   24.2477   -8.4657  -17.7785 C   0  0  0  0  0  0  0  0  0  0  0  0
   25.0971   -9.6495  -17.8512 C   0  0  0  0  0  0  0  0  0  0  0  0
   25.2542  -10.4476  -18.9648 C   0  0  0  0  0  0  0  0  0  0  0  0
   26.1161  -11.4509  -18.6191 N   0  0  0  0  0  0  0  0  0  0  0  0
   26.4809  -11.2816  -17.3370 C   0  0  0  0  0  0  0  0  0  0  0  0
   27.3316  -12.0326  -16.5376 C   0  0  0  0  0  0  0  0  0  0  0  0
   27.5708  -11.6751  -15.2248 C   0  0  0  0  0  0  0  0  0  0  0  0
   26.9560  -10.5568  -14.7013 C   0  0  0  0  0  0  0  0  0  0  0  0
   26.1156   -9.8252  -15.5111 C   0  0  0  0  0  0  0  0  0  0  0  0
   25.8584  -10.1571  -16.8219 C   0  0  0  0  0  0  0  0  0  0  0  0
   22.3802   -7.3255  -16.5549 C   0  0  0  0  0  0  0  0  0  0  0  0
   21.8200   -6.7031  -17.5232 O   0  0  0  0  0  0  0  0  0  0  0  0
   20.6679   -6.4983  -13.1087 O   0  0  0  0  0  0  0  0  0  0  0  0
   20.3151   -5.7976  -14.2460 C   0  0  0  0  0  0  0  0  0  0  0  0
   21.5432   -5.4502  -15.1000 C   0  0  2  0  0  0  0  0  0  0  0  0
   22.2646   -6.6906  -15.2935 N   0  0  0  0  0  0  0  0  0  0  0  0
   22.2784   -4.4133  -14.3848 C   0  0  0  0  0  0  0  0  0  0  0  0
   23.4524   -4.7220  -13.9911 O   0  0  0  0  0  0  0  0  0  0  0  0
   21.8533   -3.1469  -14.0872 O   0  0  0  0  0  0  0  0  0  0  0  0
  2  1  1  1
  2  3  1  0
  4  3  1  0
  5  4  1  0
  6  5  2  0
  7  2  1  0
  7  8  2  0
  9  5  1  0
 10  7  1  0
 11 10  1  0
 12 13  1  0
 11 12  1  6
 13 21  1  0
 14 13  2  0
 14 15  1  0
 15 16  1  0
 16 17  1  0
 17 18  2  0
 19 18  1  0
 20 19  2  0
 21 16  2  0
 21 20  1  0
 22 27  1  0
 22 11  1  0
 23 22  2  0
 24 25  1  0
 26 25  1  1
 26 27  1  0
 26 28  1  0
 28 30  1  0
 29 28  2  0
M  END
$$$$
