EWS.pdb
     RDKit          3D

 30 31  0  0  1  0  0  0  0  0999 V2000
   29.0055  -23.8026  -17.8203 N   0  0  0  0  0  0  0  0  0  0  0  0
   27.7912  -23.7922  -17.0912 C   0  0  1  0  0  0  0  0  0  0  0  0
   27.3366  -25.0578  -16.4673 C   0  0  0  0  0  0  0  0  0  0  0  0
   26.4519  -25.9496  -17.2347 C   0  0  0  0  0  0  0  0  0  0  0  0
   25.1407  -25.3670  -17.5278 C   0  0  0  0  0  0  0  0  0  0  0  0
   24.8557  -24.7488  -18.5534 O   0  0  0  0  0  0  0  0  0  0  0  0
   27.7695  -22.7223  -16.0247 C   0  0  0  0  0  0  0  0  0  0  0  0
   28.8929  -22.3543  -15.5440 O   0  0  0  0  0  0  0  0  0  0  0  0
   24.1273  -25.5351  -16.5436 O   0  0  0  0  0  0  0  0  0  0  0  0
   26.6049  -22.1124  -15.5340 N   0  0  0  0  0  0  0  0  0  0  0  0
   26.6536  -20.9954  -14.5692 C   0  0  1  0  0  0  0  0  0  0  0  0
   25.9582  -19.8322  -15.2580 C   0  0  0  0  0  0  0  0  0  0  0  0
   26.8524  -18.8847  -15.9143 C   0  0  0  0  0  0  0  0  0  0  0  0
   27.7843  -19.2084  -16.8780 C   0  0  0  0  0  0  0  0  0  0  0  0
   28.4210  -18.0490  -17.2236 N   0  0  0  0  0  0  0  0  0  0  0  0
   27.9030  -17.0419  -16.5004 C   0  0  0  0  0  0  0  0  0  0  0  0
   28.2141  -15.6893  -16.4907 C   0  0  0  0  0  0  0  0  0  0  0  0
   27.5474  -14.8141  -15.6551 C   0  0  0  0  0  0  0  0  0  0  0  0
   26.5593  -15.2909  -14.8191 C   0  0  0  0  0  0  0  0  0  0  0  0
   26.2657  -16.6365  -14.8440 C   0  0  0  0  0  0  0  0  0  0  0  0
   26.9129  -17.5315  -15.6653 C   0  0  0  0  0  0  0  0  0  0  0  0
   26.0555  -21.3869  -13.2937 C   0  0  0  0  0  0  0  0  0  0  0  0
   25.0220  -22.1421  -13.3114 O   0  0  0  0  0  0  0  0  0  0  0  0
   25.7496  -20.4806   -8.4944 O   0  0  0  0  0  0  0  0  0  0  0  0
   26.4236  -20.3966   -9.6975 C   0  0  0  0  0  0  0  0  0  0  0  0
   25.6647  -21.1158  -10.8224 C   0  0  2  0  0  0  0  0  0  0  0  0
   26.5013  -21.0188  -12.0002 N   0  0  0  0  0  0  0  0  0  0  0  0
   24.3615  -20.4707  -10.9355 C   0  0  0  0  0  0  0  0  0  0  0  0
   24.3170  -19.4057  -11.6373 O   0  0  0  0  0  0  0  0  0  0  0  0
   23.1808  -20.8765  -10.3751 O   0  0  0  0  0  0  0  0  0  0  0  0
  2  1  1  1
  2  3  1  0
  4  3  1  0
  5  4  1  0
  6  5  2  0
  7  2  1  0
  7  8  2  0
  9  5  1  0
 10  7  1  0
 11 10  1  0
 12 13  1  0
 11 12  1  6
 13 21  1  0
 14 13  2  0
 14 15  1  0
 15 16  1  0
 16 17  1  0
 17 18  2  0
 19 18  1  0
 20 19  2  0
 21 16  2  0
 21 20  1  0
 22 27  1  0
 22 11  1  0
 23 22  2  0
 24 25  1  0
 26 25  1  1
 26 27  1  0
 26 28  1  0
 28 30  1  0
 29 28  2  0
M  END
$$$$
