EWS.pdb
     RDKit          3D

 30 31  0  0  1  0  0  0  0  0999 V2000
   26.5451  -23.8924  -16.7464 N   0  0  0  0  0  0  0  0  0  0  0  0
   25.1488  -23.7863  -16.5338 C   0  0  1  0  0  0  0  0  0  0  0  0
   24.4027  -25.0085  -16.1500 C   0  0  0  0  0  0  0  0  0  0  0  0
   24.4998  -26.1989  -17.0105 C   0  0  0  0  0  0  0  0  0  0  0  0
   25.8254  -26.8211  -17.0059 C   0  0  0  0  0  0  0  0  0  0  0  0
   26.5188  -27.0139  -18.0046 O   0  0  0  0  0  0  0  0  0  0  0  0
   24.7988  -22.7047  -15.5388 C   0  0  0  0  0  0  0  0  0  0  0  0
   25.3954  -22.7336  -14.4111 O   0  0  0  0  0  0  0  0  0  0  0  0
   26.3400  -27.2298  -15.7442 O   0  0  0  0  0  0  0  0  0  0  0  0
   23.8693  -21.6798  -15.7727 N   0  0  0  0  0  0  0  0  0  0  0  0
   23.6240  -20.6064  -14.7886 C   0  0  1  0  0  0  0  0  0  0  0  0
   23.6651  -19.3100  -15.5817 C   0  0  0  0  0  0  0  0  0  0  0  0
   24.9667  -18.9814  -16.1527 C   0  0  0  0  0  0  0  0  0  0  0  0
   25.1826  -18.5590  -17.4477 C   0  0  0  0  0  0  0  0  0  0  0  0
   26.5295  -18.3709  -17.5874 N   0  0  0  0  0  0  0  0  0  0  0  0
   27.1281  -18.6660  -16.4211 C   0  0  0  0  0  0  0  0  0  0  0  0
   28.4692  -18.6317  -16.0649 C   0  0  0  0  0  0  0  0  0  0  0  0
   28.8739  -18.9811  -14.7910 C   0  0  0  0  0  0  0  0  0  0  0  0
   27.9325  -19.3692  -13.8605 C   0  0  0  0  0  0  0  0  0  0  0  0
   26.6070  -19.3965  -14.2340 C   0  0  0  0  0  0  0  0  0  0  0  0
   26.1746  -19.0541  -15.4950 C   0  0  0  0  0  0  0  0  0  0  0  0
   22.3701  -20.8369  -14.0731 C   0  0  0  0  0  0  0  0  0  0  0  0
   21.3945  -21.3689  -14.7087 O   0  0  0  0  0  0  0  0  0  0  0  0
   21.5175  -19.4741  -10.1852 O   0  0  0  0  0  0  0  0  0  0  0  0
   21.0496  -20.7125  -10.5805 C   0  0  0  0  0  0  0  0  0  0  0  0
   20.8131  -20.7702  -12.0968 C   0  0  2  0  0  0  0  0  0  0  0  0
   22.1006  -20.5333  -12.7156 N   0  0  0  0  0  0  0  0  0  0  0  0
   19.7881  -19.7795  -12.4049 C   0  0  0  0  0  0  0  0  0  0  0  0
   20.1570  -18.7873  -13.1179 O   0  0  0  0  0  0  0  0  0  0  0  0
   18.4759  -19.7916  -12.0167 O   0  0  0  0  0  0  0  0  0  0  0  0
  2  1  1  1
  2  3  1  0
  4  3  1  0
  5  4  1  0
  6  5  2  0
  7  2  1  0
  7  8  2  0
  9  5  1  0
 10  7  1  0
 11 10  1  0
 12 13  1  0
 11 12  1  6
 13 21  1  0
 14 13  2  0
 14 15  1  0
 15 16  1  0
 16 17  1  0
 17 18  2  0
 19 18  1  0
 20 19  2  0
 21 16  2  0
 21 20  1  0
 22 27  1  0
 22 11  1  0
 23 22  2  0
 24 25  1  0
 26 25  1  1
 26 27  1  0
 26 28  1  0
 28 30  1  0
 29 28  2  0
M  END
$$$$
