EWS.pdb
     RDKit          3D

 30 31  0  0  1  0  0  0  0  0999 V2000
   28.2615  -22.5484  -15.5814 N   0  0  0  0  0  0  0  0  0  0  0  0
   27.7854  -21.3333  -15.0307 C   0  0  1  0  0  0  0  0  0  0  0  0
   26.9436  -20.4593  -15.8823 C   0  0  0  0  0  0  0  0  0  0  0  0
   27.5126  -19.9226  -17.1293 C   0  0  0  0  0  0  0  0  0  0  0  0
   28.6887  -19.0751  -16.9219 C   0  0  0  0  0  0  0  0  0  0  0  0
   28.6843  -17.9909  -16.3390 O   0  0  0  0  0  0  0  0  0  0  0  0
   27.0553  -21.5405  -13.7244 C   0  0  0  0  0  0  0  0  0  0  0  0
   25.9795  -22.2260  -13.7593 O   0  0  0  0  0  0  0  0  0  0  0  0
   29.9252  -19.5527  -17.4386 O   0  0  0  0  0  0  0  0  0  0  0  0
   27.4802  -21.0333  -12.4870 N   0  0  0  0  0  0  0  0  0  0  0  0
   26.6662  -21.1733  -11.2628 C   0  0  1  0  0  0  0  0  0  0  0  0
   27.5061  -20.5761  -10.1451 C   0  0  0  0  0  0  0  0  0  0  0  0
   26.8046  -20.3990   -8.8784 C   0  0  0  0  0  0  0  0  0  0  0  0
   25.4344  -20.4033   -8.7215 C   0  0  0  0  0  0  0  0  0  0  0  0
   25.1835  -20.1945   -7.3939 N   0  0  0  0  0  0  0  0  0  0  0  0
   26.3558  -20.0652   -6.7500 C   0  0  0  0  0  0  0  0  0  0  0  0
   26.6237  -19.8423   -5.4064 C   0  0  0  0  0  0  0  0  0  0  0  0
   27.9236  -19.7403   -4.9498 C   0  0  0  0  0  0  0  0  0  0  0  0
   28.9693  -19.8615   -5.8411 C   0  0  0  0  0  0  0  0  0  0  0  0
   28.6821  -20.0824   -7.1699 C   0  0  0  0  0  0  0  0  0  0  0  0
   27.3978  -20.1884   -7.6535 C   0  0  0  0  0  0  0  0  0  0  0  0
   25.3577  -20.5446  -11.4367 C   0  0  0  0  0  0  0  0  0  0  0  0
   25.3143  -19.3173  -11.7980 O   0  0  0  0  0  0  0  0  0  0  0  0
   20.9512  -20.7358  -13.0091 O   0  0  0  0  0  0  0  0  0  0  0  0
   22.1982  -21.2423  -12.6974 C   0  0  0  0  0  0  0  0  0  0  0  0
   22.8436  -20.4789  -11.5316 C   0  0  2  0  0  0  0  0  0  0  0  0
   24.0927  -21.1544  -11.2487 N   0  0  0  0  0  0  0  0  0  0  0  0
   21.8792  -20.4800  -10.4375 C   0  0  0  0  0  0  0  0  0  0  0  0
   22.0561  -21.3585   -9.5288 O   0  0  0  0  0  0  0  0  0  0  0  0
   20.8059  -19.6469  -10.2736 O   0  0  0  0  0  0  0  0  0  0  0  0
  2  1  1  6
  2  3  1  0
  4  3  1  0
  5  4  1  0
  6  5  2  0
  7  2  1  0
  7  8  2  0
  9  5  1  0
 10  7  1  0
 11 10  1  0
 12 13  1  0
 11 12  1  1
 13 21  1  0
 14 13  2  0
 14 15  1  0
 15 16  1  0
 16 17  1  0
 17 18  2  0
 19 18  1  0
 20 19  2  0
 21 16  2  0
 21 20  1  0
 22 27  1  0
 22 11  1  0
 23 22  2  0
 24 25  1  0
 26 25  1  6
 26 27  1  0
 26 28  1  0
 28 30  1  0
 29 28  2  0
M  END
$$$$
