EWS.pdb
     RDKit          3D

 30 31  0  0  1  0  0  0  0  0999 V2000
   28.4412  -22.2613  -16.1442 N   0  0  0  0  0  0  0  0  0  0  0  0
   28.2572  -21.0754  -15.3919 C   0  0  1  0  0  0  0  0  0  0  0  0
   27.7545  -19.8701  -16.0937 C   0  0  0  0  0  0  0  0  0  0  0  0
   26.6886  -20.0261  -17.0969 C   0  0  0  0  0  0  0  0  0  0  0  0
   27.1679  -20.5084  -18.3939 C   0  0  0  0  0  0  0  0  0  0  0  0
   27.8269  -19.8453  -19.1947 O   0  0  0  0  0  0  0  0  0  0  0  0
   27.3869  -21.2940  -14.1765 C   0  0  0  0  0  0  0  0  0  0  0  0
   26.4431  -22.1467  -14.2801 O   0  0  0  0  0  0  0  0  0  0  0  0
   26.8400  -21.8480  -18.7434 O   0  0  0  0  0  0  0  0  0  0  0  0
   27.5483  -20.6269  -12.9526 N   0  0  0  0  0  0  0  0  0  0  0  0
   26.6969  -20.9218  -11.7825 C   0  0  1  0  0  0  0  0  0  0  0  0
   27.3814  -20.2516  -10.6020 C   0  0  0  0  0  0  0  0  0  0  0  0
   26.6611  -20.3522   -9.3375 C   0  0  0  0  0  0  0  0  0  0  0  0
   25.2951  -20.4929   -9.2101 C   0  0  0  0  0  0  0  0  0  0  0  0
   25.0210  -20.5369   -7.8714 N   0  0  0  0  0  0  0  0  0  0  0  0
   26.1753  -20.4274   -7.1924 C   0  0  0  0  0  0  0  0  0  0  0  0
   26.4170  -20.4190   -5.8256 C   0  0  0  0  0  0  0  0  0  0  0  0
   27.7018  -20.2937   -5.3332 C   0  0  0  0  0  0  0  0  0  0  0  0
   28.7585  -20.1755   -6.2118 C   0  0  0  0  0  0  0  0  0  0  0  0
   28.4974  -20.1862   -7.5641 C   0  0  0  0  0  0  0  0  0  0  0  0
   27.2287  -20.3094   -8.0833 C   0  0  0  0  0  0  0  0  0  0  0  0
   25.3238  -20.4772  -12.0164 C   0  0  0  0  0  0  0  0  0  0  0  0
   25.1160  -19.2349  -12.2450 O   0  0  0  0  0  0  0  0  0  0  0  0
   21.7856  -22.8346  -11.6850 O   0  0  0  0  0  0  0  0  0  0  0  0
   22.0048  -21.9953  -12.7603 C   0  0  0  0  0  0  0  0  0  0  0  0
   22.8490  -20.7756  -12.3630 C   0  0  2  0  0  0  0  0  0  0  0  0
   24.1605  -21.2859  -12.0221 N   0  0  0  0  0  0  0  0  0  0  0  0
   22.1443  -20.1074  -11.2750 C   0  0  0  0  0  0  0  0  0  0  0  0
   22.5691  -20.3461  -10.0954 O   0  0  0  0  0  0  0  0  0  0  0  0
   21.0792  -19.2537  -11.3738 O   0  0  0  0  0  0  0  0  0  0  0  0
  2  1  1  6
  2  3  1  0
  4  3  1  0
  5  4  1  0
  6  5  2  0
  7  2  1  0
  7  8  2  0
  9  5  1  0
 10  7  1  0
 11 10  1  0
 12 13  1  0
 11 12  1  1
 13 21  1  0
 14 13  2  0
 14 15  1  0
 15 16  1  0
 16 17  1  0
 17 18  2  0
 19 18  1  0
 20 19  2  0
 21 16  2  0
 21 20  1  0
 22 27  1  0
 22 11  1  0
 23 22  2  0
 24 25  1  0
 26 25  1  1
 26 27  1  0
 26 28  1  0
 28 30  1  0
 29 28  2  0
M  END
$$$$
