EWS.pdb
     RDKit          3D

 30 31  0  0  1  0  0  0  0  0999 V2000
   28.8846  -20.6194  -15.3927 N   0  0  0  0  0  0  0  0  0  0  0  0
   27.7888  -21.5107  -15.4977 C   0  0  1  0  0  0  0  0  0  0  0  0
   28.0293  -22.8526  -16.0803 C   0  0  0  0  0  0  0  0  0  0  0  0
   28.6976  -22.9489  -17.3884 C   0  0  0  0  0  0  0  0  0  0  0  0
   28.4311  -21.8104  -18.2700 C   0  0  0  0  0  0  0  0  0  0  0  0
   27.3180  -21.4771  -18.6765 O   0  0  0  0  0  0  0  0  0  0  0  0
   27.0764  -21.7047  -14.1797 C   0  0  0  0  0  0  0  0  0  0  0  0
   26.0197  -22.4201  -14.1870 O   0  0  0  0  0  0  0  0  0  0  0  0
   29.5531  -21.0385  -18.6812 O   0  0  0  0  0  0  0  0  0  0  0  0
   27.4983  -21.1550  -12.9595 N   0  0  0  0  0  0  0  0  0  0  0  0
   26.7210  -21.3234  -11.7151 C   0  0  1  0  0  0  0  0  0  0  0  0
   27.6661  -20.9351  -10.5894 C   0  0  0  0  0  0  0  0  0  0  0  0
   27.0144  -20.6190   -9.3231 C   0  0  0  0  0  0  0  0  0  0  0  0
   25.6556  -20.4632   -9.1459 C   0  0  0  0  0  0  0  0  0  0  0  0
   25.4564  -20.1627   -7.8272 N   0  0  0  0  0  0  0  0  0  0  0  0
   26.6486  -20.1330   -7.2081 C   0  0  0  0  0  0  0  0  0  0  0  0
   26.9669  -19.8755   -5.8818 C   0  0  0  0  0  0  0  0  0  0  0  0
   28.2791  -19.8963   -5.4504 C   0  0  0  0  0  0  0  0  0  0  0  0
   29.2867  -20.1767   -6.3496 C   0  0  0  0  0  0  0  0  0  0  0  0
   28.9499  -20.4295   -7.6611 C   0  0  0  0  0  0  0  0  0  0  0  0
   27.6521  -20.4157   -8.1195 C   0  0  0  0  0  0  0  0  0  0  0  0
   25.4876  -20.5399  -11.7653 C   0  0  0  0  0  0  0  0  0  0  0  0
   25.5777  -19.2677  -11.8749 O   0  0  0  0  0  0  0  0  0  0  0  0
   22.4334  -21.6125  -13.6957 O   0  0  0  0  0  0  0  0  0  0  0  0
   22.5372  -20.2964  -13.2884 C   0  0  0  0  0  0  0  0  0  0  0  0
   22.9959  -20.1912  -11.8266 C   0  0  2  0  0  0  0  0  0  0  0  0
   24.1631  -21.0397  -11.7075 N   0  0  0  0  0  0  0  0  0  0  0  0
   21.8618  -20.5807  -10.9965 C   0  0  0  0  0  0  0  0  0  0  0  0
   22.0163  -21.6279  -10.2835 O   0  0  0  0  0  0  0  0  0  0  0  0
   20.6506  -19.9519  -10.8945 O   0  0  0  0  0  0  0  0  0  0  0  0
  2  1  1  1
  2  3  1  0
  4  3  1  0
  5  4  1  0
  6  5  2  0
  7  2  1  0
  7  8  2  0
  9  5  1  0
 10  7  1  0
 11 10  1  0
 12 13  1  0
 11 12  1  1
 13 21  1  0
 14 13  2  0
 14 15  1  0
 15 16  1  0
 16 17  1  0
 17 18  2  0
 19 18  1  0
 20 19  2  0
 21 16  2  0
 21 20  1  0
 22 27  1  0
 22 11  1  0
 23 22  2  0
 24 25  1  0
 26 25  1  6
 26 27  1  0
 26 28  1  0
 28 30  1  0
 29 28  2  0
M  END
$$$$
