EWS.pdb
     RDKit          3D

 30 31  0  0  1  0  0  0  0  0999 V2000
   28.5997  -18.9514  -14.4579 N   0  0  0  0  0  0  0  0  0  0  0  0
   27.7378  -20.0414  -14.7325 C   0  0  1  0  0  0  0  0  0  0  0  0
   28.2769  -21.1841  -15.5080 C   0  0  0  0  0  0  0  0  0  0  0  0
   28.7500  -20.9491  -16.8820 C   0  0  0  0  0  0  0  0  0  0  0  0
   28.1395  -19.7821  -17.5224 C   0  0  0  0  0  0  0  0  0  0  0  0
   28.6943  -18.6957  -17.6871 O   0  0  0  0  0  0  0  0  0  0  0  0
   27.0976  -20.5978  -13.4823 C   0  0  0  0  0  0  0  0  0  0  0  0
   26.5289  -21.7364  -13.5749 O   0  0  0  0  0  0  0  0  0  0  0  0
   26.8022  -19.9282  -17.9852 O   0  0  0  0  0  0  0  0  0  0  0  0
   27.0887  -19.9498  -12.2377 N   0  0  0  0  0  0  0  0  0  0  0  0
   26.4718  -20.5596  -11.0424 C   0  0  1  0  0  0  0  0  0  0  0  0
   27.1403  -19.8894   -9.8528 C   0  0  0  0  0  0  0  0  0  0  0  0
   26.6486  -20.3218   -8.5492 C   0  0  0  0  0  0  0  0  0  0  0  0
   25.4481  -20.9628   -8.3254 C   0  0  0  0  0  0  0  0  0  0  0  0
   25.3575  -21.1827   -6.9791 N   0  0  0  0  0  0  0  0  0  0  0  0
   26.4619  -20.6958   -6.3886 C   0  0  0  0  0  0  0  0  0  0  0  0
   26.8332  -20.6788   -5.0512 C   0  0  0  0  0  0  0  0  0  0  0  0
   28.0321  -20.1184   -4.6550 C   0  0  0  0  0  0  0  0  0  0  0  0
   28.8716  -19.5683   -5.6012 C   0  0  0  0  0  0  0  0  0  0  0  0
   28.4847  -19.5953   -6.9229 C   0  0  0  0  0  0  0  0  0  0  0  0
   27.2969  -20.1464   -7.3468 C   0  0  0  0  0  0  0  0  0  0  0  0
   25.0176  -20.4138  -11.0791 C   0  0  0  0  0  0  0  0  0  0  0  0
   24.5245  -19.2336  -11.1335 O   0  0  0  0  0  0  0  0  0  0  0  0
   20.7114  -22.5561  -11.9054 O   0  0  0  0  0  0  0  0  0  0  0  0
   22.0832  -22.6053  -11.7496 C   0  0  0  0  0  0  0  0  0  0  0  0
   22.6546  -21.2416  -11.3347 C   0  0  2  0  0  0  0  0  0  0  0  0
   24.0603  -21.4583  -11.0635 N   0  0  0  0  0  0  0  0  0  0  0  0
   21.8695  -20.7810  -10.1952 C   0  0  0  0  0  0  0  0  0  0  0  0
   22.4239  -20.8794   -9.0499 O   0  0  0  0  0  0  0  0  0  0  0  0
   20.6060  -20.2555  -10.2132 O   0  0  0  0  0  0  0  0  0  0  0  0
  2  1  1  1
  2  3  1  0
  4  3  1  0
  5  4  1  0
  6  5  2  0
  7  2  1  0
  7  8  2  0
  9  5  1  0
 10  7  1  0
 11 10  1  0
 12 13  1  0
 11 12  1  1
 13 21  1  0
 14 13  2  0
 14 15  1  0
 15 16  1  0
 16 17  1  0
 17 18  2  0
 19 18  1  0
 20 19  2  0
 21 16  2  0
 21 20  1  0
 22 27  1  0
 22 11  1  0
 23 22  2  0
 24 25  1  0
 26 25  1  1
 26 27  1  0
 26 28  1  0
 28 30  1  0
 29 28  2  0
M  END
$$$$
