HPP.pdb
     RDKit          3D

 25 27  0  0  1  0  0  0  0  0999 V2000
   22.6922  -20.9407  -16.3745 N   0  0  0  0  0  0  0  0  0  0  0  0
   23.2652  -20.0768  -15.4098 C   0  0  1  0  0  0  0  0  0  0  0  0
   22.1237  -19.2732  -14.7653 C   0  0  0  0  0  0  0  0  0  0  0  0
   21.4643  -18.4094  -15.7891 C   0  0  0  0  0  0  0  0  0  0  0  0
   21.9670  -17.3229  -16.4633 C   0  0  0  0  0  0  0  0  0  0  0  0
   21.0389  -16.8424  -17.2893 N   0  0  0  0  0  0  0  0  0  0  0  0
   19.9462  -17.6048  -17.1556 C   0  0  0  0  0  0  0  0  0  0  0  0
   20.1926  -18.5628  -16.2444 N   0  0  0  0  0  0  0  0  0  0  0  0
   24.1495  -20.6595  -14.4164 C   0  0  0  0  0  0  0  0  0  0  0  0
   23.7590  -21.7676  -13.9055 O   0  0  0  0  0  0  0  0  0  0  0  0
   25.3868  -20.1607  -13.9386 N   0  0  0  0  0  0  0  0  0  0  0  0
   26.1008  -19.0449  -14.4903 C   0  0  0  0  0  0  0  0  0  0  0  0
   27.5264  -19.2583  -14.0979 C   0  0  0  0  0  0  0  0  0  0  0  0
   27.5578  -20.6624  -13.4635 C   0  0  0  0  0  0  0  0  0  0  0  0
   26.1796  -20.6399  -12.8230 C   0  0  1  0  0  0  0  0  0  0  0  0
   26.0815  -19.8189  -11.6338 C   0  0  0  0  0  0  0  0  0  0  0  0
   25.7935  -18.6010  -11.7359 O   0  0  0  0  0  0  0  0  0  0  0  0
   26.2995  -20.3483  -10.3534 N   0  0  0  0  0  0  0  0  0  0  0  0
   27.1556  -21.5025  -10.0727 C   0  0  0  0  0  0  0  0  0  0  0  0
   26.5515  -22.1626   -8.8796 C   0  0  0  0  0  0  0  0  0  0  0  0
   25.4272  -21.2749   -8.4572 C   0  0  0  0  0  0  0  0  0  0  0  0
   25.7667  -19.9335   -9.0642 C   0  0  1  0  0  0  0  0  0  0  0  0
   26.8177  -19.3189   -8.2052 C   0  0  0  0  0  0  0  0  0  0  0  0
   28.0115  -19.4465   -8.5653 O   0  0  0  0  0  0  0  0  0  0  0  0
   26.5288  -18.6271   -7.0490 O   0  0  0  0  0  0  0  0  0  0  0  0
  2  1  1  1
  3  2  1  0
  4  3  1  0
  5  4  2  0
  6  5  1  0
  7  6  1  0
  7  8  2  0
  8  4  1  0
  9  2  1  0
  9 11  1  0
 10  9  2  0
 11 15  1  0
 12 11  1  0
 12 13  1  0
 13 14  1  0
 15 14  1  0
 15 16  1  1
 16 17  2  0
 18 22  1  0
 18 16  1  0
 19 18  1  0
 20 19  1  0
 20 21  1  0
 21 22  1  0
 23 25  1  0
 22 23  1  1
 24 23  2  0
M  END
$$$$
