HPP.pdb
     RDKit          3D

 25 27  0  0  1  0  0  0  0  0999 V2000
   21.8949  -19.1569  -15.1813 N   0  0  0  0  0  0  0  0  0  0  0  0
   22.9261  -19.9737  -14.6571 C   0  0  1  0  0  0  0  0  0  0  0  0
   22.3979  -21.4168  -14.6040 C   0  0  0  0  0  0  0  0  0  0  0  0
   21.1348  -21.4706  -13.8097 C   0  0  0  0  0  0  0  0  0  0  0  0
   20.9670  -21.5863  -12.4510 C   0  0  0  0  0  0  0  0  0  0  0  0
   19.6667  -21.5974  -12.1618 N   0  0  0  0  0  0  0  0  0  0  0  0
   18.9958  -21.4907  -13.3159 C   0  0  0  0  0  0  0  0  0  0  0  0
   19.8790  -21.4130  -14.3272 N   0  0  0  0  0  0  0  0  0  0  0  0
   24.2362  -19.8957  -15.2783 C   0  0  0  0  0  0  0  0  0  0  0  0
   24.2585  -19.4365  -16.4741 O   0  0  0  0  0  0  0  0  0  0  0  0
   25.4918  -20.2628  -14.7337 N   0  0  0  0  0  0  0  0  0  0  0  0
   25.7012  -20.8039  -13.4212 C   0  0  0  0  0  0  0  0  0  0  0  0
   27.1196  -20.4777  -13.0839 C   0  0  0  0  0  0  0  0  0  0  0  0
   27.5977  -19.5580  -14.2244 C   0  0  0  0  0  0  0  0  0  0  0  0
   26.7995  -20.1854  -15.3555 C   0  0  1  0  0  0  0  0  0  0  0  0
   27.3094  -21.4600  -15.8176 C   0  0  0  0  0  0  0  0  0  0  0  0
   27.0146  -22.5130  -15.2006 O   0  0  0  0  0  0  0  0  0  0  0  0
   28.1324  -21.5573  -16.9491 N   0  0  0  0  0  0  0  0  0  0  0  0
   29.0780  -20.5228  -17.3729 C   0  0  0  0  0  0  0  0  0  0  0  0
   29.1429  -20.6307  -18.8591 C   0  0  0  0  0  0  0  0  0  0  0  0
   28.3065  -21.8168  -19.2113 C   0  0  0  0  0  0  0  0  0  0  0  0
   28.2500  -22.6222  -17.9341 C   0  0  1  0  0  0  0  0  0  0  0  0
   29.5485  -23.3431  -17.8145 C   0  0  0  0  0  0  0  0  0  0  0  0
   29.7387  -24.3279  -18.5664 O   0  0  0  0  0  0  0  0  0  0  0  0
   30.5308  -22.9720  -16.9223 O   0  0  0  0  0  0  0  0  0  0  0  0
  2  1  1  6
  3  2  1  0
  4  3  1  0
  5  4  2  0
  6  5  1  0
  7  6  1  0
  7  8  2  0
  8  4  1  0
  9  2  1  0
  9 11  1  0
 10  9  2  0
 11 15  1  0
 12 11  1  0
 12 13  1  0
 13 14  1  0
 15 14  1  0
 15 16  1  1
 16 17  2  0
 18 22  1  0
 18 16  1  0
 19 18  1  0
 20 19  1  0
 20 21  1  0
 21 22  1  0
 23 25  1  0
 22 23  1  1
 24 23  2  0
M  END
$$$$
