HPP.pdb
     RDKit          3D

 25 27  0  0  1  0  0  0  0  0999 V2000
   19.7362  -15.4593  -17.8573 N   0  0  0  0  0  0  0  0  0  0  0  0
   19.4500  -14.1013  -17.5757 C   0  0  1  0  0  0  0  0  0  0  0  0
   18.7584  -14.0442  -16.2036 C   0  0  0  0  0  0  0  0  0  0  0  0
   17.4752  -14.8065  -16.2451 C   0  0  0  0  0  0  0  0  0  0  0  0
   17.1970  -16.0659  -15.7718 C   0  0  0  0  0  0  0  0  0  0  0  0
   15.9219  -16.3629  -16.0175 N   0  0  0  0  0  0  0  0  0  0  0  0
   15.3761  -15.3118  -16.6425 C   0  0  0  0  0  0  0  0  0  0  0  0
   16.3123  -14.3572  -16.7872 N   0  0  0  0  0  0  0  0  0  0  0  0
   20.5359  -13.1429  -17.6786 C   0  0  0  0  0  0  0  0  0  0  0  0
   21.7108  -13.6087  -17.4686 O   0  0  0  0  0  0  0  0  0  0  0  0
   20.4638  -11.7601  -17.9796 N   0  0  0  0  0  0  0  0  0  0  0  0
   19.2695  -11.0495  -18.3373 C   0  0  0  0  0  0  0  0  0  0  0  0
   19.7375   -9.8589  -19.1091 C   0  0  0  0  0  0  0  0  0  0  0  0
   21.2497  -10.0821  -19.3054 C   0  0  0  0  0  0  0  0  0  0  0  0
   21.5363  -10.7841  -17.9881 C   0  0  1  0  0  0  0  0  0  0  0  0
   21.5496   -9.9123  -16.8315 C   0  0  0  0  0  0  0  0  0  0  0  0
   20.5192   -9.7957  -16.1235 O   0  0  0  0  0  0  0  0  0  0  0  0
   22.6932   -9.1848  -16.4709 N   0  0  0  0  0  0  0  0  0  0  0  0
   23.8787   -9.0380  -17.3178 C   0  0  0  0  0  0  0  0  0  0  0  0
   25.0263   -8.9107  -16.3737 C   0  0  0  0  0  0  0  0  0  0  0  0
   24.4201   -8.8738  -15.0093 C   0  0  0  0  0  0  0  0  0  0  0  0
   22.9903   -8.4490  -15.2509 C   0  0  1  0  0  0  0  0  0  0  0  0
   23.0054   -6.9775  -15.4843 C   0  0  0  0  0  0  0  0  0  0  0  0
   23.0178   -6.5769  -16.6720 O   0  0  0  0  0  0  0  0  0  0  0  0
   23.0062   -6.0572  -14.4587 O   0  0  0  0  0  0  0  0  0  0  0  0
  2  1  1  1
  3  2  1  0
  4  3  1  0
  5  4  2  0
  6  5  1  0
  7  6  1  0
  7  8  2  0
  8  4  1  0
  9  2  1  0
  9 11  1  0
 10  9  2  0
 11 15  1  0
 12 11  1  0
 12 13  1  0
 13 14  1  0
 15 14  1  0
 15 16  1  1
 16 17  2  0
 18 22  1  0
 18 16  1  0
 19 18  1  0
 20 19  1  0
 20 21  1  0
 21 22  1  0
 23 25  1  0
 22 23  1  6
 24 23  2  0
M  END
$$$$
