HPP.pdb
     RDKit          3D

 25 27  0  0  1  0  0  0  0  0999 V2000
   15.8009  -26.3356  -10.9715 N   0  0  0  0  0  0  0  0  0  0  0  0
   15.7343  -25.5322   -9.8071 C   0  0  1  0  0  0  0  0  0  0  0  0
   14.3137  -24.9502   -9.7215 C   0  0  0  0  0  0  0  0  0  0  0  0
   14.0434  -24.0834  -10.9067 C   0  0  0  0  0  0  0  0  0  0  0  0
   13.0269  -24.1629  -11.8276 C   0  0  0  0  0  0  0  0  0  0  0  0
   13.1627  -23.1894  -12.7267 N   0  0  0  0  0  0  0  0  0  0  0  0
   14.2527  -22.4848  -12.3969 C   0  0  0  0  0  0  0  0  0  0  0  0
   14.7983  -23.0197  -11.2899 N   0  0  0  0  0  0  0  0  0  0  0  0
   16.1580  -26.1222   -8.5499 C   0  0  0  0  0  0  0  0  0  0  0  0
   15.8187  -27.3440   -8.3664 O   0  0  0  0  0  0  0  0  0  0  0  0
   16.8962  -25.5214   -7.5001 N   0  0  0  0  0  0  0  0  0  0  0  0
   17.3798  -24.1704   -7.4929 C   0  0  0  0  0  0  0  0  0  0  0  0
   18.5368  -24.1728   -6.5477 C   0  0  0  0  0  0  0  0  0  0  0  0
   18.7600  -25.6567   -6.1968 C   0  0  0  0  0  0  0  0  0  0  0  0
   17.3094  -26.1085   -6.2402 C   0  0  1  0  0  0  0  0  0  0  0  0
   16.5138  -25.6892   -5.1048 C   0  0  0  0  0  0  0  0  0  0  0  0
   15.8818  -24.6051   -5.1495 O   0  0  0  0  0  0  0  0  0  0  0  0
   16.4241  -26.4668   -3.9411 N   0  0  0  0  0  0  0  0  0  0  0  0
   17.4509  -27.4127   -3.4997 C   0  0  0  0  0  0  0  0  0  0  0  0
   16.7136  -28.4877   -2.7750 C   0  0  0  0  0  0  0  0  0  0  0  0
   15.2896  -28.0396   -2.7352 C   0  0  0  0  0  0  0  0  0  0  0  0
   15.3658  -26.5452   -2.9451 C   0  0  1  0  0  0  0  0  0  0  0  0
   15.7835  -25.9427   -1.6480 C   0  0  0  0  0  0  0  0  0  0  0  0
   17.0073  -25.7391   -1.4684 O   0  0  0  0  0  0  0  0  0  0  0  0
   14.8880  -25.6071   -0.6560 O   0  0  0  0  0  0  0  0  0  0  0  0
  2  1  1  6
  3  2  1  0
  4  3  1  0
  5  4  2  0
  6  5  1  0
  7  6  1  0
  7  8  2  0
  8  4  1  0
  9  2  1  0
  9 11  1  0
 10  9  2  0
 11 15  1  0
 12 11  1  0
 12 13  1  0
 13 14  1  0
 15 14  1  0
 15 16  1  1
 16 17  2  0
 18 22  1  0
 18 16  1  0
 19 18  1  0
 20 19  1  0
 20 21  1  0
 21 22  1  0
 23 25  1  0
 22 23  1  1
 24 23  2  0
M  END
$$$$
