HPP.pdb
     RDKit          3D

 25 27  0  0  1  0  0  0  0  0999 V2000
   22.2406  -18.0186  -18.2327 N   0  0  0  0  0  0  0  0  0  0  0  0
   22.7245  -17.6282  -16.9604 C   0  0  1  0  0  0  0  0  0  0  0  0
   21.5082  -17.3117  -16.0747 C   0  0  0  0  0  0  0  0  0  0  0  0
   20.7872  -16.1160  -16.6035 C   0  0  0  0  0  0  0  0  0  0  0  0
   21.2557  -14.8419  -16.8149 C   0  0  0  0  0  0  0  0  0  0  0  0
   20.2752  -14.0808  -17.2985 N   0  0  0  0  0  0  0  0  0  0  0  0
   19.1823  -14.8478  -17.4010 C   0  0  0  0  0  0  0  0  0  0  0  0
   19.4813  -16.0899  -16.9804 N   0  0  0  0  0  0  0  0  0  0  0  0
   23.6694  -18.5068  -16.2944 C   0  0  0  0  0  0  0  0  0  0  0  0
   23.4686  -19.7622  -16.4525 O   0  0  0  0  0  0  0  0  0  0  0  0
   24.7831  -18.1552  -15.4918 N   0  0  0  0  0  0  0  0  0  0  0  0
   25.2445  -16.8177  -15.2520 C   0  0  0  0  0  0  0  0  0  0  0  0
   26.6883  -16.9587  -14.8951 C   0  0  0  0  0  0  0  0  0  0  0  0
   27.0168  -18.4431  -15.1473 C   0  0  0  0  0  0  0  0  0  0  0  0
   25.6718  -19.0310  -14.7529 C   0  0  1  0  0  0  0  0  0  0  0  0
   25.4215  -19.0584  -13.3265 C   0  0  0  0  0  0  0  0  0  0  0  0
   24.7977  -18.1143  -12.7822 O   0  0  0  0  0  0  0  0  0  0  0  0
   25.8584  -20.1212  -12.5224 N   0  0  0  0  0  0  0  0  0  0  0  0
   27.1403  -20.8090  -12.6891 C   0  0  0  0  0  0  0  0  0  0  0  0
   26.8988  -22.2105  -12.2397 C   0  0  0  0  0  0  0  0  0  0  0  0
   25.4989  -22.2288  -11.7200 C   0  0  0  0  0  0  0  0  0  0  0  0
   25.2027  -20.7813  -11.4033 C   0  0  1  0  0  0  0  0  0  0  0  0
   25.8741  -20.4710  -10.1098 C   0  0  0  0  0  0  0  0  0  0  0  0
   27.0229  -19.9715  -10.1558 O   0  0  0  0  0  0  0  0  0  0  0  0
   25.2872  -20.7095   -8.8862 O   0  0  0  0  0  0  0  0  0  0  0  0
  2  1  1  6
  3  2  1  0
  4  3  1  0
  5  4  2  0
  6  5  1  0
  7  6  1  0
  7  8  2  0
  8  4  1  0
  9  2  1  0
  9 11  1  0
 10  9  2  0
 11 15  1  0
 12 11  1  0
 12 13  1  0
 13 14  1  0
 15 14  1  0
 15 16  1  1
 16 17  2  0
 18 22  1  0
 18 16  1  0
 19 18  1  0
 20 19  1  0
 20 21  1  0
 21 22  1  0
 23 25  1  0
 22 23  1  1
 24 23  2  0
M  END
$$$$
