HPP.pdb
     RDKit          3D

 25 27  0  0  1  0  0  0  0  0999 V2000
   22.6652  -19.4351  -17.8411 N   0  0  0  0  0  0  0  0  0  0  0  0
   23.1245  -18.7759  -16.6750 C   0  0  1  0  0  0  0  0  0  0  0  0
   21.8935  -18.2404  -15.9252 C   0  0  0  0  0  0  0  0  0  0  0  0
   21.5202  -16.8936  -16.4504 C   0  0  0  0  0  0  0  0  0  0  0  0
   22.1557  -15.6875  -16.2796 C   0  0  0  0  0  0  0  0  0  0  0  0
   21.4818  -14.7338  -16.9206 N   0  0  0  0  0  0  0  0  0  0  0  0
   20.4214  -15.3098  -17.5011 C   0  0  0  0  0  0  0  0  0  0  0  0
   20.4335  -16.6254  -17.2219 N   0  0  0  0  0  0  0  0  0  0  0  0
   24.0254  -19.4998  -15.7959 C   0  0  0  0  0  0  0  0  0  0  0  0
   23.7149  -20.7210  -15.5644 O   0  0  0  0  0  0  0  0  0  0  0  0
   25.2017  -19.0300  -15.1606 N   0  0  0  0  0  0  0  0  0  0  0  0
   25.7829  -17.7311  -15.3456 C   0  0  0  0  0  0  0  0  0  0  0  0
   27.2257  -17.8930  -14.9933 C   0  0  0  0  0  0  0  0  0  0  0  0
   27.4180  -19.4088  -14.7926 C   0  0  0  0  0  0  0  0  0  0  0  0
   26.0496  -19.7239  -14.2107 C   0  0  1  0  0  0  0  0  0  0  0  0
   25.8670  -19.3003  -12.8377 C   0  0  0  0  0  0  0  0  0  0  0  0
   25.4141  -18.1556  -12.5907 O   0  0  0  0  0  0  0  0  0  0  0  0
   26.1828  -20.1403  -11.7598 N   0  0  0  0  0  0  0  0  0  0  0  0
   27.2230  -21.1703  -11.7937 C   0  0  0  0  0  0  0  0  0  0  0  0
   26.7494  -22.2416  -10.8704 C   0  0  0  0  0  0  0  0  0  0  0  0
   25.4963  -21.7132  -10.2533 C   0  0  0  0  0  0  0  0  0  0  0  0
   25.6003  -20.2160  -10.4282 C   0  0  1  0  0  0  0  0  0  0  0  0
   26.5415  -19.7188   -9.3856 C   0  0  0  0  0  0  0  0  0  0  0  0
   27.7394  -19.5518   -9.7151 O   0  0  0  0  0  0  0  0  0  0  0  0
   26.1487  -19.4409   -8.0944 O   0  0  0  0  0  0  0  0  0  0  0  0
  2  1  1  6
  3  2  1  0
  4  3  1  0
  5  4  2  0
  6  5  1  0
  7  6  1  0
  7  8  2  0
  8  4  1  0
  9  2  1  0
  9 11  1  0
 10  9  2  0
 11 15  1  0
 12 11  1  0
 12 13  1  0
 13 14  1  0
 15 14  1  0
 15 16  1  1
 16 17  2  0
 18 22  1  0
 18 16  1  0
 19 18  1  0
 20 19  1  0
 20 21  1  0
 21 22  1  0
 23 25  1  0
 22 23  1  1
 24 23  2  0
M  END
$$$$
