GAL.pdb
     RDKit          3D

 18 17  0  0  1  0  0  0  0  0999 V2000
    7.6451  -18.0803   19.0451 N   0  0  0  0  0  0  0  0  0  0  0  0
    7.9545  -18.7474   20.2758 C   0  0  0  0  0  0  0  0  0  0  0  0
    7.4628  -17.9956   21.4580 C   0  0  0  0  0  0  0  0  0  0  0  0
    7.3067  -16.7578   21.3387 O   0  0  0  0  0  0  0  0  0  0  0  0
    6.1643  -18.6394   24.9328 C   0  0  0  0  0  0  0  0  0  0  0  0
    6.7040  -17.8047   23.7945 C   0  0  2  0  0  0  0  0  0  0  0  0
    7.1650  -18.5981   22.6974 N   0  0  0  0  0  0  0  0  0  0  0  0
    7.8356  -16.9935   24.3694 C   0  0  0  0  0  0  0  0  0  0  0  0
    9.0281  -17.3983   24.2848 O   0  0  0  0  0  0  0  0  0  0  0  0
    7.3427  -11.7315   27.1673 C   0  0  0  0  0  0  0  0  0  0  0  0
    7.2991  -13.1983   26.8273 C   0  0  1  0  0  0  0  0  0  0  0  0
    5.8379  -13.5021   26.4690 C   0  0  0  0  0  0  0  0  0  0  0  0
    8.0860  -13.5292   25.6005 C   0  0  0  0  0  0  0  0  0  0  0  0
    8.6470  -14.8932   25.5201 C   0  0  2  0  0  0  0  0  0  0  0  0
    7.6082  -15.7690   25.0142 N   0  0  0  0  0  0  0  0  0  0  0  0
    9.2251  -15.4662   26.7079 C   0  0  0  0  0  0  0  0  0  0  0  0
   10.4732  -15.0301   27.1257 O   0  0  0  0  0  0  0  0  0  0  0  0
    8.7102  -16.3541   27.4439 O   0  0  0  0  0  0  0  0  0  0  0  0
  2  3  1  0
  2  1  1  0
  3  4  2  0
  6  5  1  1
  6  8  1  0
  7  6  1  0
  7  3  1  0
  8  9  2  0
 11 10  1  6
 11 12  1  0
 11 13  1  0
 14 13  1  1
 14 16  1  0
 15 14  1  0
 15  8  1  0
 16 18  2  0
 16 17  1  0
M  END
$$$$
