GAL.pdb
     RDKit          3D

 18 17  0  0  1  0  0  0  0  0999 V2000
   11.3618  -18.2555   19.6798 N   0  0  0  0  0  0  0  0  0  0  0  0
   10.0724  -18.2920   20.3055 C   0  0  0  0  0  0  0  0  0  0  0  0
    9.5959  -16.9374   20.6829 C   0  0  0  0  0  0  0  0  0  0  0  0
   10.4579  -16.0764   20.9765 O   0  0  0  0  0  0  0  0  0  0  0  0
    6.4320  -14.9245   20.9077 C   0  0  0  0  0  0  0  0  0  0  0  0
    7.8396  -15.3195   21.2907 C   0  0  2  0  0  0  0  0  0  0  0  0
    8.2344  -16.5735   20.7275 N   0  0  0  0  0  0  0  0  0  0  0  0
    7.8609  -15.3883   22.7953 C   0  0  0  0  0  0  0  0  0  0  0  0
    7.6452  -16.4778   23.3948 O   0  0  0  0  0  0  0  0  0  0  0  0
    7.8435  -11.8469   27.4355 C   0  0  0  0  0  0  0  0  0  0  0  0
    6.8315  -12.7353   26.7602 C   0  0  1  0  0  0  0  0  0  0  0  0
    5.5163  -11.9440   26.7556 C   0  0  0  0  0  0  0  0  0  0  0  0
    7.1513  -12.9829   25.3215 C   0  0  0  0  0  0  0  0  0  0  0  0
    7.9531  -14.1857   25.0177 C   0  0  2  0  0  0  0  0  0  0  0  0
    8.1191  -14.2543   23.5790 N   0  0  0  0  0  0  0  0  0  0  0  0
    7.4926  -15.4574   25.5115 C   0  0  0  0  0  0  0  0  0  0  0  0
    8.3232  -16.1984   26.3382 O   0  0  0  0  0  0  0  0  0  0  0  0
    6.3774  -16.0001   25.2718 O   0  0  0  0  0  0  0  0  0  0  0  0
  2  3  1  0
  2  1  1  0
  3  4  2  0
  6  5  1  6
  6  8  1  0
  7  6  1  0
  7  3  1  0
  8  9  2  0
 11 10  1  6
 11 12  1  0
 11 13  1  0
 14 13  1  6
 14 16  1  0
 15 14  1  0
 15  8  1  0
 16 18  2  0
 16 17  1  0
M  END
$$$$
