GAL.pdb
     RDKit          3D

 18 17  0  0  1  0  0  0  0  0999 V2000
    8.0279  -12.0808   18.8413 N   0  0  0  0  0  0  0  0  0  0  0  0
    8.8663  -13.1531   19.2916 C   0  0  0  0  0  0  0  0  0  0  0  0
    8.2776  -13.8750   20.4478 C   0  0  0  0  0  0  0  0  0  0  0  0
    7.3145  -13.3371   21.0426 O   0  0  0  0  0  0  0  0  0  0  0  0
    8.2360  -17.2939   21.9248 C   0  0  0  0  0  0  0  0  0  0  0  0
    8.0788  -15.7920   21.9832 C   0  0  2  0  0  0  0  0  0  0  0  0
    8.7429  -15.1244   20.9066 N   0  0  0  0  0  0  0  0  0  0  0  0
    8.6567  -15.3611   23.3058 C   0  0  0  0  0  0  0  0  0  0  0  0
    9.8891  -15.1149   23.4224 O   0  0  0  0  0  0  0  0  0  0  0  0
    5.5487  -12.2480   26.5560 C   0  0  0  0  0  0  0  0  0  0  0  0
    6.7061  -12.8494   25.8023 C   0  0  1  0  0  0  0  0  0  0  0  0
    7.8556  -11.8397   25.9243 C   0  0  0  0  0  0  0  0  0  0  0  0
    7.2130  -14.1065   26.4321 C   0  0  0  0  0  0  0  0  0  0  0  0
    8.3300  -14.7880   25.7468 C   0  0  2  0  0  0  0  0  0  0  0  0
    7.8539  -15.2188   24.4470 N   0  0  0  0  0  0  0  0  0  0  0  0
    8.9722  -15.8898   26.4151 C   0  0  0  0  0  0  0  0  0  0  0  0
    9.9457  -15.6242   27.3661 O   0  0  0  0  0  0  0  0  0  0  0  0
    8.7454  -17.1187   26.2310 O   0  0  0  0  0  0  0  0  0  0  0  0
  2  3  1  0
  2  1  1  0
  3  4  2  0
  6  5  1  6
  6  8  1  0
  7  6  1  0
  7  3  1  0
  8  9  2  0
 11 10  1  1
 11 12  1  0
 11 13  1  0
 14 13  1  1
 14 16  1  0
 15 14  1  0
 15  8  1  0
 16 18  2  0
 16 17  1  0
M  END
$$$$
