GAL.pdb
     RDKit          3D

 18 17  0  0  1  0  0  0  0  0999 V2000
    7.8325  -13.0800   17.5847 N   0  0  0  0  0  0  0  0  0  0  0  0
    8.8359  -13.5985   18.4677 C   0  0  0  0  0  0  0  0  0  0  0  0
    8.2453  -14.2424   19.6682 C   0  0  0  0  0  0  0  0  0  0  0  0
    7.2594  -13.6843   20.2042 O   0  0  0  0  0  0  0  0  0  0  0  0
    8.4192  -17.4710   21.5634 C   0  0  0  0  0  0  0  0  0  0  0  0
    8.1053  -16.0034   21.3860 C   0  0  2  0  0  0  0  0  0  0  0  0
    8.7331  -15.4396   20.2311 N   0  0  0  0  0  0  0  0  0  0  0  0
    8.5900  -15.3170   22.6362 C   0  0  0  0  0  0  0  0  0  0  0  0
    9.8128  -15.0452   22.7908 O   0  0  0  0  0  0  0  0  0  0  0  0
    7.9962  -11.5766   26.5071 C   0  0  0  0  0  0  0  0  0  0  0  0
    7.0956  -12.7748   26.6569 C   0  0  1  0  0  0  0  0  0  0  0  0
    5.7060  -12.2154   26.9914 C   0  0  0  0  0  0  0  0  0  0  0  0
    6.9230  -13.5293   25.3784 C   0  0  0  0  0  0  0  0  0  0  0  0
    8.0947  -14.2853   24.8910 C   0  0  2  0  0  0  0  0  0  0  0  0
    7.7083  -14.9575   23.6659 N   0  0  0  0  0  0  0  0  0  0  0  0
    8.7195  -15.2279   25.7822 C   0  0  0  0  0  0  0  0  0  0  0  0
    8.1761  -16.4975   25.9066 O   0  0  0  0  0  0  0  0  0  0  0  0
    9.7446  -15.0281   26.4925 O   0  0  0  0  0  0  0  0  0  0  0  0
  2  3  1  0
  2  1  1  0
  3  4  2  0
  6  5  1  1
  6  8  1  0
  7  6  1  0
  7  3  1  0
  8  9  2  0
 11 10  1  6
 11 12  1  0
 11 13  1  0
 14 13  1  1
 14 16  1  0
 15 14  1  0
 15  8  1  0
 16 18  2  0
 16 17  1  0
M  END
$$$$
