GAL.pdb
     RDKit          3D

 18 17  0  0  1  0  0  0  0  0999 V2000
    5.0757  -19.2806   22.2097 N   0  0  0  0  0  0  0  0  0  0  0  0
    5.1670  -18.0042   22.8561 C   0  0  0  0  0  0  0  0  0  0  0  0
    6.4322  -17.3004   22.5270 C   0  0  0  0  0  0  0  0  0  0  0  0
    7.5017  -17.9464   22.6243 O   0  0  0  0  0  0  0  0  0  0  0  0
    7.6009  -14.0418   21.0585 C   0  0  0  0  0  0  0  0  0  0  0  0
    7.7493  -15.3462   21.8070 C   0  0  2  0  0  0  0  0  0  0  0  0
    6.4912  -15.9535   22.1140 N   0  0  0  0  0  0  0  0  0  0  0  0
    8.4990  -15.0206   23.0723 C   0  0  0  0  0  0  0  0  0  0  0  0
    9.7082  -14.6609   23.0318 O   0  0  0  0  0  0  0  0  0  0  0  0
    5.7292  -12.3658   26.7833 C   0  0  0  0  0  0  0  0  0  0  0  0
    6.8365  -12.8727   25.8966 C   0  0  1  0  0  0  0  0  0  0  0  0
    7.9239  -11.7897   25.9236 C   0  0  0  0  0  0  0  0  0  0  0  0
    7.4888  -14.1043   26.4362 C   0  0  0  0  0  0  0  0  0  0  0  0
    8.5162  -14.7381   25.5850 C   0  0  2  0  0  0  0  0  0  0  0  0
    7.8868  -15.1041   24.3313 N   0  0  0  0  0  0  0  0  0  0  0  0
    9.2381  -15.8676   26.1104 C   0  0  0  0  0  0  0  0  0  0  0  0
   10.1032  -15.6756   27.1769 O   0  0  0  0  0  0  0  0  0  0  0  0
    9.1748  -17.0602   25.6991 O   0  0  0  0  0  0  0  0  0  0  0  0
  2  3  1  0
  2  1  1  0
  3  4  2  0
  6  5  1  1
  6  8  1  0
  7  6  1  0
  7  3  1  0
  8  9  2  0
 11 10  1  1
 11 12  1  0
 11 13  1  0
 14 13  1  1
 14 16  1  0
 15 14  1  0
 15  8  1  0
 16 18  2  0
 16 17  1  0
M  END
$$$$
