EYQ.pdb
     RDKit          3D

 31 31  0  0  1  0  0  0  0  0999 V2000
   10.7175  -16.1616   18.7864 N   0  0  0  0  0  0  0  0  0  0  0  0
    9.7620  -16.9040   19.6411 C   0  0  1  0  0  0  0  0  0  0  0  0
   10.2272  -18.3163   19.6212 C   0  0  0  0  0  0  0  0  0  0  0  0
    9.4952  -19.2511   18.7284 C   0  0  0  0  0  0  0  0  0  0  0  0
   10.0744  -20.6303   18.9085 C   0  0  0  0  0  0  0  0  0  0  0  0
   10.5816  -21.2181   17.9299 O   0  0  0  0  0  0  0  0  0  0  0  0
    9.7768  -16.2291   20.9351 C   0  0  0  0  0  0  0  0  0  0  0  0
   10.8141  -15.9882   21.6068 O   0  0  0  0  0  0  0  0  0  0  0  0
   10.0603  -21.2699   20.1387 O   0  0  0  0  0  0  0  0  0  0  0  0
    7.2106  -11.9136   27.9376 O   0  0  0  0  0  0  0  0  0  0  0  0
    7.1815  -12.5540   26.7142 C   0  0  0  0  0  0  0  0  0  0  0  0
    7.9835  -12.0710   25.6992 C   0  0  0  0  0  0  0  0  0  0  0  0
    7.9843  -12.6809   24.4631 C   0  0  0  0  0  0  0  0  0  0  0  0
    7.1708  -13.7732   24.2740 C   0  0  0  0  0  0  0  0  0  0  0  0
    7.1907  -14.4150   22.9250 C   0  0  0  0  0  0  0  0  0  0  0  0
    8.5039  -15.1698   22.8249 C   0  0  2  0  0  0  0  0  0  0  0  0
    8.5642  -15.7862   21.5313 N   0  0  0  0  0  0  0  0  0  0  0  0
    8.6161  -16.0621   23.9568 C   0  0  0  0  0  0  0  0  0  0  0  0
    7.8183  -17.0001   24.1639 O   0  0  0  0  0  0  0  0  0  0  0  0
    6.3629  -14.2788   25.2582 C   0  0  0  0  0  0  0  0  0  0  0  0
    6.3861  -13.6399   26.4931 C   0  0  0  0  0  0  0  0  0  0  0  0
   13.9765  -18.0534   25.3996 N   0  0  0  0  0  0  0  0  0  0  0  0
   12.9948  -18.4773   24.4550 C   0  0  0  0  0  0  0  0  0  0  0  0
   13.4122  -19.1490   23.4573 O   0  0  0  0  0  0  0  0  0  0  0  0
   11.5637  -18.1775   24.5990 C   0  0  0  0  0  0  0  0  0  0  0  0
   11.2815  -17.3294   25.7620 C   0  0  0  0  0  0  0  0  0  0  0  0
    9.8758  -16.8598   25.9975 C   0  0  2  0  0  0  0  0  0  0  0  0
    9.6700  -15.8801   24.8816 N   0  0  0  0  0  0  0  0  0  0  0  0
    9.6553  -16.1645   27.2691 C   0  0  0  0  0  0  0  0  0  0  0  0
    9.6620  -14.7862   27.3964 O   0  0  0  0  0  0  0  0  0  0  0  0
    9.4456  -16.8402   28.3209 O   0  0  0  0  0  0  0  0  0  0  0  0
  2  1  1  6
  2  3  1  0
  3  4  1  0
  5  9  1  0
  5  4  1  0
  6  5  2  0
  7  2  1  0
  8  7  2  0
 10 11  1  0
 11 12  2  0
 12 13  1  0
 14 15  1  0
 14 13  2  0
 16 15  1  1
 16 17  1  0
 17  7  1  0
 18 28  1  0
 18 16  1  0
 19 18  2  0
 20 14  1  0
 21 20  2  0
 21 11  1  0
 22 23  1  0
 23 25  1  0
 24 23  2  0
 25 26  1  0
 27 26  1  1
 27 29  1  0
 27 28  1  0
 29 30  1  0
 31 29  2  0
M  END
$$$$
