EYQ.pdb
     RDKit          3D

 31 31  0  0  1  0  0  0  0  0999 V2000
   10.4152  -16.7434   19.0958 N   0  0  0  0  0  0  0  0  0  0  0  0
    9.1571  -16.9335   19.8546 C   0  0  1  0  0  0  0  0  0  0  0  0
    8.9774  -18.4058   19.9614 C   0  0  0  0  0  0  0  0  0  0  0  0
    9.4839  -19.2270   18.8318 C   0  0  0  0  0  0  0  0  0  0  0  0
    9.1890  -20.6745   19.1282 C   0  0  0  0  0  0  0  0  0  0  0  0
    8.6026  -21.3714   18.2733 O   0  0  0  0  0  0  0  0  0  0  0  0
    9.3322  -16.2039   21.1064 C   0  0  0  0  0  0  0  0  0  0  0  0
   10.4014  -16.1642   21.7701 O   0  0  0  0  0  0  0  0  0  0  0  0
    9.5529  -21.2590   20.3319 O   0  0  0  0  0  0  0  0  0  0  0  0
    7.1962  -11.9797   28.3586 O   0  0  0  0  0  0  0  0  0  0  0  0
    7.1961  -12.4448   27.0581 C   0  0  0  0  0  0  0  0  0  0  0  0
    6.3523  -13.4879   26.7321 C   0  0  0  0  0  0  0  0  0  0  0  0
    6.3214  -13.9818   25.4456 C   0  0  0  0  0  0  0  0  0  0  0  0
    7.1478  -13.4100   24.5072 C   0  0  0  0  0  0  0  0  0  0  0  0
    7.0948  -13.9646   23.1209 C   0  0  0  0  0  0  0  0  0  0  0  0
    8.3042  -14.8695   22.9709 C   0  0  2  0  0  0  0  0  0  0  0  0
    8.2549  -15.4638   21.6665 N   0  0  0  0  0  0  0  0  0  0  0  0
    8.3384  -15.7903   24.0849 C   0  0  0  0  0  0  0  0  0  0  0  0
    7.4100  -16.5866   24.3366 O   0  0  0  0  0  0  0  0  0  0  0  0
    7.9971  -12.3743   24.7956 C   0  0  0  0  0  0  0  0  0  0  0  0
    8.0034  -11.9000   26.1027 C   0  0  0  0  0  0  0  0  0  0  0  0
   11.8288  -20.1862   24.5275 N   0  0  0  0  0  0  0  0  0  0  0  0
   12.4612  -18.9109   24.6244 C   0  0  0  0  0  0  0  0  0  0  0  0
   13.6326  -18.8138   24.1354 O   0  0  0  0  0  0  0  0  0  0  0  0
   11.8189  -17.7441   25.2445 C   0  0  0  0  0  0  0  0  0  0  0  0
   10.3695  -17.9134   25.3932 C   0  0  0  0  0  0  0  0  0  0  0  0
    9.5702  -16.8188   26.0374 C   0  0  2  0  0  0  0  0  0  0  0  0
    9.4653  -15.8043   24.9387 N   0  0  0  0  0  0  0  0  0  0  0  0
   10.2047  -16.1818   27.1952 C   0  0  0  0  0  0  0  0  0  0  0  0
   10.3476  -16.8020   28.4243 O   0  0  0  0  0  0  0  0  0  0  0  0
   10.6537  -15.0011   27.0888 O   0  0  0  0  0  0  0  0  0  0  0  0
  2  1  1  6
  2  3  1  0
  3  4  1  0
  5  9  1  0
  5  4  1  0
  6  5  2  0
  7  2  1  0
  8  7  2  0
 10 11  1  0
 11 12  2  0
 12 13  1  0
 14 15  1  0
 14 13  2  0
 16 15  1  1
 16 17  1  0
 17  7  1  0
 18 28  1  0
 18 16  1  0
 19 18  2  0
 20 14  1  0
 21 20  2  0
 21 11  1  0
 22 23  1  0
 23 25  1  0
 24 23  2  0
 25 26  1  0
 27 26  1  6
 27 29  1  0
 27 28  1  0
 29 30  1  0
 31 29  2  0
M  END
$$$$
