EYQ.pdb
     RDKit          3D

 31 31  0  0  1  0  0  0  0  0999 V2000
    9.1939  -18.0777   20.4366 N   0  0  0  0  0  0  0  0  0  0  0  0
   10.4170  -18.0820   21.2725 C   0  0  1  0  0  0  0  0  0  0  0  0
   11.5475  -17.9121   20.3214 C   0  0  0  0  0  0  0  0  0  0  0  0
   11.5425  -18.7756   19.1126 C   0  0  0  0  0  0  0  0  0  0  0  0
   11.5677  -17.8878   17.8955 C   0  0  0  0  0  0  0  0  0  0  0  0
   12.5031  -17.0735   17.7461 O   0  0  0  0  0  0  0  0  0  0  0  0
   10.2289  -17.0238   22.2599 C   0  0  0  0  0  0  0  0  0  0  0  0
   11.1527  -16.5041   22.9394 O   0  0  0  0  0  0  0  0  0  0  0  0
   10.5747  -17.9498   16.9296 O   0  0  0  0  0  0  0  0  0  0  0  0
    6.4444  -11.3970   27.5959 O   0  0  0  0  0  0  0  0  0  0  0  0
    6.6860  -12.2404   26.5292 C   0  0  0  0  0  0  0  0  0  0  0  0
    6.0761  -13.4791   26.5183 C   0  0  0  0  0  0  0  0  0  0  0  0
    6.2905  -14.3511   25.4725 C   0  0  0  0  0  0  0  0  0  0  0  0
    7.1215  -13.9537   24.4516 C   0  0  0  0  0  0  0  0  0  0  0  0
    7.3369  -14.9179   23.3309 C   0  0  0  0  0  0  0  0  0  0  0  0
    8.6373  -15.6424   23.6282 C   0  0  2  0  0  0  0  0  0  0  0  0
    8.9325  -16.4989   22.5163 N   0  0  0  0  0  0  0  0  0  0  0  0
    8.5253  -16.2919   24.9149 C   0  0  0  0  0  0  0  0  0  0  0  0
    7.6061  -17.0891   25.1957 O   0  0  0  0  0  0  0  0  0  0  0  0
    7.7427  -12.7327   24.4301 C   0  0  0  0  0  0  0  0  0  0  0  0
    7.5048  -11.8773   25.5002 C   0  0  0  0  0  0  0  0  0  0  0  0
   12.9038  -20.1864   25.8817 N   0  0  0  0  0  0  0  0  0  0  0  0
   11.5513  -20.2868   26.3249 C   0  0  0  0  0  0  0  0  0  0  0  0
   10.9121  -21.3328   25.9813 O   0  0  0  0  0  0  0  0  0  0  0  0
   10.8992  -19.2566   27.1445 C   0  0  0  0  0  0  0  0  0  0  0  0
   10.3703  -18.1500   26.3401 C   0  0  0  0  0  0  0  0  0  0  0  0
    9.7089  -16.9955   27.0342 C   0  0  2  0  0  0  0  0  0  0  0  0
    9.4906  -16.0249   25.9128 N   0  0  0  0  0  0  0  0  0  0  0  0
   10.5206  -16.3381   28.0628 C   0  0  0  0  0  0  0  0  0  0  0  0
   11.0349  -15.0602   27.9277 O   0  0  0  0  0  0  0  0  0  0  0  0
   10.7782  -16.9529   29.1410 O   0  0  0  0  0  0  0  0  0  0  0  0
  2  1  1  6
  2  3  1  0
  3  4  1  0
  5  9  1  0
  5  4  1  0
  6  5  2  0
  7  2  1  0
  8  7  2  0
 10 11  1  0
 11 12  2  0
 12 13  1  0
 14 15  1  0
 14 13  2  0
 16 15  1  6
 16 17  1  0
 17  7  1  0
 18 28  1  0
 18 16  1  0
 19 18  2  0
 20 14  1  0
 21 20  2  0
 21 11  1  0
 22 23  1  0
 23 25  1  0
 24 23  2  0
 25 26  1  0
 27 26  1  6
 27 29  1  0
 27 28  1  0
 29 30  1  0
 31 29  2  0
M  END
$$$$
