EYQ.pdb
     RDKit          3D

 31 31  0  0  1  0  0  0  0  0999 V2000
    7.9216  -12.3818   16.9832 N   0  0  0  0  0  0  0  0  0  0  0  0
    7.5108  -13.6920   17.5395 C   0  0  1  0  0  0  0  0  0  0  0  0
    8.0245  -14.7075   16.5824 C   0  0  0  0  0  0  0  0  0  0  0  0
    9.5000  -14.8220   16.4538 C   0  0  0  0  0  0  0  0  0  0  0  0
    9.8077  -15.9737   15.5323 C   0  0  0  0  0  0  0  0  0  0  0  0
   10.9548  -16.4682   15.5261 O   0  0  0  0  0  0  0  0  0  0  0  0
    8.0524  -13.7375   18.8940 C   0  0  0  0  0  0  0  0  0  0  0  0
    9.2593  -13.5362   19.1913 O   0  0  0  0  0  0  0  0  0  0  0  0
    8.8466  -16.5038   14.6849 O   0  0  0  0  0  0  0  0  0  0  0  0
    8.5631  -14.7080   27.4575 O   0  0  0  0  0  0  0  0  0  0  0  0
    8.0499  -14.6387   26.1771 C   0  0  0  0  0  0  0  0  0  0  0  0
    7.9385  -13.3993   25.5788 C   0  0  0  0  0  0  0  0  0  0  0  0
    7.4314  -13.2861   24.3020 C   0  0  0  0  0  0  0  0  0  0  0  0
    7.0441  -14.4329   23.6498 C   0  0  0  0  0  0  0  0  0  0  0  0
    6.4978  -14.2818   22.2675 C   0  0  0  0  0  0  0  0  0  0  0  0
    7.6938  -14.2120   21.3354 C   0  0  2  0  0  0  0  0  0  0  0  0
    7.2056  -14.0229   20.0001 N   0  0  0  0  0  0  0  0  0  0  0  0
    8.5192  -15.3797   21.5478 C   0  0  0  0  0  0  0  0  0  0  0  0
    8.3278  -16.4633   20.9574 O   0  0  0  0  0  0  0  0  0  0  0  0
    7.1406  -15.6782   24.2129 C   0  0  0  0  0  0  0  0  0  0  0  0
    7.6563  -15.7569   25.5018 C   0  0  0  0  0  0  0  0  0  0  0  0
   13.6097  -14.5541   19.9218 N   0  0  0  0  0  0  0  0  0  0  0  0
   13.9490  -15.7513   20.6200 C   0  0  0  0  0  0  0  0  0  0  0  0
   15.1481  -16.1625   20.5027 O   0  0  0  0  0  0  0  0  0  0  0  0
   12.9894  -16.4942   21.4480 C   0  0  0  0  0  0  0  0  0  0  0  0
   11.6971  -15.8096   21.5616 C   0  0  0  0  0  0  0  0  0  0  0  0
   10.6488  -16.3781   22.4727 C   0  0  2  0  0  0  0  0  0  0  0  0
    9.5961  -15.3108   22.4614 N   0  0  0  0  0  0  0  0  0  0  0  0
   11.0760  -16.5909   23.8588 C   0  0  0  0  0  0  0  0  0  0  0  0
   11.7522  -17.7212   24.2839 O   0  0  0  0  0  0  0  0  0  0  0  0
   10.8238  -15.7068   24.7315 O   0  0  0  0  0  0  0  0  0  0  0  0
  2  1  1  6
  2  3  1  0
  3  4  1  0
  5  9  1  0
  5  4  1  0
  6  5  2  0
  7  2  1  0
  8  7  2  0
 10 11  1  0
 11 12  2  0
 12 13  1  0
 14 15  1  0
 14 13  2  0
 16 15  1  1
 16 17  1  0
 17  7  1  0
 18 28  1  0
 18 16  1  0
 19 18  2  0
 20 14  1  0
 21 20  2  0
 21 11  1  0
 22 23  1  0
 23 25  1  0
 24 23  2  0
 25 26  1  0
 27 26  1  6
 27 29  1  0
 27 28  1  0
 29 30  1  0
 31 29  2  0
M  END
$$$$
