EYQ.pdb
     RDKit          3D

 31 31  0  0  1  0  0  0  0  0999 V2000
   10.4329  -16.2008   18.6077 N   0  0  0  0  0  0  0  0  0  0  0  0
    9.1646  -16.5355   19.2962 C   0  0  1  0  0  0  0  0  0  0  0  0
    9.0129  -18.0079   19.1535 C   0  0  0  0  0  0  0  0  0  0  0  0
   10.1888  -18.8413   19.5132 C   0  0  0  0  0  0  0  0  0  0  0  0
    9.8243  -20.2890   19.3091 C   0  0  0  0  0  0  0  0  0  0  0  0
    9.7937  -20.7594   18.1523 O   0  0  0  0  0  0  0  0  0  0  0  0
    9.3008  -16.0212   20.6553 C   0  0  0  0  0  0  0  0  0  0  0  0
   10.3805  -15.9793   21.3016 O   0  0  0  0  0  0  0  0  0  0  0  0
    9.5199  -21.1196   20.3768 O   0  0  0  0  0  0  0  0  0  0  0  0
    7.4478  -12.2134   28.1807 O   0  0  0  0  0  0  0  0  0  0  0  0
    7.3574  -12.6800   26.8839 C   0  0  0  0  0  0  0  0  0  0  0  0
    6.5349  -13.7592   26.6285 C   0  0  0  0  0  0  0  0  0  0  0  0
    6.4162  -14.2560   25.3482 C   0  0  0  0  0  0  0  0  0  0  0  0
    7.1344  -13.6504   24.3442 C   0  0  0  0  0  0  0  0  0  0  0  0
    6.9878  -14.2088   22.9663 C   0  0  0  0  0  0  0  0  0  0  0  0
    8.2235  -15.0517   22.7079 C   0  0  2  0  0  0  0  0  0  0  0  0
    8.1690  -15.5153   21.3517 N   0  0  0  0  0  0  0  0  0  0  0  0
    8.3094  -16.0765   23.7239 C   0  0  0  0  0  0  0  0  0  0  0  0
    7.4486  -16.9705   23.8614 O   0  0  0  0  0  0  0  0  0  0  0  0
    7.9595  -12.5784   24.5617 C   0  0  0  0  0  0  0  0  0  0  0  0
    8.0562  -12.1023   25.8646 C   0  0  0  0  0  0  0  0  0  0  0  0
   13.7709  -16.9050   26.6057 N   0  0  0  0  0  0  0  0  0  0  0  0
   12.8781  -17.5493   27.5131 C   0  0  0  0  0  0  0  0  0  0  0  0
   13.3525  -17.8766   28.6483 O   0  0  0  0  0  0  0  0  0  0  0  0
   11.4728  -17.8301   27.1893 C   0  0  0  0  0  0  0  0  0  0  0  0
   10.9806  -17.0179   26.0715 C   0  0  0  0  0  0  0  0  0  0  0  0
    9.5540  -17.1715   25.6317 C   0  0  2  0  0  0  0  0  0  0  0  0
    9.4105  -16.0830   24.6109 N   0  0  0  0  0  0  0  0  0  0  0  0
    8.5517  -16.9569   26.6798 C   0  0  0  0  0  0  0  0  0  0  0  0
    8.3055  -15.7243   27.2592 O   0  0  0  0  0  0  0  0  0  0  0  0
    7.8623  -17.9370   27.0931 O   0  0  0  0  0  0  0  0  0  0  0  0
  2  1  1  6
  2  3  1  0
  3  4  1  0
  5  9  1  0
  5  4  1  0
  6  5  2  0
  7  2  1  0
  8  7  2  0
 10 11  1  0
 11 12  2  0
 12 13  1  0
 14 15  1  0
 14 13  2  0
 16 15  1  1
 16 17  1  0
 17  7  1  0
 18 28  1  0
 18 16  1  0
 19 18  2  0
 20 14  1  0
 21 20  2  0
 21 11  1  0
 22 23  1  0
 23 25  1  0
 24 23  2  0
 25 26  1  0
 27 26  1  1
 27 29  1  0
 27 28  1  0
 29 30  1  0
 31 29  2  0
M  END
$$$$
