EYQ.pdb
     RDKit          3D

 31 31  0  0  1  0  0  0  0  0999 V2000
    9.1506  -18.2016   20.7771 N   0  0  0  0  0  0  0  0  0  0  0  0
   10.4072  -17.4174   20.8019 C   0  0  1  0  0  0  0  0  0  0  0  0
   10.6813  -17.0633   19.3839 C   0  0  0  0  0  0  0  0  0  0  0  0
    9.9121  -17.7995   18.3480 C   0  0  0  0  0  0  0  0  0  0  0  0
   10.2658  -17.2284   16.9993 C   0  0  0  0  0  0  0  0  0  0  0  0
   11.4491  -17.2747   16.6018 O   0  0  0  0  0  0  0  0  0  0  0  0
   10.1663  -16.3071   21.7181 C   0  0  0  0  0  0  0  0  0  0  0  0
   10.9822  -15.3758   21.9468 O   0  0  0  0  0  0  0  0  0  0  0  0
    9.3079  -16.6489   16.1812 O   0  0  0  0  0  0  0  0  0  0  0  0
    6.1559  -11.3284   27.5706 O   0  0  0  0  0  0  0  0  0  0  0  0
    6.4344  -12.1639   26.5066 C   0  0  0  0  0  0  0  0  0  0  0  0
    5.9612  -13.4604   26.5465 C   0  0  0  0  0  0  0  0  0  0  0  0
    6.2169  -14.3267   25.5053 C   0  0  0  0  0  0  0  0  0  0  0  0
    6.9496  -13.8650   24.4373 C   0  0  0  0  0  0  0  0  0  0  0  0
    7.2125  -14.8245   23.3227 C   0  0  0  0  0  0  0  0  0  0  0  0
    8.6789  -15.2054   23.4173 C   0  0  2  0  0  0  0  0  0  0  0  0
    8.9399  -16.2141   22.4317 N   0  0  0  0  0  0  0  0  0  0  0  0
    8.9799  -15.5642   24.7849 C   0  0  0  0  0  0  0  0  0  0  0  0
    8.7923  -14.7906   25.7471 O   0  0  0  0  0  0  0  0  0  0  0  0
    7.4344  -12.5855   24.3648 C   0  0  0  0  0  0  0  0  0  0  0  0
    7.1585  -11.7377   25.4318 C   0  0  0  0  0  0  0  0  0  0  0  0
    6.7304  -20.2611   27.0037 N   0  0  0  0  0  0  0  0  0  0  0  0
    7.6305  -20.0045   28.0806 C   0  0  0  0  0  0  0  0  0  0  0  0
    7.4482  -20.6700   29.1505 O   0  0  0  0  0  0  0  0  0  0  0  0
    8.7288  -19.0327   27.9914 C   0  0  0  0  0  0  0  0  0  0  0  0
    8.7281  -18.2988   26.7214 C   0  0  0  0  0  0  0  0  0  0  0  0
    9.7821  -17.2582   26.4804 C   0  0  2  0  0  0  0  0  0  0  0  0
    9.5113  -16.8441   25.0653 N   0  0  0  0  0  0  0  0  0  0  0  0
   11.1643  -17.7393   26.5644 C   0  0  0  0  0  0  0  0  0  0  0  0
   11.8887  -17.7774   27.7432 O   0  0  0  0  0  0  0  0  0  0  0  0
   11.7473  -18.1468   25.5152 O   0  0  0  0  0  0  0  0  0  0  0  0
  2  1  1  6
  2  3  1  0
  3  4  1  0
  5  9  1  0
  5  4  1  0
  6  5  2  0
  7  2  1  0
  8  7  2  0
 10 11  1  0
 11 12  2  0
 12 13  1  0
 14 15  1  0
 14 13  2  0
 16 15  1  1
 16 17  1  0
 17  7  1  0
 18 28  1  0
 18 16  1  0
 19 18  2  0
 20 14  1  0
 21 20  2  0
 21 11  1  0
 22 23  1  0
 23 25  1  0
 24 23  2  0
 25 26  1  0
 27 26  1  6
 27 29  1  0
 27 28  1  0
 29 30  1  0
 31 29  2  0
M  END
$$$$
