IFS.pdb
     RDKit          3D

 26 26  0  0  1  0  0  0  0  0999 V2000
   22.8235  -20.6200  -14.7238 C   0  0  0  0  0  0  0  0  0  0  0  0
   24.2754  -20.4670  -14.3581 C   0  0  0  0  0  0  0  0  0  0  0  0
   24.5197  -20.8434  -12.9286 C   0  0  2  0  0  0  0  0  0  0  0  0
   23.5500  -20.0720  -12.0313 C   0  0  0  0  0  0  0  0  0  0  0  0
   25.9329  -20.6174  -12.4530 C   0  0  2  0  0  0  0  0  0  0  0  0
   26.8039  -21.5145  -13.2534 N   0  0  0  0  0  0  0  0  0  0  0  0
   26.2225  -20.9306  -11.0660 C   0  0  0  0  0  0  0  0  0  0  0  0
   26.3427  -22.1248  -10.6982 O   0  0  0  0  0  0  0  0  0  0  0  0
   26.3849  -19.9261  -10.0879 N   0  0  0  0  0  0  0  0  0  0  0  0
   26.6154  -20.1073   -8.6932 C   0  0  1  0  0  0  0  0  0  0  0  0
   27.3421  -18.9766   -7.9845 C   0  0  0  0  0  0  0  0  0  0  0  0
   27.7142  -19.3099   -6.5843 C   0  0  0  0  0  0  0  0  0  0  0  0
   28.8273  -20.1359   -6.3454 C   0  0  0  0  0  0  0  0  0  0  0  0
   29.2089  -20.4930   -5.0748 C   0  0  0  0  0  0  0  0  0  0  0  0
   28.5217  -20.0614   -3.9659 C   0  0  0  0  0  0  0  0  0  0  0  0
   27.4301  -19.2535   -4.1739 C   0  0  0  0  0  0  0  0  0  0  0  0
   27.0375  -18.8871   -5.4693 C   0  0  0  0  0  0  0  0  0  0  0  0
   25.4091  -20.4788   -7.9183 C   0  0  0  0  0  0  0  0  0  0  0  0
   24.3717  -19.7707   -7.9661 O   0  0  0  0  0  0  0  0  0  0  0  0
   23.0250  -23.9837   -5.5354 O   0  0  0  0  0  0  0  0  0  0  0  0
   24.2584  -23.5359   -5.9976 C   0  0  0  0  0  0  0  0  0  0  0  0
   24.1390  -22.0984   -6.4540 C   0  0  2  0  0  0  0  0  0  0  0  0
   25.3597  -21.6411   -7.0893 N   0  0  0  0  0  0  0  0  0  0  0  0
   23.8109  -21.1931   -5.3280 C   0  0  0  0  0  0  0  0  0  0  0  0
   24.6911  -20.4335   -4.8338 O   0  0  0  0  0  0  0  0  0  0  0  0
   22.5367  -21.1584   -4.7929 O   0  0  0  0  0  0  0  0  0  0  0  0
  2  1  1  0
  3  2  1  0
  3  4  1  1
  5  3  1  0
  5  6  1  6
  7  9  1  0
  7  5  1  0
  8  7  2  0
 10 11  1  1
 10  9  1  0
 12 17  2  0
 12 11  1  0
 13 12  1  0
 14 15  1  0
 14 13  2  0
 15 16  2  0
 16 17  1  0
 18 10  1  0
 18 19  2  0
 20 21  1  0
 22 21  1  1
 22 24  1  0
 22 23  1  0
 23 18  1  0
 24 26  1  0
 25 24  2  0
M  END
$$$$
