IFS.pdb
     RDKit          3D

 26 26  0  0  1  0  0  0  0  0999 V2000
   28.5997  -17.3996  -16.8131 C   0  0  0  0  0  0  0  0  0  0  0  0
   28.9725  -18.4109  -15.7627 C   0  0  0  0  0  0  0  0  0  0  0  0
   27.7553  -19.0262  -15.1425 C   0  0  2  0  0  0  0  0  0  0  0  0
   26.8464  -17.9176  -14.6085 C   0  0  0  0  0  0  0  0  0  0  0  0
   28.0441  -20.0143  -14.0404 C   0  0  2  0  0  0  0  0  0  0  0  0
   28.8570  -21.1018  -14.6409 N   0  0  0  0  0  0  0  0  0  0  0  0
   26.9058  -20.6732  -13.4273 C   0  0  0  0  0  0  0  0  0  0  0  0
   26.4008  -21.6914  -13.9602 O   0  0  0  0  0  0  0  0  0  0  0  0
   26.3300  -20.2117  -12.2241 N   0  0  0  0  0  0  0  0  0  0  0  0
   25.2529  -20.8005  -11.5001 C   0  0  1  0  0  0  0  0  0  0  0  0
   25.1891  -20.4753  -10.0172 C   0  0  0  0  0  0  0  0  0  0  0  0
   26.5046  -20.5996   -9.3360 C   0  0  0  0  0  0  0  0  0  0  0  0
   26.7883  -19.7776   -8.2305 C   0  0  0  0  0  0  0  0  0  0  0  0
   27.9926  -19.8342   -7.5718 C   0  0  0  0  0  0  0  0  0  0  0  0
   28.9878  -20.6992   -7.9587 C   0  0  0  0  0  0  0  0  0  0  0  0
   28.7342  -21.5123   -9.0367 C   0  0  0  0  0  0  0  0  0  0  0  0
   27.5063  -21.4572   -9.7116 C   0  0  0  0  0  0  0  0  0  0  0  0
   23.9195  -20.5868  -12.1084 C   0  0  0  0  0  0  0  0  0  0  0  0
   23.4753  -19.4252  -12.2909 O   0  0  0  0  0  0  0  0  0  0  0  0
   21.6732  -23.8312  -13.4419 O   0  0  0  0  0  0  0  0  0  0  0  0
   21.5436  -22.6425  -14.1528 C   0  0  0  0  0  0  0  0  0  0  0  0
   21.8434  -21.4709  -13.2435 C   0  0  2  0  0  0  0  0  0  0  0  0
   23.0806  -21.6697  -12.5137 N   0  0  0  0  0  0  0  0  0  0  0  0
   20.7447  -21.2335  -12.2781 C   0  0  0  0  0  0  0  0  0  0  0  0
   20.9457  -21.3349  -11.0350 O   0  0  0  0  0  0  0  0  0  0  0  0
   19.4770  -20.8964  -12.7141 O   0  0  0  0  0  0  0  0  0  0  0  0
  2  1  1  0
  3  2  1  0
  3  4  1  1
  5  3  1  0
  5  6  1  6
  7  9  1  0
  7  5  1  0
  8  7  2  0
 10 11  1  1
 10  9  1  0
 12 17  2  0
 12 11  1  0
 13 12  1  0
 14 15  1  0
 14 13  2  0
 15 16  2  0
 16 17  1  0
 18 10  1  0
 18 19  2  0
 20 21  1  0
 22 21  1  1
 22 24  1  0
 22 23  1  0
 23 18  1  0
 24 26  1  0
 25 24  2  0
M  END
$$$$
