IFS.pdb
     RDKit          3D

 26 26  0  0  1  0  0  0  0  0999 V2000
   28.4209  -17.0480  -16.5871 C   0  0  0  0  0  0  0  0  0  0  0  0
   28.8648  -18.0405  -15.5464 C   0  0  0  0  0  0  0  0  0  0  0  0
   27.7012  -18.8009  -14.9873 C   0  0  2  0  0  0  0  0  0  0  0  0
   26.6609  -17.8125  -14.4571 C   0  0  0  0  0  0  0  0  0  0  0  0
   28.0582  -19.7856  -13.9023 C   0  0  2  0  0  0  0  0  0  0  0  0
   28.9565  -20.7951  -14.5173 N   0  0  0  0  0  0  0  0  0  0  0  0
   26.9701  -20.5424  -13.3113 C   0  0  0  0  0  0  0  0  0  0  0  0
   26.5317  -21.5713  -13.8812 O   0  0  0  0  0  0  0  0  0  0  0  0
   26.3714  -20.1665  -12.0897 N   0  0  0  0  0  0  0  0  0  0  0  0
   25.3193  -20.8370  -11.4007 C   0  0  1  0  0  0  0  0  0  0  0  0
   25.1800  -20.5170   -9.9218 C   0  0  0  0  0  0  0  0  0  0  0  0
   26.4729  -20.5692   -9.1898 C   0  0  0  0  0  0  0  0  0  0  0  0
   26.6645  -19.7396   -8.0702 C   0  0  0  0  0  0  0  0  0  0  0  0
   27.8434  -19.7305   -7.3647 C   0  0  0  0  0  0  0  0  0  0  0  0
   28.9017  -20.5335   -7.7159 C   0  0  0  0  0  0  0  0  0  0  0  0
   28.7385  -21.3527   -8.8067 C   0  0  0  0  0  0  0  0  0  0  0  0
   27.5369  -21.3645   -9.5293 C   0  0  0  0  0  0  0  0  0  0  0  0
   23.9949  -20.7281  -12.0546 C   0  0  0  0  0  0  0  0  0  0  0  0
   23.4682  -19.6047  -12.2557 O   0  0  0  0  0  0  0  0  0  0  0  0
   22.7250  -23.3167  -14.8667 O   0  0  0  0  0  0  0  0  0  0  0  0
   21.7001  -23.0473  -13.9654 C   0  0  0  0  0  0  0  0  0  0  0  0
   22.0072  -21.7711  -13.2129 C   0  0  2  0  0  0  0  0  0  0  0  0
   23.2570  -21.8732  -12.4846 N   0  0  0  0  0  0  0  0  0  0  0  0
   20.9226  -21.4206  -12.2662 C   0  0  0  0  0  0  0  0  0  0  0  0
   19.7405  -21.2457  -12.6762 O   0  0  0  0  0  0  0  0  0  0  0  0
   21.1782  -21.2770  -10.9152 O   0  0  0  0  0  0  0  0  0  0  0  0
  2  1  1  0
  3  2  1  0
  3  4  1  1
  5  3  1  0
  5  6  1  6
  7  9  1  0
  7  5  1  0
  8  7  2  0
 10 11  1  1
 10  9  1  0
 12 17  2  0
 12 11  1  0
 13 12  1  0
 14 15  1  0
 14 13  2  0
 15 16  2  0
 16 17  1  0
 18 10  1  0
 18 19  2  0
 20 21  1  0
 22 21  1  1
 22 24  1  0
 22 23  1  0
 23 18  1  0
 24 26  1  0
 25 24  2  0
M  END
$$$$
