IFS.pdb
     RDKit          3D

 26 26  0  0  1  0  0  0  0  0999 V2000
   28.6098  -12.2129  -16.3759 C   0  0  0  0  0  0  0  0  0  0  0  0
   27.1622  -12.5272  -16.1096 C   0  0  0  0  0  0  0  0  0  0  0  0
   26.2727  -11.3985  -16.5333 C   0  0  2  0  0  0  0  0  0  0  0  0
   26.6729  -10.1302  -15.7773 C   0  0  0  0  0  0  0  0  0  0  0  0
   24.7991  -11.6548  -16.3410 C   0  0  2  0  0  0  0  0  0  0  0  0
   24.4504  -12.8176  -17.1956 N   0  0  0  0  0  0  0  0  0  0  0  0
   23.8866  -10.5968  -16.7331 C   0  0  0  0  0  0  0  0  0  0  0  0
   23.7346  -10.3087  -17.9454 O   0  0  0  0  0  0  0  0  0  0  0  0
   23.1387   -9.8622  -15.7881 N   0  0  0  0  0  0  0  0  0  0  0  0
   22.2209   -8.8031  -16.0472 C   0  0  1  0  0  0  0  0  0  0  0  0
   20.7480   -9.1451  -15.8978 C   0  0  0  0  0  0  0  0  0  0  0  0
   20.2718  -10.1257  -16.9086 C   0  0  0  0  0  0  0  0  0  0  0  0
   20.1575  -11.4816  -16.5526 C   0  0  0  0  0  0  0  0  0  0  0  0
   19.7405  -12.4363  -17.4482 C   0  0  0  0  0  0  0  0  0  0  0  0
   19.4118  -12.1172  -18.7437 C   0  0  0  0  0  0  0  0  0  0  0  0
   19.5159  -10.7987  -19.1153 C   0  0  0  0  0  0  0  0  0  0  0  0
   19.9413   -9.8214  -18.2041 C   0  0  0  0  0  0  0  0  0  0  0  0
   22.5119   -7.5500  -15.3133 C   0  0  0  0  0  0  0  0  0  0  0  0
   22.7659   -7.5705  -14.0825 O   0  0  0  0  0  0  0  0  0  0  0  0
   22.0971   -3.7826  -17.1194 O   0  0  0  0  0  0  0  0  0  0  0  0
   23.1372   -3.9167  -16.2053 C   0  0  0  0  0  0  0  0  0  0  0  0
   22.8283   -5.0448  -15.2455 C   0  0  2  0  0  0  0  0  0  0  0  0
   22.5195   -6.2726  -15.9527 N   0  0  0  0  0  0  0  0  0  0  0  0
   21.6985   -4.7055  -14.3489 C   0  0  0  0  0  0  0  0  0  0  0  0
   20.5921   -5.3068  -14.4500 O   0  0  0  0  0  0  0  0  0  0  0  0
   21.8284   -3.7250  -13.3831 O   0  0  0  0  0  0  0  0  0  0  0  0
  2  1  1  0
  3  2  1  0
  3  4  1  1
  5  3  1  0
  5  6  1  6
  7  9  1  0
  7  5  1  0
  8  7  2  0
 10 11  1  1
 10  9  1  0
 12 17  2  0
 12 11  1  0
 13 12  1  0
 14 15  1  0
 14 13  2  0
 15 16  2  0
 16 17  1  0
 18 10  1  0
 18 19  2  0
 20 21  1  0
 22 21  1  6
 22 24  1  0
 22 23  1  0
 23 18  1  0
 24 26  1  0
 25 24  2  0
M  END
$$$$
