IFS.pdb
     RDKit          3D

 26 26  0  0  1  0  0  0  0  0999 V2000
   28.0358  -17.6592  -17.6040 C   0  0  0  0  0  0  0  0  0  0  0  0
   28.6027  -18.3799  -16.4106 C   0  0  0  0  0  0  0  0  0  0  0  0
   27.5286  -19.0823  -15.6374 C   0  0  2  0  0  0  0  0  0  0  0  0
   26.5117  -18.0538  -15.1390 C   0  0  0  0  0  0  0  0  0  0  0  0
   28.0270  -19.9016  -14.4735 C   0  0  2  0  0  0  0  0  0  0  0  0
   28.9021  -20.9602  -15.0371 N   0  0  0  0  0  0  0  0  0  0  0  0
   27.0318  -20.6007  -13.6820 C   0  0  0  0  0  0  0  0  0  0  0  0
   26.7043  -21.7773  -13.9720 O   0  0  0  0  0  0  0  0  0  0  0  0
   26.4036  -20.0032  -12.5682 N   0  0  0  0  0  0  0  0  0  0  0  0
   25.3828  -20.5650  -11.7476 C   0  0  1  0  0  0  0  0  0  0  0  0
   25.4117  -20.1682  -10.2811 C   0  0  0  0  0  0  0  0  0  0  0  0
   26.7036  -20.4846   -9.6170 C   0  0  0  0  0  0  0  0  0  0  0  0
   26.9264  -20.0459   -8.2993 C   0  0  0  0  0  0  0  0  0  0  0  0
   28.1064  -20.2922   -7.6402 C   0  0  0  0  0  0  0  0  0  0  0  0
   29.1354  -20.9823   -8.2344 C   0  0  0  0  0  0  0  0  0  0  0  0
   28.9415  -21.4209   -9.5218 C   0  0  0  0  0  0  0  0  0  0  0  0
   27.7385  -21.1712  -10.1978 C   0  0  0  0  0  0  0  0  0  0  0  0
   24.0103  -20.3926  -12.2769 C   0  0  0  0  0  0  0  0  0  0  0  0
   23.4961  -19.2494  -12.3688 O   0  0  0  0  0  0  0  0  0  0  0  0
   22.2530  -22.7127  -15.1495 O   0  0  0  0  0  0  0  0  0  0  0  0
   21.4449  -22.5576  -14.0278 C   0  0  0  0  0  0  0  0  0  0  0  0
   21.8788  -21.3318  -13.2542 C   0  0  2  0  0  0  0  0  0  0  0  0
   23.2104  -21.4964  -12.7040 N   0  0  0  0  0  0  0  0  0  0  0  0
   20.9363  -21.0176  -12.1549 C   0  0  0  0  0  0  0  0  0  0  0  0
   21.1717  -21.4012  -10.9745 O   0  0  0  0  0  0  0  0  0  0  0  0
   19.7800  -20.2990  -12.3948 O   0  0  0  0  0  0  0  0  0  0  0  0
  2  1  1  0
  3  2  1  0
  3  4  1  1
  5  3  1  0
  5  6  1  6
  7  9  1  0
  7  5  1  0
  8  7  2  0
 10 11  1  1
 10  9  1  0
 12 17  2  0
 12 11  1  0
 13 12  1  0
 14 15  1  0
 14 13  2  0
 15 16  2  0
 16 17  1  0
 18 10  1  0
 18 19  2  0
 20 21  1  0
 22 21  1  1
 22 24  1  0
 22 23  1  0
 23 18  1  0
 24 26  1  0
 25 24  2  0
M  END
$$$$
