IFS.pdb
     RDKit          3D

 26 26  0  0  1  0  0  0  0  0999 V2000
   21.9614  -12.9158  -21.8388 C   0  0  0  0  0  0  0  0  0  0  0  0
   22.7754  -12.0427  -20.9221 C   0  0  0  0  0  0  0  0  0  0  0  0
   21.8984  -11.1449  -20.1038 C   0  0  2  0  0  0  0  0  0  0  0  0
   20.9837  -10.3479  -21.0357 C   0  0  0  0  0  0  0  0  0  0  0  0
   22.6427  -10.1966  -19.1977 C   0  0  2  0  0  0  0  0  0  0  0  0
   23.4420  -11.0314  -18.2660 N   0  0  0  0  0  0  0  0  0  0  0  0
   21.8462   -9.3258  -18.3533 C   0  0  0  0  0  0  0  0  0  0  0  0
   20.9621   -8.5907  -18.8571 O   0  0  0  0  0  0  0  0  0  0  0  0
   22.0219   -9.2714  -16.9539 N   0  0  0  0  0  0  0  0  0  0  0  0
   21.2472   -8.5317  -16.0139 C   0  0  1  0  0  0  0  0  0  0  0  0
   20.5794   -9.3417  -14.9153 C   0  0  0  0  0  0  0  0  0  0  0  0
   19.5692  -10.3025  -15.4316 C   0  0  0  0  0  0  0  0  0  0  0  0
   18.2718   -9.8461  -15.7260 C   0  0  0  0  0  0  0  0  0  0  0  0
   17.2912  -10.6899  -16.1886 C   0  0  0  0  0  0  0  0  0  0  0  0
   17.5257  -12.0290  -16.3890 C   0  0  0  0  0  0  0  0  0  0  0  0
   18.7858  -12.4986  -16.1080 C   0  0  0  0  0  0  0  0  0  0  0  0
   19.7892  -11.6404  -15.6355 C   0  0  0  0  0  0  0  0  0  0  0  0
   21.9550   -7.3777  -15.4132 C   0  0  0  0  0  0  0  0  0  0  0  0
   23.0893   -7.5208  -14.8909 O   0  0  0  0  0  0  0  0  0  0  0  0
   22.2377   -2.5431  -14.8620 O   0  0  0  0  0  0  0  0  0  0  0  0
   21.5164   -3.6172  -15.3731 C   0  0  0  0  0  0  0  0  0  0  0  0
   22.1158   -4.9146  -14.8767 C   0  0  2  0  0  0  0  0  0  0  0  0
   21.3973   -6.0627  -15.3949 N   0  0  0  0  0  0  0  0  0  0  0  0
   22.1287   -4.9794  -13.3965 C   0  0  0  0  0  0  0  0  0  0  0  0
   21.2190   -5.5925  -12.7700 O   0  0  0  0  0  0  0  0  0  0  0  0
   23.1342   -4.3717  -12.6679 O   0  0  0  0  0  0  0  0  0  0  0  0
  2  1  1  0
  3  2  1  0
  3  4  1  6
  5  3  1  0
  5  6  1  1
  7  9  1  0
  7  5  1  0
  8  7  2  0
 10 11  1  1
 10  9  1  0
 12 17  2  0
 12 11  1  0
 13 12  1  0
 14 15  1  0
 14 13  2  0
 15 16  2  0
 16 17  1  0
 18 10  1  0
 18 19  2  0
 20 21  1  0
 22 21  1  1
 22 24  1  0
 22 23  1  0
 23 18  1  0
 24 26  1  0
 25 24  2  0
M  END
$$$$
