IFS.pdb
     RDKit          3D

 26 26  0  0  1  0  0  0  0  0999 V2000
   21.5762  -14.8879  -19.2085 C   0  0  0  0  0  0  0  0  0  0  0  0
   22.9897  -14.3744  -19.2665 C   0  0  0  0  0  0  0  0  0  0  0  0
   23.9418  -15.3236  -18.6050 C   0  0  2  0  0  0  0  0  0  0  0  0
   23.8037  -16.7053  -19.2471 C   0  0  0  0  0  0  0  0  0  0  0  0
   23.7716  -15.4438  -17.1114 C   0  0  2  0  0  0  0  0  0  0  0  0
   24.1033  -14.1171  -16.5334 N   0  0  0  0  0  0  0  0  0  0  0  0
   24.6262  -16.3926  -16.4222 C   0  0  0  0  0  0  0  0  0  0  0  0
   25.8720  -16.2378  -16.4205 O   0  0  0  0  0  0  0  0  0  0  0  0
   24.1053  -17.5074  -15.7308 N   0  0  0  0  0  0  0  0  0  0  0  0
   24.8358  -18.4931  -15.0058 C   0  0  1  0  0  0  0  0  0  0  0  0
   24.1733  -19.0211  -13.7444 C   0  0  0  0  0  0  0  0  0  0  0  0
   25.0476  -19.9384  -12.9670 C   0  0  0  0  0  0  0  0  0  0  0  0
   24.7087  -21.3004  -12.8757 C   0  0  0  0  0  0  0  0  0  0  0  0
   25.4675  -22.1924  -12.1572 C   0  0  0  0  0  0  0  0  0  0  0  0
   26.6014  -21.8008  -11.4871 C   0  0  0  0  0  0  0  0  0  0  0  0
   26.9529  -20.4747  -11.5612 C   0  0  0  0  0  0  0  0  0  0  0  0
   26.1808  -19.5614  -12.2934 C   0  0  0  0  0  0  0  0  0  0  0  0
   25.3061  -19.6318  -15.8280 C   0  0  0  0  0  0  0  0  0  0  0  0
   24.4994  -20.2968  -16.5257 O   0  0  0  0  0  0  0  0  0  0  0  0
   28.8663  -19.9723  -17.7915 O   0  0  0  0  0  0  0  0  0  0  0  0
   28.6246  -21.0520  -16.9482 C   0  0  0  0  0  0  0  0  0  0  0  0
   27.1421  -21.1525  -16.6628 C   0  0  2  0  0  0  0  0  0  0  0  0
   26.6775  -20.0292  -15.8720 N   0  0  0  0  0  0  0  0  0  0  0  0
   26.8053  -22.4121  -15.9591 C   0  0  0  0  0  0  0  0  0  0  0  0
   26.3206  -22.3893  -14.7927 O   0  0  0  0  0  0  0  0  0  0  0  0
   27.0132  -23.6391  -16.5611 O   0  0  0  0  0  0  0  0  0  0  0  0
  2  1  1  0
  3  2  1  0
  3  4  1  6
  5  3  1  0
  5  6  1  1
  7  9  1  0
  7  5  1  0
  8  7  2  0
 10 11  1  1
 10  9  1  0
 12 17  2  0
 12 11  1  0
 13 12  1  0
 14 15  1  0
 14 13  2  0
 15 16  2  0
 16 17  1  0
 18 10  1  0
 18 19  2  0
 20 21  1  0
 22 21  1  1
 22 24  1  0
 22 23  1  0
 23 18  1  0
 24 26  1  0
 25 24  2  0
M  END
$$$$
