IFS.pdb
     RDKit          3D

 26 26  0  0  1  0  0  0  0  0999 V2000
   30.2170  -18.0192  -15.5091 C   0  0  0  0  0  0  0  0  0  0  0  0
   28.7268  -17.8301  -15.4166 C   0  0  0  0  0  0  0  0  0  0  0  0
   28.0794  -18.9584  -14.6731 C   0  0  2  0  0  0  0  0  0  0  0  0
   28.5141  -20.2869  -15.2949 C   0  0  0  0  0  0  0  0  0  0  0  0
   26.5735  -18.8951  -14.6238 C   0  0  2  0  0  0  0  0  0  0  0  0
   26.2196  -17.6388  -13.9163 N   0  0  0  0  0  0  0  0  0  0  0  0
   25.8899  -19.9529  -13.9030 C   0  0  0  0  0  0  0  0  0  0  0  0
   26.0042  -21.1471  -14.2724 O   0  0  0  0  0  0  0  0  0  0  0  0
   25.0861  -19.6925  -12.7724 N   0  0  0  0  0  0  0  0  0  0  0  0
   24.2613  -20.6164  -12.0673 C   0  0  1  0  0  0  0  0  0  0  0  0
   24.2418  -20.4738  -10.5547 C   0  0  0  0  0  0  0  0  0  0  0  0
   25.5844  -20.6340   -9.9367 C   0  0  0  0  0  0  0  0  0  0  0  0
   26.4452  -21.6404  -10.4106 C   0  0  0  0  0  0  0  0  0  0  0  0
   27.6900  -21.8482   -9.8677 C   0  0  0  0  0  0  0  0  0  0  0  0
   28.1625  -21.0820   -8.8295 C   0  0  0  0  0  0  0  0  0  0  0  0
   27.3394  -20.0924   -8.3490 C   0  0  0  0  0  0  0  0  0  0  0  0
   26.0681  -19.8775   -8.9005 C   0  0  0  0  0  0  0  0  0  0  0  0
   22.8713  -20.7018  -12.5714 C   0  0  0  0  0  0  0  0  0  0  0  0
   22.1525  -19.6737  -12.6509 O   0  0  0  0  0  0  0  0  0  0  0  0
   21.0720  -24.3821  -13.6020 O   0  0  0  0  0  0  0  0  0  0  0  0
   20.7990  -23.2760  -14.4004 C   0  0  0  0  0  0  0  0  0  0  0  0
   20.9649  -22.0098  -13.5889 C   0  0  2  0  0  0  0  0  0  0  0  0
   22.2822  -21.9350  -12.9872 N   0  0  0  0  0  0  0  0  0  0  0  0
   19.9398  -21.9050  -12.5242 C   0  0  0  0  0  0  0  0  0  0  0  0
   18.7126  -21.8332  -12.8156 O   0  0  0  0  0  0  0  0  0  0  0  0
   20.3014  -21.8833  -11.1901 O   0  0  0  0  0  0  0  0  0  0  0  0
  2  1  1  0
  3  2  1  0
  3  4  1  6
  5  3  1  0
  5  6  1  1
  7  9  1  0
  7  5  1  0
  8  7  2  0
 10 11  1  1
 10  9  1  0
 12 17  2  0
 12 11  1  0
 13 12  1  0
 14 15  1  0
 14 13  2  0
 15 16  2  0
 16 17  1  0
 18 10  1  0
 18 19  2  0
 20 21  1  0
 22 21  1  1
 22 24  1  0
 22 23  1  0
 23 18  1  0
 24 26  1  0
 25 24  2  0
M  END
$$$$
