IFS.pdb
     RDKit          3D

 26 26  0  0  1  0  0  0  0  0999 V2000
   23.1153  -18.8128  -20.3552 C   0  0  0  0  0  0  0  0  0  0  0  0
   24.3514  -19.3054  -19.6518 C   0  0  0  0  0  0  0  0  0  0  0  0
   25.1782  -18.1653  -19.1405 C   0  0  2  0  0  0  0  0  0  0  0  0
   25.6054  -17.2852  -20.3166 C   0  0  0  0  0  0  0  0  0  0  0  0
   26.3960  -18.5774  -18.3523 C   0  0  2  0  0  0  0  0  0  0  0  0
   27.2323  -19.4065  -19.2564 N   0  0  0  0  0  0  0  0  0  0  0  0
   26.1758  -19.3915  -17.1714 C   0  0  0  0  0  0  0  0  0  0  0  0
   26.1844  -20.6440  -17.2551 O   0  0  0  0  0  0  0  0  0  0  0  0
   25.9524  -18.8231  -15.8989 N   0  0  0  0  0  0  0  0  0  0  0  0
   25.6643  -19.5103  -14.6841 C   0  0  1  0  0  0  0  0  0  0  0  0
   26.2745  -18.9211  -13.4234 C   0  0  0  0  0  0  0  0  0  0  0  0
   25.9852  -19.7237  -12.2058 C   0  0  0  0  0  0  0  0  0  0  0  0
   26.7574  -20.8678  -11.9354 C   0  0  0  0  0  0  0  0  0  0  0  0
   26.5258  -21.6588  -10.8362 C   0  0  0  0  0  0  0  0  0  0  0  0
   25.5245  -21.3741   -9.9393 C   0  0  0  0  0  0  0  0  0  0  0  0
   24.7562  -20.2613  -10.1824 C   0  0  0  0  0  0  0  0  0  0  0  0
   24.9895  -19.4518  -11.3034 C   0  0  0  0  0  0  0  0  0  0  0  0
   24.2242  -19.7721  -14.4576 C   0  0  0  0  0  0  0  0  0  0  0  0
   23.4019  -18.8239  -14.3885 O   0  0  0  0  0  0  0  0  0  0  0  0
   20.6248  -23.0442  -13.9814 O   0  0  0  0  0  0  0  0  0  0  0  0
   21.9734  -22.8271  -14.2447 C   0  0  0  0  0  0  0  0  0  0  0  0
   22.2915  -21.3562  -14.0890 C   0  0  2  0  0  0  0  0  0  0  0  0
   23.7006  -21.0927  -14.3081 N   0  0  0  0  0  0  0  0  0  0  0  0
   21.9076  -20.8529  -12.7494 C   0  0  0  0  0  0  0  0  0  0  0  0
   22.6932  -20.9703  -11.7670 O   0  0  0  0  0  0  0  0  0  0  0  0
   20.6834  -20.2446  -12.5435 O   0  0  0  0  0  0  0  0  0  0  0  0
  2  1  1  0
  3  2  1  0
  3  4  1  6
  5  3  1  0
  5  6  1  6
  7  9  1  0
  7  5  1  0
  8  7  2  0
 10 11  1  1
 10  9  1  0
 12 17  2  0
 12 11  1  0
 13 12  1  0
 14 15  1  0
 14 13  2  0
 15 16  2  0
 16 17  1  0
 18 10  1  0
 18 19  2  0
 20 21  1  0
 22 21  1  1
 22 24  1  0
 22 23  1  0
 23 18  1  0
 24 26  1  0
 25 24  2  0
M  END
$$$$
