KVG.pdb
     RDKit          3D

 21 20  0  0  1  0  0  0  0  0999 V2000
   27.9046  -18.7785  -15.9256 N   0  0  0  0  0  0  0  0  0  0  0  0
   27.2534  -18.3785  -14.7150 C   0  0  1  0  0  0  0  0  0  0  0  0
   26.5632  -17.0564  -14.8273 C   0  0  0  0  0  0  0  0  0  0  0  0
   26.4994  -16.4791  -16.1913 C   0  0  0  0  0  0  0  0  0  0  0  0
   25.4855  -17.0570  -17.1089 C   0  0  0  0  0  0  0  0  0  0  0  0
   25.4463  -16.3996  -18.4654 C   0  0  0  0  0  0  0  0  0  0  0  0
   24.9324  -15.0539  -18.2863 N   0  0  0  0  0  0  0  0  0  0  0  0
   26.3845  -19.4375  -14.1501 C   0  0  0  0  0  0  0  0  0  0  0  0
   25.8303  -20.2797  -14.9284 O   0  0  0  0  0  0  0  0  0  0  0  0
   27.4898  -21.5659  -11.2118 C   0  0  0  0  0  0  0  0  0  0  0  0
   26.0230  -21.3099  -11.0095 C   0  0  1  0  0  0  0  0  0  0  0  0
   25.7742  -20.4268   -9.8228 C   0  0  0  0  0  0  0  0  0  0  0  0
   25.3648  -20.7682  -12.2685 C   0  0  2  0  0  0  0  0  0  0  0  0
   26.1014  -19.6080  -12.7719 N   0  0  0  0  0  0  0  0  0  0  0  0
   23.9987  -20.2973  -11.9196 C   0  0  0  0  0  0  0  0  0  0  0  0
   23.8461  -19.3121  -11.1466 O   0  0  0  0  0  0  0  0  0  0  0  0
   22.8251  -20.9188  -12.4274 N   0  0  0  0  0  0  0  0  0  0  0  0
   21.4951  -20.5279  -12.0611 C   0  0  0  0  0  0  0  0  0  0  0  0
   20.5250  -21.3507  -12.8240 C   0  0  0  0  0  0  0  0  0  0  0  0
   19.1433  -21.1691  -12.6922 O   0  0  0  0  0  0  0  0  0  0  0  0
   20.9669  -22.2285  -13.6043 O   0  0  0  0  0  0  0  0  0  0  0  0
  2  1  1  6
  3  4  1  0
  3  2  1  0
  5  4  1  0
  6  5  1  0
  7  6  1  0
  8  2  1  0
  9  8  2  0
 11 10  1  6
 11 13  1  0
 12 11  1  0
 13 15  1  0
 13 14  1  1
 14  8  1  0
 15 17  1  0
 16 15  2  0
 17 18  1  0
 19 18  1  0
 19 20  1  0
 21 19  2  0
M  END
$$$$
