KVG.pdb
     RDKit          3D

 21 20  0  0  1  0  0  0  0  0999 V2000
   25.8472  -20.0746  -18.0992 N   0  0  0  0  0  0  0  0  0  0  0  0
   25.4546  -19.3712  -16.9157 C   0  0  1  0  0  0  0  0  0  0  0  0
   24.4279  -18.3144  -17.1726 C   0  0  0  0  0  0  0  0  0  0  0  0
   24.7966  -17.2925  -18.1814 C   0  0  0  0  0  0  0  0  0  0  0  0
   23.8913  -16.1219  -18.3003 C   0  0  0  0  0  0  0  0  0  0  0  0
   24.2550  -15.1820  -19.4220 C   0  0  0  0  0  0  0  0  0  0  0  0
   23.2725  -14.1135  -19.4354 N   0  0  0  0  0  0  0  0  0  0  0  0
   25.0858  -20.2764  -15.8021 C   0  0  0  0  0  0  0  0  0  0  0  0
   24.2616  -21.2253  -16.0079 O   0  0  0  0  0  0  0  0  0  0  0  0
   26.4720  -19.6935  -11.8070 C   0  0  0  0  0  0  0  0  0  0  0  0
   26.0920  -21.0769  -12.2538 C   0  0  1  0  0  0  0  0  0  0  0  0
   25.6013  -21.9127  -11.1090 C   0  0  0  0  0  0  0  0  0  0  0  0
   25.0964  -21.0466  -13.4025 C   0  0  2  0  0  0  0  0  0  0  0  0
   25.5834  -20.1819  -14.4784 N   0  0  0  0  0  0  0  0  0  0  0  0
   23.8266  -20.4522  -12.9088 C   0  0  0  0  0  0  0  0  0  0  0  0
   23.7123  -19.2004  -12.8016 O   0  0  0  0  0  0  0  0  0  0  0  0
   22.7053  -21.2456  -12.5419 N   0  0  0  0  0  0  0  0  0  0  0  0
   21.4814  -20.7045  -12.0270 C   0  0  0  0  0  0  0  0  0  0  0  0
   20.3540  -21.5621  -12.4672 C   0  0  0  0  0  0  0  0  0  0  0  0
   19.0626  -21.4007  -11.9517 O   0  0  0  0  0  0  0  0  0  0  0  0
   20.5766  -22.4513  -13.3242 O   0  0  0  0  0  0  0  0  0  0  0  0
  2  1  1  6
  3  4  1  0
  3  2  1  0
  5  4  1  0
  6  5  1  0
  7  6  1  0
  8  2  1  0
  9  8  2  0
 11 10  1  1
 11 13  1  0
 12 11  1  0
 13 15  1  0
 13 14  1  6
 14  8  1  0
 15 17  1  0
 16 15  2  0
 17 18  1  0
 19 18  1  0
 19 20  1  0
 21 19  2  0
M  END
$$$$
