KVG.pdb
     RDKit          3D

 21 20  0  0  1  0  0  0  0  0999 V2000
   27.7085  -22.7761  -16.0546 N   0  0  0  0  0  0  0  0  0  0  0  0
   27.5667  -21.6865  -15.1368 C   0  0  1  0  0  0  0  0  0  0  0  0
   27.6553  -20.3468  -15.7957 C   0  0  0  0  0  0  0  0  0  0  0  0
   27.0970  -20.2673  -17.1668 C   0  0  0  0  0  0  0  0  0  0  0  0
   26.1900  -19.1261  -17.4479 C   0  0  0  0  0  0  0  0  0  0  0  0
   25.6660  -19.0982  -18.8616 C   0  0  0  0  0  0  0  0  0  0  0  0
   24.8754  -17.8902  -19.0129 N   0  0  0  0  0  0  0  0  0  0  0  0
   26.3799  -21.8216  -14.2599 C   0  0  0  0  0  0  0  0  0  0  0  0
   25.4169  -22.5758  -14.6145 O   0  0  0  0  0  0  0  0  0  0  0  0
   26.7058  -20.5257  -10.5411 C   0  0  0  0  0  0  0  0  0  0  0  0
   25.3454  -21.1377  -10.7217 C   0  0  1  0  0  0  0  0  0  0  0  0
   24.2826  -20.3379  -10.0283 C   0  0  0  0  0  0  0  0  0  0  0  0
   25.0182  -21.3655  -12.1889 C   0  0  2  0  0  0  0  0  0  0  0  0
   26.2093  -21.1651  -13.0155 N   0  0  0  0  0  0  0  0  0  0  0  0
   24.0201  -20.3484  -12.6117 C   0  0  0  0  0  0  0  0  0  0  0  0
   24.3456  -19.1315  -12.6811 O   0  0  0  0  0  0  0  0  0  0  0  0
   22.6818  -20.6882  -12.9505 N   0  0  0  0  0  0  0  0  0  0  0  0
   21.6988  -19.7315  -13.3681 C   0  0  0  0  0  0  0  0  0  0  0  0
   20.5158  -19.8388  -12.4797 C   0  0  0  0  0  0  0  0  0  0  0  0
   19.4190  -18.9787  -12.6088 O   0  0  0  0  0  0  0  0  0  0  0  0
   20.5103  -20.7274  -11.5937 O   0  0  0  0  0  0  0  0  0  0  0  0
  2  1  1  6
  3  4  1  0
  3  2  1  0
  5  4  1  0
  6  5  1  0
  7  6  1  0
  8  2  1  0
  9  8  2  0
 11 10  1  6
 11 13  1  0
 12 11  1  0
 13 15  1  0
 13 14  1  6
 14  8  1  0
 15 17  1  0
 16 15  2  0
 17 18  1  0
 19 18  1  0
 19 20  1  0
 21 19  2  0
M  END
$$$$
