KVG.pdb
     RDKit          3D

 21 20  0  0  1  0  0  0  0  0999 V2000
   26.4405  -22.0737  -10.2942 N   0  0  0  0  0  0  0  0  0  0  0  0
   25.3134  -21.2714  -10.6625 C   0  0  1  0  0  0  0  0  0  0  0  0
   25.1642  -20.0444   -9.8204 C   0  0  0  0  0  0  0  0  0  0  0  0
   23.9230  -19.9664   -9.0134 C   0  0  0  0  0  0  0  0  0  0  0  0
   23.2766  -21.2567   -8.6653 C   0  0  0  0  0  0  0  0  0  0  0  0
   21.9825  -21.1046   -7.9063 C   0  0  0  0  0  0  0  0  0  0  0  0
   21.4129  -22.4294   -7.7399 N   0  0  0  0  0  0  0  0  0  0  0  0
   25.2591  -20.9851  -12.1153 C   0  0  0  0  0  0  0  0  0  0  0  0
   26.2402  -20.4011  -12.6796 O   0  0  0  0  0  0  0  0  0  0  0  0
   25.1810  -23.3094  -15.0185 C   0  0  0  0  0  0  0  0  0  0  0  0
   24.0139  -22.3756  -15.1719 C   0  0  1  0  0  0  0  0  0  0  0  0
   22.7218  -23.0388  -14.7970 C   0  0  0  0  0  0  0  0  0  0  0  0
   24.2263  -21.0757  -14.4124 C   0  0  2  0  0  0  0  0  0  0  0  0
   24.1762  -21.3128  -12.9689 N   0  0  0  0  0  0  0  0  0  0  0  0
   23.1087  -20.1517  -14.7396 C   0  0  0  0  0  0  0  0  0  0  0  0
   22.0791  -20.1196  -14.0114 O   0  0  0  0  0  0  0  0  0  0  0  0
   23.1441  -19.2798  -15.8620 N   0  0  0  0  0  0  0  0  0  0  0  0
   22.0327  -18.4771  -16.2820 C   0  0  0  0  0  0  0  0  0  0  0  0
   22.1876  -18.1573  -17.7220 C   0  0  0  0  0  0  0  0  0  0  0  0
   21.7375  -16.9453  -18.2586 O   0  0  0  0  0  0  0  0  0  0  0  0
   22.7380  -19.0031  -18.4679 O   0  0  0  0  0  0  0  0  0  0  0  0
  2  1  1  6
  3  4  1  0
  3  2  1  0
  5  4  1  0
  6  5  1  0
  7  6  1  0
  8  2  1  0
  9  8  2  0
 11 10  1  1
 11 13  1  0
 12 11  1  0
 13 15  1  0
 13 14  1  1
 14  8  1  0
 15 17  1  0
 16 15  2  0
 17 18  1  0
 19 18  1  0
 19 20  1  0
 21 19  2  0
M  END
$$$$
