KVG.pdb
     RDKit          3D

 21 20  0  0  1  0  0  0  0  0999 V2000
   25.6154  -15.7953  -16.9543 N   0  0  0  0  0  0  0  0  0  0  0  0
   24.3491  -15.1819  -16.6897 C   0  0  1  0  0  0  0  0  0  0  0  0
   23.5979  -15.8397  -15.5762 C   0  0  0  0  0  0  0  0  0  0  0  0
   23.2597  -17.2679  -15.7855 C   0  0  0  0  0  0  0  0  0  0  0  0
   22.4549  -17.9211  -14.7227 C   0  0  0  0  0  0  0  0  0  0  0  0
   22.1563  -19.3746  -14.9910 C   0  0  0  0  0  0  0  0  0  0  0  0
   21.4220  -19.8898  -13.8498 N   0  0  0  0  0  0  0  0  0  0  0  0
   24.4416  -13.7112  -16.5344 C   0  0  0  0  0  0  0  0  0  0  0  0
   25.4902  -13.1958  -16.0277 O   0  0  0  0  0  0  0  0  0  0  0  0
   22.0165  -11.1224  -18.7203 C   0  0  0  0  0  0  0  0  0  0  0  0
   23.3380  -10.6803  -18.1582 C   0  0  1  0  0  0  0  0  0  0  0  0
   23.4325   -9.1856  -18.0771 C   0  0  0  0  0  0  0  0  0  0  0  0
   23.6334  -11.3415  -16.8213 C   0  0  2  0  0  0  0  0  0  0  0  0
   23.4340  -12.7887  -16.9115 N   0  0  0  0  0  0  0  0  0  0  0  0
   22.6614  -10.8308  -15.8192 C   0  0  0  0  0  0  0  0  0  0  0  0
   21.4707  -11.2476  -15.8216 O   0  0  0  0  0  0  0  0  0  0  0  0
   23.0169   -9.8709  -14.8326 N   0  0  0  0  0  0  0  0  0  0  0  0
   22.1257   -9.4182  -13.8046 C   0  0  0  0  0  0  0  0  0  0  0  0
   21.6992   -8.0317  -14.1144 C   0  0  0  0  0  0  0  0  0  0  0  0
   20.8710   -7.3068  -13.2497 O   0  0  0  0  0  0  0  0  0  0  0  0
   22.0980   -7.5066  -15.1821 O   0  0  0  0  0  0  0  0  0  0  0  0
  2  1  1  1
  3  4  1  0
  3  2  1  0
  5  4  1  0
  6  5  1  0
  7  6  1  0
  8  2  1  0
  9  8  2  0
 11 10  1  1
 11 13  1  0
 12 11  1  0
 13 15  1  0
 13 14  1  6
 14  8  1  0
 15 17  1  0
 16 15  2  0
 17 18  1  0
 19 18  1  0
 19 20  1  0
 21 19  2  0
M  END
$$$$
