KVG.pdb
     RDKit          3D

 21 20  0  0  1  0  0  0  0  0999 V2000
   22.1564  -13.7498  -17.0963 N   0  0  0  0  0  0  0  0  0  0  0  0
   21.9026  -12.3848  -17.4457 C   0  0  1  0  0  0  0  0  0  0  0  0
   20.5040  -12.1492  -17.9204 C   0  0  0  0  0  0  0  0  0  0  0  0
   20.0874  -12.9349  -19.1066 C   0  0  0  0  0  0  0  0  0  0  0  0
   18.7827  -12.5739  -19.7158 C   0  0  0  0  0  0  0  0  0  0  0  0
   18.4053  -13.4292  -20.8990 C   0  0  0  0  0  0  0  0  0  0  0  0
   18.2541  -14.7927  -20.4245 N   0  0  0  0  0  0  0  0  0  0  0  0
   22.3232  -11.4317  -16.3920 C   0  0  0  0  0  0  0  0  0  0  0  0
   21.9147  -11.5933  -15.1966 O   0  0  0  0  0  0  0  0  0  0  0  0
   25.6216  -10.8436  -15.0084 C   0  0  0  0  0  0  0  0  0  0  0  0
   25.1125   -9.4742  -15.3599 C   0  0  1  0  0  0  0  0  0  0  0  0
   25.7922   -8.9278  -16.5803 C   0  0  0  0  0  0  0  0  0  0  0  0
   23.5982   -9.4515  -15.4952 C   0  0  2  0  0  0  0  0  0  0  0  0
   23.1704  -10.3142  -16.5974 N   0  0  0  0  0  0  0  0  0  0  0  0
   23.1774   -8.0677  -15.8382 C   0  0  0  0  0  0  0  0  0  0  0  0
   23.5758   -7.5310  -16.9082 O   0  0  0  0  0  0  0  0  0  0  0  0
   22.3259   -7.2993  -14.9981 N   0  0  0  0  0  0  0  0  0  0  0  0
   21.9867   -5.9288  -15.2480 C   0  0  0  0  0  0  0  0  0  0  0  0
   22.2467   -5.1377  -14.0205 C   0  0  0  0  0  0  0  0  0  0  0  0
   22.0667   -3.7499  -13.9884 O   0  0  0  0  0  0  0  0  0  0  0  0
   22.6378   -5.7397  -12.9913 O   0  0  0  0  0  0  0  0  0  0  0  0
  2  1  1  1
  3  4  1  0
  3  2  1  0
  5  4  1  0
  6  5  1  0
  7  6  1  0
  8  2  1  0
  9  8  2  0
 11 10  1  6
 11 13  1  0
 12 11  1  0
 13 15  1  0
 13 14  1  6
 14  8  1  0
 15 17  1  0
 16 15  2  0
 17 18  1  0
 19 18  1  0
 19 20  1  0
 21 19  2  0
M  END
$$$$
