HPI.pdb
     RDKit          3D

 26 27  0  0  1  0  0  0  0  0999 V2000
   11.9240  -17.6416   19.8162 N   0  0  0  0  0  0  0  0  0  0  0  0
   10.5418  -17.6799   20.2067 C   0  0  1  0  0  0  0  0  0  0  0  0
   10.3312  -18.9861   20.9498 C   0  0  0  0  0  0  0  0  0  0  0  0
   11.1879  -19.0614   22.1614 C   0  0  0  0  0  0  0  0  0  0  0  0
   12.5672  -19.0134   22.1996 C   0  0  0  0  0  0  0  0  0  0  0  0
   12.9701  -19.1120   23.4774 N   0  0  0  0  0  0  0  0  0  0  0  0
   11.8728  -19.2221   24.2558 C   0  0  0  0  0  0  0  0  0  0  0  0
   10.7973  -19.1905   23.4500 N   0  0  0  0  0  0  0  0  0  0  0  0
   10.1226  -16.5480   21.0580 C   0  0  0  0  0  0  0  0  0  0  0  0
   11.0873  -15.8294   21.5271 O   0  0  0  0  0  0  0  0  0  0  0  0
    8.7787  -16.2261   21.3701 N   0  0  0  0  0  0  0  0  0  0  0  0
    7.6744  -17.1435   21.0459 C   0  0  0  0  0  0  0  0  0  0  0  0
    6.6853  -16.1646   20.4469 C   0  0  0  0  0  0  0  0  0  0  0  0
    6.8271  -14.9593   21.3321 C   0  0  0  0  0  0  0  0  0  0  0  0
    8.1900  -15.0971   22.0132 C   0  0  1  0  0  0  0  0  0  0  0  0
    8.0306  -15.2751   23.4833 C   0  0  0  0  0  0  0  0  0  0  0  0
    8.1157  -16.4265   23.9665 O   0  0  0  0  0  0  0  0  0  0  0  0
    5.7617  -11.4502   27.1241 C   0  0  0  0  0  0  0  0  0  0  0  0
    6.0933  -12.6057   26.2070 C   0  0  0  0  0  0  0  0  0  0  0  0
    7.5075  -13.0480   26.5319 C   0  0  2  0  0  0  0  0  0  0  0  0
    8.4407  -11.9217   26.1522 C   0  0  0  0  0  0  0  0  0  0  0  0
    7.8680  -14.3322   25.8135 C   0  0  2  0  0  0  0  0  0  0  0  0
    7.7843  -14.2099   24.3905 N   0  0  0  0  0  0  0  0  0  0  0  0
    7.1314  -15.4942   26.3529 C   0  0  0  0  0  0  0  0  0  0  0  0
    7.5059  -16.1459   27.5364 O   0  0  0  0  0  0  0  0  0  0  0  0
    6.1169  -15.9827   25.7914 O   0  0  0  0  0  0  0  0  0  0  0  0
  2  1  1  1
  3  2  1  0
  4  3  1  0
  5  4  2  0
  6  7  1  0
  6  5  1  0
  7  8  2  0
  8  4  1  0
  9 11  1  0
  9  2  1  0
 10  9  2  0
 11 15  1  0
 12 13  1  0
 12 11  1  0
 13 14  1  0
 15 14  1  0
 15 16  1  1
 16 17  2  0
 18 19  1  0
 19 20  1  0
 20 21  1  6
 20 22  1  0
 22 24  1  0
 22 23  1  6
 23 16  1  0
 24 25  1  0
 26 24  2  0
M  END
$$$$
