HPI.pdb
     RDKit          3D

 26 27  0  0  1  0  0  0  0  0999 V2000
   10.6840  -17.6648   18.9191 N   0  0  0  0  0  0  0  0  0  0  0  0
    9.5130  -17.5186   19.7387 C   0  0  1  0  0  0  0  0  0  0  0  0
    9.2529  -18.8698   20.3785 C   0  0  0  0  0  0  0  0  0  0  0  0
    8.7679  -19.8557   19.3783 C   0  0  0  0  0  0  0  0  0  0  0  0
    7.8031  -19.6441   18.4135 C   0  0  0  0  0  0  0  0  0  0  0  0
    7.6427  -20.7737   17.7044 N   0  0  0  0  0  0  0  0  0  0  0  0
    8.4878  -21.7029   18.1991 C   0  0  0  0  0  0  0  0  0  0  0  0
    9.1656  -21.1380   19.2132 N   0  0  0  0  0  0  0  0  0  0  0  0
    9.6340  -16.4850   20.7869 C   0  0  0  0  0  0  0  0  0  0  0  0
   10.8443  -16.1600   21.0980 O   0  0  0  0  0  0  0  0  0  0  0  0
    8.5404  -15.8611   21.4366 N   0  0  0  0  0  0  0  0  0  0  0  0
    7.1505  -16.2386   21.1335 C   0  0  0  0  0  0  0  0  0  0  0  0
    6.5257  -14.8643   21.0056 C   0  0  0  0  0  0  0  0  0  0  0  0
    7.1895  -14.0893   22.1079 C   0  0  0  0  0  0  0  0  0  0  0  0
    8.4743  -14.8502   22.4406 C   0  0  1  0  0  0  0  0  0  0  0  0
    8.4204  -15.3987   23.8243 C   0  0  0  0  0  0  0  0  0  0  0  0
    8.0707  -16.5889   23.9905 O   0  0  0  0  0  0  0  0  0  0  0  0
   10.2801  -13.7152   29.5355 C   0  0  0  0  0  0  0  0  0  0  0  0
   10.1311  -14.8146   28.5082 C   0  0  0  0  0  0  0  0  0  0  0  0
    9.5724  -14.1818   27.2479 C   0  0  2  0  0  0  0  0  0  0  0  0
    8.3105  -13.4410   27.6252 C   0  0  0  0  0  0  0  0  0  0  0  0
    9.3068  -15.2182   26.1753 C   0  0  2  0  0  0  0  0  0  0  0  0
    8.7438  -14.6513   24.9885 N   0  0  0  0  0  0  0  0  0  0  0  0
    8.5486  -16.3741   26.6975 C   0  0  0  0  0  0  0  0  0  0  0  0
    9.1601  -17.4370   27.3771 O   0  0  0  0  0  0  0  0  0  0  0  0
    7.3019  -16.4891   26.5709 O   0  0  0  0  0  0  0  0  0  0  0  0
  2  1  1  1
  3  2  1  0
  4  3  1  0
  5  4  2  0
  6  7  1  0
  6  5  1  0
  7  8  2  0
  8  4  1  0
  9 11  1  0
  9  2  1  0
 10  9  2  0
 11 15  1  0
 12 13  1  0
 12 11  1  0
 13 14  1  0
 15 14  1  0
 15 16  1  1
 16 17  2  0
 18 19  1  0
 19 20  1  0
 20 21  1  1
 20 22  1  0
 22 24  1  0
 22 23  1  6
 23 16  1  0
 24 25  1  0
 26 24  2  0
M  END
$$$$
