HPI.pdb
     RDKit          3D

 26 27  0  0  1  0  0  0  0  0999 V2000
   12.0815  -17.4687   19.9809 N   0  0  0  0  0  0  0  0  0  0  0  0
   10.8233  -17.6178   20.6585 C   0  0  1  0  0  0  0  0  0  0  0  0
   11.0285  -18.6599   21.7421 C   0  0  0  0  0  0  0  0  0  0  0  0
   11.0890  -20.0294   21.1688 C   0  0  0  0  0  0  0  0  0  0  0  0
   10.2263  -20.5714   20.2371 C   0  0  0  0  0  0  0  0  0  0  0  0
   10.6098  -21.8311   19.9710 N   0  0  0  0  0  0  0  0  0  0  0  0
   11.7020  -22.1032   20.7163 C   0  0  0  0  0  0  0  0  0  0  0  0
   11.9853  -21.0058   21.4391 N   0  0  0  0  0  0  0  0  0  0  0  0
   10.3076  -16.3699   21.2572 C   0  0  0  0  0  0  0  0  0  0  0  0
   11.2122  -15.5302   21.6363 O   0  0  0  0  0  0  0  0  0  0  0  0
    8.9351  -16.0624   21.4275 N   0  0  0  0  0  0  0  0  0  0  0  0
    7.8799  -16.9500   20.9127 C   0  0  0  0  0  0  0  0  0  0  0  0
    6.9669  -15.9277   20.2671 C   0  0  0  0  0  0  0  0  0  0  0  0
    6.9987  -14.7854   21.2420 C   0  0  0  0  0  0  0  0  0  0  0  0
    8.2708  -14.9760   22.0701 C   0  0  1  0  0  0  0  0  0  0  0  0
    7.9373  -15.2514   23.4954 C   0  0  0  0  0  0  0  0  0  0  0  0
    7.8246  -16.4396   23.8721 O   0  0  0  0  0  0  0  0  0  0  0  0
    5.3567  -11.7861   27.2418 C   0  0  0  0  0  0  0  0  0  0  0  0
    5.7558  -12.9329   26.3409 C   0  0  0  0  0  0  0  0  0  0  0  0
    7.1965  -13.2805   26.6643 C   0  0  2  0  0  0  0  0  0  0  0  0
    8.0419  -12.0643   26.3646 C   0  0  0  0  0  0  0  0  0  0  0  0
    7.6669  -14.4889   25.8809 C   0  0  2  0  0  0  0  0  0  0  0  0
    7.7345  -14.2411   24.4735 N   0  0  0  0  0  0  0  0  0  0  0  0
    6.9077  -15.7070   26.2327 C   0  0  0  0  0  0  0  0  0  0  0  0
    7.1674  -16.4538   27.3903 O   0  0  0  0  0  0  0  0  0  0  0  0
    5.9752  -16.1620   25.5210 O   0  0  0  0  0  0  0  0  0  0  0  0
  2  1  1  1
  3  2  1  0
  4  3  1  0
  5  4  2  0
  6  7  1  0
  6  5  1  0
  7  8  2  0
  8  4  1  0
  9 11  1  0
  9  2  1  0
 10  9  2  0
 11 15  1  0
 12 13  1  0
 12 11  1  0
 13 14  1  0
 15 14  1  0
 15 16  1  1
 16 17  2  0
 18 19  1  0
 19 20  1  0
 20 21  1  6
 20 22  1  0
 22 24  1  0
 22 23  1  6
 23 16  1  0
 24 25  1  0
 26 24  2  0
M  END
$$$$
