HPI.pdb
     RDKit          3D

 26 27  0  0  1  0  0  0  0  0999 V2000
   10.7294  -17.9332   19.0761 N   0  0  0  0  0  0  0  0  0  0  0  0
    9.4903  -17.6249   19.7351 C   0  0  1  0  0  0  0  0  0  0  0  0
    9.0628  -18.8784   20.4756 C   0  0  0  0  0  0  0  0  0  0  0  0
    8.6333  -19.9425   19.5317 C   0  0  0  0  0  0  0  0  0  0  0  0
    7.6557  -19.8385   18.5623 C   0  0  0  0  0  0  0  0  0  0  0  0
    7.5593  -21.0117   17.9149 N   0  0  0  0  0  0  0  0  0  0  0  0
    8.4580  -21.8629   18.4535 C   0  0  0  0  0  0  0  0  0  0  0  0
    9.1043  -21.2066   19.4325 N   0  0  0  0  0  0  0  0  0  0  0  0
    9.5731  -16.4915   20.6786 C   0  0  0  0  0  0  0  0  0  0  0  0
   10.7512  -16.2595   21.1533 O   0  0  0  0  0  0  0  0  0  0  0  0
    8.4767  -15.6838   21.0695 N   0  0  0  0  0  0  0  0  0  0  0  0
    7.1296  -15.8984   20.5169 C   0  0  0  0  0  0  0  0  0  0  0  0
    6.7422  -14.4678   20.2028 C   0  0  0  0  0  0  0  0  0  0  0  0
    7.2897  -13.7060   21.3761 C   0  0  0  0  0  0  0  0  0  0  0  0
    8.3670  -14.6009   21.9914 C   0  0  1  0  0  0  0  0  0  0  0  0
    7.9756  -15.0332   23.3619 C   0  0  0  0  0  0  0  0  0  0  0  0
    7.2951  -16.0750   23.4969 O   0  0  0  0  0  0  0  0  0  0  0  0
    5.7578  -11.8559   27.1794 C   0  0  0  0  0  0  0  0  0  0  0  0
    6.2288  -12.8562   26.1480 C   0  0  0  0  0  0  0  0  0  0  0  0
    7.4792  -13.5161   26.6977 C   0  0  2  0  0  0  0  0  0  0  0  0
    8.5676  -12.4690   26.7491 C   0  0  0  0  0  0  0  0  0  0  0  0
    7.8951  -14.7068   25.8584 C   0  0  2  0  0  0  0  0  0  0  0  0
    8.3272  -14.3326   24.5468 N   0  0  0  0  0  0  0  0  0  0  0  0
    6.8718  -15.7729   25.8638 C   0  0  0  0  0  0  0  0  0  0  0  0
    6.7689  -16.7192   26.8930 O   0  0  0  0  0  0  0  0  0  0  0  0
    6.0200  -15.9092   24.9477 O   0  0  0  0  0  0  0  0  0  0  0  0
  2  1  1  1
  3  2  1  0
  4  3  1  0
  5  4  2  0
  6  7  1  0
  6  5  1  0
  7  8  2  0
  8  4  1  0
  9 11  1  0
  9  2  1  0
 10  9  2  0
 11 15  1  0
 12 13  1  0
 12 11  1  0
 13 14  1  0
 15 14  1  0
 15 16  1  1
 16 17  2  0
 18 19  1  0
 19 20  1  0
 20 21  1  6
 20 22  1  0
 22 24  1  0
 22 23  1  6
 23 16  1  0
 24 25  1  0
 26 24  2  0
M  END
$$$$
