HPI.pdb
     RDKit          3D

 26 27  0  0  1  0  0  0  0  0999 V2000
    9.7456  -17.2053   18.0991 N   0  0  0  0  0  0  0  0  0  0  0  0
    9.6727  -17.6459   19.4648 C   0  0  1  0  0  0  0  0  0  0  0  0
   11.1009  -17.8020   19.9530 C   0  0  0  0  0  0  0  0  0  0  0  0
   11.5409  -19.2197   19.8887 C   0  0  0  0  0  0  0  0  0  0  0  0
   10.9333  -20.2995   20.4980 C   0  0  0  0  0  0  0  0  0  0  0  0
   11.6276  -21.4114   20.2043 N   0  0  0  0  0  0  0  0  0  0  0  0
   12.6677  -21.0610   19.4184 C   0  0  0  0  0  0  0  0  0  0  0  0
   12.6073  -19.7311   19.2323 N   0  0  0  0  0  0  0  0  0  0  0  0
    8.9374  -16.7274   20.3578 C   0  0  0  0  0  0  0  0  0  0  0  0
    9.2360  -15.4784   20.2242 O   0  0  0  0  0  0  0  0  0  0  0  0
    7.9663  -17.1292   21.3079 N   0  0  0  0  0  0  0  0  0  0  0  0
    7.7073  -18.5510   21.5866 C   0  0  0  0  0  0  0  0  0  0  0  0
    6.1923  -18.5510   21.5721 C   0  0  0  0  0  0  0  0  0  0  0  0
    5.8495  -17.2630   22.2650 C   0  0  0  0  0  0  0  0  0  0  0  0
    7.0986  -16.3859   22.1618 C   0  0  1  0  0  0  0  0  0  0  0  0
    7.6780  -16.1306   23.5100 C   0  0  0  0  0  0  0  0  0  0  0  0
    8.4766  -16.9642   23.9934 O   0  0  0  0  0  0  0  0  0  0  0  0
    6.1875  -11.8218   27.2402 C   0  0  0  0  0  0  0  0  0  0  0  0
    6.2850  -13.1340   26.4955 C   0  0  0  0  0  0  0  0  0  0  0  0
    7.7205  -13.2818   26.0279 C   0  0  2  0  0  0  0  0  0  0  0  0
    7.9542  -12.2680   24.9319 C   0  0  0  0  0  0  0  0  0  0  0  0
    8.0080  -14.6905   25.5502 C   0  0  2  0  0  0  0  0  0  0  0  0
    7.3814  -14.9867   24.2986 N   0  0  0  0  0  0  0  0  0  0  0  0
    7.7416  -15.6964   26.5993 C   0  0  0  0  0  0  0  0  0  0  0  0
    8.5796  -15.8740   27.7091 O   0  0  0  0  0  0  0  0  0  0  0  0
    6.7459  -16.4654   26.5738 O   0  0  0  0  0  0  0  0  0  0  0  0
  2  1  1  6
  3  2  1  0
  4  3  1  0
  5  4  2  0
  6  7  1  0
  6  5  1  0
  7  8  2  0
  8  4  1  0
  9 11  1  0
  9  2  1  0
 10  9  2  0
 11 15  1  0
 12 13  1  0
 12 11  1  0
 13 14  1  0
 15 14  1  0
 15 16  1  1
 16 17  2  0
 18 19  1  0
 19 20  1  0
 20 21  1  6
 20 22  1  0
 22 24  1  0
 22 23  1  6
 23 16  1  0
 24 25  1  0
 26 24  2  0
M  END
$$$$
