HTI.pdb
     RDKit          3D

 26 26  0  0  1  0  0  0  0  0999 V2000
   16.4532  -11.5212  -15.9790 N   0  0  0  0  0  0  0  0  0  0  0  0
   17.8230  -11.1051  -15.9727 C   0  0  1  0  0  0  0  0  0  0  0  0
   18.6354  -11.8700  -17.0176 C   0  0  0  0  0  0  0  0  0  0  0  0
   18.5689  -13.3038  -16.6264 C   0  0  0  0  0  0  0  0  0  0  0  0
   19.1448  -13.9324  -15.5350 C   0  0  0  0  0  0  0  0  0  0  0  0
   18.8442  -15.2386  -15.5435 N   0  0  0  0  0  0  0  0  0  0  0  0
   18.0855  -15.4394  -16.6280 C   0  0  0  0  0  0  0  0  0  0  0  0
   17.9108  -14.2755  -17.2932 N   0  0  0  0  0  0  0  0  0  0  0  0
   17.9399   -9.6452  -16.1523 C   0  0  0  0  0  0  0  0  0  0  0  0
   17.2345   -9.0873  -17.0551 O   0  0  0  0  0  0  0  0  0  0  0  0
   16.4270   -7.4934  -16.1390 C   0  0  0  0  0  0  0  0  0  0  0  0
   17.4053   -7.0146  -15.0987 C   0  0  1  0  0  0  0  0  0  0  0  0
   16.9512   -7.3819  -13.8587 O   0  0  0  0  0  0  0  0  0  0  0  0
   18.8126   -7.4826  -15.3868 C   0  0  2  0  0  0  0  0  0  0  0  0
   18.8259   -8.9257  -15.3199 N   0  0  0  0  0  0  0  0  0  0  0  0
   19.8180   -6.9054  -14.4691 C   0  0  0  0  0  0  0  0  0  0  0  0
   20.1129   -7.5450  -13.4279 O   0  0  0  0  0  0  0  0  0  0  0  0
   23.9529   -6.9714  -16.9444 C   0  0  0  0  0  0  0  0  0  0  0  0
   22.9919   -6.8222  -15.8270 C   0  0  0  0  0  0  0  0  0  0  0  0
   22.7068   -5.4852  -15.2901 C   0  0  2  0  0  0  0  0  0  0  0  0
   24.0352   -4.7857  -14.8904 C   0  0  0  0  0  0  0  0  0  0  0  0
   21.7279   -5.3139  -14.1925 C   0  0  2  0  0  0  0  0  0  0  0  0
   20.4046   -5.6653  -14.7966 N   0  0  0  0  0  0  0  0  0  0  0  0
   21.5893   -3.9822  -13.5872 C   0  0  0  0  0  0  0  0  0  0  0  0
   22.1552   -3.5592  -12.4026 O   0  0  0  0  0  0  0  0  0  0  0  0
   20.8753   -3.0730  -14.1671 O   0  0  0  0  0  0  0  0  0  0  0  0
  2  9  1  0
  2  1  1  6
  3  2  1  0
  4  8  1  0
  4  3  1  0
  5  4  2  0
  6  5  1  0
  6  7  1  0
  7  8  2  0
  9 10  2  0
 12 11  1  6
 12 14  1  0
 13 12  1  0
 14 15  1  1
 15  9  1  0
 16 17  2  0
 16 14  1  0
 18 19  1  0
 19 20  1  0
 20 22  1  0
 20 21  1  1
 22 23  1  6
 22 24  1  0
 23 16  1  0
 24 26  2  0
 24 25  1  0
M  END
$$$$
