HTI.pdb
     RDKit          3D

 26 26  0  0  1  0  0  0  0  0999 V2000
   16.6830  -12.7121  -17.8450 N   0  0  0  0  0  0  0  0  0  0  0  0
   17.0567  -12.0278  -16.6443 C   0  0  1  0  0  0  0  0  0  0  0  0
   17.8551  -12.9423  -15.7153 C   0  0  0  0  0  0  0  0  0  0  0  0
   16.9004  -13.9736  -15.2277 C   0  0  0  0  0  0  0  0  0  0  0  0
   15.5387  -14.0737  -15.4601 C   0  0  0  0  0  0  0  0  0  0  0  0
   15.0429  -15.1531  -14.8389 N   0  0  0  0  0  0  0  0  0  0  0  0
   16.0771  -15.7336  -14.2180 C   0  0  0  0  0  0  0  0  0  0  0  0
   17.2086  -15.0294  -14.4452 N   0  0  0  0  0  0  0  0  0  0  0  0
   17.7880  -10.7816  -16.9438 C   0  0  0  0  0  0  0  0  0  0  0  0
   18.7351  -10.8245  -17.7952 O   0  0  0  0  0  0  0  0  0  0  0  0
   16.4498   -7.8834  -18.4643 C   0  0  0  0  0  0  0  0  0  0  0  0
   17.0467   -7.4045  -17.1671 C   0  0  1  0  0  0  0  0  0  0  0  0
   16.0340   -7.1441  -16.2808 O   0  0  0  0  0  0  0  0  0  0  0  0
   18.0825   -8.3649  -16.6315 C   0  0  2  0  0  0  0  0  0  0  0  0
   17.4110   -9.5943  -16.2776 N   0  0  0  0  0  0  0  0  0  0  0  0
   18.8349   -7.8271  -15.4779 C   0  0  0  0  0  0  0  0  0  0  0  0
   18.4179   -8.0851  -14.3204 O   0  0  0  0  0  0  0  0  0  0  0  0
   23.4816   -9.2941  -14.5990 C   0  0  0  0  0  0  0  0  0  0  0  0
   22.1576   -8.6373  -14.4999 C   0  0  0  0  0  0  0  0  0  0  0  0
   22.0643   -7.1753  -14.6062 C   0  0  2  0  0  0  0  0  0  0  0  0
   23.0074   -6.5119  -13.5649 C   0  0  0  0  0  0  0  0  0  0  0  0
   20.7453   -6.5048  -14.5511 C   0  0  2  0  0  0  0  0  0  0  0  0
   19.9861   -7.0492  -15.7202 N   0  0  0  0  0  0  0  0  0  0  0  0
   20.7065   -5.0395  -14.6520 C   0  0  0  0  0  0  0  0  0  0  0  0
   20.6465   -4.1485  -13.6008 O   0  0  0  0  0  0  0  0  0  0  0  0
   20.7205   -4.4645  -15.8104 O   0  0  0  0  0  0  0  0  0  0  0  0
  2  9  1  0
  2  1  1  6
  3  2  1  0
  4  8  1  0
  4  3  1  0
  5  4  2  0
  6  5  1  0
  6  7  1  0
  7  8  2  0
  9 10  2  0
 12 11  1  6
 12 14  1  0
 13 12  1  0
 14 15  1  1
 15  9  1  0
 16 17  2  0
 16 14  1  0
 18 19  1  0
 19 20  1  0
 20 22  1  0
 20 21  1  1
 22 23  1  6
 22 24  1  0
 23 16  1  0
 24 26  2  0
 24 25  1  0
M  END
$$$$
