HTI.pdb
     RDKit          3D

 26 26  0  0  1  0  0  0  0  0999 V2000
   28.1513  -24.5997  -17.9325 N   0  0  0  0  0  0  0  0  0  0  0  0
   27.0511  -24.4096  -17.0364 C   0  0  1  0  0  0  0  0  0  0  0  0
   26.7735  -25.6775  -16.2289 C   0  0  0  0  0  0  0  0  0  0  0  0
   25.6956  -26.4029  -16.9534 C   0  0  0  0  0  0  0  0  0  0  0  0
   25.7461  -27.6437  -17.5667 C   0  0  0  0  0  0  0  0  0  0  0  0
   24.5566  -27.9386  -18.1096 N   0  0  0  0  0  0  0  0  0  0  0  0
   23.7578  -26.8975  -17.8451 C   0  0  0  0  0  0  0  0  0  0  0  0
   24.4350  -25.9598  -17.1452 N   0  0  0  0  0  0  0  0  0  0  0  0
   27.2692  -23.2420  -16.1609 C   0  0  0  0  0  0  0  0  0  0  0  0
   28.4522  -23.0047  -15.7509 O   0  0  0  0  0  0  0  0  0  0  0  0
   27.1026  -19.8089  -16.7240 C   0  0  0  0  0  0  0  0  0  0  0  0
   26.1013  -20.0526  -15.6256 C   0  0  1  0  0  0  0  0  0  0  0  0
   24.8376  -19.9773  -16.1510 O   0  0  0  0  0  0  0  0  0  0  0  0
   26.3708  -21.3442  -14.8898 C   0  0  2  0  0  0  0  0  0  0  0  0
   26.1626  -22.4359  -15.8129 N   0  0  0  0  0  0  0  0  0  0  0  0
   25.5353  -21.5120  -13.6816 C   0  0  0  0  0  0  0  0  0  0  0  0
   24.5897  -22.3394  -13.7197 O   0  0  0  0  0  0  0  0  0  0  0  0
   28.0024  -20.6187   -9.0485 C   0  0  0  0  0  0  0  0  0  0  0  0
   26.8849  -21.2419   -9.7949 C   0  0  0  0  0  0  0  0  0  0  0  0
   25.7371  -20.4202  -10.2007 C   0  0  2  0  0  0  0  0  0  0  0  0
   24.8065  -20.1789   -8.9802 C   0  0  0  0  0  0  0  0  0  0  0  0
   24.9084  -20.8157  -11.3622 C   0  0  2  0  0  0  0  0  0  0  0  0
   25.8308  -20.7408  -12.5383 N   0  0  0  0  0  0  0  0  0  0  0  0
   23.7284  -20.0012  -11.6829 C   0  0  0  0  0  0  0  0  0  0  0  0
   23.7217  -18.8070  -12.3733 O   0  0  0  0  0  0  0  0  0  0  0  0
   22.5513  -20.3804  -11.3043 O   0  0  0  0  0  0  0  0  0  0  0  0
  2  9  1  0
  2  1  1  1
  3  2  1  0
  4  8  1  0
  4  3  1  0
  5  4  2  0
  6  5  1  0
  6  7  1  0
  7  8  2  0
  9 10  2  0
 12 11  1  6
 12 14  1  0
 13 12  1  0
 14 15  1  6
 15  9  1  0
 16 17  2  0
 16 14  1  0
 18 19  1  0
 19 20  1  0
 20 22  1  0
 20 21  1  1
 22 23  1  6
 22 24  1  0
 23 16  1  0
 24 26  2  0
 24 25  1  0
M  END
$$$$
