HTI.pdb
     RDKit          3D

 26 26  0  0  1  0  0  0  0  0999 V2000
   27.2634  -21.0358  -17.4087 N   0  0  0  0  0  0  0  0  0  0  0  0
   27.1044  -21.7081  -16.1547 C   0  0  1  0  0  0  0  0  0  0  0  0
   28.3790  -22.4575  -15.7666 C   0  0  0  0  0  0  0  0  0  0  0  0
   28.3441  -23.7467  -16.5080 C   0  0  0  0  0  0  0  0  0  0  0  0
   27.8428  -24.9704  -16.0964 C   0  0  0  0  0  0  0  0  0  0  0  0
   28.0037  -25.8839  -17.0641 N   0  0  0  0  0  0  0  0  0  0  0  0
   28.6007  -25.2490  -18.0803 C   0  0  0  0  0  0  0  0  0  0  0  0
   28.8127  -23.9535  -17.7569 N   0  0  0  0  0  0  0  0  0  0  0  0
   26.6776  -20.7729  -15.0962 C   0  0  0  0  0  0  0  0  0  0  0  0
   26.4471  -19.5609  -15.4152 O   0  0  0  0  0  0  0  0  0  0  0  0
   24.5467  -19.4956  -14.6984 C   0  0  0  0  0  0  0  0  0  0  0  0
   24.5094  -20.0835  -13.3122 C   0  0  1  0  0  0  0  0  0  0  0  0
   23.6558  -21.1559  -13.3068 O   0  0  0  0  0  0  0  0  0  0  0  0
   25.8917  -20.4124  -12.7990 C   0  0  2  0  0  0  0  0  0  0  0  0
   26.5417  -21.2557  -13.7756 N   0  0  0  0  0  0  0  0  0  0  0  0
   25.8812  -21.0603  -11.4701 C   0  0  0  0  0  0  0  0  0  0  0  0
   25.8544  -22.3160  -11.4183 O   0  0  0  0  0  0  0  0  0  0  0  0
   28.2899  -19.7683   -6.0740 C   0  0  0  0  0  0  0  0  0  0  0  0
   27.2690  -20.5354   -6.8249 C   0  0  0  0  0  0  0  0  0  0  0  0
   26.8903  -20.1066   -8.1776 C   0  0  2  0  0  0  0  0  0  0  0  0
   26.4057  -18.6309   -8.1443 C   0  0  0  0  0  0  0  0  0  0  0  0
   25.9316  -20.9062   -8.9739 C   0  0  2  0  0  0  0  0  0  0  0  0
   25.9017  -20.2478  -10.3175 N   0  0  0  0  0  0  0  0  0  0  0  0
   24.5428  -20.9958   -8.5029 C   0  0  0  0  0  0  0  0  0  0  0  0
   23.4677  -20.2784   -8.9847 O   0  0  0  0  0  0  0  0  0  0  0  0
   24.2307  -21.8018   -7.5408 O   0  0  0  0  0  0  0  0  0  0  0  0
  2  9  1  0
  2  1  1  6
  3  2  1  0
  4  8  1  0
  4  3  1  0
  5  4  2  0
  6  5  1  0
  6  7  1  0
  7  8  2  0
  9 10  2  0
 12 11  1  6
 12 14  1  0
 13 12  1  0
 14 15  1  6
 15  9  1  0
 16 17  2  0
 16 14  1  0
 18 19  1  0
 19 20  1  0
 20 22  1  0
 20 21  1  1
 22 23  1  6
 22 24  1  0
 23 16  1  0
 24 26  2  0
 24 25  1  0
M  END
$$$$
