HTI.pdb
     RDKit          3D

 26 26  0  0  1  0  0  0  0  0999 V2000
   24.7344  -19.1695  -21.2266 N   0  0  0  0  0  0  0  0  0  0  0  0
   24.0005  -19.7676  -20.1527 C   0  0  1  0  0  0  0  0  0  0  0  0
   23.9152  -21.2845  -20.3222 C   0  0  0  0  0  0  0  0  0  0  0  0
   23.0507  -21.5211  -21.5095 C   0  0  0  0  0  0  0  0  0  0  0  0
   21.6686  -21.5779  -21.5783 C   0  0  0  0  0  0  0  0  0  0  0  0
   21.2788  -21.8121  -22.8393 N   0  0  0  0  0  0  0  0  0  0  0  0
   22.4000  -21.9034  -23.5650 C   0  0  0  0  0  0  0  0  0  0  0  0
   23.4809  -21.7291  -22.7719 N   0  0  0  0  0  0  0  0  0  0  0  0
   24.5697  -19.3961  -18.8430 C   0  0  0  0  0  0  0  0  0  0  0  0
   25.5335  -18.5630  -18.8156 O   0  0  0  0  0  0  0  0  0  0  0  0
   22.0111  -18.1079  -16.7769 C   0  0  0  0  0  0  0  0  0  0  0  0
   23.4881  -17.9474  -16.5293 C   0  0  1  0  0  0  0  0  0  0  0  0
   23.6706  -17.1427  -15.4348 O   0  0  0  0  0  0  0  0  0  0  0  0
   24.1921  -19.2796  -16.4206 C   0  0  2  0  0  0  0  0  0  0  0  0
   24.0262  -19.9763  -17.6753 N   0  0  0  0  0  0  0  0  0  0  0  0
   23.7070  -20.1050  -15.2938 C   0  0  0  0  0  0  0  0  0  0  0  0
   22.6851  -20.8154  -15.4708 O   0  0  0  0  0  0  0  0  0  0  0  0
   26.1143  -21.7754   -9.8110 C   0  0  0  0  0  0  0  0  0  0  0  0
   25.0122  -21.8214  -10.7999 C   0  0  0  0  0  0  0  0  0  0  0  0
   25.0690  -20.9606  -11.9886 C   0  0  2  0  0  0  0  0  0  0  0  0
   25.4074  -19.5042  -11.5666 C   0  0  0  0  0  0  0  0  0  0  0  0
   23.9381  -20.9304  -12.9439 C   0  0  2  0  0  0  0  0  0  0  0  0
   24.4067  -20.0633  -14.0700 N   0  0  0  0  0  0  0  0  0  0  0  0
   22.6536  -20.3867  -12.4823 C   0  0  0  0  0  0  0  0  0  0  0  0
   21.5971  -21.1090  -11.9677 O   0  0  0  0  0  0  0  0  0  0  0  0
   22.4234  -19.1155  -12.5430 O   0  0  0  0  0  0  0  0  0  0  0  0
  2  9  1  0
  2  1  1  6
  3  2  1  0
  4  8  1  0
  4  3  1  0
  5  4  2  0
  6  5  1  0
  6  7  1  0
  7  8  2  0
  9 10  2  0
 12 11  1  1
 12 14  1  0
 13 12  1  0
 14 15  1  6
 15  9  1  0
 16 17  2  0
 16 14  1  0
 18 19  1  0
 19 20  1  0
 20 22  1  0
 20 21  1  1
 22 23  1  6
 22 24  1  0
 23 16  1  0
 24 26  2  0
 24 25  1  0
M  END
$$$$
