HTI.pdb
     RDKit          3D

 26 26  0  0  1  0  0  0  0  0999 V2000
   18.1086  -14.8007  -19.5933 N   0  0  0  0  0  0  0  0  0  0  0  0
   18.3171  -14.2874  -18.2733 C   0  0  1  0  0  0  0  0  0  0  0  0
   19.1252  -15.2674  -17.4228 C   0  0  0  0  0  0  0  0  0  0  0  0
   18.2926  -16.4940  -17.2997 C   0  0  0  0  0  0  0  0  0  0  0  0
   17.0256  -16.6311  -16.7574 C   0  0  0  0  0  0  0  0  0  0  0  0
   16.6246  -17.9076  -16.8389 N   0  0  0  0  0  0  0  0  0  0  0  0
   17.6249  -18.5756  -17.4264 C   0  0  0  0  0  0  0  0  0  0  0  0
   18.6418  -17.7313  -17.7109 N   0  0  0  0  0  0  0  0  0  0  0  0
   18.9439  -12.9521  -18.3109 C   0  0  0  0  0  0  0  0  0  0  0  0
   20.0487  -12.8186  -18.9318 O   0  0  0  0  0  0  0  0  0  0  0  0
   17.4736  -10.1244  -19.8370 C   0  0  0  0  0  0  0  0  0  0  0  0
   17.8144   -9.6704  -18.4419 C   0  0  1  0  0  0  0  0  0  0  0  0
   16.6586   -9.5697  -17.7121 O   0  0  0  0  0  0  0  0  0  0  0  0
   18.8574  -10.5534  -17.7979 C   0  0  2  0  0  0  0  0  0  0  0  0
   18.2975  -11.8781  -17.6596 N   0  0  0  0  0  0  0  0  0  0  0  0
   19.3271  -10.0433  -16.4920 C   0  0  0  0  0  0  0  0  0  0  0  0
   18.8652  -10.5654  -15.4459 O   0  0  0  0  0  0  0  0  0  0  0  0
   22.7803  -10.9816  -14.1717 C   0  0  0  0  0  0  0  0  0  0  0  0
   22.8314  -10.0756  -15.3425 C   0  0  0  0  0  0  0  0  0  0  0  0
   22.2665   -8.7238  -15.2378 C   0  0  2  0  0  0  0  0  0  0  0  0
   22.9424   -7.9616  -14.0648 C   0  0  0  0  0  0  0  0  0  0  0  0
   20.8010   -8.5312  -15.1509 C   0  0  2  0  0  0  0  0  0  0  0  0
   20.2712   -8.9957  -16.4711 N   0  0  0  0  0  0  0  0  0  0  0  0
   20.2912   -7.1707  -14.9324 C   0  0  0  0  0  0  0  0  0  0  0  0
   19.8287   -6.6518  -13.7410 O   0  0  0  0  0  0  0  0  0  0  0  0
   20.2376   -6.3287  -15.9127 O   0  0  0  0  0  0  0  0  0  0  0  0
  2  9  1  0
  2  1  1  6
  3  2  1  0
  4  8  1  0
  4  3  1  0
  5  4  2  0
  6  5  1  0
  6  7  1  0
  7  8  2  0
  9 10  2  0
 12 11  1  6
 12 14  1  0
 13 12  1  0
 14 15  1  1
 15  9  1  0
 16 17  2  0
 16 14  1  0
 18 19  1  0
 19 20  1  0
 20 22  1  0
 20 21  1  1
 22 23  1  6
 22 24  1  0
 23 16  1  0
 24 26  2  0
 24 25  1  0
M  END
$$$$
