HTI.pdb
     RDKit          3D

 26 26  0  0  1  0  0  0  0  0999 V2000
   26.4221  -22.1524  -11.9704 N   0  0  0  0  0  0  0  0  0  0  0  0
   25.6082  -20.9979  -12.2032 C   0  0  1  0  0  0  0  0  0  0  0  0
   25.3987  -20.2031  -10.9142 C   0  0  0  0  0  0  0  0  0  0  0  0
   24.1129  -20.6798  -10.3375 C   0  0  0  0  0  0  0  0  0  0  0  0
   23.2495  -21.6467  -10.8251 C   0  0  0  0  0  0  0  0  0  0  0  0
   22.1969  -21.7804  -10.0059 N   0  0  0  0  0  0  0  0  0  0  0  0
   22.3880  -20.9085   -9.0083 C   0  0  0  0  0  0  0  0  0  0  0  0
   23.5450  -20.2351   -9.1966 N   0  0  0  0  0  0  0  0  0  0  0  0
   26.1678  -20.1562  -13.2782 C   0  0  0  0  0  0  0  0  0  0  0  0
   27.4053  -19.8559  -13.2306 O   0  0  0  0  0  0  0  0  0  0  0  0
   26.7129  -21.0237  -16.4869 C   0  0  0  0  0  0  0  0  0  0  0  0
   25.8710  -19.7841  -16.6388 C   0  0  1  0  0  0  0  0  0  0  0  0
   24.6125  -20.1479  -17.0417 O   0  0  0  0  0  0  0  0  0  0  0  0
   25.8807  -18.9361  -15.3886 C   0  0  2  0  0  0  0  0  0  0  0  0
   25.3133  -19.7179  -14.3142 N   0  0  0  0  0  0  0  0  0  0  0  0
   25.1560  -17.6570  -15.5462 C   0  0  0  0  0  0  0  0  0  0  0  0
   24.1322  -17.4603  -14.8438 O   0  0  0  0  0  0  0  0  0  0  0  0
   27.9610  -13.2686  -15.5706 C   0  0  0  0  0  0  0  0  0  0  0  0
   26.7779  -14.1547  -15.4721 C   0  0  0  0  0  0  0  0  0  0  0  0
   25.9380  -14.3762  -16.6565 C   0  0  2  0  0  0  0  0  0  0  0  0
   25.2950  -13.0341  -17.1027 C   0  0  0  0  0  0  0  0  0  0  0  0
   24.8937  -15.4258  -16.6462 C   0  0  2  0  0  0  0  0  0  0  0  0
   25.6399  -16.7116  -16.4742 N   0  0  0  0  0  0  0  0  0  0  0  0
   24.0444  -15.5721  -17.8362 C   0  0  0  0  0  0  0  0  0  0  0  0
   22.7434  -15.1344  -17.9715 O   0  0  0  0  0  0  0  0  0  0  0  0
   24.4976  -16.1654  -18.8923 O   0  0  0  0  0  0  0  0  0  0  0  0
  2  9  1  0
  2  1  1  1
  3  2  1  0
  4  8  1  0
  4  3  1  0
  5  4  2  0
  6  5  1  0
  6  7  1  0
  7  8  2  0
  9 10  2  0
 12 11  1  1
 12 14  1  0
 13 12  1  0
 14 15  1  1
 15  9  1  0
 16 17  2  0
 16 14  1  0
 18 19  1  0
 19 20  1  0
 20 22  1  0
 20 21  1  1
 22 23  1  6
 22 24  1  0
 23 16  1  0
 24 26  2  0
 24 25  1  0
M  END
$$$$
