TCY.pdb
     RDKit          3D

 26 26  0  0  1  0  0  0  0  0999 V2000
   19.9861  -23.2277    3.3800 C   0  0  0  0  0  0  0  0  0  0  0  0
   19.5107  -22.1485    4.3398 C   0  0  1  0  0  0  0  0  0  0  0  0
   18.1916  -21.8565    3.9993 O   0  0  0  0  0  0  0  0  0  0  0  0
   19.5092  -22.7089    5.7447 C   0  0  2  0  0  0  0  0  0  0  0  0
   18.4888  -23.7283    5.8034 N   0  0  0  0  0  0  0  0  0  0  0  0
   19.1779  -21.6581    6.7405 C   0  0  0  0  0  0  0  0  0  0  0  0
   18.2584  -21.8572    7.6042 O   0  0  0  0  0  0  0  0  0  0  0  0
   19.8421  -20.4075    6.7915 N   0  0  0  0  0  0  0  0  0  0  0  0
   19.5032  -19.3869    7.8161 C   0  0  1  0  0  0  0  0  0  0  0  0
   20.7031  -19.3049    8.7235 C   0  0  0  0  0  0  0  0  0  0  0  0
   21.8980  -20.6043    8.4512 S   0  0  0  0  0  0  0  0  0  0  0  0
   19.2657  -18.0972    7.1696 C   0  0  0  0  0  0  0  0  0  0  0  0
   20.0615  -17.6669    6.2875 O   0  0  0  0  0  0  0  0  0  0  0  0
   17.3243  -19.9249    1.5611 O   0  0  0  0  0  0  0  0  0  0  0  0
   17.1109  -19.1005    2.6587 C   0  0  0  0  0  0  0  0  0  0  0  0
   16.3135  -19.4556    3.7224 C   0  0  0  0  0  0  0  0  0  0  0  0
   16.1426  -18.5847    4.7877 C   0  0  0  0  0  0  0  0  0  0  0  0
   16.7557  -17.3425    4.8268 C   0  0  0  0  0  0  0  0  0  0  0  0
   16.5605  -16.4353    5.9637 C   0  0  0  0  0  0  0  0  0  0  0  0
   17.8252  -16.0923    6.7053 C   0  0  2  0  0  0  0  0  0  0  0  0
   18.1695  -17.2942    7.4840 N   0  0  0  0  0  0  0  0  0  0  0  0
   17.6402  -14.9808    7.6531 C   0  0  0  0  0  0  0  0  0  0  0  0
   17.7507  -15.1986    9.0065 O   0  0  0  0  0  0  0  0  0  0  0  0
   17.5487  -17.0200    3.7418 C   0  0  0  0  0  0  0  0  0  0  0  0
   17.7322  -17.8751    2.6687 C   0  0  0  0  0  0  0  0  0  0  0  0
   17.3778  -13.8010    7.2893 O   0  0  0  0  0  0  0  0  0  0  0  0
  2  1  1  6
  3  2  1  0
  4  2  1  0
  4  6  1  0
  4  5  1  6
  6  7  2  0
  8  6  1  0
  8  9  1  0
  9 10  1  1
 11 10  1  0
 12  9  1  0
 12 21  1  0
 13 12  2  0
 15 14  1  0
 16 15  2  0
 17 16  1  0
 18 24  1  0
 18 17  2  0
 19 18  1  0
 20 22  1  0
 20 21  1  0
 20 19  1  1
 22 23  1  0
 24 25  2  0
 25 15  1  0
 26 22  2  0
M  END
$$$$
