TCY.pdb
     RDKit          3D

 26 26  0  0  1  0  0  0  0  0999 V2000
   26.8666  -18.0709  -14.8463 C   0  0  0  0  0  0  0  0  0  0  0  0
   27.4625  -19.1646  -15.7184 C   0  0  1  0  0  0  0  0  0  0  0  0
   28.4088  -18.5561  -16.5405 O   0  0  0  0  0  0  0  0  0  0  0  0
   28.1898  -20.1536  -14.8348 C   0  0  2  0  0  0  0  0  0  0  0  0
   28.8229  -21.1219  -15.6981 N   0  0  0  0  0  0  0  0  0  0  0  0
   27.2442  -20.8709  -13.9421 C   0  0  0  0  0  0  0  0  0  0  0  0
   26.5282  -21.8255  -14.3973 O   0  0  0  0  0  0  0  0  0  0  0  0
   27.0835  -20.5496  -12.5715 N   0  0  0  0  0  0  0  0  0  0  0  0
   25.9465  -21.0787  -11.7756 C   0  0  1  0  0  0  0  0  0  0  0  0
   26.1356  -20.5367  -10.3827 C   0  0  0  0  0  0  0  0  0  0  0  0
   24.8292  -20.9916   -9.2528 S   0  0  0  0  0  0  0  0  0  0  0  0
   24.6844  -20.6023  -12.3395 C   0  0  0  0  0  0  0  0  0  0  0  0
   24.5531  -19.3940  -12.6851 O   0  0  0  0  0  0  0  0  0  0  0  0
   23.3234  -26.8116  -15.6596 O   0  0  0  0  0  0  0  0  0  0  0  0
   23.1538  -25.4578  -15.3986 C   0  0  0  0  0  0  0  0  0  0  0  0
   24.2043  -24.5966  -15.1790 C   0  0  0  0  0  0  0  0  0  0  0  0
   23.9651  -23.2550  -14.9237 C   0  0  0  0  0  0  0  0  0  0  0  0
   22.6822  -22.7328  -14.8795 C   0  0  0  0  0  0  0  0  0  0  0  0
   22.4511  -21.3095  -14.6065 C   0  0  0  0  0  0  0  0  0  0  0  0
   22.3335  -20.9716  -13.1440 C   0  0  2  0  0  0  0  0  0  0  0  0
   23.5848  -21.4402  -12.5244 N   0  0  0  0  0  0  0  0  0  0  0  0
   21.2176  -21.6749  -12.4899 C   0  0  0  0  0  0  0  0  0  0  0  0
   19.9184  -21.3888  -12.8389 O   0  0  0  0  0  0  0  0  0  0  0  0
   21.6525  -23.6267  -15.1046 C   0  0  0  0  0  0  0  0  0  0  0  0
   21.8701  -24.9696  -15.3612 C   0  0  0  0  0  0  0  0  0  0  0  0
   21.3838  -22.5535  -11.5991 O   0  0  0  0  0  0  0  0  0  0  0  0
  2  1  1  1
  3  2  1  0
  4  2  1  0
  4  6  1  0
  4  5  1  6
  6  7  2  0
  8  6  1  0
  8  9  1  0
  9 10  1  1
 11 10  1  0
 12  9  1  0
 12 21  1  0
 13 12  2  0
 15 14  1  0
 16 15  2  0
 17 16  1  0
 18 24  1  0
 18 17  2  0
 19 18  1  0
 20 22  1  0
 20 21  1  0
 20 19  1  6
 22 23  1  0
 24 25  2  0
 25 15  1  0
 26 22  2  0
M  END
$$$$
