TCY.pdb
     RDKit          3D

 26 26  0  0  1  0  0  0  0  0999 V2000
   28.4548  -22.4429  -17.9545 C   0  0  0  0  0  0  0  0  0  0  0  0
   29.3718  -21.4191  -18.6047 C   0  0  1  0  0  0  0  0  0  0  0  0
   30.1700  -22.1104  -19.5138 O   0  0  0  0  0  0  0  0  0  0  0  0
   28.5305  -20.4355  -19.3873 C   0  0  2  0  0  0  0  0  0  0  0  0
   29.4281  -19.4724  -19.9792 N   0  0  0  0  0  0  0  0  0  0  0  0
   27.5874  -19.7106  -18.4981 C   0  0  0  0  0  0  0  0  0  0  0  0
   28.0141  -18.7927  -17.7193 O   0  0  0  0  0  0  0  0  0  0  0  0
   26.1977  -19.9850  -18.4607 N   0  0  0  0  0  0  0  0  0  0  0  0
   25.2964  -19.3096  -17.4923 C   0  0  1  0  0  0  0  0  0  0  0  0
   23.9551  -19.2251  -18.1731 C   0  0  0  0  0  0  0  0  0  0  0  0
   22.6489  -18.6266  -17.1120 S   0  0  0  0  0  0  0  0  0  0  0  0
   25.1971  -20.1068  -16.2706 C   0  0  0  0  0  0  0  0  0  0  0  0
   25.0558  -21.3608  -16.3340 O   0  0  0  0  0  0  0  0  0  0  0  0
   25.0632  -21.7399   -7.4915 O   0  0  0  0  0  0  0  0  0  0  0  0
   25.1701  -21.1632   -8.7508 C   0  0  0  0  0  0  0  0  0  0  0  0
   24.2581  -20.2582   -9.2436 C   0  0  0  0  0  0  0  0  0  0  0  0
   24.4241  -19.7198  -10.5105 C   0  0  0  0  0  0  0  0  0  0  0  0
   25.4952  -20.0631  -11.3201 C   0  0  0  0  0  0  0  0  0  0  0  0
   25.6515  -19.4821  -12.6587 C   0  0  0  0  0  0  0  0  0  0  0  0
   25.0997  -20.3339  -13.7708 C   0  0  2  0  0  0  0  0  0  0  0  0
   25.2555  -19.5364  -14.9992 N   0  0  0  0  0  0  0  0  0  0  0  0
   23.6659  -20.6233  -13.6020 C   0  0  0  0  0  0  0  0  0  0  0  0
   23.2596  -21.8224  -13.0649 O   0  0  0  0  0  0  0  0  0  0  0  0
   26.3904  -20.9742  -10.7925 C   0  0  0  0  0  0  0  0  0  0  0  0
   26.2427  -21.5233   -9.5302 C   0  0  0  0  0  0  0  0  0  0  0  0
   22.7556  -19.8129  -13.9302 O   0  0  0  0  0  0  0  0  0  0  0  0
  2  1  1  6
  3  2  1  0
  4  2  1  0
  4  6  1  0
  4  5  1  1
  6  7  2  0
  8  6  1  0
  8  9  1  0
  9 10  1  6
 11 10  1  0
 12  9  1  0
 12 21  1  0
 13 12  2  0
 15 14  1  0
 16 15  2  0
 17 16  1  0
 18 24  1  0
 18 17  2  0
 19 18  1  0
 20 22  1  0
 20 21  1  0
 20 19  1  1
 22 23  1  0
 24 25  2  0
 25 15  1  0
 26 22  2  0
M  END
$$$$
