TCY.pdb
     RDKit          3D

 26 26  0  0  1  0  0  0  0  0999 V2000
   19.4798   -4.4713  -19.4197 C   0  0  0  0  0  0  0  0  0  0  0  0
   18.7023   -5.5496  -20.1577 C   0  0  1  0  0  0  0  0  0  0  0  0
   18.2684   -4.9870  -21.3563 O   0  0  0  0  0  0  0  0  0  0  0  0
   19.6419   -6.6853  -20.4969 C   0  0  2  0  0  0  0  0  0  0  0  0
   18.8767   -7.6841  -21.2042 N   0  0  0  0  0  0  0  0  0  0  0  0
   20.1978   -7.3062  -19.2676 C   0  0  0  0  0  0  0  0  0  0  0  0
   19.4388   -7.9659  -18.4804 O   0  0  0  0  0  0  0  0  0  0  0  0
   21.5638   -7.2075  -18.9040 N   0  0  0  0  0  0  0  0  0  0  0  0
   22.0510   -7.6613  -17.5763 C   0  0  1  0  0  0  0  0  0  0  0  0
   23.5520   -7.7215  -17.6907 C   0  0  0  0  0  0  0  0  0  0  0  0
   24.3725   -8.1232  -16.1559 S   0  0  0  0  0  0  0  0  0  0  0  0
   21.6577   -6.6975  -16.5496 C   0  0  0  0  0  0  0  0  0  0  0  0
   21.7327   -5.4563  -16.7740 O   0  0  0  0  0  0  0  0  0  0  0  0
   17.6085   -3.5573   -9.2940 O   0  0  0  0  0  0  0  0  0  0  0  0
   18.0791   -4.3086  -10.3635 C   0  0  0  0  0  0  0  0  0  0  0  0
   17.6858   -4.0937  -11.6645 C   0  0  0  0  0  0  0  0  0  0  0  0
   18.1946   -4.8807  -12.6863 C   0  0  0  0  0  0  0  0  0  0  0  0
   19.1040   -5.8986  -12.4465 C   0  0  0  0  0  0  0  0  0  0  0  0
   19.6294   -6.7208  -13.5427 C   0  0  0  0  0  0  0  0  0  0  0  0
   20.8094   -6.1176  -14.2573 C   0  0  2  0  0  0  0  0  0  0  0  0
   21.1860   -7.0904  -15.2972 N   0  0  0  0  0  0  0  0  0  0  0  0
   21.9717   -5.9335  -13.3724 C   0  0  0  0  0  0  0  0  0  0  0  0
   22.8223   -6.9839  -13.1183 O   0  0  0  0  0  0  0  0  0  0  0  0
   19.4758   -6.0854  -11.1286 C   0  0  0  0  0  0  0  0  0  0  0  0
   18.9796   -5.3107  -10.0941 C   0  0  0  0  0  0  0  0  0  0  0  0
   22.2457   -4.8355  -12.8135 O   0  0  0  0  0  0  0  0  0  0  0  0
  2  1  1  1
  3  2  1  0
  4  2  1  0
  4  6  1  0
  4  5  1  1
  6  7  2  0
  8  6  1  0
  8  9  1  0
  9 10  1  6
 11 10  1  0
 12  9  1  0
 12 21  1  0
 13 12  2  0
 15 14  1  0
 16 15  2  0
 17 16  1  0
 18 24  1  0
 18 17  2  0
 19 18  1  0
 20 22  1  0
 20 21  1  0
 20 19  1  1
 22 23  1  0
 24 25  2  0
 25 15  1  0
 26 22  2  0
M  END
$$$$
