TCY.pdb
     RDKit          3D

 26 26  0  0  1  0  0  0  0  0999 V2000
   18.4655  -14.7293  -15.8413 C   0  0  0  0  0  0  0  0  0  0  0  0
   19.2659  -16.0009  -16.0744 C   0  0  1  0  0  0  0  0  0  0  0  0
   18.3814  -17.0679  -15.9302 O   0  0  0  0  0  0  0  0  0  0  0  0
   19.7671  -16.0093  -17.5014 C   0  0  2  0  0  0  0  0  0  0  0  0
   20.5649  -17.2000  -17.6734 N   0  0  0  0  0  0  0  0  0  0  0  0
   20.6249  -14.8283  -17.7751 C   0  0  0  0  0  0  0  0  0  0  0  0
   21.8614  -14.8434  -17.4556 O   0  0  0  0  0  0  0  0  0  0  0  0
   20.1384  -13.6477  -18.3892 N   0  0  0  0  0  0  0  0  0  0  0  0
   21.0470  -12.5352  -18.7672 C   0  0  1  0  0  0  0  0  0  0  0  0
   20.7736  -12.2612  -20.2232 C   0  0  0  0  0  0  0  0  0  0  0  0
   21.3674  -13.5418  -21.3176 S   0  0  0  0  0  0  0  0  0  0  0  0
   20.7431  -11.3534  -17.9618 C   0  0  0  0  0  0  0  0  0  0  0  0
   19.5485  -11.0752  -17.6583 O   0  0  0  0  0  0  0  0  0  0  0  0
   22.4958   -4.0069  -13.1869 O   0  0  0  0  0  0  0  0  0  0  0  0
   22.5644   -5.1902  -13.9113 C   0  0  0  0  0  0  0  0  0  0  0  0
   23.0168   -5.2524  -15.2094 C   0  0  0  0  0  0  0  0  0  0  0  0
   23.0597   -6.4674  -15.8759 C   0  0  0  0  0  0  0  0  0  0  0  0
   22.6566   -7.6495  -15.2754 C   0  0  0  0  0  0  0  0  0  0  0  0
   22.7091   -8.9250  -15.9994 C   0  0  0  0  0  0  0  0  0  0  0  0
   21.4258   -9.2945  -16.6949 C   0  0  2  0  0  0  0  0  0  0  0  0
   21.7356  -10.4924  -17.4938 N   0  0  0  0  0  0  0  0  0  0  0  0
   20.9622   -8.2460  -17.6188 C   0  0  0  0  0  0  0  0  0  0  0  0
   19.9947   -7.3521  -17.2232 O   0  0  0  0  0  0  0  0  0  0  0  0
   22.2084   -7.5487  -13.9719 C   0  0  0  0  0  0  0  0  0  0  0  0
   22.1577   -6.3456  -13.2890 C   0  0  0  0  0  0  0  0  0  0  0  0
   21.4120   -8.1113  -18.7904 O   0  0  0  0  0  0  0  0  0  0  0  0
  2  1  1  6
  3  2  1  0
  4  2  1  0
  4  6  1  0
  4  5  1  1
  6  7  2  0
  8  6  1  0
  8  9  1  0
  9 10  1  6
 11 10  1  0
 12  9  1  0
 12 21  1  0
 13 12  2  0
 15 14  1  0
 16 15  2  0
 17 16  1  0
 18 24  1  0
 18 17  2  0
 19 18  1  0
 20 22  1  0
 20 21  1  0
 20 19  1  6
 22 23  1  0
 24 25  2  0
 25 15  1  0
 26 22  2  0
M  END
$$$$
