TCY.pdb
     RDKit          3D

 26 26  0  0  1  0  0  0  0  0999 V2000
   27.8207  -11.6745  -15.6694 C   0  0  0  0  0  0  0  0  0  0  0  0
   28.2798  -12.6260  -16.7629 C   0  0  1  0  0  0  0  0  0  0  0  0
   29.1776  -13.5149  -16.1751 O   0  0  0  0  0  0  0  0  0  0  0  0
   27.0910  -13.4264  -17.2464 C   0  0  2  0  0  0  0  0  0  0  0  0
   27.5804  -14.4005  -18.1927 N   0  0  0  0  0  0  0  0  0  0  0  0
   26.1053  -12.5571  -17.9380 C   0  0  0  0  0  0  0  0  0  0  0  0
   26.2740  -12.2422  -19.1641 O   0  0  0  0  0  0  0  0  0  0  0  0
   24.9516  -12.0394  -17.2985 N   0  0  0  0  0  0  0  0  0  0  0  0
   24.0301  -11.1040  -17.9928 C   0  0  1  0  0  0  0  0  0  0  0  0
   22.8476  -11.9355  -18.4174 C   0  0  0  0  0  0  0  0  0  0  0  0
   22.1844  -12.9582  -17.1118 S   0  0  0  0  0  0  0  0  0  0  0  0
   23.6065  -10.0517  -17.0703 C   0  0  0  0  0  0  0  0  0  0  0  0
   23.5031  -10.2880  -15.8333 O   0  0  0  0  0  0  0  0  0  0  0  0
   21.3561   -1.6737  -14.9025 O   0  0  0  0  0  0  0  0  0  0  0  0
   21.8662   -2.8350  -15.4690 C   0  0  0  0  0  0  0  0  0  0  0  0
   21.4742   -3.3060  -16.7012 C   0  0  0  0  0  0  0  0  0  0  0  0
   22.0236   -4.4732  -17.2091 C   0  0  0  0  0  0  0  0  0  0  0  0
   22.9733   -5.2025  -16.5114 C   0  0  0  0  0  0  0  0  0  0  0  0
   23.5414   -6.4364  -17.0670 C   0  0  0  0  0  0  0  0  0  0  0  0
   22.8894   -7.6977  -16.5659 C   0  0  2  0  0  0  0  0  0  0  0  0
   23.3047   -8.7592  -17.4987 N   0  0  0  0  0  0  0  0  0  0  0  0
   21.4192   -7.6235  -16.5957 C   0  0  0  0  0  0  0  0  0  0  0  0
   20.7259   -7.1694  -15.4982 O   0  0  0  0  0  0  0  0  0  0  0  0
   23.3426   -4.6997  -15.2782 C   0  0  0  0  0  0  0  0  0  0  0  0
   22.8062   -3.5364  -14.7534 C   0  0  0  0  0  0  0  0  0  0  0  0
   20.7320   -7.9616  -17.5990 O   0  0  0  0  0  0  0  0  0  0  0  0
  2  1  1  1
  3  2  1  0
  4  2  1  0
  4  6  1  0
  4  5  1  6
  6  7  2  0
  8  6  1  0
  8  9  1  0
  9 10  1  1
 11 10  1  0
 12  9  1  0
 12 21  1  0
 13 12  2  0
 15 14  1  0
 16 15  2  0
 17 16  1  0
 18 24  1  0
 18 17  2  0
 19 18  1  0
 20 22  1  0
 20 21  1  0
 20 19  1  6
 22 23  1  0
 24 25  2  0
 25 15  1  0
 26 22  2  0
M  END
$$$$
