AAG.pdb
     RDKit          3D

 15 14  0  0  1  0  0  0  0  0999 V2000
   19.0855  -12.8115  -15.0568 C   0  0  0  0  0  0  0  0  0  0  0  0
   18.8530  -12.1752  -16.4102 C   0  0  2  0  0  0  0  0  0  0  0  0
   19.5967  -12.8615  -17.4470 N   0  0  0  0  0  0  0  0  0  0  0  0
   19.3216  -10.7572  -16.3077 C   0  0  0  0  0  0  0  0  0  0  0  0
   20.5204  -10.4915  -16.4671 O   0  0  0  0  0  0  0  0  0  0  0  0
   17.5950   -7.4181  -16.0782 C   0  0  0  0  0  0  0  0  0  0  0  0
   18.8071   -8.3455  -16.0343 C   0  0  2  0  0  0  0  0  0  0  0  0
   18.4010   -9.7299  -16.0310 N   0  0  0  0  0  0  0  0  0  0  0  0
   19.6053   -8.0310  -14.8184 C   0  0  0  0  0  0  0  0  0  0  0  0
   19.4258   -8.7242  -13.7749 O   0  0  0  0  0  0  0  0  0  0  0  0
   20.5417   -6.9703  -14.8554 N   0  0  0  0  0  0  0  0  0  0  0  0
   21.3930   -6.7376  -13.7242 C   0  0  0  0  0  0  0  0  0  0  0  0
   22.2259   -5.5517  -13.9528 C   0  0  0  0  0  0  0  0  0  0  0  0
   22.2380   -4.9900  -15.0779 O   0  0  0  0  0  0  0  0  0  0  0  0
   23.0337   -4.9853  -12.9720 O   0  0  0  0  0  0  0  0  0  0  0  0
  2  4  1  0
  2  1  1  1
  3  2  1  0
  4  8  1  0
  5  4  2  0
  7  6  1  1
  7  9  1  0
  8  7  1  0
  9 11  1  0
  9 10  2  0
 11 12  1  0
 12 13  1  0
 13 15  1  0
 14 13  2  0
M  END
$$$$
