AAG.pdb
     RDKit          3D

 15 14  0  0  1  0  0  0  0  0999 V2000
   19.0629  -10.5956  -18.9605 C   0  0  0  0  0  0  0  0  0  0  0  0
   20.2889   -9.7140  -18.8581 C   0  0  2  0  0  0  0  0  0  0  0  0
   21.4944  -10.4539  -19.1719 N   0  0  0  0  0  0  0  0  0  0  0  0
   20.3518   -9.2228  -17.4455 C   0  0  0  0  0  0  0  0  0  0  0  0
   19.4101   -8.5687  -16.9782 O   0  0  0  0  0  0  0  0  0  0  0  0
   22.6014   -9.7860  -14.4939 C   0  0  0  0  0  0  0  0  0  0  0  0
   21.5970   -8.9793  -15.3133 C   0  0  2  0  0  0  0  0  0  0  0  0
   21.4789   -9.5045  -16.6519 N   0  0  0  0  0  0  0  0  0  0  0  0
   22.0382   -7.5584  -15.3453 C   0  0  0  0  0  0  0  0  0  0  0  0
   22.9929   -7.2334  -16.1099 O   0  0  0  0  0  0  0  0  0  0  0  0
   21.3847   -6.6079  -14.5253 N   0  0  0  0  0  0  0  0  0  0  0  0
   21.8206   -5.2410  -14.5401 C   0  0  0  0  0  0  0  0  0  0  0  0
   22.0532   -4.7689  -13.1708 C   0  0  0  0  0  0  0  0  0  0  0  0
   21.8290   -3.5700  -12.8644 O   0  0  0  0  0  0  0  0  0  0  0  0
   22.5229   -5.5888  -12.1498 O   0  0  0  0  0  0  0  0  0  0  0  0
  2  4  1  0
  2  1  1  1
  3  2  1  0
  4  8  1  0
  5  4  2  0
  7  6  1  1
  7  9  1  0
  8  7  1  0
  9 11  1  0
  9 10  2  0
 11 12  1  0
 12 13  1  0
 13 15  1  0
 14 13  2  0
M  END
$$$$
