AAG.pdb
     RDKit          3D

 15 14  0  0  1  0  0  0  0  0999 V2000
   19.2947  -11.4155  -18.6896 C   0  0  0  0  0  0  0  0  0  0  0  0
   19.8832  -12.2318  -17.5591 C   0  0  2  0  0  0  0  0  0  0  0  0
   18.8865  -13.0992  -16.9646 N   0  0  0  0  0  0  0  0  0  0  0  0
   20.3801  -11.2587  -16.5359 C   0  0  0  0  0  0  0  0  0  0  0  0
   19.5741  -10.5571  -15.9104 O   0  0  0  0  0  0  0  0  0  0  0  0
   23.6661  -10.7369  -14.8041 C   0  0  0  0  0  0  0  0  0  0  0  0
   22.2554  -10.3184  -15.2112 C   0  0  2  0  0  0  0  0  0  0  0  0
   21.7599  -11.1427  -16.2866 N   0  0  0  0  0  0  0  0  0  0  0  0
   22.2803   -8.8870  -15.6173 C   0  0  0  0  0  0  0  0  0  0  0  0
   22.4163   -8.6032  -16.8432 O   0  0  0  0  0  0  0  0  0  0  0  0
   22.1522   -7.8808  -14.6302 N   0  0  0  0  0  0  0  0  0  0  0  0
   22.1296   -6.5013  -15.0240 C   0  0  0  0  0  0  0  0  0  0  0  0
   21.9511   -5.6421  -13.8484 C   0  0  0  0  0  0  0  0  0  0  0  0
   21.7145   -6.1471  -12.7212 O   0  0  0  0  0  0  0  0  0  0  0  0
   22.0288   -4.2540  -13.8981 O   0  0  0  0  0  0  0  0  0  0  0  0
  2  4  1  0
  2  1  1  6
  3  2  1  0
  4  8  1  0
  5  4  2  0
  7  6  1  6
  7  9  1  0
  8  7  1  0
  9 11  1  0
  9 10  2  0
 11 12  1  0
 12 13  1  0
 13 15  1  0
 14 13  2  0
M  END
$$$$
