AAG.pdb
     RDKit          3D

 15 14  0  0  1  0  0  0  0  0999 V2000
   15.6279  -11.1630  -11.2406 C   0  0  0  0  0  0  0  0  0  0  0  0
   14.7888  -10.6930  -10.0720 C   0  0  2  0  0  0  0  0  0  0  0  0
   13.4206  -11.1552  -10.1893 N   0  0  0  0  0  0  0  0  0  0  0  0
   14.8192   -9.1965  -10.0917 C   0  0  0  0  0  0  0  0  0  0  0  0
   14.3032   -8.5822  -11.0347 O   0  0  0  0  0  0  0  0  0  0  0  0
   15.3519   -6.5111   -7.6020 C   0  0  0  0  0  0  0  0  0  0  0  0
   15.4587   -7.0487   -9.0270 C   0  0  2  0  0  0  0  0  0  0  0  0
   15.4331   -8.4911   -9.0405 N   0  0  0  0  0  0  0  0  0  0  0  0
   16.7185   -6.5416   -9.6356 C   0  0  0  0  0  0  0  0  0  0  0  0
   17.8138   -7.0889   -9.3155 O   0  0  0  0  0  0  0  0  0  0  0  0
   16.6645   -5.4654  -10.5531 N   0  0  0  0  0  0  0  0  0  0  0  0
   17.8667   -5.0274  -11.2024 C   0  0  0  0  0  0  0  0  0  0  0  0
   17.5613   -3.9727  -12.1752 C   0  0  0  0  0  0  0  0  0  0  0  0
   16.3685   -3.6561  -12.4171 O   0  0  0  0  0  0  0  0  0  0  0  0
   18.5390   -3.2726  -12.8747 O   0  0  0  0  0  0  0  0  0  0  0  0
  2  4  1  0
  2  1  1  6
  3  2  1  0
  4  8  1  0
  5  4  2  0
  7  6  1  1
  7  9  1  0
  8  7  1  0
  9 11  1  0
  9 10  2  0
 11 12  1  0
 12 13  1  0
 13 15  1  0
 14 13  2  0
M  END
$$$$
