AAG.pdb
     RDKit          3D

 15 14  0  0  1  0  0  0  0  0999 V2000
   26.0983  -23.5048  -17.3004 C   0  0  0  0  0  0  0  0  0  0  0  0
   26.1387  -24.0368  -15.8840 C   0  0  2  0  0  0  0  0  0  0  0  0
   25.9968  -25.4785  -15.8611 N   0  0  0  0  0  0  0  0  0  0  0  0
   24.9956  -23.4056  -15.1521 C   0  0  0  0  0  0  0  0  0  0  0  0
   23.8406  -23.5443  -15.5762 O   0  0  0  0  0  0  0  0  0  0  0  0
   24.6268  -21.5414  -11.8916 C   0  0  0  0  0  0  0  0  0  0  0  0
   24.1463  -22.0713  -13.2405 C   0  0  2  0  0  0  0  0  0  0  0  0
   25.2345  -22.6570  -13.9851 N   0  0  0  0  0  0  0  0  0  0  0  0
   23.5336  -20.9501  -14.0033 C   0  0  0  0  0  0  0  0  0  0  0  0
   24.2718  -20.2480  -14.7542 O   0  0  0  0  0  0  0  0  0  0  0  0
   22.1475  -20.6950  -13.8732 N   0  0  0  0  0  0  0  0  0  0  0  0
   21.5787  -19.5371  -14.5010 C   0  0  0  0  0  0  0  0  0  0  0  0
   20.1447  -19.4526  -14.2030 C   0  0  0  0  0  0  0  0  0  0  0  0
   19.4700  -18.4669  -14.5963 O   0  0  0  0  0  0  0  0  0  0  0  0
   19.4548  -20.4261  -13.4876 O   0  0  0  0  0  0  0  0  0  0  0  0
  2  4  1  0
  2  1  1  6
  3  2  1  0
  4  8  1  0
  5  4  2  0
  7  6  1  1
  7  9  1  0
  8  7  1  0
  9 11  1  0
  9 10  2  0
 11 12  1  0
 12 13  1  0
 13 15  1  0
 14 13  2  0
M  END
$$$$
