AAG.pdb
     RDKit          3D

 15 14  0  0  1  0  0  0  0  0999 V2000
   21.4357  -11.9244  -19.2509 C   0  0  0  0  0  0  0  0  0  0  0  0
   21.7223  -11.6932  -17.7829 C   0  0  2  0  0  0  0  0  0  0  0  0
   20.9006  -12.5455  -16.9477 N   0  0  0  0  0  0  0  0  0  0  0  0
   21.4079  -10.2570  -17.5017 C   0  0  0  0  0  0  0  0  0  0  0  0
   22.0930   -9.3639  -18.0175 O   0  0  0  0  0  0  0  0  0  0  0  0
   18.5595   -8.3715  -15.9981 C   0  0  0  0  0  0  0  0  0  0  0  0
   20.0382   -8.5489  -16.3344 C   0  0  2  0  0  0  0  0  0  0  0  0
   20.3363   -9.9241  -16.6530 N   0  0  0  0  0  0  0  0  0  0  0  0
   20.8502   -8.0924  -15.1739 C   0  0  0  0  0  0  0  0  0  0  0  0
   21.2970   -8.9567  -14.3645 O   0  0  0  0  0  0  0  0  0  0  0  0
   21.1034   -6.7106  -15.0019 N   0  0  0  0  0  0  0  0  0  0  0  0
   21.9064   -6.2700  -13.8975 C   0  0  0  0  0  0  0  0  0  0  0  0
   22.0855   -4.8149  -13.9505 C   0  0  0  0  0  0  0  0  0  0  0  0
   21.7001   -4.1625  -14.9541 O   0  0  0  0  0  0  0  0  0  0  0  0
   22.6751   -4.0803  -12.9268 O   0  0  0  0  0  0  0  0  0  0  0  0
  2  4  1  0
  2  1  1  6
  3  2  1  0
  4  8  1  0
  5  4  2  0
  7  6  1  1
  7  9  1  0
  8  7  1  0
  9 11  1  0
  9 10  2  0
 11 12  1  0
 12 13  1  0
 13 15  1  0
 14 13  2  0
M  END
$$$$
