DGP.pdb
     RDKit          3D

 20 20  0  0  1  0  0  0  0  0999 V2000
   10.0794  -17.0824   21.4773 N   0  0  0  0  0  0  0  0  0  0  0  0
    9.2990  -16.2997   20.5748 C   0  0  1  0  0  0  0  0  0  0  0  0
    8.6966  -17.1367   19.4818 C   0  0  0  0  0  0  0  0  0  0  0  0
    9.6935  -17.9599   18.7746 C   0  0  0  0  0  0  0  0  0  0  0  0
    9.6440  -19.2053   18.9440 O   0  0  0  0  0  0  0  0  0  0  0  0
    8.2911  -15.4532   21.2580 C   0  0  0  0  0  0  0  0  0  0  0  0
    7.4577  -14.8169   20.5664 O   0  0  0  0  0  0  0  0  0  0  0  0
   10.6761  -17.4660   17.9415 O   0  0  0  0  0  0  0  0  0  0  0  0
    8.2308  -15.3329   22.6727 N   0  0  0  0  0  0  0  0  0  0  0  0
    7.2080  -14.6187   23.3721 C   0  0  0  0  0  0  0  0  0  0  0  0
    7.3954  -14.6315   24.8512 C   0  0  0  0  0  0  0  0  0  0  0  0
    7.5005  -15.7792   25.3549 O   0  0  0  0  0  0  0  0  0  0  0  0
    7.4456  -13.4353   25.5905 N   0  0  0  0  0  0  0  0  0  0  0  0
    7.0436  -12.1318   25.0141 C   0  0  0  0  0  0  0  0  0  0  0  0
    6.1705  -11.5826   26.1366 C   0  0  0  0  0  0  0  0  0  0  0  0
    6.5499  -12.3576   27.3859 C   0  0  0  0  0  0  0  0  0  0  0  0
    7.8154  -13.0570   26.8997 C   0  0  1  0  0  0  0  0  0  0  0  0
    8.3710  -13.9959   27.8196 C   0  0  0  0  0  0  0  0  0  0  0  0
    9.4689  -13.5470   28.5926 O   0  0  0  0  0  0  0  0  0  0  0  0
    8.0486  -15.1788   28.0690 O   0  0  0  0  0  0  0  0  0  0  0  0
  2  1  1  1
  3  4  1  0
  3  2  1  0
  4  5  2  0
  6  7  2  0
  6  2  1  0
  8  4  1  0
  9  6  1  0
 10  9  1  0
 11 10  1  0
 12 11  2  0
 13 11  1  0
 13 17  1  0
 14 13  1  0
 14 15  1  0
 15 16  1  0
 17 16  1  0
 18 19  1  0
 17 18  1  1
 20 18  2  0
M  END
$$$$
