DGP.pdb
     RDKit          3D

 20 20  0  0  1  0  0  0  0  0999 V2000
    9.7182  -17.0248   21.0622 N   0  0  0  0  0  0  0  0  0  0  0  0
    8.6544  -16.2729   20.4797 C   0  0  1  0  0  0  0  0  0  0  0  0
    8.0232  -16.9959   19.3234 C   0  0  0  0  0  0  0  0  0  0  0  0
    8.8587  -18.0960   18.8102 C   0  0  0  0  0  0  0  0  0  0  0  0
   10.0441  -17.8242   18.4890 O   0  0  0  0  0  0  0  0  0  0  0  0
    7.6531  -15.8133   21.4723 C   0  0  0  0  0  0  0  0  0  0  0  0
    6.4453  -15.7439   21.1346 O   0  0  0  0  0  0  0  0  0  0  0  0
    8.4371  -19.4006   18.6561 O   0  0  0  0  0  0  0  0  0  0  0  0
    8.0084  -15.4461   22.7984 N   0  0  0  0  0  0  0  0  0  0  0  0
    7.0757  -14.9777   23.7761 C   0  0  0  0  0  0  0  0  0  0  0  0
    7.7130  -14.6664   25.0876 C   0  0  0  0  0  0  0  0  0  0  0  0
    8.3776  -15.6121   25.5834 O   0  0  0  0  0  0  0  0  0  0  0  0
    7.5608  -13.4045   25.6912 N   0  0  0  0  0  0  0  0  0  0  0  0
    6.8460  -12.2908   25.0267 C   0  0  0  0  0  0  0  0  0  0  0  0
    5.9625  -11.7998   26.1678 C   0  0  0  0  0  0  0  0  0  0  0  0
    6.5926  -12.3231   27.4464 C   0  0  0  0  0  0  0  0  0  0  0  0
    7.9384  -12.8023   26.9114 C   0  0  1  0  0  0  0  0  0  0  0  0
    8.7503  -13.4888   27.8632 C   0  0  0  0  0  0  0  0  0  0  0  0
    8.4024  -14.8340   28.1350 O   0  0  0  0  0  0  0  0  0  0  0  0
    9.7430  -13.0989   28.5173 O   0  0  0  0  0  0  0  0  0  0  0  0
  2  1  1  1
  3  4  1  0
  3  2  1  0
  4  5  2  0
  6  7  2  0
  6  2  1  0
  8  4  1  0
  9  6  1  0
 10  9  1  0
 11 10  1  0
 12 11  2  0
 13 11  1  0
 13 17  1  0
 14 13  1  0
 14 15  1  0
 15 16  1  0
 17 16  1  0
 18 19  1  0
 17 18  1  1
 20 18  2  0
M  END
$$$$
