DGP.pdb
     RDKit          3D

 20 20  0  0  1  0  0  0  0  0999 V2000
    9.4703  -17.1523   20.2847 N   0  0  0  0  0  0  0  0  0  0  0  0
    9.8439  -17.0246   21.6560 C   0  0  1  0  0  0  0  0  0  0  0  0
   11.3358  -16.9807   21.8299 C   0  0  0  0  0  0  0  0  0  0  0  0
   12.0594  -17.6792   20.7528 C   0  0  0  0  0  0  0  0  0  0  0  0
   13.2746  -17.9411   20.9442 O   0  0  0  0  0  0  0  0  0  0  0  0
    9.1621  -15.9019   22.3443 C   0  0  0  0  0  0  0  0  0  0  0  0
    9.6533  -14.7486   22.2661 O   0  0  0  0  0  0  0  0  0  0  0  0
   11.5028  -18.0667   19.5514 O   0  0  0  0  0  0  0  0  0  0  0  0
    7.9678  -16.0807   23.0934 N   0  0  0  0  0  0  0  0  0  0  0  0
    7.2843  -15.0245   23.7737 C   0  0  0  0  0  0  0  0  0  0  0  0
    7.9368  -14.6403   25.0581 C   0  0  0  0  0  0  0  0  0  0  0  0
    8.7841  -15.4674   25.4819 O   0  0  0  0  0  0  0  0  0  0  0  0
    7.6054  -13.4404   25.7142 N   0  0  0  0  0  0  0  0  0  0  0  0
    6.9410  -12.3153   25.0174 C   0  0  0  0  0  0  0  0  0  0  0  0
    5.8501  -11.9636   26.0226 C   0  0  0  0  0  0  0  0  0  0  0  0
    6.2911  -12.5548   27.3499 C   0  0  0  0  0  0  0  0  0  0  0  0
    7.7351  -12.9195   27.0202 C   0  0  1  0  0  0  0  0  0  0  0  0
    8.4199  -13.6374   28.0460 C   0  0  0  0  0  0  0  0  0  0  0  0
    7.9898  -14.9657   28.2804 O   0  0  0  0  0  0  0  0  0  0  0  0
    9.3595  -13.2885   28.7948 O   0  0  0  0  0  0  0  0  0  0  0  0
  2  1  1  6
  3  4  1  0
  3  2  1  0
  4  5  2  0
  6  7  2  0
  6  2  1  0
  8  4  1  0
  9  6  1  0
 10  9  1  0
 11 10  1  0
 12 11  2  0
 13 11  1  0
 13 17  1  0
 14 13  1  0
 14 15  1  0
 15 16  1  0
 17 16  1  0
 18 19  1  0
 17 18  1  1
 20 18  2  0
M  END
$$$$
