DGP.pdb
     RDKit          3D

 20 20  0  0  1  0  0  0  0  0999 V2000
    9.8145  -15.7480   20.6767 N   0  0  0  0  0  0  0  0  0  0  0  0
    8.5191  -15.3827   20.2029 C   0  0  1  0  0  0  0  0  0  0  0  0
    8.0440  -16.2948   19.1072 C   0  0  0  0  0  0  0  0  0  0  0  0
    8.4530  -17.6960   19.3100 C   0  0  0  0  0  0  0  0  0  0  0  0
    9.6738  -17.9213   19.5125 O   0  0  0  0  0  0  0  0  0  0  0  0
    7.5201  -15.2374   21.2891 C   0  0  0  0  0  0  0  0  0  0  0  0
    6.2995  -15.3535   21.0163 O   0  0  0  0  0  0  0  0  0  0  0  0
    7.5967  -18.7776   19.2943 O   0  0  0  0  0  0  0  0  0  0  0  0
    7.8916  -14.9703   22.6346 N   0  0  0  0  0  0  0  0  0  0  0  0
    6.9589  -14.8348   23.7103 C   0  0  0  0  0  0  0  0  0  0  0  0
    7.6168  -14.5756   25.0230 C   0  0  0  0  0  0  0  0  0  0  0  0
    8.2363  -15.5604   25.5007 O   0  0  0  0  0  0  0  0  0  0  0  0
    7.5297  -13.3173   25.6467 N   0  0  0  0  0  0  0  0  0  0  0  0
    6.8631  -12.1610   25.0052 C   0  0  0  0  0  0  0  0  0  0  0  0
    6.0133  -11.6462   26.1614 C   0  0  0  0  0  0  0  0  0  0  0  0
    6.6284  -12.2183   27.4263 C   0  0  0  0  0  0  0  0  0  0  0  0
    7.9455  -12.7524   26.8722 C   0  0  1  0  0  0  0  0  0  0  0  0
    8.7317  -13.4910   27.8064 C   0  0  0  0  0  0  0  0  0  0  0  0
    8.4109  -14.8619   27.9555 O   0  0  0  0  0  0  0  0  0  0  0  0
    9.6810  -13.1289   28.5365 O   0  0  0  0  0  0  0  0  0  0  0  0
  2  1  1  1
  3  4  1  0
  3  2  1  0
  4  5  2  0
  6  7  2  0
  6  2  1  0
  8  4  1  0
  9  6  1  0
 10  9  1  0
 11 10  1  0
 12 11  2  0
 13 11  1  0
 13 17  1  0
 14 13  1  0
 14 15  1  0
 15 16  1  0
 17 16  1  0
 18 19  1  0
 17 18  1  1
 20 18  2  0
M  END
$$$$
