DGP.pdb
     RDKit          3D

 20 20  0  0  1  0  0  0  0  0999 V2000
    9.7630  -17.8439   20.8405 N   0  0  0  0  0  0  0  0  0  0  0  0
   10.5337  -17.4514   21.9754 C   0  0  1  0  0  0  0  0  0  0  0  0
   12.0101  -17.5417   21.7103 C   0  0  0  0  0  0  0  0  0  0  0  0
   12.3773  -18.7219   20.9080 C   0  0  0  0  0  0  0  0  0  0  0  0
   13.5261  -18.7419   20.3961 O   0  0  0  0  0  0  0  0  0  0  0  0
   10.1380  -16.1304   22.5208 C   0  0  0  0  0  0  0  0  0  0  0  0
    9.6296  -15.2786   21.7503 O   0  0  0  0  0  0  0  0  0  0  0  0
   11.5550  -19.8054   20.6772 O   0  0  0  0  0  0  0  0  0  0  0  0
   10.3123  -15.7883   23.8891 N   0  0  0  0  0  0  0  0  0  0  0  0
    9.7959  -14.5966   24.4879 C   0  0  0  0  0  0  0  0  0  0  0  0
    8.4478  -14.7868   25.0958 C   0  0  0  0  0  0  0  0  0  0  0  0
    7.8949  -15.8798   24.8101 O   0  0  0  0  0  0  0  0  0  0  0  0
    7.8726  -13.8002   25.9179 N   0  0  0  0  0  0  0  0  0  0  0  0
    8.6575  -12.6693   26.4636 C   0  0  0  0  0  0  0  0  0  0  0  0
    7.7210  -11.5040   26.1654 C   0  0  0  0  0  0  0  0  0  0  0  0
    6.3457  -12.1106   25.9501 C   0  0  0  0  0  0  0  0  0  0  0  0
    6.5924  -13.5308   26.4493 C   0  0  1  0  0  0  0  0  0  0  0  0
    5.5005  -14.4297   26.2591 C   0  0  0  0  0  0  0  0  0  0  0  0
    5.2941  -14.9006   24.9400 O   0  0  0  0  0  0  0  0  0  0  0  0
    4.6713  -14.8869   27.0768 O   0  0  0  0  0  0  0  0  0  0  0  0
  2  1  1  6
  3  4  1  0
  3  2  1  0
  4  5  2  0
  6  7  2  0
  6  2  1  0
  8  4  1  0
  9  6  1  0
 10  9  1  0
 11 10  1  0
 12 11  2  0
 13 11  1  0
 13 17  1  0
 14 13  1  0
 14 15  1  0
 15 16  1  0
 17 16  1  0
 18 19  1  0
 17 18  1  6
 20 18  2  0
M  END
$$$$
