DGP.pdb
     RDKit          3D

 20 20  0  0  1  0  0  0  0  0999 V2000
    8.5467  -18.0792   20.5982 N   0  0  0  0  0  0  0  0  0  0  0  0
    8.6428  -18.1084   22.0217 C   0  0  1  0  0  0  0  0  0  0  0  0
    9.9938  -18.5765   22.4839 C   0  0  0  0  0  0  0  0  0  0  0  0
   11.0853  -18.1477   21.5916 C   0  0  0  0  0  0  0  0  0  0  0  0
   11.3917  -18.9111   20.6400 O   0  0  0  0  0  0  0  0  0  0  0  0
    8.2389  -16.8323   22.6600 C   0  0  0  0  0  0  0  0  0  0  0  0
    8.8681  -15.7822   22.3785 O   0  0  0  0  0  0  0  0  0  0  0  0
   11.7952  -16.9720   21.7227 O   0  0  0  0  0  0  0  0  0  0  0  0
    7.1616  -16.7501   23.5832 N   0  0  0  0  0  0  0  0  0  0  0  0
    6.6934  -15.5280   24.1598 C   0  0  0  0  0  0  0  0  0  0  0  0
    7.5837  -15.0146   25.2401 C   0  0  0  0  0  0  0  0  0  0  0  0
    8.4291  -15.8458   25.6600 O   0  0  0  0  0  0  0  0  0  0  0  0
    7.4583  -13.6998   25.7254 N   0  0  0  0  0  0  0  0  0  0  0  0
    6.6877  -12.6608   25.0046 C   0  0  0  0  0  0  0  0  0  0  0  0
    5.8777  -12.0631   26.1494 C   0  0  0  0  0  0  0  0  0  0  0  0
    6.5985  -12.4542   27.4273 C   0  0  0  0  0  0  0  0  0  0  0  0
    7.9104  -12.9779   26.8516 C   0  0  1  0  0  0  0  0  0  0  0  0
    8.7925  -13.5629   27.8088 C   0  0  0  0  0  0  0  0  0  0  0  0
    8.5412  -14.9124   28.1553 O   0  0  0  0  0  0  0  0  0  0  0  0
    9.7758  -13.0783   28.4117 O   0  0  0  0  0  0  0  0  0  0  0  0
  2  1  1  6
  3  4  1  0
  3  2  1  0
  4  5  2  0
  6  7  2  0
  6  2  1  0
  8  4  1  0
  9  6  1  0
 10  9  1  0
 11 10  1  0
 12 11  2  0
 13 11  1  0
 13 17  1  0
 14 13  1  0
 14 15  1  0
 15 16  1  0
 17 16  1  0
 18 19  1  0
 17 18  1  1
 20 18  2  0
M  END
$$$$
