DGP.pdb
     RDKit          3D

 20 20  0  0  1  0  0  0  0  0999 V2000
    9.2551  -17.9432   21.4640 N   0  0  0  0  0  0  0  0  0  0  0  0
    8.0422  -17.4701   20.8798 C   0  0  1  0  0  0  0  0  0  0  0  0
    7.1716  -18.5979   20.4020 C   0  0  0  0  0  0  0  0  0  0  0  0
    7.6985  -19.2565   19.1936 C   0  0  0  0  0  0  0  0  0  0  0  0
    8.1887  -18.5216   18.2983 O   0  0  0  0  0  0  0  0  0  0  0  0
    7.3078  -16.5195   21.7493 C   0  0  0  0  0  0  0  0  0  0  0  0
    6.1136  -16.2406   21.4778 O   0  0  0  0  0  0  0  0  0  0  0  0
    7.6937  -20.6183   18.9722 O   0  0  0  0  0  0  0  0  0  0  0  0
    7.9056  -15.9081   22.8844 N   0  0  0  0  0  0  0  0  0  0  0  0
    7.3326  -14.8069   23.5947 C   0  0  0  0  0  0  0  0  0  0  0  0
    8.1246  -14.4118   24.7947 C   0  0  0  0  0  0  0  0  0  0  0  0
    9.1239  -15.1401   25.0244 O   0  0  0  0  0  0  0  0  0  0  0  0
    7.7529  -13.3067   25.5824 N   0  0  0  0  0  0  0  0  0  0  0  0
    6.9453  -12.1880   25.0448 C   0  0  0  0  0  0  0  0  0  0  0  0
    5.9161  -12.0211   26.1569 C   0  0  0  0  0  0  0  0  0  0  0  0
    6.5107  -12.6839   27.3869 C   0  0  0  0  0  0  0  0  0  0  0  0
    7.9474  -12.8912   26.9179 C   0  0  1  0  0  0  0  0  0  0  0  0
    8.7695  -13.6325   27.8185 C   0  0  0  0  0  0  0  0  0  0  0  0
    8.4969  -15.0176   27.9261 O   0  0  0  0  0  0  0  0  0  0  0  0
    9.7149  -13.2620   28.5494 O   0  0  0  0  0  0  0  0  0  0  0  0
  2  1  1  1
  3  4  1  0
  3  2  1  0
  4  5  2  0
  6  7  2  0
  6  2  1  0
  8  4  1  0
  9  6  1  0
 10  9  1  0
 11 10  1  0
 12 11  2  0
 13 11  1  0
 13 17  1  0
 14 13  1  0
 14 15  1  0
 15 16  1  0
 17 16  1  0
 18 19  1  0
 17 18  1  1
 20 18  2  0
M  END
$$$$
