KCF.pdb
     RDKit          3D

 27 27  0  0  1  0  0  0  0  0999 V2000
    8.8580  -18.7686   19.0721 N   0  0  0  0  0  0  0  0  0  0  0  0
    7.9664  -18.0017   19.9131 C   0  0  1  0  0  0  0  0  0  0  0  0
    7.3313  -18.8980   20.9090 C   0  0  0  0  0  0  0  0  0  0  0  0
    7.7545  -20.3197   20.6674 C   0  0  0  0  0  0  0  0  0  0  0  0
    8.1933  -21.0039   21.9251 C   0  0  0  0  0  0  0  0  0  0  0  0
    7.6289  -22.4161   21.9596 C   0  0  0  0  0  0  0  0  0  0  0  0
    8.0210  -23.1358   23.1372 N   0  0  0  0  0  0  0  0  0  0  0  0
    8.6934  -16.8554   20.5550 C   0  0  0  0  0  0  0  0  0  0  0  0
    9.9016  -17.0116   20.8583 O   0  0  0  0  0  0  0  0  0  0  0  0
    8.0952  -15.6087   20.8379 N   0  0  0  0  0  0  0  0  0  0  0  0
    8.7433  -14.5017   21.4648 C   0  0  1  0  0  0  0  0  0  0  0  0
    8.0657  -13.1814   21.2091 C   0  0  0  0  0  0  0  0  0  0  0  0
    7.3758  -13.1958   19.5325 S   0  0  0  0  0  0  0  0  0  0  0  0
    8.9166  -14.6837   22.9298 C   0  0  0  0  0  0  0  0  0  0  0  0
    9.6598  -13.8733   23.5412 O   0  0  0  0  0  0  0  0  0  0  0  0
    8.2977  -15.7086   23.6688 N   0  0  0  0  0  0  0  0  0  0  0  0
    8.5777  -15.9433   25.0969 C   0  0  1  0  0  0  0  0  0  0  0  0
    7.4091  -15.5423   25.9352 C   0  0  0  0  0  0  0  0  0  0  0  0
    7.4527  -14.1132   26.2870 C   0  0  0  0  0  0  0  0  0  0  0  0
    8.6406  -13.4777   26.5536 C   0  0  0  0  0  0  0  0  0  0  0  0
    8.7159  -12.1375   26.8788 C   0  0  0  0  0  0  0  0  0  0  0  0
    7.5511  -11.4232   26.9347 C   0  0  0  0  0  0  0  0  0  0  0  0
    6.3333  -12.0134   26.6763 C   0  0  0  0  0  0  0  0  0  0  0  0
    6.3033  -13.3529   26.3556 C   0  0  0  0  0  0  0  0  0  0  0  0
    8.9114  -17.3652   25.3000 C   0  0  0  0  0  0  0  0  0  0  0  0
    8.8862  -18.2473   24.4154 O   0  0  0  0  0  0  0  0  0  0  0  0
    9.2883  -17.7740   26.5811 O   0  0  0  0  0  0  0  0  0  0  0  0
  2  8  1  0
  2  1  1  1
  3  2  1  0
  4  3  1  0
  5  6  1  0
  5  4  1  0
  7  6  1  0
  8  9  2  0
 10 11  1  0
 10  8  1  0
 12 13  1  0
 11 12  1  1
 14 15  2  0
 14 11  1  0
 16 14  1  0
 17 25  1  0
 17 16  1  0
 17 18  1  1
 19 18  1  0
 20 19  2  0
 21 20  1  0
 22 23  1  0
 22 21  2  0
 23 24  2  0
 24 19  1  0
 25 27  1  0
 26 25  2  0
M  END
$$$$
