KCF.pdb
     RDKit          3D

 27 27  0  0  1  0  0  0  0  0999 V2000
    8.0815  -19.4401   18.6458 N   0  0  0  0  0  0  0  0  0  0  0  0
    7.8395  -18.1623   19.2775 C   0  0  1  0  0  0  0  0  0  0  0  0
    6.3829  -17.9811   19.4872 C   0  0  0  0  0  0  0  0  0  0  0  0
    5.6223  -19.0821   18.8030 C   0  0  0  0  0  0  0  0  0  0  0  0
    4.3105  -19.3651   19.4676 C   0  0  0  0  0  0  0  0  0  0  0  0
    3.5308  -20.3785   18.6435 C   0  0  0  0  0  0  0  0  0  0  0  0
    2.6743  -19.7566   17.6749 N   0  0  0  0  0  0  0  0  0  0  0  0
    8.6218  -18.0416   20.5534 C   0  0  0  0  0  0  0  0  0  0  0  0
    8.2614  -18.7292   21.5400 O   0  0  0  0  0  0  0  0  0  0  0  0
    9.7421  -17.1972   20.7082 N   0  0  0  0  0  0  0  0  0  0  0  0
   10.4742  -17.0053   21.9188 C   0  0  1  0  0  0  0  0  0  0  0  0
   11.9506  -16.7996   21.7054 C   0  0  0  0  0  0  0  0  0  0  0  0
   12.6749  -18.3511   21.1093 S   0  0  0  0  0  0  0  0  0  0  0  0
    9.9430  -15.8924   22.7486 C   0  0  0  0  0  0  0  0  0  0  0  0
    9.6407  -14.8170   22.1699 O   0  0  0  0  0  0  0  0  0  0  0  0
    9.7599  -15.9743   24.1413 N   0  0  0  0  0  0  0  0  0  0  0  0
    9.2148  -14.8626   24.9411 C   0  0  1  0  0  0  0  0  0  0  0  0
    7.8476  -14.4944   24.4677 C   0  0  0  0  0  0  0  0  0  0  0  0
    7.2215  -13.4835   25.3360 C   0  0  0  0  0  0  0  0  0  0  0  0
    6.1974  -13.8097   26.1909 C   0  0  0  0  0  0  0  0  0  0  0  0
    5.5947  -12.8869   27.0233 C   0  0  0  0  0  0  0  0  0  0  0  0
    6.0454  -11.5963   26.9855 C   0  0  0  0  0  0  0  0  0  0  0  0
    7.0696  -11.2173   26.1456 C   0  0  0  0  0  0  0  0  0  0  0  0
    7.6432  -12.1697   25.3318 C   0  0  0  0  0  0  0  0  0  0  0  0
    9.1956  -15.2503   26.3637 C   0  0  0  0  0  0  0  0  0  0  0  0
    9.4666  -14.4962   27.3224 O   0  0  0  0  0  0  0  0  0  0  0  0
    8.8476  -16.5652   26.6805 O   0  0  0  0  0  0  0  0  0  0  0  0
  2  8  1  0
  2  1  1  1
  3  2  1  0
  4  3  1  0
  5  6  1  0
  5  4  1  0
  7  6  1  0
  8  9  2  0
 10 11  1  0
 10  8  1  0
 12 13  1  0
 11 12  1  6
 14 15  2  0
 14 11  1  0
 16 14  1  0
 17 25  1  0
 17 16  1  0
 17 18  1  6
 19 18  1  0
 20 19  2  0
 21 20  1  0
 22 23  1  0
 22 21  2  0
 23 24  2  0
 24 19  1  0
 25 27  1  0
 26 25  2  0
M  END
$$$$
