KCF.pdb
     RDKit          3D

 27 27  0  0  1  0  0  0  0  0999 V2000
    6.2537  -15.9029   20.0258 N   0  0  0  0  0  0  0  0  0  0  0  0
    7.4076  -15.3571   20.7048 C   0  0  1  0  0  0  0  0  0  0  0  0
    7.3131  -13.8776   20.7311 C   0  0  0  0  0  0  0  0  0  0  0  0
    7.3819  -13.3313   19.3327 C   0  0  0  0  0  0  0  0  0  0  0  0
    8.6571  -13.7009   18.6399 C   0  0  0  0  0  0  0  0  0  0  0  0
    8.6136  -13.2127   17.1997 C   0  0  0  0  0  0  0  0  0  0  0  0
    9.7245  -13.6866   16.4253 N   0  0  0  0  0  0  0  0  0  0  0  0
    7.5464  -15.9472   22.0785 C   0  0  0  0  0  0  0  0  0  0  0  0
    6.5153  -16.0576   22.7860 O   0  0  0  0  0  0  0  0  0  0  0  0
    8.7729  -16.3863   22.6219 N   0  0  0  0  0  0  0  0  0  0  0  0
    8.9266  -17.1090   23.8435 C   0  0  1  0  0  0  0  0  0  0  0  0
    9.6902  -18.3978   23.6905 C   0  0  0  0  0  0  0  0  0  0  0  0
    8.5649  -19.6700   23.0563 S   0  0  0  0  0  0  0  0  0  0  0  0
    9.5501  -16.2994   24.9229 C   0  0  0  0  0  0  0  0  0  0  0  0
   10.6076  -15.6728   24.6546 O   0  0  0  0  0  0  0  0  0  0  0  0
    9.0253  -16.1950   26.2241 N   0  0  0  0  0  0  0  0  0  0  0  0
    9.7327  -15.5031   27.3167 C   0  0  1  0  0  0  0  0  0  0  0  0
    8.7734  -14.7252   28.1554 C   0  0  0  0  0  0  0  0  0  0  0  0
    8.0860  -13.6822   27.3761 C   0  0  0  0  0  0  0  0  0  0  0  0
    8.6967  -12.4871   27.0848 C   0  0  0  0  0  0  0  0  0  0  0  0
    8.0823  -11.4921   26.3499 C   0  0  0  0  0  0  0  0  0  0  0  0
    6.8113  -11.7182   25.8985 C   0  0  0  0  0  0  0  0  0  0  0  0
    6.1543  -12.8997   26.1635 C   0  0  0  0  0  0  0  0  0  0  0  0
    6.8040  -13.8658   26.9002 C   0  0  0  0  0  0  0  0  0  0  0  0
   10.4621  -16.4946   28.1288 C   0  0  0  0  0  0  0  0  0  0  0  0
   10.3696  -17.7350   28.0102 O   0  0  0  0  0  0  0  0  0  0  0  0
   11.3311  -16.0231   29.1151 O   0  0  0  0  0  0  0  0  0  0  0  0
  2  8  1  0
  2  1  1  1
  3  2  1  0
  4  3  1  0
  5  6  1  0
  5  4  1  0
  7  6  1  0
  8  9  2  0
 10 11  1  0
 10  8  1  0
 12 13  1  0
 11 12  1  6
 14 15  2  0
 14 11  1  0
 16 14  1  0
 17 25  1  0
 17 16  1  0
 17 18  1  1
 19 18  1  0
 20 19  2  0
 21 20  1  0
 22 23  1  0
 22 21  2  0
 23 24  2  0
 24 19  1  0
 25 27  1  0
 26 25  2  0
M  END
$$$$
