KCF.pdb
     RDKit          3D

 27 27  0  0  1  0  0  0  0  0999 V2000
    6.5475  -16.0512   20.0364 N   0  0  0  0  0  0  0  0  0  0  0  0
    7.6793  -15.4777   20.7295 C   0  0  1  0  0  0  0  0  0  0  0  0
    7.5228  -14.0049   20.8000 C   0  0  0  0  0  0  0  0  0  0  0  0
    7.3242  -13.4406   19.4213 C   0  0  0  0  0  0  0  0  0  0  0  0
    8.4955  -13.7022   18.5257 C   0  0  0  0  0  0  0  0  0  0  0  0
    8.1950  -13.1790   17.1293 C   0  0  0  0  0  0  0  0  0  0  0  0
    9.2175  -13.5209   16.1826 N   0  0  0  0  0  0  0  0  0  0  0  0
    7.8468  -16.1020   22.0848 C   0  0  0  0  0  0  0  0  0  0  0  0
    6.8180  -16.4781   22.6982 O   0  0  0  0  0  0  0  0  0  0  0  0
    9.0976  -16.2909   22.7109 N   0  0  0  0  0  0  0  0  0  0  0  0
    9.3174  -17.0151   23.9215 C   0  0  1  0  0  0  0  0  0  0  0  0
   10.1938  -18.2275   23.7491 C   0  0  0  0  0  0  0  0  0  0  0  0
   11.7296  -17.7241   22.9276 S   0  0  0  0  0  0  0  0  0  0  0  0
    9.8669  -16.1689   25.0129 C   0  0  0  0  0  0  0  0  0  0  0  0
   10.7550  -15.3281   24.7176 O   0  0  0  0  0  0  0  0  0  0  0  0
    9.4505  -16.2554   26.3541 N   0  0  0  0  0  0  0  0  0  0  0  0
   10.0021  -15.3970   27.4178 C   0  0  1  0  0  0  0  0  0  0  0  0
    8.9074  -14.6793   28.1359 C   0  0  0  0  0  0  0  0  0  0  0  0
    8.1579  -13.7853   27.2377 C   0  0  0  0  0  0  0  0  0  0  0  0
    7.0073  -14.1993   26.6127 C   0  0  0  0  0  0  0  0  0  0  0  0
    6.2774  -13.3829   25.7710 C   0  0  0  0  0  0  0  0  0  0  0  0
    6.7301  -12.1101   25.5583 C   0  0  0  0  0  0  0  0  0  0  0  0
    7.8788  -11.6460   26.1609 C   0  0  0  0  0  0  0  0  0  0  0  0
    8.5765  -12.4934   26.9935 C   0  0  0  0  0  0  0  0  0  0  0  0
   10.7927  -16.2231   28.3489 C   0  0  0  0  0  0  0  0  0  0  0  0
   11.4311  -15.7934   29.3333 O   0  0  0  0  0  0  0  0  0  0  0  0
   10.8410  -17.6007   28.1244 O   0  0  0  0  0  0  0  0  0  0  0  0
  2  8  1  0
  2  1  1  1
  3  2  1  0
  4  3  1  0
  5  6  1  0
  5  4  1  0
  7  6  1  0
  8  9  2  0
 10 11  1  0
 10  8  1  0
 12 13  1  0
 11 12  1  6
 14 15  2  0
 14 11  1  0
 16 14  1  0
 17 25  1  0
 17 16  1  0
 17 18  1  1
 19 18  1  0
 20 19  2  0
 21 20  1  0
 22 23  1  0
 22 21  2  0
 23 24  2  0
 24 19  1  0
 25 27  1  0
 26 25  2  0
M  END
$$$$
