KCF.pdb
     RDKit          3D

 27 27  0  0  1  0  0  0  0  0999 V2000
    7.2708  -17.0583   18.8883 N   0  0  0  0  0  0  0  0  0  0  0  0
    8.0525  -17.8431   19.8176 C   0  0  1  0  0  0  0  0  0  0  0  0
    9.3148  -18.2691   19.1669 C   0  0  0  0  0  0  0  0  0  0  0  0
    9.0788  -19.5021   18.3405 C   0  0  0  0  0  0  0  0  0  0  0  0
    9.2273  -19.2404   16.8736 C   0  0  0  0  0  0  0  0  0  0  0  0
    9.0617  -20.5428   16.1052 C   0  0  0  0  0  0  0  0  0  0  0  0
    9.1219  -20.3538   14.6842 N   0  0  0  0  0  0  0  0  0  0  0  0
    8.2917  -17.0813   21.0892 C   0  0  0  0  0  0  0  0  0  0  0  0
    9.0633  -16.0916   21.0541 O   0  0  0  0  0  0  0  0  0  0  0  0
    7.6975  -17.4145   22.3253 N   0  0  0  0  0  0  0  0  0  0  0  0
    7.8540  -16.6860   23.5431 C   0  0  1  0  0  0  0  0  0  0  0  0
    6.6571  -16.7673   24.4534 C   0  0  0  0  0  0  0  0  0  0  0  0
    6.9695  -15.7470   25.9191 S   0  0  0  0  0  0  0  0  0  0  0  0
    9.0700  -17.0783   24.3025 C   0  0  0  0  0  0  0  0  0  0  0  0
    9.3989  -18.2926   24.3036 O   0  0  0  0  0  0  0  0  0  0  0  0
    9.8716  -16.1699   25.0180 N   0  0  0  0  0  0  0  0  0  0  0  0
   11.1150  -16.5696   25.7015 C   0  0  1  0  0  0  0  0  0  0  0  0
   11.8408  -15.3712   26.2173 C   0  0  0  0  0  0  0  0  0  0  0  0
   11.0436  -14.6347   27.2122 C   0  0  0  0  0  0  0  0  0  0  0  0
   10.0198  -13.8012   26.8340 C   0  0  0  0  0  0  0  0  0  0  0  0
    9.2488  -13.1028   27.7424 C   0  0  0  0  0  0  0  0  0  0  0  0
    9.5265  -13.2556   29.0728 C   0  0  0  0  0  0  0  0  0  0  0  0
   10.5428  -14.0794   29.5045 C   0  0  0  0  0  0  0  0  0  0  0  0
   11.2875  -14.7579   28.5647 C   0  0  0  0  0  0  0  0  0  0  0  0
   10.7901  -17.5029   26.7960 C   0  0  0  0  0  0  0  0  0  0  0  0
   11.6249  -18.1082   27.5017 O   0  0  0  0  0  0  0  0  0  0  0  0
    9.4430  -17.7395   27.0783 O   0  0  0  0  0  0  0  0  0  0  0  0
  2  8  1  0
  2  1  1  6
  3  2  1  0
  4  3  1  0
  5  6  1  0
  5  4  1  0
  7  6  1  0
  8  9  2  0
 10 11  1  0
 10  8  1  0
 12 13  1  0
 11 12  1  1
 14 15  2  0
 14 11  1  0
 16 14  1  0
 17 25  1  0
 17 16  1  0
 17 18  1  1
 19 18  1  0
 20 19  2  0
 21 20  1  0
 22 23  1  0
 22 21  2  0
 23 24  2  0
 24 19  1  0
 25 27  1  0
 26 25  2  0
M  END
$$$$
