KCF.pdb
     RDKit          3D

 27 27  0  0  1  0  0  0  0  0999 V2000
    8.7311  -16.9253   19.9322 N   0  0  0  0  0  0  0  0  0  0  0  0
    8.8659  -15.6562   20.6116 C   0  0  1  0  0  0  0  0  0  0  0  0
    8.2294  -14.5902   19.8010 C   0  0  0  0  0  0  0  0  0  0  0  0
    7.7954  -15.1421   18.4721 C   0  0  0  0  0  0  0  0  0  0  0  0
    7.5031  -14.0627   17.4762 C   0  0  0  0  0  0  0  0  0  0  0  0
    8.7910  -13.6519   16.7785 C   0  0  0  0  0  0  0  0  0  0  0  0
    8.5810  -12.6273   15.7963 N   0  0  0  0  0  0  0  0  0  0  0  0
    8.3028  -15.7330   22.0014 C   0  0  0  0  0  0  0  0  0  0  0  0
    7.8639  -14.6797   22.5250 O   0  0  0  0  0  0  0  0  0  0  0  0
    8.2381  -16.9244   22.7554 N   0  0  0  0  0  0  0  0  0  0  0  0
    7.8006  -17.0246   24.1107 C   0  0  1  0  0  0  0  0  0  0  0  0
    7.3149  -18.3991   24.4882 C   0  0  0  0  0  0  0  0  0  0  0  0
    6.5360  -18.3132   26.1231 S   0  0  0  0  0  0  0  0  0  0  0  0
    8.8320  -16.5879   25.0879 C   0  0  0  0  0  0  0  0  0  0  0  0
   10.0346  -16.8595   24.8375 O   0  0  0  0  0  0  0  0  0  0  0  0
    8.5392  -15.8896   26.2738 N   0  0  0  0  0  0  0  0  0  0  0  0
    9.5854  -15.3651   27.1699 C   0  0  1  0  0  0  0  0  0  0  0  0
    9.0007  -14.4158   28.1628 C   0  0  0  0  0  0  0  0  0  0  0  0
    7.9830  -13.5439   27.5529 C   0  0  0  0  0  0  0  0  0  0  0  0
    8.3194  -12.5986   26.6152 C   0  0  0  0  0  0  0  0  0  0  0  0
    7.3881  -11.7712   26.0190 C   0  0  0  0  0  0  0  0  0  0  0  0
    6.0779  -11.9082   26.3864 C   0  0  0  0  0  0  0  0  0  0  0  0
    5.6881  -12.8408   27.3225 C   0  0  0  0  0  0  0  0  0  0  0  0
    6.6496  -13.6463   27.8926 C   0  0  0  0  0  0  0  0  0  0  0  0
   10.2564  -16.4908   27.8458 C   0  0  0  0  0  0  0  0  0  0  0  0
    9.9195  -17.6909   27.7589 O   0  0  0  0  0  0  0  0  0  0  0  0
   11.3605  -16.2075   28.6527 O   0  0  0  0  0  0  0  0  0  0  0  0
  2  8  1  0
  2  1  1  6
  3  2  1  0
  4  3  1  0
  5  6  1  0
  5  4  1  0
  7  6  1  0
  8  9  2  0
 10 11  1  0
 10  8  1  0
 12 13  1  0
 11 12  1  1
 14 15  2  0
 14 11  1  0
 16 14  1  0
 17 25  1  0
 17 16  1  0
 17 18  1  1
 19 18  1  0
 20 19  2  0
 21 20  1  0
 22 23  1  0
 22 21  2  0
 23 24  2  0
 24 19  1  0
 25 27  1  0
 26 25  2  0
M  END
$$$$
