KCF.pdb
     RDKit          3D

 27 27  0  0  1  0  0  0  0  0999 V2000
    8.4096  -18.7951   19.1371 N   0  0  0  0  0  0  0  0  0  0  0  0
    9.0673  -18.7374   20.4234 C   0  0  1  0  0  0  0  0  0  0  0  0
   10.3157  -19.5361   20.3779 C   0  0  0  0  0  0  0  0  0  0  0  0
   10.3632  -20.3475   19.1138 C   0  0  0  0  0  0  0  0  0  0  0  0
   11.6210  -21.1526   19.0019 C   0  0  0  0  0  0  0  0  0  0  0  0
   11.6991  -21.7849   17.6205 C   0  0  0  0  0  0  0  0  0  0  0  0
   12.9251  -22.5006   17.4125 N   0  0  0  0  0  0  0  0  0  0  0  0
    9.3120  -17.3139   20.8336 C   0  0  0  0  0  0  0  0  0  0  0  0
   10.4142  -16.7903   20.5384 O   0  0  0  0  0  0  0  0  0  0  0  0
    8.3718  -16.5280   21.5340 N   0  0  0  0  0  0  0  0  0  0  0  0
    8.5464  -15.1601   21.9036 C   0  0  1  0  0  0  0  0  0  0  0  0
    7.3298  -14.3078   21.6559 C   0  0  0  0  0  0  0  0  0  0  0  0
    5.8524  -15.2549   22.1115 S   0  0  0  0  0  0  0  0  0  0  0  0
    8.9799  -14.9904   23.3151 C   0  0  0  0  0  0  0  0  0  0  0  0
    9.4838  -13.8871   23.6492 O   0  0  0  0  0  0  0  0  0  0  0  0
    8.8585  -15.9920   24.2958 N   0  0  0  0  0  0  0  0  0  0  0  0
    9.4049  -15.8462   25.6571 C   0  0  1  0  0  0  0  0  0  0  0  0
    8.3093  -15.5960   26.6401 C   0  0  0  0  0  0  0  0  0  0  0  0
    7.8396  -14.2014   26.5927 C   0  0  0  0  0  0  0  0  0  0  0  0
    8.6830  -13.1525   26.8658 C   0  0  0  0  0  0  0  0  0  0  0  0
    8.2754  -11.8336   26.8225 C   0  0  0  0  0  0  0  0  0  0  0  0
    6.9740  -11.5734   26.4925 C   0  0  0  0  0  0  0  0  0  0  0  0
    6.0876  -12.5895   26.2100 C   0  0  0  0  0  0  0  0  0  0  0  0
    6.5357  -13.8912   26.2647 C   0  0  0  0  0  0  0  0  0  0  0  0
   10.1644  -17.0601   26.0091 C   0  0  0  0  0  0  0  0  0  0  0  0
   10.7217  -17.2712   27.1074 O   0  0  0  0  0  0  0  0  0  0  0  0
   10.2785  -18.0649   25.0459 O   0  0  0  0  0  0  0  0  0  0  0  0
  2  8  1  0
  2  1  1  6
  3  2  1  0
  4  3  1  0
  5  6  1  0
  5  4  1  0
  7  6  1  0
  8  9  2  0
 10 11  1  0
 10  8  1  0
 12 13  1  0
 11 12  1  1
 14 15  2  0
 14 11  1  0
 16 14  1  0
 17 25  1  0
 17 16  1  0
 17 18  1  1
 19 18  1  0
 20 19  2  0
 21 20  1  0
 22 23  1  0
 22 21  2  0
 23 24  2  0
 24 19  1  0
 25 27  1  0
 26 25  2  0
M  END
$$$$
