KCF.pdb
     RDKit          3D

 27 27  0  0  1  0  0  0  0  0999 V2000
    7.2715  -19.9676   21.5046 N   0  0  0  0  0  0  0  0  0  0  0  0
    6.6324  -18.7651   21.9903 C   0  0  1  0  0  0  0  0  0  0  0  0
    5.9772  -19.0430   23.2911 C   0  0  0  0  0  0  0  0  0  0  0  0
    6.4595  -20.3556   23.8417 C   0  0  0  0  0  0  0  0  0  0  0  0
    6.9687  -20.2311   25.2445 C   0  0  0  0  0  0  0  0  0  0  0  0
    7.4732  -21.5836   25.7244 C   0  0  0  0  0  0  0  0  0  0  0  0
    7.9189  -21.5515   27.0878 N   0  0  0  0  0  0  0  0  0  0  0  0
    7.6170  -17.6346   22.0743 C   0  0  0  0  0  0  0  0  0  0  0  0
    8.8355  -17.9138   22.1905 O   0  0  0  0  0  0  0  0  0  0  0  0
    7.2509  -16.2722   22.0300 N   0  0  0  0  0  0  0  0  0  0  0  0
    8.1541  -15.1687   22.0984 C   0  0  1  0  0  0  0  0  0  0  0  0
    7.5599  -13.8714   21.6172 C   0  0  0  0  0  0  0  0  0  0  0  0
    7.2066  -14.0143   19.8447 S   0  0  0  0  0  0  0  0  0  0  0  0
    8.7247  -14.9683   23.4562 C   0  0  0  0  0  0  0  0  0  0  0  0
    8.8499  -13.7887   23.8754 O   0  0  0  0  0  0  0  0  0  0  0  0
    9.1313  -16.0211   24.2963 N   0  0  0  0  0  0  0  0  0  0  0  0
    9.2255  -15.8824   25.7608 C   0  0  1  0  0  0  0  0  0  0  0  0
    7.8722  -15.6822   26.3588 C   0  0  0  0  0  0  0  0  0  0  0  0
    7.4987  -14.2587   26.4036 C   0  0  0  0  0  0  0  0  0  0  0  0
    6.2485  -13.8347   26.0253 C   0  0  0  0  0  0  0  0  0  0  0  0
    5.8648  -12.5085   26.0630 C   0  0  0  0  0  0  0  0  0  0  0  0
    6.7776  -11.5873   26.4972 C   0  0  0  0  0  0  0  0  0  0  0  0
    8.0449  -11.9607   26.8877 C   0  0  0  0  0  0  0  0  0  0  0  0
    8.3864  -13.2943   26.8345 C   0  0  0  0  0  0  0  0  0  0  0  0
    9.8801  -17.0787   26.3218 C   0  0  0  0  0  0  0  0  0  0  0  0
   10.1508  -17.2559   27.5287 O   0  0  0  0  0  0  0  0  0  0  0  0
   10.2320  -18.1064   25.4439 O   0  0  0  0  0  0  0  0  0  0  0  0
  2  8  1  0
  2  1  1  1
  3  2  1  0
  4  3  1  0
  5  6  1  0
  5  4  1  0
  7  6  1  0
  8  9  2  0
 10 11  1  0
 10  8  1  0
 12 13  1  0
 11 12  1  1
 14 15  2  0
 14 11  1  0
 16 14  1  0
 17 25  1  0
 17 16  1  0
 17 18  1  1
 19 18  1  0
 20 19  2  0
 21 20  1  0
 22 23  1  0
 22 21  2  0
 23 24  2  0
 24 19  1  0
 25 27  1  0
 26 25  2  0
M  END
$$$$
