KCF.pdb
     RDKit          3D

 27 27  0  0  1  0  0  0  0  0999 V2000
    8.1586  -16.2588   18.3050 N   0  0  0  0  0  0  0  0  0  0  0  0
    8.4548  -15.0693   19.0717 C   0  0  1  0  0  0  0  0  0  0  0  0
    7.8635  -13.8870   18.4001 C   0  0  0  0  0  0  0  0  0  0  0  0
    7.5044  -14.2258   16.9806 C   0  0  0  0  0  0  0  0  0  0  0  0
    8.6728  -14.0979   16.0526 C   0  0  0  0  0  0  0  0  0  0  0  0
    8.2316  -14.4174   14.6322 C   0  0  0  0  0  0  0  0  0  0  0  0
    7.7453  -13.2615   13.9350 N   0  0  0  0  0  0  0  0  0  0  0  0
    7.9844  -15.2181   20.4898 C   0  0  0  0  0  0  0  0  0  0  0  0
    8.0495  -14.2185   21.2466 O   0  0  0  0  0  0  0  0  0  0  0  0
    7.4716  -16.4202   21.0227 N   0  0  0  0  0  0  0  0  0  0  0  0
    7.0765  -16.6232   22.3796 C   0  0  1  0  0  0  0  0  0  0  0  0
    6.3904  -17.9423   22.6178 C   0  0  0  0  0  0  0  0  0  0  0  0
    7.5032  -19.2788   22.1053 S   0  0  0  0  0  0  0  0  0  0  0  0
    8.2019  -16.4800   23.3399 C   0  0  0  0  0  0  0  0  0  0  0  0
    9.3277  -16.9278   23.0008 O   0  0  0  0  0  0  0  0  0  0  0  0
    8.0789  -15.8733   24.6035 N   0  0  0  0  0  0  0  0  0  0  0  0
    9.2134  -15.7298   25.5335 C   0  0  1  0  0  0  0  0  0  0  0  0
    9.5549  -14.2896   25.7290 C   0  0  0  0  0  0  0  0  0  0  0  0
    8.3603  -13.4779   26.0155 C   0  0  0  0  0  0  0  0  0  0  0  0
    7.5186  -13.0644   25.0122 C   0  0  0  0  0  0  0  0  0  0  0  0
    6.3866  -12.3092   25.2486 C   0  0  0  0  0  0  0  0  0  0  0  0
    6.1023  -11.9644   26.5411 C   0  0  0  0  0  0  0  0  0  0  0  0
    6.9144  -12.3537   27.5837 C   0  0  0  0  0  0  0  0  0  0  0  0
    8.0338  -13.1064   27.3036 C   0  0  0  0  0  0  0  0  0  0  0  0
    8.8748  -16.3721   26.8169 C   0  0  0  0  0  0  0  0  0  0  0  0
    7.7551  -16.8368   27.1196 O   0  0  0  0  0  0  0  0  0  0  0  0
    9.8779  -16.4769   27.7829 O   0  0  0  0  0  0  0  0  0  0  0  0
  2  8  1  0
  2  1  1  6
  3  2  1  0
  4  3  1  0
  5  6  1  0
  5  4  1  0
  7  6  1  0
  8  9  2  0
 10 11  1  0
 10  8  1  0
 12 13  1  0
 11 12  1  6
 14 15  2  0
 14 11  1  0
 16 14  1  0
 17 25  1  0
 17 16  1  0
 17 18  1  1
 19 18  1  0
 20 19  2  0
 21 20  1  0
 22 23  1  0
 22 21  2  0
 23 24  2  0
 24 19  1  0
 25 27  1  0
 26 25  2  0
M  END
$$$$
