FED.pdb
     RDKit          3D

 29 29  0  0  1  0  0  0  0  0999 V2000
    5.8152  -16.1513   25.0109 N   0  0  0  0  0  0  0  0  0  0  0  0
    6.7060  -15.8362   23.9401 C   0  0  1  0  0  0  0  0  0  0  0  0
    7.0654  -14.3438   23.9251 C   0  0  0  0  0  0  0  0  0  0  0  0
    7.0741  -13.7437   25.2605 C   0  0  0  0  0  0  0  0  0  0  0  0
    5.8774  -13.4507   25.8776 C   0  0  0  0  0  0  0  0  0  0  0  0
    5.8693  -12.8770   27.1491 C   0  0  0  0  0  0  0  0  0  0  0  0
    7.0700  -12.6078   27.7785 C   0  0  0  0  0  0  0  0  0  0  0  0
    8.2709  -12.8949   27.1748 C   0  0  0  0  0  0  0  0  0  0  0  0
    8.2603  -13.4651   25.9104 C   0  0  0  0  0  0  0  0  0  0  0  0
    8.0022  -16.5434   24.1042 C   0  0  0  0  0  0  0  0  0  0  0  0
    8.1115  -17.3396   25.0530 O   0  0  0  0  0  0  0  0  0  0  0  0
    9.0999  -16.3543   23.2435 N   0  0  0  0  0  0  0  0  0  0  0  0
   10.3438  -17.0235   23.2665 C   0  0  1  0  0  0  0  0  0  0  0  0
   11.2563  -16.8905   22.0861 C   0  0  0  0  0  0  0  0  0  0  0  0
   10.6996  -17.3350   20.7700 C   0  0  0  0  0  0  0  0  0  0  0  0
   11.6793  -16.9657   19.6863 C   0  0  0  0  0  0  0  0  0  0  0  0
   11.3775  -16.9988   18.4755 O   0  0  0  0  0  0  0  0  0  0  0  0
   11.0248  -17.1127   24.5712 C   0  0  0  0  0  0  0  0  0  0  0  0
   11.4294  -16.1038   25.2125 O   0  0  0  0  0  0  0  0  0  0  0  0
   12.9457  -16.5831   20.1042 O   0  0  0  0  0  0  0  0  0  0  0  0
   11.2620  -18.3740   25.1809 N   0  0  0  0  0  0  0  0  0  0  0  0
   11.8793  -18.4764   26.5348 C   0  0  1  0  0  0  0  0  0  0  0  0
   10.9724  -19.3589   27.3291 C   0  0  0  0  0  0  0  0  0  0  0  0
   11.1127  -19.1486   28.7676 C   0  0  0  0  0  0  0  0  0  0  0  0
   11.9920  -18.4086   29.2358 O   0  0  0  0  0  0  0  0  0  0  0  0
   13.2525  -19.0040   26.3567 C   0  0  0  0  0  0  0  0  0  0  0  0
   14.0319  -19.1176   27.3208 O   0  0  0  0  0  0  0  0  0  0  0  0
   10.2686  -19.7652   29.7023 O   0  0  0  0  0  0  0  0  0  0  0  0
   13.6409  -19.3697   25.0629 O   0  0  0  0  0  0  0  0  0  0  0  0
  2  1  1  1
  2 10  1  0
  2  3  1  0
  3  4  1  0
  4  9  2  0
  4  5  1  0
  5  6  2  0
  6  7  1  0
  8  7  2  0
  9  8  1  0
 10 11  2  0
 10 12  1  0
 12 13  1  0
 13 14  1  6
 14 15  1  0
 16 20  1  0
 16 15  1  0
 17 16  2  0
 18 21  1  0
 18 13  1  0
 19 18  2  0
 22 26  1  0
 22 21  1  0
 22 23  1  1
 23 24  1  0
 24 25  2  0
 26 29  1  0
 27 26  2  0
 28 24  1  0
M  END
$$$$
