FED.pdb
     RDKit          3D

 29 29  0  0  1  0  0  0  0  0999 V2000
    5.8272  -16.9320   25.2421 N   0  0  0  0  0  0  0  0  0  0  0  0
    6.8835  -16.1504   24.6828 C   0  0  1  0  0  0  0  0  0  0  0  0
    7.6664  -15.3994   25.7690 C   0  0  0  0  0  0  0  0  0  0  0  0
    7.2253  -14.0136   25.9376 C   0  0  0  0  0  0  0  0  0  0  0  0
    8.0561  -12.9872   25.5437 C   0  0  0  0  0  0  0  0  0  0  0  0
    7.6508  -11.6615   25.6997 C   0  0  0  0  0  0  0  0  0  0  0  0
    6.4125  -11.3922   26.2512 C   0  0  0  0  0  0  0  0  0  0  0  0
    5.5737  -12.4060   26.6484 C   0  0  0  0  0  0  0  0  0  0  0  0
    5.9928  -13.7183   26.4860 C   0  0  0  0  0  0  0  0  0  0  0  0
    7.8872  -17.0180   24.0142 C   0  0  0  0  0  0  0  0  0  0  0  0
    7.9670  -18.2024   24.3840 O   0  0  0  0  0  0  0  0  0  0  0  0
    8.7425  -16.5642   22.9925 N   0  0  0  0  0  0  0  0  0  0  0  0
    9.7459  -17.2926   22.3157 C   0  0  1  0  0  0  0  0  0  0  0  0
    9.8605  -17.1521   20.8289 C   0  0  0  0  0  0  0  0  0  0  0  0
   10.8973  -18.0032   20.1650 C   0  0  0  0  0  0  0  0  0  0  0  0
   10.8400  -17.7562   18.6796 C   0  0  0  0  0  0  0  0  0  0  0  0
    9.7758  -17.8326   18.0318 O   0  0  0  0  0  0  0  0  0  0  0  0
   11.0270  -17.4713   23.0234 C   0  0  0  0  0  0  0  0  0  0  0  0
   12.1352  -17.5919   22.4314 O   0  0  0  0  0  0  0  0  0  0  0  0
   12.0400  -17.4364   18.0610 O   0  0  0  0  0  0  0  0  0  0  0  0
   11.0716  -17.5169   24.4428 N   0  0  0  0  0  0  0  0  0  0  0  0
   12.3601  -17.6954   25.1724 C   0  0  1  0  0  0  0  0  0  0  0  0
   13.1082  -16.4143   24.9953 C   0  0  0  0  0  0  0  0  0  0  0  0
   14.1551  -16.5180   23.9823 C   0  0  0  0  0  0  0  0  0  0  0  0
   14.2129  -17.4798   23.2002 O   0  0  0  0  0  0  0  0  0  0  0  0
   12.0305  -18.0277   26.5784 C   0  0  0  0  0  0  0  0  0  0  0  0
   12.1416  -19.1895   27.0116 O   0  0  0  0  0  0  0  0  0  0  0  0
   15.1528  -15.5442   23.8313 O   0  0  0  0  0  0  0  0  0  0  0  0
   11.5892  -16.9856   27.4017 O   0  0  0  0  0  0  0  0  0  0  0  0
  2  1  1  1
  2 10  1  0
  2  3  1  0
  3  4  1  0
  4  9  2  0
  4  5  1  0
  5  6  2  0
  6  7  1  0
  8  7  2  0
  9  8  1  0
 10 11  2  0
 10 12  1  0
 12 13  1  0
 13 14  1  6
 14 15  1  0
 16 20  1  0
 16 15  1  0
 17 16  2  0
 18 21  1  0
 18 13  1  0
 19 18  2  0
 22 26  1  0
 22 21  1  0
 22 23  1  1
 23 24  1  0
 24 25  2  0
 26 29  1  0
 27 26  2  0
 28 24  1  0
M  END
$$$$
