FED.pdb
     RDKit          3D

 29 29  0  0  1  0  0  0  0  0999 V2000
    6.2453  -16.4117   25.4718 N   0  0  0  0  0  0  0  0  0  0  0  0
    7.2574  -15.7218   24.7377 C   0  0  1  0  0  0  0  0  0  0  0  0
    8.0200  -14.7277   25.6249 C   0  0  0  0  0  0  0  0  0  0  0  0
    7.2427  -13.5273   25.9383 C   0  0  0  0  0  0  0  0  0  0  0  0
    7.3440  -12.4236   25.1195 C   0  0  0  0  0  0  0  0  0  0  0  0
    6.6112  -11.2717   25.4061 C   0  0  0  0  0  0  0  0  0  0  0  0
    5.7871  -11.2516   26.5153 C   0  0  0  0  0  0  0  0  0  0  0  0
    5.6764  -12.3451   27.3406 C   0  0  0  0  0  0  0  0  0  0  0  0
    6.4123  -13.4821   27.0407 C   0  0  0  0  0  0  0  0  0  0  0  0
    8.2903  -16.6679   24.2427 C   0  0  0  0  0  0  0  0  0  0  0  0
    8.6505  -17.5825   25.0041 O   0  0  0  0  0  0  0  0  0  0  0  0
    8.8732  -16.5761   22.9646 N   0  0  0  0  0  0  0  0  0  0  0  0
   10.0284  -17.2363   22.4901 C   0  0  1  0  0  0  0  0  0  0  0  0
   10.2605  -17.3113   21.0123 C   0  0  0  0  0  0  0  0  0  0  0  0
    9.6422  -16.2226   20.1924 C   0  0  0  0  0  0  0  0  0  0  0  0
    9.9462  -16.4853   18.7401 C   0  0  0  0  0  0  0  0  0  0  0  0
   11.0290  -16.1533   18.2153 O   0  0  0  0  0  0  0  0  0  0  0  0
   11.2500  -17.1033   23.3048 C   0  0  0  0  0  0  0  0  0  0  0  0
   11.7027  -15.9931   23.6994 O   0  0  0  0  0  0  0  0  0  0  0  0
    8.9540  -17.1205   18.0075 O   0  0  0  0  0  0  0  0  0  0  0  0
   11.9921  -18.2512   23.6926 N   0  0  0  0  0  0  0  0  0  0  0  0
   13.2218  -18.1333   24.5282 C   0  0  1  0  0  0  0  0  0  0  0  0
   13.3211  -19.4157   25.2883 C   0  0  0  0  0  0  0  0  0  0  0  0
   14.5409  -19.4945   26.0876 C   0  0  0  0  0  0  0  0  0  0  0  0
   15.2871  -18.5143   26.2372 O   0  0  0  0  0  0  0  0  0  0  0  0
   14.3563  -17.8701   23.6120 C   0  0  0  0  0  0  0  0  0  0  0  0
   14.2917  -18.1592   22.4028 O   0  0  0  0  0  0  0  0  0  0  0  0
   14.9418  -20.6741   26.7313 O   0  0  0  0  0  0  0  0  0  0  0  0
   15.5041  -17.2841   24.1574 O   0  0  0  0  0  0  0  0  0  0  0  0
  2  1  1  1
  2 10  1  0
  2  3  1  0
  3  4  1  0
  4  9  2  0
  4  5  1  0
  5  6  2  0
  6  7  1  0
  8  7  2  0
  9  8  1  0
 10 11  2  0
 10 12  1  0
 12 13  1  0
 13 14  1  6
 14 15  1  0
 16 20  1  0
 16 15  1  0
 17 16  2  0
 18 21  1  0
 18 13  1  0
 19 18  2  0
 22 26  1  0
 22 21  1  0
 22 23  1  6
 23 24  1  0
 24 25  2  0
 26 29  1  0
 27 26  2  0
 28 24  1  0
M  END
$$$$
