FED.pdb
     RDKit          3D

 29 29  0  0  1  0  0  0  0  0999 V2000
    6.5329  -16.3736   25.5663 N   0  0  0  0  0  0  0  0  0  0  0  0
    7.4968  -15.6025   24.8482 C   0  0  1  0  0  0  0  0  0  0  0  0
    8.2843  -14.6720   25.7813 C   0  0  0  0  0  0  0  0  0  0  0  0
    7.5252  -13.4854   26.1804 C   0  0  0  0  0  0  0  0  0  0  0  0
    6.9838  -13.4235   27.4460 C   0  0  0  0  0  0  0  0  0  0  0  0
    6.2563  -12.3005   27.8403 C   0  0  0  0  0  0  0  0  0  0  0  0
    6.0864  -11.2567   26.9506 C   0  0  0  0  0  0  0  0  0  0  0  0
    6.6209  -11.3050   25.6852 C   0  0  0  0  0  0  0  0  0  0  0  0
    7.3413  -12.4293   25.3098 C   0  0  0  0  0  0  0  0  0  0  0  0
    8.5205  -16.4812   24.2260 C   0  0  0  0  0  0  0  0  0  0  0  0
    8.8987  -17.4755   24.8696 O   0  0  0  0  0  0  0  0  0  0  0  0
    9.0755  -16.2409   22.9549 N   0  0  0  0  0  0  0  0  0  0  0  0
   10.2117  -16.8496   22.3768 C   0  0  1  0  0  0  0  0  0  0  0  0
   10.2941  -16.9528   20.8848 C   0  0  0  0  0  0  0  0  0  0  0  0
   11.4482  -17.7355   20.3415 C   0  0  0  0  0  0  0  0  0  0  0  0
   11.3437  -17.7622   18.8385 C   0  0  0  0  0  0  0  0  0  0  0  0
   11.9490  -16.9459   18.1138 O   0  0  0  0  0  0  0  0  0  0  0  0
   11.5011  -16.6269   23.0562 C   0  0  0  0  0  0  0  0  0  0  0  0
   11.9513  -15.4801   23.3306 O   0  0  0  0  0  0  0  0  0  0  0  0
   10.5336  -18.7482   18.2942 O   0  0  0  0  0  0  0  0  0  0  0  0
   12.3165  -17.7244   23.4429 N   0  0  0  0  0  0  0  0  0  0  0  0
   13.6134  -17.5154   24.1493 C   0  0  1  0  0  0  0  0  0  0  0  0
   14.0859  -18.8771   24.5425 C   0  0  0  0  0  0  0  0  0  0  0  0
   15.3762  -18.8414   25.2258 C   0  0  0  0  0  0  0  0  0  0  0  0
   16.3451  -19.5052   24.8249 O   0  0  0  0  0  0  0  0  0  0  0  0
   14.5137  -16.7952   23.2184 C   0  0  0  0  0  0  0  0  0  0  0  0
   15.4000  -16.0288   23.6390 O   0  0  0  0  0  0  0  0  0  0  0  0
   15.5990  -18.0604   26.3691 O   0  0  0  0  0  0  0  0  0  0  0  0
   14.3300  -17.0089   21.8476 O   0  0  0  0  0  0  0  0  0  0  0  0
  2  1  1  1
  2 10  1  0
  2  3  1  0
  3  4  1  0
  4  9  2  0
  4  5  1  0
  5  6  2  0
  6  7  1  0
  8  7  2  0
  9  8  1  0
 10 11  2  0
 10 12  1  0
 12 13  1  0
 13 14  1  6
 14 15  1  0
 16 20  1  0
 16 15  1  0
 17 16  2  0
 18 21  1  0
 18 13  1  0
 19 18  2  0
 22 26  1  0
 22 21  1  0
 22 23  1  6
 23 24  1  0
 24 25  2  0
 26 29  1  0
 27 26  2  0
 28 24  1  0
M  END
$$$$
