CDG.pdb
     RDKit          3D

 19 18  0  0  1  0  0  0  0  0999 V2000
   19.6900   -9.3381  -13.6406 N   0  0  0  0  0  0  0  0  0  0  0  0
   19.9257   -7.9515  -13.9801 C   0  0  1  0  0  0  0  0  0  0  0  0
   21.3332   -7.5904  -13.5318 C   0  0  0  0  0  0  0  0  0  0  0  0
   21.4539   -7.5838  -11.7378 S   0  0  0  0  0  0  0  0  0  0  0  0
   19.8946   -7.8632  -15.4647 C   0  0  0  0  0  0  0  0  0  0  0  0
   20.6408   -8.6366  -16.1154 O   0  0  0  0  0  0  0  0  0  0  0  0
   19.0837   -6.9702  -16.1791 N   0  0  0  0  0  0  0  0  0  0  0  0
   19.0746   -7.0005  -17.6808 C   0  0  1  0  0  0  0  0  0  0  0  0
   17.6424   -7.1434  -18.0801 C   0  0  0  0  0  0  0  0  0  0  0  0
   16.9862   -8.4131  -17.9832 C   0  0  0  0  0  0  0  0  0  0  0  0
   15.7708   -8.6778  -18.0014 O   0  0  0  0  0  0  0  0  0  0  0  0
   19.7177   -5.7267  -18.0685 C   0  0  0  0  0  0  0  0  0  0  0  0
   19.8805   -5.4533  -19.3153 O   0  0  0  0  0  0  0  0  0  0  0  0
   17.8008   -9.5767  -17.8438 O   0  0  0  0  0  0  0  0  0  0  0  0
   20.1918   -4.7268  -17.1983 N   0  0  0  0  0  0  0  0  0  0  0  0
   20.7794   -3.4788  -17.7310 C   0  0  0  0  0  0  0  0  0  0  0  0
   21.2300   -2.6159  -16.5962 C   0  0  0  0  0  0  0  0  0  0  0  0
   21.8051   -1.5209  -16.8045 O   0  0  0  0  0  0  0  0  0  0  0  0
   21.0238   -3.0042  -15.2801 O   0  0  0  0  0  0  0  0  0  0  0  0
  2  1  1  6
  3  2  1  0
  4  3  1  0
  5  2  1  0
  5  6  2  0
  7  5  1  0
  8  7  1  0
  8  9  1  6
 10  9  1  0
 10 14  1  0
 11 10  2  0
 12  8  1  0
 13 12  2  0
 15 12  1  0
 16 15  1  0
 17 16  1  0
 17 19  1  0
 18 17  2  0
M  END
$$$$
