CDG.pdb
     RDKit          3D

 19 18  0  0  1  0  0  0  0  0999 V2000
   17.7489  -12.2472  -15.5376 N   0  0  0  0  0  0  0  0  0  0  0  0
   17.9320  -10.8396  -15.8185 C   0  0  1  0  0  0  0  0  0  0  0  0
   16.8925  -10.0630  -15.0256 C   0  0  0  0  0  0  0  0  0  0  0  0
   15.2329  -10.4240  -15.6159 S   0  0  0  0  0  0  0  0  0  0  0  0
   19.2694  -10.4672  -15.2843 C   0  0  0  0  0  0  0  0  0  0  0  0
   19.6026  -10.9244  -14.1626 O   0  0  0  0  0  0  0  0  0  0  0  0
   20.1780   -9.6381  -15.9571 N   0  0  0  0  0  0  0  0  0  0  0  0
   21.5572   -9.4279  -15.4006 C   0  0  1  0  0  0  0  0  0  0  0  0
   22.5002   -9.6980  -16.5270 C   0  0  0  0  0  0  0  0  0  0  0  0
   22.7772  -11.0435  -16.9334 C   0  0  0  0  0  0  0  0  0  0  0  0
   22.9988  -12.0496  -16.2362 O   0  0  0  0  0  0  0  0  0  0  0  0
   21.5367   -8.0329  -14.9105 C   0  0  0  0  0  0  0  0  0  0  0  0
   22.6087   -7.5187  -14.4186 O   0  0  0  0  0  0  0  0  0  0  0  0
   22.8161  -11.3238  -18.3322 O   0  0  0  0  0  0  0  0  0  0  0  0
   20.4359   -7.1554  -14.9217 N   0  0  0  0  0  0  0  0  0  0  0  0
   20.5148   -5.8368  -14.2572 C   0  0  0  0  0  0  0  0  0  0  0  0
   21.0759   -4.8309  -15.2105 C   0  0  0  0  0  0  0  0  0  0  0  0
   21.5209   -5.1786  -16.3304 O   0  0  0  0  0  0  0  0  0  0  0  0
   21.1197   -3.4837  -14.8811 O   0  0  0  0  0  0  0  0  0  0  0  0
  2  1  1  1
  3  2  1  0
  4  3  1  0
  5  2  1  0
  5  6  2  0
  7  5  1  0
  8  7  1  0
  8  9  1  6
 10  9  1  0
 10 14  1  0
 11 10  2  0
 12  8  1  0
 13 12  2  0
 15 12  1  0
 16 15  1  0
 17 16  1  0
 17 19  1  0
 18 17  2  0
M  END
$$$$
