CDG.pdb
     RDKit          3D

 19 18  0  0  1  0  0  0  0  0999 V2000
   17.8470  -13.5095  -15.7640 N   0  0  0  0  0  0  0  0  0  0  0  0
   17.1901  -12.2663  -16.1055 C   0  0  1  0  0  0  0  0  0  0  0  0
   15.7598  -12.3343  -15.5935 C   0  0  0  0  0  0  0  0  0  0  0  0
   14.7216  -13.2845  -16.7124 S   0  0  0  0  0  0  0  0  0  0  0  0
   17.8848  -11.1926  -15.3456 C   0  0  0  0  0  0  0  0  0  0  0  0
   18.2005  -11.4268  -14.1525 O   0  0  0  0  0  0  0  0  0  0  0  0
   18.2072   -9.9377  -15.8811 N   0  0  0  0  0  0  0  0  0  0  0  0
   18.9112   -8.9175  -15.0328 C   0  0  1  0  0  0  0  0  0  0  0  0
   20.3685   -9.0825  -15.3163 C   0  0  0  0  0  0  0  0  0  0  0  0
   21.3192   -8.1486  -14.7911 C   0  0  0  0  0  0  0  0  0  0  0  0
   21.5148   -7.7981  -13.6136 O   0  0  0  0  0  0  0  0  0  0  0  0
   18.3233   -7.6296  -15.4599 C   0  0  0  0  0  0  0  0  0  0  0  0
   18.1892   -7.3800  -16.7150 O   0  0  0  0  0  0  0  0  0  0  0  0
   22.1938   -7.4970  -15.7117 O   0  0  0  0  0  0  0  0  0  0  0  0
   17.8661   -6.5962  -14.6204 N   0  0  0  0  0  0  0  0  0  0  0  0
   17.3886   -5.3173  -15.1888 C   0  0  0  0  0  0  0  0  0  0  0  0
   18.5610   -4.4887  -15.6064 C   0  0  0  0  0  0  0  0  0  0  0  0
   19.7325   -4.9230  -15.4961 O   0  0  0  0  0  0  0  0  0  0  0  0
   18.3841   -3.2150  -16.1277 O   0  0  0  0  0  0  0  0  0  0  0  0
  2  1  1  1
  3  2  1  0
  4  3  1  0
  5  2  1  0
  5  6  2  0
  7  5  1  0
  8  7  1  0
  8  9  1  6
 10  9  1  0
 10 14  1  0
 11 10  2  0
 12  8  1  0
 13 12  2  0
 15 12  1  0
 16 15  1  0
 17 16  1  0
 17 19  1  0
 18 17  2  0
M  END
$$$$
