CDG.pdb
     RDKit          3D

 19 18  0  0  1  0  0  0  0  0999 V2000
   19.8051  -13.2008  -16.8955 N   0  0  0  0  0  0  0  0  0  0  0  0
   18.9169  -12.1252  -16.5112 C   0  0  1  0  0  0  0  0  0  0  0  0
   18.6598  -12.2390  -15.0168 C   0  0  0  0  0  0  0  0  0  0  0  0
   17.3065  -13.3747  -14.6826 S   0  0  0  0  0  0  0  0  0  0  0  0
   19.6581  -10.8559  -16.7403 C   0  0  0  0  0  0  0  0  0  0  0  0
   20.9071  -10.8722  -16.6071 O   0  0  0  0  0  0  0  0  0  0  0  0
   19.0464   -9.6453  -17.0954 N   0  0  0  0  0  0  0  0  0  0  0  0
   19.8858   -8.4259  -17.3496 C   0  0  1  0  0  0  0  0  0  0  0  0
   19.1438   -7.6211  -18.3658 C   0  0  0  0  0  0  0  0  0  0  0  0
   19.0385   -8.0812  -19.7184 C   0  0  0  0  0  0  0  0  0  0  0  0
   19.9199   -8.5367  -20.4688 O   0  0  0  0  0  0  0  0  0  0  0  0
   20.0189   -7.7988  -16.0171 C   0  0  0  0  0  0  0  0  0  0  0  0
   19.1167   -8.0109  -15.1245 O   0  0  0  0  0  0  0  0  0  0  0  0
   17.7563   -8.0304  -20.3430 O   0  0  0  0  0  0  0  0  0  0  0  0
   21.0649   -6.9622  -15.5839 N   0  0  0  0  0  0  0  0  0  0  0  0
   21.1035   -6.4600  -14.1936 C   0  0  0  0  0  0  0  0  0  0  0  0
   22.3456   -5.6533  -13.9892 C   0  0  0  0  0  0  0  0  0  0  0  0
   23.2171   -5.5681  -14.8873 O   0  0  0  0  0  0  0  0  0  0  0  0
   22.5680   -4.9763  -12.7985 O   0  0  0  0  0  0  0  0  0  0  0  0
  2  1  1  1
  3  2  1  0
  4  3  1  0
  5  2  1  0
  5  6  2  0
  7  5  1  0
  8  7  1  0
  8  9  1  6
 10  9  1  0
 10 14  1  0
 11 10  2  0
 12  8  1  0
 13 12  2  0
 15 12  1  0
 16 15  1  0
 17 16  1  0
 17 19  1  0
 18 17  2  0
M  END
$$$$
