CDG.pdb
     RDKit          3D

 19 18  0  0  1  0  0  0  0  0999 V2000
   22.6887  -11.7364  -18.0598 N   0  0  0  0  0  0  0  0  0  0  0  0
   22.5535  -11.2917  -16.6895 C   0  0  1  0  0  0  0  0  0  0  0  0
   23.8965  -10.7373  -16.2406 C   0  0  0  0  0  0  0  0  0  0  0  0
   24.9987  -12.0617  -15.7269 S   0  0  0  0  0  0  0  0  0  0  0  0
   21.5861  -10.1617  -16.7000 C   0  0  0  0  0  0  0  0  0  0  0  0
   21.5626   -9.4172  -17.7115 O   0  0  0  0  0  0  0  0  0  0  0  0
   20.7009   -9.8792  -15.6501 N   0  0  0  0  0  0  0  0  0  0  0  0
   19.6836   -8.7844  -15.7994 C   0  0  1  0  0  0  0  0  0  0  0  0
   18.3685   -9.3935  -15.4379 C   0  0  0  0  0  0  0  0  0  0  0  0
   17.7511  -10.3521  -16.3051 C   0  0  0  0  0  0  0  0  0  0  0  0
   17.2092  -11.4365  -16.0257 O   0  0  0  0  0  0  0  0  0  0  0  0
   20.1635   -7.7231  -14.8882 C   0  0  0  0  0  0  0  0  0  0  0  0
   19.4201   -6.6971  -14.6642 O   0  0  0  0  0  0  0  0  0  0  0  0
   17.7280  -10.0696  -17.7039 O   0  0  0  0  0  0  0  0  0  0  0  0
   21.3910   -7.6999  -14.1995 N   0  0  0  0  0  0  0  0  0  0  0  0
   21.7215   -6.5876  -13.2829 C   0  0  0  0  0  0  0  0  0  0  0  0
   22.2335   -5.4260  -14.0728 C   0  0  0  0  0  0  0  0  0  0  0  0
   22.1817   -5.4224  -15.3260 O   0  0  0  0  0  0  0  0  0  0  0  0
   22.7809   -4.3193  -13.4395 O   0  0  0  0  0  0  0  0  0  0  0  0
  2  1  1  6
  3  2  1  0
  4  3  1  0
  5  2  1  0
  5  6  2  0
  7  5  1  0
  8  7  1  0
  8  9  1  1
 10  9  1  0
 10 14  1  0
 11 10  2  0
 12  8  1  0
 13 12  2  0
 15 12  1  0
 16 15  1  0
 17 16  1  0
 17 19  1  0
 18 17  2  0
M  END
$$$$
