CDG.pdb
     RDKit          3D

 19 18  0  0  1  0  0  0  0  0999 V2000
   24.6809  -11.8887  -18.1517 N   0  0  0  0  0  0  0  0  0  0  0  0
   24.7858  -11.0529  -16.9752 C   0  0  1  0  0  0  0  0  0  0  0  0
   26.2555  -10.7276  -16.7593 C   0  0  0  0  0  0  0  0  0  0  0  0
   27.0469  -11.9782  -15.7383 S   0  0  0  0  0  0  0  0  0  0  0  0
   24.0892   -9.7776  -17.2929 C   0  0  0  0  0  0  0  0  0  0  0  0
   24.3264   -9.2387  -18.4027 O   0  0  0  0  0  0  0  0  0  0  0  0
   23.1855   -9.1429  -16.4292 N   0  0  0  0  0  0  0  0  0  0  0  0
   22.4341   -7.9267  -16.8899 C   0  0  1  0  0  0  0  0  0  0  0  0
   21.0225   -8.3696  -17.0959 C   0  0  0  0  0  0  0  0  0  0  0  0
   19.9988   -7.4125  -17.3928 C   0  0  0  0  0  0  0  0  0  0  0  0
   19.9028   -6.6316  -18.3564 O   0  0  0  0  0  0  0  0  0  0  0  0
   22.6394   -6.9458  -15.8024 C   0  0  0  0  0  0  0  0  0  0  0  0
   22.4806   -7.3137  -14.5797 O   0  0  0  0  0  0  0  0  0  0  0  0
   18.9066   -7.2986  -16.4812 O   0  0  0  0  0  0  0  0  0  0  0  0
   23.0099   -5.5957  -15.9488 N   0  0  0  0  0  0  0  0  0  0  0  0
   23.1381   -4.7156  -14.7675 C   0  0  0  0  0  0  0  0  0  0  0  0
   21.7826   -4.2452  -14.3468 C   0  0  0  0  0  0  0  0  0  0  0  0
   20.7513   -4.6132  -14.9584 O   0  0  0  0  0  0  0  0  0  0  0  0
   21.6293   -3.3874  -13.2670 O   0  0  0  0  0  0  0  0  0  0  0  0
  2  1  1  6
  3  2  1  0
  4  3  1  0
  5  2  1  0
  5  6  2  0
  7  5  1  0
  8  7  1  0
  8  9  1  1
 10  9  1  0
 10 14  1  0
 11 10  2  0
 12  8  1  0
 13 12  2  0
 15 12  1  0
 16 15  1  0
 17 16  1  0
 17 19  1  0
 18 17  2  0
M  END
$$$$
