CDG.pdb
     RDKit          3D

 19 18  0  0  1  0  0  0  0  0999 V2000
   25.2680  -10.9396  -17.6971 N   0  0  0  0  0  0  0  0  0  0  0  0
   24.9387  -10.3974  -16.3966 C   0  0  1  0  0  0  0  0  0  0  0  0
   26.0219   -9.4007  -16.0148 C   0  0  0  0  0  0  0  0  0  0  0  0
   27.5458  -10.2464  -15.5728 S   0  0  0  0  0  0  0  0  0  0  0  0
   23.6705   -9.6368  -16.5588 C   0  0  0  0  0  0  0  0  0  0  0  0
   23.4037   -9.1745  -17.6960 O   0  0  0  0  0  0  0  0  0  0  0  0
   22.7577   -9.4061  -15.5201 N   0  0  0  0  0  0  0  0  0  0  0  0
   21.4940   -8.6395  -15.7871 C   0  0  1  0  0  0  0  0  0  0  0  0
   20.3788   -9.4999  -15.2902 C   0  0  0  0  0  0  0  0  0  0  0  0
   20.0173  -10.6950  -15.9925 C   0  0  0  0  0  0  0  0  0  0  0  0
   19.5941  -10.8312  -17.1544 O   0  0  0  0  0  0  0  0  0  0  0  0
   21.6867   -7.3668  -15.0591 C   0  0  0  0  0  0  0  0  0  0  0  0
   22.3684   -7.3587  -13.9678 O   0  0  0  0  0  0  0  0  0  0  0  0
   20.1425  -11.9384  -15.3031 O   0  0  0  0  0  0  0  0  0  0  0  0
   21.1961   -6.1021  -15.4352 N   0  0  0  0  0  0  0  0  0  0  0  0
   21.3903   -4.9262  -14.5599 C   0  0  0  0  0  0  0  0  0  0  0  0
   22.6393   -4.2080  -14.9598 C   0  0  0  0  0  0  0  0  0  0  0  0
   22.9879   -3.1480  -14.3871 O   0  0  0  0  0  0  0  0  0  0  0  0
   23.4472   -4.6957  -15.9771 O   0  0  0  0  0  0  0  0  0  0  0  0
  2  1  1  6
  3  2  1  0
  4  3  1  0
  5  2  1  0
  5  6  2  0
  7  5  1  0
  8  7  1  0
  8  9  1  1
 10  9  1  0
 10 14  1  0
 11 10  2  0
 12  8  1  0
 13 12  2  0
 15 12  1  0
 16 15  1  0
 17 16  1  0
 17 19  1  0
 18 17  2  0
M  END
$$$$
