CDG.pdb
     RDKit          3D

 19 18  0  0  1  0  0  0  0  0999 V2000
   22.6134  -12.4513  -16.8270 N   0  0  0  0  0  0  0  0  0  0  0  0
   22.9898  -11.5781  -15.7364 C   0  0  1  0  0  0  0  0  0  0  0  0
   24.4433  -11.1777  -15.9350 C   0  0  0  0  0  0  0  0  0  0  0  0
   25.5507  -12.4351  -15.2826 S   0  0  0  0  0  0  0  0  0  0  0  0
   22.1662  -10.3466  -15.8705 C   0  0  0  0  0  0  0  0  0  0  0  0
   21.8898   -9.9475  -17.0291 O   0  0  0  0  0  0  0  0  0  0  0  0
   21.6812   -9.6069  -14.7828 N   0  0  0  0  0  0  0  0  0  0  0  0
   20.7356   -8.4631  -15.0142 C   0  0  1  0  0  0  0  0  0  0  0  0
   19.3924   -8.9449  -14.5730 C   0  0  0  0  0  0  0  0  0  0  0  0
   18.2396   -8.1061  -14.7133 C   0  0  0  0  0  0  0  0  0  0  0  0
   18.1495   -6.8677  -14.6367 O   0  0  0  0  0  0  0  0  0  0  0  0
   21.3078   -7.3583  -14.2150 C   0  0  0  0  0  0  0  0  0  0  0  0
   21.8371   -7.6131  -13.0702 O   0  0  0  0  0  0  0  0  0  0  0  0
   16.9859   -8.7336  -14.9807 O   0  0  0  0  0  0  0  0  0  0  0  0
   21.3504   -5.9976  -14.5734 N   0  0  0  0  0  0  0  0  0  0  0  0
   21.8765   -4.9852  -13.6327 C   0  0  0  0  0  0  0  0  0  0  0  0
   21.8748   -3.6434  -14.2923 C   0  0  0  0  0  0  0  0  0  0  0  0
   21.5343   -3.5126  -15.4924 O   0  0  0  0  0  0  0  0  0  0  0  0
   22.2506   -2.5051  -13.5932 O   0  0  0  0  0  0  0  0  0  0  0  0
  2  1  1  6
  3  2  1  0
  4  3  1  0
  5  2  1  0
  5  6  2  0
  7  5  1  0
  8  7  1  0
  8  9  1  1
 10  9  1  0
 10 14  1  0
 11 10  2  0
 12  8  1  0
 13 12  2  0
 15 12  1  0
 16 15  1  0
 17 16  1  0
 17 19  1  0
 18 17  2  0
M  END
$$$$
