CDG.pdb
     RDKit          3D

 19 18  0  0  1  0  0  0  0  0999 V2000
   20.8067  -11.5350  -15.9268 N   0  0  0  0  0  0  0  0  0  0  0  0
   20.4176  -10.3837  -16.7122 C   0  0  1  0  0  0  0  0  0  0  0  0
   19.0383  -10.6548  -17.2924 C   0  0  0  0  0  0  0  0  0  0  0  0
   19.1153  -11.9204  -18.5673 S   0  0  0  0  0  0  0  0  0  0  0  0
   20.2863   -9.2442  -15.7650 C   0  0  0  0  0  0  0  0  0  0  0  0
   19.6195   -9.4257  -14.7159 O   0  0  0  0  0  0  0  0  0  0  0  0
   20.8616   -7.9828  -15.9733 N   0  0  0  0  0  0  0  0  0  0  0  0
   20.7323   -6.9158  -14.9241 C   0  0  1  0  0  0  0  0  0  0  0  0
   22.1276   -6.5267  -14.5597 C   0  0  0  0  0  0  0  0  0  0  0  0
   22.3651   -5.4280  -13.6717 C   0  0  0  0  0  0  0  0  0  0  0  0
   22.8378   -4.3033  -13.9151 O   0  0  0  0  0  0  0  0  0  0  0  0
   19.9307   -5.8618  -15.5822 C   0  0  0  0  0  0  0  0  0  0  0  0
   20.2265   -5.4965  -16.7800 O   0  0  0  0  0  0  0  0  0  0  0  0
   22.0275   -5.5969  -12.2954 O   0  0  0  0  0  0  0  0  0  0  0  0
   18.8277   -5.1805  -15.0337 N   0  0  0  0  0  0  0  0  0  0  0  0
   18.1904   -4.0640  -15.7644 C   0  0  0  0  0  0  0  0  0  0  0  0
   17.0529   -3.5251  -14.9575 C   0  0  0  0  0  0  0  0  0  0  0  0
   16.6480   -4.1211  -13.9308 O   0  0  0  0  0  0  0  0  0  0  0  0
   16.4134   -2.3492  -15.3237 O   0  0  0  0  0  0  0  0  0  0  0  0
  2  1  1  1
  3  2  1  0
  4  3  1  0
  5  2  1  0
  5  6  2  0
  7  5  1  0
  8  7  1  0
  8  9  1  6
 10  9  1  0
 10 14  1  0
 11 10  2  0
 12  8  1  0
 13 12  2  0
 15 12  1  0
 16 15  1  0
 17 16  1  0
 17 19  1  0
 18 17  2  0
M  END
$$$$
