CDG.pdb
     RDKit          3D

 19 18  0  0  1  0  0  0  0  0999 V2000
   24.8493  -11.0237  -17.2272 N   0  0  0  0  0  0  0  0  0  0  0  0
   24.6926  -10.4670  -15.9009 C   0  0  1  0  0  0  0  0  0  0  0  0
   26.0063   -9.8089  -15.5091 C   0  0  0  0  0  0  0  0  0  0  0  0
   27.2552  -11.0449  -15.1277 S   0  0  0  0  0  0  0  0  0  0  0  0
   23.6698   -9.3920  -16.0062 C   0  0  0  0  0  0  0  0  0  0  0  0
   23.6091   -8.7414  -17.0791 O   0  0  0  0  0  0  0  0  0  0  0  0
   22.7715   -9.0630  -14.9814 N   0  0  0  0  0  0  0  0  0  0  0  0
   21.6660   -8.0793  -15.2387 C   0  0  1  0  0  0  0  0  0  0  0  0
   20.3918   -8.8233  -15.0067 C   0  0  0  0  0  0  0  0  0  0  0  0
   19.9839   -9.8602  -15.9071 C   0  0  0  0  0  0  0  0  0  0  0  0
   19.9685  -11.0926  -15.7380 O   0  0  0  0  0  0  0  0  0  0  0  0
   21.9394   -6.9775  -14.2910 C   0  0  0  0  0  0  0  0  0  0  0  0
   22.4716   -7.2416  -13.1496 O   0  0  0  0  0  0  0  0  0  0  0  0
   19.5188   -9.4764  -17.2006 O   0  0  0  0  0  0  0  0  0  0  0  0
   21.6805   -5.6093  -14.4972 N   0  0  0  0  0  0  0  0  0  0  0  0
   21.9784   -4.6171  -13.4420 C   0  0  0  0  0  0  0  0  0  0  0  0
   21.5855   -3.2540  -13.9142 C   0  0  0  0  0  0  0  0  0  0  0  0
   21.1915   -3.0650  -15.0899 O   0  0  0  0  0  0  0  0  0  0  0  0
   21.6466   -2.1598  -13.0631 O   0  0  0  0  0  0  0  0  0  0  0  0
  2  1  1  6
  3  2  1  0
  4  3  1  0
  5  2  1  0
  5  6  2  0
  7  5  1  0
  8  7  1  0
  8  9  1  1
 10  9  1  0
 10 14  1  0
 11 10  2  0
 12  8  1  0
 13 12  2  0
 15 12  1  0
 16 15  1  0
 17 16  1  0
 17 19  1  0
 18 17  2  0
M  END
$$$$
