CDG.pdb
     RDKit          3D

 19 18  0  0  1  0  0  0  0  0999 V2000
   19.0494  -14.9915  -15.7863 N   0  0  0  0  0  0  0  0  0  0  0  0
   17.7710  -14.3966  -15.4614 C   0  0  1  0  0  0  0  0  0  0  0  0
   17.6304  -14.3823  -13.9473 C   0  0  0  0  0  0  0  0  0  0  0  0
   17.2098  -16.0162  -13.3258 S   0  0  0  0  0  0  0  0  0  0  0  0
   17.8294  -12.9817  -15.9168 C   0  0  0  0  0  0  0  0  0  0  0  0
   18.9560  -12.4288  -15.9749 O   0  0  0  0  0  0  0  0  0  0  0  0
   16.7042  -12.2305  -16.2844 N   0  0  0  0  0  0  0  0  0  0  0  0
   16.8773  -10.8936  -16.9468 C   0  0  1  0  0  0  0  0  0  0  0  0
   15.7348  -10.7561  -17.8992 C   0  0  0  0  0  0  0  0  0  0  0  0
   15.5288   -9.5305  -18.6117 C   0  0  0  0  0  0  0  0  0  0  0  0
   14.4647   -8.9606  -18.9122 O   0  0  0  0  0  0  0  0  0  0  0  0
   16.8843   -9.9346  -15.8212 C   0  0  0  0  0  0  0  0  0  0  0  0
   16.2451  -10.2205  -14.7418 O   0  0  0  0  0  0  0  0  0  0  0  0
   16.6806   -8.8202  -19.0653 O   0  0  0  0  0  0  0  0  0  0  0  0
   17.5406   -8.6898  -15.7832 N   0  0  0  0  0  0  0  0  0  0  0  0
   17.4884   -7.8455  -14.5703 C   0  0  0  0  0  0  0  0  0  0  0  0
   18.1610   -6.5384  -14.8434 C   0  0  0  0  0  0  0  0  0  0  0  0
   19.1337   -6.4634  -15.6316 O   0  0  0  0  0  0  0  0  0  0  0  0
   17.7264   -5.3716  -14.2310 O   0  0  0  0  0  0  0  0  0  0  0  0
  2  1  1  1
  3  2  1  0
  4  3  1  0
  5  2  1  0
  5  6  2  0
  7  5  1  0
  8  7  1  0
  8  9  1  6
 10  9  1  0
 10 14  1  0
 11 10  2  0
 12  8  1  0
 13 12  2  0
 15 12  1  0
 16 15  1  0
 17 16  1  0
 17 19  1  0
 18 17  2  0
M  END
$$$$
