CDG.pdb
     RDKit          3D

 19 18  0  0  1  0  0  0  0  0999 V2000
   19.9751  -19.8751  -14.3286 N   0  0  0  0  0  0  0  0  0  0  0  0
   20.4112  -21.0689  -13.6370 C   0  0  1  0  0  0  0  0  0  0  0  0
   21.8313  -20.8353  -13.1457 C   0  0  0  0  0  0  0  0  0  0  0  0
   23.0304  -21.5099  -14.3031 S   0  0  0  0  0  0  0  0  0  0  0  0
   19.5424  -21.2100  -12.4377 C   0  0  0  0  0  0  0  0  0  0  0  0
   19.3141  -20.1819  -11.7529 O   0  0  0  0  0  0  0  0  0  0  0  0
   18.9647  -22.4197  -12.0276 N   0  0  0  0  0  0  0  0  0  0  0  0
   18.0065  -22.4405  -10.8710 C   0  0  1  0  0  0  0  0  0  0  0  0
   16.6582  -22.6993  -11.4593 C   0  0  0  0  0  0  0  0  0  0  0  0
   15.4912  -22.6902  -10.6284 C   0  0  0  0  0  0  0  0  0  0  0  0
   15.3438  -22.2401   -9.4781 O   0  0  0  0  0  0  0  0  0  0  0  0
   18.5306  -23.5071   -9.9911 C   0  0  0  0  0  0  0  0  0  0  0  0
   19.2055  -24.4756  -10.5030 O   0  0  0  0  0  0  0  0  0  0  0  0
   14.2960  -23.2705  -11.1496 O   0  0  0  0  0  0  0  0  0  0  0  0
   18.3781  -23.5934   -8.5943 N   0  0  0  0  0  0  0  0  0  0  0  0
   18.8699  -24.7744   -7.8527 C   0  0  0  0  0  0  0  0  0  0  0  0
   18.6872  -24.5532   -6.3853 C   0  0  0  0  0  0  0  0  0  0  0  0
   18.3572  -23.4294   -5.9364 O   0  0  0  0  0  0  0  0  0  0  0  0
   18.8783  -25.5868   -5.4794 O   0  0  0  0  0  0  0  0  0  0  0  0
  2  1  1  6
  3  2  1  0
  4  3  1  0
  5  2  1  0
  5  6  2  0
  7  5  1  0
  8  7  1  0
  8  9  1  6
 10  9  1  0
 10 14  1  0
 11 10  2  0
 12  8  1  0
 13 12  2  0
 15 12  1  0
 16 15  1  0
 17 16  1  0
 17 19  1  0
 18 17  2  0
M  END
$$$$
