LLL.pdb
     RDKit          3D

 25 24  0  0  1  0  0  0  0  0999 V2000
    5.1574  -19.8401   22.5349 C   0  0  0  0  0  0  0  0  0  0  0  0
    6.3947  -20.4151   23.2017 C   0  0  2  0  0  0  0  0  0  0  0  0
    5.9972  -20.8191   24.6057 C   0  0  0  0  0  0  0  0  0  0  0  0
    7.4964  -19.3773   23.3110 C   0  0  0  0  0  0  0  0  0  0  0  0
    7.7250  -18.7975   21.9375 C   0  0  2  0  0  0  0  0  0  0  0  0
    8.2778  -19.7768   21.0612 N   0  0  0  0  0  0  0  0  0  0  0  0
    8.4951  -17.5328   21.9724 C   0  0  0  0  0  0  0  0  0  0  0  0
    9.7428  -17.6062   22.1017 O   0  0  0  0  0  0  0  0  0  0  0  0
    9.0024  -13.9627   19.1560 C   0  0  0  0  0  0  0  0  0  0  0  0
    7.7265  -14.0351   19.9990 C   0  0  2  0  0  0  0  0  0  0  0  0
    6.7762  -12.9846   19.4806 C   0  0  0  0  0  0  0  0  0  0  0  0
    8.1368  -13.8401   21.4174 C   0  0  0  0  0  0  0  0  0  0  0  0
    8.6860  -15.0530   22.1088 C   0  0  2  0  0  0  0  0  0  0  0  0
    7.9560  -16.2523   21.8737 N   0  0  0  0  0  0  0  0  0  0  0  0
    9.0447  -14.7994   23.5105 C   0  0  0  0  0  0  0  0  0  0  0  0
    9.9667  -13.9747   23.8431 O   0  0  0  0  0  0  0  0  0  0  0  0
    5.7120  -12.6869   26.5429 C   0  0  0  0  0  0  0  0  0  0  0  0
    7.0700  -13.1268   26.1179 C   0  0  1  0  0  0  0  0  0  0  0  0
    8.0248  -11.9883   26.4721 C   0  0  0  0  0  0  0  0  0  0  0  0
    7.5526  -14.4151   26.6691 C   0  0  0  0  0  0  0  0  0  0  0  0
    8.7124  -15.0686   26.0034 C   0  0  2  0  0  0  0  0  0  0  0  0
    8.4116  -15.4308   24.6172 N   0  0  0  0  0  0  0  0  0  0  0  0
    9.1585  -16.2615   26.7158 C   0  0  0  0  0  0  0  0  0  0  0  0
    9.7723  -16.2828   27.9711 O   0  0  0  0  0  0  0  0  0  0  0  0
    9.0012  -17.4207   26.2001 O   0  0  0  0  0  0  0  0  0  0  0  0
  2  1  1  1
  3  2  1  0
  4  2  1  0
  4  5  1  0
  5  6  1  6
  7  8  2  0
  7  5  1  0
 10  9  1  6
 10 12  1  0
 11 10  1  0
 13 12  1  1
 13 14  1  0
 14  7  1  0
 15 13  1  0
 16 15  2  0
 18 17  1  1
 19 18  1  0
 20 18  1  0
 21 20  1  1
 21 22  1  0
 22 15  1  0
 23 21  1  0
 24 23  1  0
 25 23  2  0
M  END
$$$$
