LLL.pdb
     RDKit          3D

 25 24  0  0  1  0  0  0  0  0999 V2000
    9.0769  -18.7713   19.6361 C   0  0  0  0  0  0  0  0  0  0  0  0
    7.9439  -17.7662   19.5267 C   0  0  2  0  0  0  0  0  0  0  0  0
    7.8316  -17.3785   18.0674 C   0  0  0  0  0  0  0  0  0  0  0  0
    8.2428  -16.5078   20.3203 C   0  0  0  0  0  0  0  0  0  0  0  0
    8.3560  -16.8926   21.7743 C   0  0  2  0  0  0  0  0  0  0  0  0
    7.2102  -17.6308   22.1923 N   0  0  0  0  0  0  0  0  0  0  0  0
    8.6668  -15.7379   22.6481 C   0  0  0  0  0  0  0  0  0  0  0  0
    9.6644  -15.0313   22.3580 O   0  0  0  0  0  0  0  0  0  0  0  0
    7.0902  -11.7530   24.1028 C   0  0  0  0  0  0  0  0  0  0  0  0
    6.3127  -12.9323   24.6931 C   0  0  2  0  0  0  0  0  0  0  0  0
    5.1636  -12.3683   25.4911 C   0  0  0  0  0  0  0  0  0  0  0  0
    7.2821  -13.7269   25.4975 C   0  0  0  0  0  0  0  0  0  0  0  0
    8.3834  -14.3881   24.7223 C   0  0  2  0  0  0  0  0  0  0  0  0
    7.9450  -15.3582   23.7772 N   0  0  0  0  0  0  0  0  0  0  0  0
    9.5118  -14.7991   25.5682 C   0  0  0  0  0  0  0  0  0  0  0  0
   10.2723  -13.9515   26.1550 O   0  0  0  0  0  0  0  0  0  0  0  0
   10.1812  -13.9822   28.3078 C   0  0  0  0  0  0  0  0  0  0  0  0
   10.6859  -15.2387   28.9281 C   0  0  1  0  0  0  0  0  0  0  0  0
   10.0457  -15.3262   30.3121 C   0  0  0  0  0  0  0  0  0  0  0  0
   10.4695  -16.4894   28.1631 C   0  0  0  0  0  0  0  0  0  0  0  0
   10.9288  -16.5306   26.7479 C   0  0  2  0  0  0  0  0  0  0  0  0
    9.8622  -16.1552   25.8180 N   0  0  0  0  0  0  0  0  0  0  0  0
   11.4417  -17.8437   26.3712 C   0  0  0  0  0  0  0  0  0  0  0  0
   10.9082  -18.6782   25.3852 O   0  0  0  0  0  0  0  0  0  0  0  0
   12.4688  -18.3304   26.9567 O   0  0  0  0  0  0  0  0  0  0  0  0
  2  1  1  6
  3  2  1  0
  4  2  1  0
  4  5  1  0
  5  6  1  1
  7  8  2  0
  7  5  1  0
 10  9  1  1
 10 12  1  0
 11 10  1  0
 13 12  1  1
 13 14  1  0
 14  7  1  0
 15 13  1  0
 16 15  2  0
 18 17  1  6
 19 18  1  0
 20 18  1  0
 21 20  1  1
 21 22  1  0
 22 15  1  0
 23 21  1  0
 24 23  1  0
 25 23  2  0
M  END
$$$$
