LLL.pdb
     RDKit          3D

 25 24  0  0  1  0  0  0  0  0999 V2000
   10.3532  -21.0351   19.1561 C   0  0  0  0  0  0  0  0  0  0  0  0
    9.3016  -20.0559   18.6650 C   0  0  2  0  0  0  0  0  0  0  0  0
    9.2575  -20.1691   17.1558 C   0  0  0  0  0  0  0  0  0  0  0  0
    9.6723  -18.6261   19.0131 C   0  0  0  0  0  0  0  0  0  0  0  0
    9.7339  -18.5160   20.5162 C   0  0  2  0  0  0  0  0  0  0  0  0
    8.5661  -19.0761   21.1121 N   0  0  0  0  0  0  0  0  0  0  0  0
   10.0309  -17.1399   20.9763 C   0  0  0  0  0  0  0  0  0  0  0  0
   11.1622  -16.6616   20.7117 O   0  0  0  0  0  0  0  0  0  0  0  0
    8.6693  -13.0800   19.7515 C   0  0  0  0  0  0  0  0  0  0  0  0
    7.7632  -13.9437   20.6328 C   0  0  2  0  0  0  0  0  0  0  0  0
    6.3878  -13.3246   20.6191 C   0  0  0  0  0  0  0  0  0  0  0  0
    8.3959  -13.9947   21.9801 C   0  0  0  0  0  0  0  0  0  0  0  0
    9.4866  -15.0108   22.1489 C   0  0  2  0  0  0  0  0  0  0  0  0
    9.1595  -16.3162   21.6849 N   0  0  0  0  0  0  0  0  0  0  0  0
   10.1215  -14.9544   23.4725 C   0  0  0  0  0  0  0  0  0  0  0  0
   10.6928  -13.8961   23.9136 O   0  0  0  0  0  0  0  0  0  0  0  0
   10.8321  -13.9805   28.3499 C   0  0  0  0  0  0  0  0  0  0  0  0
    9.6096  -14.7085   27.9099 C   0  0  1  0  0  0  0  0  0  0  0  0
    8.4178  -13.9190   28.4479 C   0  0  0  0  0  0  0  0  0  0  0  0
    9.4710  -14.9530   26.4548 C   0  0  0  0  0  0  0  0  0  0  0  0
   10.4425  -15.8755   25.8062 C   0  0  2  0  0  0  0  0  0  0  0  0
   10.1598  -16.0493   24.3802 N   0  0  0  0  0  0  0  0  0  0  0  0
   10.4697  -17.1875   26.4443 C   0  0  0  0  0  0  0  0  0  0  0  0
   11.4921  -17.6790   27.2605 O   0  0  0  0  0  0  0  0  0  0  0  0
    9.5014  -18.0067   26.2829 O   0  0  0  0  0  0  0  0  0  0  0  0
  2  1  1  6
  3  2  1  0
  4  2  1  0
  4  5  1  0
  5  6  1  1
  7  8  2  0
  7  5  1  0
 10  9  1  6
 10 12  1  0
 11 10  1  0
 13 12  1  1
 13 14  1  0
 14  7  1  0
 15 13  1  0
 16 15  2  0
 18 17  1  6
 19 18  1  0
 20 18  1  0
 21 20  1  1
 21 22  1  0
 22 15  1  0
 23 21  1  0
 24 23  1  0
 25 23  2  0
M  END
$$$$
