LLL.pdb
     RDKit          3D

 25 24  0  0  1  0  0  0  0  0999 V2000
   11.5455  -20.8098   20.0906 C   0  0  0  0  0  0  0  0  0  0  0  0
   11.0295  -19.9283   18.9669 C   0  0  2  0  0  0  0  0  0  0  0  0
   11.9953  -20.0707   17.8096 C   0  0  0  0  0  0  0  0  0  0  0  0
   11.0070  -18.4673   19.3764 C   0  0  0  0  0  0  0  0  0  0  0  0
   10.1476  -18.3448   20.6099 C   0  0  2  0  0  0  0  0  0  0  0  0
    8.8407  -18.8607   20.3685 N   0  0  0  0  0  0  0  0  0  0  0  0
   10.1482  -16.9748   21.1725 C   0  0  0  0  0  0  0  0  0  0  0  0
   11.2419  -16.5022   21.5715 O   0  0  0  0  0  0  0  0  0  0  0  0
    8.7593  -12.8724   19.5320 C   0  0  0  0  0  0  0  0  0  0  0  0
    7.6774  -13.8209   20.0553 C   0  0  2  0  0  0  0  0  0  0  0  0
    6.3376  -13.2261   19.6997 C   0  0  0  0  0  0  0  0  0  0  0  0
    7.9090  -13.9714   21.5188 C   0  0  0  0  0  0  0  0  0  0  0  0
    9.0505  -14.8635   21.9087 C   0  0  2  0  0  0  0  0  0  0  0  0
    9.0325  -16.1510   21.3018 N   0  0  0  0  0  0  0  0  0  0  0  0
    9.3177  -14.8527   23.3532 C   0  0  0  0  0  0  0  0  0  0  0  0
   10.4692  -14.5642   23.8346 O   0  0  0  0  0  0  0  0  0  0  0  0
    6.0213  -12.4565   26.7922 C   0  0  0  0  0  0  0  0  0  0  0  0
    7.2993  -13.0136   26.2680 C   0  0  1  0  0  0  0  0  0  0  0  0
    8.4162  -12.1304   26.8209 C   0  0  0  0  0  0  0  0  0  0  0  0
    7.5646  -14.4440   26.5507 C   0  0  0  0  0  0  0  0  0  0  0  0
    8.6392  -15.1214   25.7750 C   0  0  2  0  0  0  0  0  0  0  0  0
    8.3398  -15.1521   24.3422 N   0  0  0  0  0  0  0  0  0  0  0  0
    8.8777  -16.4853   26.2357 C   0  0  0  0  0  0  0  0  0  0  0  0
    8.8124  -17.6379   25.4481 O   0  0  0  0  0  0  0  0  0  0  0  0
    9.1785  -16.7131   27.4573 O   0  0  0  0  0  0  0  0  0  0  0  0
  2  1  1  1
  3  2  1  0
  4  2  1  0
  4  5  1  0
  5  6  1  6
  7  8  2  0
  7  5  1  0
 10  9  1  1
 10 12  1  0
 11 10  1  0
 13 12  1  1
 13 14  1  0
 14  7  1  0
 15 13  1  0
 16 15  2  0
 18 17  1  1
 19 18  1  0
 20 18  1  0
 21 20  1  1
 21 22  1  0
 22 15  1  0
 23 21  1  0
 24 23  1  0
 25 23  2  0
M  END
$$$$
