LLL.pdb
     RDKit          3D

 25 24  0  0  1  0  0  0  0  0999 V2000
   10.0774  -20.4531   23.5019 C   0  0  0  0  0  0  0  0  0  0  0  0
    9.4830  -19.6140   22.3846 C   0  0  2  0  0  0  0  0  0  0  0  0
    8.1608  -20.2475   22.0066 C   0  0  0  0  0  0  0  0  0  0  0  0
   10.3712  -19.6229   21.1542 C   0  0  0  0  0  0  0  0  0  0  0  0
    9.9084  -18.5159   20.2403 C   0  0  2  0  0  0  0  0  0  0  0  0
   10.5599  -18.5996   18.9750 N   0  0  0  0  0  0  0  0  0  0  0  0
   10.0063  -17.1782   20.8687 C   0  0  0  0  0  0  0  0  0  0  0  0
   11.1343  -16.7969   21.2698 O   0  0  0  0  0  0  0  0  0  0  0  0
    8.9487  -12.9437   19.2925 C   0  0  0  0  0  0  0  0  0  0  0  0
    7.8298  -13.8606   19.7936 C   0  0  2  0  0  0  0  0  0  0  0  0
    6.5150  -13.2274   19.4122 C   0  0  0  0  0  0  0  0  0  0  0  0
    8.0282  -14.0181   21.2613 C   0  0  0  0  0  0  0  0  0  0  0  0
    9.0710  -15.0146   21.6739 C   0  0  2  0  0  0  0  0  0  0  0  0
    8.9484  -16.2922   21.0584 N   0  0  0  0  0  0  0  0  0  0  0  0
    9.3010  -15.0348   23.1247 C   0  0  0  0  0  0  0  0  0  0  0  0
   10.3916  -14.6171   23.6511 O   0  0  0  0  0  0  0  0  0  0  0  0
    5.8840  -12.7483   26.0815 C   0  0  0  0  0  0  0  0  0  0  0  0
    7.2290  -13.2978   25.7540 C   0  0  1  0  0  0  0  0  0  0  0  0
    8.2494  -12.3132   26.3218 C   0  0  0  0  0  0  0  0  0  0  0  0
    7.5111  -14.6784   26.2132 C   0  0  0  0  0  0  0  0  0  0  0  0
    8.5818  -15.4412   25.5153 C   0  0  2  0  0  0  0  0  0  0  0  0
    8.3501  -15.5079   24.0712 N   0  0  0  0  0  0  0  0  0  0  0  0
    8.7209  -16.7983   26.0332 C   0  0  0  0  0  0  0  0  0  0  0  0
    8.5976  -17.9746   25.2887 O   0  0  0  0  0  0  0  0  0  0  0  0
    8.9800  -16.9966   27.2694 O   0  0  0  0  0  0  0  0  0  0  0  0
  2  1  1  1
  3  2  1  0
  4  2  1  0
  4  5  1  0
  5  6  1  6
  7  8  2  0
  7  5  1  0
 10  9  1  1
 10 12  1  0
 11 10  1  0
 13 12  1  1
 13 14  1  0
 14  7  1  0
 15 13  1  0
 16 15  2  0
 18 17  1  1
 19 18  1  0
 20 18  1  0
 21 20  1  1
 21 22  1  0
 22 15  1  0
 23 21  1  0
 24 23  1  0
 25 23  2  0
M  END
$$$$
