LLL.pdb
     RDKit          3D

 25 24  0  0  1  0  0  0  0  0999 V2000
    6.2662  -21.3561   20.8869 C   0  0  0  0  0  0  0  0  0  0  0  0
    5.7054  -20.2306   20.0355 C   0  0  2  0  0  0  0  0  0  0  0  0
    5.6062  -20.7515   18.6173 C   0  0  0  0  0  0  0  0  0  0  0  0
    6.6333  -19.0299   20.0258 C   0  0  0  0  0  0  0  0  0  0  0  0
    6.7637  -18.5333   21.4441 C   0  0  2  0  0  0  0  0  0  0  0  0
    5.4870  -18.1938   21.9800 N   0  0  0  0  0  0  0  0  0  0  0  0
    7.7688  -17.4542   21.5812 C   0  0  0  0  0  0  0  0  0  0  0  0
    8.9814  -17.7593   21.4579 O   0  0  0  0  0  0  0  0  0  0  0  0
    8.9643  -13.9901   19.1751 C   0  0  0  0  0  0  0  0  0  0  0  0
    7.7075  -13.7911   20.0263 C   0  0  2  0  0  0  0  0  0  0  0  0
    7.0444  -12.5152   19.5706 C   0  0  0  0  0  0  0  0  0  0  0  0
    8.1496  -13.7746   21.4484 C   0  0  0  0  0  0  0  0  0  0  0  0
    8.4796  -15.1119   22.0430 C   0  0  2  0  0  0  0  0  0  0  0  0
    7.4895  -16.1139   21.8377 N   0  0  0  0  0  0  0  0  0  0  0  0
    9.0031  -15.0161   23.4122 C   0  0  0  0  0  0  0  0  0  0  0  0
   10.0862  -14.3907   23.6891 O   0  0  0  0  0  0  0  0  0  0  0  0
    6.0075  -12.9647   26.7402 C   0  0  0  0  0  0  0  0  0  0  0  0
    7.3465  -13.3779   26.2355 C   0  0  1  0  0  0  0  0  0  0  0  0
    8.2990  -12.2229   26.5384 C   0  0  0  0  0  0  0  0  0  0  0  0
    7.8839  -14.6586   26.7526 C   0  0  0  0  0  0  0  0  0  0  0  0
    8.8635  -15.3961   25.9089 C   0  0  2  0  0  0  0  0  0  0  0  0
    8.3675  -15.5947   24.5459 N   0  0  0  0  0  0  0  0  0  0  0  0
    9.2149  -16.6938   26.4761 C   0  0  0  0  0  0  0  0  0  0  0  0
    9.0605  -17.9312   25.8451 O   0  0  0  0  0  0  0  0  0  0  0  0
    9.7141  -16.7738   27.6505 O   0  0  0  0  0  0  0  0  0  0  0  0
  2  1  1  1
  3  2  1  0
  4  2  1  0
  4  5  1  0
  5  6  1  6
  7  8  2  0
  7  5  1  0
 10  9  1  6
 10 12  1  0
 11 10  1  0
 13 12  1  1
 13 14  1  0
 14  7  1  0
 15 13  1  0
 16 15  2  0
 18 17  1  1
 19 18  1  0
 20 18  1  0
 21 20  1  1
 21 22  1  0
 22 15  1  0
 23 21  1  0
 24 23  1  0
 25 23  2  0
M  END
$$$$
