LLL.pdb
     RDKit          3D

 25 24  0  0  1  0  0  0  0  0999 V2000
    8.7238  -13.2691   17.7858 C   0  0  0  0  0  0  0  0  0  0  0  0
    8.0441  -14.0985   18.8610 C   0  0  2  0  0  0  0  0  0  0  0  0
    6.5587  -13.8213   18.7652 C   0  0  0  0  0  0  0  0  0  0  0  0
    8.5047  -13.6899   20.2479 C   0  0  0  0  0  0  0  0  0  0  0  0
    8.5968  -14.9366   21.0918 C   0  0  2  0  0  0  0  0  0  0  0  0
    7.4197  -15.7289   20.9529 N   0  0  0  0  0  0  0  0  0  0  0  0
    8.9526  -14.6479   22.5002 C   0  0  0  0  0  0  0  0  0  0  0  0
   10.0910  -14.1703   22.7342 O   0  0  0  0  0  0  0  0  0  0  0  0
    7.7440  -11.6363   25.2679 C   0  0  0  0  0  0  0  0  0  0  0  0
    6.7459  -12.7956   25.2084 C   0  0  2  0  0  0  0  0  0  0  0  0
    5.5046  -12.3683   25.9512 C   0  0  0  0  0  0  0  0  0  0  0  0
    7.4296  -13.9819   25.7945 C   0  0  0  0  0  0  0  0  0  0  0  0
    8.5082  -14.5944   24.9506 C   0  0  2  0  0  0  0  0  0  0  0  0
    8.1302  -14.8600   23.6041 N   0  0  0  0  0  0  0  0  0  0  0  0
    9.2176  -15.6856   25.6317 C   0  0  0  0  0  0  0  0  0  0  0  0
    8.6547  -16.8037   25.9040 O   0  0  0  0  0  0  0  0  0  0  0  0
   10.0289  -14.6321   30.1819 C   0  0  0  0  0  0  0  0  0  0  0  0
   10.3965  -14.8818   28.7603 C   0  0  1  0  0  0  0  0  0  0  0  0
   11.5730  -13.9589   28.4484 C   0  0  0  0  0  0  0  0  0  0  0  0
   10.7090  -16.2829   28.3924 C   0  0  0  0  0  0  0  0  0  0  0  0
   11.1589  -16.5555   27.0000 C   0  0  2  0  0  0  0  0  0  0  0  0
   10.5770  -15.6107   26.0449 N   0  0  0  0  0  0  0  0  0  0  0  0
   10.8410  -17.9139   26.5722 C   0  0  0  0  0  0  0  0  0  0  0  0
   11.7319  -18.8157   25.9839 O   0  0  0  0  0  0  0  0  0  0  0  0
    9.6604  -18.3809   26.7227 O   0  0  0  0  0  0  0  0  0  0  0  0
  2  1  1  6
  3  2  1  0
  4  2  1  0
  4  5  1  0
  5  6  1  1
  7  8  2  0
  7  5  1  0
 10  9  1  1
 10 12  1  0
 11 10  1  0
 13 12  1  1
 13 14  1  0
 14  7  1  0
 15 13  1  0
 16 15  2  0
 18 17  1  1
 19 18  1  0
 20 18  1  0
 21 20  1  1
 21 22  1  0
 22 15  1  0
 23 21  1  0
 24 23  1  0
 25 23  2  0
M  END
$$$$
