LLL.pdb
     RDKit          3D

 25 24  0  0  1  0  0  0  0  0999 V2000
   10.7081  -20.1362   19.2552 C   0  0  0  0  0  0  0  0  0  0  0  0
   11.7590  -20.0586   20.3486 C   0  0  2  0  0  0  0  0  0  0  0  0
   11.6816  -21.3509   21.1337 C   0  0  0  0  0  0  0  0  0  0  0  0
   11.4769  -18.9155   21.3061 C   0  0  0  0  0  0  0  0  0  0  0  0
   11.2817  -17.6633   20.4883 C   0  0  2  0  0  0  0  0  0  0  0  0
   12.5124  -17.2455   19.9023 N   0  0  0  0  0  0  0  0  0  0  0  0
   10.5912  -16.5912   21.2415 C   0  0  0  0  0  0  0  0  0  0  0  0
   11.2651  -15.9202   22.0627 O   0  0  0  0  0  0  0  0  0  0  0  0
    8.4575  -12.7703   20.1591 C   0  0  0  0  0  0  0  0  0  0  0  0
    7.5996  -14.0150   19.9174 C   0  0  2  0  0  0  0  0  0  0  0  0
    6.3331  -13.5704   19.2292 C   0  0  0  0  0  0  0  0  0  0  0  0
    7.3809  -14.6510   21.2463 C   0  0  0  0  0  0  0  0  0  0  0  0
    8.5977  -15.2463   21.8911 C   0  0  2  0  0  0  0  0  0  0  0  0
    9.2452  -16.2538   21.1216 N   0  0  0  0  0  0  0  0  0  0  0  0
    8.3927  -15.5721   23.3088 C   0  0  0  0  0  0  0  0  0  0  0  0
    8.7971  -16.6729   23.8240 O   0  0  0  0  0  0  0  0  0  0  0  0
    6.4216  -11.5717   26.7374 C   0  0  0  0  0  0  0  0  0  0  0  0
    7.3052  -12.6952   26.3187 C   0  0  1  0  0  0  0  0  0  0  0  0
    8.5502  -12.6191   27.2004 C   0  0  0  0  0  0  0  0  0  0  0  0
    6.7126  -14.0532   26.3532 C   0  0  0  0  0  0  0  0  0  0  0  0
    7.3981  -15.1336   25.5926 C   0  0  2  0  0  0  0  0  0  0  0  0
    7.7401  -14.7101   24.2336 N   0  0  0  0  0  0  0  0  0  0  0  0
    6.5975  -16.3513   25.5192 C   0  0  0  0  0  0  0  0  0  0  0  0
    6.5133  -17.3356   26.5077 O   0  0  0  0  0  0  0  0  0  0  0  0
    5.8863  -16.5978   24.4858 O   0  0  0  0  0  0  0  0  0  0  0  0
  2  1  1  6
  3  2  1  0
  4  2  1  0
  4  5  1  0
  5  6  1  1
  7  8  2  0
  7  5  1  0
 10  9  1  1
 10 12  1  0
 11 10  1  0
 13 12  1  6
 13 14  1  0
 14  7  1  0
 15 13  1  0
 16 15  2  0
 18 17  1  1
 19 18  1  0
 20 18  1  0
 21 20  1  6
 21 22  1  0
 22 15  1  0
 23 21  1  0
 24 23  1  0
 25 23  2  0
M  END
$$$$
