EML.pdb
     RDKit          3D

 26 25  0  0  1  0  0  0  0  0999 V2000
   19.7774  -22.1174  -10.8506 N   0  0  0  0  0  0  0  0  0  0  0  0
   19.9373  -21.9426  -12.2071 C   0  0  1  0  0  0  0  0  0  0  0  0
   18.6858  -21.6258  -12.9672 C   0  0  0  0  0  0  0  0  0  0  0  0
   17.7587  -22.7738  -13.1817 C   0  0  0  0  0  0  0  0  0  0  0  0
   18.2502  -23.7246  -14.1659 C   0  0  0  0  0  0  0  0  0  0  0  0
   19.2013  -23.4905  -14.9363 O   0  0  0  0  0  0  0  0  0  0  0  0
   20.9536  -20.8453  -12.4820 C   0  0  0  0  0  0  0  0  0  0  0  0
   20.7592  -19.7541  -11.9166 O   0  0  0  0  0  0  0  0  0  0  0  0
   17.6204  -24.9887  -14.2618 O   0  0  0  0  0  0  0  0  0  0  0  0
   27.4395  -21.0274  -12.5537 C   0  0  0  0  0  0  0  0  0  0  0  0
   26.2306  -22.1324  -11.7834 S   0  0  0  0  0  0  0  0  0  0  0  0
   24.6503  -21.9874  -12.7330 C   0  0  0  0  0  0  0  0  0  0  0  0
   24.3255  -20.5144  -12.7173 C   0  0  0  0  0  0  0  0  0  0  0  0
   23.1373  -20.2926  -13.6328 C   0  0  2  0  0  0  0  0  0  0  0  0
   22.0351  -21.1236  -13.3440 N   0  0  0  0  0  0  0  0  0  0  0  0
   23.4553  -20.2181  -15.0491 C   0  0  0  0  0  0  0  0  0  0  0  0
   23.3848  -21.2113  -15.8352 O   0  0  0  0  0  0  0  0  0  0  0  0
   21.6602  -17.8795  -18.2831 C   0  0  0  0  0  0  0  0  0  0  0  0
   22.6222  -17.0143  -17.5568 C   0  0  2  0  0  0  0  0  0  0  0  0
   22.5343  -15.5485  -18.0309 C   0  0  0  0  0  0  0  0  0  0  0  0
   24.0244  -17.4548  -17.4452 C   0  0  0  0  0  0  0  0  0  0  0  0
   24.3415  -18.8111  -16.9759 C   0  0  2  0  0  0  0  0  0  0  0  0
   23.8651  -18.9735  -15.5787 N   0  0  0  0  0  0  0  0  0  0  0  0
   25.6886  -19.3416  -17.0952 C   0  0  0  0  0  0  0  0  0  0  0  0
   26.2448  -19.9478  -18.1909 O   0  0  0  0  0  0  0  0  0  0  0  0
   26.4638  -19.2529  -16.0764 O   0  0  0  0  0  0  0  0  0  0  0  0
  2  1  1  1
  3  2  1  0
  4  3  1  0
  5  4  1  0
  6  5  2  0
  7  2  1  0
  7  8  2  0
  9  5  1  0
 11 12  1  0
 11 10  1  0
 12 13  1  0
 14 13  1  1
 14 15  1  0
 15  7  1  0
 16 14  1  0
 17 16  2  0
 19 18  1  6
 19 21  1  0
 20 19  1  0
 22 21  1  1
 22 23  1  0
 22 24  1  0
 23 16  1  0
 24 25  1  0
 26 24  2  0
M  END
$$$$
