EML.pdb
     RDKit          3D

 26 25  0  0  1  0  0  0  0  0999 V2000
   17.6588  -22.8114  -17.4415 N   0  0  0  0  0  0  0  0  0  0  0  0
   18.9385  -22.6595  -16.9562 C   0  0  1  0  0  0  0  0  0  0  0  0
   19.3034  -21.2715  -16.5265 C   0  0  0  0  0  0  0  0  0  0  0  0
   18.1598  -20.4054  -16.1198 C   0  0  0  0  0  0  0  0  0  0  0  0
   17.9815  -20.3399  -14.6782 C   0  0  0  0  0  0  0  0  0  0  0  0
   18.8070  -19.8182  -13.9040 O   0  0  0  0  0  0  0  0  0  0  0  0
   19.1740  -23.5996  -15.7844 C   0  0  0  0  0  0  0  0  0  0  0  0
   18.1642  -24.1265  -15.2836 O   0  0  0  0  0  0  0  0  0  0  0  0
   16.8090  -20.8965  -14.1134 O   0  0  0  0  0  0  0  0  0  0  0  0
   25.2798  -24.0523  -15.7592 C   0  0  0  0  0  0  0  0  0  0  0  0
   24.6630  -25.7126  -15.3867 S   0  0  0  0  0  0  0  0  0  0  0  0
   22.8153  -25.6512  -15.4378 C   0  0  0  0  0  0  0  0  0  0  0  0
   22.4235  -24.8406  -14.2275 C   0  0  0  0  0  0  0  0  0  0  0  0
   20.9222  -24.6326  -14.2760 C   0  0  2  0  0  0  0  0  0  0  0  0
   20.4965  -23.8149  -15.3433 N   0  0  0  0  0  0  0  0  0  0  0  0
   20.3044  -24.2981  -13.0037 C   0  0  0  0  0  0  0  0  0  0  0  0
   20.3819  -23.1506  -12.4685 O   0  0  0  0  0  0  0  0  0  0  0  0
   17.0312  -24.3405   -8.8759 C   0  0  0  0  0  0  0  0  0  0  0  0
   16.5296  -24.3310  -10.2723 C   0  0  2  0  0  0  0  0  0  0  0  0
   15.1861  -25.0798  -10.3958 C   0  0  0  0  0  0  0  0  0  0  0  0
   17.4524  -24.7100  -11.3573 C   0  0  0  0  0  0  0  0  0  0  0  0
   18.8494  -25.0548  -11.0574 C   0  0  2  0  0  0  0  0  0  0  0  0
   19.5793  -25.3045  -12.3265 N   0  0  0  0  0  0  0  0  0  0  0  0
   19.1665  -26.1005  -10.1001 C   0  0  0  0  0  0  0  0  0  0  0  0
   19.2247  -25.9833   -8.7362 O   0  0  0  0  0  0  0  0  0  0  0  0
   19.4322  -27.2716  -10.5526 O   0  0  0  0  0  0  0  0  0  0  0  0
  2  1  1  1
  3  2  1  0
  4  3  1  0
  5  4  1  0
  6  5  2  0
  7  2  1  0
  7  8  2  0
  9  5  1  0
 11 12  1  0
 11 10  1  0
 12 13  1  0
 14 13  1  1
 14 15  1  0
 15  7  1  0
 16 14  1  0
 17 16  2  0
 19 18  1  1
 19 21  1  0
 20 19  1  0
 22 21  1  6
 22 23  1  0
 22 24  1  0
 23 16  1  0
 24 25  1  0
 26 24  2  0
M  END
$$$$
