EML.pdb
     RDKit          3D

 26 25  0  0  1  0  0  0  0  0999 V2000
   19.4860  -15.7082  -16.2552 N   0  0  0  0  0  0  0  0  0  0  0  0
   18.5876  -14.7637  -16.6991 C   0  0  1  0  0  0  0  0  0  0  0  0
   17.1667  -14.9776  -16.2751 C   0  0  0  0  0  0  0  0  0  0  0  0
   16.5417  -16.2467  -16.7462 C   0  0  0  0  0  0  0  0  0  0  0  0
   15.1468  -16.3723  -16.3552 C   0  0  0  0  0  0  0  0  0  0  0  0
   14.2627  -15.5573  -16.6822 O   0  0  0  0  0  0  0  0  0  0  0  0
   19.0161  -13.3754  -16.2504 C   0  0  0  0  0  0  0  0  0  0  0  0
   19.3969  -13.2659  -15.0709 O   0  0  0  0  0  0  0  0  0  0  0  0
   14.7620  -17.4778  -15.5593 O   0  0  0  0  0  0  0  0  0  0  0  0
   20.7625   -8.0004  -19.8869 C   0  0  0  0  0  0  0  0  0  0  0  0
   21.1271   -9.7293  -20.2793 S   0  0  0  0  0  0  0  0  0  0  0  0
   20.8030  -10.7317  -18.7595 C   0  0  0  0  0  0  0  0  0  0  0  0
   19.5366  -10.1528  -18.1792 C   0  0  0  0  0  0  0  0  0  0  0  0
   19.1933  -10.9463  -16.9335 C   0  0  2  0  0  0  0  0  0  0  0  0
   18.9580  -12.3149  -17.1789 N   0  0  0  0  0  0  0  0  0  0  0  0
   18.2039  -10.3319  -16.0640 C   0  0  0  0  0  0  0  0  0  0  0  0
   16.9903  -10.6983  -16.0166 O   0  0  0  0  0  0  0  0  0  0  0  0
   16.7736   -9.5430  -10.6788 C   0  0  0  0  0  0  0  0  0  0  0  0
   16.5364   -9.0279  -12.0499 C   0  0  2  0  0  0  0  0  0  0  0  0
   15.0553   -9.1696  -12.4590 C   0  0  0  0  0  0  0  0  0  0  0  0
   17.4329   -9.4665  -13.1346 C   0  0  0  0  0  0  0  0  0  0  0  0
   17.6951   -8.5869  -14.2825 C   0  0  2  0  0  0  0  0  0  0  0  0
   18.6152   -9.2698  -15.2273 N   0  0  0  0  0  0  0  0  0  0  0  0
   18.1330   -7.2162  -14.0823 C   0  0  0  0  0  0  0  0  0  0  0  0
   17.3543   -6.1396  -13.7481 O   0  0  0  0  0  0  0  0  0  0  0  0
   19.3797   -6.9533  -14.2348 O   0  0  0  0  0  0  0  0  0  0  0  0
  2  1  1  1
  3  2  1  0
  4  3  1  0
  5  4  1  0
  6  5  2  0
  7  2  1  0
  7  8  2  0
  9  5  1  0
 11 12  1  0
 11 10  1  0
 12 13  1  0
 14 13  1  6
 14 15  1  0
 15  7  1  0
 16 14  1  0
 17 16  2  0
 19 18  1  1
 19 21  1  0
 20 19  1  0
 22 21  1  1
 22 23  1  0
 22 24  1  0
 23 16  1  0
 24 25  1  0
 26 24  2  0
M  END
$$$$
