EML.pdb
     RDKit          3D

 26 25  0  0  1  0  0  0  0  0999 V2000
   27.4594  -19.9880  -16.9265 N   0  0  0  0  0  0  0  0  0  0  0  0
   26.7100  -19.4744  -15.8918 C   0  0  1  0  0  0  0  0  0  0  0  0
   25.4278  -18.8113  -16.2929 C   0  0  0  0  0  0  0  0  0  0  0  0
   25.3244  -18.4345  -17.7319 C   0  0  0  0  0  0  0  0  0  0  0  0
   24.0439  -17.8352  -18.0715 C   0  0  0  0  0  0  0  0  0  0  0  0
   23.8810  -16.6133  -18.2548 O   0  0  0  0  0  0  0  0  0  0  0  0
   26.3882  -20.5641  -14.8812 C   0  0  0  0  0  0  0  0  0  0  0  0
   26.2107  -21.7085  -15.3362 O   0  0  0  0  0  0  0  0  0  0  0  0
   22.9140  -18.6776  -18.2037 O   0  0  0  0  0  0  0  0  0  0  0  0
   26.7970  -20.3366   -7.4980 C   0  0  0  0  0  0  0  0  0  0  0  0
   25.4656  -20.5856   -8.6984 S   0  0  0  0  0  0  0  0  0  0  0  0
   26.1317  -21.6346  -10.0681 C   0  0  0  0  0  0  0  0  0  0  0  0
   26.5888  -20.6525  -11.1178 C   0  0  0  0  0  0  0  0  0  0  0  0
   25.9638  -21.0612  -12.4375 C   0  0  2  0  0  0  0  0  0  0  0  0
   26.3118  -20.2206  -13.5151 N   0  0  0  0  0  0  0  0  0  0  0  0
   24.5459  -21.3748  -12.3777 C   0  0  0  0  0  0  0  0  0  0  0  0
   24.0494  -22.2189  -11.5713 O   0  0  0  0  0  0  0  0  0  0  0  0
   20.3319  -21.1392  -10.7052 C   0  0  0  0  0  0  0  0  0  0  0  0
   21.2416  -19.9919  -10.9457 C   0  0  2  0  0  0  0  0  0  0  0  0
   20.7275  -18.7089  -10.2596 C   0  0  0  0  0  0  0  0  0  0  0  0
   21.6842  -19.7178  -12.3247 C   0  0  0  0  0  0  0  0  0  0  0  0
   22.1953  -20.8057  -13.1705 C   0  0  2  0  0  0  0  0  0  0  0  0
   23.6739  -20.7042  -13.2650 N   0  0  0  0  0  0  0  0  0  0  0  0
   21.6387  -21.0428  -14.4913 C   0  0  0  0  0  0  0  0  0  0  0  0
   20.3626  -21.4412  -14.7918 O   0  0  0  0  0  0  0  0  0  0  0  0
   22.4046  -20.8752  -15.5072 O   0  0  0  0  0  0  0  0  0  0  0  0
  2  1  1  6
  3  2  1  0
  4  3  1  0
  5  4  1  0
  6  5  2  0
  7  2  1  0
  7  8  2  0
  9  5  1  0
 11 12  1  0
 11 10  1  0
 12 13  1  0
 14 13  1  1
 14 15  1  0
 15  7  1  0
 16 14  1  0
 17 16  2  0
 19 18  1  6
 19 21  1  0
 20 19  1  0
 22 21  1  6
 22 23  1  0
 22 24  1  0
 23 16  1  0
 24 25  1  0
 26 24  2  0
M  END
$$$$
