EML.pdb
     RDKit          3D

 26 25  0  0  1  0  0  0  0  0999 V2000
   30.2461  -39.1242   -8.4701 N   0  0  0  0  0  0  0  0  0  0  0  0
   29.4985  -38.0039   -8.1836 C   0  0  1  0  0  0  0  0  0  0  0  0
   28.0256  -38.1339   -8.4247 C   0  0  0  0  0  0  0  0  0  0  0  0
   27.2217  -36.9074   -8.1557 C   0  0  0  0  0  0  0  0  0  0  0  0
   25.7938  -37.1127   -8.3379 C   0  0  0  0  0  0  0  0  0  0  0  0
   25.1081  -37.8663   -7.6203 O   0  0  0  0  0  0  0  0  0  0  0  0
   29.7104  -37.5832   -6.7377 C   0  0  0  0  0  0  0  0  0  0  0  0
   29.4000  -38.4151   -5.8661 O   0  0  0  0  0  0  0  0  0  0  0  0
   25.1372  -36.4232   -9.3854 O   0  0  0  0  0  0  0  0  0  0  0  0
   34.4771  -34.6363   -3.4609 C   0  0  0  0  0  0  0  0  0  0  0  0
   34.4899  -36.0243   -4.6224 S   0  0  0  0  0  0  0  0  0  0  0  0
   32.7438  -36.5947   -4.8369 C   0  0  0  0  0  0  0  0  0  0  0  0
   31.9434  -35.3278   -5.0094 C   0  0  0  0  0  0  0  0  0  0  0  0
   30.4935  -35.7208   -5.2156 C   0  0  2  0  0  0  0  0  0  0  0  0
   30.2359  -36.3006   -6.4751 N   0  0  0  0  0  0  0  0  0  0  0  0
   29.5202  -34.7132   -4.8282 C   0  0  0  0  0  0  0  0  0  0  0  0
   29.5178  -33.5302   -5.2860 O   0  0  0  0  0  0  0  0  0  0  0  0
   23.9404  -33.4605   -4.8327 C   0  0  0  0  0  0  0  0  0  0  0  0
   25.2234  -33.2005   -4.1342 C   0  0  2  0  0  0  0  0  0  0  0  0
   25.7109  -31.7550   -4.3661 C   0  0  0  0  0  0  0  0  0  0  0  0
   26.3248  -34.1666   -4.2962 C   0  0  0  0  0  0  0  0  0  0  0  0
   27.4947  -34.1147   -3.4081 C   0  0  2  0  0  0  0  0  0  0  0  0
   28.5239  -35.0700   -3.8915 N   0  0  0  0  0  0  0  0  0  0  0  0
   27.3412  -34.2518   -1.9699 C   0  0  0  0  0  0  0  0  0  0  0  0
   27.9532  -35.1688   -1.1565 O   0  0  0  0  0  0  0  0  0  0  0  0
   26.5465  -33.4432   -1.3688 O   0  0  0  0  0  0  0  0  0  0  0  0
  2  1  1  1
  3  2  1  0
  4  3  1  0
  5  4  1  0
  6  5  2  0
  7  2  1  0
  7  8  2  0
  9  5  1  0
 11 12  1  0
 11 10  1  0
 12 13  1  0
 14 13  1  6
 14 15  1  0
 15  7  1  0
 16 14  1  0
 17 16  2  0
 19 18  1  6
 19 21  1  0
 20 19  1  0
 22 21  1  6
 22 23  1  0
 22 24  1  0
 23 16  1  0
 24 25  1  0
 26 24  2  0
M  END
$$$$
