EML.pdb
     RDKit          3D

 26 25  0  0  1  0  0  0  0  0999 V2000
   26.4682  -21.2516  -14.6939 N   0  0  0  0  0  0  0  0  0  0  0  0
   27.2379  -20.3881  -13.9469 C   0  0  1  0  0  0  0  0  0  0  0  0
   27.7770  -19.2022  -14.6867 C   0  0  0  0  0  0  0  0  0  0  0  0
   27.7094  -19.2898  -16.1736 C   0  0  0  0  0  0  0  0  0  0  0  0
   26.4446  -18.8174  -16.7136 C   0  0  0  0  0  0  0  0  0  0  0  0
   26.0848  -17.6247  -16.6849 O   0  0  0  0  0  0  0  0  0  0  0  0
   26.4524  -19.8851  -12.7458 C   0  0  0  0  0  0  0  0  0  0  0  0
   25.9656  -18.7439  -12.8391 O   0  0  0  0  0  0  0  0  0  0  0  0
   25.5669  -19.7564  -17.3066 O   0  0  0  0  0  0  0  0  0  0  0  0
   21.1544  -20.3532  -10.7233 C   0  0  0  0  0  0  0  0  0  0  0  0
   21.8647  -20.7480   -9.1061 S   0  0  0  0  0  0  0  0  0  0  0  0
   23.6245  -20.1796   -9.1105 C   0  0  0  0  0  0  0  0  0  0  0  0
   24.1969  -20.7093  -10.4017 C   0  0  0  0  0  0  0  0  0  0  0  0
   25.6871  -20.4288  -10.3969 C   0  0  2  0  0  0  0  0  0  0  0  0
   26.3245  -20.7249  -11.6195 N   0  0  0  0  0  0  0  0  0  0  0  0
   26.4037  -20.9211   -9.2322 C   0  0  0  0  0  0  0  0  0  0  0  0
   27.0138  -22.0329   -9.2044 O   0  0  0  0  0  0  0  0  0  0  0  0
   28.4852  -19.8981   -4.0597 C   0  0  0  0  0  0  0  0  0  0  0  0
   29.0788  -19.6227   -5.3914 C   0  0  2  0  0  0  0  0  0  0  0  0
   30.1023  -18.4696   -5.3270 C   0  0  0  0  0  0  0  0  0  0  0  0
   28.1787  -19.4719   -6.5489 C   0  0  0  0  0  0  0  0  0  0  0  0
   27.1674  -20.4975   -6.8416 C   0  0  2  0  0  0  0  0  0  0  0  0
   26.4216  -20.1189   -8.0687 N   0  0  0  0  0  0  0  0  0  0  0  0
   26.2318  -20.9305   -5.8179 C   0  0  0  0  0  0  0  0  0  0  0  0
   26.4593  -21.8442   -4.8226 O   0  0  0  0  0  0  0  0  0  0  0  0
   25.0529  -20.4236   -5.8255 O   0  0  0  0  0  0  0  0  0  0  0  0
  2  1  1  6
  3  2  1  0
  4  3  1  0
  5  4  1  0
  6  5  2  0
  7  2  1  0
  7  8  2  0
  9  5  1  0
 11 12  1  0
 11 10  1  0
 12 13  1  0
 14 13  1  6
 14 15  1  0
 15  7  1  0
 16 14  1  0
 17 16  2  0
 19 18  1  1
 19 21  1  0
 20 19  1  0
 22 21  1  1
 22 23  1  0
 22 24  1  0
 23 16  1  0
 24 25  1  0
 26 24  2  0
M  END
$$$$
