EML.pdb
     RDKit          3D

 26 25  0  0  1  0  0  0  0  0999 V2000
   28.2457  -21.9055  -14.2433 N   0  0  0  0  0  0  0  0  0  0  0  0
   27.7715  -20.8331  -13.5212 C   0  0  1  0  0  0  0  0  0  0  0  0
   27.1841  -19.7196  -14.3332 C   0  0  0  0  0  0  0  0  0  0  0  0
   27.9856  -19.2990  -15.5182 C   0  0  0  0  0  0  0  0  0  0  0  0
   27.3928  -18.1834  -16.2380 C   0  0  0  0  0  0  0  0  0  0  0  0
   27.3420  -17.0218  -15.7893 O   0  0  0  0  0  0  0  0  0  0  0  0
   26.7273  -21.2935  -12.5161 C   0  0  0  0  0  0  0  0  0  0  0  0
   25.8672  -22.0895  -12.9342 O   0  0  0  0  0  0  0  0  0  0  0  0
   26.8404  -18.4193  -17.5197 O   0  0  0  0  0  0  0  0  0  0  0  0
   26.9676  -18.7835   -6.6028 C   0  0  0  0  0  0  0  0  0  0  0  0
   27.8305  -20.3601   -6.8166 S   0  0  0  0  0  0  0  0  0  0  0  0
   27.3262  -21.0604   -8.4522 C   0  0  0  0  0  0  0  0  0  0  0  0
   26.1744  -20.1965   -8.9022 C   0  0  0  0  0  0  0  0  0  0  0  0
   25.7369  -20.6840  -10.2698 C   0  0  2  0  0  0  0  0  0  0  0  0
   26.7941  -20.8013  -11.1958 N   0  0  0  0  0  0  0  0  0  0  0  0
   24.5587  -20.0272  -10.8109 C   0  0  0  0  0  0  0  0  0  0  0  0
   24.6039  -18.9547  -11.4869 O   0  0  0  0  0  0  0  0  0  0  0  0
   21.5452  -19.2356  -14.2876 C   0  0  0  0  0  0  0  0  0  0  0  0
   22.6960  -20.1295  -14.0079 C   0  0  2  0  0  0  0  0  0  0  0  0
   23.1481  -20.8832  -15.2763 C   0  0  0  0  0  0  0  0  0  0  0  0
   22.6213  -21.0358  -12.8479 C   0  0  0  0  0  0  0  0  0  0  0  0
   22.1737  -20.5338  -11.5411 C   0  0  2  0  0  0  0  0  0  0  0  0
   23.2955  -20.6141  -10.5712 N   0  0  0  0  0  0  0  0  0  0  0  0
   20.9611  -21.0449  -10.9255 C   0  0  0  0  0  0  0  0  0  0  0  0
   20.8483  -21.6603   -9.7066 O   0  0  0  0  0  0  0  0  0  0  0  0
   19.8601  -20.9271  -11.5740 O   0  0  0  0  0  0  0  0  0  0  0  0
  2  1  1  6
  3  2  1  0
  4  3  1  0
  5  4  1  0
  6  5  2  0
  7  2  1  0
  7  8  2  0
  9  5  1  0
 11 12  1  0
 11 10  1  0
 12 13  1  0
 14 13  1  1
 14 15  1  0
 15  7  1  0
 16 14  1  0
 17 16  2  0
 19 18  1  6
 19 21  1  0
 20 19  1  0
 22 21  1  6
 22 23  1  0
 22 24  1  0
 23 16  1  0
 24 25  1  0
 26 24  2  0
M  END
$$$$
