QMC.pdb
     RDKit          3D

 24 23  0  0  1  0  0  0  0  0999 V2000
   14.8100  -28.7252   -4.0216 N   0  0  0  0  0  0  0  0  0  0  0  0
   15.7839  -29.2859   -4.8767 C   0  0  0  0  0  0  0  0  0  0  0  0
   15.4329  -29.6499   -6.0119 O   0  0  0  0  0  0  0  0  0  0  0  0
   17.1714  -29.4343   -4.4268 C   0  0  0  0  0  0  0  0  0  0  0  0
   17.4395  -28.9909   -3.0448 C   0  0  0  0  0  0  0  0  0  0  0  0
   17.3410  -27.5196   -2.7694 C   0  0  2  0  0  0  0  0  0  0  0  0
   18.2169  -26.7347   -3.5516 N   0  0  0  0  0  0  0  0  0  0  0  0
   17.5963  -27.2469   -1.3049 C   0  0  0  0  0  0  0  0  0  0  0  0
   17.0053  -27.8576   -0.4004 O   0  0  0  0  0  0  0  0  0  0  0  0
   22.8790  -24.1404    2.1137 C   0  0  0  0  0  0  0  0  0  0  0  0
   22.5927  -24.2922    0.3407 S   0  0  0  0  0  0  0  0  0  0  0  0
   21.3177  -25.5765    0.0452 C   0  0  0  0  0  0  0  0  0  0  0  0
   20.0255  -25.0646    0.6587 C   0  0  0  0  0  0  0  0  0  0  0  0
   18.8773  -25.9955    0.4422 C   0  0  2  0  0  0  0  0  0  0  0  0
   18.5361  -26.2673   -0.9018 N   0  0  0  0  0  0  0  0  0  0  0  0
   17.7425  -25.4976    1.2528 C   0  0  0  0  0  0  0  0  0  0  0  0
   16.9685  -24.6442    0.7436 O   0  0  0  0  0  0  0  0  0  0  0  0
   17.4615  -25.9168    2.5734 N   0  0  0  0  0  0  0  0  0  0  0  0
   16.3177  -25.4183    3.3340 C   0  0  1  0  0  0  0  0  0  0  0  0
   15.3716  -26.5356    3.7023 C   0  0  0  0  0  0  0  0  0  0  0  0
   16.3244  -27.9781    4.3122 S   0  0  0  0  0  0  0  0  0  0  0  0
   16.8261  -24.7537    4.5576 C   0  0  0  0  0  0  0  0  0  0  0  0
   18.1745  -24.7930    4.8575 O   0  0  0  0  0  0  0  0  0  0  0  0
   16.0556  -24.1483    5.3383 O   0  0  0  0  0  0  0  0  0  0  0  0
  2  3  2  0
  2  1  1  0
  4  2  1  0
  5  4  1  0
  6  5  1  0
  6  7  1  6
  8  6  1  0
  9  8  2  0
 11 12  1  0
 11 10  1  0
 14 13  1  6
 13 12  1  0
 14 15  1  0
 15  8  1  0
 16 18  1  0
 16 14  1  0
 17 16  2  0
 19 22  1  0
 19 20  1  1
 19 18  1  0
 20 21  1  0
 22 23  1  0
 24 22  2  0
M  END
$$$$
