QMC.pdb
     RDKit          3D

 24 23  0  0  1  0  0  0  0  0999 V2000
   22.8719  -16.9778  -18.6970 N   0  0  0  0  0  0  0  0  0  0  0  0
   22.0091  -15.9163  -18.3464 C   0  0  0  0  0  0  0  0  0  0  0  0
   20.7902  -16.0574  -18.5430 O   0  0  0  0  0  0  0  0  0  0  0  0
   22.5471  -14.6808  -17.7689 C   0  0  0  0  0  0  0  0  0  0  0  0
   24.0195  -14.6017  -17.7029 C   0  0  0  0  0  0  0  0  0  0  0  0
   24.6908  -13.6143  -18.6109 C   0  0  2  0  0  0  0  0  0  0  0  0
   24.8300  -14.0683  -19.9412 N   0  0  0  0  0  0  0  0  0  0  0  0
   26.0499  -13.2447  -18.0626 C   0  0  0  0  0  0  0  0  0  0  0  0
   26.2046  -12.7802  -16.9222 O   0  0  0  0  0  0  0  0  0  0  0  0
   33.8720  -14.1576  -18.5000 C   0  0  0  0  0  0  0  0  0  0  0  0
   32.2217  -14.6959  -18.9853 S   0  0  0  0  0  0  0  0  0  0  0  0
   30.9913  -13.4731  -18.3910 C   0  0  0  0  0  0  0  0  0  0  0  0
   29.6241  -13.9794  -18.8187 C   0  0  0  0  0  0  0  0  0  0  0  0
   28.5187  -13.0562  -18.4219 C   0  0  2  0  0  0  0  0  0  0  0  0
   27.2191  -13.4178  -18.8425 N   0  0  0  0  0  0  0  0  0  0  0  0
   28.9143  -11.6884  -18.8287 C   0  0  0  0  0  0  0  0  0  0  0  0
   28.8682  -11.3876  -20.0509 O   0  0  0  0  0  0  0  0  0  0  0  0
   29.3448  -10.6833  -17.9325 N   0  0  0  0  0  0  0  0  0  0  0  0
   29.6525   -9.3209  -18.3622 C   0  0  1  0  0  0  0  0  0  0  0  0
   28.8745   -8.3025  -17.5643 C   0  0  0  0  0  0  0  0  0  0  0  0
   27.0926   -8.4216  -17.9780 S   0  0  0  0  0  0  0  0  0  0  0  0
   31.1086   -9.0978  -18.1959 C   0  0  0  0  0  0  0  0  0  0  0  0
   31.6860   -7.9275  -18.6504 O   0  0  0  0  0  0  0  0  0  0  0  0
   31.8403   -9.9536  -17.6464 O   0  0  0  0  0  0  0  0  0  0  0  0
  2  3  2  0
  2  1  1  0
  4  2  1  0
  5  4  1  0
  6  5  1  0
  6  7  1  6
  8  6  1  0
  9  8  2  0
 11 12  1  0
 11 10  1  0
 14 13  1  6
 13 12  1  0
 14 15  1  0
 15  8  1  0
 16 18  1  0
 16 14  1  0
 17 16  2  0
 19 22  1  0
 19 20  1  1
 19 18  1  0
 20 21  1  0
 22 23  1  0
 24 22  2  0
M  END
$$$$
