QMC.pdb
     RDKit          3D

 24 23  0  0  1  0  0  0  0  0999 V2000
   21.5023  -22.5484  -12.8262 N   0  0  0  0  0  0  0  0  0  0  0  0
   20.6215  -21.7602  -12.0535 C   0  0  0  0  0  0  0  0  0  0  0  0
   19.4494  -22.1491  -11.9150 O   0  0  0  0  0  0  0  0  0  0  0  0
   21.0860  -20.5139  -11.4367 C   0  0  0  0  0  0  0  0  0  0  0  0
   22.5097  -20.1917  -11.6553 C   0  0  0  0  0  0  0  0  0  0  0  0
   23.5035  -20.8334  -10.7330 C   0  0  2  0  0  0  0  0  0  0  0  0
   23.2706  -20.5601   -9.3669 N   0  0  0  0  0  0  0  0  0  0  0  0
   24.9052  -20.4022  -11.0985 C   0  0  0  0  0  0  0  0  0  0  0  0
   25.3828  -19.3143  -10.7395 O   0  0  0  0  0  0  0  0  0  0  0  0
   31.7541  -20.7127  -11.3824 C   0  0  0  0  0  0  0  0  0  0  0  0
   30.1410  -21.5143  -11.3208 S   0  0  0  0  0  0  0  0  0  0  0  0
   29.3492  -21.4001  -12.9707 C   0  0  0  0  0  0  0  0  0  0  0  0
   27.9266  -21.9098  -12.8136 C   0  0  0  0  0  0  0  0  0  0  0  0
   26.9629  -20.8253  -12.4573 C   0  0  2  0  0  0  0  0  0  0  0  0
   25.7421  -21.2377  -11.8776 N   0  0  0  0  0  0  0  0  0  0  0  0
   26.7918  -19.9716  -13.6552 C   0  0  0  0  0  0  0  0  0  0  0  0
   25.8295  -20.2111  -14.4318 O   0  0  0  0  0  0  0  0  0  0  0  0
   27.6412  -18.8933  -13.9936 N   0  0  0  0  0  0  0  0  0  0  0  0
   27.3494  -17.9715  -15.0893 C   0  0  1  0  0  0  0  0  0  0  0  0
   27.8297  -16.5748  -14.7772 C   0  0  0  0  0  0  0  0  0  0  0  0
   26.6306  -15.3485  -15.4246 S   0  0  0  0  0  0  0  0  0  0  0  0
   28.0125  -18.4793  -16.3141 C   0  0  0  0  0  0  0  0  0  0  0  0
   27.4895  -18.1823  -17.5582 O   0  0  0  0  0  0  0  0  0  0  0  0
   29.0491  -19.1801  -16.2509 O   0  0  0  0  0  0  0  0  0  0  0  0
  2  3  2  0
  2  1  1  0
  4  2  1  0
  5  4  1  0
  6  5  1  0
  6  7  1  1
  8  6  1  0
  9  8  2  0
 11 12  1  0
 11 10  1  0
 14 13  1  6
 13 12  1  0
 14 15  1  0
 15  8  1  0
 16 18  1  0
 16 14  1  0
 17 16  2  0
 19 22  1  0
 19 20  1  1
 19 18  1  0
 20 21  1  0
 22 23  1  0
 24 22  2  0
M  END
$$$$
