QMC.pdb
     RDKit          3D

 24 23  0  0  1  0  0  0  0  0999 V2000
   15.7665  -13.4661  -14.2784 N   0  0  0  0  0  0  0  0  0  0  0  0
   16.2959  -14.0487  -15.4507 C   0  0  0  0  0  0  0  0  0  0  0  0
   15.8148  -15.1250  -15.8435 O   0  0  0  0  0  0  0  0  0  0  0  0
   17.3883  -13.3949  -16.1778 C   0  0  0  0  0  0  0  0  0  0  0  0
   17.9436  -12.1881  -15.5347 C   0  0  0  0  0  0  0  0  0  0  0  0
   18.4855  -11.1213  -16.4394 C   0  0  2  0  0  0  0  0  0  0  0  0
   18.8090  -11.5840  -17.7342 N   0  0  0  0  0  0  0  0  0  0  0  0
   19.7051  -10.4819  -15.8165 C   0  0  0  0  0  0  0  0  0  0  0  0
   19.6853   -9.9700  -14.6860 O   0  0  0  0  0  0  0  0  0  0  0  0
   27.5213  -10.5111  -15.3530 C   0  0  0  0  0  0  0  0  0  0  0  0
   26.0763  -10.8910  -16.3612 S   0  0  0  0  0  0  0  0  0  0  0  0
   24.6081  -10.0569  -15.6464 C   0  0  0  0  0  0  0  0  0  0  0  0
   23.4075  -10.4977  -16.4665 C   0  0  0  0  0  0  0  0  0  0  0  0
   22.1296   -9.8889  -15.9889 C   0  0  2  0  0  0  0  0  0  0  0  0
   20.9387  -10.4421  -16.5108 N   0  0  0  0  0  0  0  0  0  0  0  0
   22.2363   -8.4243  -16.1800 C   0  0  0  0  0  0  0  0  0  0  0  0
   22.2904   -7.9736  -17.3550 O   0  0  0  0  0  0  0  0  0  0  0  0
   22.2820   -7.4839  -15.1254 N   0  0  0  0  0  0  0  0  0  0  0  0
   22.1693   -6.0437  -15.3457 C   0  0  1  0  0  0  0  0  0  0  0  0
   20.8391   -5.6828  -15.9615 C   0  0  0  0  0  0  0  0  0  0  0  0
   20.6124   -3.8640  -15.9239 S   0  0  0  0  0  0  0  0  0  0  0  0
   22.3322   -5.3589  -14.0411 C   0  0  0  0  0  0  0  0  0  0  0  0
   22.7099   -4.0302  -13.9991 O   0  0  0  0  0  0  0  0  0  0  0  0
   22.1337   -5.9604  -12.9602 O   0  0  0  0  0  0  0  0  0  0  0  0
  2  3  2  0
  2  1  1  0
  4  2  1  0
  5  4  1  0
  6  5  1  0
  6  7  1  6
  8  6  1  0
  9  8  2  0
 11 12  1  0
 11 10  1  0
 14 13  1  6
 13 12  1  0
 14 15  1  0
 15  8  1  0
 16 18  1  0
 16 14  1  0
 17 16  2  0
 19 22  1  0
 19 20  1  1
 19 18  1  0
 20 21  1  0
 22 23  1  0
 24 22  2  0
M  END
$$$$
