QMC.pdb
     RDKit          3D

 24 23  0  0  1  0  0  0  0  0999 V2000
   13.3201  -24.5446   -6.9354 N   0  0  0  0  0  0  0  0  0  0  0  0
   13.8776  -23.3728   -6.3786 C   0  0  0  0  0  0  0  0  0  0  0  0
   13.3299  -22.2847   -6.6242 O   0  0  0  0  0  0  0  0  0  0  0  0
   15.0750  -23.4471   -5.5359 C   0  0  0  0  0  0  0  0  0  0  0  0
   15.6056  -24.8055   -5.3082 C   0  0  0  0  0  0  0  0  0  0  0  0
   17.0704  -25.0155   -5.5538 C   0  0  2  0  0  0  0  0  0  0  0  0
   17.4011  -25.1758   -6.9177 N   0  0  0  0  0  0  0  0  0  0  0  0
   17.5612  -26.2141   -4.7749 C   0  0  0  0  0  0  0  0  0  0  0  0
   17.6918  -27.3357   -5.2900 O   0  0  0  0  0  0  0  0  0  0  0  0
   21.1879  -25.6973    0.3296 C   0  0  0  0  0  0  0  0  0  0  0  0
   20.7500  -27.4085    0.6887 S   0  0  0  0  0  0  0  0  0  0  0  0
   19.6133  -28.0240   -0.6118 C   0  0  0  0  0  0  0  0  0  0  0  0
   19.1197  -26.8082   -1.3777 C   0  0  0  0  0  0  0  0  0  0  0  0
   18.3464  -27.1746   -2.6023 C   0  0  2  0  0  0  0  0  0  0  0  0
   17.8971  -26.1012   -3.4039 N   0  0  0  0  0  0  0  0  0  0  0  0
   17.2650  -28.0965   -2.1857 C   0  0  0  0  0  0  0  0  0  0  0  0
   16.1968  -27.6052   -1.7338 O   0  0  0  0  0  0  0  0  0  0  0  0
   17.3461  -29.5060   -2.2602 N   0  0  0  0  0  0  0  0  0  0  0  0
   16.2667  -30.3841   -1.8140 C   0  0  1  0  0  0  0  0  0  0  0  0
   16.2033  -31.6444   -2.6426 C   0  0  0  0  0  0  0  0  0  0  0  0
   16.1797  -31.2136   -4.4243 S   0  0  0  0  0  0  0  0  0  0  0  0
   16.4984  -30.7195   -0.3887 C   0  0  0  0  0  0  0  0  0  0  0  0
   15.5965  -31.5164    0.2904 O   0  0  0  0  0  0  0  0  0  0  0  0
   17.5041  -30.2943    0.2256 O   0  0  0  0  0  0  0  0  0  0  0  0
  2  3  2  0
  2  1  1  0
  4  2  1  0
  5  4  1  0
  6  5  1  0
  6  7  1  6
  8  6  1  0
  9  8  2  0
 11 12  1  0
 11 10  1  0
 14 13  1  1
 13 12  1  0
 14 15  1  0
 15  8  1  0
 16 18  1  0
 16 14  1  0
 17 16  2  0
 19 22  1  0
 19 20  1  6
 19 18  1  0
 20 21  1  0
 22 23  1  0
 24 22  2  0
M  END
$$$$
