ETS.pdb
     RDKit          3D

 23 22  0  0  1  0  0  0  0  0999 V2000
   19.7728  -13.8713  -17.5156 N   0  0  0  0  0  0  0  0  0  0  0  0
   19.2293  -12.5434  -17.7196 C   0  0  1  0  0  0  0  0  0  0  0  0
   17.8837  -12.4870  -16.9989 C   0  0  0  0  0  0  0  0  0  0  0  0
   18.0550  -12.7775  -15.5243 C   0  0  0  0  0  0  0  0  0  0  0  0
   16.7571  -12.5413  -14.8574 C   0  0  0  0  0  0  0  0  0  0  0  0
   16.6552  -12.4529  -13.6179 O   0  0  0  0  0  0  0  0  0  0  0  0
   20.1548  -11.5597  -17.1058 C   0  0  0  0  0  0  0  0  0  0  0  0
   20.8473  -11.8660  -16.1052 O   0  0  0  0  0  0  0  0  0  0  0  0
   15.6183  -12.4140  -15.6372 O   0  0  0  0  0  0  0  0  0  0  0  0
   22.7838   -9.4132  -19.0360 C   0  0  0  0  0  0  0  0  0  0  0  0
   21.9267   -8.5279  -18.1940 C   0  0  1  0  0  0  0  0  0  0  0  0
   21.0167   -7.7867  -18.9459 O   0  0  0  0  0  0  0  0  0  0  0  0
   21.2430   -9.2696  -17.0654 C   0  0  2  0  0  0  0  0  0  0  0  0
   20.3110  -10.2359  -17.6032 N   0  0  0  0  0  0  0  0  0  0  0  0
   20.5445   -8.2672  -16.1997 C   0  0  0  0  0  0  0  0  0  0  0  0
   19.3084   -8.0753  -16.3326 O   0  0  0  0  0  0  0  0  0  0  0  0
   22.7133   -5.9583  -13.5030 O   0  0  0  0  0  0  0  0  0  0  0  0
   21.3958   -6.2001  -13.1445 C   0  0  0  0  0  0  0  0  0  0  0  0
   20.6087   -6.4507  -14.4363 C   0  0  2  0  0  0  0  0  0  0  0  0
   21.2204   -7.5011  -15.2110 N   0  0  0  0  0  0  0  0  0  0  0  0
   20.5191   -5.1750  -15.1749 C   0  0  0  0  0  0  0  0  0  0  0  0
   21.0548   -5.0057  -16.2965 O   0  0  0  0  0  0  0  0  0  0  0  0
   19.8244   -4.1271  -14.6200 O   0  0  0  0  0  0  0  0  0  0  0  0
  2  1  1  1
  2  3  1  0
  3  4  1  0
  4  5  1  0
  5  9  1  0
  6  5  2  0
  7 14  1  0
  7  2  1  0
  8  7  2  0
 11 10  1  6
 11 13  1  0
 12 11  1  0
 13 15  1  0
 13 14  1  6
 15 20  1  0
 16 15  2  0
 18 17  1  0
 19 21  1  0
 19 18  1  1
 20 19  1  0
 21 22  2  0
 21 23  1  0
M  END
$$$$
