ETS.pdb
     RDKit          3D

 23 22  0  0  1  0  0  0  0  0999 V2000
   17.3256  -10.4373  -14.9478 N   0  0  0  0  0  0  0  0  0  0  0  0
   17.6121   -9.1517  -15.5524 C   0  0  1  0  0  0  0  0  0  0  0  0
   16.3004   -8.3706  -15.6033 C   0  0  0  0  0  0  0  0  0  0  0  0
   15.3535   -8.9817  -16.6124 C   0  0  0  0  0  0  0  0  0  0  0  0
   14.0866   -8.2214  -16.5703 C   0  0  0  0  0  0  0  0  0  0  0  0
   13.8831   -7.3179  -15.7354 O   0  0  0  0  0  0  0  0  0  0  0  0
   18.5770   -8.4317  -14.6856 C   0  0  0  0  0  0  0  0  0  0  0  0
   18.5332   -8.5513  -13.4372 O   0  0  0  0  0  0  0  0  0  0  0  0
   13.0945   -8.5241  -17.4896 O   0  0  0  0  0  0  0  0  0  0  0  0
   22.3424   -7.7067  -15.8995 C   0  0  0  0  0  0  0  0  0  0  0  0
   21.9047   -7.4873  -14.4897 C   0  0  1  0  0  0  0  0  0  0  0  0
   22.8497   -6.7950  -13.7343 O   0  0  0  0  0  0  0  0  0  0  0  0
   20.5359   -6.8487  -14.3901 C   0  0  2  0  0  0  0  0  0  0  0  0
   19.5903   -7.5787  -15.2052 N   0  0  0  0  0  0  0  0  0  0  0  0
   20.6488   -5.4238  -14.8363 C   0  0  0  0  0  0  0  0  0  0  0  0
   20.9299   -5.1610  -16.0339 O   0  0  0  0  0  0  0  0  0  0  0  0
   19.4303   -0.8513  -14.1612 O   0  0  0  0  0  0  0  0  0  0  0  0
   19.4458   -2.1202  -13.6023 C   0  0  0  0  0  0  0  0  0  0  0  0
   20.4958   -2.9413  -14.3601 C   0  0  2  0  0  0  0  0  0  0  0  0
   20.4505   -4.3244  -13.9570 N   0  0  0  0  0  0  0  0  0  0  0  0
   21.8170   -2.3227  -14.1297 C   0  0  0  0  0  0  0  0  0  0  0  0
   22.6123   -2.7371  -13.2525 O   0  0  0  0  0  0  0  0  0  0  0  0
   22.1986   -1.2513  -14.9011 O   0  0  0  0  0  0  0  0  0  0  0  0
  2  1  1  1
  2  3  1  0
  3  4  1  0
  4  5  1  0
  5  9  1  0
  6  5  2  0
  7 14  1  0
  7  2  1  0
  8  7  2  0
 11 10  1  6
 11 13  1  0
 12 11  1  0
 13 15  1  0
 13 14  1  6
 15 20  1  0
 16 15  2  0
 18 17  1  0
 19 21  1  0
 19 18  1  1
 20 19  1  0
 21 22  2  0
 21 23  1  0
M  END
$$$$
