ETS.pdb
     RDKit          3D

 23 22  0  0  1  0  0  0  0  0999 V2000
   16.1756  -11.6810  -18.1500 N   0  0  0  0  0  0  0  0  0  0  0  0
   16.5908  -11.1243  -16.8780 C   0  0  1  0  0  0  0  0  0  0  0  0
   17.0096  -12.2912  -15.9858 C   0  0  0  0  0  0  0  0  0  0  0  0
   15.8048  -13.1077  -15.5735 C   0  0  0  0  0  0  0  0  0  0  0  0
   16.2665  -14.1783  -14.6649 C   0  0  0  0  0  0  0  0  0  0  0  0
   15.7616  -14.3553  -13.5386 O   0  0  0  0  0  0  0  0  0  0  0  0
   17.7610  -10.2432  -17.1126 C   0  0  0  0  0  0  0  0  0  0  0  0
   18.7662  -10.6619  -17.7364 O   0  0  0  0  0  0  0  0  0  0  0  0
   17.2935  -15.0111  -15.0806 O   0  0  0  0  0  0  0  0  0  0  0  0
   18.0262   -7.0365  -19.0652 C   0  0  0  0  0  0  0  0  0  0  0  0
   18.3960   -6.7627  -17.6455 C   0  0  1  0  0  0  0  0  0  0  0  0
   17.3730   -6.1384  -16.9337 O   0  0  0  0  0  0  0  0  0  0  0  0
   18.9087   -7.9900  -16.9228 C   0  0  2  0  0  0  0  0  0  0  0  0
   17.8151   -8.8973  -16.6543 N   0  0  0  0  0  0  0  0  0  0  0  0
   19.5683   -7.5464  -15.6537 C   0  0  0  0  0  0  0  0  0  0  0  0
   18.8965   -7.4593  -14.5938 O   0  0  0  0  0  0  0  0  0  0  0  0
   22.7099   -8.7824  -13.9358 O   0  0  0  0  0  0  0  0  0  0  0  0
   22.9651   -7.4482  -14.2144 C   0  0  0  0  0  0  0  0  0  0  0  0
   21.6111   -6.7496  -14.3867 C   0  0  2  0  0  0  0  0  0  0  0  0
   20.9476   -7.2098  -15.5807 N   0  0  0  0  0  0  0  0  0  0  0  0
   21.8433   -5.2911  -14.3889 C   0  0  0  0  0  0  0  0  0  0  0  0
   21.6995   -4.5866  -15.4168 O   0  0  0  0  0  0  0  0  0  0  0  0
   22.2322   -4.6730  -13.2247 O   0  0  0  0  0  0  0  0  0  0  0  0
  2  1  1  6
  2  3  1  0
  3  4  1  0
  4  5  1  0
  5  9  1  0
  6  5  2  0
  7 14  1  0
  7  2  1  0
  8  7  2  0
 11 10  1  6
 11 13  1  0
 12 11  1  0
 13 15  1  0
 13 14  1  1
 15 20  1  0
 16 15  2  0
 18 17  1  0
 19 21  1  0
 19 18  1  6
 20 19  1  0
 21 22  2  0
 21 23  1  0
M  END
$$$$
