ETS.pdb
     RDKit          3D

 23 22  0  0  1  0  0  0  0  0999 V2000
   20.9715  -14.3816  -16.7129 N   0  0  0  0  0  0  0  0  0  0  0  0
   20.6598  -13.1343  -17.3818 C   0  0  1  0  0  0  0  0  0  0  0  0
   19.3509  -13.3405  -18.1418 C   0  0  0  0  0  0  0  0  0  0  0  0
   19.5377  -14.3332  -19.2678 C   0  0  0  0  0  0  0  0  0  0  0  0
   18.2421  -14.4861  -19.9628 C   0  0  0  0  0  0  0  0  0  0  0  0
   17.9931  -13.9033  -21.0366 O   0  0  0  0  0  0  0  0  0  0  0  0
   20.4666  -12.0859  -16.3502 C   0  0  0  0  0  0  0  0  0  0  0  0
   19.7199  -12.2863  -15.3617 O   0  0  0  0  0  0  0  0  0  0  0  0
   17.2747  -15.3044  -19.4010 O   0  0  0  0  0  0  0  0  0  0  0  0
   23.0139  -10.5718  -14.1014 C   0  0  0  0  0  0  0  0  0  0  0  0
   22.3868   -9.4579  -14.8716 C   0  0  1  0  0  0  0  0  0  0  0  0
   23.2096   -8.9772  -15.8889 O   0  0  0  0  0  0  0  0  0  0  0  0
   21.0062   -9.8026  -15.3880 C   0  0  2  0  0  0  0  0  0  0  0  0
   21.1025  -10.8148  -16.4163 N   0  0  0  0  0  0  0  0  0  0  0  0
   20.3767   -8.5512  -15.9171 C   0  0  0  0  0  0  0  0  0  0  0  0
   20.5148   -8.2424  -17.1287 O   0  0  0  0  0  0  0  0  0  0  0  0
   17.2431   -4.9227  -15.1959 O   0  0  0  0  0  0  0  0  0  0  0  0
   17.7823   -6.0974  -14.6936 C   0  0  0  0  0  0  0  0  0  0  0  0
   18.9786   -6.4670  -15.5787 C   0  0  2  0  0  0  0  0  0  0  0  0
   19.6125   -7.6711  -15.1032 N   0  0  0  0  0  0  0  0  0  0  0  0
   19.8991   -5.3126  -15.6128 C   0  0  0  0  0  0  0  0  0  0  0  0
   20.9318   -5.2519  -14.9032 O   0  0  0  0  0  0  0  0  0  0  0  0
   19.6220   -4.2595  -16.4511 O   0  0  0  0  0  0  0  0  0  0  0  0
  2  1  1  1
  2  3  1  0
  3  4  1  0
  4  5  1  0
  5  9  1  0
  6  5  2  0
  7 14  1  0
  7  2  1  0
  8  7  2  0
 11 10  1  6
 11 13  1  0
 12 11  1  0
 13 15  1  0
 13 14  1  6
 15 20  1  0
 16 15  2  0
 18 17  1  0
 19 21  1  0
 19 18  1  1
 20 19  1  0
 21 22  2  0
 21 23  1  0
M  END
$$$$
