ETS.pdb
     RDKit          3D

 23 22  0  0  1  0  0  0  0  0999 V2000
   25.2092  -34.1555  -12.2045 N   0  0  0  0  0  0  0  0  0  0  0  0
   24.9553  -34.7840  -10.9235 C   0  0  1  0  0  0  0  0  0  0  0  0
   25.3151  -36.2620  -11.0628 C   0  0  0  0  0  0  0  0  0  0  0  0
   24.2630  -36.9945  -11.8658 C   0  0  0  0  0  0  0  0  0  0  0  0
   24.6950  -38.4006  -12.0114 C   0  0  0  0  0  0  0  0  0  0  0  0
   24.4129  -39.2717  -11.1652 O   0  0  0  0  0  0  0  0  0  0  0  0
   25.8412  -34.1580   -9.9116 C   0  0  0  0  0  0  0  0  0  0  0  0
   26.9722  -33.7183  -10.2313 O   0  0  0  0  0  0  0  0  0  0  0  0
   25.4371  -38.7599  -13.1256 O   0  0  0  0  0  0  0  0  0  0  0  0
   24.9979  -31.1819   -7.6881 C   0  0  0  0  0  0  0  0  0  0  0  0
   25.4207  -32.3189   -6.8188 C   0  0  1  0  0  0  0  0  0  0  0  0
   24.3491  -32.9216   -6.1621 O   0  0  0  0  0  0  0  0  0  0  0  0
   26.2689  -33.3368   -7.5509 C   0  0  2  0  0  0  0  0  0  0  0  0
   25.4713  -34.0206   -8.5446 N   0  0  0  0  0  0  0  0  0  0  0  0
   26.8216  -34.2984   -6.5447 C   0  0  0  0  0  0  0  0  0  0  0  0
   26.1744  -35.3344   -6.2445 O   0  0  0  0  0  0  0  0  0  0  0  0
   30.3997  -35.3115   -3.3913 O   0  0  0  0  0  0  0  0  0  0  0  0
   29.8911  -34.3787   -4.2824 C   0  0  0  0  0  0  0  0  0  0  0  0
   28.6063  -34.9674   -4.8773 C   0  0  2  0  0  0  0  0  0  0  0  0
   28.0697  -34.0980   -5.8941 N   0  0  0  0  0  0  0  0  0  0  0  0
   27.6562  -35.2078   -3.7724 C   0  0  0  0  0  0  0  0  0  0  0  0
   27.4760  -36.3443   -3.2728 O   0  0  0  0  0  0  0  0  0  0  0  0
   26.9374  -34.1519   -3.2656 O   0  0  0  0  0  0  0  0  0  0  0  0
  2  1  1  6
  2  3  1  0
  3  4  1  0
  4  5  1  0
  5  9  1  0
  6  5  2  0
  7 14  1  0
  7  2  1  0
  8  7  2  0
 11 10  1  6
 11 13  1  0
 12 11  1  0
 13 15  1  0
 13 14  1  6
 15 20  1  0
 16 15  2  0
 18 17  1  0
 19 21  1  0
 19 18  1  1
 20 19  1  0
 21 22  2  0
 21 23  1  0
M  END
$$$$
