ETS.pdb
     RDKit          3D

 23 22  0  0  1  0  0  0  0  0999 V2000
   18.6035  -13.0406  -16.2012 N   0  0  0  0  0  0  0  0  0  0  0  0
   18.2691  -11.6482  -16.4238 C   0  0  1  0  0  0  0  0  0  0  0  0
   17.0781  -11.3174  -15.5263 C   0  0  0  0  0  0  0  0  0  0  0  0
   15.8879  -12.1824  -15.8777 C   0  0  0  0  0  0  0  0  0  0  0  0
   14.7764  -11.8212  -14.9727 C   0  0  0  0  0  0  0  0  0  0  0  0
   14.7303  -12.2137  -13.7901 O   0  0  0  0  0  0  0  0  0  0  0  0
   19.4306  -10.8179  -16.0211 C   0  0  0  0  0  0  0  0  0  0  0  0
   20.1851  -11.1785  -15.0854 O   0  0  0  0  0  0  0  0  0  0  0  0
   13.7539  -11.0202  -15.4564 O   0  0  0  0  0  0  0  0  0  0  0  0
   22.3794   -9.7778  -18.1165 C   0  0  0  0  0  0  0  0  0  0  0  0
   21.7316   -8.5404  -17.5906 C   0  0  1  0  0  0  0  0  0  0  0  0
   20.9903   -7.8674  -18.5603 O   0  0  0  0  0  0  0  0  0  0  0  0
   20.9168   -8.7880  -16.3391 C   0  0  2  0  0  0  0  0  0  0  0  0
   19.7543   -9.5871  -16.6573 N   0  0  0  0  0  0  0  0  0  0  0  0
   20.5223   -7.4623  -15.7655 C   0  0  0  0  0  0  0  0  0  0  0  0
   19.5434   -6.8358  -16.2470 O   0  0  0  0  0  0  0  0  0  0  0  0
   22.8380   -5.7431  -12.7942 O   0  0  0  0  0  0  0  0  0  0  0  0
   21.5080   -5.3514  -12.7723 C   0  0  0  0  0  0  0  0  0  0  0  0
   20.9562   -5.5259  -14.1922 C   0  0  2  0  0  0  0  0  0  0  0  0
   21.2121   -6.8583  -14.6790 N   0  0  0  0  0  0  0  0  0  0  0  0
   21.5526   -4.4810  -15.0488 C   0  0  0  0  0  0  0  0  0  0  0  0
   22.2962   -4.7501  -16.0226 O   0  0  0  0  0  0  0  0  0  0  0  0
   21.2887   -3.1602  -14.7762 O   0  0  0  0  0  0  0  0  0  0  0  0
  2  1  1  1
  2  3  1  0
  3  4  1  0
  4  5  1  0
  5  9  1  0
  6  5  2  0
  7 14  1  0
  7  2  1  0
  8  7  2  0
 11 10  1  6
 11 13  1  0
 12 11  1  0
 13 15  1  0
 13 14  1  6
 15 20  1  0
 16 15  2  0
 18 17  1  0
 19 21  1  0
 19 18  1  1
 20 19  1  0
 21 22  2  0
 21 23  1  0
M  END
$$$$
