ETS.pdb
     RDKit          3D

 23 22  0  0  1  0  0  0  0  0999 V2000
   16.4861  -11.8874  -15.9708 N   0  0  0  0  0  0  0  0  0  0  0  0
   17.7828  -11.5218  -15.4369 C   0  0  1  0  0  0  0  0  0  0  0  0
   18.8083  -12.4835  -16.0344 C   0  0  0  0  0  0  0  0  0  0  0  0
   18.5755  -13.8916  -15.5331 C   0  0  0  0  0  0  0  0  0  0  0  0
   19.4788  -14.7966  -16.2746 C   0  0  0  0  0  0  0  0  0  0  0  0
   19.2464  -16.0161  -16.3907 O   0  0  0  0  0  0  0  0  0  0  0  0
   18.0959  -10.1392  -15.8742 C   0  0  0  0  0  0  0  0  0  0  0  0
   17.9485   -9.7948  -17.0719 O   0  0  0  0  0  0  0  0  0  0  0  0
   20.6202  -14.2703  -16.8590 O   0  0  0  0  0  0  0  0  0  0  0  0
   16.3414   -7.1218  -15.4805 C   0  0  0  0  0  0  0  0  0  0  0  0
   17.6383   -6.9121  -14.7726 C   0  0  1  0  0  0  0  0  0  0  0  0
   17.5292   -7.0689  -13.3918 O   0  0  0  0  0  0  0  0  0  0  0  0
   18.7625   -7.7513  -15.3412 C   0  0  2  0  0  0  0  0  0  0  0  0
   18.5728   -9.1392  -14.9816 N   0  0  0  0  0  0  0  0  0  0  0  0
   20.0584   -7.2254  -14.8058 C   0  0  0  0  0  0  0  0  0  0  0  0
   20.5003   -7.6457  -13.7056 O   0  0  0  0  0  0  0  0  0  0  0  0
   23.8245   -4.1942  -15.4328 O   0  0  0  0  0  0  0  0  0  0  0  0
   22.6582   -4.6957  -15.9904 C   0  0  0  0  0  0  0  0  0  0  0  0
   22.0322   -5.6467  -14.9633 C   0  0  2  0  0  0  0  0  0  0  0  0
   20.8353   -6.2520  -15.4914 N   0  0  0  0  0  0  0  0  0  0  0  0
   21.7867   -4.8854  -13.7218 C   0  0  0  0  0  0  0  0  0  0  0  0
   20.7614   -4.1826  -13.5528 O   0  0  0  0  0  0  0  0  0  0  0  0
   22.7115   -4.9429  -12.7069 O   0  0  0  0  0  0  0  0  0  0  0  0
  2  1  1  6
  2  3  1  0
  3  4  1  0
  4  5  1  0
  5  9  1  0
  6  5  2  0
  7 14  1  0
  7  2  1  0
  8  7  2  0
 11 10  1  6
 11 13  1  0
 12 11  1  0
 13 15  1  0
 13 14  1  1
 15 20  1  0
 16 15  2  0
 18 17  1  0
 19 21  1  0
 19 18  1  6
 20 19  1  0
 21 22  2  0
 21 23  1  0
M  END
$$$$
