ETS.pdb
     RDKit          3D

 23 22  0  0  1  0  0  0  0  0999 V2000
   19.3370  -13.6223  -17.2457 N   0  0  0  0  0  0  0  0  0  0  0  0
   18.8490  -12.2698  -17.0642 C   0  0  1  0  0  0  0  0  0  0  0  0
   18.0610  -12.2423  -15.7559 C   0  0  0  0  0  0  0  0  0  0  0  0
   16.8679  -13.1691  -15.8313 C   0  0  0  0  0  0  0  0  0  0  0  0
   16.0812  -13.0045  -14.5907 C   0  0  0  0  0  0  0  0  0  0  0  0
   16.2364  -13.7502  -13.6036 O   0  0  0  0  0  0  0  0  0  0  0  0
   20.0171  -11.3623  -16.9510 C   0  0  0  0  0  0  0  0  0  0  0  0
   21.1083  -11.7737  -16.4873 O   0  0  0  0  0  0  0  0  0  0  0  0
   15.1417  -11.9875  -14.5251 O   0  0  0  0  0  0  0  0  0  0  0  0
   21.8192   -9.4646  -19.6541 C   0  0  0  0  0  0  0  0  0  0  0  0
   21.3490   -8.4741  -18.6416 C   0  0  1  0  0  0  0  0  0  0  0  0
   20.2495   -7.7377  -19.0794 O   0  0  0  0  0  0  0  0  0  0  0  0
   21.0994   -9.0933  -17.2830 C   0  0  2  0  0  0  0  0  0  0  0  0
   19.9735   -9.9981  -17.3525 N   0  0  0  0  0  0  0  0  0  0  0  0
   20.8476   -7.9895  -16.3029 C   0  0  0  0  0  0  0  0  0  0  0  0
   19.7519   -7.9337  -15.6876 O   0  0  0  0  0  0  0  0  0  0  0  0
   21.5581   -5.6110  -12.6725 O   0  0  0  0  0  0  0  0  0  0  0  0
   21.5497   -6.6295  -13.6135 C   0  0  0  0  0  0  0  0  0  0  0  0
   21.6543   -5.9756  -14.9965 C   0  0  2  0  0  0  0  0  0  0  0  0
   21.8043   -6.9756  -16.0237 N   0  0  0  0  0  0  0  0  0  0  0  0
   22.7756   -5.0149  -14.9671 C   0  0  0  0  0  0  0  0  0  0  0  0
   22.7719   -3.9959  -14.2355 O   0  0  0  0  0  0  0  0  0  0  0  0
   23.8694   -5.2375  -15.7687 O   0  0  0  0  0  0  0  0  0  0  0  0
  2  1  1  1
  2  3  1  0
  3  4  1  0
  4  5  1  0
  5  9  1  0
  6  5  2  0
  7 14  1  0
  7  2  1  0
  8  7  2  0
 11 10  1  6
 11 13  1  0
 12 11  1  0
 13 15  1  0
 13 14  1  6
 15 20  1  0
 16 15  2  0
 18 17  1  0
 19 21  1  0
 19 18  1  1
 20 19  1  0
 21 22  2  0
 21 23  1  0
M  END
$$$$
