KKM.pdb
     RDKit          3D

 27 26  0  0  1  0  0  0  0  0999 V2000
   15.3154  -13.5167  -12.0318 N   0  0  0  0  0  0  0  0  0  0  0  0
   15.6487  -12.7837  -13.2212 C   0  0  1  0  0  0  0  0  0  0  0  0
   14.7521  -12.9877  -14.3782 C   0  0  0  0  0  0  0  0  0  0  0  0
   14.1486  -14.3454  -14.4634 C   0  0  0  0  0  0  0  0  0  0  0  0
   14.7967  -15.2115  -15.5036 C   0  0  0  0  0  0  0  0  0  0  0  0
   14.0869  -16.5791  -15.4065 C   0  0  0  0  0  0  0  0  0  0  0  0
   14.6430  -17.3355  -14.3062 N   0  0  0  0  0  0  0  0  0  0  0  0
   15.8040  -11.3100  -12.9145 C   0  0  0  0  0  0  0  0  0  0  0  0
   15.9527  -10.5766  -13.8980 O   0  0  0  0  0  0  0  0  0  0  0  0
   15.7706  -10.8937  -11.5992 N   0  0  0  0  0  0  0  0  0  0  0  0
   15.8584   -9.5571  -11.1405 C   0  0  1  0  0  0  0  0  0  0  0  0
   15.2373   -9.2834   -9.7914 C   0  0  0  0  0  0  0  0  0  0  0  0
   14.0237   -8.4120   -9.9817 C   0  0  0  0  0  0  0  0  0  0  0  0
   12.7699   -9.0985   -9.4265 C   0  0  0  0  0  0  0  0  0  0  0  0
   11.6016   -8.1282   -9.5212 C   0  0  0  0  0  0  0  0  0  0  0  0
   10.4138   -8.8036   -9.0732 N   0  0  0  0  0  0  0  0  0  0  0  0
   17.1671   -8.9757  -11.3645 C   0  0  0  0  0  0  0  0  0  0  0  0
   18.1718   -9.6229  -10.9026 O   0  0  0  0  0  0  0  0  0  0  0  0
   23.6172   -8.9572  -14.3003 C   0  0  0  0  0  0  0  0  0  0  0  0
   21.8886   -9.4615  -14.0689 S   0  0  0  0  0  0  0  0  0  0  0  0
   20.9452   -8.0501  -13.3762 C   0  0  0  0  0  0  0  0  0  0  0  0
   19.5600   -8.4807  -12.9949 C   0  0  0  0  0  0  0  0  0  0  0  0
   18.8191   -7.3899  -12.3008 C   0  0  2  0  0  0  0  0  0  0  0  0
   17.4415   -7.7816  -12.0328 N   0  0  0  0  0  0  0  0  0  0  0  0
   18.7458   -6.1935  -13.1651 C   0  0  0  0  0  0  0  0  0  0  0  0
   17.6618   -5.9983  -13.8138 O   0  0  0  0  0  0  0  0  0  0  0  0
   19.7358   -5.2665  -13.3351 O   0  0  0  0  0  0  0  0  0  0  0  0
  2  1  1  1
  2  8  1  0
  2  3  1  0
  4  5  1  0
  4  3  1  0
  6  5  1  0
  7  6  1  0
  8  9  2  0
 10 11  1  0
 10  8  1  0
 12 13  1  0
 11 12  1  1
 14 13  1  0
 15 14  1  0
 16 15  1  0
 17 18  2  0
 17 11  1  0
 19 20  1  0
 21 20  1  0
 21 22  1  0
 23 22  1  6
 23 24  1  0
 23 25  1  0
 24 17  1  0
 25 27  1  0
 26 25  2  0
M  END
$$$$
