KKM.pdb
     RDKit          3D

 27 26  0  0  1  0  0  0  0  0999 V2000
   20.1380  -23.9656  -15.7416 N   0  0  0  0  0  0  0  0  0  0  0  0
   19.6179  -22.6341  -15.6017 C   0  0  1  0  0  0  0  0  0  0  0  0
   18.9763  -22.3240  -14.3070 C   0  0  0  0  0  0  0  0  0  0  0  0
   18.0032  -23.3468  -13.8363 C   0  0  0  0  0  0  0  0  0  0  0  0
   16.6538  -22.7714  -13.5199 C   0  0  0  0  0  0  0  0  0  0  0  0
   15.7439  -23.9834  -13.2253 C   0  0  0  0  0  0  0  0  0  0  0  0
   14.3819  -23.5324  -13.0424 N   0  0  0  0  0  0  0  0  0  0  0  0
   20.6793  -21.6083  -15.9353 C   0  0  0  0  0  0  0  0  0  0  0  0
   20.3436  -20.4289  -15.7814 O   0  0  0  0  0  0  0  0  0  0  0  0
   21.9132  -22.0418  -16.3755 N   0  0  0  0  0  0  0  0  0  0  0  0
   22.9575  -21.2282  -16.8775 C   0  0  1  0  0  0  0  0  0  0  0  0
   24.2615  -21.9347  -17.1628 C   0  0  0  0  0  0  0  0  0  0  0  0
   25.3544  -20.9064  -17.2915 C   0  0  0  0  0  0  0  0  0  0  0  0
   26.6040  -21.3424  -16.5167 C   0  0  0  0  0  0  0  0  0  0  0  0
   27.4213  -22.2762  -17.3973 C   0  0  0  0  0  0  0  0  0  0  0  0
   28.4362  -22.8920  -16.5858 N   0  0  0  0  0  0  0  0  0  0  0  0
   22.5028  -20.3030  -17.8964 C   0  0  0  0  0  0  0  0  0  0  0  0
   21.7554  -20.7841  -18.8192 O   0  0  0  0  0  0  0  0  0  0  0  0
   21.4301  -13.6544  -17.9014 C   0  0  0  0  0  0  0  0  0  0  0  0
   20.2040  -14.5633  -18.8846 S   0  0  0  0  0  0  0  0  0  0  0  0
   20.9970  -16.0590  -19.5887 C   0  0  0  0  0  0  0  0  0  0  0  0
   21.5294  -16.9359  -18.4944 C   0  0  0  0  0  0  0  0  0  0  0  0
   22.2375  -18.1268  -19.0428 C   0  0  2  0  0  0  0  0  0  0  0  0
   22.7978  -18.9410  -17.9722 N   0  0  0  0  0  0  0  0  0  0  0  0
   23.3808  -17.7008  -19.8767 C   0  0  0  0  0  0  0  0  0  0  0  0
   24.5508  -17.8017  -19.3719 O   0  0  0  0  0  0  0  0  0  0  0  0
   23.3039  -17.2074  -21.1492 O   0  0  0  0  0  0  0  0  0  0  0  0
  2  1  1  1
  2  8  1  0
  2  3  1  0
  4  5  1  0
  4  3  1  0
  6  5  1  0
  7  6  1  0
  8  9  2  0
 10 11  1  0
 10  8  1  0
 12 13  1  0
 11 12  1  6
 14 13  1  0
 15 14  1  0
 16 15  1  0
 17 18  2  0
 17 11  1  0
 19 20  1  0
 21 20  1  0
 21 22  1  0
 23 22  1  1
 23 24  1  0
 23 25  1  0
 24 17  1  0
 25 27  1  0
 26 25  2  0
M  END
$$$$
