KKM.pdb
     RDKit          3D

 27 26  0  0  1  0  0  0  0  0999 V2000
   24.8277  -18.6164  -19.3535 N   0  0  0  0  0  0  0  0  0  0  0  0
   24.6404  -20.0180  -19.6058 C   0  0  1  0  0  0  0  0  0  0  0  0
   25.7231  -20.6899  -20.3543 C   0  0  0  0  0  0  0  0  0  0  0  0
   26.9768  -19.8975  -20.4766 C   0  0  0  0  0  0  0  0  0  0  0  0
   28.0397  -20.3273  -19.5083 C   0  0  0  0  0  0  0  0  0  0  0  0
   29.2759  -19.4630  -19.8376 C   0  0  0  0  0  0  0  0  0  0  0  0
   30.3110  -19.7063  -18.8570 N   0  0  0  0  0  0  0  0  0  0  0  0
   24.3370  -20.7562  -18.3201 C   0  0  0  0  0  0  0  0  0  0  0  0
   24.2481  -21.9846  -18.4225 O   0  0  0  0  0  0  0  0  0  0  0  0
   24.1841  -20.0338  -17.1544 N   0  0  0  0  0  0  0  0  0  0  0  0
   23.8370  -20.5549  -15.8846 C   0  0  1  0  0  0  0  0  0  0  0  0
   24.7916  -20.2336  -14.7592 C   0  0  0  0  0  0  0  0  0  0  0  0
   24.3976  -21.0311  -13.5438 C   0  0  0  0  0  0  0  0  0  0  0  0
   25.3538  -20.7518  -12.3778 C   0  0  0  0  0  0  0  0  0  0  0  0
   24.9423  -21.6145  -11.1938 C   0  0  0  0  0  0  0  0  0  0  0  0
   25.8455  -21.3522  -10.1061 N   0  0  0  0  0  0  0  0  0  0  0  0
   22.4279  -20.3976  -15.5836 C   0  0  0  0  0  0  0  0  0  0  0  0
   21.9698  -19.2010  -15.5791 O   0  0  0  0  0  0  0  0  0  0  0  0
   15.0605  -23.0574  -15.3550 C   0  0  0  0  0  0  0  0  0  0  0  0
   16.8056  -23.5381  -15.2152 S   0  0  0  0  0  0  0  0  0  0  0  0
   17.8208  -22.0295  -14.9801 C   0  0  0  0  0  0  0  0  0  0  0  0
   19.2744  -22.3372  -15.1847 C   0  0  0  0  0  0  0  0  0  0  0  0
   20.1143  -21.1114  -15.0749 C   0  0  2  0  0  0  0  0  0  0  0  0
   21.5209  -21.4193  -15.2983 N   0  0  0  0  0  0  0  0  0  0  0  0
   20.0273  -20.5546  -13.7088 C   0  0  0  0  0  0  0  0  0  0  0  0
   20.7668  -21.0797  -12.8080 O   0  0  0  0  0  0  0  0  0  0  0  0
   19.2254  -19.5198  -13.3153 O   0  0  0  0  0  0  0  0  0  0  0  0
  2  1  1  1
  2  8  1  0
  2  3  1  0
  4  5  1  0
  4  3  1  0
  6  5  1  0
  7  6  1  0
  8  9  2  0
 10 11  1  0
 10  8  1  0
 12 13  1  0
 11 12  1  1
 14 13  1  0
 15 14  1  0
 16 15  1  0
 17 18  2  0
 17 11  1  0
 19 20  1  0
 21 20  1  0
 21 22  1  0
 23 22  1  1
 23 24  1  0
 23 25  1  0
 24 17  1  0
 25 27  1  0
 26 25  2  0
M  END
$$$$
