KKM.pdb
     RDKit          3D

 27 26  0  0  1  0  0  0  0  0999 V2000
   23.9385  -18.0457  -20.4970 N   0  0  0  0  0  0  0  0  0  0  0  0
   24.0063  -17.4790  -19.1789 C   0  0  1  0  0  0  0  0  0  0  0  0
   23.2990  -16.1951  -18.9907 C   0  0  0  0  0  0  0  0  0  0  0  0
   22.8252  -15.5577  -20.2492 C   0  0  0  0  0  0  0  0  0  0  0  0
   21.3376  -15.6448  -20.4274 C   0  0  0  0  0  0  0  0  0  0  0  0
   21.0329  -14.9023  -21.7462 C   0  0  0  0  0  0  0  0  0  0  0  0
   21.6348  -13.5875  -21.7110 N   0  0  0  0  0  0  0  0  0  0  0  0
   23.5717  -18.4898  -18.1399 C   0  0  0  0  0  0  0  0  0  0  0  0
   22.4495  -18.9779  -18.3121 O   0  0  0  0  0  0  0  0  0  0  0  0
   24.4286  -18.7914  -17.1012 N   0  0  0  0  0  0  0  0  0  0  0  0
   24.1909  -19.7231  -16.0620 C   0  0  1  0  0  0  0  0  0  0  0  0
   25.4165  -20.2235  -15.3351 C   0  0  0  0  0  0  0  0  0  0  0  0
   26.2330  -21.0656  -16.2798 C   0  0  0  0  0  0  0  0  0  0  0  0
   27.3430  -21.8072  -15.5250 C   0  0  0  0  0  0  0  0  0  0  0  0
   28.1520  -22.6203  -16.5249 C   0  0  0  0  0  0  0  0  0  0  0  0
   29.1090  -23.4101  -15.7983 N   0  0  0  0  0  0  0  0  0  0  0  0
   23.0671  -19.3508  -15.2257 C   0  0  0  0  0  0  0  0  0  0  0  0
   22.9733  -18.1142  -14.9036 O   0  0  0  0  0  0  0  0  0  0  0  0
   18.9181  -15.8739  -15.9547 C   0  0  0  0  0  0  0  0  0  0  0  0
   17.8867  -17.2560  -15.3871 S   0  0  0  0  0  0  0  0  0  0  0  0
   18.8703  -18.3031  -14.2478 C   0  0  0  0  0  0  0  0  0  0  0  0
   20.1425  -18.7456  -14.9076 C   0  0  0  0  0  0  0  0  0  0  0  0
   20.9233  -19.6634  -14.0310 C   0  0  2  0  0  0  0  0  0  0  0  0
   22.0774  -20.2048  -14.7367 N   0  0  0  0  0  0  0  0  0  0  0  0
   20.0960  -20.8251  -13.6439 C   0  0  0  0  0  0  0  0  0  0  0  0
   20.2323  -21.9002  -14.3217 O   0  0  0  0  0  0  0  0  0  0  0  0
   19.1928  -20.8588  -12.6183 O   0  0  0  0  0  0  0  0  0  0  0  0
  2  1  1  6
  2  8  1  0
  2  3  1  0
  4  5  1  0
  4  3  1  0
  6  5  1  0
  7  6  1  0
  8  9  2  0
 10 11  1  0
 10  8  1  0
 12 13  1  0
 11 12  1  1
 14 13  1  0
 15 14  1  0
 16 15  1  0
 17 18  2  0
 17 11  1  0
 19 20  1  0
 21 20  1  0
 21 22  1  0
 23 22  1  6
 23 24  1  0
 23 25  1  0
 24 17  1  0
 25 27  1  0
 26 25  2  0
M  END
$$$$
