KKM.pdb
     RDKit          3D

 27 26  0  0  1  0  0  0  0  0999 V2000
   21.3092  -17.7577  -19.6865 N   0  0  0  0  0  0  0  0  0  0  0  0
   20.9128  -17.2764  -18.3926 C   0  0  1  0  0  0  0  0  0  0  0  0
   19.5866  -16.6281  -18.3230 C   0  0  0  0  0  0  0  0  0  0  0  0
   19.5645  -15.2107  -18.7760 C   0  0  0  0  0  0  0  0  0  0  0  0
   19.5565  -14.2312  -17.6391 C   0  0  0  0  0  0  0  0  0  0  0  0
   19.4523  -12.8365  -18.2930 C   0  0  0  0  0  0  0  0  0  0  0  0
   19.4433  -11.8197  -17.2643 N   0  0  0  0  0  0  0  0  0  0  0  0
   21.0308  -18.3725  -17.3559 C   0  0  0  0  0  0  0  0  0  0  0  0
   20.0299  -19.0848  -17.2213 O   0  0  0  0  0  0  0  0  0  0  0  0
   22.2098  -18.5016  -16.6507 N   0  0  0  0  0  0  0  0  0  0  0  0
   22.4744  -19.4406  -15.6245 C   0  0  1  0  0  0  0  0  0  0  0  0
   23.9330  -19.6973  -15.3289 C   0  0  0  0  0  0  0  0  0  0  0  0
   24.3719  -20.9290  -16.0765 C   0  0  0  0  0  0  0  0  0  0  0  0
   25.8917  -21.1098  -15.9799 C   0  0  0  0  0  0  0  0  0  0  0  0
   26.3017  -22.2689  -16.8765 C   0  0  0  0  0  0  0  0  0  0  0  0
   27.7335  -22.3931  -16.8308 N   0  0  0  0  0  0  0  0  0  0  0  0
   21.6167  -19.2612  -14.4700 C   0  0  0  0  0  0  0  0  0  0  0  0
   21.3561  -18.0543  -14.1279 O   0  0  0  0  0  0  0  0  0  0  0  0
   15.2436  -18.0683  -11.2114 C   0  0  0  0  0  0  0  0  0  0  0  0
   16.2589  -18.6853  -12.5842 S   0  0  0  0  0  0  0  0  0  0  0  0
   17.9168  -19.1343  -11.9425 C   0  0  0  0  0  0  0  0  0  0  0  0
   18.8611  -19.4108  -13.0745 C   0  0  0  0  0  0  0  0  0  0  0  0
   20.1660  -19.9363  -12.5830 C   0  0  2  0  0  0  0  0  0  0  0  0
   21.0467  -20.2718  -13.6943 N   0  0  0  0  0  0  0  0  0  0  0  0
   19.9591  -21.1903  -11.8292 C   0  0  0  0  0  0  0  0  0  0  0  0
   20.0923  -22.2912  -12.4650 O   0  0  0  0  0  0  0  0  0  0  0  0
   19.6386  -21.2844  -10.5037 O   0  0  0  0  0  0  0  0  0  0  0  0
  2  1  1  6
  2  8  1  0
  2  3  1  0
  4  5  1  0
  4  3  1  0
  6  5  1  0
  7  6  1  0
  8  9  2  0
 10 11  1  0
 10  8  1  0
 12 13  1  0
 11 12  1  1
 14 13  1  0
 15 14  1  0
 16 15  1  0
 17 18  2  0
 17 11  1  0
 19 20  1  0
 21 20  1  0
 21 22  1  0
 23 22  1  6
 23 24  1  0
 23 25  1  0
 24 17  1  0
 25 27  1  0
 26 25  2  0
M  END
$$$$
