KKM.pdb
     RDKit          3D

 27 26  0  0  1  0  0  0  0  0999 V2000
   17.4015  -12.8027  -15.4578 N   0  0  0  0  0  0  0  0  0  0  0  0
   18.5966  -12.5391  -16.2096 C   0  0  1  0  0  0  0  0  0  0  0  0
   18.6425  -13.1114  -17.5714 C   0  0  0  0  0  0  0  0  0  0  0  0
   17.3791  -13.7619  -18.0136 C   0  0  0  0  0  0  0  0  0  0  0  0
   17.3635  -15.2421  -17.7668 C   0  0  0  0  0  0  0  0  0  0  0  0
   16.1163  -15.7734  -18.5055 C   0  0  0  0  0  0  0  0  0  0  0  0
   16.4775  -16.1508  -19.8543 N   0  0  0  0  0  0  0  0  0  0  0  0
   18.8925  -11.0553  -16.2396 C   0  0  0  0  0  0  0  0  0  0  0  0
   19.8241  -10.7153  -16.9771 O   0  0  0  0  0  0  0  0  0  0  0  0
   18.1279  -10.2054  -15.4668 N   0  0  0  0  0  0  0  0  0  0  0  0
   18.2730   -8.8002  -15.3717 C   0  0  1  0  0  0  0  0  0  0  0  0
   17.0279   -8.0355  -14.9898 C   0  0  0  0  0  0  0  0  0  0  0  0
   16.2462   -7.7226  -16.2385 C   0  0  0  0  0  0  0  0  0  0  0  0
   15.0212   -6.8604  -15.9105 C   0  0  0  0  0  0  0  0  0  0  0  0
   14.2356   -6.6237  -17.1920 C   0  0  0  0  0  0  0  0  0  0  0  0
   12.9861   -6.0001  -16.8491 N   0  0  0  0  0  0  0  0  0  0  0  0
   19.4900   -8.4104  -14.6877 C   0  0  0  0  0  0  0  0  0  0  0  0
   19.8331   -9.1162  -13.6750 O   0  0  0  0  0  0  0  0  0  0  0  0
   26.4305   -9.8776  -14.0113 C   0  0  0  0  0  0  0  0  0  0  0  0
   24.7913   -9.9388  -14.7894 S   0  0  0  0  0  0  0  0  0  0  0  0
   23.8727   -8.4108  -14.3613 C   0  0  0  0  0  0  0  0  0  0  0  0
   22.4670   -8.4804  -14.8796 C   0  0  0  0  0  0  0  0  0  0  0  0
   21.6799   -7.2763  -14.4910 C   0  0  2  0  0  0  0  0  0  0  0  0
   20.3248   -7.3432  -15.0224 N   0  0  0  0  0  0  0  0  0  0  0  0
   22.2890   -6.0606  -15.0698 C   0  0  0  0  0  0  0  0  0  0  0  0
   21.8386   -5.6515  -16.1939 O   0  0  0  0  0  0  0  0  0  0  0  0
   23.2955   -5.3247  -14.5095 O   0  0  0  0  0  0  0  0  0  0  0  0
  2  1  1  6
  2  8  1  0
  2  3  1  0
  4  5  1  0
  4  3  1  0
  6  5  1  0
  7  6  1  0
  8  9  2  0
 10 11  1  0
 10  8  1  0
 12 13  1  0
 11 12  1  1
 14 13  1  0
 15 14  1  0
 16 15  1  0
 17 18  2  0
 17 11  1  0
 19 20  1  0
 21 20  1  0
 21 22  1  0
 23 22  1  6
 23 24  1  0
 23 25  1  0
 24 17  1  0
 25 27  1  0
 26 25  2  0
M  END
$$$$
