KKM.pdb
     RDKit          3D

 27 26  0  0  1  0  0  0  0  0999 V2000
   21.6604  -20.2073  -16.4856 N   0  0  0  0  0  0  0  0  0  0  0  0
   22.3462  -19.4029  -15.5132 C   0  0  1  0  0  0  0  0  0  0  0  0
   21.4880  -18.6861  -14.5469 C   0  0  0  0  0  0  0  0  0  0  0  0
   20.4807  -17.7811  -15.1643 C   0  0  0  0  0  0  0  0  0  0  0  0
   21.0657  -16.4771  -15.6221 C   0  0  0  0  0  0  0  0  0  0  0  0
   19.8909  -15.4754  -15.6320 C   0  0  0  0  0  0  0  0  0  0  0  0
   18.6837  -16.1502  -16.0557 N   0  0  0  0  0  0  0  0  0  0  0  0
   23.4012  -20.2164  -14.7953 C   0  0  0  0  0  0  0  0  0  0  0  0
   23.0527  -21.3511  -14.4515 O   0  0  0  0  0  0  0  0  0  0  0  0
   24.6437  -19.6569  -14.5780 N   0  0  0  0  0  0  0  0  0  0  0  0
   25.7535  -20.2906  -13.9686 C   0  0  1  0  0  0  0  0  0  0  0  0
   27.1129  -19.8110  -14.4190 C   0  0  0  0  0  0  0  0  0  0  0  0
   27.4783  -20.5152  -15.6992 C   0  0  0  0  0  0  0  0  0  0  0  0
   28.8448  -20.0410  -16.2088 C   0  0  0  0  0  0  0  0  0  0  0  0
   29.0990  -20.6658  -17.5727 C   0  0  0  0  0  0  0  0  0  0  0  0
   30.4061  -20.2652  -18.0184 N   0  0  0  0  0  0  0  0  0  0  0  0
   25.5835  -20.4593  -12.5391 C   0  0  0  0  0  0  0  0  0  0  0  0
   24.6823  -19.7423  -11.9775 O   0  0  0  0  0  0  0  0  0  0  0  0
   27.7608  -18.4337   -7.4007 C   0  0  0  0  0  0  0  0  0  0  0  0
   27.5621  -20.1487   -6.8391 S   0  0  0  0  0  0  0  0  0  0  0  0
   26.4009  -21.0122   -7.9651 C   0  0  0  0  0  0  0  0  0  0  0  0
   26.8440  -20.8649   -9.3904 C   0  0  0  0  0  0  0  0  0  0  0  0
   25.8961  -21.5279  -10.3298 C   0  0  2  0  0  0  0  0  0  0  0  0
   26.3034  -21.3246  -11.7140 N   0  0  0  0  0  0  0  0  0  0  0  0
   24.5513  -20.9281  -10.2046 C   0  0  0  0  0  0  0  0  0  0  0  0
   23.7907  -21.3702   -9.2772 O   0  0  0  0  0  0  0  0  0  0  0  0
   24.0412  -19.9343  -10.9924 O   0  0  0  0  0  0  0  0  0  0  0  0
  2  1  1  1
  2  8  1  0
  2  3  1  0
  4  5  1  0
  4  3  1  0
  6  5  1  0
  7  6  1  0
  8  9  2  0
 10 11  1  0
 10  8  1  0
 12 13  1  0
 11 12  1  1
 14 13  1  0
 15 14  1  0
 16 15  1  0
 17 18  2  0
 17 11  1  0
 19 20  1  0
 21 20  1  0
 21 22  1  0
 23 22  1  1
 23 24  1  0
 23 25  1  0
 24 17  1  0
 25 27  1  0
 26 25  2  0
M  END
$$$$
