KKM.pdb
     RDKit          3D

 27 26  0  0  1  0  0  0  0  0999 V2000
   24.8559  -22.4070  -19.4397 N   0  0  0  0  0  0  0  0  0  0  0  0
   25.2462  -21.6348  -18.2933 C   0  0  1  0  0  0  0  0  0  0  0  0
   26.4657  -20.8152  -18.4513 C   0  0  0  0  0  0  0  0  0  0  0  0
   27.7032  -21.5924  -18.7331 C   0  0  0  0  0  0  0  0  0  0  0  0
   28.3115  -22.1945  -17.5004 C   0  0  0  0  0  0  0  0  0  0  0  0
   29.6413  -22.8294  -17.9609 C   0  0  0  0  0  0  0  0  0  0  0  0
   30.3397  -23.3724  -16.8165 N   0  0  0  0  0  0  0  0  0  0  0  0
   24.0913  -20.7908  -17.7993 C   0  0  0  0  0  0  0  0  0  0  0  0
   23.5250  -20.1105  -18.6618 O   0  0  0  0  0  0  0  0  0  0  0  0
   23.7560  -20.8339  -16.4614 N   0  0  0  0  0  0  0  0  0  0  0  0
   22.7557  -20.0619  -15.8227 C   0  0  1  0  0  0  0  0  0  0  0  0
   22.4811  -20.4078  -14.3784 C   0  0  0  0  0  0  0  0  0  0  0  0
   21.3101  -19.5924  -13.8965 C   0  0  0  0  0  0  0  0  0  0  0  0
   19.9992  -20.1201  -14.4922 C   0  0  0  0  0  0  0  0  0  0  0  0
   18.8689  -19.1865  -14.0845 C   0  0  0  0  0  0  0  0  0  0  0  0
   17.6254  -19.7634  -14.5188 N   0  0  0  0  0  0  0  0  0  0  0  0
   22.8640  -18.6486  -16.1254 C   0  0  0  0  0  0  0  0  0  0  0  0
   23.9713  -18.0783  -15.8252 O   0  0  0  0  0  0  0  0  0  0  0  0
   23.7609  -12.7519  -20.6117 C   0  0  0  0  0  0  0  0  0  0  0  0
   23.7023  -14.5262  -20.2318 S   0  0  0  0  0  0  0  0  0  0  0  0
   22.9153  -14.7573  -18.5919 C   0  0  0  0  0  0  0  0  0  0  0  0
   22.7479  -16.2171  -18.2906 C   0  0  0  0  0  0  0  0  0  0  0  0
   22.1354  -16.4325  -16.9494 C   0  0  2  0  0  0  0  0  0  0  0  0
   21.8825  -17.8476  -16.7111 N   0  0  0  0  0  0  0  0  0  0  0  0
   20.8207  -15.7618  -16.8758 C   0  0  0  0  0  0  0  0  0  0  0  0
   19.7772  -16.4959  -16.9547 O   0  0  0  0  0  0  0  0  0  0  0  0
   20.6141  -14.4188  -16.7271 O   0  0  0  0  0  0  0  0  0  0  0  0
  2  1  1  6
  2  8  1  0
  2  3  1  0
  4  5  1  0
  4  3  1  0
  6  5  1  0
  7  6  1  0
  8  9  2  0
 10 11  1  0
 10  8  1  0
 12 13  1  0
 11 12  1  1
 14 13  1  0
 15 14  1  0
 16 15  1  0
 17 18  2  0
 17 11  1  0
 19 20  1  0
 21 20  1  0
 21 22  1  0
 23 22  1  6
 23 24  1  0
 23 25  1  0
 24 17  1  0
 25 27  1  0
 26 25  2  0
M  END
$$$$
