EEN.pdb
     RDKit          3D

 27 26  0  0  1  0  0  0  0  0999 V2000
   13.4552  -13.5916   17.5152 N   0  0  0  0  0  0  0  0  0  0  0  0
   14.4457  -14.6170   17.4650 C   0  0  1  0  0  0  0  0  0  0  0  0
   15.7701  -14.0853   17.8993 C   0  0  0  0  0  0  0  0  0  0  0  0
   16.4142  -13.1421   16.9286 C   0  0  0  0  0  0  0  0  0  0  0  0
   17.7553  -12.7726   17.3691 C   0  0  0  0  0  0  0  0  0  0  0  0
   18.8027  -12.8498   16.6656 O   0  0  0  0  0  0  0  0  0  0  0  0
   14.0943  -15.7267   18.4118 C   0  0  0  0  0  0  0  0  0  0  0  0
   13.3168  -15.4424   19.3581 O   0  0  0  0  0  0  0  0  0  0  0  0
   17.9360  -12.2859   18.6795 O   0  0  0  0  0  0  0  0  0  0  0  0
   14.6298  -17.0200   18.2196 N   0  0  0  0  0  0  0  0  0  0  0  0
   14.2954  -18.1103   19.1622 C   0  0  1  0  0  0  0  0  0  0  0  0
   14.2284  -19.3958   18.4289 C   0  0  0  0  0  0  0  0  0  0  0  0
   13.1080  -19.6028   17.4844 C   0  0  0  0  0  0  0  0  0  0  0  0
   13.1584  -21.0036   16.9033 C   0  0  0  0  0  0  0  0  0  0  0  0
   13.4477  -21.9904   17.6430 O   0  0  0  0  0  0  0  0  0  0  0  0
   15.2883  -18.0282   20.2466 C   0  0  0  0  0  0  0  0  0  0  0  0
   16.4969  -17.6812   19.9996 O   0  0  0  0  0  0  0  0  0  0  0  0
   12.8981  -21.2543   15.5795 O   0  0  0  0  0  0  0  0  0  0  0  0
   15.8559  -15.3945   22.2955 N   0  0  0  0  0  0  0  0  0  0  0  0
   15.4573  -15.9230   23.5407 C   0  0  0  0  0  0  0  0  0  0  0  0
   15.0417  -15.1423   24.4158 O   0  0  0  0  0  0  0  0  0  0  0  0
   15.5343  -17.3540   23.7867 C   0  0  0  0  0  0  0  0  0  0  0  0
   15.9795  -18.1666   22.5990 C   0  0  2  0  0  0  0  0  0  0  0  0
   14.9816  -18.3137   21.5941 N   0  0  0  0  0  0  0  0  0  0  0  0
   16.3490  -19.5053   23.1241 C   0  0  0  0  0  0  0  0  0  0  0  0
   17.4191  -19.6591   24.0029 O   0  0  0  0  0  0  0  0  0  0  0  0
   15.6972  -20.5041   22.7769 O   0  0  0  0  0  0  0  0  0  0  0  0
  2  1  1  1
  2  7  1  0
  3  4  1  0
  3  2  1  0
  4  5  1  0
  5  6  2  0
  7  8  2  0
  7 10  1  0
  9  5  1  0
 10 11  1  0
 11 16  1  0
 11 12  1  6
 12 13  1  0
 13 14  1  0
 14 18  1  0
 15 14  2  0
 16 17  2  0
 19 20  1  0
 20 21  2  0
 23 22  1  1
 22 20  1  0
 24 23  1  0
 24 16  1  0
 25 23  1  0
 26 25  1  0
 27 25  2  0
M  END
$$$$
