EEN.pdb
     RDKit          3D

 27 26  0  0  1  0  0  0  0  0999 V2000
    4.7582  -23.2945   21.6900 N   0  0  0  0  0  0  0  0  0  0  0  0
    4.6981  -22.1270   22.5074 C   0  0  1  0  0  0  0  0  0  0  0  0
    3.7689  -22.3405   23.6549 C   0  0  0  0  0  0  0  0  0  0  0  0
    4.1455  -23.4724   24.5624 C   0  0  0  0  0  0  0  0  0  0  0  0
    3.1687  -23.6309   25.6347 C   0  0  0  0  0  0  0  0  0  0  0  0
    3.2801  -24.4231   26.6134 O   0  0  0  0  0  0  0  0  0  0  0  0
    6.0475  -21.8319   23.0934 C   0  0  0  0  0  0  0  0  0  0  0  0
    6.7051  -22.8111   23.5288 O   0  0  0  0  0  0  0  0  0  0  0  0
    1.9929  -22.8540   25.6105 O   0  0  0  0  0  0  0  0  0  0  0  0
    6.5268  -20.5036   23.1381 N   0  0  0  0  0  0  0  0  0  0  0  0
    7.8779  -20.2186   23.6696 C   0  0  1  0  0  0  0  0  0  0  0  0
    8.6697  -19.4953   22.6478 C   0  0  0  0  0  0  0  0  0  0  0  0
   10.0303  -19.0407   23.0122 C   0  0  0  0  0  0  0  0  0  0  0  0
   10.7069  -18.3893   21.8204 C   0  0  0  0  0  0  0  0  0  0  0  0
   11.7907  -18.8621   21.3658 O   0  0  0  0  0  0  0  0  0  0  0  0
    7.6716  -19.5213   24.9501 C   0  0  0  0  0  0  0  0  0  0  0  0
    6.6072  -18.8384   25.1569 O   0  0  0  0  0  0  0  0  0  0  0  0
   10.1837  -17.2836   21.1987 O   0  0  0  0  0  0  0  0  0  0  0  0
    8.3697  -21.6197   27.8044 N   0  0  0  0  0  0  0  0  0  0  0  0
    7.2236  -20.8970   28.1954 C   0  0  0  0  0  0  0  0  0  0  0  0
    6.2763  -21.5144   28.7145 O   0  0  0  0  0  0  0  0  0  0  0  0
    7.1606  -19.4587   27.9917 C   0  0  0  0  0  0  0  0  0  0  0  0
    8.3274  -18.8864   27.2299 C   0  0  2  0  0  0  0  0  0  0  0  0
    8.6051  -19.5617   26.0076 N   0  0  0  0  0  0  0  0  0  0  0  0
    9.5047  -18.9926   28.1283 C   0  0  0  0  0  0  0  0  0  0  0  0
    9.5026  -18.3912   29.3850 O   0  0  0  0  0  0  0  0  0  0  0  0
   10.5071  -19.6256   27.7573 O   0  0  0  0  0  0  0  0  0  0  0  0
  2  1  1  6
  2  7  1  0
  3  4  1  0
  3  2  1  0
  4  5  1  0
  5  6  2  0
  7  8  2  0
  7 10  1  0
  9  5  1  0
 10 11  1  0
 11 16  1  0
 11 12  1  6
 12 13  1  0
 13 14  1  0
 14 18  1  0
 15 14  2  0
 16 17  2  0
 19 20  1  0
 20 21  2  0
 23 22  1  1
 22 20  1  0
 24 23  1  0
 24 16  1  0
 25 23  1  0
 26 25  1  0
 27 25  2  0
M  END
$$$$
