EEN.pdb
     RDKit          3D

 27 26  0  0  1  0  0  0  0  0999 V2000
    9.5721  -17.5828   18.7352 N   0  0  0  0  0  0  0  0  0  0  0  0
    9.2608  -16.7437   19.8461 C   0  0  1  0  0  0  0  0  0  0  0  0
    7.8124  -16.8468   20.1885 C   0  0  0  0  0  0  0  0  0  0  0  0
    7.2958  -18.2489   20.3059 C   0  0  0  0  0  0  0  0  0  0  0  0
    5.8628  -18.2575   20.5811 C   0  0  0  0  0  0  0  0  0  0  0  0
    5.1458  -17.2309   20.7540 O   0  0  0  0  0  0  0  0  0  0  0  0
   10.0241  -17.1837   21.0607 C   0  0  0  0  0  0  0  0  0  0  0  0
    9.8736  -18.3774   21.4257 O   0  0  0  0  0  0  0  0  0  0  0  0
    5.1894  -19.4927   20.6683 O   0  0  0  0  0  0  0  0  0  0  0  0
   10.8648  -16.2730   21.7391 N   0  0  0  0  0  0  0  0  0  0  0  0
   11.7390  -16.7442   22.8358 C   0  0  1  0  0  0  0  0  0  0  0  0
   13.0127  -15.9882   22.8135 C   0  0  0  0  0  0  0  0  0  0  0  0
   13.9524  -16.1705   23.9423 C   0  0  0  0  0  0  0  0  0  0  0  0
   15.2598  -15.4527   23.6632 C   0  0  0  0  0  0  0  0  0  0  0  0
   15.4281  -14.8379   22.5685 O   0  0  0  0  0  0  0  0  0  0  0  0
   10.9384  -16.6384   24.0672 C   0  0  0  0  0  0  0  0  0  0  0  0
   10.0062  -15.7647   24.1661 O   0  0  0  0  0  0  0  0  0  0  0  0
   16.2928  -15.4404   24.5664 O   0  0  0  0  0  0  0  0  0  0  0  0
    8.0162  -18.2117   27.9166 N   0  0  0  0  0  0  0  0  0  0  0  0
    7.7634  -18.4107   26.5435 C   0  0  0  0  0  0  0  0  0  0  0  0
    6.6346  -18.8002   26.1941 O   0  0  0  0  0  0  0  0  0  0  0  0
    8.8086  -18.1623   25.5635 C   0  0  0  0  0  0  0  0  0  0  0  0
   10.0956  -17.6389   26.1455 C   0  0  2  0  0  0  0  0  0  0  0  0
   11.1361  -17.4728   25.1878 N   0  0  0  0  0  0  0  0  0  0  0  0
   10.5228  -18.6262   27.1688 C   0  0  0  0  0  0  0  0  0  0  0  0
   11.7322  -19.3069   27.0457 O   0  0  0  0  0  0  0  0  0  0  0  0
    9.7942  -18.8508   28.1495 O   0  0  0  0  0  0  0  0  0  0  0  0
  2  1  1  6
  2  7  1  0
  3  4  1  0
  3  2  1  0
  4  5  1  0
  5  6  2  0
  7  8  2  0
  7 10  1  0
  9  5  1  0
 10 11  1  0
 11 16  1  0
 11 12  1  1
 12 13  1  0
 13 14  1  0
 14 18  1  0
 15 14  2  0
 16 17  2  0
 19 20  1  0
 20 21  2  0
 23 22  1  6
 22 20  1  0
 24 23  1  0
 24 16  1  0
 25 23  1  0
 26 25  1  0
 27 25  2  0
M  END
$$$$
