EEN.pdb
     RDKit          3D

 27 26  0  0  1  0  0  0  0  0999 V2000
    6.4044  -17.3825   19.2100 N   0  0  0  0  0  0  0  0  0  0  0  0
    7.7834  -17.1352   19.4784 C   0  0  1  0  0  0  0  0  0  0  0  0
    8.0109  -15.6858   19.7487 C   0  0  0  0  0  0  0  0  0  0  0  0
    7.5491  -14.7664   18.6587 C   0  0  0  0  0  0  0  0  0  0  0  0
    7.9437  -13.3887   18.9336 C   0  0  0  0  0  0  0  0  0  0  0  0
    8.6337  -13.0098   19.9226 O   0  0  0  0  0  0  0  0  0  0  0  0
    8.2151  -17.8769   20.7092 C   0  0  0  0  0  0  0  0  0  0  0  0
    7.3051  -18.3308   21.4485 O   0  0  0  0  0  0  0  0  0  0  0  0
    7.5410  -12.3707   18.0458 O   0  0  0  0  0  0  0  0  0  0  0  0
    9.5894  -18.0400   20.9942 N   0  0  0  0  0  0  0  0  0  0  0  0
   10.0154  -18.8115   22.1826 C   0  0  1  0  0  0  0  0  0  0  0  0
   11.1478  -19.6949   21.8198 C   0  0  0  0  0  0  0  0  0  0  0  0
   10.9351  -20.7003   20.7547 C   0  0  0  0  0  0  0  0  0  0  0  0
   12.2094  -21.4861   20.5075 C   0  0  0  0  0  0  0  0  0  0  0  0
   12.3646  -22.6296   21.0299 O   0  0  0  0  0  0  0  0  0  0  0  0
   10.2739  -17.8192   23.2396 C   0  0  0  0  0  0  0  0  0  0  0  0
   10.4843  -16.5904   22.9432 O   0  0  0  0  0  0  0  0  0  0  0  0
   13.2258  -21.0003   19.7238 O   0  0  0  0  0  0  0  0  0  0  0  0
    8.8205  -14.9876   24.2194 N   0  0  0  0  0  0  0  0  0  0  0  0
    7.8658  -15.8881   24.7353 C   0  0  0  0  0  0  0  0  0  0  0  0
    6.6601  -15.6687   24.5203 O   0  0  0  0  0  0  0  0  0  0  0  0
    8.2927  -17.0475   25.5021 C   0  0  0  0  0  0  0  0  0  0  0  0
    9.7862  -17.2308   25.5733 C   0  0  2  0  0  0  0  0  0  0  0  0
   10.3014  -18.1461   24.6120 N   0  0  0  0  0  0  0  0  0  0  0  0
   10.0800  -17.7351   26.9385 C   0  0  0  0  0  0  0  0  0  0  0  0
   10.5998  -19.0131   27.1330 O   0  0  0  0  0  0  0  0  0  0  0  0
    9.8605  -17.0102   27.9231 O   0  0  0  0  0  0  0  0  0  0  0  0
  2  1  1  1
  2  7  1  0
  3  4  1  0
  3  2  1  0
  4  5  1  0
  5  6  2  0
  7  8  2  0
  7 10  1  0
  9  5  1  0
 10 11  1  0
 11 16  1  0
 11 12  1  6
 12 13  1  0
 13 14  1  0
 14 18  1  0
 15 14  2  0
 16 17  2  0
 19 20  1  0
 20 21  2  0
 23 22  1  1
 22 20  1  0
 24 23  1  0
 24 16  1  0
 25 23  1  0
 26 25  1  0
 27 25  2  0
M  END
$$$$
