EEN.pdb
     RDKit          3D

 27 26  0  0  1  0  0  0  0  0999 V2000
    9.4931  -14.5448   16.9558 N   0  0  0  0  0  0  0  0  0  0  0  0
   10.2862  -13.8837   17.9401 C   0  0  1  0  0  0  0  0  0  0  0  0
    9.4384  -13.4491   19.0880 C   0  0  0  0  0  0  0  0  0  0  0  0
    8.1198  -12.8509   18.7004 C   0  0  0  0  0  0  0  0  0  0  0  0
    7.1058  -13.8860   18.5280 C   0  0  0  0  0  0  0  0  0  0  0  0
    6.7404  -14.7062   19.4177 O   0  0  0  0  0  0  0  0  0  0  0  0
   11.3163  -14.8231   18.4952 C   0  0  0  0  0  0  0  0  0  0  0  0
   11.0407  -16.0495   18.4690 O   0  0  0  0  0  0  0  0  0  0  0  0
    6.4598  -14.0111   17.2816 O   0  0  0  0  0  0  0  0  0  0  0  0
   12.5294  -14.3191   19.0154 N   0  0  0  0  0  0  0  0  0  0  0  0
   13.6118  -15.2479   19.4091 C   0  0  1  0  0  0  0  0  0  0  0  0
   14.8847  -14.8178   18.7854 C   0  0  0  0  0  0  0  0  0  0  0  0
   15.1358  -15.1991   17.3775 C   0  0  0  0  0  0  0  0  0  0  0  0
   16.5347  -14.7857   16.9593 C   0  0  0  0  0  0  0  0  0  0  0  0
   17.2997  -15.6161   16.3850 O   0  0  0  0  0  0  0  0  0  0  0  0
   13.5894  -15.2968   20.8807 C   0  0  0  0  0  0  0  0  0  0  0  0
   13.9709  -14.2879   21.5727 O   0  0  0  0  0  0  0  0  0  0  0  0
   17.0190  -13.5212   17.1816 O   0  0  0  0  0  0  0  0  0  0  0  0
    9.7625  -17.6182   22.4127 N   0  0  0  0  0  0  0  0  0  0  0  0
   10.5950  -16.7103   23.0993 C   0  0  0  0  0  0  0  0  0  0  0  0
   10.1940  -15.5452   23.2721 O   0  0  0  0  0  0  0  0  0  0  0  0
   11.8945  -17.1377   23.5920 C   0  0  0  0  0  0  0  0  0  0  0  0
   13.0587  -16.3672   23.0262 C   0  0  2  0  0  0  0  0  0  0  0  0
   13.1537  -16.4256   21.6067 N   0  0  0  0  0  0  0  0  0  0  0  0
   14.2815  -16.9591   23.6252 C   0  0  0  0  0  0  0  0  0  0  0  0
   14.4798  -16.9495   25.0042 O   0  0  0  0  0  0  0  0  0  0  0  0
   15.1417  -17.4707   22.8894 O   0  0  0  0  0  0  0  0  0  0  0  0
  2  1  1  6
  2  7  1  0
  3  4  1  0
  3  2  1  0
  4  5  1  0
  5  6  2  0
  7  8  2  0
  7 10  1  0
  9  5  1  0
 10 11  1  0
 11 16  1  0
 11 12  1  1
 12 13  1  0
 13 14  1  0
 14 18  1  0
 15 14  2  0
 16 17  2  0
 19 20  1  0
 20 21  2  0
 23 22  1  1
 22 20  1  0
 24 23  1  0
 24 16  1  0
 25 23  1  0
 26 25  1  0
 27 25  2  0
M  END
$$$$
