EEN.pdb
     RDKit          3D

 27 26  0  0  1  0  0  0  0  0999 V2000
    9.0039  -12.6414   18.0756 N   0  0  0  0  0  0  0  0  0  0  0  0
    8.6409  -14.0176   18.1720 C   0  0  1  0  0  0  0  0  0  0  0  0
    8.2075  -14.5376   16.8426 C   0  0  0  0  0  0  0  0  0  0  0  0
    9.1453  -14.2297   15.7146 C   0  0  0  0  0  0  0  0  0  0  0  0
    8.6794  -14.8285   14.4681 C   0  0  0  0  0  0  0  0  0  0  0  0
    7.5970  -14.5439   13.8807 O   0  0  0  0  0  0  0  0  0  0  0  0
    9.8237  -14.8395   18.5926 C   0  0  0  0  0  0  0  0  0  0  0  0
    9.6482  -16.0807   18.6904 O   0  0  0  0  0  0  0  0  0  0  0  0
    9.4749  -15.8075   13.8393 O   0  0  0  0  0  0  0  0  0  0  0  0
   11.0632  -14.2156   18.8584 N   0  0  0  0  0  0  0  0  0  0  0  0
   12.2267  -15.0251   19.2828 C   0  0  1  0  0  0  0  0  0  0  0  0
   13.4398  -14.5596   18.5714 C   0  0  0  0  0  0  0  0  0  0  0  0
   13.9305  -15.3630   17.4293 C   0  0  0  0  0  0  0  0  0  0  0  0
   15.2169  -14.7731   16.8819 C   0  0  0  0  0  0  0  0  0  0  0  0
   15.1826  -13.9585   15.9124 O   0  0  0  0  0  0  0  0  0  0  0  0
   12.2613  -14.9466   20.7529 C   0  0  0  0  0  0  0  0  0  0  0  0
   12.1776  -13.8147   21.3478 O   0  0  0  0  0  0  0  0  0  0  0  0
   16.4455  -15.0912   17.4037 O   0  0  0  0  0  0  0  0  0  0  0  0
    8.5147  -15.0511   24.3943 N   0  0  0  0  0  0  0  0  0  0  0  0
    9.6242  -15.8781   24.1224 C   0  0  0  0  0  0  0  0  0  0  0  0
   10.0257  -16.6505   25.0113 O   0  0  0  0  0  0  0  0  0  0  0  0
   10.2786  -15.8215   22.8252 C   0  0  0  0  0  0  0  0  0  0  0  0
   11.7586  -16.0993   22.8622 C   0  0  2  0  0  0  0  0  0  0  0  0
   12.3808  -16.0825   21.5816 N   0  0  0  0  0  0  0  0  0  0  0  0
   11.9154  -17.4462   23.4668 C   0  0  0  0  0  0  0  0  0  0  0  0
   12.2148  -18.5547   22.6776 O   0  0  0  0  0  0  0  0  0  0  0  0
   11.7782  -17.5904   24.6930 O   0  0  0  0  0  0  0  0  0  0  0  0
  2  1  1  6
  2  7  1  0
  3  4  1  0
  3  2  1  0
  4  5  1  0
  5  6  2  0
  7  8  2  0
  7 10  1  0
  9  5  1  0
 10 11  1  0
 11 16  1  0
 11 12  1  6
 12 13  1  0
 13 14  1  0
 14 18  1  0
 15 14  2  0
 16 17  2  0
 19 20  1  0
 20 21  2  0
 23 22  1  6
 22 20  1  0
 24 23  1  0
 24 16  1  0
 25 23  1  0
 26 25  1  0
 27 25  2  0
M  END
$$$$
