EEN.pdb
     RDKit          3D

 27 26  0  0  1  0  0  0  0  0999 V2000
    9.3622  -13.5728   18.6850 N   0  0  0  0  0  0  0  0  0  0  0  0
    9.9032  -14.6712   19.4170 C   0  0  1  0  0  0  0  0  0  0  0  0
   11.3484  -14.4432   19.7083 C   0  0  0  0  0  0  0  0  0  0  0  0
   12.2480  -14.5256   18.5122 C   0  0  0  0  0  0  0  0  0  0  0  0
   13.6432  -14.3293   18.8920 C   0  0  0  0  0  0  0  0  0  0  0  0
   14.1497  -13.2358   19.2735 O   0  0  0  0  0  0  0  0  0  0  0  0
    9.2114  -14.8049   20.7418 C   0  0  0  0  0  0  0  0  0  0  0  0
    8.7027  -13.7620   21.2258 O   0  0  0  0  0  0  0  0  0  0  0  0
   14.5275  -15.4257   18.8418 O   0  0  0  0  0  0  0  0  0  0  0  0
    9.1525  -16.0599   21.3883 N   0  0  0  0  0  0  0  0  0  0  0  0
    8.2118  -16.2745   22.5099 C   0  0  1  0  0  0  0  0  0  0  0  0
    7.3918  -17.4794   22.2449 C   0  0  0  0  0  0  0  0  0  0  0  0
    6.4793  -17.9508   23.3106 C   0  0  0  0  0  0  0  0  0  0  0  0
    5.7221  -19.1829   22.8515 C   0  0  0  0  0  0  0  0  0  0  0  0
    4.4555  -19.1816   22.8306 O   0  0  0  0  0  0  0  0  0  0  0  0
    9.0347  -16.3002   23.7308 C   0  0  0  0  0  0  0  0  0  0  0  0
   10.2853  -16.5732   23.6688 O   0  0  0  0  0  0  0  0  0  0  0  0
    6.3648  -20.3263   22.4482 O   0  0  0  0  0  0  0  0  0  0  0  0
   10.8225  -14.9860   28.3755 N   0  0  0  0  0  0  0  0  0  0  0  0
    9.7839  -14.1160   27.9841 C   0  0  0  0  0  0  0  0  0  0  0  0
    9.5876  -13.0828   28.6489 O   0  0  0  0  0  0  0  0  0  0  0  0
    8.9645  -14.4296   26.8245 C   0  0  0  0  0  0  0  0  0  0  0  0
    9.3927  -15.6644   26.0756 C   0  0  2  0  0  0  0  0  0  0  0  0
    8.5158  -16.0285   25.0146 N   0  0  0  0  0  0  0  0  0  0  0  0
    9.4388  -16.7627   27.0736 C   0  0  0  0  0  0  0  0  0  0  0  0
   10.4267  -16.7968   28.0554 O   0  0  0  0  0  0  0  0  0  0  0  0
    8.5862  -17.6653   27.0355 O   0  0  0  0  0  0  0  0  0  0  0  0
  2  1  1  1
  2  7  1  0
  3  4  1  0
  3  2  1  0
  4  5  1  0
  5  6  2  0
  7  8  2  0
  7 10  1  0
  9  5  1  0
 10 11  1  0
 11 16  1  0
 11 12  1  6
 12 13  1  0
 13 14  1  0
 14 18  1  0
 15 14  2  0
 16 17  2  0
 19 20  1  0
 20 21  2  0
 23 22  1  1
 22 20  1  0
 24 23  1  0
 24 16  1  0
 25 23  1  0
 26 25  1  0
 27 25  2  0
M  END
$$$$
