DRW.pdb
     RDKit          3D

 34 35  0  0  1  0  0  0  0  0999 V2000
    7.2616  -21.3573   22.1204 N   0  0  0  0  0  0  0  0  0  0  0  0
    6.9770  -20.1689   22.9344 C   0  0  1  0  0  0  0  0  0  0  0  0
    7.1507  -20.5568   24.3612 C   0  0  0  0  0  0  0  0  0  0  0  0
    6.1366  -21.4836   24.8603 C   0  0  0  0  0  0  0  0  0  0  0  0
    5.2258  -22.0323   24.2248 O   0  0  0  0  0  0  0  0  0  0  0  0
    7.9030  -19.0662   22.5124 C   0  0  0  0  0  0  0  0  0  0  0  0
    9.1283  -19.1877   22.4972 O   0  0  0  0  0  0  0  0  0  0  0  0
    6.1935  -21.7978   26.2323 O   0  0  0  0  0  0  0  0  0  0  0  0
    7.8934  -13.3932   16.3686 N   0  0  0  0  0  0  0  0  0  0  0  0
    7.8992  -13.0462   17.7471 C   0  0  0  0  0  0  0  0  0  0  0  0
    8.6218  -12.0741   18.1795 N   0  0  0  0  0  0  0  0  0  0  0  0
    7.0769  -13.8107   18.6416 N   0  0  0  0  0  0  0  0  0  0  0  0
    7.1359  -13.4416   20.0450 C   0  0  0  0  0  0  0  0  0  0  0  0
    8.0624  -14.4008   20.7645 C   0  0  0  0  0  0  0  0  0  0  0  0
    7.2758  -15.6453   21.1213 C   0  0  0  0  0  0  0  0  0  0  0  0
    8.1479  -16.6512   21.8384 C   0  0  2  0  0  0  0  0  0  0  0  0
    7.3602  -17.8201   22.1098 N   0  0  0  0  0  0  0  0  0  0  0  0
    8.5440  -16.0257   23.1498 C   0  0  0  0  0  0  0  0  0  0  0  0
    7.7153  -15.2887   23.7378 O   0  0  0  0  0  0  0  0  0  0  0  0
    8.6942  -11.9248   19.1998 N   0  0  0  0  0  0  0  0  0  0  0  0
    9.8048  -16.2400   23.7317 C   0  0  1  0  0  0  0  0  0  0  0  0
   10.2704  -15.5694   24.9593 C   0  0  0  0  0  0  0  0  0  0  0  0
    9.3821  -15.8809   26.1018 C   0  0  0  0  0  0  0  0  0  0  0  0
    8.1655  -15.0618   26.0957 C   0  0  0  0  0  0  0  0  0  0  0  0
    6.8682  -15.5387   25.8912 N   0  0  0  0  0  0  0  0  0  0  0  0
    5.9889  -14.5131   25.9033 C   0  0  0  0  0  0  0  0  0  0  0  0
    6.6719  -13.3653   26.1120 C   0  0  0  0  0  0  0  0  0  0  0  0
    6.2794  -12.0539   26.2306 C   0  0  0  0  0  0  0  0  0  0  0  0
    7.1908  -11.0352   26.4710 C   0  0  0  0  0  0  0  0  0  0  0  0
    8.5285  -11.3577   26.5931 C   0  0  0  0  0  0  0  0  0  0  0  0
    8.9120  -12.6707   26.4724 C   0  0  0  0  0  0  0  0  0  0  0  0
    8.0019  -13.6981   26.2303 C   0  0  0  0  0  0  0  0  0  0  0  0
   11.6911  -15.8417   25.1122 O   0  0  0  0  0  0  0  0  0  0  0  0
   12.2885  -16.6171   24.3146 O   0  0  0  0  0  0  0  0  0  0  0  0
  2  1  1  6
  3  2  1  0
  4  3  1  0
  5  4  2  0
  6 17  1  0
  6  2  1  0
  7  6  2  0
  8  4  1  0
  9 10  1  0
 10 12  1  0
 10 11  2  0
 12 13  1  0
 13 14  1  0
 14 15  1  0
 16 17  1  0
 16 15  1  6
 18 16  1  0
 19 18  2  0
 20 18  1  0
 21 20  1  0
 22 23  1  0
 21 22  1  1
 23 24  2  0
 25 24  1  0
 26 25  1  0
 27 26  2  0
 28 27  1  0
 29 30  1  0
 29 28  2  0
 30 31  2  0
 31 26  1  0
 31 23  1  0
 32 21  1  0
 32 34  1  0
 33 32  2  0
M  END
$$$$
