DRW.pdb
     RDKit          3D

 34 35  0  0  1  0  0  0  0  0999 V2000
    7.1399  -15.5599   18.7060 N   0  0  0  0  0  0  0  0  0  0  0  0
    8.4775  -15.3614   19.2781 C   0  0  1  0  0  0  0  0  0  0  0  0
    8.7304  -13.8948   19.3160 C   0  0  0  0  0  0  0  0  0  0  0  0
    8.8104  -13.2641   17.9998 C   0  0  0  0  0  0  0  0  0  0  0  0
    8.7423  -13.8069   16.8883 O   0  0  0  0  0  0  0  0  0  0  0  0
    8.5161  -15.9957   20.6374 C   0  0  0  0  0  0  0  0  0  0  0  0
    7.5574  -15.9857   21.4102 O   0  0  0  0  0  0  0  0  0  0  0  0
    8.9866  -11.8666   17.9825 O   0  0  0  0  0  0  0  0  0  0  0  0
   10.4224  -21.5211   23.0367 N   0  0  0  0  0  0  0  0  0  0  0  0
   10.0406  -22.2592   21.8834 C   0  0  0  0  0  0  0  0  0  0  0  0
    9.2100  -23.2372   21.9714 N   0  0  0  0  0  0  0  0  0  0  0  0
   10.6079  -21.8826   20.6197 N   0  0  0  0  0  0  0  0  0  0  0  0
   11.2197  -20.5670   20.5548 C   0  0  0  0  0  0  0  0  0  0  0  0
   10.1724  -19.5237   20.8874 C   0  0  0  0  0  0  0  0  0  0  0  0
   10.7356  -18.6062   21.9532 C   0  0  0  0  0  0  0  0  0  0  0  0
    9.7880  -17.4637   22.2417 C   0  0  2  0  0  0  0  0  0  0  0  0
    9.7026  -16.6403   21.0691 N   0  0  0  0  0  0  0  0  0  0  0  0
   10.4078  -16.6549   23.3505 C   0  0  0  0  0  0  0  0  0  0  0  0
   11.5610  -16.1890   23.1813 O   0  0  0  0  0  0  0  0  0  0  0  0
    9.0128  -23.7986   21.1261 N   0  0  0  0  0  0  0  0  0  0  0  0
    9.7393  -16.4076   24.5614 C   0  0  2  0  0  0  0  0  0  0  0  0
   10.3991  -15.8996   25.7780 C   0  0  0  0  0  0  0  0  0  0  0  0
    9.8945  -14.5533   26.1307 C   0  0  0  0  0  0  0  0  0  0  0  0
    8.4295  -14.4872   26.1035 C   0  0  0  0  0  0  0  0  0  0  0  0
    7.5719  -15.5768   25.9322 N   0  0  0  0  0  0  0  0  0  0  0  0
    6.2876  -15.1585   25.9113 C   0  0  0  0  0  0  0  0  0  0  0  0
    6.2716  -13.8155   26.0658 C   0  0  0  0  0  0  0  0  0  0  0  0
    5.2530  -12.8959   26.1346 C   0  0  0  0  0  0  0  0  0  0  0  0
    5.4989  -11.5432   26.3235 C   0  0  0  0  0  0  0  0  0  0  0  0
    6.8076  -11.1179   26.4449 C   0  0  0  0  0  0  0  0  0  0  0  0
    7.8193  -12.0437   26.3741 C   0  0  0  0  0  0  0  0  0  0  0  0
    7.5790  -13.4032   26.1837 C   0  0  0  0  0  0  0  0  0  0  0  0
   10.3308  -16.9364   26.7960 O   0  0  0  0  0  0  0  0  0  0  0  0
   10.8582  -16.7623   27.9300 O   0  0  0  0  0  0  0  0  0  0  0  0
  2  1  1  1
  3  2  1  0
  4  3  1  0
  5  4  2  0
  6 17  1  0
  6  2  1  0
  7  6  2  0
  8  4  1  0
  9 10  1  0
 10 12  1  0
 10 11  2  0
 12 13  1  0
 13 14  1  0
 14 15  1  0
 16 17  1  0
 16 15  1  6
 18 16  1  0
 19 18  2  0
 20 18  1  0
 21 20  1  0
 22 23  1  0
 21 22  1  6
 23 24  2  0
 25 24  1  0
 26 25  1  0
 27 26  2  0
 28 27  1  0
 29 30  1  0
 29 28  2  0
 30 31  2  0
 31 26  1  0
 31 23  1  0
 32 21  1  0
 32 34  1  0
 33 32  2  0
M  END
$$$$
