DRW.pdb
     RDKit          3D

 34 35  0  0  1  0  0  0  0  0999 V2000
   10.7749  -20.1166   21.1596 N   0  0  0  0  0  0  0  0  0  0  0  0
   11.3439  -18.7637   21.2034 C   0  0  1  0  0  0  0  0  0  0  0  0
   11.2281  -18.1895   19.8347 C   0  0  0  0  0  0  0  0  0  0  0  0
   12.2713  -18.6267   18.9088 C   0  0  0  0  0  0  0  0  0  0  0  0
   13.4493  -18.2477   18.8528 O   0  0  0  0  0  0  0  0  0  0  0  0
   10.6033  -17.9657   22.2358 C   0  0  0  0  0  0  0  0  0  0  0  0
    9.6626  -18.4202   22.8878 O   0  0  0  0  0  0  0  0  0  0  0  0
   11.9011  -19.5987   17.9589 O   0  0  0  0  0  0  0  0  0  0  0  0
    7.5501  -14.0540   17.8602 N   0  0  0  0  0  0  0  0  0  0  0  0
    7.9879  -13.2715   18.9633 C   0  0  0  0  0  0  0  0  0  0  0  0
    8.1059  -11.9950   18.8609 N   0  0  0  0  0  0  0  0  0  0  0  0
    8.2945  -13.9460   20.1929 N   0  0  0  0  0  0  0  0  0  0  0  0
    7.1662  -14.2719   21.0474 C   0  0  0  0  0  0  0  0  0  0  0  0
    7.6862  -14.8883   22.3302 C   0  0  0  0  0  0  0  0  0  0  0  0
    8.7772  -15.8776   21.9752 C   0  0  0  0  0  0  0  0  0  0  0  0
   10.0640  -15.5486   22.6980 C   0  0  2  0  0  0  0  0  0  0  0  0
   10.9897  -16.6248   22.4853 N   0  0  0  0  0  0  0  0  0  0  0  0
    9.7334  -15.4846   24.1658 C   0  0  0  0  0  0  0  0  0  0  0  0
    9.1879  -14.4464   24.6135 O   0  0  0  0  0  0  0  0  0  0  0  0
    8.4418  -11.4601   19.6793 N   0  0  0  0  0  0  0  0  0  0  0  0
   10.0154  -16.5443   25.0443 C   0  0  1  0  0  0  0  0  0  0  0  0
    9.9335  -16.4412   26.5127 C   0  0  0  0  0  0  0  0  0  0  0  0
    8.5559  -16.7062   26.9856 C   0  0  0  0  0  0  0  0  0  0  0  0
    7.6063  -15.6903   26.5195 C   0  0  0  0  0  0  0  0  0  0  0  0
    6.4316  -15.9449   25.8072 N   0  0  0  0  0  0  0  0  0  0  0  0
    5.8158  -14.7834   25.4962 C   0  0  0  0  0  0  0  0  0  0  0  0
    6.5538  -13.7622   25.9864 C   0  0  0  0  0  0  0  0  0  0  0  0
    6.3860  -12.3986   25.9727 C   0  0  0  0  0  0  0  0  0  0  0  0
    7.2948  -11.5426   26.5790 C   0  0  0  0  0  0  0  0  0  0  0  0
    8.3963  -12.0853   27.2118 C   0  0  0  0  0  0  0  0  0  0  0  0
    8.5565  -13.4491   27.2198 C   0  0  0  0  0  0  0  0  0  0  0  0
    7.6480  -14.3140   26.6123 C   0  0  0  0  0  0  0  0  0  0  0  0
   11.0098  -17.2366   27.0826 O   0  0  0  0  0  0  0  0  0  0  0  0
   11.7435  -17.9517   26.3445 O   0  0  0  0  0  0  0  0  0  0  0  0
  2  1  1  6
  3  2  1  0
  4  3  1  0
  5  4  2  0
  6 17  1  0
  6  2  1  0
  7  6  2  0
  8  4  1  0
  9 10  1  0
 10 12  1  0
 10 11  2  0
 12 13  1  0
 13 14  1  0
 14 15  1  0
 16 17  1  0
 16 15  1  6
 18 16  1  0
 19 18  2  0
 20 18  1  0
 21 20  1  0
 22 23  1  0
 21 22  1  1
 23 24  2  0
 25 24  1  0
 26 25  1  0
 27 26  2  0
 28 27  1  0
 29 30  1  0
 29 28  2  0
 30 31  2  0
 31 26  1  0
 31 23  1  0
 32 21  1  0
 32 34  1  0
 33 32  2  0
M  END
$$$$
