DRW.pdb
     RDKit          3D

 34 35  0  0  1  0  0  0  0  0999 V2000
   12.7054  -18.9743   19.0739 N   0  0  0  0  0  0  0  0  0  0  0  0
   13.2773  -17.6284   19.2066 C   0  0  1  0  0  0  0  0  0  0  0  0
   13.4396  -17.0781   17.8329 C   0  0  0  0  0  0  0  0  0  0  0  0
   14.5954  -17.6022   17.1076 C   0  0  0  0  0  0  0  0  0  0  0  0
   15.7955  -17.3885   17.3282 O   0  0  0  0  0  0  0  0  0  0  0  0
   12.3633  -16.8018   20.0624 C   0  0  0  0  0  0  0  0  0  0  0  0
   12.5858  -15.6222   20.3375 O   0  0  0  0  0  0  0  0  0  0  0  0
   14.3211  -18.4567   16.0218 O   0  0  0  0  0  0  0  0  0  0  0  0
    7.9721  -14.1806   17.1888 N   0  0  0  0  0  0  0  0  0  0  0  0
    8.1895  -13.5871   18.4620 C   0  0  0  0  0  0  0  0  0  0  0  0
    8.1159  -12.3125   18.6168 N   0  0  0  0  0  0  0  0  0  0  0  0
    8.4933  -14.4498   19.5685 N   0  0  0  0  0  0  0  0  0  0  0  0
    7.3574  -14.9980   20.2886 C   0  0  0  0  0  0  0  0  0  0  0  0
    7.8682  -15.8964   21.3968 C   0  0  0  0  0  0  0  0  0  0  0  0
    8.8605  -16.8727   20.7992 C   0  0  0  0  0  0  0  0  0  0  0  0
   10.2341  -16.6888   21.4041 C   0  0  2  0  0  0  0  0  0  0  0  0
   11.1849  -17.3889   20.5879 N   0  0  0  0  0  0  0  0  0  0  0  0
   10.2004  -17.3373   22.7629 C   0  0  0  0  0  0  0  0  0  0  0  0
    9.8930  -18.5518   22.8410 O   0  0  0  0  0  0  0  0  0  0  0  0
    8.2989  -11.9147   19.5532 N   0  0  0  0  0  0  0  0  0  0  0  0
   10.5002  -16.6290   23.9388 C   0  0  2  0  0  0  0  0  0  0  0  0
    9.4859  -16.1675   24.9040 C   0  0  0  0  0  0  0  0  0  0  0  0
    8.9553  -14.8399   24.5197 C   0  0  0  0  0  0  0  0  0  0  0  0
    7.8230  -14.4331   25.3585 C   0  0  0  0  0  0  0  0  0  0  0  0
    6.8564  -15.2921   25.8877 N   0  0  0  0  0  0  0  0  0  0  0  0
    5.9321  -14.5850   26.5738 C   0  0  0  0  0  0  0  0  0  0  0  0
    6.2625  -13.2754   26.5135 C   0  0  0  0  0  0  0  0  0  0  0  0
    5.6903  -12.1431   27.0410 C   0  0  0  0  0  0  0  0  0  0  0  0
    6.2452  -10.8853   26.8511 C   0  0  0  0  0  0  0  0  0  0  0  0
    7.4058  -10.7778   26.1095 C   0  0  0  0  0  0  0  0  0  0  0  0
    7.9703  -11.9145   25.5853 C   0  0  0  0  0  0  0  0  0  0  0  0
    7.4176  -13.1803   25.7718 C   0  0  0  0  0  0  0  0  0  0  0  0
    8.5307  -17.2457   25.1064 O   0  0  0  0  0  0  0  0  0  0  0  0
    8.2178  -17.6197   26.2712 O   0  0  0  0  0  0  0  0  0  0  0  0
  2  1  1  6
  3  2  1  0
  4  3  1  0
  5  4  2  0
  6 17  1  0
  6  2  1  0
  7  6  2  0
  8  4  1  0
  9 10  1  0
 10 12  1  0
 10 11  2  0
 12 13  1  0
 13 14  1  0
 14 15  1  0
 16 17  1  0
 16 15  1  6
 18 16  1  0
 19 18  2  0
 20 18  1  0
 21 20  1  0
 22 23  1  0
 21 22  1  1
 23 24  2  0
 25 24  1  0
 26 25  1  0
 27 26  2  0
 28 27  1  0
 29 30  1  0
 29 28  2  0
 30 31  2  0
 31 26  1  0
 31 23  1  0
 32 21  1  0
 32 34  1  0
 33 32  2  0
M  END
$$$$
