DRW.pdb
     RDKit          3D

 34 35  0  0  1  0  0  0  0  0999 V2000
    9.6932  -15.2375   17.9164 N   0  0  0  0  0  0  0  0  0  0  0  0
    8.9998  -14.1442   18.6091 C   0  0  1  0  0  0  0  0  0  0  0  0
    7.9641  -13.6163   17.6791 C   0  0  0  0  0  0  0  0  0  0  0  0
    8.3875  -13.5512   16.2816 C   0  0  0  0  0  0  0  0  0  0  0  0
    9.4431  -13.9669   15.7842 O   0  0  0  0  0  0  0  0  0  0  0  0
    8.4204  -14.6775   19.8862 C   0  0  0  0  0  0  0  0  0  0  0  0
    7.7036  -14.0067   20.6297 O   0  0  0  0  0  0  0  0  0  0  0  0
    7.4914  -12.9422   15.3814 O   0  0  0  0  0  0  0  0  0  0  0  0
    8.4549  -19.1201   16.3443 N   0  0  0  0  0  0  0  0  0  0  0  0
    7.0595  -19.1378   16.6146 C   0  0  0  0  0  0  0  0  0  0  0  0
    6.2078  -19.3432   15.6731 N   0  0  0  0  0  0  0  0  0  0  0  0
    6.6285  -18.9199   17.9665 N   0  0  0  0  0  0  0  0  0  0  0  0
    7.6743  -18.6772   18.9446 C   0  0  0  0  0  0  0  0  0  0  0  0
    7.0327  -18.4209   20.2932 C   0  0  0  0  0  0  0  0  0  0  0  0
    8.1284  -18.0988   21.2885 C   0  0  0  0  0  0  0  0  0  0  0  0
    8.2495  -16.6062   21.4980 C   0  0  2  0  0  0  0  0  0  0  0  0
    8.7005  -16.0128   20.2713 N   0  0  0  0  0  0  0  0  0  0  0  0
    9.3094  -16.3996   22.5477 C   0  0  0  0  0  0  0  0  0  0  0  0
   10.5148  -16.4940   22.2105 O   0  0  0  0  0  0  0  0  0  0  0  0
    5.2015  -19.3604   15.9088 N   0  0  0  0  0  0  0  0  0  0  0  0
    8.9925  -16.1066   23.8849 C   0  0  1  0  0  0  0  0  0  0  0  0
    9.9954  -15.9507   24.9542 C   0  0  0  0  0  0  0  0  0  0  0  0
    9.6888  -14.7749   25.7998 C   0  0  0  0  0  0  0  0  0  0  0  0
    8.2457  -14.5437   25.9231 C   0  0  0  0  0  0  0  0  0  0  0  0
    7.2609  -15.5346   25.8984 N   0  0  0  0  0  0  0  0  0  0  0  0
    6.0353  -14.9740   25.9910 C   0  0  0  0  0  0  0  0  0  0  0  0
    6.1827  -13.6329   26.0775 C   0  0  0  0  0  0  0  0  0  0  0  0
    5.2841  -12.6014   26.2057 C   0  0  0  0  0  0  0  0  0  0  0  0
    5.6951  -11.2790   26.2985 C   0  0  0  0  0  0  0  0  0  0  0  0
    7.0478  -11.0010   26.2601 C   0  0  0  0  0  0  0  0  0  0  0  0
    7.9387  -12.0379   26.1310 C   0  0  0  0  0  0  0  0  0  0  0  0
    7.5323  -13.3677   26.0366 C   0  0  0  0  0  0  0  0  0  0  0  0
   10.1556  -17.2367   25.6149 O   0  0  0  0  0  0  0  0  0  0  0  0
   11.1046  -17.4316   26.4247 O   0  0  0  0  0  0  0  0  0  0  0  0
  2  1  1  6
  3  2  1  0
  4  3  1  0
  5  4  2  0
  6 17  1  0
  6  2  1  0
  7  6  2  0
  8  4  1  0
  9 10  1  0
 10 12  1  0
 10 11  2  0
 12 13  1  0
 13 14  1  0
 14 15  1  0
 16 17  1  0
 16 15  1  6
 18 16  1  0
 19 18  2  0
 20 18  1  0
 21 20  1  0
 22 23  1  0
 21 22  1  6
 23 24  2  0
 25 24  1  0
 26 25  1  0
 27 26  2  0
 28 27  1  0
 29 30  1  0
 29 28  2  0
 30 31  2  0
 31 26  1  0
 31 23  1  0
 32 21  1  0
 32 34  1  0
 33 32  2  0
M  END
$$$$
