SMQ.pdb
     RDKit          3D

 24 23  0  0  1  0  0  0  0  0999 V2000
    9.9586  -15.8166   19.0958 O   0  0  0  0  0  0  0  0  0  0  0  0
    8.6871  -16.2762   19.4617 C   0  0  0  0  0  0  0  0  0  0  0  0
    8.7091  -16.9840   20.7862 C   0  0  2  0  0  0  0  0  0  0  0  0
    7.4189  -17.5879   21.0106 N   0  0  0  0  0  0  0  0  0  0  0  0
    9.0716  -16.0611   21.9014 C   0  0  0  0  0  0  0  0  0  0  0  0
   10.2330  -15.5644   21.9126 O   0  0  0  0  0  0  0  0  0  0  0  0
    5.9313  -11.2628   27.2753 C   0  0  0  0  0  0  0  0  0  0  0  0
    5.7922  -12.5231   26.0041 S   0  0  0  0  0  0  0  0  0  0  0  0
    7.4137  -13.2919   25.6360 C   0  0  0  0  0  0  0  0  0  0  0  0
    7.1910  -14.2731   24.5320 C   0  0  0  0  0  0  0  0  0  0  0  0
    8.4740  -14.8684   23.9973 C   0  0  2  0  0  0  0  0  0  0  0  0
    8.1114  -15.7684   22.9103 N   0  0  0  0  0  0  0  0  0  0  0  0
    9.1108  -15.6271   25.1187 C   0  0  0  0  0  0  0  0  0  0  0  0
    8.5848  -16.7082   25.5538 O   0  0  0  0  0  0  0  0  0  0  0  0
   15.0769  -15.7617   24.8808 N   0  0  0  0  0  0  0  0  0  0  0  0
   14.5586  -17.0439   25.1533 C   0  0  0  0  0  0  0  0  0  0  0  0
   15.2103  -18.0645   24.8553 O   0  0  0  0  0  0  0  0  0  0  0  0
   13.2162  -17.2520   25.8061 C   0  0  0  0  0  0  0  0  0  0  0  0
   12.5756  -15.9308   26.1245 C   0  0  0  0  0  0  0  0  0  0  0  0
   11.1371  -16.0926   26.4401 C   0  0  2  0  0  0  0  0  0  0  0  0
   10.3072  -15.1462   25.7058 N   0  0  0  0  0  0  0  0  0  0  0  0
   10.8807  -15.9488   27.8831 C   0  0  0  0  0  0  0  0  0  0  0  0
   11.4232  -16.5770   28.8049 O   0  0  0  0  0  0  0  0  0  0  0  0
    9.9162  -14.9983   28.2827 O   0  0  0  0  0  0  0  0  0  0  0  0
  2  1  1  0
  3  2  1  0
  3  4  1  1
  5  6  2  0
  5  3  1  0
  7  8  1  0
  8  9  1  0
  9 10  1  0
 11 10  1  1
 11 13  1  0
 11 12  1  0
 12  5  1  0
 13 21  1  0
 14 13  2  0
 16 15  1  0
 16 18  1  0
 17 16  2  0
 18 19  1  0
 20 19  1  1
 20 22  1  0
 21 20  1  0
 22 23  2  0
 22 24  1  0
M  END
$$$$
