SMQ.pdb
     RDKit          3D

 24 23  0  0  1  0  0  0  0  0999 V2000
    6.8166  -17.2369   20.8536 O   0  0  0  0  0  0  0  0  0  0  0  0
    6.1342  -16.1337   20.3252 C   0  0  0  0  0  0  0  0  0  0  0  0
    6.9564  -14.8792   20.4028 C   0  0  2  0  0  0  0  0  0  0  0  0
    7.7825  -14.7927   19.2240 N   0  0  0  0  0  0  0  0  0  0  0  0
    7.7842  -14.8354   21.6436 C   0  0  0  0  0  0  0  0  0  0  0  0
    9.0037  -15.1539   21.5600 O   0  0  0  0  0  0  0  0  0  0  0  0
    6.9803  -11.8942   27.8665 C   0  0  0  0  0  0  0  0  0  0  0  0
    5.9503  -11.7102   26.4073 S   0  0  0  0  0  0  0  0  0  0  0  0
    6.7935  -12.3302   24.9038 C   0  0  0  0  0  0  0  0  0  0  0  0
    7.1551  -13.7561   25.1628 C   0  0  0  0  0  0  0  0  0  0  0  0
    8.0099  -14.3607   24.0718 C   0  0  2  0  0  0  0  0  0  0  0  0
    7.1855  -14.4410   22.8730 N   0  0  0  0  0  0  0  0  0  0  0  0
    8.4089  -15.7283   24.5289 C   0  0  0  0  0  0  0  0  0  0  0  0
    7.6835  -16.7441   24.2517 O   0  0  0  0  0  0  0  0  0  0  0  0
   13.1324  -19.2032   23.6662 N   0  0  0  0  0  0  0  0  0  0  0  0
   13.2166  -17.7987   23.5811 C   0  0  0  0  0  0  0  0  0  0  0  0
   14.2752  -17.2509   23.2144 O   0  0  0  0  0  0  0  0  0  0  0  0
   12.0580  -16.8966   23.9207 C   0  0  0  0  0  0  0  0  0  0  0  0
   10.8196  -17.7064   24.1815 C   0  0  0  0  0  0  0  0  0  0  0  0
   10.1300  -17.2535   25.4121 C   0  0  2  0  0  0  0  0  0  0  0  0
    9.6002  -15.9028   25.2755 N   0  0  0  0  0  0  0  0  0  0  0  0
   11.0204  -17.3121   26.5836 C   0  0  0  0  0  0  0  0  0  0  0  0
   11.4209  -16.3573   27.2666 O   0  0  0  0  0  0  0  0  0  0  0  0
   11.4802  -18.5835   26.9905 O   0  0  0  0  0  0  0  0  0  0  0  0
  2  1  1  0
  3  2  1  0
  3  4  1  6
  5  6  2  0
  5  3  1  0
  7  8  1  0
  8  9  1  0
  9 10  1  0
 11 10  1  1
 11 13  1  0
 11 12  1  0
 12  5  1  0
 13 21  1  0
 14 13  2  0
 16 15  1  0
 16 18  1  0
 17 16  2  0
 18 19  1  0
 20 19  1  6
 20 22  1  0
 21 20  1  0
 22 23  2  0
 22 24  1  0
M  END
$$$$
