SMQ.pdb
     RDKit          3D

 24 23  0  0  1  0  0  0  0  0999 V2000
    8.1334  -18.4231   19.5836 O   0  0  0  0  0  0  0  0  0  0  0  0
    7.6605  -17.7370   20.7095 C   0  0  0  0  0  0  0  0  0  0  0  0
    7.7084  -16.2482   20.5169 C   0  0  2  0  0  0  0  0  0  0  0  0
    8.3079  -15.9656   19.2362 N   0  0  0  0  0  0  0  0  0  0  0  0
    8.4515  -15.5708   21.6193 C   0  0  0  0  0  0  0  0  0  0  0  0
    9.6314  -15.1804   21.3931 O   0  0  0  0  0  0  0  0  0  0  0  0
    7.1299  -11.0819   26.7515 C   0  0  0  0  0  0  0  0  0  0  0  0
    6.1251  -12.4110   26.0823 S   0  0  0  0  0  0  0  0  0  0  0  0
    6.8897  -13.1490   24.5902 C   0  0  0  0  0  0  0  0  0  0  0  0
    7.6280  -14.3685   25.0358 C   0  0  0  0  0  0  0  0  0  0  0  0
    8.6039  -14.8841   24.0022 C   0  0  2  0  0  0  0  0  0  0  0  0
    7.8195  -15.3846   22.8807 N   0  0  0  0  0  0  0  0  0  0  0  0
    9.3785  -15.9941   24.6397 C   0  0  0  0  0  0  0  0  0  0  0  0
    8.7735  -16.9654   25.2102 O   0  0  0  0  0  0  0  0  0  0  0  0
   10.5587  -14.0275   29.2090 N   0  0  0  0  0  0  0  0  0  0  0  0
   10.5287  -15.4320   29.3250 C   0  0  0  0  0  0  0  0  0  0  0  0
   10.2452  -15.9695   30.4140 O   0  0  0  0  0  0  0  0  0  0  0  0
   10.8309  -16.3463   28.1656 C   0  0  0  0  0  0  0  0  0  0  0  0
   11.2621  -15.5503   26.9665 C   0  0  0  0  0  0  0  0  0  0  0  0
   11.5086  -16.4279   25.7985 C   0  0  2  0  0  0  0  0  0  0  0  0
   10.7949  -15.9719   24.6126 N   0  0  0  0  0  0  0  0  0  0  0  0
   11.1383  -17.8244   26.0838 C   0  0  0  0  0  0  0  0  0  0  0  0
   10.0027  -18.3210   26.0371 O   0  0  0  0  0  0  0  0  0  0  0  0
   12.1732  -18.7112   26.4527 O   0  0  0  0  0  0  0  0  0  0  0  0
  2  1  1  0
  3  2  1  0
  3  4  1  6
  5  6  2  0
  5  3  1  0
  7  8  1  0
  8  9  1  0
  9 10  1  0
 11 10  1  1
 11 13  1  0
 11 12  1  0
 12  5  1  0
 13 21  1  0
 14 13  2  0
 16 15  1  0
 16 18  1  0
 17 16  2  0
 18 19  1  0
 20 19  1  1
 20 22  1  0
 21 20  1  0
 22 23  2  0
 22 24  1  0
M  END
$$$$
