SMQ.pdb
     RDKit          3D

 24 23  0  0  1  0  0  0  0  0999 V2000
    6.9080  -18.2313   21.0484 O   0  0  0  0  0  0  0  0  0  0  0  0
    8.0388  -17.4813   20.7010 C   0  0  0  0  0  0  0  0  0  0  0  0
    7.7944  -16.0059   20.8394 C   0  0  2  0  0  0  0  0  0  0  0  0
    8.2760  -15.3430   19.6527 N   0  0  0  0  0  0  0  0  0  0  0  0
    8.4396  -15.4501   22.0647 C   0  0  0  0  0  0  0  0  0  0  0  0
    9.6607  -15.1323   22.0054 O   0  0  0  0  0  0  0  0  0  0  0  0
    7.1215  -11.2154   27.2831 C   0  0  0  0  0  0  0  0  0  0  0  0
    5.9098  -12.1728   26.3672 S   0  0  0  0  0  0  0  0  0  0  0  0
    6.6568  -12.9841   24.9045 C   0  0  0  0  0  0  0  0  0  0  0  0
    7.2380  -14.2780   25.3723 C   0  0  0  0  0  0  0  0  0  0  0  0
    8.3233  -14.8066   24.4616 C   0  0  2  0  0  0  0  0  0  0  0  0
    7.6719  -15.2946   23.2529 N   0  0  0  0  0  0  0  0  0  0  0  0
    9.0002  -15.9282   25.1843 C   0  0  0  0  0  0  0  0  0  0  0  0
    8.5109  -17.1091   25.1563 O   0  0  0  0  0  0  0  0  0  0  0  0
   15.1098  -16.5867   25.5579 N   0  0  0  0  0  0  0  0  0  0  0  0
   14.2019  -16.8387   24.5094 C   0  0  0  0  0  0  0  0  0  0  0  0
   14.6143  -17.0124   23.3454 O   0  0  0  0  0  0  0  0  0  0  0  0
   12.7125  -16.9112   24.7287 C   0  0  0  0  0  0  0  0  0  0  0  0
   12.3845  -16.7137   26.1816 C   0  0  0  0  0  0  0  0  0  0  0  0
   10.9277  -16.8305   26.4249 C   0  0  2  0  0  0  0  0  0  0  0  0
   10.1939  -15.6829   25.9069 N   0  0  0  0  0  0  0  0  0  0  0  0
   10.6303  -16.9933   27.8580 C   0  0  0  0  0  0  0  0  0  0  0  0
    9.8954  -16.2772   28.5549 O   0  0  0  0  0  0  0  0  0  0  0  0
   11.2374  -18.0757   28.5312 O   0  0  0  0  0  0  0  0  0  0  0  0
  2  1  1  0
  3  2  1  0
  3  4  1  6
  5  6  2  0
  5  3  1  0
  7  8  1  0
  8  9  1  0
  9 10  1  0
 11 10  1  1
 11 13  1  0
 11 12  1  0
 12  5  1  0
 13 21  1  0
 14 13  2  0
 16 15  1  0
 16 18  1  0
 17 16  2  0
 18 19  1  0
 20 19  1  1
 20 22  1  0
 21 20  1  0
 22 23  2  0
 22 24  1  0
M  END
$$$$
