SMQ.pdb
     RDKit          3D

 24 23  0  0  1  0  0  0  0  0999 V2000
    7.8574  -17.8509   20.8075 O   0  0  0  0  0  0  0  0  0  0  0  0
    6.7978  -16.9376   20.7359 C   0  0  0  0  0  0  0  0  0  0  0  0
    7.2857  -15.5173   20.7127 C   0  0  2  0  0  0  0  0  0  0  0  0
    8.0656  -15.3146   19.5168 N   0  0  0  0  0  0  0  0  0  0  0  0
    8.0768  -15.1833   21.9331 C   0  0  0  0  0  0  0  0  0  0  0  0
    9.3324  -15.0954   21.8259 O   0  0  0  0  0  0  0  0  0  0  0  0
    7.6370  -10.9001   27.1730 C   0  0  0  0  0  0  0  0  0  0  0  0
    6.3361  -12.0681   26.7638 S   0  0  0  0  0  0  0  0  0  0  0  0
    6.6367  -12.8733   25.1461 C   0  0  0  0  0  0  0  0  0  0  0  0
    7.2200  -14.2187   25.4298 C   0  0  0  0  0  0  0  0  0  0  0  0
    8.1866  -14.6848   24.3645 C   0  0  2  0  0  0  0  0  0  0  0  0
    7.4044  -14.9754   23.1700 N   0  0  0  0  0  0  0  0  0  0  0  0
    8.8454  -15.9264   24.8773 C   0  0  0  0  0  0  0  0  0  0  0  0
    8.2392  -17.0512   24.8303 O   0  0  0  0  0  0  0  0  0  0  0  0
   14.7279  -18.2952   23.4745 N   0  0  0  0  0  0  0  0  0  0  0  0
   13.9632  -17.1302   23.6869 C   0  0  0  0  0  0  0  0  0  0  0  0
   14.4977  -16.0050   23.6286 O   0  0  0  0  0  0  0  0  0  0  0  0
   12.4876  -17.1750   23.9903 C   0  0  0  0  0  0  0  0  0  0  0  0
   12.2525  -17.0928   25.4720 C   0  0  0  0  0  0  0  0  0  0  0  0
   10.8053  -17.1083   25.7887 C   0  0  2  0  0  0  0  0  0  0  0  0
   10.1523  -15.8587   25.4203 N   0  0  0  0  0  0  0  0  0  0  0  0
   10.5672  -17.3807   27.2163 C   0  0  0  0  0  0  0  0  0  0  0  0
   10.9963  -18.3394   27.8760 O   0  0  0  0  0  0  0  0  0  0  0  0
    9.7659  -16.4635   27.9305 O   0  0  0  0  0  0  0  0  0  0  0  0
  2  1  1  0
  3  2  1  0
  3  4  1  6
  5  6  2  0
  5  3  1  0
  7  8  1  0
  8  9  1  0
  9 10  1  0
 11 10  1  1
 11 13  1  0
 11 12  1  0
 12  5  1  0
 13 21  1  0
 14 13  2  0
 16 15  1  0
 16 18  1  0
 17 16  2  0
 18 19  1  0
 20 19  1  1
 20 22  1  0
 21 20  1  0
 22 23  2  0
 22 24  1  0
M  END
$$$$
