SMQ.pdb
     RDKit          3D

 24 23  0  0  1  0  0  0  0  0999 V2000
    7.7982  -15.6836   18.9531 O   0  0  0  0  0  0  0  0  0  0  0  0
    6.9130  -15.3727   19.9931 C   0  0  0  0  0  0  0  0  0  0  0  0
    7.1741  -14.0060   20.5587 C   0  0  2  0  0  0  0  0  0  0  0  0
    7.9034  -13.2327   19.5842 N   0  0  0  0  0  0  0  0  0  0  0  0
    7.9134  -14.0743   21.8530 C   0  0  0  0  0  0  0  0  0  0  0  0
    9.1445  -13.7911   21.8538 O   0  0  0  0  0  0  0  0  0  0  0  0
    7.3262  -10.5257   27.1065 C   0  0  0  0  0  0  0  0  0  0  0  0
    7.7662  -12.2203   26.7083 S   0  0  0  0  0  0  0  0  0  0  0  0
    6.5025  -13.0134   25.6454 C   0  0  0  0  0  0  0  0  0  0  0  0
    6.9486  -14.4197   25.4121 C   0  0  0  0  0  0  0  0  0  0  0  0
    7.9565  -14.5459   24.2920 C   0  0  2  0  0  0  0  0  0  0  0  0
    7.2209  -14.4519   23.0376 N   0  0  0  0  0  0  0  0  0  0  0  0
    8.6002  -15.8900   24.4252 C   0  0  0  0  0  0  0  0  0  0  0  0
    7.9147  -16.9579   24.2689 O   0  0  0  0  0  0  0  0  0  0  0  0
   12.8623  -18.5792   21.9190 N   0  0  0  0  0  0  0  0  0  0  0  0
   13.0775  -19.2349   23.1481 C   0  0  0  0  0  0  0  0  0  0  0  0
   13.6726  -20.3302   23.1834 O   0  0  0  0  0  0  0  0  0  0  0  0
   12.6112  -18.6635   24.4624 C   0  0  0  0  0  0  0  0  0  0  0  0
   11.9582  -17.3267   24.2529 C   0  0  0  0  0  0  0  0  0  0  0  0
   10.5784  -17.3115   24.7923 C   0  0  2  0  0  0  0  0  0  0  0  0
    9.9813  -15.9837   24.7271 N   0  0  0  0  0  0  0  0  0  0  0  0
   10.5357  -17.7979   26.1817 C   0  0  0  0  0  0  0  0  0  0  0  0
   10.6429  -17.1197   27.2147 O   0  0  0  0  0  0  0  0  0  0  0  0
   10.3539  -19.1836   26.3823 O   0  0  0  0  0  0  0  0  0  0  0  0
  2  1  1  0
  3  2  1  0
  3  4  1  6
  5  6  2  0
  5  3  1  0
  7  8  1  0
  8  9  1  0
  9 10  1  0
 11 10  1  1
 11 13  1  0
 11 12  1  0
 12  5  1  0
 13 21  1  0
 14 13  2  0
 16 15  1  0
 16 18  1  0
 17 16  2  0
 18 19  1  0
 20 19  1  1
 20 22  1  0
 21 20  1  0
 22 23  2  0
 22 24  1  0
M  END
$$$$
