TEL.pdb
     RDKit          3D

 25 24  0  0  1  0  0  0  0  0999 V2000
    8.7803  -12.4151   20.6419 C   0  0  0  0  0  0  0  0  0  0  0  0
    7.8948  -13.0630   19.5727 C   0  0  1  0  0  0  0  0  0  0  0  0
    8.0783  -12.3045   18.4182 O   0  0  0  0  0  0  0  0  0  0  0  0
    8.4046  -14.4617   19.3726 C   0  0  2  0  0  0  0  0  0  0  0  0
    7.8056  -15.1349   18.2405 N   0  0  0  0  0  0  0  0  0  0  0  0
    8.3020  -15.2792   20.6087 C   0  0  0  0  0  0  0  0  0  0  0  0
    7.2340  -15.8086   20.9481 O   0  0  0  0  0  0  0  0  0  0  0  0
    9.4225  -15.4865   21.4502 N   0  0  0  0  0  0  0  0  0  0  0  0
    9.5022  -16.3607   22.5467 C   0  0  1  0  0  0  0  0  0  0  0  0
   10.5803  -17.3565   22.6043 C   0  0  0  0  0  0  0  0  0  0  0  0
   10.6694  -18.2991   21.4262 C   0  0  0  0  0  0  0  0  0  0  0  0
   11.7451  -19.2763   21.6155 C   0  0  0  0  0  0  0  0  0  0  0  0
   12.0821  -20.1210   20.7509 O   0  0  0  0  0  0  0  0  0  0  0  0
    9.5678  -15.4981   23.7861 C   0  0  0  0  0  0  0  0  0  0  0  0
   10.5476  -14.7364   23.9895 O   0  0  0  0  0  0  0  0  0  0  0  0
   12.4395  -19.2775   22.8173 O   0  0  0  0  0  0  0  0  0  0  0  0
    7.8368  -11.8017   25.6962 C   0  0  0  0  0  0  0  0  0  0  0  0
    6.9703  -13.0380   25.6669 C   0  0  2  0  0  0  0  0  0  0  0  0
    5.6109  -12.6016   26.2347 C   0  0  0  0  0  0  0  0  0  0  0  0
    7.4502  -14.1589   26.5039 C   0  0  0  0  0  0  0  0  0  0  0  0
    8.6667  -14.8865   26.0624 C   0  0  2  0  0  0  0  0  0  0  0  0
    8.5412  -15.5036   24.7697 N   0  0  0  0  0  0  0  0  0  0  0  0
    9.2390  -15.7763   27.0924 C   0  0  0  0  0  0  0  0  0  0  0  0
    9.4896  -15.3505   28.2459 O   0  0  0  0  0  0  0  0  0  0  0  0
    9.5184  -17.1072   26.8232 O   0  0  0  0  0  0  0  0  0  0  0  0
  2  1  1  1
  2  3  1  0
  4  5  1  6
  4  2  1  0
  6  4  1  0
  7  6  2  0
  8  6  1  0
  9 14  1  0
  9  8  1  0
  9 10  1  6
 11 10  1  0
 12 11  1  0
 13 12  2  0
 14 22  1  0
 15 14  2  0
 16 12  1  0
 18 17  1  1
 19 18  1  0
 20 18  1  0
 21 20  1  1
 21 23  1  0
 22 21  1  0
 23 24  2  0
 23 25  1  0
M  END
$$$$
