TEL.pdb
     RDKit          3D

 25 24  0  0  1  0  0  0  0  0999 V2000
    9.4643  -12.4792   19.9433 C   0  0  0  0  0  0  0  0  0  0  0  0
    8.3153  -12.9539   19.0479 C   0  0  1  0  0  0  0  0  0  0  0  0
    8.4762  -12.2827   17.8373 O   0  0  0  0  0  0  0  0  0  0  0  0
    8.4917  -14.4336   18.8592 C   0  0  2  0  0  0  0  0  0  0  0  0
    7.6282  -14.9896   17.8399 N   0  0  0  0  0  0  0  0  0  0  0  0
    8.3755  -15.1808   20.1378 C   0  0  0  0  0  0  0  0  0  0  0  0
    7.2844  -15.3212   20.7089 O   0  0  0  0  0  0  0  0  0  0  0  0
    9.5087  -15.7634   20.7565 N   0  0  0  0  0  0  0  0  0  0  0  0
    9.5204  -16.5621   21.9119 C   0  0  1  0  0  0  0  0  0  0  0  0
   10.6171  -17.5156   22.1242 C   0  0  0  0  0  0  0  0  0  0  0  0
   11.4664  -17.2795   23.3520 C   0  0  0  0  0  0  0  0  0  0  0  0
   12.5368  -18.2757   23.4499 C   0  0  0  0  0  0  0  0  0  0  0  0
   13.5930  -18.2356   22.7736 O   0  0  0  0  0  0  0  0  0  0  0  0
    9.4575  -15.6199   23.0920 C   0  0  0  0  0  0  0  0  0  0  0  0
   10.0381  -14.5049   23.0576 O   0  0  0  0  0  0  0  0  0  0  0  0
   12.3853  -19.3302   24.3397 O   0  0  0  0  0  0  0  0  0  0  0  0
    5.7235  -12.6279   26.3837 C   0  0  0  0  0  0  0  0  0  0  0  0
    7.0992  -13.2500   26.4093 C   0  0  2  0  0  0  0  0  0  0  0  0
    8.0844  -12.0746   26.3157 C   0  0  0  0  0  0  0  0  0  0  0  0
    7.3975  -14.1569   25.2797 C   0  0  0  0  0  0  0  0  0  0  0  0
    8.5891  -15.0357   25.3882 C   0  0  2  0  0  0  0  0  0  0  0  0
    8.7498  -15.9410   24.2825 N   0  0  0  0  0  0  0  0  0  0  0  0
    8.7409  -15.6783   26.7088 C   0  0  0  0  0  0  0  0  0  0  0  0
    9.2056  -15.0426   27.6860 O   0  0  0  0  0  0  0  0  0  0  0  0
    8.3776  -17.0000   26.9154 O   0  0  0  0  0  0  0  0  0  0  0  0
  2  1  1  1
  2  3  1  0
  4  5  1  6
  4  2  1  0
  6  4  1  0
  7  6  2  0
  8  6  1  0
  9 14  1  0
  9  8  1  0
  9 10  1  1
 11 10  1  0
 12 11  1  0
 13 12  2  0
 14 22  1  0
 15 14  2  0
 16 12  1  0
 18 17  1  6
 19 18  1  0
 20 18  1  0
 21 20  1  1
 21 23  1  0
 22 21  1  0
 23 24  2  0
 23 25  1  0
M  END
$$$$
