TEL.pdb
     RDKit          3D

 25 24  0  0  1  0  0  0  0  0999 V2000
   10.2492  -14.9903   21.4164 C   0  0  0  0  0  0  0  0  0  0  0  0
   10.6053  -16.1973   20.5427 C   0  0  1  0  0  0  0  0  0  0  0  0
   11.2057  -15.6734   19.3993 O   0  0  0  0  0  0  0  0  0  0  0  0
   11.5862  -17.0260   21.3220 C   0  0  2  0  0  0  0  0  0  0  0  0
   12.3244  -17.9633   20.5033 N   0  0  0  0  0  0  0  0  0  0  0  0
   10.9533  -17.6999   22.4847 C   0  0  0  0  0  0  0  0  0  0  0  0
   10.2868  -18.7360   22.3488 O   0  0  0  0  0  0  0  0  0  0  0  0
   11.0863  -17.1843   23.7974 N   0  0  0  0  0  0  0  0  0  0  0  0
   10.4304  -17.6411   24.9524 C   0  0  1  0  0  0  0  0  0  0  0  0
   11.0758  -17.4870   26.2627 C   0  0  0  0  0  0  0  0  0  0  0  0
   10.3161  -18.0512   27.4412 C   0  0  0  0  0  0  0  0  0  0  0  0
   11.0547  -17.8446   28.6901 C   0  0  0  0  0  0  0  0  0  0  0  0
   11.5436  -18.7753   29.3751 O   0  0  0  0  0  0  0  0  0  0  0  0
    9.0843  -16.9547   24.9876 C   0  0  0  0  0  0  0  0  0  0  0  0
    8.2253  -17.2655   25.8520 O   0  0  0  0  0  0  0  0  0  0  0  0
   11.2306  -16.5478   29.1526 O   0  0  0  0  0  0  0  0  0  0  0  0
    6.8852  -13.4968   26.6910 C   0  0  0  0  0  0  0  0  0  0  0  0
    7.9403  -13.3152   25.6262 C   0  0  2  0  0  0  0  0  0  0  0  0
    8.1606  -11.7983   25.5191 C   0  0  0  0  0  0  0  0  0  0  0  0
    7.5600  -13.7943   24.2796 C   0  0  0  0  0  0  0  0  0  0  0  0
    7.4585  -15.2598   24.0648 C   0  0  2  0  0  0  0  0  0  0  0  0
    8.7262  -15.9385   24.0600 N   0  0  0  0  0  0  0  0  0  0  0  0
    6.5764  -15.6409   22.9438 C   0  0  0  0  0  0  0  0  0  0  0  0
    7.0013  -16.3527   22.0017 O   0  0  0  0  0  0  0  0  0  0  0  0
    5.2541  -15.2279   22.8921 O   0  0  0  0  0  0  0  0  0  0  0  0
  2  1  1  1
  2  3  1  0
  4  5  1  6
  4  2  1  0
  6  4  1  0
  7  6  2  0
  8  6  1  0
  9 14  1  0
  9  8  1  0
  9 10  1  1
 11 10  1  0
 12 11  1  0
 13 12  2  0
 14 22  1  0
 15 14  2  0
 16 12  1  0
 18 17  1  1
 19 18  1  0
 20 18  1  0
 21 20  1  6
 21 23  1  0
 22 21  1  0
 23 24  2  0
 23 25  1  0
M  END
$$$$
