TEL.pdb
     RDKit          3D

 25 24  0  0  1  0  0  0  0  0999 V2000
    8.8518  -12.3973   20.4960 C   0  0  0  0  0  0  0  0  0  0  0  0
    7.8050  -13.0942   19.6209 C   0  0  1  0  0  0  0  0  0  0  0  0
    7.8225  -12.4211   18.4008 O   0  0  0  0  0  0  0  0  0  0  0  0
    8.2582  -14.5156   19.4467 C   0  0  2  0  0  0  0  0  0  0  0  0
    7.5180  -15.2342   18.4320 N   0  0  0  0  0  0  0  0  0  0  0  0
    8.2815  -15.2593   20.7324 C   0  0  0  0  0  0  0  0  0  0  0  0
    7.2635  -15.8028   21.1847 O   0  0  0  0  0  0  0  0  0  0  0  0
    9.4699  -15.3770   21.4942 N   0  0  0  0  0  0  0  0  0  0  0  0
    9.7266  -16.3050   22.5169 C   0  0  1  0  0  0  0  0  0  0  0  0
   10.9394  -17.1315   22.4596 C   0  0  0  0  0  0  0  0  0  0  0  0
   11.0916  -18.1545   23.5617 C   0  0  0  0  0  0  0  0  0  0  0  0
   12.3458  -18.8990   23.4180 C   0  0  0  0  0  0  0  0  0  0  0  0
   12.8324  -19.2420   22.3134 O   0  0  0  0  0  0  0  0  0  0  0  0
    9.7237  -15.5320   23.8157 C   0  0  0  0  0  0  0  0  0  0  0  0
   10.6227  -14.6887   24.0652 O   0  0  0  0  0  0  0  0  0  0  0  0
   13.0460  -19.2509   24.5637 O   0  0  0  0  0  0  0  0  0  0  0  0
    8.4344  -11.9255   26.1866 C   0  0  0  0  0  0  0  0  0  0  0  0
    7.4567  -12.9936   25.7583 C   0  0  2  0  0  0  0  0  0  0  0  0
    6.0659  -12.4443   26.1115 C   0  0  0  0  0  0  0  0  0  0  0  0
    7.6006  -14.2901   26.4551 C   0  0  0  0  0  0  0  0  0  0  0  0
    8.7750  -15.1343   26.1199 C   0  0  2  0  0  0  0  0  0  0  0  0
    8.7202  -15.7157   24.8058 N   0  0  0  0  0  0  0  0  0  0  0  0
    9.1444  -16.0942   27.1792 C   0  0  0  0  0  0  0  0  0  0  0  0
    9.2816  -15.7204   28.3693 O   0  0  0  0  0  0  0  0  0  0  0  0
    9.3517  -17.4357   26.8984 O   0  0  0  0  0  0  0  0  0  0  0  0
  2  1  1  1
  2  3  1  0
  4  5  1  6
  4  2  1  0
  6  4  1  0
  7  6  2  0
  8  6  1  0
  9 14  1  0
  9  8  1  0
  9 10  1  6
 11 10  1  0
 12 11  1  0
 13 12  2  0
 14 22  1  0
 15 14  2  0
 16 12  1  0
 18 17  1  1
 19 18  1  0
 20 18  1  0
 21 20  1  1
 21 23  1  0
 22 21  1  0
 23 24  2  0
 23 25  1  0
M  END
$$$$
