TEL.pdb
     RDKit          3D

 25 24  0  0  1  0  0  0  0  0999 V2000
    8.7454  -12.4477   20.3119 C   0  0  0  0  0  0  0  0  0  0  0  0
    8.1520  -13.0385   19.0289 C   0  0  1  0  0  0  0  0  0  0  0  0
    8.7037  -12.3020   17.9823 O   0  0  0  0  0  0  0  0  0  0  0  0
    8.5994  -14.4707   18.9604 C   0  0  2  0  0  0  0  0  0  0  0  0
    8.2957  -15.1075   17.6970 N   0  0  0  0  0  0  0  0  0  0  0  0
    8.0988  -15.2710   20.1075 C   0  0  0  0  0  0  0  0  0  0  0  0
    6.9877  -15.8195   20.0785 O   0  0  0  0  0  0  0  0  0  0  0  0
    8.8725  -15.4394   21.2820 N   0  0  0  0  0  0  0  0  0  0  0  0
    8.5952  -16.2994   22.3574 C   0  0  1  0  0  0  0  0  0  0  0  0
    9.1498  -17.6595   22.3608 C   0  0  0  0  0  0  0  0  0  0  0  0
   10.6391  -17.7637   22.1251 C   0  0  0  0  0  0  0  0  0  0  0  0
   11.0791  -19.1614   22.1544 C   0  0  0  0  0  0  0  0  0  0  0  0
   10.5506  -20.0749   21.4757 O   0  0  0  0  0  0  0  0  0  0  0  0
    9.0450  -15.5858   23.6115 C   0  0  0  0  0  0  0  0  0  0  0  0
   10.2024  -15.1016   23.6971 O   0  0  0  0  0  0  0  0  0  0  0  0
   12.1421  -19.5074   22.9771 O   0  0  0  0  0  0  0  0  0  0  0  0
    8.0364  -11.6716   25.4679 C   0  0  0  0  0  0  0  0  0  0  0  0
    7.0728  -12.8080   25.7129 C   0  0  2  0  0  0  0  0  0  0  0  0
    5.8842  -12.1858   26.4619 C   0  0  0  0  0  0  0  0  0  0  0  0
    7.5959  -13.9008   26.5612 C   0  0  0  0  0  0  0  0  0  0  0  0
    8.6081  -14.8144   25.9741 C   0  0  2  0  0  0  0  0  0  0  0  0
    8.1956  -15.4278   24.7406 N   0  0  0  0  0  0  0  0  0  0  0  0
    9.1920  -15.7632   26.9431 C   0  0  0  0  0  0  0  0  0  0  0  0
    9.1136  -17.0022   26.7603 O   0  0  0  0  0  0  0  0  0  0  0  0
    9.8442  -15.3213   28.0837 O   0  0  0  0  0  0  0  0  0  0  0  0
  2  1  1  1
  2  3  1  0
  4  5  1  6
  4  2  1  0
  6  4  1  0
  7  6  2  0
  8  6  1  0
  9 14  1  0
  9  8  1  0
  9 10  1  6
 11 10  1  0
 12 11  1  0
 13 12  2  0
 14 22  1  0
 15 14  2  0
 16 12  1  0
 18 17  1  1
 19 18  1  0
 20 18  1  0
 21 20  1  1
 21 23  1  0
 22 21  1  0
 23 24  2  0
 23 25  1  0
M  END
$$$$
