TEL.pdb
     RDKit          3D

 25 24  0  0  1  0  0  0  0  0999 V2000
    8.3429  -12.4231   18.3278 C   0  0  0  0  0  0  0  0  0  0  0  0
    8.4319  -13.1611   19.6675 C   0  0  1  0  0  0  0  0  0  0  0  0
    7.3639  -12.6921   20.4300 O   0  0  0  0  0  0  0  0  0  0  0  0
    8.2674  -14.6245   19.3714 C   0  0  2  0  0  0  0  0  0  0  0  0
    7.0396  -14.9342   18.6709 N   0  0  0  0  0  0  0  0  0  0  0  0
    8.4281  -15.4648   20.5857 C   0  0  0  0  0  0  0  0  0  0  0  0
    7.4482  -15.8661   21.2299 O   0  0  0  0  0  0  0  0  0  0  0  0
    9.7097  -15.8416   21.0568 N   0  0  0  0  0  0  0  0  0  0  0  0
    9.9976  -16.5783   22.2176 C   0  0  1  0  0  0  0  0  0  0  0  0
   11.3091  -17.2237   22.3611 C   0  0  0  0  0  0  0  0  0  0  0  0
   11.5550  -17.9302   23.6744 C   0  0  0  0  0  0  0  0  0  0  0  0
   12.8769  -18.5628   23.6913 C   0  0  0  0  0  0  0  0  0  0  0  0
   13.0593  -19.8027   23.6287 O   0  0  0  0  0  0  0  0  0  0  0  0
    9.7814  -15.6467   23.3880 C   0  0  0  0  0  0  0  0  0  0  0  0
    9.9776  -14.4100   23.2716 O   0  0  0  0  0  0  0  0  0  0  0  0
   14.0009  -17.7534   23.7814 O   0  0  0  0  0  0  0  0  0  0  0  0
    6.1932  -12.7506   26.4234 C   0  0  0  0  0  0  0  0  0  0  0  0
    7.5609  -13.3673   26.5941 C   0  0  2  0  0  0  0  0  0  0  0  0
    8.5430  -12.1863   26.6339 C   0  0  0  0  0  0  0  0  0  0  0  0
    7.9911  -14.2520   25.4898 C   0  0  0  0  0  0  0  0  0  0  0  0
    9.0523  -15.2514   25.7712 C   0  0  2  0  0  0  0  0  0  0  0  0
    9.3518  -16.1138   24.6602 N   0  0  0  0  0  0  0  0  0  0  0  0
    8.8750  -15.9691   27.0493 C   0  0  0  0  0  0  0  0  0  0  0  0
    8.7032  -15.3422   28.1228 O   0  0  0  0  0  0  0  0  0  0  0  0
    8.8921  -17.3539   27.1089 O   0  0  0  0  0  0  0  0  0  0  0  0
  2  1  1  6
  2  3  1  0
  4  5  1  1
  4  2  1  0
  6  4  1  0
  7  6  2  0
  8  6  1  0
  9 14  1  0
  9  8  1  0
  9 10  1  6
 11 10  1  0
 12 11  1  0
 13 12  2  0
 14 22  1  0
 15 14  2  0
 16 12  1  0
 18 17  1  6
 19 18  1  0
 20 18  1  0
 21 20  1  6
 21 23  1  0
 22 21  1  0
 23 24  2  0
 23 25  1  0
M  END
$$$$
