TEL.pdb
     RDKit          3D

 25 24  0  0  1  0  0  0  0  0999 V2000
   10.6566  -13.0310   18.0202 C   0  0  0  0  0  0  0  0  0  0  0  0
   10.0347  -13.5631   19.3153 C   0  0  1  0  0  0  0  0  0  0  0  0
    9.8845  -12.4548   20.1467 O   0  0  0  0  0  0  0  0  0  0  0  0
    8.6948  -14.1369   18.9524 C   0  0  2  0  0  0  0  0  0  0  0  0
    7.8093  -13.1778   18.3280 N   0  0  0  0  0  0  0  0  0  0  0  0
    8.0420  -14.8111   20.1039 C   0  0  0  0  0  0  0  0  0  0  0  0
    7.0817  -14.2975   20.6956 O   0  0  0  0  0  0  0  0  0  0  0  0
    8.4918  -16.0700   20.5724 N   0  0  0  0  0  0  0  0  0  0  0  0
    8.0549  -16.7455   21.7239 C   0  0  1  0  0  0  0  0  0  0  0  0
    8.5042  -18.1215   21.9727 C   0  0  0  0  0  0  0  0  0  0  0  0
    8.0945  -18.7181   23.2996 C   0  0  0  0  0  0  0  0  0  0  0  0
    8.5631  -20.1014   23.4208 C   0  0  0  0  0  0  0  0  0  0  0  0
    7.8409  -21.1052   23.2078 O   0  0  0  0  0  0  0  0  0  0  0  0
    8.4409  -15.8850   22.9050 C   0  0  0  0  0  0  0  0  0  0  0  0
    9.5977  -15.4005   22.9982 O   0  0  0  0  0  0  0  0  0  0  0  0
    9.8813  -20.3275   23.7920 O   0  0  0  0  0  0  0  0  0  0  0  0
    5.8782  -12.3408   27.3297 C   0  0  0  0  0  0  0  0  0  0  0  0
    7.0771  -13.0823   26.7885 C   0  0  2  0  0  0  0  0  0  0  0  0
    8.0903  -11.9960   26.3958 C   0  0  0  0  0  0  0  0  0  0  0  0
    6.8185  -13.8920   25.5781 C   0  0  0  0  0  0  0  0  0  0  0  0
    7.8794  -14.8271   25.1261 C   0  0  2  0  0  0  0  0  0  0  0  0
    7.5302  -15.5841   23.9545 N   0  0  0  0  0  0  0  0  0  0  0  0
    8.4588  -15.6444   26.2106 C   0  0  0  0  0  0  0  0  0  0  0  0
    7.8952  -16.6971   26.5968 O   0  0  0  0  0  0  0  0  0  0  0  0
    9.6401  -15.2800   26.8378 O   0  0  0  0  0  0  0  0  0  0  0  0
  2  1  1  6
  2  3  1  0
  4  5  1  1
  4  2  1  0
  6  4  1  0
  7  6  2  0
  8  6  1  0
  9 14  1  0
  9  8  1  0
  9 10  1  1
 11 10  1  0
 12 11  1  0
 13 12  2  0
 14 22  1  0
 15 14  2  0
 16 12  1  0
 18 17  1  6
 19 18  1  0
 20 18  1  0
 21 20  1  1
 21 23  1  0
 22 21  1  0
 23 24  2  0
 23 25  1  0
M  END
$$$$
