TEL.pdb
     RDKit          3D

 25 24  0  0  1  0  0  0  0  0999 V2000
    9.0286  -12.9114   20.5481 C   0  0  0  0  0  0  0  0  0  0  0  0
    7.5782  -13.3446   20.3113 C   0  0  1  0  0  0  0  0  0  0  0  0
    7.1807  -12.7107   19.1356 O   0  0  0  0  0  0  0  0  0  0  0  0
    7.5922  -14.8355   20.1290 C   0  0  2  0  0  0  0  0  0  0  0  0
    6.3380  -15.3661   19.6398 N   0  0  0  0  0  0  0  0  0  0  0  0
    8.0439  -15.5468   21.3524 C   0  0  0  0  0  0  0  0  0  0  0  0
    7.2377  -15.9390   22.2082 O   0  0  0  0  0  0  0  0  0  0  0  0
    9.4161  -15.8054   21.5901 N   0  0  0  0  0  0  0  0  0  0  0  0
    9.9612  -16.5617   22.6409 C   0  0  1  0  0  0  0  0  0  0  0  0
   11.3502  -17.0307   22.5532 C   0  0  0  0  0  0  0  0  0  0  0  0
   11.8251  -17.8994   23.6952 C   0  0  0  0  0  0  0  0  0  0  0  0
   13.2430  -18.2378   23.5435 C   0  0  0  0  0  0  0  0  0  0  0  0
   14.0914  -18.1215   24.4608 O   0  0  0  0  0  0  0  0  0  0  0  0
    9.8030  -15.7368   23.8974 C   0  0  0  0  0  0  0  0  0  0  0  0
   10.4278  -14.6549   24.0405 O   0  0  0  0  0  0  0  0  0  0  0  0
   13.6857  -18.7164   22.3181 O   0  0  0  0  0  0  0  0  0  0  0  0
    8.2056  -12.2620   26.2419 C   0  0  0  0  0  0  0  0  0  0  0  0
    7.3743  -13.3723   25.6448 C   0  0  2  0  0  0  0  0  0  0  0  0
    5.9128  -12.9291   25.8142 C   0  0  0  0  0  0  0  0  0  0  0  0
    7.5096  -14.6847   26.3132 C   0  0  0  0  0  0  0  0  0  0  0  0
    8.8058  -15.3982   26.1906 C   0  0  2  0  0  0  0  0  0  0  0  0
    8.9528  -16.1357   24.9649 N   0  0  0  0  0  0  0  0  0  0  0  0
    9.1831  -16.1654   27.3943 C   0  0  0  0  0  0  0  0  0  0  0  0
    9.1594  -15.6348   28.5313 O   0  0  0  0  0  0  0  0  0  0  0  0
    9.5751  -17.4925   27.3119 O   0  0  0  0  0  0  0  0  0  0  0  0
  2  1  1  6
  2  3  1  0
  4  5  1  1
  4  2  1  0
  6  4  1  0
  7  6  2  0
  8  6  1  0
  9 14  1  0
  9  8  1  0
  9 10  1  6
 11 10  1  0
 12 11  1  0
 13 12  2  0
 14 22  1  0
 15 14  2  0
 16 12  1  0
 18 17  1  1
 19 18  1  0
 20 18  1  0
 21 20  1  1
 21 23  1  0
 22 21  1  0
 23 24  2  0
 23 25  1  0
M  END
$$$$
