FDL.pdb
     RDKit          3D

 28 28  0  0  1  0  0  0  0  0999 V2000
   28.3970  -21.8401   -8.4517 N   0  0  0  0  0  0  0  0  0  0  0  0
   27.2134  -21.0470   -8.6744 C   0  0  1  0  0  0  0  0  0  0  0  0
   27.4946  -19.6369   -8.1595 C   0  0  0  0  0  0  0  0  0  0  0  0
   27.6399  -19.6289   -6.6793 C   0  0  0  0  0  0  0  0  0  0  0  0
   26.7710  -20.4148   -5.9452 C   0  0  0  0  0  0  0  0  0  0  0  0
   26.8801  -20.4290   -4.5736 C   0  0  0  0  0  0  0  0  0  0  0  0
   27.8603  -19.6514   -3.9897 C   0  0  0  0  0  0  0  0  0  0  0  0
   28.7262  -18.8680   -4.7240 C   0  0  0  0  0  0  0  0  0  0  0  0
   28.6153  -18.8552   -6.0964 C   0  0  0  0  0  0  0  0  0  0  0  0
   26.9818  -20.9026  -10.1462 C   0  0  0  0  0  0  0  0  0  0  0  0
   27.8854  -21.1892  -10.9500 O   0  0  0  0  0  0  0  0  0  0  0  0
   25.7329  -20.4386  -10.6425 N   0  0  0  0  0  0  0  0  0  0  0  0
   25.3159  -20.8401  -11.9561 C   0  0  1  0  0  0  0  0  0  0  0  0
   24.1771  -21.8090  -11.8540 C   0  0  0  0  0  0  0  0  0  0  0  0
   23.7027  -22.3346  -13.1400 C   0  0  0  0  0  0  0  0  0  0  0  0
   24.4190  -22.8682  -14.0238 O   0  0  0  0  0  0  0  0  0  0  0  0
   24.8659  -19.6608  -12.7584 C   0  0  0  0  0  0  0  0  0  0  0  0
   23.9321  -18.9248  -12.3509 O   0  0  0  0  0  0  0  0  0  0  0  0
   22.3313  -22.2275  -13.3944 O   0  0  0  0  0  0  0  0  0  0  0  0
   26.8463  -15.4930  -14.6747 C   0  0  0  0  0  0  0  0  0  0  0  0
   27.1272  -16.8328  -15.2240 C   0  0  2  0  0  0  0  0  0  0  0  0
   28.1330  -16.6390  -16.3962 C   0  0  0  0  0  0  0  0  0  0  0  0
   26.0634  -17.7122  -15.6812 C   0  0  0  0  0  0  0  0  0  0  0  0
   24.9924  -18.1604  -14.7764 C   0  0  2  0  0  0  0  0  0  0  0  0
   25.4575  -19.3208  -13.9929 N   0  0  0  0  0  0  0  0  0  0  0  0
   23.7893  -18.6212  -15.4627 C   0  0  0  0  0  0  0  0  0  0  0  0
   22.8387  -17.9206  -15.8638 O   0  0  0  0  0  0  0  0  0  0  0  0
   23.6395  -19.9994  -15.7241 O   0  0  0  0  0  0  0  0  0  0  0  0
  2  1  1  6
  3  2  1  0
  4  3  1  0
  4  9  2  0
  5  4  1  0
  6  5  2  0
  6  7  1  0
  7  8  2  0
  8  9  1  0
 10 11  2  0
 10  2  1  0
 12 10  1  0
 13 17  1  0
 13 12  1  0
 13 14  1  1
 15 14  1  0
 15 16  2  0
 17 18  2  0
 19 15  1  0
 21 20  1  6
 22 21  1  0
 23 21  1  0
 24 23  1  6
 25 24  1  0
 25 17  1  0
 26 28  1  0
 26 24  1  0
 27 26  2  0
M  END
$$$$
