FDL.pdb
     RDKit          3D

 28 28  0  0  1  0  0  0  0  0999 V2000
   25.3420  -21.7125   -7.1971 N   0  0  0  0  0  0  0  0  0  0  0  0
   25.3345  -20.4755   -7.9381 C   0  0  1  0  0  0  0  0  0  0  0  0
   26.7736  -19.9692   -8.0128 C   0  0  0  0  0  0  0  0  0  0  0  0
   27.2559  -19.5344   -6.6747 C   0  0  0  0  0  0  0  0  0  0  0  0
   27.0350  -18.2194   -6.3093 C   0  0  0  0  0  0  0  0  0  0  0  0
   27.4693  -17.7866   -5.0775 C   0  0  0  0  0  0  0  0  0  0  0  0
   28.1107  -18.6933   -4.2571 C   0  0  0  0  0  0  0  0  0  0  0  0
   28.3301  -20.0049   -4.6236 C   0  0  0  0  0  0  0  0  0  0  0  0
   27.8946  -20.4359   -5.8568 C   0  0  0  0  0  0  0  0  0  0  0  0
   24.9260  -20.7461   -9.3525 C   0  0  0  0  0  0  0  0  0  0  0  0
   25.3761  -21.7373   -9.9521 O   0  0  0  0  0  0  0  0  0  0  0  0
   24.0228  -19.8786  -10.0259 N   0  0  0  0  0  0  0  0  0  0  0  0
   23.6090  -20.2083  -11.3604 C   0  0  1  0  0  0  0  0  0  0  0  0
   22.2449  -19.6460  -11.6230 C   0  0  0  0  0  0  0  0  0  0  0  0
   21.1474  -20.3700  -10.9698 C   0  0  0  0  0  0  0  0  0  0  0  0
   20.9570  -21.6112  -11.0164 O   0  0  0  0  0  0  0  0  0  0  0  0
   24.5578  -19.6443  -12.3695 C   0  0  0  0  0  0  0  0  0  0  0  0
   24.8644  -18.4256  -12.3526 O   0  0  0  0  0  0  0  0  0  0  0  0
   20.2394  -19.6020  -10.2333 O   0  0  0  0  0  0  0  0  0  0  0  0
   29.2164  -19.2186  -13.3814 C   0  0  0  0  0  0  0  0  0  0  0  0
   28.4421  -20.4738  -13.3571 C   0  0  2  0  0  0  0  0  0  0  0  0
   29.4664  -21.6393  -13.4821 C   0  0  0  0  0  0  0  0  0  0  0  0
   27.3567  -20.7231  -14.2918 C   0  0  0  0  0  0  0  0  0  0  0  0
   26.1465  -19.8854  -14.3079 C   0  0  2  0  0  0  0  0  0  0  0  0
   25.1468  -20.4392  -13.3749 N   0  0  0  0  0  0  0  0  0  0  0  0
   25.4743  -19.8379  -15.6028 C   0  0  0  0  0  0  0  0  0  0  0  0
   25.8088  -19.1652  -16.5983 O   0  0  0  0  0  0  0  0  0  0  0  0
   24.3170  -20.6205  -15.7990 O   0  0  0  0  0  0  0  0  0  0  0  0
  2  1  1  1
  3  2  1  0
  4  3  1  0
  4  9  2  0
  5  4  1  0
  6  5  2  0
  6  7  1  0
  7  8  2  0
  8  9  1  0
 10 11  2  0
 10  2  1  0
 12 10  1  0
 13 17  1  0
 13 12  1  0
 13 14  1  6
 15 14  1  0
 15 16  2  0
 17 18  2  0
 19 15  1  0
 21 20  1  6
 22 21  1  0
 23 21  1  0
 24 23  1  6
 25 24  1  0
 25 17  1  0
 26 28  1  0
 26 24  1  0
 27 26  2  0
M  END
$$$$
