FDL.pdb
     RDKit          3D

 28 28  0  0  1  0  0  0  0  0999 V2000
   27.0952  -18.4300   -8.2363 N   0  0  0  0  0  0  0  0  0  0  0  0
   26.9475  -19.8277   -8.5588 C   0  0  1  0  0  0  0  0  0  0  0  0
   26.4227  -20.5395   -7.3135 C   0  0  0  0  0  0  0  0  0  0  0  0
   27.3932  -20.4356   -6.1912 C   0  0  0  0  0  0  0  0  0  0  0  0
   26.9057  -20.0549   -4.9547 C   0  0  0  0  0  0  0  0  0  0  0  0
   27.7785  -19.9497   -3.8963 C   0  0  0  0  0  0  0  0  0  0  0  0
   29.1115  -20.2316   -4.1203 C   0  0  0  0  0  0  0  0  0  0  0  0
   29.5959  -20.6113   -5.3548 C   0  0  0  0  0  0  0  0  0  0  0  0
   28.7206  -20.7159   -6.4127 C   0  0  0  0  0  0  0  0  0  0  0  0
   25.8812  -19.9880   -9.5971 C   0  0  0  0  0  0  0  0  0  0  0  0
   24.7553  -19.4942   -9.4151 O   0  0  0  0  0  0  0  0  0  0  0  0
   26.1396  -20.7029  -10.7987 N   0  0  0  0  0  0  0  0  0  0  0  0
   25.2299  -20.5605  -11.8999 C   0  0  1  0  0  0  0  0  0  0  0  0
   25.8910  -21.0119  -13.1669 C   0  0  0  0  0  0  0  0  0  0  0  0
   25.1653  -20.6633  -14.3946 C   0  0  0  0  0  0  0  0  0  0  0  0
   24.1594  -19.9134  -14.4645 O   0  0  0  0  0  0  0  0  0  0  0  0
   23.9991  -21.3831  -11.6870 C   0  0  0  0  0  0  0  0  0  0  0  0
   23.6333  -21.7042  -10.5283 O   0  0  0  0  0  0  0  0  0  0  0  0
   25.6433  -21.2196  -15.5857 O   0  0  0  0  0  0  0  0  0  0  0  0
   18.7365  -19.9722  -12.0241 C   0  0  0  0  0  0  0  0  0  0  0  0
   19.6682  -21.0472  -11.6345 C   0  0  2  0  0  0  0  0  0  0  0  0
   19.5451  -21.2151  -10.0918 C   0  0  0  0  0  0  0  0  0  0  0  0
   21.0814  -20.9967  -11.9728 C   0  0  0  0  0  0  0  0  0  0  0  0
   21.7710  -22.1497  -12.5741 C   0  0  2  0  0  0  0  0  0  0  0  0
   23.2000  -21.8326  -12.7588 N   0  0  0  0  0  0  0  0  0  0  0  0
   21.2844  -22.5054  -13.9037 C   0  0  0  0  0  0  0  0  0  0  0  0
   21.5931  -21.9666  -14.9853 O   0  0  0  0  0  0  0  0  0  0  0  0
   20.3644  -23.5673  -14.0311 O   0  0  0  0  0  0  0  0  0  0  0  0
  2  1  1  1
  3  2  1  0
  4  3  1  0
  4  9  2  0
  5  4  1  0
  6  5  2  0
  6  7  1  0
  7  8  2  0
  8  9  1  0
 10 11  2  0
 10  2  1  0
 12 10  1  0
 13 17  1  0
 13 12  1  0
 13 14  1  6
 15 14  1  0
 15 16  2  0
 17 18  2  0
 19 15  1  0
 21 20  1  1
 22 21  1  0
 23 21  1  0
 24 23  1  6
 25 24  1  0
 25 17  1  0
 26 28  1  0
 26 24  1  0
 27 26  2  0
M  END
$$$$
