FDL.pdb
     RDKit          3D

 28 28  0  0  1  0  0  0  0  0999 V2000
   23.3548  -17.1901  -17.9203 N   0  0  0  0  0  0  0  0  0  0  0  0
   24.3183  -17.1243  -16.8494 C   0  0  1  0  0  0  0  0  0  0  0  0
   23.6938  -16.3209  -15.7104 C   0  0  0  0  0  0  0  0  0  0  0  0
   23.9238  -14.8634  -15.8974 C   0  0  0  0  0  0  0  0  0  0  0  0
   25.1559  -14.3560  -15.5287 C   0  0  0  0  0  0  0  0  0  0  0  0
   25.3996  -13.0113  -15.6895 C   0  0  0  0  0  0  0  0  0  0  0  0
   24.3939  -12.2251  -16.2159 C   0  0  0  0  0  0  0  0  0  0  0  0
   23.1653  -12.7334  -16.5831 C   0  0  0  0  0  0  0  0  0  0  0  0
   22.9236  -14.0794  -16.4213 C   0  0  0  0  0  0  0  0  0  0  0  0
   24.5448  -18.4981  -16.2999 C   0  0  0  0  0  0  0  0  0  0  0  0
   23.6130  -19.3201  -16.2741 O   0  0  0  0  0  0  0  0  0  0  0  0
   25.8211  -18.8799  -15.8028 N   0  0  0  0  0  0  0  0  0  0  0  0
   25.9928  -20.2043  -15.2764 C   0  0  1  0  0  0  0  0  0  0  0  0
   27.4073  -20.6541  -15.4835 C   0  0  0  0  0  0  0  0  0  0  0  0
   27.6450  -22.0759  -15.2057 C   0  0  0  0  0  0  0  0  0  0  0  0
   28.7372  -22.6797  -15.3525 O   0  0  0  0  0  0  0  0  0  0  0  0
   25.6921  -20.2411  -13.8118 C   0  0  0  0  0  0  0  0  0  0  0  0
   26.3542  -19.5444  -13.0020 O   0  0  0  0  0  0  0  0  0  0  0  0
   26.5537  -22.8149  -14.7368 O   0  0  0  0  0  0  0  0  0  0  0  0
   20.5987  -20.3641  -11.1826 C   0  0  0  0  0  0  0  0  0  0  0  0
   22.0471  -20.1662  -11.3788 C   0  0  2  0  0  0  0  0  0  0  0  0
   22.2109  -19.1692  -12.5630 C   0  0  0  0  0  0  0  0  0  0  0  0
   22.9505  -21.2838  -11.6000 C   0  0  0  0  0  0  0  0  0  0  0  0
   24.3903  -21.0773  -11.8255 C   0  0  2  0  0  0  0  0  0  0  0  0
   24.6666  -21.0468  -13.2744 N   0  0  0  0  0  0  0  0  0  0  0  0
   25.2332  -22.1465  -11.2990 C   0  0  0  0  0  0  0  0  0  0  0  0
   25.6203  -23.1652  -11.9055 O   0  0  0  0  0  0  0  0  0  0  0  0
   25.6850  -22.0639   -9.9651 O   0  0  0  0  0  0  0  0  0  0  0  0
  2  1  1  6
  3  2  1  0
  4  3  1  0
  4  9  2  0
  5  4  1  0
  6  5  2  0
  6  7  1  0
  7  8  2  0
  8  9  1  0
 10 11  2  0
 10  2  1  0
 12 10  1  0
 13 17  1  0
 13 12  1  0
 13 14  1  1
 15 14  1  0
 15 16  2  0
 17 18  2  0
 19 15  1  0
 21 20  1  6
 22 21  1  0
 23 21  1  0
 24 23  1  6
 25 24  1  0
 25 17  1  0
 26 28  1  0
 26 24  1  0
 27 26  2  0
M  END
$$$$
