FDL.pdb
     RDKit          3D

 28 28  0  0  1  0  0  0  0  0999 V2000
   31.9132   -7.1245  -16.4105 N   0  0  0  0  0  0  0  0  0  0  0  0
   32.3427   -8.2889  -17.1448 C   0  0  1  0  0  0  0  0  0  0  0  0
   33.3597   -9.0337  -16.2824 C   0  0  0  0  0  0  0  0  0  0  0  0
   34.6486   -8.2941  -16.2196 C   0  0  0  0  0  0  0  0  0  0  0  0
   35.5349   -8.4596  -17.2677 C   0  0  0  0  0  0  0  0  0  0  0  0
   36.7360   -7.7888  -17.2390 C   0  0  0  0  0  0  0  0  0  0  0  0
   37.0021   -6.9749  -16.1557 C   0  0  0  0  0  0  0  0  0  0  0  0
   36.1164   -6.8112  -15.1110 C   0  0  0  0  0  0  0  0  0  0  0  0
   34.9151   -7.4835  -15.1418 C   0  0  0  0  0  0  0  0  0  0  0  0
   31.1873   -9.2262  -17.3098 C   0  0  0  0  0  0  0  0  0  0  0  0
   30.1346   -9.0346  -16.6775 O   0  0  0  0  0  0  0  0  0  0  0  0
   31.2771  -10.3418  -18.1867 N   0  0  0  0  0  0  0  0  0  0  0  0
   30.1094  -11.1475  -18.4061 C   0  0  1  0  0  0  0  0  0  0  0  0
   29.0636  -10.3436  -19.1175 C   0  0  0  0  0  0  0  0  0  0  0  0
   27.8164  -11.0675  -19.3927 C   0  0  0  0  0  0  0  0  0  0  0  0
   27.1150  -10.9532  -20.4291 O   0  0  0  0  0  0  0  0  0  0  0  0
   30.4353  -12.3463  -19.2389 C   0  0  0  0  0  0  0  0  0  0  0  0
   31.0574  -12.2250  -20.3242 O   0  0  0  0  0  0  0  0  0  0  0  0
   27.3788  -11.9606  -18.4090 O   0  0  0  0  0  0  0  0  0  0  0  0
   33.1453  -16.5283  -19.5846 C   0  0  0  0  0  0  0  0  0  0  0  0
   32.1566  -16.2540  -18.5250 C   0  0  2  0  0  0  0  0  0  0  0  0
   32.1897  -17.4676  -17.5506 C   0  0  0  0  0  0  0  0  0  0  0  0
   30.7666  -15.9577  -18.8316 C   0  0  0  0  0  0  0  0  0  0  0  0
   30.3925  -14.8228  -19.6910 C   0  0  2  0  0  0  0  0  0  0  0  0
   30.0668  -13.6523  -18.8541 N   0  0  0  0  0  0  0  0  0  0  0  0
   29.1996  -15.0576  -20.4990 C   0  0  0  0  0  0  0  0  0  0  0  0
   29.1532  -15.5483  -21.6446 O   0  0  0  0  0  0  0  0  0  0  0  0
   27.9390  -14.7089  -19.9702 O   0  0  0  0  0  0  0  0  0  0  0  0
  2  1  1  1
  3  2  1  0
  4  3  1  0
  4  9  2  0
  5  4  1  0
  6  5  2  0
  6  7  1  0
  7  8  2  0
  8  9  1  0
 10 11  2  0
 10  2  1  0
 12 10  1  0
 13 17  1  0
 13 12  1  0
 13 14  1  6
 15 14  1  0
 15 16  2  0
 17 18  2  0
 19 15  1  0
 21 20  1  6
 22 21  1  0
 23 21  1  0
 24 23  1  1
 25 24  1  0
 25 17  1  0
 26 28  1  0
 26 24  1  0
 27 26  2  0
M  END
$$$$
