FDL.pdb
     RDKit          3D

 28 28  0  0  1  0  0  0  0  0999 V2000
   24.4162  -10.2281  -17.6482 N   0  0  0  0  0  0  0  0  0  0  0  0
   24.4183   -9.6027  -16.3489 C   0  0  1  0  0  0  0  0  0  0  0  0
   25.8286   -9.0778  -16.0875 C   0  0  0  0  0  0  0  0  0  0  0  0
   26.8330  -10.1690  -16.2000 C   0  0  0  0  0  0  0  0  0  0  0  0
   27.9111   -9.9643  -17.0410 C   0  0  0  0  0  0  0  0  0  0  0  0
   28.8577  -10.9551  -17.1665 C   0  0  0  0  0  0  0  0  0  0  0  0
   28.6851  -12.1170  -16.4407 C   0  0  0  0  0  0  0  0  0  0  0  0
   27.6087  -12.3192  -15.6022 C   0  0  0  0  0  0  0  0  0  0  0  0
   26.6626  -11.3263  -15.4781 C   0  0  0  0  0  0  0  0  0  0  0  0
   23.5348   -8.3947  -16.3776 C   0  0  0  0  0  0  0  0  0  0  0  0
   23.1597   -7.9231  -17.4645 O   0  0  0  0  0  0  0  0  0  0  0  0
   23.1149   -7.7736  -15.1695 N   0  0  0  0  0  0  0  0  0  0  0  0
   22.0814   -6.7788  -15.2237 C   0  0  1  0  0  0  0  0  0  0  0  0
   21.2672   -6.8226  -13.9663 C   0  0  0  0  0  0  0  0  0  0  0  0
   20.3489   -7.9641  -13.8704 C   0  0  0  0  0  0  0  0  0  0  0  0
   19.8497   -8.5877  -14.8404 O   0  0  0  0  0  0  0  0  0  0  0  0
   22.6644   -5.4087  -15.3648 C   0  0  0  0  0  0  0  0  0  0  0  0
   23.8678   -5.1896  -15.0763 O   0  0  0  0  0  0  0  0  0  0  0  0
   20.0057   -8.3870  -12.5819 O   0  0  0  0  0  0  0  0  0  0  0  0
   23.8128   -0.9559  -18.3533 C   0  0  0  0  0  0  0  0  0  0  0  0
   24.3906   -2.1235  -17.6616 C   0  0  2  0  0  0  0  0  0  0  0  0
   25.4824   -2.7116  -18.6026 C   0  0  0  0  0  0  0  0  0  0  0  0
   23.5628   -3.2208  -17.1876 C   0  0  0  0  0  0  0  0  0  0  0  0
   22.5379   -3.0200  -16.1504 C   0  0  2  0  0  0  0  0  0  0  0  0
   21.9049   -4.3113  -15.8213 N   0  0  0  0  0  0  0  0  0  0  0  0
   21.4396   -2.1506  -16.5612 C   0  0  0  0  0  0  0  0  0  0  0  0
   20.3604   -2.4985  -17.0807 O   0  0  0  0  0  0  0  0  0  0  0  0
   21.5643   -0.7584  -16.3700 O   0  0  0  0  0  0  0  0  0  0  0  0
  2  1  1  6
  3  2  1  0
  4  3  1  0
  4  9  2  0
  5  4  1  0
  6  5  2  0
  6  7  1  0
  7  8  2  0
  8  9  1  0
 10 11  2  0
 10  2  1  0
 12 10  1  0
 13 17  1  0
 13 12  1  0
 13 14  1  1
 15 14  1  0
 15 16  2  0
 17 18  2  0
 19 15  1  0
 21 20  1  6
 22 21  1  0
 23 21  1  0
 24 23  1  6
 25 24  1  0
 25 17  1  0
 26 28  1  0
 26 24  1  0
 27 26  2  0
M  END
$$$$
