YFC.pdb
     RDKit          3D

 30 31  0  0  1  0  0  0  0  0999 V2000
   22.2701  -13.7999  -20.9982 O   0  0  0  0  0  0  0  0  0  0  0  0
   22.3531  -15.0353  -20.3473 C   0  0  0  0  0  0  0  0  0  0  0  0
   21.4109  -15.4052  -19.3992 C   0  0  0  0  0  0  0  0  0  0  0  0
   21.4544  -16.6124  -18.7339 C   0  0  0  0  0  0  0  0  0  0  0  0
   22.4668  -17.5092  -19.0030 C   0  0  0  0  0  0  0  0  0  0  0  0
   22.5585  -18.8053  -18.3237 C   0  0  0  0  0  0  0  0  0  0  0  0
   23.5993  -18.8451  -17.2381 C   0  0  2  0  0  0  0  0  0  0  0  0
   24.9230  -19.1083  -17.7453 N   0  0  0  0  0  0  0  0  0  0  0  0
   23.2421  -19.9580  -16.3206 C   0  0  0  0  0  0  0  0  0  0  0  0
   23.7660  -21.0824  -16.5363 O   0  0  0  0  0  0  0  0  0  0  0  0
   23.4042  -17.1410  -19.9462 C   0  0  0  0  0  0  0  0  0  0  0  0
   23.3629  -15.9363  -20.6119 C   0  0  0  0  0  0  0  0  0  0  0  0
   22.3486  -19.7898  -15.2358 N   0  0  0  0  0  0  0  0  0  0  0  0
   22.1809  -20.8392  -14.1870 C   0  0  1  0  0  0  0  0  0  0  0  0
   22.8286  -20.3674  -12.9352 C   0  0  0  0  0  0  0  0  0  0  0  0
   24.2631  -20.5463  -12.7857 C   0  0  0  0  0  0  0  0  0  0  0  0
   25.1721  -19.6051  -13.2156 C   0  0  0  0  0  0  0  0  0  0  0  0
   26.5339  -19.7857  -13.0766 C   0  0  0  0  0  0  0  0  0  0  0  0
   27.0330  -20.9264  -12.4966 C   0  0  0  0  0  0  0  0  0  0  0  0
   26.1568  -21.8870  -12.0557 C   0  0  0  0  0  0  0  0  0  0  0  0
   24.8060  -21.6963  -12.1994 C   0  0  0  0  0  0  0  0  0  0  0  0
   20.7520  -21.1362  -14.1417 C   0  0  0  0  0  0  0  0  0  0  0  0
   19.8878  -20.2186  -14.0820 O   0  0  0  0  0  0  0  0  0  0  0  0
   20.2597  -22.4618  -14.1698 N   0  0  0  0  0  0  0  0  0  0  0  0
   18.8018  -22.6878  -14.1413 C   0  0  1  0  0  0  0  0  0  0  0  0
   18.5896  -24.1449  -14.5376 C   0  0  0  0  0  0  0  0  0  0  0  0
   16.8681  -24.6226  -14.3880 S   0  0  0  0  0  0  0  0  0  0  0  0
   18.2339  -22.4282  -12.8288 C   0  0  0  0  0  0  0  0  0  0  0  0
   18.8181  -22.7761  -11.7863 O   0  0  0  0  0  0  0  0  0  0  0  0
   17.0152  -21.7787  -12.7482 O   0  0  0  0  0  0  0  0  0  0  0  0
  2  1  1  0
  3  2  2  0
  4  3  1  0
  5  4  2  0
  5 11  1  0
  6  5  1  0
  7  8  1  6
  7  6  1  0
  9  7  1  0
  9 10  2  0
 11 12  2  0
 12  2  1  0
 13  9  1  0
 14 13  1  0
 14 22  1  0
 14 15  1  1
 16 15  1  0
 16 17  2  0
 18 17  1  0
 19 18  2  0
 20 21  2  0
 20 19  1  0
 21 16  1  0
 22 23  2  0
 22 24  1  0
 24 25  1  0
 25 28  1  0
 26 27  1  0
 25 26  1  1
 28 29  2  0
 28 30  1  0
M  END
$$$$
