YFC.pdb
     RDKit          3D

 30 31  0  0  1  0  0  0  0  0999 V2000
   19.0318  -23.1874  -18.1156 O   0  0  0  0  0  0  0  0  0  0  0  0
   19.9122  -22.6498  -17.1708 C   0  0  0  0  0  0  0  0  0  0  0  0
   21.0737  -23.3203  -16.8176 C   0  0  0  0  0  0  0  0  0  0  0  0
   21.9689  -22.8273  -15.8916 C   0  0  0  0  0  0  0  0  0  0  0  0
   21.7238  -21.6185  -15.2749 C   0  0  0  0  0  0  0  0  0  0  0  0
   22.6433  -21.0505  -14.2840 C   0  0  0  0  0  0  0  0  0  0  0  0
   22.3246  -21.4477  -12.8683 C   0  0  2  0  0  0  0  0  0  0  0  0
   21.0132  -21.0177  -12.4512 N   0  0  0  0  0  0  0  0  0  0  0  0
   23.3163  -20.7800  -11.9857 C   0  0  0  0  0  0  0  0  0  0  0  0
   22.9652  -19.7133  -11.4166 O   0  0  0  0  0  0  0  0  0  0  0  0
   20.5682  -20.9516  -15.6264 C   0  0  0  0  0  0  0  0  0  0  0  0
   19.6728  -21.4417  -16.5506 C   0  0  0  0  0  0  0  0  0  0  0  0
   24.6152  -21.3010  -11.7737 N   0  0  0  0  0  0  0  0  0  0  0  0
   25.5985  -20.6189  -10.8810 C   0  0  1  0  0  0  0  0  0  0  0  0
   26.0329  -21.5781   -9.8320 C   0  0  0  0  0  0  0  0  0  0  0  0
   26.9164  -21.1035   -8.7802 C   0  0  0  0  0  0  0  0  0  0  0  0
   26.4756  -20.2945   -7.7564 C   0  0  0  0  0  0  0  0  0  0  0  0
   27.3228  -19.8416   -6.7648 C   0  0  0  0  0  0  0  0  0  0  0  0
   28.6519  -20.1887   -6.7674 C   0  0  0  0  0  0  0  0  0  0  0  0
   29.1274  -20.9943   -7.7723 C   0  0  0  0  0  0  0  0  0  0  0  0
   28.2759  -21.4378   -8.7521 C   0  0  0  0  0  0  0  0  0  0  0  0
   26.6235  -20.0660  -11.7617 C   0  0  0  0  0  0  0  0  0  0  0  0
   27.7597  -19.7326  -11.3258 O   0  0  0  0  0  0  0  0  0  0  0  0
   26.4031  -19.8817  -13.1466 N   0  0  0  0  0  0  0  0  0  0  0  0
   27.4601  -20.2695  -14.1005 C   0  0  1  0  0  0  0  0  0  0  0  0
   27.7012  -21.7597  -13.8853 C   0  0  0  0  0  0  0  0  0  0  0  0
   28.9026  -22.4057  -15.0486 S   0  0  0  0  0  0  0  0  0  0  0  0
   27.0762  -20.0084  -15.4778 C   0  0  0  0  0  0  0  0  0  0  0  0
   25.9820  -20.3898  -15.9321 O   0  0  0  0  0  0  0  0  0  0  0  0
   27.9551  -19.3192  -16.2939 O   0  0  0  0  0  0  0  0  0  0  0  0
  2  1  1  0
  3  2  2  0
  4  3  1  0
  5  4  2  0
  5 11  1  0
  6  5  1  0
  7  8  1  1
  7  6  1  0
  9  7  1  0
  9 10  2  0
 11 12  2  0
 12  2  1  0
 13  9  1  0
 14 13  1  0
 14 22  1  0
 14 15  1  1
 16 15  1  0
 16 17  2  0
 18 17  1  0
 19 18  2  0
 20 21  2  0
 20 19  1  0
 21 16  1  0
 22 23  2  0
 22 24  1  0
 24 25  1  0
 25 28  1  0
 26 27  1  0
 25 26  1  6
 28 29  2  0
 28 30  1  0
M  END
$$$$
