YFC.pdb
     RDKit          3D

 30 31  0  0  1  0  0  0  0  0999 V2000
   25.3204  -12.7905  -18.1780 O   0  0  0  0  0  0  0  0  0  0  0  0
   25.0972  -13.9915  -17.4964 C   0  0  0  0  0  0  0  0  0  0  0  0
   25.5087  -14.1510  -16.1817 C   0  0  0  0  0  0  0  0  0  0  0  0
   25.3092  -15.3167  -15.4724 C   0  0  0  0  0  0  0  0  0  0  0  0
   24.6762  -16.3856  -16.0712 C   0  0  0  0  0  0  0  0  0  0  0  0
   24.4397  -17.6465  -15.3613 C   0  0  0  0  0  0  0  0  0  0  0  0
   25.5919  -18.6104  -15.4437 C   0  0  2  0  0  0  0  0  0  0  0  0
   25.8654  -19.0371  -16.7935 N   0  0  0  0  0  0  0  0  0  0  0  0
   25.2192  -19.8165  -14.6599 C   0  0  0  0  0  0  0  0  0  0  0  0
   24.5357  -20.7005  -15.2400 O   0  0  0  0  0  0  0  0  0  0  0  0
   24.2668  -16.2268  -17.3792 C   0  0  0  0  0  0  0  0  0  0  0  0
   24.4649  -15.0638  -18.0895 C   0  0  0  0  0  0  0  0  0  0  0  0
   25.6042  -19.9924  -13.3092 N   0  0  0  0  0  0  0  0  0  0  0  0
   25.1517  -21.1702  -12.5110 C   0  0  1  0  0  0  0  0  0  0  0  0
   26.1852  -21.4757  -11.4874 C   0  0  0  0  0  0  0  0  0  0  0  0
   26.0176  -20.9353  -10.1488 C   0  0  0  0  0  0  0  0  0  0  0  0
   26.0825  -19.5849   -9.8855 C   0  0  0  0  0  0  0  0  0  0  0  0
   25.9295  -19.0798   -8.6097 C   0  0  0  0  0  0  0  0  0  0  0  0
   25.7041  -19.9200   -7.5467 C   0  0  0  0  0  0  0  0  0  0  0  0
   25.6329  -21.2725   -7.7709 C   0  0  0  0  0  0  0  0  0  0  0  0
   25.7866  -21.7626   -9.0428 C   0  0  0  0  0  0  0  0  0  0  0  0
   23.8076  -20.8447  -12.0425 C   0  0  0  0  0  0  0  0  0  0  0  0
   23.5257  -19.7032  -11.5845 O   0  0  0  0  0  0  0  0  0  0  0  0
   22.7508  -21.7839  -12.0830 N   0  0  0  0  0  0  0  0  0  0  0  0
   21.4391  -21.4145  -11.5169 C   0  0  1  0  0  0  0  0  0  0  0  0
   20.9333  -20.2397  -12.3471 C   0  0  0  0  0  0  0  0  0  0  0  0
   20.8597  -20.6504  -14.0906 S   0  0  0  0  0  0  0  0  0  0  0  0
   20.4932  -22.5172  -11.5641 C   0  0  0  0  0  0  0  0  0  0  0  0
   20.7417  -23.5614  -12.1941 O   0  0  0  0  0  0  0  0  0  0  0  0
   19.2922  -22.3923  -10.8893 O   0  0  0  0  0  0  0  0  0  0  0  0
  2  1  1  0
  3  2  2  0
  4  3  1  0
  5  4  2  0
  5 11  1  0
  6  5  1  0
  7  8  1  6
  7  6  1  0
  9  7  1  0
  9 10  2  0
 11 12  2  0
 12  2  1  0
 13  9  1  0
 14 13  1  0
 14 22  1  0
 14 15  1  1
 16 15  1  0
 16 17  2  0
 18 17  1  0
 19 18  2  0
 20 21  2  0
 20 19  1  0
 21 16  1  0
 22 23  2  0
 22 24  1  0
 24 25  1  0
 25 28  1  0
 26 27  1  0
 25 26  1  6
 28 29  2  0
 28 30  1  0
M  END
$$$$
