YFC.pdb
     RDKit          3D

 30 31  0  0  1  0  0  0  0  0999 V2000
   17.6475  -24.5185   -9.7230 O   0  0  0  0  0  0  0  0  0  0  0  0
   18.5911  -23.9320  -10.5730 C   0  0  0  0  0  0  0  0  0  0  0  0
   18.6646  -24.2908  -11.9106 C   0  0  0  0  0  0  0  0  0  0  0  0
   19.5785  -23.7386  -12.7834 C   0  0  0  0  0  0  0  0  0  0  0  0
   20.4693  -22.7867  -12.3339 C   0  0  0  0  0  0  0  0  0  0  0  0
   21.4603  -22.1688  -13.2206 C   0  0  0  0  0  0  0  0  0  0  0  0
   21.1765  -20.7238  -13.5283 C   0  0  2  0  0  0  0  0  0  0  0  0
   19.9120  -20.5344  -14.1945 N   0  0  0  0  0  0  0  0  0  0  0  0
   22.2424  -20.2477  -14.4477 C   0  0  0  0  0  0  0  0  0  0  0  0
   21.9077  -19.9514  -15.6246 O   0  0  0  0  0  0  0  0  0  0  0  0
   20.3961  -22.4298  -11.0031 C   0  0  0  0  0  0  0  0  0  0  0  0
   19.4845  -22.9797  -10.1298 C   0  0  0  0  0  0  0  0  0  0  0  0
   23.5929  -20.1220  -14.0429 N   0  0  0  0  0  0  0  0  0  0  0  0
   24.6437  -19.5999  -14.9662 C   0  0  1  0  0  0  0  0  0  0  0  0
   25.6450  -18.8451  -14.1681 C   0  0  0  0  0  0  0  0  0  0  0  0
   26.7813  -18.2568  -14.8571 C   0  0  0  0  0  0  0  0  0  0  0  0
   26.7871  -16.9474  -15.2842 C   0  0  0  0  0  0  0  0  0  0  0  0
   27.8678  -16.3978  -15.9448 C   0  0  0  0  0  0  0  0  0  0  0  0
   28.9882  -17.1502  -16.2006 C   0  0  0  0  0  0  0  0  0  0  0  0
   29.0187  -18.4597  -15.7894 C   0  0  0  0  0  0  0  0  0  0  0  0
   27.9388  -18.9946  -15.1341 C   0  0  0  0  0  0  0  0  0  0  0  0
   25.1137  -20.7515  -15.7310 C   0  0  0  0  0  0  0  0  0  0  0  0
   25.9530  -20.6267  -16.6650 O   0  0  0  0  0  0  0  0  0  0  0  0
   24.6622  -22.0649  -15.4635 N   0  0  0  0  0  0  0  0  0  0  0  0
   25.2778  -23.1969  -16.1827 C   0  0  1  0  0  0  0  0  0  0  0  0
   25.4437  -24.3127  -15.1567 C   0  0  0  0  0  0  0  0  0  0  0  0
   23.8645  -25.0328  -14.7077 S   0  0  0  0  0  0  0  0  0  0  0  0
   24.4601  -23.6461  -17.2973 C   0  0  0  0  0  0  0  0  0  0  0  0
   23.3498  -23.1372  -17.5367 O   0  0  0  0  0  0  0  0  0  0  0  0
   24.9370  -24.6635  -18.1042 O   0  0  0  0  0  0  0  0  0  0  0  0
  2  1  1  0
  3  2  2  0
  4  3  1  0
  5  4  2  0
  5 11  1  0
  6  5  1  0
  7  8  1  6
  7  6  1  0
  9  7  1  0
  9 10  2  0
 11 12  2  0
 12  2  1  0
 13  9  1  0
 14 13  1  0
 14 22  1  0
 14 15  1  1
 16 15  1  0
 16 17  2  0
 18 17  1  0
 19 18  2  0
 20 21  2  0
 20 19  1  0
 21 16  1  0
 22 23  2  0
 22 24  1  0
 24 25  1  0
 25 28  1  0
 26 27  1  0
 25 26  1  1
 28 29  2  0
 28 30  1  0
M  END
$$$$
