YFC.pdb
     RDKit          3D

 30 31  0  0  1  0  0  0  0  0999 V2000
   22.7994  -14.8709  -22.6649 O   0  0  0  0  0  0  0  0  0  0  0  0
   22.6213  -15.7832  -21.6195 C   0  0  0  0  0  0  0  0  0  0  0  0
   23.0381  -17.1000  -21.7450 C   0  0  0  0  0  0  0  0  0  0  0  0
   22.8823  -18.0320  -20.7406 C   0  0  0  0  0  0  0  0  0  0  0  0
   22.2901  -17.6667  -19.5500 C   0  0  0  0  0  0  0  0  0  0  0  0
   22.1010  -18.6189  -18.4512 C   0  0  0  0  0  0  0  0  0  0  0  0
   23.2442  -18.6465  -17.4735 C   0  0  2  0  0  0  0  0  0  0  0  0
   24.4375  -19.2352  -18.0287 N   0  0  0  0  0  0  0  0  0  0  0  0
   22.8242  -19.4873  -16.3225 C   0  0  0  0  0  0  0  0  0  0  0  0
   23.2454  -20.6730  -16.2823 O   0  0  0  0  0  0  0  0  0  0  0  0
   21.8755  -16.3566  -19.4253 C   0  0  0  0  0  0  0  0  0  0  0  0
   22.0299  -15.4241  -20.4267 C   0  0  0  0  0  0  0  0  0  0  0  0
   21.9822  -18.9999  -15.2943 N   0  0  0  0  0  0  0  0  0  0  0  0
   21.7054  -19.7970  -14.0626 C   0  0  1  0  0  0  0  0  0  0  0  0
   22.0810  -18.9842  -12.8763 C   0  0  0  0  0  0  0  0  0  0  0  0
   21.7674  -19.4995  -11.5541 C   0  0  0  0  0  0  0  0  0  0  0  0
   22.5320  -20.4661  -10.9392 C   0  0  0  0  0  0  0  0  0  0  0  0
   22.2232  -20.9559   -9.6858 C   0  0  0  0  0  0  0  0  0  0  0  0
   21.1278  -20.4879   -9.0019 C   0  0  0  0  0  0  0  0  0  0  0  0
   20.3422  -19.5238   -9.5832 C   0  0  0  0  0  0  0  0  0  0  0  0
   20.6589  -19.0450  -10.8291 C   0  0  0  0  0  0  0  0  0  0  0  0
   20.3172  -20.2361  -14.1727 C   0  0  0  0  0  0  0  0  0  0  0  0
   19.3809  -19.4190  -14.3920 O   0  0  0  0  0  0  0  0  0  0  0  0
   19.9479  -21.5957  -14.0478 N   0  0  0  0  0  0  0  0  0  0  0  0
   18.6150  -21.9321  -13.5117 C   0  0  1  0  0  0  0  0  0  0  0  0
   18.8397  -22.4051  -12.0795 C   0  0  0  0  0  0  0  0  0  0  0  0
   17.9341  -23.9137  -11.7360 S   0  0  0  0  0  0  0  0  0  0  0  0
   17.7120  -20.7934  -13.5371 C   0  0  0  0  0  0  0  0  0  0  0  0
   18.1319  -19.6271  -13.4246 O   0  0  0  0  0  0  0  0  0  0  0  0
   16.3566  -21.0228  -13.6906 O   0  0  0  0  0  0  0  0  0  0  0  0
  2  1  1  0
  3  2  2  0
  4  3  1  0
  5  4  2  0
  5 11  1  0
  6  5  1  0
  7  8  1  6
  7  6  1  0
  9  7  1  0
  9 10  2  0
 11 12  2  0
 12  2  1  0
 13  9  1  0
 14 13  1  0
 14 22  1  0
 14 15  1  1
 16 15  1  0
 16 17  2  0
 18 17  1  0
 19 18  2  0
 20 21  2  0
 20 19  1  0
 21 16  1  0
 22 23  2  0
 22 24  1  0
 24 25  1  0
 25 28  1  0
 26 27  1  0
 25 26  1  1
 28 29  2  0
 28 30  1  0
M  END
$$$$
