YFC.pdb
     RDKit          3D

 30 31  0  0  1  0  0  0  0  0999 V2000
   27.7166  -16.4781  -17.9925 O   0  0  0  0  0  0  0  0  0  0  0  0
   27.3578  -17.2216  -16.8632 C   0  0  0  0  0  0  0  0  0  0  0  0
   26.6844  -18.4274  -16.9893 C   0  0  0  0  0  0  0  0  0  0  0  0
   26.3118  -19.1922  -15.9039 C   0  0  0  0  0  0  0  0  0  0  0  0
   26.6086  -18.7639  -14.6272 C   0  0  0  0  0  0  0  0  0  0  0  0
   26.2348  -19.5394  -13.4402 C   0  0  0  0  0  0  0  0  0  0  0  0
   27.3113  -20.4796  -12.9704 C   0  0  2  0  0  0  0  0  0  0  0  0
   27.4063  -21.6673  -13.7821 N   0  0  0  0  0  0  0  0  0  0  0  0
   26.9574  -20.9067  -11.5918 C   0  0  0  0  0  0  0  0  0  0  0  0
   26.5033  -22.0713  -11.4408 O   0  0  0  0  0  0  0  0  0  0  0  0
   27.2786  -17.5643  -14.5019 C   0  0  0  0  0  0  0  0  0  0  0  0
   27.6517  -16.7988  -15.5840 C   0  0  0  0  0  0  0  0  0  0  0  0
   27.1143  -20.0572  -10.4706 N   0  0  0  0  0  0  0  0  0  0  0  0
   26.9118  -20.5520   -9.0765 C   0  0  1  0  0  0  0  0  0  0  0  0
   27.8418  -19.8239   -8.1742 C   0  0  0  0  0  0  0  0  0  0  0  0
   27.7052  -20.0102   -6.7394 C   0  0  0  0  0  0  0  0  0  0  0  0
   28.2525  -21.0890   -6.0808 C   0  0  0  0  0  0  0  0  0  0  0  0
   28.1121  -21.2629   -4.7183 C   0  0  0  0  0  0  0  0  0  0  0  0
   27.4121  -20.3522   -3.9651 C   0  0  0  0  0  0  0  0  0  0  0  0
   26.8526  -19.2638   -4.5872 C   0  0  0  0  0  0  0  0  0  0  0  0
   26.9988  -19.1019   -5.9415 C   0  0  0  0  0  0  0  0  0  0  0  0
   25.4803  -20.4352   -8.8135 C   0  0  0  0  0  0  0  0  0  0  0  0
   24.9816  -20.7777   -7.7061 O   0  0  0  0  0  0  0  0  0  0  0  0
   24.5790  -19.9271   -9.7778 N   0  0  0  0  0  0  0  0  0  0  0  0
   23.1532  -19.7857   -9.4250 C   0  0  1  0  0  0  0  0  0  0  0  0
   22.5271  -18.9287  -10.5199 C   0  0  0  0  0  0  0  0  0  0  0  0
   22.8740  -19.5890  -12.1502 S   0  0  0  0  0  0  0  0  0  0  0  0
   22.4816  -21.0718   -9.3370 C   0  0  0  0  0  0  0  0  0  0  0  0
   21.3174  -21.1701   -8.9080 O   0  0  0  0  0  0  0  0  0  0  0  0
   23.1617  -22.2061   -9.7422 O   0  0  0  0  0  0  0  0  0  0  0  0
  2  1  1  0
  3  2  2  0
  4  3  1  0
  5  4  2  0
  5 11  1  0
  6  5  1  0
  7  8  1  6
  7  6  1  0
  9  7  1  0
  9 10  2  0
 11 12  2  0
 12  2  1  0
 13  9  1  0
 14 13  1  0
 14 22  1  0
 14 15  1  1
 16 15  1  0
 16 17  2  0
 18 17  1  0
 19 18  2  0
 20 21  2  0
 20 19  1  0
 21 16  1  0
 22 23  2  0
 22 24  1  0
 24 25  1  0
 25 28  1  0
 26 27  1  0
 25 26  1  6
 28 29  2  0
 28 30  1  0
M  END
$$$$
