YFC.pdb
     RDKit          3D

 30 31  0  0  1  0  0  0  0  0999 V2000
   21.2144  -18.9595  -16.1047 O   0  0  0  0  0  0  0  0  0  0  0  0
   21.8767  -19.4113  -14.9583 C   0  0  0  0  0  0  0  0  0  0  0  0
   21.8927  -20.7586  -14.6298 C   0  0  0  0  0  0  0  0  0  0  0  0
   22.5327  -21.2472  -13.5102 C   0  0  0  0  0  0  0  0  0  0  0  0
   23.1929  -20.3817  -12.6635 C   0  0  0  0  0  0  0  0  0  0  0  0
   23.8885  -20.8499  -11.4607 C   0  0  0  0  0  0  0  0  0  0  0  0
   25.3861  -20.8775  -11.6023 C   0  0  2  0  0  0  0  0  0  0  0  0
   25.8419  -21.9141  -12.4948 N   0  0  0  0  0  0  0  0  0  0  0  0
   25.9541  -21.1618  -10.2590 C   0  0  0  0  0  0  0  0  0  0  0  0
   25.9094  -22.3506   -9.8467 O   0  0  0  0  0  0  0  0  0  0  0  0
   23.1768  -19.0413  -12.9905 C   0  0  0  0  0  0  0  0  0  0  0  0
   22.5385  -18.5510  -14.1078 C   0  0  0  0  0  0  0  0  0  0  0  0
   26.5308  -20.1533   -9.4503 N   0  0  0  0  0  0  0  0  0  0  0  0
   27.1471  -20.4654   -8.1267 C   0  0  1  0  0  0  0  0  0  0  0  0
   28.2892  -19.5405   -7.9045 C   0  0  0  0  0  0  0  0  0  0  0  0
   28.8713  -19.4629   -6.5752 C   0  0  0  0  0  0  0  0  0  0  0  0
   28.6990  -18.3678   -5.7578 C   0  0  0  0  0  0  0  0  0  0  0  0
   29.2615  -18.2985   -4.4988 C   0  0  0  0  0  0  0  0  0  0  0  0
   30.0217  -19.3347   -4.0139 C   0  0  0  0  0  0  0  0  0  0  0  0
   30.2151  -20.4432   -4.8004 C   0  0  0  0  0  0  0  0  0  0  0  0
   29.6512  -20.5004   -6.0497 C   0  0  0  0  0  0  0  0  0  0  0  0
   26.0540  -20.4390   -7.1590 C   0  0  0  0  0  0  0  0  0  0  0  0
   25.1263  -19.5867   -7.2330 O   0  0  0  0  0  0  0  0  0  0  0  0
   25.9708  -21.3671   -6.0951 N   0  0  0  0  0  0  0  0  0  0  0  0
   24.9819  -21.1446   -5.0227 C   0  0  1  0  0  0  0  0  0  0  0  0
   24.2142  -22.4536   -4.8739 C   0  0  0  0  0  0  0  0  0  0  0  0
   23.1976  -22.7865   -6.3125 S   0  0  0  0  0  0  0  0  0  0  0  0
   25.6120  -20.7769   -3.7656 C   0  0  0  0  0  0  0  0  0  0  0  0
   26.8457  -20.8390   -3.6132 O   0  0  0  0  0  0  0  0  0  0  0  0
   24.8123  -20.3492   -2.7210 O   0  0  0  0  0  0  0  0  0  0  0  0
  2  1  1  0
  3  2  2  0
  4  3  1  0
  5  4  2  0
  5 11  1  0
  6  5  1  0
  7  8  1  6
  7  6  1  0
  9  7  1  0
  9 10  2  0
 11 12  2  0
 12  2  1  0
 13  9  1  0
 14 13  1  0
 14 22  1  0
 14 15  1  1
 16 15  1  0
 16 17  2  0
 18 17  1  0
 19 18  2  0
 20 21  2  0
 20 19  1  0
 21 16  1  0
 22 23  2  0
 22 24  1  0
 24 25  1  0
 25 28  1  0
 26 27  1  0
 25 26  1  1
 28 29  2  0
 28 30  1  0
M  END
$$$$
