YFC.pdb
     RDKit          3D

 30 31  0  0  1  0  0  0  0  0999 V2000
   24.5580  -15.6740  -22.5515 O   0  0  0  0  0  0  0  0  0  0  0  0
   24.3667  -16.5217  -21.4553 C   0  0  0  0  0  0  0  0  0  0  0  0
   24.6941  -16.1107  -20.1719 C   0  0  0  0  0  0  0  0  0  0  0  0
   24.5222  -16.9132  -19.0635 C   0  0  0  0  0  0  0  0  0  0  0  0
   24.0045  -18.1831  -19.2084 C   0  0  0  0  0  0  0  0  0  0  0  0
   23.8020  -19.0757  -18.0628 C   0  0  0  0  0  0  0  0  0  0  0  0
   25.0228  -19.8758  -17.6984 C   0  0  2  0  0  0  0  0  0  0  0  0
   25.3035  -20.9258  -18.6458 N   0  0  0  0  0  0  0  0  0  0  0  0
   24.7574  -20.5176  -16.3846 C   0  0  0  0  0  0  0  0  0  0  0  0
   24.2788  -21.6820  -16.3907 O   0  0  0  0  0  0  0  0  0  0  0  0
   23.6788  -18.5919  -20.4853 C   0  0  0  0  0  0  0  0  0  0  0  0
   23.8496  -17.7925  -21.5935 C   0  0  0  0  0  0  0  0  0  0  0  0
   25.0231  -19.8678  -15.1555 N   0  0  0  0  0  0  0  0  0  0  0  0
   24.7578  -20.5303  -13.8441 C   0  0  1  0  0  0  0  0  0  0  0  0
   25.8031  -20.1048  -12.8769 C   0  0  0  0  0  0  0  0  0  0  0  0
   25.6574  -20.4899  -11.4831 C   0  0  0  0  0  0  0  0  0  0  0  0
   25.1945  -19.6186  -10.5221 C   0  0  0  0  0  0  0  0  0  0  0  0
   25.0658  -19.9898   -9.1985 C   0  0  0  0  0  0  0  0  0  0  0  0
   25.3999  -21.2585   -8.7918 C   0  0  0  0  0  0  0  0  0  0  0  0
   25.8648  -22.1548   -9.7221 C   0  0  0  0  0  0  0  0  0  0  0  0
   25.9885  -21.7743  -11.0342 C   0  0  0  0  0  0  0  0  0  0  0  0
   23.3671  -20.2292  -13.5167 C   0  0  0  0  0  0  0  0  0  0  0  0
   22.9268  -19.0467  -13.5269 O   0  0  0  0  0  0  0  0  0  0  0  0
   22.4393  -21.2420  -13.1792 N   0  0  0  0  0  0  0  0  0  0  0  0
   21.0926  -20.8572  -12.7147 C   0  0  1  0  0  0  0  0  0  0  0  0
   20.4182  -20.1638  -13.8935 C   0  0  0  0  0  0  0  0  0  0  0  0
   20.3140  -21.2448  -15.3199 S   0  0  0  0  0  0  0  0  0  0  0  0
   20.3133  -22.0065  -12.2850 C   0  0  0  0  0  0  0  0  0  0  0  0
   20.7442  -23.1677  -12.4075 O   0  0  0  0  0  0  0  0  0  0  0  0
   19.0651  -21.7930  -11.7284 O   0  0  0  0  0  0  0  0  0  0  0  0
  2  1  1  0
  3  2  2  0
  4  3  1  0
  5  4  2  0
  5 11  1  0
  6  5  1  0
  7  8  1  6
  7  6  1  0
  9  7  1  0
  9 10  2  0
 11 12  2  0
 12  2  1  0
 13  9  1  0
 14 13  1  0
 14 22  1  0
 14 15  1  1
 16 15  1  0
 16 17  2  0
 18 17  1  0
 19 18  2  0
 20 21  2  0
 20 19  1  0
 21 16  1  0
 22 23  2  0
 22 24  1  0
 24 25  1  0
 25 28  1  0
 26 27  1  0
 25 26  1  6
 28 29  2  0
 28 30  1  0
M  END
$$$$
