YFC.pdb
     RDKit          3D

 30 31  0  0  1  0  0  0  0  0999 V2000
   31.8230  -12.7817  -16.7383 O   0  0  0  0  0  0  0  0  0  0  0  0
   30.7279  -11.9404  -16.9612 C   0  0  0  0  0  0  0  0  0  0  0  0
   29.4635  -12.2818  -16.5050 C   0  0  0  0  0  0  0  0  0  0  0  0
   28.3569  -11.4828  -16.7024 C   0  0  0  0  0  0  0  0  0  0  0  0
   28.4840  -10.2880  -17.3792 C   0  0  0  0  0  0  0  0  0  0  0  0
   27.3394   -9.4026  -17.6155 C   0  0  0  0  0  0  0  0  0  0  0  0
   26.4476   -9.8564  -18.7389 C   0  0  2  0  0  0  0  0  0  0  0  0
   27.1142   -9.8476  -20.0173 N   0  0  0  0  0  0  0  0  0  0  0  0
   25.3128   -8.9004  -18.8193 C   0  0  0  0  0  0  0  0  0  0  0  0
   25.3856   -7.9798  -19.6750 O   0  0  0  0  0  0  0  0  0  0  0  0
   29.7420   -9.9485  -17.8330 C   0  0  0  0  0  0  0  0  0  0  0  0
   30.8484  -10.7446  -17.6371 C   0  0  0  0  0  0  0  0  0  0  0  0
   24.1788   -8.9966  -17.9777 N   0  0  0  0  0  0  0  0  0  0  0  0
   23.0233   -8.0600  -18.1075 C   0  0  1  0  0  0  0  0  0  0  0  0
   22.0763   -8.6103  -19.1122 C   0  0  0  0  0  0  0  0  0  0  0  0
   20.7971   -7.9459  -19.2974 C   0  0  0  0  0  0  0  0  0  0  0  0
   19.6208   -8.4592  -18.7976 C   0  0  0  0  0  0  0  0  0  0  0  0
   18.4082   -7.8257  -18.9841 C   0  0  0  0  0  0  0  0  0  0  0  0
   18.3352   -6.6461  -19.6839 C   0  0  0  0  0  0  0  0  0  0  0  0
   19.4876   -6.1041  -20.1968 C   0  0  0  0  0  0  0  0  0  0  0  0
   20.6864   -6.7427  -20.0052 C   0  0  0  0  0  0  0  0  0  0  0  0
   22.5259   -7.8465  -16.7514 C   0  0  0  0  0  0  0  0  0  0  0  0
   22.4564   -8.7902  -15.9166 O   0  0  0  0  0  0  0  0  0  0  0  0
   22.1037   -6.5749  -16.2984 N   0  0  0  0  0  0  0  0  0  0  0  0
   21.5691   -6.4406  -14.9296 C   0  0  1  0  0  0  0  0  0  0  0  0
   22.5271   -5.5147  -14.1879 C   0  0  0  0  0  0  0  0  0  0  0  0
   21.8953   -5.0758  -12.5686 S   0  0  0  0  0  0  0  0  0  0  0  0
   20.2220   -5.8948  -14.9198 C   0  0  0  0  0  0  0  0  0  0  0  0
   19.7804   -5.2340  -15.8776 O   0  0  0  0  0  0  0  0  0  0  0  0
   19.4208   -6.1213  -13.8151 O   0  0  0  0  0  0  0  0  0  0  0  0
  2  1  1  0
  3  2  2  0
  4  3  1  0
  5  4  2  0
  5 11  1  0
  6  5  1  0
  7  8  1  6
  7  6  1  0
  9  7  1  0
  9 10  2  0
 11 12  2  0
 12  2  1  0
 13  9  1  0
 14 13  1  0
 14 22  1  0
 14 15  1  6
 16 15  1  0
 16 17  2  0
 18 17  1  0
 19 18  2  0
 20 21  2  0
 20 19  1  0
 21 16  1  0
 22 23  2  0
 22 24  1  0
 24 25  1  0
 25 28  1  0
 26 27  1  0
 25 26  1  1
 28 29  2  0
 28 30  1  0
M  END
$$$$
