YFC.pdb
     RDKit          3D

 30 31  0  0  1  0  0  0  0  0999 V2000
   13.1314  -15.5674  -18.4416 O   0  0  0  0  0  0  0  0  0  0  0  0
   14.1948  -14.6679  -18.3117 C   0  0  0  0  0  0  0  0  0  0  0  0
   14.0185  -13.4429  -17.6859 C   0  0  0  0  0  0  0  0  0  0  0  0
   15.0383  -12.5267  -17.5361 C   0  0  0  0  0  0  0  0  0  0  0  0
   16.2973  -12.8148  -18.0197 C   0  0  0  0  0  0  0  0  0  0  0  0
   17.4153  -11.8755  -17.8862 C   0  0  0  0  0  0  0  0  0  0  0  0
   18.3872  -12.2453  -16.7990 C   0  0  2  0  0  0  0  0  0  0  0  0
   17.8833  -13.2795  -15.9299 N   0  0  0  0  0  0  0  0  0  0  0  0
   18.6088  -11.0324  -15.9698 C   0  0  0  0  0  0  0  0  0  0  0  0
   17.7867  -10.8002  -15.0450 O   0  0  0  0  0  0  0  0  0  0  0  0
   16.4724  -14.0336  -18.6423 C   0  0  0  0  0  0  0  0  0  0  0  0
   15.4558  -14.9500  -18.7931 C   0  0  0  0  0  0  0  0  0  0  0  0
   19.6955  -10.1521  -16.1884 N   0  0  0  0  0  0  0  0  0  0  0  0
   19.8732   -8.9088  -15.3810 C   0  0  1  0  0  0  0  0  0  0  0  0
   21.3143   -8.7600  -15.0488 C   0  0  0  0  0  0  0  0  0  0  0  0
   21.7962   -7.4592  -14.6155 C   0  0  0  0  0  0  0  0  0  0  0  0
   21.6770   -7.0251  -13.3138 C   0  0  0  0  0  0  0  0  0  0  0  0
   22.1307   -5.7848  -12.9115 C   0  0  0  0  0  0  0  0  0  0  0  0
   22.7244   -4.9316  -13.8095 C   0  0  0  0  0  0  0  0  0  0  0  0
   22.8608   -5.3303  -15.1161 C   0  0  0  0  0  0  0  0  0  0  0  0
   22.4060   -6.5650  -15.5040 C   0  0  0  0  0  0  0  0  0  0  0  0
   19.2391   -7.8394  -16.1466 C   0  0  0  0  0  0  0  0  0  0  0  0
   19.3698   -7.7561  -17.3990 O   0  0  0  0  0  0  0  0  0  0  0  0
   18.4413   -6.8470  -15.5310 N   0  0  0  0  0  0  0  0  0  0  0  0
   17.9807   -5.6963  -16.3317 C   0  0  1  0  0  0  0  0  0  0  0  0
   16.4585   -5.6970  -16.2407 C   0  0  0  0  0  0  0  0  0  0  0  0
   15.7564   -4.2137  -16.9624 S   0  0  0  0  0  0  0  0  0  0  0  0
   18.5204   -4.4386  -15.8422 C   0  0  0  0  0  0  0  0  0  0  0  0
   18.6230   -4.2044  -14.6241 O   0  0  0  0  0  0  0  0  0  0  0  0
   18.9265   -3.4870  -16.7604 O   0  0  0  0  0  0  0  0  0  0  0  0
  2  1  1  0
  3  2  2  0
  4  3  1  0
  5  4  2  0
  5 11  1  0
  6  5  1  0
  7  8  1  1
  7  6  1  0
  9  7  1  0
  9 10  2  0
 11 12  2  0
 12  2  1  0
 13  9  1  0
 14 13  1  0
 14 22  1  0
 14 15  1  6
 16 15  1  0
 16 17  2  0
 18 17  1  0
 19 18  2  0
 20 21  2  0
 20 19  1  0
 21 16  1  0
 22 23  2  0
 22 24  1  0
 24 25  1  0
 25 28  1  0
 26 27  1  0
 25 26  1  1
 28 29  2  0
 28 30  1  0
M  END
$$$$
