HEE.pdb
     RDKit          3D

 29 29  0  0  1  0  0  0  0  0999 V2000
   25.9701  -18.7718  -20.2738 N   0  0  0  0  0  0  0  0  0  0  0  0
   25.6578  -18.9020  -18.8703 C   0  0  1  0  0  0  0  0  0  0  0  0
   26.5198  -17.9463  -18.0656 C   0  0  0  0  0  0  0  0  0  0  0  0
   27.9195  -18.3880  -18.1541 C   0  0  0  0  0  0  0  0  0  0  0  0
   28.9805  -17.6968  -18.6698 C   0  0  0  0  0  0  0  0  0  0  0  0
   30.0716  -18.4805  -18.5475 N   0  0  0  0  0  0  0  0  0  0  0  0
   29.7076  -19.6416  -17.9670 C   0  0  0  0  0  0  0  0  0  0  0  0
   28.3754  -19.5792  -17.7256 N   0  0  0  0  0  0  0  0  0  0  0  0
   24.2497  -18.4914  -18.6550 C   0  0  0  0  0  0  0  0  0  0  0  0
   23.8585  -17.4071  -19.1589 O   0  0  0  0  0  0  0  0  0  0  0  0
   23.3527  -19.3155  -17.8877 N   0  0  0  0  0  0  0  0  0  0  0  0
   21.9944  -18.9040  -17.7909 C   0  0  1  0  0  0  0  0  0  0  0  0
   21.1364  -19.9474  -18.5210 C   0  0  0  0  0  0  0  0  0  0  0  0
   19.7000  -19.4886  -18.5330 C   0  0  0  0  0  0  0  0  0  0  0  0
   18.8362  -20.4936  -19.2141 C   0  0  0  0  0  0  0  0  0  0  0  0
   18.8694  -21.7256  -18.8968 O   0  0  0  0  0  0  0  0  0  0  0  0
   21.4951  -18.9142  -16.3797 C   0  0  0  0  0  0  0  0  0  0  0  0
   21.9405  -19.7857  -15.5916 O   0  0  0  0  0  0  0  0  0  0  0  0
   17.9608  -20.1305  -20.2210 O   0  0  0  0  0  0  0  0  0  0  0  0
   20.5498  -17.9917  -15.8974 N   0  0  0  0  0  0  0  0  0  0  0  0
   20.0745  -17.9856  -14.4854 C   0  0  1  0  0  0  0  0  0  0  0  0
   19.1565  -16.8319  -14.2785 C   0  0  0  0  0  0  0  0  0  0  0  0
   18.5314  -16.8450  -12.9256 C   0  0  0  0  0  0  0  0  0  0  0  0
   17.6010  -15.7209  -12.7175 C   0  0  0  0  0  0  0  0  0  0  0  0
   17.4616  -14.7880  -13.5232 O   0  0  0  0  0  0  0  0  0  0  0  0
   19.3622  -19.2623  -14.3172 C   0  0  0  0  0  0  0  0  0  0  0  0
   19.4081  -19.8714  -13.2317 O   0  0  0  0  0  0  0  0  0  0  0  0
   16.7970  -15.6385  -11.5645 O   0  0  0  0  0  0  0  0  0  0  0  0
   18.6349  -19.8044  -15.3528 O   0  0  0  0  0  0  0  0  0  0  0  0
  2  1  1  6
  2  3  1  0
  3  4  1  0
  4  8  1  0
  4  5  2  0
  5  6  1  0
  7  6  1  0
  8  7  2  0
  9  2  1  0
 10  9  2  0
 11  9  1  0
 12 11  1  0
 12 13  1  6
 14 13  1  0
 15 16  2  0
 15 14  1  0
 17 12  1  0
 17 20  1  0
 18 17  2  0
 19 15  1  0
 21 20  1  0
 21 26  1  0
 21 22  1  6
 23 22  1  0
 24 28  1  0
 24 23  1  0
 25 24  2  0
 26 29  1  0
 27 26  2  0
M  END
$$$$
