HEE.pdb
     RDKit          3D

 29 29  0  0  1  0  0  0  0  0999 V2000
   25.9883  -18.8772  -18.3325 N   0  0  0  0  0  0  0  0  0  0  0  0
   25.8317  -18.2426  -17.0452 C   0  0  1  0  0  0  0  0  0  0  0  0
   25.1469  -16.8993  -17.2193 C   0  0  0  0  0  0  0  0  0  0  0  0
   26.1155  -15.9476  -17.7835 C   0  0  0  0  0  0  0  0  0  0  0  0
   27.1696  -15.3547  -17.1457 C   0  0  0  0  0  0  0  0  0  0  0  0
   27.7874  -14.5573  -18.0412 N   0  0  0  0  0  0  0  0  0  0  0  0
   27.1376  -14.6448  -19.2193 C   0  0  0  0  0  0  0  0  0  0  0  0
   26.1043  -15.5061  -19.0545 N   0  0  0  0  0  0  0  0  0  0  0  0
   24.9335  -19.0747  -16.2094 C   0  0  0  0  0  0  0  0  0  0  0  0
   23.9980  -19.6984  -16.7738 O   0  0  0  0  0  0  0  0  0  0  0  0
   25.1291  -19.1660  -14.7861 N   0  0  0  0  0  0  0  0  0  0  0  0
   24.2577  -20.0168  -14.0510 C   0  0  1  0  0  0  0  0  0  0  0  0
   24.9506  -20.3630  -12.7250 C   0  0  0  0  0  0  0  0  0  0  0  0
   24.1219  -21.3808  -11.9827 C   0  0  0  0  0  0  0  0  0  0  0  0
   24.7764  -21.7493  -10.6959 C   0  0  0  0  0  0  0  0  0  0  0  0
   25.7927  -22.5145  -10.6600 O   0  0  0  0  0  0  0  0  0  0  0  0
   22.9894  -19.3278  -13.6543 C   0  0  0  0  0  0  0  0  0  0  0  0
   23.0635  -18.1855  -13.1359 O   0  0  0  0  0  0  0  0  0  0  0  0
   24.3074  -21.2754   -9.4845 O   0  0  0  0  0  0  0  0  0  0  0  0
   21.7189  -19.9024  -13.8362 N   0  0  0  0  0  0  0  0  0  0  0  0
   20.4530  -19.1712  -13.5491 C   0  0  1  0  0  0  0  0  0  0  0  0
   19.7772  -18.8317  -14.8316 C   0  0  0  0  0  0  0  0  0  0  0  0
   18.4745  -18.1405  -14.6161 C   0  0  0  0  0  0  0  0  0  0  0  0
   17.7958  -17.7986  -15.8790 C   0  0  0  0  0  0  0  0  0  0  0  0
   18.3001  -17.9760  -16.9984 O   0  0  0  0  0  0  0  0  0  0  0  0
   19.6412  -20.1100  -12.7583 C   0  0  0  0  0  0  0  0  0  0  0  0
   19.5522  -21.3056  -13.0961 O   0  0  0  0  0  0  0  0  0  0  0  0
   16.5045  -17.2373  -15.8887 O   0  0  0  0  0  0  0  0  0  0  0  0
   18.9680  -19.6852  -11.6351 O   0  0  0  0  0  0  0  0  0  0  0  0
  2  1  1  6
  2  3  1  0
  3  4  1  0
  4  8  1  0
  4  5  2  0
  5  6  1  0
  7  6  1  0
  8  7  2  0
  9  2  1  0
 10  9  2  0
 11  9  1  0
 12 11  1  0
 12 13  1  1
 14 13  1  0
 15 16  2  0
 15 14  1  0
 17 12  1  0
 17 20  1  0
 18 17  2  0
 19 15  1  0
 21 20  1  0
 21 26  1  0
 21 22  1  6
 23 22  1  0
 24 28  1  0
 24 23  1  0
 25 24  2  0
 26 29  1  0
 27 26  2  0
M  END
$$$$
