HEE.pdb
     RDKit          3D

 29 29  0  0  1  0  0  0  0  0999 V2000
   20.0470  -16.5386  -15.7646 N   0  0  0  0  0  0  0  0  0  0  0  0
   21.4747  -16.3698  -15.8974 C   0  0  1  0  0  0  0  0  0  0  0  0
   22.0166  -17.3782  -16.8940 C   0  0  0  0  0  0  0  0  0  0  0  0
   21.6491  -18.7287  -16.4429 C   0  0  0  0  0  0  0  0  0  0  0  0
   20.9333  -19.6703  -17.1287 C   0  0  0  0  0  0  0  0  0  0  0  0
   20.8332  -20.7579  -16.3371 N   0  0  0  0  0  0  0  0  0  0  0  0
   21.4722  -20.5086  -15.1764 C   0  0  0  0  0  0  0  0  0  0  0  0
   21.9751  -19.2520  -15.2470 N   0  0  0  0  0  0  0  0  0  0  0  0
   21.7456  -15.0253  -16.4602 C   0  0  0  0  0  0  0  0  0  0  0  0
   22.9317  -14.7281  -16.7562 O   0  0  0  0  0  0  0  0  0  0  0  0
   20.6756  -14.0839  -16.6629 N   0  0  0  0  0  0  0  0  0  0  0  0
   21.0193  -12.7745  -17.1001 C   0  0  1  0  0  0  0  0  0  0  0  0
   20.2963  -12.5210  -18.4310 C   0  0  0  0  0  0  0  0  0  0  0  0
   19.1116  -13.4478  -18.5368 C   0  0  0  0  0  0  0  0  0  0  0  0
   18.3345  -13.1632  -19.7758 C   0  0  0  0  0  0  0  0  0  0  0  0
   17.7570  -12.0438  -19.9581 O   0  0  0  0  0  0  0  0  0  0  0  0
   20.5090  -11.7129  -16.1764 C   0  0  0  0  0  0  0  0  0  0  0  0
   19.5600  -11.9958  -15.4027 O   0  0  0  0  0  0  0  0  0  0  0  0
   18.2073  -14.1036  -20.7815 O   0  0  0  0  0  0  0  0  0  0  0  0
   21.0446  -10.4134  -16.1362 N   0  0  0  0  0  0  0  0  0  0  0  0
   20.5650   -9.3709  -15.1860 C   0  0  1  0  0  0  0  0  0  0  0  0
   21.4596   -8.1833  -15.2635 C   0  0  0  0  0  0  0  0  0  0  0  0
   21.0705   -7.1208  -14.2933 C   0  0  0  0  0  0  0  0  0  0  0  0
   21.9983   -5.9756  -14.3010 C   0  0  0  0  0  0  0  0  0  0  0  0
   23.1702   -6.0451  -14.7021 O   0  0  0  0  0  0  0  0  0  0  0  0
   19.2057   -9.0371  -15.6403 C   0  0  0  0  0  0  0  0  0  0  0  0
   18.9196   -9.0725  -16.8519 O   0  0  0  0  0  0  0  0  0  0  0  0
   21.5990   -4.7055  -13.8427 O   0  0  0  0  0  0  0  0  0  0  0  0
   18.2294   -8.6809  -14.7373 O   0  0  0  0  0  0  0  0  0  0  0  0
  2  1  1  6
  2  3  1  0
  3  4  1  0
  4  8  1  0
  4  5  2  0
  5  6  1  0
  7  6  1  0
  8  7  2  0
  9  2  1  0
 10  9  2  0
 11  9  1  0
 12 11  1  0
 12 13  1  6
 14 13  1  0
 15 16  2  0
 15 14  1  0
 17 12  1  0
 17 20  1  0
 18 17  2  0
 19 15  1  0
 21 20  1  0
 21 26  1  0
 21 22  1  6
 23 22  1  0
 24 28  1  0
 24 23  1  0
 25 24  2  0
 26 29  1  0
 27 26  2  0
M  END
$$$$
