HEE.pdb
     RDKit          3D

 29 29  0  0  1  0  0  0  0  0999 V2000
   23.4672  -33.0396   -5.3227 N   0  0  0  0  0  0  0  0  0  0  0  0
   24.6906  -32.7845   -4.5998 C   0  0  1  0  0  0  0  0  0  0  0  0
   25.3726  -31.5543   -5.1702 C   0  0  0  0  0  0  0  0  0  0  0  0
   25.9474  -31.9001   -6.4788 C   0  0  0  0  0  0  0  0  0  0  0  0
   25.5602  -31.4403   -7.7068 C   0  0  0  0  0  0  0  0  0  0  0  0
   26.3599  -32.0193   -8.6259 N   0  0  0  0  0  0  0  0  0  0  0  0
   27.2335  -32.8272   -7.9920 C   0  0  0  0  0  0  0  0  0  0  0  0
   26.9741  -32.7498   -6.6640 N   0  0  0  0  0  0  0  0  0  0  0  0
   24.3551  -32.4716   -3.1900 C   0  0  0  0  0  0  0  0  0  0  0  0
   23.6352  -31.4671   -2.9547 O   0  0  0  0  0  0  0  0  0  0  0  0
   24.8422  -33.2990   -2.1174 N   0  0  0  0  0  0  0  0  0  0  0  0
   24.4813  -32.9412   -0.7886 C   0  0  1  0  0  0  0  0  0  0  0  0
   23.4265  -33.9463   -0.3037 C   0  0  0  0  0  0  0  0  0  0  0  0
   23.9128  -35.3472   -0.5774 C   0  0  0  0  0  0  0  0  0  0  0  0
   22.9414  -36.3489   -0.0550 C   0  0  0  0  0  0  0  0  0  0  0  0
   23.1575  -37.5995   -0.1499 O   0  0  0  0  0  0  0  0  0  0  0  0
   25.6215  -33.0867    0.1703 C   0  0  0  0  0  0  0  0  0  0  0  0
   26.5393  -33.8990   -0.1071 O   0  0  0  0  0  0  0  0  0  0  0  0
   21.7625  -35.9626    0.5557 O   0  0  0  0  0  0  0  0  0  0  0  0
   25.7108  -32.3546    1.3675 N   0  0  0  0  0  0  0  0  0  0  0  0
   26.8481  -32.4978    2.3191 C   0  0  1  0  0  0  0  0  0  0  0  0
   26.6671  -31.5480    3.4513 C   0  0  0  0  0  0  0  0  0  0  0  0
   27.7852  -31.6232    4.4339 C   0  0  0  0  0  0  0  0  0  0  0  0
   27.6324  -30.6663    5.5444 C   0  0  0  0  0  0  0  0  0  0  0  0
   28.3282  -30.6905    6.5713 O   0  0  0  0  0  0  0  0  0  0  0  0
   26.7821  -33.8921    2.7854 C   0  0  0  0  0  0  0  0  0  0  0  0
   27.8265  -34.5448    2.9706 O   0  0  0  0  0  0  0  0  0  0  0  0
   26.6647  -29.6444    5.5036 O   0  0  0  0  0  0  0  0  0  0  0  0
   25.5690  -34.4976    3.0246 O   0  0  0  0  0  0  0  0  0  0  0  0
  2  1  1  6
  2  3  1  0
  3  4  1  0
  4  8  1  0
  4  5  2  0
  5  6  1  0
  7  6  1  0
  8  7  2  0
  9  2  1  0
 10  9  2  0
 11  9  1  0
 12 11  1  0
 12 13  1  1
 14 13  1  0
 15 16  2  0
 15 14  1  0
 17 12  1  0
 17 20  1  0
 18 17  2  0
 19 15  1  0
 21 20  1  0
 21 26  1  0
 21 22  1  1
 23 22  1  0
 24 28  1  0
 24 23  1  0
 25 24  2  0
 26 29  1  0
 27 26  2  0
M  END
$$$$
