HEE.pdb
     RDKit          3D

 29 29  0  0  1  0  0  0  0  0999 V2000
   19.0664  -13.1515  -17.6700 N   0  0  0  0  0  0  0  0  0  0  0  0
   19.1958  -11.7514  -17.9979 C   0  0  1  0  0  0  0  0  0  0  0  0
   17.8449  -11.0713  -17.8710 C   0  0  0  0  0  0  0  0  0  0  0  0
   16.9534  -11.5986  -18.9147 C   0  0  0  0  0  0  0  0  0  0  0  0
   15.7485  -12.2220  -18.7447 C   0  0  0  0  0  0  0  0  0  0  0  0
   15.2803  -12.5381  -19.9696 N   0  0  0  0  0  0  0  0  0  0  0  0
   16.1704  -12.1232  -20.8934 C   0  0  0  0  0  0  0  0  0  0  0  0
   17.2034  -11.5427  -20.2357 N   0  0  0  0  0  0  0  0  0  0  0  0
   20.0917  -11.1102  -17.0058 C   0  0  0  0  0  0  0  0  0  0  0  0
   19.9154  -11.3659  -15.7867 O   0  0  0  0  0  0  0  0  0  0  0  0
   21.1379  -10.2168  -17.4295 N   0  0  0  0  0  0  0  0  0  0  0  0
   21.9807   -9.6612  -16.4271 C   0  0  1  0  0  0  0  0  0  0  0  0
   23.4078  -10.1672  -16.6826 C   0  0  0  0  0  0  0  0  0  0  0  0
   24.3062   -9.7056  -15.5629 C   0  0  0  0  0  0  0  0  0  0  0  0
   25.6829  -10.2468  -15.7407 C   0  0  0  0  0  0  0  0  0  0  0  0
   26.6031  -10.0204  -14.8911 O   0  0  0  0  0  0  0  0  0  0  0  0
   22.0772   -8.1707  -16.5257 C   0  0  0  0  0  0  0  0  0  0  0  0
   22.3159   -7.6574  -17.6476 O   0  0  0  0  0  0  0  0  0  0  0  0
   26.0203  -11.0186  -16.8372 O   0  0  0  0  0  0  0  0  0  0  0  0
   21.9124   -7.3197  -15.4185 N   0  0  0  0  0  0  0  0  0  0  0  0
   21.8844   -5.8349  -15.5378 C   0  0  1  0  0  0  0  0  0  0  0  0
   20.4819   -5.3831  -15.7512 C   0  0  0  0  0  0  0  0  0  0  0  0
   20.3843   -3.9043  -15.9090 C   0  0  0  0  0  0  0  0  0  0  0  0
   19.0104   -3.4514  -16.1911 C   0  0  0  0  0  0  0  0  0  0  0  0
   18.0372   -4.2173  -16.2640 O   0  0  0  0  0  0  0  0  0  0  0  0
   22.4081   -5.3392  -14.2549 C   0  0  0  0  0  0  0  0  0  0  0  0
   22.3569   -6.0526  -13.2353 O   0  0  0  0  0  0  0  0  0  0  0  0
   18.7153   -2.0905  -16.3993 O   0  0  0  0  0  0  0  0  0  0  0  0
   22.9621   -4.0824  -14.1592 O   0  0  0  0  0  0  0  0  0  0  0  0
  2  1  1  1
  2  3  1  0
  3  4  1  0
  4  8  1  0
  4  5  2  0
  5  6  1  0
  7  6  1  0
  8  7  2  0
  9  2  1  0
 10  9  2  0
 11  9  1  0
 12 11  1  0
 12 13  1  6
 14 13  1  0
 15 16  2  0
 15 14  1  0
 17 12  1  0
 17 20  1  0
 18 17  2  0
 19 15  1  0
 21 20  1  0
 21 26  1  0
 21 22  1  1
 23 22  1  0
 24 28  1  0
 24 23  1  0
 25 24  2  0
 26 29  1  0
 27 26  2  0
M  END
$$$$
