HEE.pdb
     RDKit          3D

 29 29  0  0  1  0  0  0  0  0999 V2000
   27.0350  -13.5159  -18.6755 N   0  0  0  0  0  0  0  0  0  0  0  0
   26.1222  -14.6229  -18.8358 C   0  0  1  0  0  0  0  0  0  0  0  0
   26.8378  -15.9234  -18.5187 C   0  0  0  0  0  0  0  0  0  0  0  0
   27.7052  -16.2713  -19.6539 C   0  0  0  0  0  0  0  0  0  0  0  0
   27.8644  -15.5808  -20.8233 C   0  0  0  0  0  0  0  0  0  0  0  0
   28.7533  -16.2607  -21.5764 N   0  0  0  0  0  0  0  0  0  0  0  0
   29.1471  -17.3568  -20.8974 C   0  0  0  0  0  0  0  0  0  0  0  0
   28.4959  -17.3586  -19.7088 N   0  0  0  0  0  0  0  0  0  0  0  0
   25.0275  -14.4854  -17.8456 C   0  0  0  0  0  0  0  0  0  0  0  0
   25.3183  -14.5243  -16.6223 O   0  0  0  0  0  0  0  0  0  0  0  0
   23.6648  -14.3112  -18.2758 N   0  0  0  0  0  0  0  0  0  0  0  0
   22.6696  -14.1456  -17.2727 C   0  0  1  0  0  0  0  0  0  0  0  0
   21.7281  -13.0216  -17.7290 C   0  0  0  0  0  0  0  0  0  0  0  0
   20.6954  -12.7739  -16.6584 C   0  0  0  0  0  0  0  0  0  0  0  0
   19.7366  -11.7187  -17.0915 C   0  0  0  0  0  0  0  0  0  0  0  0
   18.7425  -11.9876  -17.8392 O   0  0  0  0  0  0  0  0  0  0  0  0
   21.7925  -15.3509  -17.1359 C   0  0  0  0  0  0  0  0  0  0  0  0
   21.4407  -15.9589  -18.1779 O   0  0  0  0  0  0  0  0  0  0  0  0
   19.8860  -10.4012  -16.6994 O   0  0  0  0  0  0  0  0  0  0  0  0
   21.3450  -15.8327  -15.8930 N   0  0  0  0  0  0  0  0  0  0  0  0
   20.6244  -17.1278  -15.7405 C   0  0  1  0  0  0  0  0  0  0  0  0
   20.7296  -17.5880  -14.3284 C   0  0  0  0  0  0  0  0  0  0  0  0
   19.8927  -18.7928  -14.0648 C   0  0  0  0  0  0  0  0  0  0  0  0
   19.9629  -19.2386  -12.6617 C   0  0  0  0  0  0  0  0  0  0  0  0
   19.5618  -18.5581  -11.7050 O   0  0  0  0  0  0  0  0  0  0  0  0
   19.2273  -16.8310  -16.0951 C   0  0  0  0  0  0  0  0  0  0  0  0
   18.5069  -17.7087  -16.6070 O   0  0  0  0  0  0  0  0  0  0  0  0
   20.5020  -20.4928  -12.3171 O   0  0  0  0  0  0  0  0  0  0  0  0
   18.6934  -15.5824  -15.8682 O   0  0  0  0  0  0  0  0  0  0  0  0
  2  1  1  1
  2  3  1  0
  3  4  1  0
  4  8  1  0
  4  5  2  0
  5  6  1  0
  7  6  1  0
  8  7  2  0
  9  2  1  0
 10  9  2  0
 11  9  1  0
 12 11  1  0
 12 13  1  6
 14 13  1  0
 15 16  2  0
 15 14  1  0
 17 12  1  0
 17 20  1  0
 18 17  2  0
 19 15  1  0
 21 20  1  0
 21 26  1  0
 21 22  1  1
 23 22  1  0
 24 28  1  0
 24 23  1  0
 25 24  2  0
 26 29  1  0
 27 26  2  0
M  END
$$$$
