HEE.pdb
     RDKit          3D

 29 29  0  0  1  0  0  0  0  0999 V2000
   25.4183  -21.5675  -14.5597 N   0  0  0  0  0  0  0  0  0  0  0  0
   24.3432  -21.5807  -13.5962 C   0  0  1  0  0  0  0  0  0  0  0  0
   24.5467  -20.4624  -12.5903 C   0  0  0  0  0  0  0  0  0  0  0  0
   25.8374  -20.6662  -11.9159 C   0  0  0  0  0  0  0  0  0  0  0  0
   26.7852  -21.6104  -12.1981 C   0  0  0  0  0  0  0  0  0  0  0  0
   27.8041  -21.4319  -11.3324 N   0  0  0  0  0  0  0  0  0  0  0  0
   27.5064  -20.3972  -10.5210 C   0  0  0  0  0  0  0  0  0  0  0  0
   26.2888  -19.9270  -10.8862 N   0  0  0  0  0  0  0  0  0  0  0  0
   23.0693  -21.2961  -14.2991 C   0  0  0  0  0  0  0  0  0  0  0  0
   23.1089  -20.6218  -15.3605 O   0  0  0  0  0  0  0  0  0  0  0  0
   21.8180  -21.7812  -13.7784 N   0  0  0  0  0  0  0  0  0  0  0  0
   20.6445  -21.5448  -14.5470 C   0  0  1  0  0  0  0  0  0  0  0  0
   19.4901  -22.3119  -13.8861 C   0  0  0  0  0  0  0  0  0  0  0  0
   18.2434  -22.1465  -14.7181 C   0  0  0  0  0  0  0  0  0  0  0  0
   17.1020  -22.8784  -14.1004 C   0  0  0  0  0  0  0  0  0  0  0  0
   15.9154  -22.4202  -14.1420 O   0  0  0  0  0  0  0  0  0  0  0  0
   20.2215  -20.1093  -14.5144 C   0  0  0  0  0  0  0  0  0  0  0  0
   20.7540  -19.3455  -13.6705 O   0  0  0  0  0  0  0  0  0  0  0  0
   17.2831  -24.0878  -13.4549 O   0  0  0  0  0  0  0  0  0  0  0  0
   19.2547  -19.5779  -15.3863 N   0  0  0  0  0  0  0  0  0  0  0  0
   19.3591  -18.2123  -15.9727 C   0  0  1  0  0  0  0  0  0  0  0  0
   20.6336  -18.0979  -16.7338 C   0  0  0  0  0  0  0  0  0  0  0  0
   20.7265  -16.8153  -17.4872 C   0  0  0  0  0  0  0  0  0  0  0  0
   22.0188  -16.6528  -18.1772 C   0  0  0  0  0  0  0  0  0  0  0  0
   23.0868  -16.4257  -17.5883 O   0  0  0  0  0  0  0  0  0  0  0  0
   18.1978  -18.0921  -16.8686 C   0  0  0  0  0  0  0  0  0  0  0  0
   17.7982  -19.0769  -17.5180 O   0  0  0  0  0  0  0  0  0  0  0  0
   22.1187  -16.7482  -19.5784 O   0  0  0  0  0  0  0  0  0  0  0  0
   17.5347  -16.8932  -17.0045 O   0  0  0  0  0  0  0  0  0  0  0  0
  2  1  1  6
  2  3  1  0
  3  4  1  0
  4  8  1  0
  4  5  2  0
  5  6  1  0
  7  6  1  0
  8  7  2  0
  9  2  1  0
 10  9  2  0
 11  9  1  0
 12 11  1  0
 12 13  1  1
 14 13  1  0
 15 16  2  0
 15 14  1  0
 17 12  1  0
 17 20  1  0
 18 17  2  0
 19 15  1  0
 21 20  1  0
 21 26  1  0
 21 22  1  6
 23 22  1  0
 24 28  1  0
 24 23  1  0
 25 24  2  0
 26 29  1  0
 27 26  2  0
M  END
$$$$
