HEE.pdb
     RDKit          3D

 29 29  0  0  1  0  0  0  0  0999 V2000
   22.3220  -11.4725  -16.0007 N   0  0  0  0  0  0  0  0  0  0  0  0
   21.1453  -10.8837  -16.5949 C   0  0  1  0  0  0  0  0  0  0  0  0
   20.0347  -11.9165  -16.6569 C   0  0  0  0  0  0  0  0  0  0  0  0
   20.3706  -12.9062  -17.6912 C   0  0  0  0  0  0  0  0  0  0  0  0
   21.4675  -12.9190  -18.5075 C   0  0  0  0  0  0  0  0  0  0  0  0
   21.3687  -14.0058  -19.3004 N   0  0  0  0  0  0  0  0  0  0  0  0
   20.2340  -14.6652  -18.9915 C   0  0  0  0  0  0  0  0  0  0  0  0
   19.6204  -13.9809  -17.9955 N   0  0  0  0  0  0  0  0  0  0  0  0
   20.6636   -9.7908  -15.7167 C   0  0  0  0  0  0  0  0  0  0  0  0
   20.5145  -10.0297  -14.4906 O   0  0  0  0  0  0  0  0  0  0  0  0
   20.3743   -8.4878  -16.2560 N   0  0  0  0  0  0  0  0  0  0  0  0
   20.0009   -7.4616  -15.3442 C   0  0  1  0  0  0  0  0  0  0  0  0
   21.2166   -6.5438  -15.1496 C   0  0  0  0  0  0  0  0  0  0  0  0
   20.9069   -5.5304  -14.0767 C   0  0  0  0  0  0  0  0  0  0  0  0
   22.0477   -4.5879  -13.9033 C   0  0  0  0  0  0  0  0  0  0  0  0
   21.9203   -3.4987  -13.2575 O   0  0  0  0  0  0  0  0  0  0  0  0
   18.9308   -6.5716  -15.8951 C   0  0  0  0  0  0  0  0  0  0  0  0
   19.0687   -6.1158  -17.0580 O   0  0  0  0  0  0  0  0  0  0  0  0
   23.2948   -4.8562  -14.4370 O   0  0  0  0  0  0  0  0  0  0  0  0
   17.7783   -6.2233  -15.1688 N   0  0  0  0  0  0  0  0  0  0  0  0
   16.7254   -5.3183  -15.7093 C   0  0  1  0  0  0  0  0  0  0  0  0
   15.4434   -5.5707  -14.9956 C   0  0  0  0  0  0  0  0  0  0  0  0
   14.8326   -6.8751  -15.3791 C   0  0  0  0  0  0  0  0  0  0  0  0
   13.5432   -7.1190  -14.7081 C   0  0  0  0  0  0  0  0  0  0  0  0
   12.4467   -7.0531  -15.2848 O   0  0  0  0  0  0  0  0  0  0  0  0
   17.2181   -3.9576  -15.4420 C   0  0  0  0  0  0  0  0  0  0  0  0
   17.8812   -3.7176  -14.4154 O   0  0  0  0  0  0  0  0  0  0  0  0
   13.4791   -7.4489  -13.3408 O   0  0  0  0  0  0  0  0  0  0  0  0
   16.9558   -2.9290  -16.3189 O   0  0  0  0  0  0  0  0  0  0  0  0
  2  1  1  1
  2  3  1  0
  3  4  1  0
  4  8  1  0
  4  5  2  0
  5  6  1  0
  7  6  1  0
  8  7  2  0
  9  2  1  0
 10  9  2  0
 11  9  1  0
 12 11  1  0
 12 13  1  6
 14 13  1  0
 15 16  2  0
 15 14  1  0
 17 12  1  0
 17 20  1  0
 18 17  2  0
 19 15  1  0
 21 20  1  0
 21 26  1  0
 21 22  1  1
 23 22  1  0
 24 28  1  0
 24 23  1  0
 25 24  2  0
 26 29  1  0
 27 26  2  0
M  END
$$$$
