HEE.pdb
     RDKit          3D

 29 29  0  0  1  0  0  0  0  0999 V2000
   23.5931  -13.0392  -18.1606 N   0  0  0  0  0  0  0  0  0  0  0  0
   23.5856  -12.4722  -16.8329 C   0  0  1  0  0  0  0  0  0  0  0  0
   24.9874  -12.0230  -16.4628 C   0  0  0  0  0  0  0  0  0  0  0  0
   25.8257  -13.2147  -16.2646 C   0  0  0  0  0  0  0  0  0  0  0  0
   26.9159  -13.5977  -16.9955 C   0  0  0  0  0  0  0  0  0  0  0  0
   27.3744  -14.7498  -16.4644 N   0  0  0  0  0  0  0  0  0  0  0  0
   26.5907  -15.0871  -15.4205 C   0  0  0  0  0  0  0  0  0  0  0  0
   25.6343  -14.1343  -15.3011 N   0  0  0  0  0  0  0  0  0  0  0  0
   22.7354  -11.2577  -16.8379 C   0  0  0  0  0  0  0  0  0  0  0  0
   22.8841  -10.4266  -17.7705 O   0  0  0  0  0  0  0  0  0  0  0  0
   21.7631  -11.0368  -15.7996 N   0  0  0  0  0  0  0  0  0  0  0  0
   20.9188   -9.8975  -15.9143 C   0  0  1  0  0  0  0  0  0  0  0  0
   19.5998  -10.2187  -15.1965 C   0  0  0  0  0  0  0  0  0  0  0  0
   18.7471  -11.0848  -16.0890 C   0  0  0  0  0  0  0  0  0  0  0  0
   17.4702  -11.4392  -15.4078 C   0  0  0  0  0  0  0  0  0  0  0  0
   16.4140  -10.7481  -15.5700 O   0  0  0  0  0  0  0  0  0  0  0  0
   21.4688   -8.7060  -15.1943 C   0  0  0  0  0  0  0  0  0  0  0  0
   22.1899   -8.8957  -14.1828 O   0  0  0  0  0  0  0  0  0  0  0  0
   17.3780  -12.5349  -14.5694 O   0  0  0  0  0  0  0  0  0  0  0  0
   21.2142   -7.3839  -15.6000 N   0  0  0  0  0  0  0  0  0  0  0  0
   21.8215   -6.2013  -14.9274 C   0  0  1  0  0  0  0  0  0  0  0  0
   21.9336   -5.0822  -15.9030 C   0  0  0  0  0  0  0  0  0  0  0  0
   22.4643   -3.8389  -15.2753 C   0  0  0  0  0  0  0  0  0  0  0  0
   22.4968   -2.6990  -16.2091 C   0  0  0  0  0  0  0  0  0  0  0  0
   22.3997   -1.5154  -15.8501 O   0  0  0  0  0  0  0  0  0  0  0  0
   20.8902   -5.8609  -13.8400 C   0  0  0  0  0  0  0  0  0  0  0  0
   19.6716   -6.0890  -13.9592 O   0  0  0  0  0  0  0  0  0  0  0  0
   22.6436   -2.8915  -17.5961 O   0  0  0  0  0  0  0  0  0  0  0  0
   21.3476   -5.2864  -12.6754 O   0  0  0  0  0  0  0  0  0  0  0  0
  2  1  1  6
  2  3  1  0
  3  4  1  0
  4  8  1  0
  4  5  2  0
  5  6  1  0
  7  6  1  0
  8  7  2  0
  9  2  1  0
 10  9  2  0
 11  9  1  0
 12 11  1  0
 12 13  1  1
 14 13  1  0
 15 16  2  0
 15 14  1  0
 17 12  1  0
 17 20  1  0
 18 17  2  0
 19 15  1  0
 21 20  1  0
 21 26  1  0
 21 22  1  6
 23 22  1  0
 24 28  1  0
 24 23  1  0
 25 24  2  0
 26 29  1  0
 27 26  2  0
M  END
$$$$
