KML.pdb
     RDKit          3D

 26 25  0  0  1  0  0  0  0  0999 V2000
   28.0257  -18.0630  -15.2295 N   0  0  0  0  0  0  0  0  0  0  0  0
   27.3882  -19.1285  -15.8933 C   0  0  1  0  0  0  0  0  0  0  0  0
   28.1595  -19.8870  -16.9213 C   0  0  0  0  0  0  0  0  0  0  0  0
   29.1616  -19.1645  -17.7149 C   0  0  0  0  0  0  0  0  0  0  0  0
   28.8904  -18.8680  -19.1391 C   0  0  0  0  0  0  0  0  0  0  0  0
   29.9885  -18.1856  -19.8926 C   0  0  0  0  0  0  0  0  0  0  0  0
   29.5724  -17.9142  -21.2385 N   0  0  0  0  0  0  0  0  0  0  0  0
   26.7381  -20.0530  -14.9244 C   0  0  0  0  0  0  0  0  0  0  0  0
   26.0957  -21.0360  -15.3896 O   0  0  0  0  0  0  0  0  0  0  0  0
   30.3328  -21.8964   -9.6167 C   0  0  0  0  0  0  0  0  0  0  0  0
   28.6250  -21.3447   -9.6095 S   0  0  0  0  0  0  0  0  0  0  0  0
   28.0189  -21.3515  -11.3571 C   0  0  0  0  0  0  0  0  0  0  0  0
   26.6404  -20.7906  -11.3074 C   0  0  0  0  0  0  0  0  0  0  0  0
   26.0017  -20.7859  -12.6752 C   0  0  2  0  0  0  0  0  0  0  0  0
   26.7955  -19.8972  -13.5456 N   0  0  0  0  0  0  0  0  0  0  0  0
   24.6007  -20.3127  -12.6218 C   0  0  0  0  0  0  0  0  0  0  0  0
   24.3417  -19.0541  -12.6095 O   0  0  0  0  0  0  0  0  0  0  0  0
   19.9521  -20.8622  -14.9002 C   0  0  0  0  0  0  0  0  0  0  0  0
   20.9386  -19.7002  -14.8757 C   0  0  2  0  0  0  0  0  0  0  0  0
   21.1640  -19.1380  -16.2426 C   0  0  0  0  0  0  0  0  0  0  0  0
   22.2324  -20.2093  -14.3231 C   0  0  0  0  0  0  0  0  0  0  0  0
   22.1463  -20.6498  -12.8784 C   0  0  2  0  0  0  0  0  0  0  0  0
   23.4930  -21.1994  -12.5897 N   0  0  0  0  0  0  0  0  0  0  0  0
   21.1091  -21.6806  -12.7499 C   0  0  0  0  0  0  0  0  0  0  0  0
   21.4152  -22.9895  -13.0648 O   0  0  0  0  0  0  0  0  0  0  0  0
   19.9554  -21.4102  -12.3641 O   0  0  0  0  0  0  0  0  0  0  0  0
  2  1  1  1
  3  4  1  0
  3  2  1  0
  4  5  1  0
  6  5  1  0
  7  6  1  0
  8  2  1  0
  8  9  2  0
 10 11  1  0
 12 11  1  0
 12 13  1  0
 14 13  1  1
 14 15  1  0
 15  8  1  0
 16 14  1  0
 17 16  2  0
 19 18  1  6
 19 21  1  0
 20 19  1  0
 22 21  1  6
 22 24  1  0
 22 23  1  0
 23 16  1  0
 24 25  1  0
 26 24  2  0
M  END
$$$$
