KML.pdb
     RDKit          3D

 26 25  0  0  1  0  0  0  0  0999 V2000
   28.0563  -18.9331  -14.6363 N   0  0  0  0  0  0  0  0  0  0  0  0
   27.4867  -20.2002  -14.8651 C   0  0  1  0  0  0  0  0  0  0  0  0
   28.3054  -21.2291  -15.5709 C   0  0  0  0  0  0  0  0  0  0  0  0
   29.2734  -20.7788  -16.5790 C   0  0  0  0  0  0  0  0  0  0  0  0
   28.8041  -19.9968  -17.7444 C   0  0  0  0  0  0  0  0  0  0  0  0
   29.8332  -19.6759  -18.7824 C   0  0  0  0  0  0  0  0  0  0  0  0
   29.2540  -18.8797  -19.8258 N   0  0  0  0  0  0  0  0  0  0  0  0
   26.8921  -20.7549  -13.6182 C   0  0  0  0  0  0  0  0  0  0  0  0
   26.3797  -21.9081  -13.6733 O   0  0  0  0  0  0  0  0  0  0  0  0
   26.3102  -20.7878   -5.8665 C   0  0  0  0  0  0  0  0  0  0  0  0
   26.9024  -19.9485   -7.3382 S   0  0  0  0  0  0  0  0  0  0  0  0
   26.0379  -20.6850   -8.7983 C   0  0  0  0  0  0  0  0  0  0  0  0
   26.6873  -20.0841   -9.9960 C   0  0  0  0  0  0  0  0  0  0  0  0
   26.1037  -20.6404  -11.2722 C   0  0  2  0  0  0  0  0  0  0  0  0
   26.8670  -20.0808  -12.4043 N   0  0  0  0  0  0  0  0  0  0  0  0
   24.6722  -20.2939  -11.4142 C   0  0  0  0  0  0  0  0  0  0  0  0
   24.3133  -19.0687  -11.5598 O   0  0  0  0  0  0  0  0  0  0  0  0
   21.6744  -19.9168  -14.4992 C   0  0  0  0  0  0  0  0  0  0  0  0
   22.3403  -21.2602  -14.2234 C   0  0  2  0  0  0  0  0  0  0  0  0
   21.9986  -22.2713  -15.2704 C   0  0  0  0  0  0  0  0  0  0  0  0
   21.8664  -21.7407  -12.8882 C   0  0  0  0  0  0  0  0  0  0  0  0
   22.2639  -20.8394  -11.7402 C   0  0  2  0  0  0  0  0  0  0  0  0
   23.6426  -21.2708  -11.4056 N   0  0  0  0  0  0  0  0  0  0  0  0
   21.3469  -21.0592  -10.6151 C   0  0  0  0  0  0  0  0  0  0  0  0
   21.8131  -21.6851   -9.4762 O   0  0  0  0  0  0  0  0  0  0  0  0
   20.1551  -20.6974  -10.6559 O   0  0  0  0  0  0  0  0  0  0  0  0
  2  1  1  1
  3  4  1  0
  3  2  1  0
  4  5  1  0
  6  5  1  0
  7  6  1  0
  8  2  1  0
  8  9  2  0
 10 11  1  0
 12 11  1  0
 12 13  1  0
 14 13  1  1
 14 15  1  0
 15  8  1  0
 16 14  1  0
 17 16  2  0
 19 18  1  6
 19 21  1  0
 20 19  1  0
 22 21  1  6
 22 24  1  0
 22 23  1  0
 23 16  1  0
 24 25  1  0
 26 24  2  0
M  END
$$$$
