KML.pdb
     RDKit          3D

 26 25  0  0  1  0  0  0  0  0999 V2000
   26.1271  -18.6475  -15.1119 N   0  0  0  0  0  0  0  0  0  0  0  0
   26.9812  -19.7643  -15.1866 C   0  0  1  0  0  0  0  0  0  0  0  0
   28.3687  -19.5634  -15.6979 C   0  0  0  0  0  0  0  0  0  0  0  0
   28.5457  -18.8745  -16.9825 C   0  0  0  0  0  0  0  0  0  0  0  0
   28.2851  -17.4207  -17.0738 C   0  0  0  0  0  0  0  0  0  0  0  0
   28.5152  -16.7910  -18.4117 C   0  0  0  0  0  0  0  0  0  0  0  0
   28.2225  -15.3876  -18.3564 N   0  0  0  0  0  0  0  0  0  0  0  0
   26.9894  -20.5209  -13.9046 C   0  0  0  0  0  0  0  0  0  0  0  0
   27.5680  -21.6436  -13.8878 O   0  0  0  0  0  0  0  0  0  0  0  0
   27.5268  -19.3844   -7.9174 C   0  0  0  0  0  0  0  0  0  0  0  0
   26.0704  -20.4069   -7.6839 S   0  0  0  0  0  0  0  0  0  0  0  0
   25.7668  -21.3301   -9.2578 C   0  0  0  0  0  0  0  0  0  0  0  0
   26.1795  -20.4077  -10.3516 C   0  0  0  0  0  0  0  0  0  0  0  0
   25.9673  -21.0368  -11.7074 C   0  0  2  0  0  0  0  0  0  0  0  0
   26.3994  -20.0670  -12.7323 N   0  0  0  0  0  0  0  0  0  0  0  0
   24.5490  -21.3971  -11.9260 C   0  0  0  0  0  0  0  0  0  0  0  0
   23.9674  -22.2398  -11.1496 O   0  0  0  0  0  0  0  0  0  0  0  0
   20.6858  -21.1859  -10.7795 C   0  0  0  0  0  0  0  0  0  0  0  0
   21.3130  -19.9023  -11.3116 C   0  0  2  0  0  0  0  0  0  0  0  0
   20.4288  -18.7189  -11.0817 C   0  0  0  0  0  0  0  0  0  0  0  0
   21.5431  -20.0791  -12.7793 C   0  0  0  0  0  0  0  0  0  0  0  0
   22.3675  -21.2998  -13.1240 C   0  0  2  0  0  0  0  0  0  0  0  0
   23.7694  -20.8406  -12.9734 N   0  0  0  0  0  0  0  0  0  0  0  0
   22.0814  -21.6995  -14.5072 C   0  0  0  0  0  0  0  0  0  0  0  0
   20.8533  -22.2529  -14.8100 O   0  0  0  0  0  0  0  0  0  0  0  0
   22.9161  -21.5550  -15.4211 O   0  0  0  0  0  0  0  0  0  0  0  0
  2  1  1  1
  3  4  1  0
  3  2  1  0
  4  5  1  0
  6  5  1  0
  7  6  1  0
  8  2  1  0
  8  9  2  0
 10 11  1  0
 12 11  1  0
 12 13  1  0
 14 13  1  1
 14 15  1  0
 15  8  1  0
 16 14  1  0
 17 16  2  0
 19 18  1  6
 19 21  1  0
 20 19  1  0
 22 21  1  6
 22 24  1  0
 22 23  1  0
 23 16  1  0
 24 25  1  0
 26 24  2  0
M  END
$$$$
