KML.pdb
     RDKit          3D

 26 25  0  0  1  0  0  0  0  0999 V2000
   19.5585  -23.6039   -9.4303 N   0  0  0  0  0  0  0  0  0  0  0  0
   19.3570  -23.2281  -10.7722 C   0  0  1  0  0  0  0  0  0  0  0  0
   17.9805  -23.3324  -11.3390 C   0  0  0  0  0  0  0  0  0  0  0  0
   17.3929  -24.6680  -11.5024 C   0  0  0  0  0  0  0  0  0  0  0  0
   17.3101  -25.5771  -10.3377 C   0  0  0  0  0  0  0  0  0  0  0  0
   16.6013  -26.8758  -10.5623 C   0  0  0  0  0  0  0  0  0  0  0  0
   16.6543  -27.6816   -9.3765 N   0  0  0  0  0  0  0  0  0  0  0  0
   19.9487  -21.8907  -11.0501 C   0  0  0  0  0  0  0  0  0  0  0  0
   19.1951  -20.8820  -10.9504 O   0  0  0  0  0  0  0  0  0  0  0  0
   26.0483  -20.5853  -11.0396 C   0  0  0  0  0  0  0  0  0  0  0  0
   25.2329  -20.4672   -9.4450 S   0  0  0  0  0  0  0  0  0  0  0  0
   23.4069  -20.4542   -9.7409 C   0  0  0  0  0  0  0  0  0  0  0  0
   23.2386  -20.2989  -11.2123 C   0  0  0  0  0  0  0  0  0  0  0  0
   21.7801  -20.3158  -11.6012 C   0  0  2  0  0  0  0  0  0  0  0  0
   21.2741  -21.6890  -11.4123 N   0  0  0  0  0  0  0  0  0  0  0  0
   21.5854  -19.9000  -13.0078 C   0  0  0  0  0  0  0  0  0  0  0  0
   21.9731  -18.7394  -13.4001 O   0  0  0  0  0  0  0  0  0  0  0  0
   23.2037  -20.2965  -16.7390 C   0  0  0  0  0  0  0  0  0  0  0  0
   22.4905  -21.5933  -16.3734 C   0  0  2  0  0  0  0  0  0  0  0  0
   22.7184  -22.6571  -17.3989 C   0  0  0  0  0  0  0  0  0  0  0  0
   21.0272  -21.2985  -16.2730 C   0  0  0  0  0  0  0  0  0  0  0  0
   20.6967  -20.1723  -15.3186 C   0  0  2  0  0  0  0  0  0  0  0  0
   20.9825  -20.7410  -13.9793 N   0  0  0  0  0  0  0  0  0  0  0  0
   19.2781  -19.8220  -15.4594 C   0  0  0  0  0  0  0  0  0  0  0  0
   18.4040  -20.1192  -14.4328 O   0  0  0  0  0  0  0  0  0  0  0  0
   18.8356  -19.2626  -16.4812 O   0  0  0  0  0  0  0  0  0  0  0  0
  2  1  1  1
  3  4  1  0
  3  2  1  0
  4  5  1  0
  6  5  1  0
  7  6  1  0
  8  2  1  0
  8  9  2  0
 10 11  1  0
 12 11  1  0
 12 13  1  0
 14 13  1  6
 14 15  1  0
 15  8  1  0
 16 14  1  0
 17 16  2  0
 19 18  1  6
 19 21  1  0
 20 19  1  0
 22 21  1  6
 22 24  1  0
 22 23  1  0
 23 16  1  0
 24 25  1  0
 26 24  2  0
M  END
$$$$
