KML.pdb
     RDKit          3D

 26 25  0  0  1  0  0  0  0  0999 V2000
   20.4817  -12.9137  -17.4618 N   0  0  0  0  0  0  0  0  0  0  0  0
   20.3731  -11.5322  -17.7112 C   0  0  1  0  0  0  0  0  0  0  0  0
   19.0369  -10.9813  -18.0827 C   0  0  0  0  0  0  0  0  0  0  0  0
   18.3195  -11.5919  -19.2090 C   0  0  0  0  0  0  0  0  0  0  0  0
   16.9170  -12.0291  -19.0309 C   0  0  0  0  0  0  0  0  0  0  0  0
   15.8884  -10.9437  -18.9762 C   0  0  0  0  0  0  0  0  0  0  0  0
   15.6830  -10.5226  -17.6201 N   0  0  0  0  0  0  0  0  0  0  0  0
   20.9913  -10.7382  -16.6142 C   0  0  0  0  0  0  0  0  0  0  0  0
   20.5703  -10.9311  -15.4391 O   0  0  0  0  0  0  0  0  0  0  0  0
   26.6430  -12.5098  -14.6439 C   0  0  0  0  0  0  0  0  0  0  0  0
   26.1999  -10.8881  -15.2725 S   0  0  0  0  0  0  0  0  0  0  0  0
   24.3589  -10.7298  -15.1867 C   0  0  0  0  0  0  0  0  0  0  0  0
   24.0534   -9.3402  -15.6261 C   0  0  0  0  0  0  0  0  0  0  0  0
   22.5653   -9.0873  -15.6470 C   0  0  2  0  0  0  0  0  0  0  0  0
   21.9980   -9.8012  -16.8071 N   0  0  0  0  0  0  0  0  0  0  0  0
   22.2584   -7.6434  -15.7492 C   0  0  0  0  0  0  0  0  0  0  0  0
   22.4412   -7.0189  -16.8573 O   0  0  0  0  0  0  0  0  0  0  0  0
   19.8808   -4.9576  -17.1966 C   0  0  0  0  0  0  0  0  0  0  0  0
   19.3117   -5.7348  -16.0151 C   0  0  2  0  0  0  0  0  0  0  0  0
   17.8430   -5.5035  -15.8577 C   0  0  0  0  0  0  0  0  0  0  0  0
   20.0261   -5.2810  -14.7814 C   0  0  0  0  0  0  0  0  0  0  0  0
   21.5291   -5.4357  -14.8561 C   0  0  2  0  0  0  0  0  0  0  0  0
   21.7508   -6.8887  -14.6597 N   0  0  0  0  0  0  0  0  0  0  0  0
   22.1483   -4.6502  -13.7817 C   0  0  0  0  0  0  0  0  0  0  0  0
   22.3436   -3.2954  -13.9621 O   0  0  0  0  0  0  0  0  0  0  0  0
   22.5055   -5.1701  -12.7070 O   0  0  0  0  0  0  0  0  0  0  0  0
  2  1  1  1
  3  4  1  0
  3  2  1  0
  4  5  1  0
  6  5  1  0
  7  6  1  0
  8  2  1  0
  8  9  2  0
 10 11  1  0
 12 11  1  0
 12 13  1  0
 14 13  1  6
 14 15  1  0
 15  8  1  0
 16 14  1  0
 17 16  2  0
 19 18  1  6
 19 21  1  0
 20 19  1  0
 22 21  1  1
 22 24  1  0
 22 23  1  0
 23 16  1  0
 24 25  1  0
 26 24  2  0
M  END
$$$$
