KML.pdb
     RDKit          3D

 26 25  0  0  1  0  0  0  0  0999 V2000
   27.5621  -18.9064  -16.2763 N   0  0  0  0  0  0  0  0  0  0  0  0
   27.5922  -18.7572  -14.8766 C   0  0  1  0  0  0  0  0  0  0  0  0
   26.5444  -17.9137  -14.2304 C   0  0  0  0  0  0  0  0  0  0  0  0
   25.6371  -17.1462  -15.0928 C   0  0  0  0  0  0  0  0  0  0  0  0
   26.0410  -15.8039  -15.5670 C   0  0  0  0  0  0  0  0  0  0  0  0
   24.9317  -14.8847  -15.9719 C   0  0  0  0  0  0  0  0  0  0  0  0
   25.4674  -13.6688  -16.5130 N   0  0  0  0  0  0  0  0  0  0  0  0
   27.7079  -20.0771  -14.1981 C   0  0  0  0  0  0  0  0  0  0  0  0
   27.1789  -21.0763  -14.7612 O   0  0  0  0  0  0  0  0  0  0  0  0
   31.5091  -22.5001   -9.4622 C   0  0  0  0  0  0  0  0  0  0  0  0
   32.1961  -21.5987  -10.8539 S   0  0  0  0  0  0  0  0  0  0  0  0
   30.8875  -21.4819  -12.1561 C   0  0  0  0  0  0  0  0  0  0  0  0
   29.5926  -21.6598  -11.4426 C   0  0  0  0  0  0  0  0  0  0  0  0
   28.4290  -21.6259  -12.4037 C   0  0  2  0  0  0  0  0  0  0  0  0
   28.3592  -20.2723  -12.9872 N   0  0  0  0  0  0  0  0  0  0  0  0
   27.1526  -21.9453  -11.7269 C   0  0  0  0  0  0  0  0  0  0  0  0
   27.0525  -22.9966  -10.9948 O   0  0  0  0  0  0  0  0  0  0  0  0
   25.9806  -18.6344   -7.7642 C   0  0  0  0  0  0  0  0  0  0  0  0
   25.2051  -19.7538   -8.4494 C   0  0  2  0  0  0  0  0  0  0  0  0
   25.0950  -20.9634   -7.5776 C   0  0  0  0  0  0  0  0  0  0  0  0
   25.9293  -20.1079   -9.7097 C   0  0  0  0  0  0  0  0  0  0  0  0
   25.1254  -20.9784  -10.6502 C   0  0  2  0  0  0  0  0  0  0  0  0
   25.9994  -21.1254  -11.8390 N   0  0  0  0  0  0  0  0  0  0  0  0
   23.8725  -20.2926  -10.9891 C   0  0  0  0  0  0  0  0  0  0  0  0
   22.7270  -20.5878  -10.2771 O   0  0  0  0  0  0  0  0  0  0  0  0
   23.8097  -19.4486  -11.9038 O   0  0  0  0  0  0  0  0  0  0  0  0
  2  1  1  6
  3  4  1  0
  3  2  1  0
  4  5  1  0
  6  5  1  0
  7  6  1  0
  8  2  1  0
  8  9  2  0
 10 11  1  0
 12 11  1  0
 12 13  1  0
 14 13  1  1
 14 15  1  0
 15  8  1  0
 16 14  1  0
 17 16  2  0
 19 18  1  1
 19 21  1  0
 20 19  1  0
 22 21  1  1
 22 24  1  0
 22 23  1  0
 23 16  1  0
 24 25  1  0
 26 24  2  0
M  END
$$$$
