KML.pdb
     RDKit          3D

 26 25  0  0  1  0  0  0  0  0999 V2000
   20.8417  -22.0352  -14.0086 N   0  0  0  0  0  0  0  0  0  0  0  0
   22.2025  -22.2962  -13.7582 C   0  0  1  0  0  0  0  0  0  0  0  0
   23.1032  -22.5439  -14.9220 C   0  0  0  0  0  0  0  0  0  0  0  0
   23.0709  -23.8661  -15.5598 C   0  0  0  0  0  0  0  0  0  0  0  0
   23.0560  -25.0831  -14.7180 C   0  0  0  0  0  0  0  0  0  0  0  0
   23.0656  -26.3903  -15.4462 C   0  0  0  0  0  0  0  0  0  0  0  0
   24.3725  -26.9796  -15.3910 N   0  0  0  0  0  0  0  0  0  0  0  0
   22.7844  -21.2790  -12.8403 C   0  0  0  0  0  0  0  0  0  0  0  0
   22.2978  -20.1138  -12.8691 O   0  0  0  0  0  0  0  0  0  0  0  0
   24.6742  -21.4213   -7.0449 C   0  0  0  0  0  0  0  0  0  0  0  0
   26.0667  -20.4090   -7.5527 S   0  0  0  0  0  0  0  0  0  0  0  0
   25.7057  -19.7551   -9.2449 C   0  0  0  0  0  0  0  0  0  0  0  0
   24.9674  -20.8410   -9.9471 C   0  0  0  0  0  0  0  0  0  0  0  0
   24.5479  -20.4109  -11.3320 C   0  0  2  0  0  0  0  0  0  0  0  0
   23.8271  -21.5352  -11.9595 N   0  0  0  0  0  0  0  0  0  0  0  0
   25.7131  -20.0372  -12.1638 C   0  0  0  0  0  0  0  0  0  0  0  0
   26.4033  -18.9911  -11.8798 O   0  0  0  0  0  0  0  0  0  0  0  0
   29.3426  -19.6334  -12.0685 C   0  0  0  0  0  0  0  0  0  0  0  0
   28.8473  -21.0652  -12.2380 C   0  0  2  0  0  0  0  0  0  0  0  0
   29.9143  -22.0609  -11.9137 C   0  0  0  0  0  0  0  0  0  0  0  0
   28.4176  -21.2358  -13.6609 C   0  0  0  0  0  0  0  0  0  0  0  0
   27.2904  -20.3142  -14.0715 C   0  0  2  0  0  0  0  0  0  0  0  0
   26.1278  -20.7977  -13.2882 N   0  0  0  0  0  0  0  0  0  0  0  0
   27.0573  -20.4512  -15.5144 C   0  0  0  0  0  0  0  0  0  0  0  0
   25.8483  -20.9480  -15.9590 O   0  0  0  0  0  0  0  0  0  0  0  0
   27.9205  -20.1322  -16.3546 O   0  0  0  0  0  0  0  0  0  0  0  0
  2  1  1  6
  3  4  1  0
  3  2  1  0
  4  5  1  0
  6  5  1  0
  7  6  1  0
  8  2  1  0
  8  9  2  0
 10 11  1  0
 12 11  1  0
 12 13  1  0
 14 13  1  1
 14 15  1  0
 15  8  1  0
 16 14  1  0
 17 16  2  0
 19 18  1  6
 19 21  1  0
 20 19  1  0
 22 21  1  1
 22 24  1  0
 22 23  1  0
 23 16  1  0
 24 25  1  0
 26 24  2  0
M  END
$$$$
