VGR.pdb
     RDKit          3D

 23 22  0  0  1  0  0  0  0  0999 V2000
    8.7991  -13.5948   21.5784 C   0  0  0  0  0  0  0  0  0  0  0  0
    8.0974  -13.2354   20.2896 C   0  0  2  0  0  0  0  0  0  0  0  0
    6.8328  -12.4467   20.5562 C   0  0  0  0  0  0  0  0  0  0  0  0
    7.7772  -14.5109   19.5140 C   0  0  2  0  0  0  0  0  0  0  0  0
    6.9523  -15.3785   20.3196 N   0  0  0  0  0  0  0  0  0  0  0  0
    9.0273  -15.2275   19.1621 C   0  0  0  0  0  0  0  0  0  0  0  0
    9.8896  -14.6685   18.4078 O   0  0  0  0  0  0  0  0  0  0  0  0
    9.3072  -16.5288   19.6377 N   0  0  0  0  0  0  0  0  0  0  0  0
   10.5689  -17.1768   19.3821 C   0  0  0  0  0  0  0  0  0  0  0  0
   11.1890  -17.5863   20.6782 C   0  0  0  0  0  0  0  0  0  0  0  0
   12.4356  -17.7837   20.7327 O   0  0  0  0  0  0  0  0  0  0  0  0
    8.5174  -13.9635   28.1403 N   0  0  0  0  0  0  0  0  0  0  0  0
    9.8630  -14.3689   28.3781 C   0  0  0  0  0  0  0  0  0  0  0  0
   10.4597  -13.9277   29.4267 N   0  0  0  0  0  0  0  0  0  0  0  0
   10.4996  -15.2417   27.4565 N   0  0  0  0  0  0  0  0  0  0  0  0
    9.9595  -15.3311   26.1099 C   0  0  0  0  0  0  0  0  0  0  0  0
   10.8291  -16.3000   25.3281 C   0  0  0  0  0  0  0  0  0  0  0  0
   10.2091  -16.5486   23.9788 C   0  0  0  0  0  0  0  0  0  0  0  0
   11.0103  -17.5250   23.1474 C   0  0  2  0  0  0  0  0  0  0  0  0
   10.4237  -17.7628   21.8581 N   0  0  0  0  0  0  0  0  0  0  0  0
   11.0710  -18.7817   23.9194 C   0  0  0  0  0  0  0  0  0  0  0  0
   11.9611  -18.8828   24.9640 O   0  0  0  0  0  0  0  0  0  0  0  0
   10.3348  -19.7482   23.6440 O   0  0  0  0  0  0  0  0  0  0  0  0
  2  1  1  1
  3  2  1  0
  4  2  1  0
  4  5  1  1
  6  4  1  0
  7  6  2  0
  8  6  1  0
  9  8  1  0
 10  9  1  0
 10 20  1  0
 11 10  2  0
 13 12  1  0
 14 13  2  0
 15 13  1  0
 16 15  1  0
 17 16  1  0
 18 17  1  0
 19 18  1  1
 19 21  1  0
 20 19  1  0
 21 23  2  0
 21 22  1  0
M  END
$$$$
