VGR.pdb
     RDKit          3D

 23 22  0  0  1  0  0  0  0  0999 V2000
    8.8326  -12.1194   18.7442 C   0  0  0  0  0  0  0  0  0  0  0  0
    8.1760  -13.3081   18.0821 C   0  0  2  0  0  0  0  0  0  0  0  0
    6.6860  -13.3301   18.3497 C   0  0  0  0  0  0  0  0  0  0  0  0
    8.8277  -14.5934   18.5865 C   0  0  2  0  0  0  0  0  0  0  0  0
    8.4985  -14.7950   19.9769 N   0  0  0  0  0  0  0  0  0  0  0  0
   10.3023  -14.5117   18.4490 C   0  0  0  0  0  0  0  0  0  0  0  0
   10.8589  -14.8569   17.3554 O   0  0  0  0  0  0  0  0  0  0  0  0
   11.1314  -14.0581   19.5002 N   0  0  0  0  0  0  0  0  0  0  0  0
   12.5598  -13.9440   19.3468 C   0  0  0  0  0  0  0  0  0  0  0  0
   13.2345  -14.9727   20.1947 C   0  0  0  0  0  0  0  0  0  0  0  0
   14.4831  -14.9045   20.3744 O   0  0  0  0  0  0  0  0  0  0  0  0
    7.4457  -14.5284   26.0168 N   0  0  0  0  0  0  0  0  0  0  0  0
    8.2067  -15.6357   25.5413 C   0  0  0  0  0  0  0  0  0  0  0  0
    7.8447  -16.8200   25.8829 N   0  0  0  0  0  0  0  0  0  0  0  0
    9.3338  -15.3996   24.7103 N   0  0  0  0  0  0  0  0  0  0  0  0
   10.1440  -16.5389   24.3120 C   0  0  0  0  0  0  0  0  0  0  0  0
   11.2538  -16.0230   23.4128 C   0  0  0  0  0  0  0  0  0  0  0  0
   12.0844  -17.1827   22.9312 C   0  0  0  0  0  0  0  0  0  0  0  0
   13.1037  -16.7699   21.8934 C   0  0  2  0  0  0  0  0  0  0  0  0
   12.5192  -16.0307   20.8096 N   0  0  0  0  0  0  0  0  0  0  0  0
   13.7165  -18.0147   21.3894 C   0  0  0  0  0  0  0  0  0  0  0  0
   14.4457  -18.7989   22.2536 O   0  0  0  0  0  0  0  0  0  0  0  0
   13.5864  -18.3668   20.2015 O   0  0  0  0  0  0  0  0  0  0  0  0
  2  1  1  1
  3  2  1  0
  4  2  1  0
  4  5  1  1
  6  4  1  0
  7  6  2  0
  8  6  1  0
  9  8  1  0
 10  9  1  0
 10 20  1  0
 11 10  2  0
 13 12  1  0
 14 13  2  0
 15 13  1  0
 16 15  1  0
 17 16  1  0
 18 17  1  0
 19 18  1  1
 19 21  1  0
 20 19  1  0
 21 23  2  0
 21 22  1  0
M  END
$$$$
