VGR.pdb
     RDKit          3D

 23 22  0  0  1  0  0  0  0  0999 V2000
    6.6060  -12.2377   27.8695 C   0  0  0  0  0  0  0  0  0  0  0  0
    6.8092  -11.8511   26.4232 C   0  0  2  0  0  0  0  0  0  0  0  0
    5.9606  -10.6535   26.0521 C   0  0  0  0  0  0  0  0  0  0  0  0
    6.4728  -13.0414   25.5282 C   0  0  2  0  0  0  0  0  0  0  0  0
    5.1172  -13.4702   25.7747 N   0  0  0  0  0  0  0  0  0  0  0  0
    7.3922  -14.1716   25.8067 C   0  0  0  0  0  0  0  0  0  0  0  0
    8.6488  -14.0212   25.6544 O   0  0  0  0  0  0  0  0  0  0  0  0
    6.9236  -15.4321   26.2425 N   0  0  0  0  0  0  0  0  0  0  0  0
    7.8210  -16.5314   26.4938 C   0  0  0  0  0  0  0  0  0  0  0  0
    8.2437  -17.1351   25.1943 C   0  0  0  0  0  0  0  0  0  0  0  0
    7.7330  -18.2302   24.8255 O   0  0  0  0  0  0  0  0  0  0  0  0
    7.3504  -14.0566   18.5406 N   0  0  0  0  0  0  0  0  0  0  0  0
    7.6121  -13.4419   19.7997 C   0  0  0  0  0  0  0  0  0  0  0  0
    8.1465  -12.2738   19.8121 N   0  0  0  0  0  0  0  0  0  0  0  0
    7.2770  -14.1330   20.9941 N   0  0  0  0  0  0  0  0  0  0  0  0
    8.3592  -14.5768   21.8573 C   0  0  0  0  0  0  0  0  0  0  0  0
    8.8999  -15.8763   21.2871 C   0  0  0  0  0  0  0  0  0  0  0  0
   10.1046  -16.3058   22.0815 C   0  0  0  0  0  0  0  0  0  0  0  0
    9.7426  -17.2264   23.2251 C   0  0  2  0  0  0  0  0  0  0  0  0
    9.2042  -16.5193   24.3533 N   0  0  0  0  0  0  0  0  0  0  0  0
   10.9840  -17.9274   23.6080 C   0  0  0  0  0  0  0  0  0  0  0  0
   11.6066  -18.7372   22.6859 O   0  0  0  0  0  0  0  0  0  0  0  0
   11.4762  -17.8001   24.7453 O   0  0  0  0  0  0  0  0  0  0  0  0
  2  1  1  1
  3  2  1  0
  4  2  1  0
  4  5  1  1
  6  4  1  0
  7  6  2  0
  8  6  1  0
  9  8  1  0
 10  9  1  0
 10 20  1  0
 11 10  2  0
 13 12  1  0
 14 13  2  0
 15 13  1  0
 16 15  1  0
 17 16  1  0
 18 17  1  0
 19 18  1  6
 19 21  1  0
 20 19  1  0
 21 23  2  0
 21 22  1  0
M  END
$$$$
