VGR.pdb
     RDKit          3D

 23 22  0  0  1  0  0  0  0  0999 V2000
    1.4846  -20.1897   19.6618 C   0  0  0  0  0  0  0  0  0  0  0  0
    2.0340  -19.4808   20.8775 C   0  0  2  0  0  0  0  0  0  0  0  0
    2.7450  -18.2014   20.4906 C   0  0  0  0  0  0  0  0  0  0  0  0
    2.9843  -20.4149   21.6228 C   0  0  2  0  0  0  0  0  0  0  0  0
    2.3053  -21.6466   21.9455 N   0  0  0  0  0  0  0  0  0  0  0  0
    3.4507  -19.7801   22.8796 C   0  0  0  0  0  0  0  0  0  0  0  0
    2.6350  -19.6032   23.8431 O   0  0  0  0  0  0  0  0  0  0  0  0
    4.7873  -19.3556   23.0564 N   0  0  0  0  0  0  0  0  0  0  0  0
    5.1929  -18.5770   24.1993 C   0  0  0  0  0  0  0  0  0  0  0  0
    6.5842  -18.0744   23.9900 C   0  0  0  0  0  0  0  0  0  0  0  0
    7.2797  -18.5518   23.0497 O   0  0  0  0  0  0  0  0  0  0  0  0
    7.8789  -11.6261   20.1035 N   0  0  0  0  0  0  0  0  0  0  0  0
    8.2739  -12.8482   19.4855 C   0  0  0  0  0  0  0  0  0  0  0  0
    8.3962  -12.8769   18.2071 N   0  0  0  0  0  0  0  0  0  0  0  0
    8.5190  -13.9893   20.2946 N   0  0  0  0  0  0  0  0  0  0  0  0
    8.3203  -13.8692   21.7295 C   0  0  0  0  0  0  0  0  0  0  0  0
    8.5847  -15.2313   22.3467 C   0  0  0  0  0  0  0  0  0  0  0  0
    8.3384  -15.1623   23.8304 C   0  0  0  0  0  0  0  0  0  0  0  0
    8.4416  -16.5163   24.4955 C   0  0  2  0  0  0  0  0  0  0  0  0
    7.1568  -17.0736   24.8144 N   0  0  0  0  0  0  0  0  0  0  0  0
    9.2317  -16.3196   25.7267 C   0  0  0  0  0  0  0  0  0  0  0  0
   10.6055  -16.3322   25.6491 O   0  0  0  0  0  0  0  0  0  0  0  0
    8.6803  -16.1431   26.8298 O   0  0  0  0  0  0  0  0  0  0  0  0
  2  1  1  6
  3  2  1  0
  4  2  1  0
  4  5  1  1
  6  4  1  0
  7  6  2  0
  8  6  1  0
  9  8  1  0
 10  9  1  0
 10 20  1  0
 11 10  2  0
 13 12  1  0
 14 13  2  0
 15 13  1  0
 16 15  1  0
 17 16  1  0
 18 17  1  0
 19 18  1  1
 19 21  1  0
 20 19  1  0
 21 23  2  0
 21 22  1  0
M  END
$$$$
