VGR.pdb
     RDKit          3D

 23 22  0  0  1  0  0  0  0  0999 V2000
   10.7325  -17.5393   19.4903 C   0  0  0  0  0  0  0  0  0  0  0  0
   10.2204  -18.6812   20.3367 C   0  0  2  0  0  0  0  0  0  0  0  0
    9.9400  -19.9060   19.4921 C   0  0  0  0  0  0  0  0  0  0  0  0
    8.9577  -18.2401   21.0728 C   0  0  2  0  0  0  0  0  0  0  0  0
    7.8874  -18.0348   20.1269 N   0  0  0  0  0  0  0  0  0  0  0  0
    9.2030  -16.9725   21.8029 C   0  0  0  0  0  0  0  0  0  0  0  0
   10.1186  -16.9158   22.6881 O   0  0  0  0  0  0  0  0  0  0  0  0
    8.4496  -15.8029   21.5529 N   0  0  0  0  0  0  0  0  0  0  0  0
    8.7117  -14.5669   22.2462 C   0  0  0  0  0  0  0  0  0  0  0  0
    7.9663  -14.5555   23.5409 C   0  0  0  0  0  0  0  0  0  0  0  0
    6.9841  -15.3347   23.6963 O   0  0  0  0  0  0  0  0  0  0  0  0
   11.5978  -15.6887   27.4551 N   0  0  0  0  0  0  0  0  0  0  0  0
   11.1827  -16.0083   28.7806 C   0  0  0  0  0  0  0  0  0  0  0  0
   11.5024  -17.1550   29.2632 N   0  0  0  0  0  0  0  0  0  0  0  0
   10.4337  -15.0573   29.5231 N   0  0  0  0  0  0  0  0  0  0  0  0
    9.9014  -13.9019   28.8198 C   0  0  0  0  0  0  0  0  0  0  0  0
    9.0067  -14.4136   27.7045 C   0  0  0  0  0  0  0  0  0  0  0  0
    8.3455  -13.2463   27.0210 C   0  0  0  0  0  0  0  0  0  0  0  0
    7.5396  -13.6668   25.8127 C   0  0  2  0  0  0  0  0  0  0  0  0
    8.3236  -13.6957   24.6096 N   0  0  0  0  0  0  0  0  0  0  0  0
    6.4404  -12.6904   25.6814 C   0  0  0  0  0  0  0  0  0  0  0  0
    5.3070  -12.8525   26.4448 O   0  0  0  0  0  0  0  0  0  0  0  0
    6.5193  -11.7268   24.8959 O   0  0  0  0  0  0  0  0  0  0  0  0
  2  1  1  6
  3  2  1  0
  4  2  1  0
  4  5  1  6
  6  4  1  0
  7  6  2  0
  8  6  1  0
  9  8  1  0
 10  9  1  0
 10 20  1  0
 11 10  2  0
 13 12  1  0
 14 13  2  0
 15 13  1  0
 16 15  1  0
 17 16  1  0
 18 17  1  0
 19 18  1  1
 19 21  1  0
 20 19  1  0
 21 23  2  0
 21 22  1  0
M  END
$$$$
