VGR.pdb
     RDKit          3D

 23 22  0  0  1  0  0  0  0  0999 V2000
   13.1245  -14.0964   19.3410 C   0  0  0  0  0  0  0  0  0  0  0  0
   13.8605  -15.2215   18.6519 C   0  0  2  0  0  0  0  0  0  0  0  0
   14.8489  -14.6883   17.6366 C   0  0  0  0  0  0  0  0  0  0  0  0
   12.8522  -16.1495   17.9786 C   0  0  2  0  0  0  0  0  0  0  0  0
   12.1622  -15.4411   16.9278 N   0  0  0  0  0  0  0  0  0  0  0  0
   11.8566  -16.6322   18.9665 C   0  0  0  0  0  0  0  0  0  0  0  0
   10.6818  -16.1377   18.9785 O   0  0  0  0  0  0  0  0  0  0  0  0
   12.1623  -17.6372   19.9124 N   0  0  0  0  0  0  0  0  0  0  0  0
   11.1680  -18.1589   20.8157 C   0  0  0  0  0  0  0  0  0  0  0  0
   11.0911  -17.2881   22.0272 C   0  0  0  0  0  0  0  0  0  0  0  0
   12.0139  -16.4544   22.2496 O   0  0  0  0  0  0  0  0  0  0  0  0
    8.4160  -13.0955   18.9784 N   0  0  0  0  0  0  0  0  0  0  0  0
    7.7199  -13.2578   20.2115 C   0  0  0  0  0  0  0  0  0  0  0  0
    6.5157  -13.7041   20.1813 N   0  0  0  0  0  0  0  0  0  0  0  0
    8.3725  -12.9242   21.4278 N   0  0  0  0  0  0  0  0  0  0  0  0
    7.9382  -13.5895   22.6451 C   0  0  0  0  0  0  0  0  0  0  0  0
    8.2399  -15.0701   22.4935 C   0  0  0  0  0  0  0  0  0  0  0  0
    8.4886  -15.6695   23.8521 C   0  0  0  0  0  0  0  0  0  0  0  0
    9.8363  -16.3489   23.9445 C   0  0  2  0  0  0  0  0  0  0  0  0
   10.0123  -17.3636   22.9434 N   0  0  0  0  0  0  0  0  0  0  0  0
    9.9140  -16.9444   25.2929 C   0  0  0  0  0  0  0  0  0  0  0  0
   10.1811  -16.1299   26.3695 O   0  0  0  0  0  0  0  0  0  0  0  0
    9.7431  -18.1651   25.4736 O   0  0  0  0  0  0  0  0  0  0  0  0
  2  1  1  6
  3  2  1  0
  4  2  1  0
  4  5  1  6
  6  4  1  0
  7  6  2  0
  8  6  1  0
  9  8  1  0
 10  9  1  0
 10 20  1  0
 11 10  2  0
 13 12  1  0
 14 13  2  0
 15 13  1  0
 16 15  1  0
 17 16  1  0
 18 17  1  0
 19 18  1  6
 19 21  1  0
 20 19  1  0
 21 23  2  0
 21 22  1  0
M  END
$$$$
