VGR.pdb
     RDKit          3D

 23 22  0  0  1  0  0  0  0  0999 V2000
    6.2653  -12.5181   24.9293 C   0  0  0  0  0  0  0  0  0  0  0  0
    6.1729  -12.6343   26.4328 C   0  0  2  0  0  0  0  0  0  0  0  0
    6.7090  -11.3919   27.1120 C   0  0  0  0  0  0  0  0  0  0  0  0
    6.9431  -13.8691   26.8941 C   0  0  2  0  0  0  0  0  0  0  0  0
    8.3252  -13.7606   26.4936 N   0  0  0  0  0  0  0  0  0  0  0  0
    6.3630  -15.0936   26.2906 C   0  0  0  0  0  0  0  0  0  0  0  0
    5.1950  -15.4766   26.6282 O   0  0  0  0  0  0  0  0  0  0  0  0
    7.0648  -15.8676   25.3385 N   0  0  0  0  0  0  0  0  0  0  0  0
    6.4707  -17.0193   24.7080 C   0  0  0  0  0  0  0  0  0  0  0  0
    7.4341  -17.6000   23.7248 C   0  0  0  0  0  0  0  0  0  0  0  0
    7.2250  -18.7572   23.2630 O   0  0  0  0  0  0  0  0  0  0  0  0
    7.7262  -13.8489   18.1582 N   0  0  0  0  0  0  0  0  0  0  0  0
    8.0964  -13.1088   19.3187 C   0  0  0  0  0  0  0  0  0  0  0  0
    7.6309  -11.9201   19.4618 N   0  0  0  0  0  0  0  0  0  0  0  0
    8.9620  -13.7023   20.2753 N   0  0  0  0  0  0  0  0  0  0  0  0
    9.1054  -15.1488   20.2675 C   0  0  0  0  0  0  0  0  0  0  0  0
   10.0521  -15.5239   21.3942 C   0  0  0  0  0  0  0  0  0  0  0  0
   10.1974  -17.0216   21.4450 C   0  0  0  0  0  0  0  0  0  0  0  0
    9.7121  -17.6037   22.7535 C   0  0  2  0  0  0  0  0  0  0  0  0
    8.5832  -16.8946   23.2877 N   0  0  0  0  0  0  0  0  0  0  0  0
   10.8495  -17.5322   23.6916 C   0  0  0  0  0  0  0  0  0  0  0  0
   11.9903  -18.2507   23.4160 O   0  0  0  0  0  0  0  0  0  0  0  0
   10.7961  -16.8365   24.7237 O   0  0  0  0  0  0  0  0  0  0  0  0
  2  1  1  6
  3  2  1  0
  4  2  1  0
  4  5  1  6
  6  4  1  0
  7  6  2  0
  8  6  1  0
  9  8  1  0
 10  9  1  0
 10 20  1  0
 11 10  2  0
 13 12  1  0
 14 13  2  0
 15 13  1  0
 16 15  1  0
 17 16  1  0
 18 17  1  0
 19 18  1  6
 19 21  1  0
 20 19  1  0
 21 23  2  0
 21 22  1  0
M  END
$$$$
