VGR.pdb
     RDKit          3D

 23 22  0  0  1  0  0  0  0  0999 V2000
   10.5269  -17.1815   22.1127 C   0  0  0  0  0  0  0  0  0  0  0  0
   10.0377  -18.0336   20.9651 C   0  0  2  0  0  0  0  0  0  0  0  0
   11.1863  -18.7477   20.2848 C   0  0  0  0  0  0  0  0  0  0  0  0
    9.2881  -17.1560   19.9656 C   0  0  2  0  0  0  0  0  0  0  0  0
   10.1310  -16.0617   19.5481 N   0  0  0  0  0  0  0  0  0  0  0  0
    8.0578  -16.6053   20.5847 C   0  0  0  0  0  0  0  0  0  0  0  0
    7.1153  -17.3900   20.9325 O   0  0  0  0  0  0  0  0  0  0  0  0
    7.8843  -15.2206   20.8095 N   0  0  0  0  0  0  0  0  0  0  0  0
    6.6706  -14.6885   21.3759 C   0  0  0  0  0  0  0  0  0  0  0  0
    6.7572  -14.7319   22.8668 C   0  0  0  0  0  0  0  0  0  0  0  0
    5.8094  -14.2595   23.5557 O   0  0  0  0  0  0  0  0  0  0  0  0
   12.3598  -16.7557   29.8230 N   0  0  0  0  0  0  0  0  0  0  0  0
   11.0048  -16.3562   29.6344 C   0  0  0  0  0  0  0  0  0  0  0  0
   10.6260  -15.2272   30.1163 N   0  0  0  0  0  0  0  0  0  0  0  0
   10.1199  -17.2108   28.9249 N   0  0  0  0  0  0  0  0  0  0  0  0
   10.1487  -17.1755   27.4720 C   0  0  0  0  0  0  0  0  0  0  0  0
    9.0840  -16.1942   27.0140 C   0  0  0  0  0  0  0  0  0  0  0  0
    9.0405  -16.1729   25.5092 C   0  0  0  0  0  0  0  0  0  0  0  0
    7.9135  -15.3165   24.9772 C   0  0  2  0  0  0  0  0  0  0  0  0
    7.8725  -15.2881   23.5418 N   0  0  0  0  0  0  0  0  0  0  0  0
    8.1338  -13.9568   25.5079 C   0  0  0  0  0  0  0  0  0  0  0  0
    7.6587  -13.6424   26.7605 O   0  0  0  0  0  0  0  0  0  0  0  0
    8.7391  -13.0924   24.8457 O   0  0  0  0  0  0  0  0  0  0  0  0
  2  1  1  1
  3  2  1  0
  4  2  1  0
  4  5  1  1
  6  4  1  0
  7  6  2  0
  8  6  1  0
  9  8  1  0
 10  9  1  0
 10 20  1  0
 11 10  2  0
 13 12  1  0
 14 13  2  0
 15 13  1  0
 16 15  1  0
 17 16  1  0
 18 17  1  0
 19 18  1  6
 19 21  1  0
 20 19  1  0
 21 23  2  0
 21 22  1  0
M  END
$$$$
