VGR.pdb
     RDKit          3D

 23 22  0  0  1  0  0  0  0  0999 V2000
    3.5309  -17.9304   21.7191 C   0  0  0  0  0  0  0  0  0  0  0  0
    3.6467  -18.8184   20.5024 C   0  0  2  0  0  0  0  0  0  0  0  0
    2.6975  -19.9946   20.5906 C   0  0  0  0  0  0  0  0  0  0  0  0
    5.0874  -19.3045   20.3648 C   0  0  2  0  0  0  0  0  0  0  0  0
    5.4693  -20.0413   21.5453 N   0  0  0  0  0  0  0  0  0  0  0  0
    6.0066  -18.1521   20.1997 C   0  0  0  0  0  0  0  0  0  0  0  0
    5.9702  -17.4580   19.1311 O   0  0  0  0  0  0  0  0  0  0  0  0
    6.9383  -17.7847   21.1972 N   0  0  0  0  0  0  0  0  0  0  0  0
    7.8219  -16.6579   21.0342 C   0  0  0  0  0  0  0  0  0  0  0  0
    8.6662  -16.5073   22.2576 C   0  0  0  0  0  0  0  0  0  0  0  0
    9.5982  -15.6545   22.2652 O   0  0  0  0  0  0  0  0  0  0  0  0
    7.6450  -12.4444   24.8187 N   0  0  0  0  0  0  0  0  0  0  0  0
    6.9197  -12.2318   26.0270 C   0  0  0  0  0  0  0  0  0  0  0  0
    6.8443  -11.0376   26.4945 N   0  0  0  0  0  0  0  0  0  0  0  0
    6.3063  -13.3373   26.6738 N   0  0  0  0  0  0  0  0  0  0  0  0
    6.3033  -14.6189   25.9880 C   0  0  0  0  0  0  0  0  0  0  0  0
    7.5910  -15.3380   26.3500 C   0  0  0  0  0  0  0  0  0  0  0  0
    7.6349  -16.6670   25.6437 C   0  0  0  0  0  0  0  0  0  0  0  0
    8.8210  -16.7864   24.7134 C   0  0  2  0  0  0  0  0  0  0  0  0
    8.4581  -17.2925   23.4192 N   0  0  0  0  0  0  0  0  0  0  0  0
    9.7771  -17.7005   25.3684 C   0  0  0  0  0  0  0  0  0  0  0  0
   10.7201  -17.1805   26.2251 O   0  0  0  0  0  0  0  0  0  0  0  0
    9.7465  -18.9285   25.1608 O   0  0  0  0  0  0  0  0  0  0  0  0
  2  1  1  1
  3  2  1  0
  4  2  1  0
  4  5  1  1
  6  4  1  0
  7  6  2  0
  8  6  1  0
  9  8  1  0
 10  9  1  0
 10 20  1  0
 11 10  2  0
 13 12  1  0
 14 13  2  0
 15 13  1  0
 16 15  1  0
 17 16  1  0
 18 17  1  0
 19 18  1  1
 19 21  1  0
 20 19  1  0
 21 23  2  0
 21 22  1  0
M  END
$$$$
