VGR.pdb
     RDKit          3D

 23 22  0  0  1  0  0  0  0  0999 V2000
    6.5695  -13.7626   17.4524 C   0  0  0  0  0  0  0  0  0  0  0  0
    7.6819  -13.9187   16.4421 C   0  0  2  0  0  0  0  0  0  0  0  0
    7.1879  -14.6030   15.1852 C   0  0  0  0  0  0  0  0  0  0  0  0
    8.8267  -14.7123   17.0669 C   0  0  2  0  0  0  0  0  0  0  0  0
    8.3879  -16.0559   17.3579 N   0  0  0  0  0  0  0  0  0  0  0  0
    9.2720  -14.0691   18.3271 C   0  0  0  0  0  0  0  0  0  0  0  0
    9.7949  -12.9069   18.2972 O   0  0  0  0  0  0  0  0  0  0  0  0
    9.1377  -14.7033   19.5832 N   0  0  0  0  0  0  0  0  0  0  0  0
    9.4612  -14.0277   20.8145 C   0  0  0  0  0  0  0  0  0  0  0  0
    9.1030  -14.9033   21.9708 C   0  0  0  0  0  0  0  0  0  0  0  0
    8.8732  -16.1293   21.7708 O   0  0  0  0  0  0  0  0  0  0  0  0
   10.6317  -14.1102   30.6746 N   0  0  0  0  0  0  0  0  0  0  0  0
   10.4363  -15.4999   30.4259 C   0  0  0  0  0  0  0  0  0  0  0  0
   10.7083  -16.3345   31.3638 N   0  0  0  0  0  0  0  0  0  0  0  0
    9.9507  -15.9182   29.1587 N   0  0  0  0  0  0  0  0  0  0  0  0
    9.9388  -14.9503   28.0743 C   0  0  0  0  0  0  0  0  0  0  0  0
    9.3001  -15.6172   26.8686 C   0  0  0  0  0  0  0  0  0  0  0  0
    9.2561  -14.6402   25.7239 C   0  0  0  0  0  0  0  0  0  0  0  0
    8.9292  -15.3088   24.4077 C   0  0  2  0  0  0  0  0  0  0  0  0
    9.0111  -14.4049   23.2945 N   0  0  0  0  0  0  0  0  0  0  0  0
    7.5569  -15.8373   24.5353 C   0  0  0  0  0  0  0  0  0  0  0  0
    7.3499  -16.9961   25.2480 O   0  0  0  0  0  0  0  0  0  0  0  0
    6.5870  -15.2564   24.0121 O   0  0  0  0  0  0  0  0  0  0  0  0
  2  1  1  1
  3  2  1  0
  4  2  1  0
  4  5  1  1
  6  4  1  0
  7  6  2  0
  8  6  1  0
  9  8  1  0
 10  9  1  0
 10 20  1  0
 11 10  2  0
 13 12  1  0
 14 13  2  0
 15 13  1  0
 16 15  1  0
 17 16  1  0
 18 17  1  0
 19 18  1  1
 19 21  1  0
 20 19  1  0
 21 23  2  0
 21 22  1  0
M  END
$$$$
