VGR.pdb
     RDKit          3D

 23 22  0  0  1  0  0  0  0  0999 V2000
    8.4631  -13.0590   21.8685 C   0  0  0  0  0  0  0  0  0  0  0  0
    8.7432  -13.4944   20.4492 C   0  0  2  0  0  0  0  0  0  0  0  0
    8.2247  -12.4795   19.4527 C   0  0  0  0  0  0  0  0  0  0  0  0
    8.1047  -14.8591   20.2022 C   0  0  2  0  0  0  0  0  0  0  0  0
    6.6980  -14.8048   20.5193 N   0  0  0  0  0  0  0  0  0  0  0  0
    8.7489  -15.8907   21.0513 C   0  0  0  0  0  0  0  0  0  0  0  0
    9.8867  -16.3633   20.7242 O   0  0  0  0  0  0  0  0  0  0  0  0
    8.1420  -16.3802   22.2303 N   0  0  0  0  0  0  0  0  0  0  0  0
    8.7337  -17.4410   23.0060 C   0  0  0  0  0  0  0  0  0  0  0  0
    9.9671  -16.9351   23.6804 C   0  0  0  0  0  0  0  0  0  0  0  0
   10.2254  -15.6989   23.6515 O   0  0  0  0  0  0  0  0  0  0  0  0
   12.1837  -21.9392   29.4681 N   0  0  0  0  0  0  0  0  0  0  0  0
   12.5034  -20.6445   29.9709 C   0  0  0  0  0  0  0  0  0  0  0  0
   12.9763  -20.5490   31.1615 N   0  0  0  0  0  0  0  0  0  0  0  0
   12.2914  -19.5068   29.1478 N   0  0  0  0  0  0  0  0  0  0  0  0
   11.6053  -19.6946   27.8802 C   0  0  0  0  0  0  0  0  0  0  0  0
   11.4441  -18.3285   27.2368 C   0  0  0  0  0  0  0  0  0  0  0  0
   12.4856  -18.1575   26.1630 C   0  0  0  0  0  0  0  0  0  0  0  0
   12.0121  -17.2655   25.0376 C   0  0  2  0  0  0  0  0  0  0  0  0
   10.8652  -17.7984   24.3567 N   0  0  0  0  0  0  0  0  0  0  0  0
   13.1456  -17.1347   24.1011 C   0  0  0  0  0  0  0  0  0  0  0  0
   14.2951  -16.5087   24.5256 O   0  0  0  0  0  0  0  0  0  0  0  0
   13.0811  -17.5784   22.9388 O   0  0  0  0  0  0  0  0  0  0  0  0
  2  1  1  1
  3  2  1  0
  4  2  1  0
  4  5  1  1
  6  4  1  0
  7  6  2  0
  8  6  1  0
  9  8  1  0
 10  9  1  0
 10 20  1  0
 11 10  2  0
 13 12  1  0
 14 13  2  0
 15 13  1  0
 16 15  1  0
 17 16  1  0
 18 17  1  0
 19 18  1  1
 19 21  1  0
 20 19  1  0
 21 23  2  0
 21 22  1  0
M  END
$$$$
