EVA.pdb
     RDKit          3D

 22 21  0  0  1  0  0  0  0  0999 V2000
    8.2434  -14.3409   20.6887 N   0  0  0  0  0  0  0  0  0  0  0  0
    7.8585  -15.1738   21.8062 C   0  0  1  0  0  0  0  0  0  0  0  0
    8.3965  -16.5615   21.6876 C   0  0  0  0  0  0  0  0  0  0  0  0
    7.9441  -17.2876   20.4767 C   0  0  0  0  0  0  0  0  0  0  0  0
    8.3578  -18.6903   20.4847 C   0  0  0  0  0  0  0  0  0  0  0  0
    8.9779  -19.2801   21.3904 O   0  0  0  0  0  0  0  0  0  0  0  0
    8.3439  -14.6254   23.0983 C   0  0  0  0  0  0  0  0  0  0  0  0
    9.5331  -14.2150   23.1274 O   0  0  0  0  0  0  0  0  0  0  0  0
    8.0236  -19.4554   19.3569 O   0  0  0  0  0  0  0  0  0  0  0  0
    6.3390  -12.1619   25.5349 C   0  0  0  0  0  0  0  0  0  0  0  0
    7.0013  -13.2723   26.3052 C   0  0  2  0  0  0  0  0  0  0  0  0
    7.5468  -12.7139   27.5817 C   0  0  0  0  0  0  0  0  0  0  0  0
    8.0810  -13.9545   25.4805 C   0  0  2  0  0  0  0  0  0  0  0  0
    7.5520  -14.5441   24.2706 N   0  0  0  0  0  0  0  0  0  0  0  0
    8.7782  -14.9506   26.3299 C   0  0  0  0  0  0  0  0  0  0  0  0
    8.0651  -15.9061   26.7740 O   0  0  0  0  0  0  0  0  0  0  0  0
   12.3303  -15.6460   27.3215 C   0  0  0  0  0  0  0  0  0  0  0  0
   10.8395  -15.8533   27.4592 C   0  0  2  0  0  0  0  0  0  0  0  0
   10.1583  -14.8933   26.6618 N   0  0  0  0  0  0  0  0  0  0  0  0
   10.4458  -15.8628   28.8810 C   0  0  0  0  0  0  0  0  0  0  0  0
    9.9713  -14.7972   29.3542 O   0  0  0  0  0  0  0  0  0  0  0  0
   10.5573  -16.9424   29.7256 O   0  0  0  0  0  0  0  0  0  0  0  0
  2  1  1  6
  2  7  1  0
  2  3  1  0
  4  5  1  0
  4  3  1  0
  5  9  1  0
  6  5  2  0
  7 14  1  0
  7  8  2  0
 11 10  1  6
 11 13  1  0
 12 11  1  0
 13 15  1  0
 13 14  1  6
 15 16  2  0
 15 19  1  0
 18 17  1  1
 19 18  1  0
 20 18  1  0
 20 22  1  0
 21 20  2  0
M  END
$$$$
