EVA.pdb
     RDKit          3D

 22 21  0  0  1  0  0  0  0  0999 V2000
    7.6203  -16.2067   21.3804 N   0  0  0  0  0  0  0  0  0  0  0  0
    7.0132  -16.2707   22.6910 C   0  0  1  0  0  0  0  0  0  0  0  0
    7.0170  -17.6560   23.2479 C   0  0  0  0  0  0  0  0  0  0  0  0
    6.3716  -18.6646   22.3735 C   0  0  0  0  0  0  0  0  0  0  0  0
    6.3316  -19.9894   22.9915 C   0  0  0  0  0  0  0  0  0  0  0  0
    5.3206  -20.5907   23.4026 O   0  0  0  0  0  0  0  0  0  0  0  0
    7.7172  -15.4037   23.6702 C   0  0  0  0  0  0  0  0  0  0  0  0
    8.9723  -15.3632   23.5896 O   0  0  0  0  0  0  0  0  0  0  0  0
    7.5572  -20.6566   23.1388 O   0  0  0  0  0  0  0  0  0  0  0  0
    6.1312  -12.0280   25.5492 C   0  0  0  0  0  0  0  0  0  0  0  0
    6.9349  -12.9368   26.4397 C   0  0  2  0  0  0  0  0  0  0  0  0
    7.7349  -12.0989   27.3866 C   0  0  0  0  0  0  0  0  0  0  0  0
    7.8180  -13.8717   25.6289 C   0  0  2  0  0  0  0  0  0  0  0  0
    7.0599  -14.6392   24.6658 N   0  0  0  0  0  0  0  0  0  0  0  0
    8.5824  -14.7387   26.5584 C   0  0  0  0  0  0  0  0  0  0  0  0
    7.8949  -15.5228   27.2872 O   0  0  0  0  0  0  0  0  0  0  0  0
   12.1862  -15.6111   27.0841 C   0  0  0  0  0  0  0  0  0  0  0  0
   10.7422  -15.5933   27.5300 C   0  0  2  0  0  0  0  0  0  0  0  0
    9.9984  -14.7376   26.6720 N   0  0  0  0  0  0  0  0  0  0  0  0
   10.6458  -15.2611   28.9642 C   0  0  0  0  0  0  0  0  0  0  0  0
   11.0862  -16.1100   29.7827 O   0  0  0  0  0  0  0  0  0  0  0  0
   10.1135  -14.0997   29.4733 O   0  0  0  0  0  0  0  0  0  0  0  0
  2  1  1  6
  2  7  1  0
  2  3  1  0
  4  5  1  0
  4  3  1  0
  5  9  1  0
  6  5  2  0
  7 14  1  0
  7  8  2  0
 11 10  1  6
 11 13  1  0
 12 11  1  0
 13 15  1  0
 13 14  1  6
 15 16  2  0
 15 19  1  0
 18 17  1  6
 19 18  1  0
 20 18  1  0
 20 22  1  0
 21 20  2  0
M  END
$$$$
