EVA.pdb
     RDKit          3D

 22 21  0  0  1  0  0  0  0  0999 V2000
    9.3659  -15.2137   21.0182 N   0  0  0  0  0  0  0  0  0  0  0  0
    8.4807  -15.6834   22.0604 C   0  0  1  0  0  0  0  0  0  0  0  0
    8.6042  -17.1543   22.2856 C   0  0  0  0  0  0  0  0  0  0  0  0
    8.1698  -17.9839   21.1362 C   0  0  0  0  0  0  0  0  0  0  0  0
    8.3544  -19.4135   21.3835 C   0  0  0  0  0  0  0  0  0  0  0  0
    8.7088  -19.9461   22.4529 O   0  0  0  0  0  0  0  0  0  0  0  0
    8.7530  -15.0176   23.3597 C   0  0  0  0  0  0  0  0  0  0  0  0
    9.9616  -14.8774   23.6810 O   0  0  0  0  0  0  0  0  0  0  0  0
    8.1079  -20.2792   20.3071 O   0  0  0  0  0  0  0  0  0  0  0  0
    6.5235  -12.0156   25.2014 C   0  0  0  0  0  0  0  0  0  0  0  0
    6.9282  -13.1562   26.0960 C   0  0  2  0  0  0  0  0  0  0  0  0
    7.2617  -12.6118   27.4492 C   0  0  0  0  0  0  0  0  0  0  0  0
    8.0853  -13.9443   25.5036 C   0  0  2  0  0  0  0  0  0  0  0  0
    7.7426  -14.5444   24.2333 N   0  0  0  0  0  0  0  0  0  0  0  0
    8.5388  -14.9512   26.4938 C   0  0  0  0  0  0  0  0  0  0  0  0
    7.6519  -15.7578   26.9198 O   0  0  0  0  0  0  0  0  0  0  0  0
   11.6216  -16.5932   27.5181 C   0  0  0  0  0  0  0  0  0  0  0  0
   10.3062  -15.9905   27.9551 C   0  0  2  0  0  0  0  0  0  0  0  0
    9.8712  -15.0568   26.9750 N   0  0  0  0  0  0  0  0  0  0  0  0
   10.4141  -15.4433   29.3209 C   0  0  0  0  0  0  0  0  0  0  0  0
   10.6947  -16.2513   30.2444 O   0  0  0  0  0  0  0  0  0  0  0  0
   10.2322  -14.1232   29.6610 O   0  0  0  0  0  0  0  0  0  0  0  0
  2  1  1  6
  2  7  1  0
  2  3  1  0
  4  5  1  0
  4  3  1  0
  5  9  1  0
  6  5  2  0
  7 14  1  0
  7  8  2  0
 11 10  1  6
 11 13  1  0
 12 11  1  0
 13 15  1  0
 13 14  1  6
 15 16  2  0
 15 19  1  0
 18 17  1  6
 19 18  1  0
 20 18  1  0
 20 22  1  0
 21 20  2  0
M  END
$$$$
