EVA.pdb
     RDKit          3D

 22 21  0  0  1  0  0  0  0  0999 V2000
    8.9196  -15.3056   20.9363 N   0  0  0  0  0  0  0  0  0  0  0  0
    8.0534  -15.6523   22.0407 C   0  0  1  0  0  0  0  0  0  0  0  0
    8.0430  -17.1208   22.3104 C   0  0  0  0  0  0  0  0  0  0  0  0
    8.2316  -17.9619   21.1042 C   0  0  0  0  0  0  0  0  0  0  0  0
    8.1903  -19.3908   21.4129 C   0  0  0  0  0  0  0  0  0  0  0  0
    9.1188  -20.2106   21.2772 O   0  0  0  0  0  0  0  0  0  0  0  0
    8.4647  -14.9793   23.2992 C   0  0  0  0  0  0  0  0  0  0  0  0
    9.7012  -14.8915   23.5156 O   0  0  0  0  0  0  0  0  0  0  0  0
    6.9808  -19.8954   21.9145 O   0  0  0  0  0  0  0  0  0  0  0  0
    6.4659  -11.9158   25.3706 C   0  0  0  0  0  0  0  0  0  0  0  0
    6.9432  -13.0782   26.1988 C   0  0  2  0  0  0  0  0  0  0  0  0
    7.4126  -12.5650   27.5236 C   0  0  0  0  0  0  0  0  0  0  0  0
    8.0287  -13.8641   25.4810 C   0  0  2  0  0  0  0  0  0  0  0  0
    7.5544  -14.4448   24.2445 N   0  0  0  0  0  0  0  0  0  0  0  0
    8.5744  -14.8868   26.4063 C   0  0  0  0  0  0  0  0  0  0  0  0
    7.7479  -15.7547   26.8334 O   0  0  0  0  0  0  0  0  0  0  0  0
   11.8856  -16.2004   27.3899 C   0  0  0  0  0  0  0  0  0  0  0  0
   10.4516  -15.8890   27.7520 C   0  0  2  0  0  0  0  0  0  0  0  0
    9.9303  -14.9441   26.8263 N   0  0  0  0  0  0  0  0  0  0  0  0
   10.3495  -15.4846   29.1671 C   0  0  0  0  0  0  0  0  0  0  0  0
   10.6556  -16.3434   30.0349 O   0  0  0  0  0  0  0  0  0  0  0  0
    9.9469  -14.2460   29.6089 O   0  0  0  0  0  0  0  0  0  0  0  0
  2  1  1  6
  2  7  1  0
  2  3  1  0
  4  5  1  0
  4  3  1  0
  5  9  1  0
  6  5  2  0
  7 14  1  0
  7  8  2  0
 11 10  1  6
 11 13  1  0
 12 11  1  0
 13 15  1  0
 13 14  1  6
 15 16  2  0
 15 19  1  0
 18 17  1  6
 19 18  1  0
 20 18  1  0
 20 22  1  0
 21 20  2  0
M  END
$$$$
