EVA.pdb
     RDKit          3D

 22 21  0  0  1  0  0  0  0  0999 V2000
    8.0026  -15.2493   21.0265 N   0  0  0  0  0  0  0  0  0  0  0  0
    7.2306  -15.4240   22.2363 C   0  0  1  0  0  0  0  0  0  0  0  0
    7.0233  -16.8643   22.5707 C   0  0  0  0  0  0  0  0  0  0  0  0
    6.2876  -17.6291   21.5353 C   0  0  0  0  0  0  0  0  0  0  0  0
    6.0235  -19.0072   21.9473 C   0  0  0  0  0  0  0  0  0  0  0  0
    6.3142  -19.5276   23.0416 O   0  0  0  0  0  0  0  0  0  0  0  0
    7.8886  -14.7931   23.4089 C   0  0  0  0  0  0  0  0  0  0  0  0
    9.1467  -14.8103   23.4284 O   0  0  0  0  0  0  0  0  0  0  0  0
    5.3753  -19.8332   21.0164 O   0  0  0  0  0  0  0  0  0  0  0  0
    6.4317  -11.6198   25.6804 C   0  0  0  0  0  0  0  0  0  0  0  0
    7.0082  -12.7592   26.4769 C   0  0  2  0  0  0  0  0  0  0  0  0
    7.7510  -12.1999   27.6492 C   0  0  0  0  0  0  0  0  0  0  0  0
    7.8949  -13.6461   25.6176 C   0  0  2  0  0  0  0  0  0  0  0  0
    7.1853  -14.1878   24.4799 N   0  0  0  0  0  0  0  0  0  0  0  0
    8.4819  -14.7093   26.4690 C   0  0  0  0  0  0  0  0  0  0  0  0
    7.6575  -15.5123   27.0115 O   0  0  0  0  0  0  0  0  0  0  0  0
   11.7655  -16.3092   26.9713 C   0  0  0  0  0  0  0  0  0  0  0  0
   10.4433  -15.8600   27.5496 C   0  0  2  0  0  0  0  0  0  0  0  0
    9.8739  -14.8710   26.7015 N   0  0  0  0  0  0  0  0  0  0  0  0
   10.6059  -15.4449   28.9559 C   0  0  0  0  0  0  0  0  0  0  0  0
   11.0071  -16.3163   29.7708 O   0  0  0  0  0  0  0  0  0  0  0  0
   10.3536  -14.1836   29.4427 O   0  0  0  0  0  0  0  0  0  0  0  0
  2  1  1  6
  2  7  1  0
  2  3  1  0
  4  5  1  0
  4  3  1  0
  5  9  1  0
  6  5  2  0
  7 14  1  0
  7  8  2  0
 11 10  1  6
 11 13  1  0
 12 11  1  0
 13 15  1  0
 13 14  1  6
 15 16  2  0
 15 19  1  0
 18 17  1  6
 19 18  1  0
 20 18  1  0
 20 22  1  0
 21 20  2  0
M  END
$$$$
