EVA.pdb
     RDKit          3D

 22 21  0  0  1  0  0  0  0  0999 V2000
    8.7217  -15.1531   20.7261 N   0  0  0  0  0  0  0  0  0  0  0  0
    7.9564  -15.6122   21.8636 C   0  0  1  0  0  0  0  0  0  0  0  0
    8.0361  -17.0930   22.0369 C   0  0  0  0  0  0  0  0  0  0  0  0
    7.8079  -17.8642   20.7914 C   0  0  0  0  0  0  0  0  0  0  0  0
    7.7504  -19.3051   21.0344 C   0  0  0  0  0  0  0  0  0  0  0  0
    7.0675  -19.8896   21.8974 O   0  0  0  0  0  0  0  0  0  0  0  0
    8.4262  -14.9974   23.1314 C   0  0  0  0  0  0  0  0  0  0  0  0
    9.6514  -14.7201   23.2054 O   0  0  0  0  0  0  0  0  0  0  0  0
    8.5456  -20.1180   20.2123 O   0  0  0  0  0  0  0  0  0  0  0  0
    6.5305  -12.1806   25.2970 C   0  0  0  0  0  0  0  0  0  0  0  0
    7.0713  -13.2816   26.1690 C   0  0  2  0  0  0  0  0  0  0  0  0
    7.6231  -12.6769   27.4214 C   0  0  0  0  0  0  0  0  0  0  0  0
    8.1132  -14.1109   25.4358 C   0  0  2  0  0  0  0  0  0  0  0  0
    7.5822  -14.7153   24.2341 N   0  0  0  0  0  0  0  0  0  0  0  0
    8.6704  -15.1192   26.3700 C   0  0  0  0  0  0  0  0  0  0  0  0
    7.8271  -15.8849   26.9369 O   0  0  0  0  0  0  0  0  0  0  0  0
   12.0799  -16.4046   27.2242 C   0  0  0  0  0  0  0  0  0  0  0  0
   10.6022  -16.2638   27.5089 C   0  0  2  0  0  0  0  0  0  0  0  0
   10.0542  -15.2682   26.6545 N   0  0  0  0  0  0  0  0  0  0  0  0
   10.3703  -16.0350   28.9478 C   0  0  0  0  0  0  0  0  0  0  0  0
   10.1235  -14.8553   29.3109 O   0  0  0  0  0  0  0  0  0  0  0  0
   10.4029  -17.0083   29.9190 O   0  0  0  0  0  0  0  0  0  0  0  0
  2  1  1  6
  2  7  1  0
  2  3  1  0
  4  5  1  0
  4  3  1  0
  5  9  1  0
  6  5  2  0
  7 14  1  0
  7  8  2  0
 11 10  1  6
 11 13  1  0
 12 11  1  0
 13 15  1  0
 13 14  1  6
 15 16  2  0
 15 19  1  0
 18 17  1  1
 19 18  1  0
 20 18  1  0
 20 22  1  0
 21 20  2  0
M  END
$$$$
