QFI.pdb
     RDKit          3D

 29 29  0  0  1  0  0  0  0  0999 V2000
   11.7249  -21.0652   21.7822 N   0  0  0  0  0  0  0  0  0  0  0  0
   12.6982  -20.2925   21.0879 C   0  0  0  0  0  0  0  0  0  0  0  0
   13.8774  -20.7386   20.9009 O   0  0  0  0  0  0  0  0  0  0  0  0
   12.3780  -18.9350   20.5536 C   0  0  0  0  0  0  0  0  0  0  0  0
   10.9241  -18.6216   20.7440 C   0  0  0  0  0  0  0  0  0  0  0  0
   10.6937  -17.1660   20.3474 C   0  0  2  0  0  0  0  0  0  0  0  0
   11.9143  -16.7021   19.7426 N   0  0  0  0  0  0  0  0  0  0  0  0
   10.3911  -16.3686   21.5363 C   0  0  0  0  0  0  0  0  0  0  0  0
   11.2612  -15.5875   21.9973 O   0  0  0  0  0  0  0  0  0  0  0  0
    9.1513  -16.4119   22.2291 N   0  0  0  0  0  0  0  0  0  0  0  0
    8.8284  -15.5885   23.3807 C   0  0  1  0  0  0  0  0  0  0  0  0
    7.4052  -15.1202   23.3540 C   0  0  0  0  0  0  0  0  0  0  0  0
    7.0483  -14.1518   24.3931 C   0  0  0  0  0  0  0  0  0  0  0  0
    6.2877  -14.5464   25.4710 C   0  0  0  0  0  0  0  0  0  0  0  0
    5.9357  -13.6323   26.4711 C   0  0  0  0  0  0  0  0  0  0  0  0
    6.3493  -12.3251   26.3840 C   0  0  0  0  0  0  0  0  0  0  0  0
    7.1071  -11.9186   25.3159 C   0  0  0  0  0  0  0  0  0  0  0  0
    7.4410  -12.8414   24.3418 C   0  0  0  0  0  0  0  0  0  0  0  0
    9.3019  -16.1521   24.6398 C   0  0  0  0  0  0  0  0  0  0  0  0
    9.5390  -17.3989   24.7117 O   0  0  0  0  0  0  0  0  0  0  0  0
    9.9976  -12.8962   29.2175 C   0  0  0  0  0  0  0  0  0  0  0  0
   10.3828  -13.7945   28.0450 C   0  0  0  0  0  0  0  0  0  0  0  0
    9.9177  -15.2066   28.2477 C   0  0  2  0  0  0  0  0  0  0  0  0
   10.7755  -15.7683   29.3934 C   0  0  0  0  0  0  0  0  0  0  0  0
   10.0965  -16.0273   27.0415 C   0  0  2  0  0  0  0  0  0  0  0  0
    9.5406  -15.4507   25.8325 N   0  0  0  0  0  0  0  0  0  0  0  0
    9.4826  -17.3569   27.1916 C   0  0  0  0  0  0  0  0  0  0  0  0
   10.1763  -18.5002   27.5925 O   0  0  0  0  0  0  0  0  0  0  0  0
    8.2517  -17.5614   26.9581 O   0  0  0  0  0  0  0  0  0  0  0  0
  2  1  1  0
  3  2  2  0
  4  2  1  0
  5  6  1  0
  5  4  1  0
  6  7  1  1
  8  6  1  0
  8  9  2  0
 10  8  1  0
 11 10  1  0
 11 12  1  1
 13 12  1  0
 13 18  2  0
 14 13  1  0
 15 14  2  0
 15 16  1  0
 16 17  2  0
 17 18  1  0
 19 11  1  0
 20 19  2  0
 21 22  1  0
 22 23  1  0
 23 25  1  0
 23 24  1  1
 25 26  1  6
 26 19  1  0
 27 25  1  0
 28 27  1  0
 29 27  2  0
M  END
$$$$
