QFI.pdb
     RDKit          3D

 29 29  0  0  1  0  0  0  0  0999 V2000
   10.1867  -21.3148   21.5291 N   0  0  0  0  0  0  0  0  0  0  0  0
   10.9559  -20.9689   20.3823 C   0  0  0  0  0  0  0  0  0  0  0  0
   11.2038  -21.8296   19.4756 O   0  0  0  0  0  0  0  0  0  0  0  0
   11.5004  -19.5905   20.1968 C   0  0  0  0  0  0  0  0  0  0  0  0
   11.0709  -18.6970   21.3217 C   0  0  0  0  0  0  0  0  0  0  0  0
   10.7036  -17.3362   20.7366 C   0  0  2  0  0  0  0  0  0  0  0  0
   11.8694  -16.8531   20.0448 N   0  0  0  0  0  0  0  0  0  0  0  0
   10.3434  -16.4128   21.8129 C   0  0  0  0  0  0  0  0  0  0  0  0
   11.2143  -15.6378   22.2827 O   0  0  0  0  0  0  0  0  0  0  0  0
    9.0453  -16.3237   22.3838 N   0  0  0  0  0  0  0  0  0  0  0  0
    8.7175  -15.5229   23.5499 C   0  0  1  0  0  0  0  0  0  0  0  0
    7.3111  -15.0081   23.4995 C   0  0  0  0  0  0  0  0  0  0  0  0
    6.9321  -14.1219   24.6021 C   0  0  0  0  0  0  0  0  0  0  0  0
    6.1598  -14.6006   25.6368 C   0  0  0  0  0  0  0  0  0  0  0  0
    5.7866  -13.7656   26.6966 C   0  0  0  0  0  0  0  0  0  0  0  0
    6.1910  -12.4528   26.7126 C   0  0  0  0  0  0  0  0  0  0  0  0
    6.9603  -11.9629   25.6886 C   0  0  0  0  0  0  0  0  0  0  0  0
    7.3151  -12.8086   24.6538 C   0  0  0  0  0  0  0  0  0  0  0  0
    9.1386  -16.1367   24.8041 C   0  0  0  0  0  0  0  0  0  0  0  0
    9.3197  -17.3941   24.8499 O   0  0  0  0  0  0  0  0  0  0  0  0
   10.2689  -12.8396   29.1824 C   0  0  0  0  0  0  0  0  0  0  0  0
   10.5903  -13.8202   28.0575 C   0  0  0  0  0  0  0  0  0  0  0  0
   10.0811  -15.1994   28.3573 C   0  0  2  0  0  0  0  0  0  0  0  0
   11.0476  -15.7837   29.4006 C   0  0  0  0  0  0  0  0  0  0  0  0
   10.0604  -16.0543   27.1618 C   0  0  2  0  0  0  0  0  0  0  0  0
    9.3816  -15.4752   26.0185 N   0  0  0  0  0  0  0  0  0  0  0  0
    9.4057  -17.3458   27.4272 C   0  0  0  0  0  0  0  0  0  0  0  0
   10.0830  -18.5035   27.8146 O   0  0  0  0  0  0  0  0  0  0  0  0
    8.1506  -17.5009   27.3161 O   0  0  0  0  0  0  0  0  0  0  0  0
  2  1  1  0
  3  2  2  0
  4  2  1  0
  5  6  1  0
  5  4  1  0
  6  7  1  1
  8  6  1  0
  8  9  2  0
 10  8  1  0
 11 10  1  0
 11 12  1  1
 13 12  1  0
 13 18  2  0
 14 13  1  0
 15 14  2  0
 15 16  1  0
 16 17  2  0
 17 18  1  0
 19 11  1  0
 20 19  2  0
 21 22  1  0
 22 23  1  0
 23 25  1  0
 23 24  1  1
 25 26  1  6
 26 19  1  0
 27 25  1  0
 28 27  1  0
 29 27  2  0
M  END
$$$$
