QFI.pdb
     RDKit          3D

 29 29  0  0  1  0  0  0  0  0999 V2000
   10.6273  -16.9860   17.0475 N   0  0  0  0  0  0  0  0  0  0  0  0
   11.0954  -18.2694   17.4476 C   0  0  0  0  0  0  0  0  0  0  0  0
   11.1492  -19.2352   16.6177 O   0  0  0  0  0  0  0  0  0  0  0  0
   11.5397  -18.5341   18.8487 C   0  0  0  0  0  0  0  0  0  0  0  0
   11.2362  -17.3596   19.7301 C   0  0  0  0  0  0  0  0  0  0  0  0
   10.8411  -17.8858   21.1071 C   0  0  2  0  0  0  0  0  0  0  0  0
    9.6947  -18.7341   20.9144 N   0  0  0  0  0  0  0  0  0  0  0  0
   10.4934  -16.7685   21.9855 C   0  0  0  0  0  0  0  0  0  0  0  0
   11.3596  -15.8986   22.2551 O   0  0  0  0  0  0  0  0  0  0  0  0
    9.2128  -16.5876   22.5739 N   0  0  0  0  0  0  0  0  0  0  0  0
    8.8834  -15.5236   23.5054 C   0  0  1  0  0  0  0  0  0  0  0  0
    7.4051  -15.4025   23.7188 C   0  0  0  0  0  0  0  0  0  0  0  0
    6.9890  -14.2980   24.5858 C   0  0  0  0  0  0  0  0  0  0  0  0
    7.2606  -12.9975   24.2234 C   0  0  0  0  0  0  0  0  0  0  0  0
    6.8720  -11.9308   25.0425 C   0  0  0  0  0  0  0  0  0  0  0  0
    6.2121  -12.1750   26.2224 C   0  0  0  0  0  0  0  0  0  0  0  0
    5.9353  -13.4652   26.5954 C   0  0  0  0  0  0  0  0  0  0  0  0
    6.3300  -14.5007   25.7684 C   0  0  0  0  0  0  0  0  0  0  0  0
    9.7127  -15.5344   24.7052 C   0  0  0  0  0  0  0  0  0  0  0  0
   10.7516  -14.8032   24.7484 O   0  0  0  0  0  0  0  0  0  0  0  0
   10.0045  -12.8695   28.6579 C   0  0  0  0  0  0  0  0  0  0  0  0
   10.3932  -13.9123   27.6130 C   0  0  0  0  0  0  0  0  0  0  0  0
   10.0376  -15.3021   28.0528 C   0  0  2  0  0  0  0  0  0  0  0  0
   10.8670  -15.5640   29.3206 C   0  0  0  0  0  0  0  0  0  0  0  0
   10.3596  -16.3065   27.0291 C   0  0  2  0  0  0  0  0  0  0  0  0
    9.4885  -16.2861   25.8698 N   0  0  0  0  0  0  0  0  0  0  0  0
   10.3027  -17.6740   27.5711 C   0  0  0  0  0  0  0  0  0  0  0  0
   11.4029  -18.3574   28.0924 O   0  0  0  0  0  0  0  0  0  0  0  0
    9.2247  -18.3437   27.5995 O   0  0  0  0  0  0  0  0  0  0  0  0
  2  1  1  0
  3  2  2  0
  4  2  1  0
  5  6  1  0
  5  4  1  0
  6  7  1  6
  8  6  1  0
  8  9  2  0
 10  8  1  0
 11 10  1  0
 11 12  1  1
 13 12  1  0
 13 18  2  0
 14 13  1  0
 15 14  2  0
 15 16  1  0
 16 17  2  0
 17 18  1  0
 19 11  1  0
 20 19  2  0
 21 22  1  0
 22 23  1  0
 23 25  1  0
 23 24  1  1
 25 26  1  6
 26 19  1  0
 27 25  1  0
 28 27  1  0
 29 27  2  0
M  END
$$$$
