QFI.pdb
     RDKit          3D

 29 29  0  0  1  0  0  0  0  0999 V2000
   13.3715  -19.8042   18.5276 N   0  0  0  0  0  0  0  0  0  0  0  0
   13.3735  -18.3820   18.4684 C   0  0  0  0  0  0  0  0  0  0  0  0
   14.4618  -17.7241   18.5538 O   0  0  0  0  0  0  0  0  0  0  0  0
   12.1068  -17.6077   18.3046 C   0  0  0  0  0  0  0  0  0  0  0  0
   11.8822  -16.7070   19.4822 C   0  0  0  0  0  0  0  0  0  0  0  0
   11.1147  -17.4910   20.5431 C   0  0  2  0  0  0  0  0  0  0  0  0
    9.9304  -18.0027   19.9056 N   0  0  0  0  0  0  0  0  0  0  0  0
   10.7444  -16.6039   21.6462 C   0  0  0  0  0  0  0  0  0  0  0  0
   11.6275  -15.9034   22.2021 O   0  0  0  0  0  0  0  0  0  0  0  0
    9.4229  -16.4710   22.1510 N   0  0  0  0  0  0  0  0  0  0  0  0
    9.0565  -15.6230   23.2713 C   0  0  1  0  0  0  0  0  0  0  0  0
    7.6518  -15.1145   23.1541 C   0  0  0  0  0  0  0  0  0  0  0  0
    7.2821  -14.0768   24.1192 C   0  0  0  0  0  0  0  0  0  0  0  0
    6.5341  -14.4024   25.2286 C   0  0  0  0  0  0  0  0  0  0  0  0
    6.1701  -13.4217   26.1589 C   0  0  0  0  0  0  0  0  0  0  0  0
    6.5592  -12.1177   25.9708 C   0  0  0  0  0  0  0  0  0  0  0  0
    7.3043  -11.7795   24.8705 C   0  0  0  0  0  0  0  0  0  0  0  0
    7.6505  -12.7672   23.9668 C   0  0  0  0  0  0  0  0  0  0  0  0
    9.4375  -16.1827   24.5631 C   0  0  0  0  0  0  0  0  0  0  0  0
    9.3665  -17.4395   24.7405 O   0  0  0  0  0  0  0  0  0  0  0  0
   10.0499  -13.4787   29.6358 C   0  0  0  0  0  0  0  0  0  0  0  0
    9.6629  -14.4937   28.5633 C   0  0  0  0  0  0  0  0  0  0  0  0
   10.8688  -15.0990   27.9069 C   0  0  2  0  0  0  0  0  0  0  0  0
   11.6435  -13.9225   27.2907 C   0  0  0  0  0  0  0  0  0  0  0  0
   10.5039  -16.0611   26.8572 C   0  0  2  0  0  0  0  0  0  0  0  0
    9.8966  -15.4683   25.6813 N   0  0  0  0  0  0  0  0  0  0  0  0
    9.5568  -17.0736   27.3521 C   0  0  0  0  0  0  0  0  0  0  0  0
    9.8869  -18.0761   28.2660 O   0  0  0  0  0  0  0  0  0  0  0  0
    8.3465  -17.1082   26.9704 O   0  0  0  0  0  0  0  0  0  0  0  0
  2  1  1  0
  3  2  2  0
  4  2  1  0
  5  6  1  0
  5  4  1  0
  6  7  1  6
  8  6  1  0
  8  9  2  0
 10  8  1  0
 11 10  1  0
 11 12  1  1
 13 12  1  0
 13 18  2  0
 14 13  1  0
 15 14  2  0
 15 16  1  0
 16 17  2  0
 17 18  1  0
 19 11  1  0
 20 19  2  0
 21 22  1  0
 22 23  1  0
 23 25  1  0
 23 24  1  6
 25 26  1  6
 26 19  1  0
 27 25  1  0
 28 27  1  0
 29 27  2  0
M  END
$$$$
