QFI.pdb
     RDKit          3D

 29 29  0  0  1  0  0  0  0  0999 V2000
   14.7881  -19.8480   19.9348 N   0  0  0  0  0  0  0  0  0  0  0  0
   13.6349  -19.1850   19.4282 C   0  0  0  0  0  0  0  0  0  0  0  0
   13.7128  -18.4184   18.4129 O   0  0  0  0  0  0  0  0  0  0  0  0
   12.2943  -19.3602   20.0629 C   0  0  0  0  0  0  0  0  0  0  0  0
   12.0912  -18.3532   21.1551 C   0  0  0  0  0  0  0  0  0  0  0  0
   10.9041  -17.4718   20.7768 C   0  0  2  0  0  0  0  0  0  0  0  0
   11.3263  -16.6610   19.6654 N   0  0  0  0  0  0  0  0  0  0  0  0
   10.5385  -16.6178   21.9073 C   0  0  0  0  0  0  0  0  0  0  0  0
   11.3361  -15.7273   22.2954 O   0  0  0  0  0  0  0  0  0  0  0  0
    9.3139  -16.7225   22.6203 N   0  0  0  0  0  0  0  0  0  0  0  0
    8.9309  -15.8555   23.7203 C   0  0  1  0  0  0  0  0  0  0  0  0
    7.4774  -15.4944   23.6701 C   0  0  0  0  0  0  0  0  0  0  0  0
    7.0350  -14.5469   24.6954 C   0  0  0  0  0  0  0  0  0  0  0  0
    6.3760  -15.0017   25.8157 C   0  0  0  0  0  0  0  0  0  0  0  0
    5.9441  -14.1087   26.8035 C   0  0  0  0  0  0  0  0  0  0  0  0
    6.1761  -12.7621   26.6616 C   0  0  0  0  0  0  0  0  0  0  0  0
    6.8311  -12.2954   25.5509 C   0  0  0  0  0  0  0  0  0  0  0  0
    7.2472  -13.1986   24.5901 C   0  0  0  0  0  0  0  0  0  0  0  0
    9.4430  -16.3048   25.0099 C   0  0  0  0  0  0  0  0  0  0  0  0
    9.6823  -17.5406   25.1865 O   0  0  0  0  0  0  0  0  0  0  0  0
   12.0366  -13.6352   27.9394 C   0  0  0  0  0  0  0  0  0  0  0  0
   10.5328  -13.6692   28.1994 C   0  0  0  0  0  0  0  0  0  0  0  0
   10.0532  -15.0545   28.5194 C   0  0  2  0  0  0  0  0  0  0  0  0
   10.8924  -15.5198   29.7207 C   0  0  0  0  0  0  0  0  0  0  0  0
   10.2393  -15.9794   27.3922 C   0  0  2  0  0  0  0  0  0  0  0  0
    9.7183  -15.4995   26.1267 N   0  0  0  0  0  0  0  0  0  0  0  0
    9.5966  -17.2798   27.6431 C   0  0  0  0  0  0  0  0  0  0  0  0
   10.2585  -18.3948   28.1608 O   0  0  0  0  0  0  0  0  0  0  0  0
    8.3680  -17.4834   27.3971 O   0  0  0  0  0  0  0  0  0  0  0  0
  2  1  1  0
  3  2  2  0
  4  2  1  0
  5  6  1  0
  5  4  1  0
  6  7  1  6
  8  6  1  0
  8  9  2  0
 10  8  1  0
 11 10  1  0
 11 12  1  1
 13 12  1  0
 13 18  2  0
 14 13  1  0
 15 14  2  0
 15 16  1  0
 16 17  2  0
 17 18  1  0
 19 11  1  0
 20 19  2  0
 21 22  1  0
 22 23  1  0
 23 25  1  0
 23 24  1  1
 25 26  1  6
 26 19  1  0
 27 25  1  0
 28 27  1  0
 29 27  2  0
M  END
$$$$
