QFI.pdb
     RDKit          3D

 29 29  0  0  1  0  0  0  0  0999 V2000
   10.4705  -21.8068   20.9479 N   0  0  0  0  0  0  0  0  0  0  0  0
   11.6912  -21.0775   21.0153 C   0  0  0  0  0  0  0  0  0  0  0  0
   12.6867  -21.5254   21.6731 O   0  0  0  0  0  0  0  0  0  0  0  0
   11.8532  -19.7649   20.3212 C   0  0  0  0  0  0  0  0  0  0  0  0
   11.7558  -18.6338   21.3007 C   0  0  0  0  0  0  0  0  0  0  0  0
   10.9375  -17.5165   20.6596 C   0  0  2  0  0  0  0  0  0  0  0  0
   11.7968  -16.8677   19.7048 N   0  0  0  0  0  0  0  0  0  0  0  0
   10.5154  -16.5593   21.6826 C   0  0  0  0  0  0  0  0  0  0  0  0
   11.3204  -15.6789   22.0781 O   0  0  0  0  0  0  0  0  0  0  0  0
    9.2262  -16.5500   22.2799 N   0  0  0  0  0  0  0  0  0  0  0  0
    8.8462  -15.6979   23.3926 C   0  0  1  0  0  0  0  0  0  0  0  0
    7.4068  -15.2880   23.3191 C   0  0  0  0  0  0  0  0  0  0  0  0
    6.9993  -14.2673   24.2871 C   0  0  0  0  0  0  0  0  0  0  0  0
    7.5154  -12.9933   24.2037 C   0  0  0  0  0  0  0  0  0  0  0  0
    7.1383  -12.0072   25.1230 C   0  0  0  0  0  0  0  0  0  0  0  0
    6.2441  -12.3050   26.1224 C   0  0  0  0  0  0  0  0  0  0  0  0
    5.7223  -13.5696   26.2172 C   0  0  0  0  0  0  0  0  0  0  0  0
    6.1114  -14.5252   25.2966 C   0  0  0  0  0  0  0  0  0  0  0  0
    9.3135  -16.1953   24.6816 C   0  0  0  0  0  0  0  0  0  0  0  0
    9.4230  -17.4490   24.8607 O   0  0  0  0  0  0  0  0  0  0  0  0
    9.9706  -12.7535   29.0853 C   0  0  0  0  0  0  0  0  0  0  0  0
   10.4267  -13.6626   27.9470 C   0  0  0  0  0  0  0  0  0  0  0  0
   10.0648  -15.0968   28.1992 C   0  0  2  0  0  0  0  0  0  0  0  0
   10.9847  -15.5654   29.3384 C   0  0  0  0  0  0  0  0  0  0  0  0
   10.2726  -15.9376   27.0116 C   0  0  2  0  0  0  0  0  0  0  0  0
    9.6757  -15.4206   25.7952 N   0  0  0  0  0  0  0  0  0  0  0  0
    9.7285  -17.2923   27.2016 C   0  0  0  0  0  0  0  0  0  0  0  0
   10.4920  -18.3980   27.5807 O   0  0  0  0  0  0  0  0  0  0  0  0
    8.4991  -17.5558   27.0265 O   0  0  0  0  0  0  0  0  0  0  0  0
  2  1  1  0
  3  2  2  0
  4  2  1  0
  5  6  1  0
  5  4  1  0
  6  7  1  6
  8  6  1  0
  8  9  2  0
 10  8  1  0
 11 10  1  0
 11 12  1  1
 13 12  1  0
 13 18  2  0
 14 13  1  0
 15 14  2  0
 15 16  1  0
 16 17  2  0
 17 18  1  0
 19 11  1  0
 20 19  2  0
 21 22  1  0
 22 23  1  0
 23 25  1  0
 23 24  1  1
 25 26  1  6
 26 19  1  0
 27 25  1  0
 28 27  1  0
 29 27  2  0
M  END
$$$$
