ERK.pdb
     RDKit          3D

 30 29  0  0  1  0  0  0  0  0999 V2000
   25.7435  -11.4477  -21.1460 N   0  0  0  0  0  0  0  0  0  0  0  0
   24.3557  -10.9781  -20.9916 C   0  0  1  0  0  0  0  0  0  0  0  0
   23.4827  -12.1560  -20.7171 C   0  0  0  0  0  0  0  0  0  0  0  0
   23.3200  -13.0656  -21.8873 C   0  0  0  0  0  0  0  0  0  0  0  0
   22.4722  -12.5754  -22.9717 C   0  0  0  0  0  0  0  0  0  0  0  0
   21.3768  -12.0218  -22.7393 O   0  0  0  0  0  0  0  0  0  0  0  0
   24.3056   -9.9704  -19.8914 C   0  0  0  0  0  0  0  0  0  0  0  0
   23.1983   -9.4445  -19.6362 O   0  0  0  0  0  0  0  0  0  0  0  0
   22.8152  -12.6864  -24.3217 O   0  0  0  0  0  0  0  0  0  0  0  0
   26.3832  -11.8694  -14.5290 N   0  0  0  0  0  0  0  0  0  0  0  0
   27.5201  -12.4808  -15.1227 C   0  0  0  0  0  0  0  0  0  0  0  0
   27.6749  -13.7516  -15.0130 N   0  0  0  0  0  0  0  0  0  0  0  0
   28.4864  -11.7201  -15.8329 N   0  0  0  0  0  0  0  0  0  0  0  0
   28.2565  -10.3084  -16.1238 C   0  0  0  0  0  0  0  0  0  0  0  0
   26.9890  -10.2102  -16.9340 C   0  0  0  0  0  0  0  0  0  0  0  0
   26.7246   -8.7605  -17.3003 C   0  0  0  0  0  0  0  0  0  0  0  0
   25.4662   -8.6257  -18.1110 C   0  0  2  0  0  0  0  0  0  0  0  0
   25.4573   -9.6054  -19.1478 N   0  0  0  0  0  0  0  0  0  0  0  0
   25.2955   -7.2420  -18.6436 C   0  0  0  0  0  0  0  0  0  0  0  0
   26.1312   -6.7382  -19.4546 O   0  0  0  0  0  0  0  0  0  0  0  0
   28.4369  -14.2879  -15.4496 N   0  0  0  0  0  0  0  0  0  0  0  0
   24.2107   -6.4411  -18.2742 C   0  0  1  0  0  0  0  0  0  0  0  0
   24.0834   -5.0391  -18.7674 C   0  0  0  0  0  0  0  0  0  0  0  0
   23.2723   -5.0373  -19.9952 C   0  0  0  0  0  0  0  0  0  0  0  0
   22.7863   -3.8613  -20.6693 C   0  0  0  0  0  0  0  0  0  0  0  0
   22.0192   -3.8589  -21.9118 C   0  0  0  0  0  0  0  0  0  0  0  0
   21.6400   -2.4748  -22.4101 N   0  0  0  0  0  0  0  0  0  0  0  0
   21.1104   -2.6314  -23.7493 C   0  0  0  0  0  0  0  0  0  0  0  0
   23.5317   -4.3245  -17.5937 O   0  0  0  0  0  0  0  0  0  0  0  0
   23.5037   -3.0821  -17.5527 O   0  0  0  0  0  0  0  0  0  0  0  0
  2  1  1  1
  2  3  1  0
  3  4  1  0
  4  5  1  0
  5  9  1  0
  6  5  2  0
  7  2  1  0
  7  8  2  0
 11 10  1  0
 11 12  2  0
 13 11  1  0
 14 13  1  0
 15 16  1  0
 15 14  1  0
 17 16  1  6
 17 18  1  0
 18  7  1  0
 19 21  1  0
 19 17  1  0
 20 19  2  0
 22 21  1  0
 22 28  1  0
 23 24  1  0
 22 23  1  6
 25 24  1  0
 26 25  1  0
 26 27  1  0
 28 30  1  0
 29 28  2  0
M  END
$$$$
