ERK.pdb
     RDKit          3D

 30 29  0  0  1  0  0  0  0  0999 V2000
   27.6703  -22.3031  -16.7537 N   0  0  0  0  0  0  0  0  0  0  0  0
   27.6885  -21.3661  -15.6170 C   0  0  1  0  0  0  0  0  0  0  0  0
   27.8499  -19.9805  -16.1451 C   0  0  0  0  0  0  0  0  0  0  0  0
   26.9242  -19.6567  -17.2681 C   0  0  0  0  0  0  0  0  0  0  0  0
   27.0103  -18.3000  -17.8036 C   0  0  0  0  0  0  0  0  0  0  0  0
   26.5073  -17.3302  -17.1980 O   0  0  0  0  0  0  0  0  0  0  0  0
   26.4268  -21.5287  -14.8359 C   0  0  0  0  0  0  0  0  0  0  0  0
   25.4025  -21.8927  -15.4573 O   0  0  0  0  0  0  0  0  0  0  0  0
   27.6481  -17.9913  -19.0079 O   0  0  0  0  0  0  0  0  0  0  0  0
   20.9875  -21.3377   -8.3182 N   0  0  0  0  0  0  0  0  0  0  0  0
   22.2204  -20.6341   -8.3801 C   0  0  0  0  0  0  0  0  0  0  0  0
   22.2151  -19.3919   -8.7083 N   0  0  0  0  0  0  0  0  0  0  0  0
   23.4550  -21.2721   -8.0878 N   0  0  0  0  0  0  0  0  0  0  0  0
   24.6394  -21.0114   -8.9000 C   0  0  0  0  0  0  0  0  0  0  0  0
   24.2931  -21.3396  -10.3300 C   0  0  0  0  0  0  0  0  0  0  0  0
   25.4824  -21.0455  -11.2270 C   0  0  0  0  0  0  0  0  0  0  0  0
   25.1717  -21.3630  -12.6628 C   0  0  2  0  0  0  0  0  0  0  0  0
   26.3656  -21.2856  -13.4396 N   0  0  0  0  0  0  0  0  0  0  0  0
   24.0917  -20.4860  -13.2032 C   0  0  0  0  0  0  0  0  0  0  0  0
   24.2387  -19.2281  -13.2809 O   0  0  0  0  0  0  0  0  0  0  0  0
   23.0583  -18.8337   -8.8993 N   0  0  0  0  0  0  0  0  0  0  0  0
   22.8734  -21.0091  -13.6468 C   0  0  1  0  0  0  0  0  0  0  0  0
   21.8200  -20.1265  -14.2268 C   0  0  0  0  0  0  0  0  0  0  0  0
   21.6749  -20.4346  -15.6584 C   0  0  0  0  0  0  0  0  0  0  0  0
   20.8214  -19.7287  -16.5787 C   0  0  0  0  0  0  0  0  0  0  0  0
   20.6397  -20.0667  -17.9876 C   0  0  0  0  0  0  0  0  0  0  0  0
   19.7534  -19.0995  -18.7536 N   0  0  0  0  0  0  0  0  0  0  0  0
   19.6210  -19.6144  -20.1011 C   0  0  0  0  0  0  0  0  0  0  0  0
   20.6508  -20.3920  -13.3579 O   0  0  0  0  0  0  0  0  0  0  0  0
   20.5876  -21.4208  -12.6625 O   0  0  0  0  0  0  0  0  0  0  0  0
  2  1  1  6
  2  3  1  0
  3  4  1  0
  4  5  1  0
  5  9  1  0
  6  5  2  0
  7  2  1  0
  7  8  2  0
 11 10  1  0
 11 12  2  0
 13 11  1  0
 14 13  1  0
 15 16  1  0
 15 14  1  0
 17 16  1  1
 17 18  1  0
 18  7  1  0
 19 21  1  0
 19 17  1  0
 20 19  2  0
 22 21  1  0
 22 28  1  0
 23 24  1  0
 22 23  1  1
 25 24  1  0
 26 25  1  0
 26 27  1  0
 28 30  1  0
 29 28  2  0
M  END
$$$$
