ERK.pdb
     RDKit          3D

 30 29  0  0  1  0  0  0  0  0999 V2000
   27.3255  -22.8758  -16.8205 N   0  0  0  0  0  0  0  0  0  0  0  0
   27.1862  -21.6136  -16.0735 C   0  0  1  0  0  0  0  0  0  0  0  0
   26.7374  -20.5493  -17.0173 C   0  0  0  0  0  0  0  0  0  0  0  0
   27.8006  -20.0992  -17.9607 C   0  0  0  0  0  0  0  0  0  0  0  0
   27.8706  -18.6620  -18.2148 C   0  0  0  0  0  0  0  0  0  0  0  0
   28.7461  -18.1771  -18.9622 O   0  0  0  0  0  0  0  0  0  0  0  0
   26.2207  -21.8184  -14.9536 C   0  0  0  0  0  0  0  0  0  0  0  0
   25.3951  -22.7534  -15.0630 O   0  0  0  0  0  0  0  0  0  0  0  0
   26.9824  -17.7411  -17.6531 O   0  0  0  0  0  0  0  0  0  0  0  0
   27.2049  -19.4233   -6.7418 N   0  0  0  0  0  0  0  0  0  0  0  0
   27.6656  -20.3273   -7.7365 C   0  0  0  0  0  0  0  0  0  0  0  0
   28.8760  -20.7543   -7.6804 N   0  0  0  0  0  0  0  0  0  0  0  0
   26.8195  -20.7681   -8.7885 N   0  0  0  0  0  0  0  0  0  0  0  0
   25.5537  -20.0936   -9.0592 C   0  0  0  0  0  0  0  0  0  0  0  0
   24.9511  -20.7297  -10.2860 C   0  0  0  0  0  0  0  0  0  0  0  0
   25.8703  -20.5216  -11.4765 C   0  0  0  0  0  0  0  0  0  0  0  0
   25.2868  -21.1217  -12.7248 C   0  0  2  0  0  0  0  0  0  0  0  0
   26.2190  -20.9965  -13.7973 N   0  0  0  0  0  0  0  0  0  0  0  0
   23.9610  -20.5237  -13.0598 C   0  0  0  0  0  0  0  0  0  0  0  0
   23.8549  -19.3121  -13.4217 O   0  0  0  0  0  0  0  0  0  0  0  0
   29.3213  -21.3463   -8.3947 N   0  0  0  0  0  0  0  0  0  0  0  0
   22.7801  -21.2689  -12.9903 C   0  0  2  0  0  0  0  0  0  0  0  0
   21.4685  -20.6745  -13.3796 C   0  0  0  0  0  0  0  0  0  0  0  0
   20.5917  -21.7432  -13.8840 C   0  0  0  0  0  0  0  0  0  0  0  0
   19.2219  -21.5712  -14.2936 C   0  0  0  0  0  0  0  0  0  0  0  0
   18.3448  -22.6370  -14.7700 C   0  0  0  0  0  0  0  0  0  0  0  0
   16.9376  -22.1813  -15.1163 N   0  0  0  0  0  0  0  0  0  0  0  0
   16.1783  -23.3636  -15.4683 C   0  0  0  0  0  0  0  0  0  0  0  0
   21.0414  -19.9784  -12.1445 O   0  0  0  0  0  0  0  0  0  0  0  0
   21.3673  -20.4031  -11.0222 O   0  0  0  0  0  0  0  0  0  0  0  0
  2  1  1  6
  2  3  1  0
  3  4  1  0
  4  5  1  0
  5  9  1  0
  6  5  2  0
  7  2  1  0
  7  8  2  0
 11 10  1  0
 11 12  2  0
 13 11  1  0
 14 13  1  0
 15 16  1  0
 15 14  1  0
 17 16  1  1
 17 18  1  0
 18  7  1  0
 19 21  1  0
 19 17  1  0
 20 19  2  0
 22 21  1  0
 22 28  1  0
 23 24  1  0
 22 23  1  6
 25 24  1  0
 26 25  1  0
 26 27  1  0
 28 30  1  0
 29 28  2  0
M  END
$$$$
