ERK.pdb
     RDKit          3D

 30 29  0  0  1  0  0  0  0  0999 V2000
   24.4781  -15.3248  -21.5065 N   0  0  0  0  0  0  0  0  0  0  0  0
   24.4593  -14.7274  -20.1600 C   0  0  1  0  0  0  0  0  0  0  0  0
   25.1147  -15.6732  -19.2108 C   0  0  0  0  0  0  0  0  0  0  0  0
   26.0093  -16.6637  -19.8754 C   0  0  0  0  0  0  0  0  0  0  0  0
   26.6222  -17.6644  -19.0049 C   0  0  0  0  0  0  0  0  0  0  0  0
   27.8514  -17.6659  -18.7829 O   0  0  0  0  0  0  0  0  0  0  0  0
   25.1515  -13.4057  -20.2075 C   0  0  0  0  0  0  0  0  0  0  0  0
   26.1749  -13.3121  -20.9228 O   0  0  0  0  0  0  0  0  0  0  0  0
   25.8952  -18.6739  -18.3684 O   0  0  0  0  0  0  0  0  0  0  0  0
   21.8642   -9.1624  -17.6320 N   0  0  0  0  0  0  0  0  0  0  0  0
   22.6065   -8.1243  -17.0072 C   0  0  0  0  0  0  0  0  0  0  0  0
   22.4295   -7.8962  -15.7552 N   0  0  0  0  0  0  0  0  0  0  0  0
   23.5372   -7.3358  -17.7343 N   0  0  0  0  0  0  0  0  0  0  0  0
   23.7101   -7.5228  -19.1715 C   0  0  0  0  0  0  0  0  0  0  0  0
   24.8035   -8.5414  -19.3706 C   0  0  0  0  0  0  0  0  0  0  0  0
   24.2269   -9.9418  -19.2614 C   0  0  0  0  0  0  0  0  0  0  0  0
   25.2734  -10.9837  -19.5413 C   0  0  2  0  0  0  0  0  0  0  0  0
   24.6857  -12.2819  -19.4776 N   0  0  0  0  0  0  0  0  0  0  0  0
   26.4454  -10.8517  -18.6267 C   0  0  0  0  0  0  0  0  0  0  0  0
   26.3300  -11.0263  -17.3752 O   0  0  0  0  0  0  0  0  0  0  0  0
   22.9007   -7.1513  -15.2241 N   0  0  0  0  0  0  0  0  0  0  0  0
   27.7190  -10.5308  -19.1059 C   0  0  2  0  0  0  0  0  0  0  0  0
   28.9182  -10.6089  -18.2222 C   0  0  0  0  0  0  0  0  0  0  0  0
   30.0559  -11.1158  -19.0060 C   0  0  0  0  0  0  0  0  0  0  0  0
   31.3978  -11.2833  -18.5114 C   0  0  0  0  0  0  0  0  0  0  0  0
   32.5060  -11.8661  -19.2627 C   0  0  0  0  0  0  0  0  0  0  0  0
   33.8227  -11.9053  -18.5060 N   0  0  0  0  0  0  0  0  0  0  0  0
   34.7579  -12.6638  -19.3114 C   0  0  0  0  0  0  0  0  0  0  0  0
   29.0266   -9.2316  -17.6895 O   0  0  0  0  0  0  0  0  0  0  0  0
   29.6477   -8.9964  -16.6383 O   0  0  0  0  0  0  0  0  0  0  0  0
  2  1  1  6
  2  3  1  0
  3  4  1  0
  4  5  1  0
  5  9  1  0
  6  5  2  0
  7  2  1  0
  7  8  2  0
 11 10  1  0
 11 12  2  0
 13 11  1  0
 14 13  1  0
 15 16  1  0
 15 14  1  0
 17 16  1  1
 17 18  1  0
 18  7  1  0
 19 21  1  0
 19 17  1  0
 20 19  2  0
 22 21  1  0
 22 28  1  0
 23 24  1  0
 22 23  1  6
 25 24  1  0
 26 25  1  0
 26 27  1  0
 28 30  1  0
 29 28  2  0
M  END
$$$$
