QTH.pdb
     RDKit          3D

 27 27  0  0  1  0  0  0  0  0999 V2000
   18.0621  -11.0844  -20.6490 N   0  0  0  0  0  0  0  0  0  0  0  0
   17.9175  -12.3232  -19.9782 C   0  0  0  0  0  0  0  0  0  0  0  0
   17.8488  -13.3709  -20.6844 O   0  0  0  0  0  0  0  0  0  0  0  0
   17.8487  -12.3799  -18.5197 C   0  0  0  0  0  0  0  0  0  0  0  0
   18.0344  -11.0638  -17.8716 C   0  0  0  0  0  0  0  0  0  0  0  0
   18.0303  -11.1403  -16.3826 C   0  0  2  0  0  0  0  0  0  0  0  0
   16.8535  -11.8958  -15.9268 N   0  0  0  0  0  0  0  0  0  0  0  0
   18.0034   -9.8303  -15.7067 C   0  0  0  0  0  0  0  0  0  0  0  0
   16.9397   -9.1427  -15.6723 O   0  0  0  0  0  0  0  0  0  0  0  0
   17.8961   -8.9884  -12.4996 C   0  0  0  0  0  0  0  0  0  0  0  0
   19.1477   -8.2432  -12.9076 C   0  0  1  0  0  0  0  0  0  0  0  0
   20.2496   -9.0269  -12.5856 O   0  0  0  0  0  0  0  0  0  0  0  0
   19.1321   -8.0090  -14.4020 C   0  0  2  0  0  0  0  0  0  0  0  0
   19.1405   -9.3045  -15.0849 N   0  0  0  0  0  0  0  0  0  0  0  0
   20.3359   -7.2640  -14.8137 C   0  0  0  0  0  0  0  0  0  0  0  0
   21.3618   -7.8588  -15.2730 O   0  0  0  0  0  0  0  0  0  0  0  0
   20.4113   -5.8480  -14.7188 N   0  0  0  0  0  0  0  0  0  0  0  0
   21.6132   -5.0883  -15.0468 C   0  0  1  0  0  0  0  0  0  0  0  0
   21.5471   -4.5424  -16.4466 C   0  0  0  0  0  0  0  0  0  0  0  0
   21.6487   -5.6276  -17.4170 C   0  0  0  0  0  0  0  0  0  0  0  0
   22.7444   -6.3738  -17.7775 C   0  0  0  0  0  0  0  0  0  0  0  0
   22.3923   -7.2505  -18.7111 N   0  0  0  0  0  0  0  0  0  0  0  0
   21.0827   -7.0950  -18.9724 C   0  0  0  0  0  0  0  0  0  0  0  0
   20.6322   -6.1074  -18.1842 N   0  0  0  0  0  0  0  0  0  0  0  0
   21.9407   -4.1066  -14.0086 C   0  0  0  0  0  0  0  0  0  0  0  0
   22.9718   -3.3966  -13.9904 O   0  0  0  0  0  0  0  0  0  0  0  0
   21.0667   -3.8998  -12.9199 O   0  0  0  0  0  0  0  0  0  0  0  0
  2  1  1  0
  2  3  2  0
  4  2  1  0
  5  4  1  0
  5  6  1  0
  6  8  1  0
  6  7  1  6
  8  9  2  0
 11 13  1  0
 11 10  1  6
 12 11  1  0
 13 14  1  6
 14  8  1  0
 15 16  2  0
 15 13  1  0
 17 15  1  0
 18 25  1  0
 18 17  1  0
 18 19  1  6
 20 19  1  0
 20 24  1  0
 21 20  2  0
 22 21  1  0
 22 23  1  0
 23 24  2  0
 25 27  1  0
 26 25  2  0
M  END
$$$$
