QTH.pdb
     RDKit          3D

 27 27  0  0  1  0  0  0  0  0999 V2000
   24.9698   -9.3992  -16.2915 N   0  0  0  0  0  0  0  0  0  0  0  0
   25.4944  -10.5341  -16.9566 C   0  0  0  0  0  0  0  0  0  0  0  0
   26.2791  -11.2861  -16.3086 O   0  0  0  0  0  0  0  0  0  0  0  0
   25.1378  -10.8182  -18.3449 C   0  0  0  0  0  0  0  0  0  0  0  0
   24.2611   -9.7912  -18.9477 C   0  0  0  0  0  0  0  0  0  0  0  0
   22.8422  -10.2327  -19.0688 C   0  0  2  0  0  0  0  0  0  0  0  0
   22.7393  -11.3066  -20.0686 N   0  0  0  0  0  0  0  0  0  0  0  0
   21.9058   -9.1662  -19.4680 C   0  0  0  0  0  0  0  0  0  0  0  0
   21.9873   -8.6298  -20.6131 O   0  0  0  0  0  0  0  0  0  0  0  0
   18.2486   -9.2572  -19.7739 C   0  0  0  0  0  0  0  0  0  0  0  0
   18.5496   -8.1639  -18.7728 C   0  0  1  0  0  0  0  0  0  0  0  0
   18.4505   -8.7001  -17.4943 O   0  0  0  0  0  0  0  0  0  0  0  0
   19.9597   -7.6586  -18.9849 C   0  0  2  0  0  0  0  0  0  0  0  0
   20.9029   -8.7125  -18.6051 N   0  0  0  0  0  0  0  0  0  0  0  0
   20.2139   -6.4839  -18.1311 C   0  0  0  0  0  0  0  0  0  0  0  0
   21.2218   -6.4291  -17.3576 O   0  0  0  0  0  0  0  0  0  0  0  0
   19.3488   -5.3564  -18.1287 N   0  0  0  0  0  0  0  0  0  0  0  0
   19.6965   -4.0840  -17.5046 C   0  0  1  0  0  0  0  0  0  0  0  0
   21.0531   -3.6119  -17.9500 C   0  0  0  0  0  0  0  0  0  0  0  0
   22.0666   -3.9932  -16.9715 C   0  0  0  0  0  0  0  0  0  0  0  0
   21.9208   -4.6722  -15.7862 C   0  0  0  0  0  0  0  0  0  0  0  0
   23.1060   -4.7931  -15.1992 N   0  0  0  0  0  0  0  0  0  0  0  0
   24.0313   -4.2051  -15.9776 C   0  0  0  0  0  0  0  0  0  0  0  0
   23.3969   -3.7192  -17.0551 N   0  0  0  0  0  0  0  0  0  0  0  0
   18.6190   -3.0984  -17.6336 C   0  0  0  0  0  0  0  0  0  0  0  0
   18.4704   -2.0958  -16.8986 O   0  0  0  0  0  0  0  0  0  0  0  0
   17.6432   -3.2350  -18.6440 O   0  0  0  0  0  0  0  0  0  0  0  0
  2  1  1  0
  2  3  2  0
  4  2  1  0
  5  4  1  0
  5  6  1  0
  6  8  1  0
  6  7  1  6
  8  9  2  0
 11 13  1  0
 11 10  1  6
 12 11  1  0
 13 14  1  1
 14  8  1  0
 15 16  2  0
 15 13  1  0
 17 15  1  0
 18 25  1  0
 18 17  1  0
 18 19  1  6
 20 19  1  0
 20 24  1  0
 21 20  2  0
 22 21  1  0
 22 23  1  0
 23 24  2  0
 25 27  1  0
 26 25  2  0
M  END
$$$$
