QTH.pdb
     RDKit          3D

 27 27  0  0  1  0  0  0  0  0999 V2000
   23.0538  -21.7398   -7.8194 N   0  0  0  0  0  0  0  0  0  0  0  0
   23.4992  -20.6499   -8.6062 C   0  0  0  0  0  0  0  0  0  0  0  0
   22.6215  -19.9119   -9.1410 O   0  0  0  0  0  0  0  0  0  0  0  0
   24.9262  -20.3949   -8.7904 C   0  0  0  0  0  0  0  0  0  0  0  0
   25.2532  -19.8138  -10.1103 C   0  0  0  0  0  0  0  0  0  0  0  0
   24.9783  -20.7444  -11.2423 C   0  0  2  0  0  0  0  0  0  0  0  0
   25.7863  -21.9640  -11.0908 N   0  0  0  0  0  0  0  0  0  0  0  0
   25.2699  -20.1838  -12.5744 C   0  0  0  0  0  0  0  0  0  0  0  0
   25.4407  -18.9378  -12.7279 O   0  0  0  0  0  0  0  0  0  0  0  0
   26.7754  -20.8012  -17.1806 C   0  0  0  0  0  0  0  0  0  0  0  0
   26.4349  -21.4146  -15.8405 C   0  0  1  0  0  0  0  0  0  0  0  0
   27.6183  -21.6349  -15.1454 O   0  0  0  0  0  0  0  0  0  0  0  0
   25.5729  -20.4554  -15.0499 C   0  0  2  0  0  0  0  0  0  0  0  0
   25.3676  -21.0000  -13.7060 N   0  0  0  0  0  0  0  0  0  0  0  0
   24.2543  -20.3069  -15.6925 C   0  0  0  0  0  0  0  0  0  0  0  0
   23.1829  -20.6511  -15.1002 O   0  0  0  0  0  0  0  0  0  0  0  0
   24.1135  -19.7734  -17.0022 N   0  0  0  0  0  0  0  0  0  0  0  0
   22.9538  -18.9967  -17.4279 C   0  0  1  0  0  0  0  0  0  0  0  0
   22.6531  -17.8898  -16.4552 C   0  0  0  0  0  0  0  0  0  0  0  0
   21.4435  -17.1792  -16.8574 C   0  0  0  0  0  0  0  0  0  0  0  0
   20.1822  -17.6705  -17.0920 C   0  0  0  0  0  0  0  0  0  0  0  0
   19.3813  -16.6740  -17.4521 N   0  0  0  0  0  0  0  0  0  0  0  0
   20.0933  -15.5335  -17.4589 C   0  0  0  0  0  0  0  0  0  0  0  0
   21.3475  -15.8430  -17.0969 N   0  0  0  0  0  0  0  0  0  0  0  0
   23.0562  -18.5843  -18.8309 C   0  0  0  0  0  0  0  0  0  0  0  0
   24.1175  -18.2540  -19.4073 O   0  0  0  0  0  0  0  0  0  0  0  0
   21.9057  -18.5355  -19.6469 O   0  0  0  0  0  0  0  0  0  0  0  0
  2  1  1  0
  2  3  2  0
  4  2  1  0
  5  4  1  0
  5  6  1  0
  6  8  1  0
  6  7  1  1
  8  9  2  0
 11 13  1  0
 11 10  1  6
 12 11  1  0
 13 14  1  1
 14  8  1  0
 15 16  2  0
 15 13  1  0
 17 15  1  0
 18 25  1  0
 18 17  1  0
 18 19  1  1
 20 19  1  0
 20 24  1  0
 21 20  2  0
 22 21  1  0
 22 23  1  0
 23 24  2  0
 25 27  1  0
 26 25  2  0
M  END
$$$$
