QTH.pdb
     RDKit          3D

 27 27  0  0  1  0  0  0  0  0999 V2000
   17.4090  -13.0892  -19.6600 N   0  0  0  0  0  0  0  0  0  0  0  0
   17.1582  -12.6329  -18.3431 C   0  0  0  0  0  0  0  0  0  0  0  0
   16.3786  -11.6466  -18.2000 O   0  0  0  0  0  0  0  0  0  0  0  0
   17.7844  -13.2839  -17.1945 C   0  0  0  0  0  0  0  0  0  0  0  0
   18.6939  -12.3951  -16.4398 C   0  0  0  0  0  0  0  0  0  0  0  0
   20.0413  -12.2705  -17.0660 C   0  0  2  0  0  0  0  0  0  0  0  0
   20.7461  -13.5593  -16.9896 N   0  0  0  0  0  0  0  0  0  0  0  0
   20.9094  -11.2546  -16.4433 C   0  0  0  0  0  0  0  0  0  0  0  0
   21.6654  -11.5577  -15.4727 O   0  0  0  0  0  0  0  0  0  0  0  0
   23.1631   -8.9188  -18.4316 C   0  0  0  0  0  0  0  0  0  0  0  0
   22.3621   -8.0655  -17.4732 C   0  0  1  0  0  0  0  0  0  0  0  0
   21.2835   -7.5248  -18.1633 O   0  0  0  0  0  0  0  0  0  0  0  0
   21.8402   -8.9271  -16.3446 C   0  0  2  0  0  0  0  0  0  0  0  0
   20.9295   -9.9319  -16.8974 N   0  0  0  0  0  0  0  0  0  0  0  0
   21.0870   -8.1036  -15.3812 C   0  0  0  0  0  0  0  0  0  0  0  0
   19.8154   -8.0799  -15.3774 O   0  0  0  0  0  0  0  0  0  0  0  0
   21.7407   -7.2970  -14.4107 N   0  0  0  0  0  0  0  0  0  0  0  0
   21.0247   -6.5210  -13.4035 C   0  0  1  0  0  0  0  0  0  0  0  0
   20.7478   -7.3452  -12.1765 C   0  0  0  0  0  0  0  0  0  0  0  0
   20.1356   -6.5190  -11.1410 C   0  0  0  0  0  0  0  0  0  0  0  0
   20.6900   -6.0107   -9.9914 C   0  0  0  0  0  0  0  0  0  0  0  0
   19.7697   -5.3223   -9.3256 N   0  0  0  0  0  0  0  0  0  0  0  0
   18.6175   -5.3680  -10.0169 C   0  0  0  0  0  0  0  0  0  0  0  0
   18.8422   -6.0964  -11.1208 N   0  0  0  0  0  0  0  0  0  0  0  0
   21.6637   -5.2254  -13.1544 C   0  0  0  0  0  0  0  0  0  0  0  0
   22.8947   -5.0068  -13.2203 O   0  0  0  0  0  0  0  0  0  0  0  0
   20.8855   -4.0996  -12.8097 O   0  0  0  0  0  0  0  0  0  0  0  0
  2  1  1  0
  2  3  2  0
  4  2  1  0
  5  4  1  0
  5  6  1  0
  6  8  1  0
  6  7  1  1
  8  9  2  0
 11 13  1  0
 11 10  1  6
 12 11  1  0
 13 14  1  6
 14  8  1  0
 15 16  2  0
 15 13  1  0
 17 15  1  0
 18 25  1  0
 18 17  1  0
 18 19  1  1
 20 19  1  0
 20 24  1  0
 21 20  2  0
 22 21  1  0
 22 23  1  0
 23 24  2  0
 25 27  1  0
 26 25  2  0
M  END
$$$$
