QTH.pdb
     RDKit          3D

 27 27  0  0  1  0  0  0  0  0999 V2000
   11.6139  -12.7066  -15.9733 N   0  0  0  0  0  0  0  0  0  0  0  0
   11.4245  -13.8260  -15.1268 C   0  0  0  0  0  0  0  0  0  0  0  0
   10.4886  -14.6284  -15.4119 O   0  0  0  0  0  0  0  0  0  0  0  0
   12.2841  -14.0381  -13.9643 C   0  0  0  0  0  0  0  0  0  0  0  0
   13.3006  -12.9792  -13.7849 C   0  0  0  0  0  0  0  0  0  0  0  0
   14.6620  -13.3955  -14.2281 C   0  0  2  0  0  0  0  0  0  0  0  0
   15.0373  -14.6540  -13.5656 N   0  0  0  0  0  0  0  0  0  0  0  0
   15.7220  -12.4119  -13.9408 C   0  0  0  0  0  0  0  0  0  0  0  0
   16.1476  -12.2471  -12.7588 O   0  0  0  0  0  0  0  0  0  0  0  0
   19.0702  -12.3787  -15.2649 C   0  0  0  0  0  0  0  0  0  0  0  0
   18.5384  -11.0029  -15.6001 C   0  0  1  0  0  0  0  0  0  0  0  0
   18.0980  -11.0119  -16.9185 O   0  0  0  0  0  0  0  0  0  0  0  0
   17.3707  -10.6779  -14.6951 C   0  0  2  0  0  0  0  0  0  0  0  0
   16.2906  -11.6325  -14.9535 N   0  0  0  0  0  0  0  0  0  0  0  0
   16.8655   -9.3228  -14.9816 C   0  0  0  0  0  0  0  0  0  0  0  0
   15.8392   -9.1353  -15.7088 O   0  0  0  0  0  0  0  0  0  0  0  0
   17.4971   -8.1608  -14.4616 N   0  0  0  0  0  0  0  0  0  0  0  0
   17.0885   -6.8046  -14.8127 C   0  0  1  0  0  0  0  0  0  0  0  0
   15.9933   -6.3140  -13.9062 C   0  0  0  0  0  0  0  0  0  0  0  0
   15.6441   -4.9361  -14.2366 C   0  0  0  0  0  0  0  0  0  0  0  0
   14.7514   -4.4632  -15.1676 C   0  0  0  0  0  0  0  0  0  0  0  0
   14.7552   -3.1352  -15.1466 N   0  0  0  0  0  0  0  0  0  0  0  0
   15.6356   -2.7242  -14.2173 C   0  0  0  0  0  0  0  0  0  0  0  0
   16.1752   -3.8212  -13.6649 N   0  0  0  0  0  0  0  0  0  0  0  0
   18.2375   -5.9044  -14.9478 C   0  0  0  0  0  0  0  0  0  0  0  0
   19.3762   -6.1163  -14.4724 O   0  0  0  0  0  0  0  0  0  0  0  0
   18.1142   -4.6901  -15.6564 O   0  0  0  0  0  0  0  0  0  0  0  0
  2  1  1  0
  2  3  2  0
  4  2  1  0
  5  4  1  0
  5  6  1  0
  6  8  1  0
  6  7  1  1
  8  9  2  0
 11 13  1  0
 11 10  1  1
 12 11  1  0
 13 14  1  6
 14  8  1  0
 15 16  2  0
 15 13  1  0
 17 15  1  0
 18 25  1  0
 18 17  1  0
 18 19  1  1
 20 19  1  0
 20 24  1  0
 21 20  2  0
 22 21  1  0
 22 23  1  0
 23 24  2  0
 25 27  1  0
 26 25  2  0
M  END
$$$$
