QTH.pdb
     RDKit          3D

 27 27  0  0  1  0  0  0  0  0999 V2000
   20.3100  -12.8932  -20.5993 N   0  0  0  0  0  0  0  0  0  0  0  0
   19.6464  -14.1222  -20.3654 C   0  0  0  0  0  0  0  0  0  0  0  0
   19.5987  -14.9561  -21.3158 O   0  0  0  0  0  0  0  0  0  0  0  0
   19.0385  -14.4083  -19.0677 C   0  0  0  0  0  0  0  0  0  0  0  0
   19.1108  -13.2733  -18.1226 C   0  0  0  0  0  0  0  0  0  0  0  0
   20.4032  -13.2119  -17.3815 C   0  0  2  0  0  0  0  0  0  0  0  0
   20.5446  -14.4023  -16.5293 N   0  0  0  0  0  0  0  0  0  0  0  0
   20.5514  -12.0282  -16.5153 C   0  0  0  0  0  0  0  0  0  0  0  0
   19.9530  -11.9643  -15.4003 O   0  0  0  0  0  0  0  0  0  0  0  0
   23.4725  -10.7072  -14.8276 C   0  0  0  0  0  0  0  0  0  0  0  0
   23.0043   -9.5963  -15.7413 C   0  0  1  0  0  0  0  0  0  0  0  0
   23.7128   -9.6813  -16.9342 O   0  0  0  0  0  0  0  0  0  0  0  0
   21.5301   -9.7692  -16.0330 C   0  0  2  0  0  0  0  0  0  0  0  0
   21.3509  -10.9433  -16.8897 N   0  0  0  0  0  0  0  0  0  0  0  0
   21.0113   -8.5913  -16.7521 C   0  0  0  0  0  0  0  0  0  0  0  0
   20.9720   -8.5515  -18.0227 O   0  0  0  0  0  0  0  0  0  0  0  0
   20.5302   -7.4441  -16.0650 N   0  0  0  0  0  0  0  0  0  0  0  0
   20.1087   -6.2239  -16.7452 C   0  0  1  0  0  0  0  0  0  0  0  0
   18.6226   -6.2146  -16.9759 C   0  0  0  0  0  0  0  0  0  0  0  0
   18.2267   -4.9917  -17.6667 C   0  0  0  0  0  0  0  0  0  0  0  0
   18.4369   -4.6224  -18.9732 C   0  0  0  0  0  0  0  0  0  0  0  0
   17.9200   -3.4163  -19.1786 N   0  0  0  0  0  0  0  0  0  0  0  0
   17.3723   -2.9838  -18.0294 C   0  0  0  0  0  0  0  0  0  0  0  0
   17.5600   -3.9435  -17.1110 N   0  0  0  0  0  0  0  0  0  0  0  0
   20.6478   -5.0232  -16.0996 C   0  0  0  0  0  0  0  0  0  0  0  0
   20.9867   -4.9446  -14.8969 O   0  0  0  0  0  0  0  0  0  0  0  0
   20.8220   -3.8327  -16.8373 O   0  0  0  0  0  0  0  0  0  0  0  0
  2  1  1  0
  2  3  2  0
  4  2  1  0
  5  4  1  0
  5  6  1  0
  6  8  1  0
  6  7  1  1
  8  9  2  0
 11 13  1  0
 11 10  1  1
 12 11  1  0
 13 14  1  6
 14  8  1  0
 15 16  2  0
 15 13  1  0
 17 15  1  0
 18 25  1  0
 18 17  1  0
 18 19  1  1
 20 19  1  0
 20 24  1  0
 21 20  2  0
 22 21  1  0
 22 23  1  0
 23 24  2  0
 25 27  1  0
 26 25  2  0
M  END
$$$$
