QTH.pdb
     RDKit          3D

 27 27  0  0  1  0  0  0  0  0999 V2000
   26.8023  -32.6060  -12.4412 N   0  0  0  0  0  0  0  0  0  0  0  0
   26.6494  -32.8576  -13.8264 C   0  0  0  0  0  0  0  0  0  0  0  0
   27.2665  -32.1035  -14.6337 O   0  0  0  0  0  0  0  0  0  0  0  0
   25.8040  -33.9520  -14.2985 C   0  0  0  0  0  0  0  0  0  0  0  0
   25.1808  -34.7266  -13.2039 C   0  0  0  0  0  0  0  0  0  0  0  0
   26.0552  -35.8196  -12.6906 C   0  0  2  0  0  0  0  0  0  0  0  0
   26.1133  -36.9127  -13.6731 N   0  0  0  0  0  0  0  0  0  0  0  0
   25.6137  -36.4002  -11.4093 C   0  0  0  0  0  0  0  0  0  0  0  0
   24.6923  -37.2694  -11.3770 O   0  0  0  0  0  0  0  0  0  0  0  0
   27.1090  -38.6443   -9.2288 C   0  0  0  0  0  0  0  0  0  0  0  0
   26.9073  -37.4237   -8.3583 C   0  0  1  0  0  0  0  0  0  0  0  0
   28.0753  -36.6705   -8.3812 O   0  0  0  0  0  0  0  0  0  0  0  0
   25.7743  -36.5889   -8.9129 C   0  0  2  0  0  0  0  0  0  0  0  0
   26.1909  -36.0161  -10.1946 N   0  0  0  0  0  0  0  0  0  0  0  0
   25.4608  -35.4800   -7.9933 C   0  0  0  0  0  0  0  0  0  0  0  0
   25.8046  -34.2833   -8.2524 O   0  0  0  0  0  0  0  0  0  0  0  0
   24.7607  -35.6905   -6.7746 N   0  0  0  0  0  0  0  0  0  0  0  0
   24.4633  -34.6198   -5.8289 C   0  0  1  0  0  0  0  0  0  0  0  0
   22.9996  -34.2746   -5.8399 C   0  0  0  0  0  0  0  0  0  0  0  0
   22.7013  -33.3071   -4.7888 C   0  0  0  0  0  0  0  0  0  0  0  0
   23.2567  -32.0718   -4.5590 C   0  0  0  0  0  0  0  0  0  0  0  0
   22.6983  -31.5313   -3.4819 N   0  0  0  0  0  0  0  0  0  0  0  0
   21.7838  -32.3895   -2.9973 C   0  0  0  0  0  0  0  0  0  0  0  0
   21.7872  -33.4691   -3.7937 N   0  0  0  0  0  0  0  0  0  0  0  0
   25.0322  -34.8856   -4.5044 C   0  0  0  0  0  0  0  0  0  0  0  0
   25.4562  -35.9973   -4.1142 O   0  0  0  0  0  0  0  0  0  0  0  0
   25.1373  -33.8502   -3.5511 O   0  0  0  0  0  0  0  0  0  0  0  0
  2  1  1  0
  2  3  2  0
  4  2  1  0
  5  4  1  0
  5  6  1  0
  6  8  1  0
  6  7  1  6
  8  9  2  0
 11 13  1  0
 11 10  1  6
 12 11  1  0
 13 14  1  6
 14  8  1  0
 15 16  2  0
 15 13  1  0
 17 15  1  0
 18 25  1  0
 18 17  1  0
 18 19  1  1
 20 19  1  0
 20 24  1  0
 21 20  2  0
 22 21  1  0
 22 23  1  0
 23 24  2  0
 25 27  1  0
 26 25  2  0
M  END
$$$$
