QTH.pdb
     RDKit          3D

 27 27  0  0  1  0  0  0  0  0999 V2000
   18.8807  -13.1844  -17.3987 N   0  0  0  0  0  0  0  0  0  0  0  0
   19.0926  -14.0957  -16.3356 C   0  0  0  0  0  0  0  0  0  0  0  0
   18.0869  -14.4507  -15.6549 O   0  0  0  0  0  0  0  0  0  0  0  0
   20.4313  -14.6020  -16.0408 C   0  0  0  0  0  0  0  0  0  0  0  0
   21.4637  -14.1137  -16.9801 C   0  0  0  0  0  0  0  0  0  0  0  0
   22.7855  -13.8867  -16.3287 C   0  0  2  0  0  0  0  0  0  0  0  0
   23.0425  -14.9475  -15.3428 N   0  0  0  0  0  0  0  0  0  0  0  0
   22.9042  -12.5947  -15.6286 C   0  0  0  0  0  0  0  0  0  0  0  0
   22.4752  -12.4596  -14.4441 O   0  0  0  0  0  0  0  0  0  0  0  0
   25.8976  -11.1099  -14.6779 C   0  0  0  0  0  0  0  0  0  0  0  0
   25.2388   -9.9978  -15.4638 C   0  0  1  0  0  0  0  0  0  0  0  0
   25.7461  -10.0149  -16.7578 O   0  0  0  0  0  0  0  0  0  0  0  0
   23.7456  -10.2338  -15.5191 C   0  0  2  0  0  0  0  0  0  0  0  0
   23.4894  -11.4818  -16.2412 N   0  0  0  0  0  0  0  0  0  0  0  0
   23.0828   -9.1364  -16.2471 C   0  0  0  0  0  0  0  0  0  0  0  0
   23.0543   -9.1029  -17.5181 O   0  0  0  0  0  0  0  0  0  0  0  0
   22.4440   -8.0636  -15.5685 N   0  0  0  0  0  0  0  0  0  0  0  0
   21.7177   -7.0020  -16.2575 C   0  0  1  0  0  0  0  0  0  0  0  0
   20.6801   -7.5673  -17.1879 C   0  0  0  0  0  0  0  0  0  0  0  0
   19.5796   -8.1467  -16.4244 C   0  0  0  0  0  0  0  0  0  0  0  0
   19.3259   -9.4631  -16.1246 C   0  0  0  0  0  0  0  0  0  0  0  0
   18.2049   -9.5455  -15.4171 N   0  0  0  0  0  0  0  0  0  0  0  0
   17.7149   -8.3053  -15.2452 C   0  0  0  0  0  0  0  0  0  0  0  0
   18.5526   -7.4559  -15.8588 N   0  0  0  0  0  0  0  0  0  0  0  0
   21.2312   -5.9786  -15.3275 C   0  0  0  0  0  0  0  0  0  0  0  0
   21.2389   -6.0798  -14.0795 O   0  0  0  0  0  0  0  0  0  0  0  0
   20.7020   -4.7643  -15.8144 O   0  0  0  0  0  0  0  0  0  0  0  0
  2  1  1  0
  2  3  2  0
  4  2  1  0
  5  4  1  0
  5  6  1  0
  6  8  1  0
  6  7  1  1
  8  9  2  0
 11 13  1  0
 11 10  1  1
 12 11  1  0
 13 14  1  6
 14  8  1  0
 15 16  2  0
 15 13  1  0
 17 15  1  0
 18 25  1  0
 18 17  1  0
 18 19  1  1
 20 19  1  0
 20 24  1  0
 21 20  2  0
 22 21  1  0
 22 23  1  0
 23 24  2  0
 25 27  1  0
 26 25  2  0
M  END
$$$$
