HGE.pdb
     RDKit          3D

 24 24  0  0  1  0  0  0  0  0999 V2000
    8.8568  -15.5112   21.4638 N   0  0  0  0  0  0  0  0  0  0  0  0
    7.4863  -15.4294   21.9333 C   0  0  1  0  0  0  0  0  0  0  0  0
    6.6245  -15.3143   20.6922 C   0  0  0  0  0  0  0  0  0  0  0  0
    7.1189  -14.2125   19.8172 C   0  0  0  0  0  0  0  0  0  0  0  0
    7.5828  -12.9609   20.1760 C   0  0  0  0  0  0  0  0  0  0  0  0
    7.9389  -12.2553   19.0843 N   0  0  0  0  0  0  0  0  0  0  0  0
    7.7012  -13.0574   18.0330 C   0  0  0  0  0  0  0  0  0  0  0  0
    7.2101  -14.2311   18.4606 N   0  0  0  0  0  0  0  0  0  0  0  0
    7.1108  -16.5916   22.7610 C   0  0  0  0  0  0  0  0  0  0  0  0
    7.2930  -17.7726   22.3422 O   0  0  0  0  0  0  0  0  0  0  0  0
    6.5261  -16.4876   24.0709 N   0  0  0  0  0  0  0  0  0  0  0  0
    6.1476  -17.6319   24.8415 C   0  0  0  0  0  0  0  0  0  0  0  0
    7.2345  -18.3629   25.4843 C   0  0  0  0  0  0  0  0  0  0  0  0
    6.9611  -19.3800   26.1668 O   0  0  0  0  0  0  0  0  0  0  0  0
    8.5839  -17.9718   25.3662 N   0  0  0  0  0  0  0  0  0  0  0  0
    9.6860  -18.7593   25.9638 C   0  0  1  0  0  0  0  0  0  0  0  0
   10.8989  -18.6705   25.1054 C   0  0  0  0  0  0  0  0  0  0  0  0
   12.0583  -19.4157   25.6614 C   0  0  0  0  0  0  0  0  0  0  0  0
   13.3181  -19.2952   24.9024 C   0  0  0  0  0  0  0  0  0  0  0  0
   13.3860  -18.5240   23.8941 O   0  0  0  0  0  0  0  0  0  0  0  0
    9.9487  -18.2535   27.3115 C   0  0  0  0  0  0  0  0  0  0  0  0
    9.5206  -17.1638   27.7116 O   0  0  0  0  0  0  0  0  0  0  0  0
   14.4527  -19.9824   25.2237 O   0  0  0  0  0  0  0  0  0  0  0  0
   10.7197  -19.0270   28.2043 O   0  0  0  0  0  0  0  0  0  0  0  0
  2  1  1  6
  3  4  1  0
  3  2  1  0
  4  5  2  0
  6  5  1  0
  7  6  1  0
  8  7  2  0
  8  4  1  0
  9  2  1  0
  9 10  2  0
 11  9  1  0
 12 11  1  0
 12 13  1  0
 13 15  1  0
 14 13  2  0
 15 16  1  0
 16 17  1  6
 16 21  1  0
 18 17  1  0
 19 18  1  0
 20 19  2  0
 21 24  1  0
 22 21  2  0
 23 19  1  0
M  END
$$$$
