HGE.pdb
     RDKit          3D

 24 24  0  0  1  0  0  0  0  0999 V2000
    6.9344  -15.3985   22.6584 N   0  0  0  0  0  0  0  0  0  0  0  0
    7.4660  -16.3625   21.7130 C   0  0  1  0  0  0  0  0  0  0  0  0
    6.7251  -16.1261   20.4125 C   0  0  0  0  0  0  0  0  0  0  0  0
    7.2293  -14.8918   19.7447 C   0  0  0  0  0  0  0  0  0  0  0  0
    7.3428  -13.6127   20.2561 C   0  0  0  0  0  0  0  0  0  0  0  0
    7.8473  -12.7737   19.3298 N   0  0  0  0  0  0  0  0  0  0  0  0
    8.0538  -13.5186   18.2310 C   0  0  0  0  0  0  0  0  0  0  0  0
    7.6871  -14.7877   18.4684 N   0  0  0  0  0  0  0  0  0  0  0  0
    8.9266  -16.2337   21.5483 C   0  0  0  0  0  0  0  0  0  0  0  0
    9.5482  -16.9365   20.6981 O   0  0  0  0  0  0  0  0  0  0  0  0
    9.7429  -15.3290   22.3124 N   0  0  0  0  0  0  0  0  0  0  0  0
   11.1469  -15.1756   22.0855 C   0  0  0  0  0  0  0  0  0  0  0  0
   12.0153  -16.1424   22.7489 C   0  0  0  0  0  0  0  0  0  0  0  0
   11.5255  -16.8981   23.6230 O   0  0  0  0  0  0  0  0  0  0  0  0
   13.3865  -16.2628   22.4438 N   0  0  0  0  0  0  0  0  0  0  0  0
   14.2607  -17.2437   23.1260 C   0  0  1  0  0  0  0  0  0  0  0  0
   15.6370  -17.1774   22.5628 C   0  0  0  0  0  0  0  0  0  0  0  0
   15.7221  -17.7059   21.1764 C   0  0  0  0  0  0  0  0  0  0  0  0
   17.0676  -17.6952   20.5705 C   0  0  0  0  0  0  0  0  0  0  0  0
   17.2570  -17.1390   19.4432 O   0  0  0  0  0  0  0  0  0  0  0  0
   14.2578  -16.9584   24.5611 C   0  0  0  0  0  0  0  0  0  0  0  0
   14.0763  -15.8223   25.0162 O   0  0  0  0  0  0  0  0  0  0  0  0
   18.1580  -18.2643   21.1621 O   0  0  0  0  0  0  0  0  0  0  0  0
   14.4689  -18.0098   25.4775 O   0  0  0  0  0  0  0  0  0  0  0  0
  2  1  1  1
  3  4  1  0
  3  2  1  0
  4  5  2  0
  6  5  1  0
  7  6  1  0
  8  7  2  0
  8  4  1  0
  9  2  1  0
  9 10  2  0
 11  9  1  0
 12 11  1  0
 12 13  1  0
 13 15  1  0
 14 13  2  0
 15 16  1  0
 16 17  1  6
 16 21  1  0
 18 17  1  0
 19 18  1  0
 20 19  2  0
 21 24  1  0
 22 21  2  0
 23 19  1  0
M  END
$$$$
