HGE.pdb
     RDKit          3D

 24 24  0  0  1  0  0  0  0  0999 V2000
    8.5449  -16.7176   20.1717 N   0  0  0  0  0  0  0  0  0  0  0  0
    9.8811  -16.1788   19.9996 C   0  0  1  0  0  0  0  0  0  0  0  0
    9.8607  -14.7998   20.6273 C   0  0  0  0  0  0  0  0  0  0  0  0
    8.8198  -13.9502   19.9804 C   0  0  0  0  0  0  0  0  0  0  0  0
    8.9607  -13.0358   18.9536 C   0  0  0  0  0  0  0  0  0  0  0  0
    7.7738  -12.4723   18.6529 N   0  0  0  0  0  0  0  0  0  0  0  0
    6.8798  -13.0277   19.4880 C   0  0  0  0  0  0  0  0  0  0  0  0
    7.4954  -13.9134   20.2869 N   0  0  0  0  0  0  0  0  0  0  0  0
   10.9127  -17.0449   20.6017 C   0  0  0  0  0  0  0  0  0  0  0  0
   12.1415  -16.8507   20.3661 O   0  0  0  0  0  0  0  0  0  0  0  0
   10.6221  -18.1467   21.4793 N   0  0  0  0  0  0  0  0  0  0  0  0
   11.6396  -18.9980   22.0142 C   0  0  0  0  0  0  0  0  0  0  0  0
   12.4229  -18.4502   23.1166 C   0  0  0  0  0  0  0  0  0  0  0  0
   12.6946  -17.2249   23.1176 O   0  0  0  0  0  0  0  0  0  0  0  0
   12.8857  -19.2453   24.1850 N   0  0  0  0  0  0  0  0  0  0  0  0
   13.6525  -18.6743   25.3154 C   0  0  1  0  0  0  0  0  0  0  0  0
   12.8112  -18.6552   26.5433 C   0  0  0  0  0  0  0  0  0  0  0  0
   12.3056  -20.0008   26.9205 C   0  0  0  0  0  0  0  0  0  0  0  0
   11.5004  -20.0571   28.1559 C   0  0  0  0  0  0  0  0  0  0  0  0
   11.3884  -19.0280   28.8937 O   0  0  0  0  0  0  0  0  0  0  0  0
   14.8642  -19.4705   25.5120 C   0  0  0  0  0  0  0  0  0  0  0  0
   15.0660  -20.5377   24.9194 O   0  0  0  0  0  0  0  0  0  0  0  0
   10.8474  -21.1812   28.5716 O   0  0  0  0  0  0  0  0  0  0  0  0
   15.8534  -19.0177   26.4099 O   0  0  0  0  0  0  0  0  0  0  0  0
  2  1  1  1
  3  4  1  0
  3  2  1  0
  4  5  2  0
  6  5  1  0
  7  6  1  0
  8  7  2  0
  8  4  1  0
  9  2  1  0
  9 10  2  0
 11  9  1  0
 12 11  1  0
 12 13  1  0
 13 15  1  0
 14 13  2  0
 15 16  1  0
 16 17  1  1
 16 21  1  0
 18 17  1  0
 19 18  1  0
 20 19  2  0
 21 24  1  0
 22 21  2  0
 23 19  1  0
M  END
$$$$
