HGE.pdb
     RDKit          3D

 24 24  0  0  1  0  0  0  0  0999 V2000
    8.6448  -15.5762   16.8831 N   0  0  0  0  0  0  0  0  0  0  0  0
    9.4469  -14.3786   17.0498 C   0  0  1  0  0  0  0  0  0  0  0  0
    8.4971  -13.2108   16.8751 C   0  0  0  0  0  0  0  0  0  0  0  0
    7.8845  -13.2388   15.5158 C   0  0  0  0  0  0  0  0  0  0  0  0
    6.5498  -13.1671   15.1636 C   0  0  0  0  0  0  0  0  0  0  0  0
    6.4080  -13.2245   13.8245 N   0  0  0  0  0  0  0  0  0  0  0  0
    7.6511  -13.3329   13.3264 C   0  0  0  0  0  0  0  0  0  0  0  0
    8.5422  -13.3426   14.3301 N   0  0  0  0  0  0  0  0  0  0  0  0
   10.1309  -14.3439   18.3566 C   0  0  0  0  0  0  0  0  0  0  0  0
    9.6087  -14.8819   19.3770 O   0  0  0  0  0  0  0  0  0  0  0  0
   11.4070  -13.7183   18.5772 N   0  0  0  0  0  0  0  0  0  0  0  0
   12.0553  -13.7134   19.8524 C   0  0  0  0  0  0  0  0  0  0  0  0
   12.8526  -14.8925   20.1734 C   0  0  0  0  0  0  0  0  0  0  0  0
   12.4546  -16.0178   19.7857 O   0  0  0  0  0  0  0  0  0  0  0  0
   14.0573  -14.8166   20.9019 N   0  0  0  0  0  0  0  0  0  0  0  0
   14.9030  -16.0063   21.1491 C   0  0  1  0  0  0  0  0  0  0  0  0
   15.9773  -16.0897   20.1221 C   0  0  0  0  0  0  0  0  0  0  0  0
   16.7631  -14.8340   20.0019 C   0  0  0  0  0  0  0  0  0  0  0  0
   17.7954  -14.8253   18.9474 C   0  0  0  0  0  0  0  0  0  0  0  0
   18.8929  -15.4425   19.1217 O   0  0  0  0  0  0  0  0  0  0  0  0
   15.4616  -15.9144   22.4983 C   0  0  0  0  0  0  0  0  0  0  0  0
   15.3293  -14.9106   23.2094 O   0  0  0  0  0  0  0  0  0  0  0  0
   17.6426  -14.1742   17.7576 O   0  0  0  0  0  0  0  0  0  0  0  0
   16.1833  -17.0056   23.0259 O   0  0  0  0  0  0  0  0  0  0  0  0
  2  1  1  1
  3  4  1  0
  3  2  1  0
  4  5  2  0
  6  5  1  0
  7  6  1  0
  8  7  2  0
  8  4  1  0
  9  2  1  0
  9 10  2  0
 11  9  1  0
 12 11  1  0
 12 13  1  0
 13 15  1  0
 14 13  2  0
 15 16  1  0
 16 17  1  6
 16 21  1  0
 18 17  1  0
 19 18  1  0
 20 19  2  0
 21 24  1  0
 22 21  2  0
 23 19  1  0
M  END
$$$$
