HGE.pdb
     RDKit          3D

 24 24  0  0  1  0  0  0  0  0999 V2000
   11.6802  -20.2876   18.5249 N   0  0  0  0  0  0  0  0  0  0  0  0
   11.1290  -21.2747   19.4345 C   0  0  1  0  0  0  0  0  0  0  0  0
   10.6369  -22.4153   18.5666 C   0  0  0  0  0  0  0  0  0  0  0  0
    9.4821  -21.9726   17.7333 C   0  0  0  0  0  0  0  0  0  0  0  0
    9.4820  -21.1794   16.6014 C   0  0  0  0  0  0  0  0  0  0  0  0
    8.2270  -21.0108   16.1396 N   0  0  0  0  0  0  0  0  0  0  0  0
    7.4306  -21.6957   16.9772 C   0  0  0  0  0  0  0  0  0  0  0  0
    8.1716  -22.2750   17.9348 N   0  0  0  0  0  0  0  0  0  0  0  0
   12.1179  -21.7263   20.4321 C   0  0  0  0  0  0  0  0  0  0  0  0
   13.3304  -21.8999   20.1114 O   0  0  0  0  0  0  0  0  0  0  0  0
   11.8014  -21.9982   21.8085 N   0  0  0  0  0  0  0  0  0  0  0  0
   12.7909  -22.3804   22.7681 C   0  0  0  0  0  0  0  0  0  0  0  0
   13.0445  -21.4289   23.8448 C   0  0  0  0  0  0  0  0  0  0  0  0
   13.0705  -20.2030   23.5773 O   0  0  0  0  0  0  0  0  0  0  0  0
   13.2595  -21.8337   25.1781 N   0  0  0  0  0  0  0  0  0  0  0  0
   13.4243  -20.8580   26.2793 C   0  0  1  0  0  0  0  0  0  0  0  0
   12.7603  -21.3640   27.5117 C   0  0  0  0  0  0  0  0  0  0  0  0
   11.2778  -21.3760   27.4082 C   0  0  0  0  0  0  0  0  0  0  0  0
   10.5619  -21.9540   28.5619 C   0  0  0  0  0  0  0  0  0  0  0  0
   11.2121  -22.4248   29.5475 O   0  0  0  0  0  0  0  0  0  0  0  0
   14.8533  -20.6324   26.4981 C   0  0  0  0  0  0  0  0  0  0  0  0
   15.7264  -21.3722   26.0277 O   0  0  0  0  0  0  0  0  0  0  0  0
    9.2008  -22.0186   28.6406 O   0  0  0  0  0  0  0  0  0  0  0  0
   15.2706  -19.5311   27.2746 O   0  0  0  0  0  0  0  0  0  0  0  0
  2  1  1  6
  3  4  1  0
  3  2  1  0
  4  5  2  0
  6  5  1  0
  7  6  1  0
  8  7  2  0
  8  4  1  0
  9  2  1  0
  9 10  2  0
 11  9  1  0
 12 11  1  0
 12 13  1  0
 13 15  1  0
 14 13  2  0
 15 16  1  0
 16 17  1  1
 16 21  1  0
 18 17  1  0
 19 18  1  0
 20 19  2  0
 21 24  1  0
 22 21  2  0
 23 19  1  0
M  END
$$$$
