HGE.pdb
     RDKit          3D

 24 24  0  0  1  0  0  0  0  0999 V2000
   10.2460  -15.4191   18.1290 N   0  0  0  0  0  0  0  0  0  0  0  0
    9.0065  -15.0701   18.7978 C   0  0  1  0  0  0  0  0  0  0  0  0
    7.8964  -15.6859   17.9705 C   0  0  0  0  0  0  0  0  0  0  0  0
    7.7981  -15.0071   16.6463 C   0  0  0  0  0  0  0  0  0  0  0  0
    8.3662  -13.8153   16.2375 C   0  0  0  0  0  0  0  0  0  0  0  0
    8.0373  -13.5462   14.9585 N   0  0  0  0  0  0  0  0  0  0  0  0
    7.2608  -14.5656   14.5551 C   0  0  0  0  0  0  0  0  0  0  0  0
    7.1111  -15.4455   15.5576 N   0  0  0  0  0  0  0  0  0  0  0  0
    8.9778  -15.5379   20.1969 C   0  0  0  0  0  0  0  0  0  0  0  0
    7.9800  -15.3015   20.9398 O   0  0  0  0  0  0  0  0  0  0  0  0
   10.0436  -16.2784   20.8167 N   0  0  0  0  0  0  0  0  0  0  0  0
    9.9630  -16.7746   22.1559 C   0  0  0  0  0  0  0  0  0  0  0  0
   10.7652  -16.0719   23.1518 C   0  0  0  0  0  0  0  0  0  0  0  0
   11.6932  -15.3215   22.7636 O   0  0  0  0  0  0  0  0  0  0  0  0
   10.5363  -16.2014   24.5369 N   0  0  0  0  0  0  0  0  0  0  0  0
   11.4506  -15.6153   25.5431 C   0  0  1  0  0  0  0  0  0  0  0  0
   10.9617  -15.9222   26.9153 C   0  0  0  0  0  0  0  0  0  0  0  0
   10.7912  -14.7080   27.7549 C   0  0  0  0  0  0  0  0  0  0  0  0
   10.2730  -14.9411   29.1168 C   0  0  0  0  0  0  0  0  0  0  0  0
    9.9963  -16.1203   29.5027 O   0  0  0  0  0  0  0  0  0  0  0  0
   12.7953  -16.1492   25.3247 C   0  0  0  0  0  0  0  0  0  0  0  0
   13.8193  -15.5287   25.6363 O   0  0  0  0  0  0  0  0  0  0  0  0
   10.0638  -13.9381   30.0186 O   0  0  0  0  0  0  0  0  0  0  0  0
   12.9489  -17.4218   24.7360 O   0  0  0  0  0  0  0  0  0  0  0  0
  2  1  1  6
  3  4  1  0
  3  2  1  0
  4  5  2  0
  6  5  1  0
  7  6  1  0
  8  7  2  0
  8  4  1  0
  9  2  1  0
  9 10  2  0
 11  9  1  0
 12 11  1  0
 12 13  1  0
 13 15  1  0
 14 13  2  0
 15 16  1  0
 16 17  1  1
 16 21  1  0
 18 17  1  0
 19 18  1  0
 20 19  2  0
 21 24  1  0
 22 21  2  0
 23 19  1  0
M  END
$$$$
