HGE.pdb
     RDKit          3D

 24 24  0  0  1  0  0  0  0  0999 V2000
   11.6950  -14.4317   19.7208 N   0  0  0  0  0  0  0  0  0  0  0  0
   10.6423  -14.9636   20.5660 C   0  0  1  0  0  0  0  0  0  0  0  0
    9.5259  -15.3824   19.6309 C   0  0  0  0  0  0  0  0  0  0  0  0
    8.8720  -14.1829   19.0330 C   0  0  0  0  0  0  0  0  0  0  0  0
    9.1956  -12.8485   19.1913 C   0  0  0  0  0  0  0  0  0  0  0  0
    8.3586  -12.0689   18.4785 N   0  0  0  0  0  0  0  0  0  0  0  0
    7.5039  -12.9069   17.8682 C   0  0  0  0  0  0  0  0  0  0  0  0
    7.8023  -14.1744   18.1935 N   0  0  0  0  0  0  0  0  0  0  0  0
   11.1125  -16.0845   21.4023 C   0  0  0  0  0  0  0  0  0  0  0  0
   12.1537  -16.7343   21.0910 O   0  0  0  0  0  0  0  0  0  0  0  0
   10.4522  -16.5209   22.6032 N   0  0  0  0  0  0  0  0  0  0  0  0
   10.9156  -17.6281   23.3814 C   0  0  0  0  0  0  0  0  0  0  0  0
   12.0183  -17.3544   24.2969 C   0  0  0  0  0  0  0  0  0  0  0  0
   12.9962  -16.6840   23.8854 O   0  0  0  0  0  0  0  0  0  0  0  0
   12.0271  -17.8127   25.6301 N   0  0  0  0  0  0  0  0  0  0  0  0
   13.1470  -17.5228   26.5539 C   0  0  1  0  0  0  0  0  0  0  0  0
   12.6315  -16.8773   27.7923 C   0  0  0  0  0  0  0  0  0  0  0  0
   11.6103  -17.6993   28.4924 C   0  0  0  0  0  0  0  0  0  0  0  0
   11.1352  -17.1641   29.7829 C   0  0  0  0  0  0  0  0  0  0  0  0
   11.6104  -16.0765   30.2382 O   0  0  0  0  0  0  0  0  0  0  0  0
   13.8442  -18.7734   26.8554 C   0  0  0  0  0  0  0  0  0  0  0  0
   14.8954  -18.8122   27.5067 O   0  0  0  0  0  0  0  0  0  0  0  0
   10.1873  -17.7833   30.5451 O   0  0  0  0  0  0  0  0  0  0  0  0
   13.3100  -19.9941   26.3924 O   0  0  0  0  0  0  0  0  0  0  0  0
  2  1  1  6
  3  4  1  0
  3  2  1  0
  4  5  2  0
  6  5  1  0
  7  6  1  0
  8  7  2  0
  8  4  1  0
  9  2  1  0
  9 10  2  0
 11  9  1  0
 12 11  1  0
 12 13  1  0
 13 15  1  0
 14 13  2  0
 15 16  1  0
 16 17  1  1
 16 21  1  0
 18 17  1  0
 19 18  1  0
 20 19  2  0
 21 24  1  0
 22 21  2  0
 23 19  1  0
M  END
$$$$
