HGE.pdb
     RDKit          3D

 24 24  0  0  1  0  0  0  0  0999 V2000
    5.3574  -18.9315   21.0717 N   0  0  0  0  0  0  0  0  0  0  0  0
    5.0994  -18.3904   22.3931 C   0  0  1  0  0  0  0  0  0  0  0  0
    5.6206  -19.4192   23.3760 C   0  0  0  0  0  0  0  0  0  0  0  0
    4.9409  -20.7297   23.1651 C   0  0  0  0  0  0  0  0  0  0  0  0
    3.9987  -21.0759   22.2149 C   0  0  0  0  0  0  0  0  0  0  0  0
    3.6307  -22.3646   22.3582 N   0  0  0  0  0  0  0  0  0  0  0  0
    4.3380  -22.8366   23.3984 C   0  0  0  0  0  0  0  0  0  0  0  0
    5.1251  -21.8662   23.8888 N   0  0  0  0  0  0  0  0  0  0  0  0
    5.7303  -17.0710   22.5875 C   0  0  0  0  0  0  0  0  0  0  0  0
    5.5928  -16.4400   23.6767 O   0  0  0  0  0  0  0  0  0  0  0  0
    6.5298  -16.4099   21.5913 N   0  0  0  0  0  0  0  0  0  0  0  0
    7.1472  -15.1390   21.8142 C   0  0  0  0  0  0  0  0  0  0  0  0
    8.2824  -15.1270   22.7307 C   0  0  0  0  0  0  0  0  0  0  0  0
    8.9752  -14.0847   22.8247 O   0  0  0  0  0  0  0  0  0  0  0  0
    8.6311  -16.2428   23.5189 N   0  0  0  0  0  0  0  0  0  0  0  0
    9.7961  -16.2271   24.4323 C   0  0  1  0  0  0  0  0  0  0  0  0
    9.6156  -17.2430   25.5052 C   0  0  0  0  0  0  0  0  0  0  0  0
   10.7742  -17.3183   26.4330 C   0  0  0  0  0  0  0  0  0  0  0  0
   10.6539  -18.3024   27.5260 C   0  0  0  0  0  0  0  0  0  0  0  0
    9.6400  -19.0665   27.5899 O   0  0  0  0  0  0  0  0  0  0  0  0
   11.0080  -16.4838   23.6537 C   0  0  0  0  0  0  0  0  0  0  0  0
   11.0038  -17.1494   22.6107 O   0  0  0  0  0  0  0  0  0  0  0  0
   11.5924  -18.4490   28.5061 O   0  0  0  0  0  0  0  0  0  0  0  0
   12.2404  -15.9585   24.0955 O   0  0  0  0  0  0  0  0  0  0  0  0
  2  1  1  6
  3  4  1  0
  3  2  1  0
  4  5  2  0
  6  5  1  0
  7  6  1  0
  8  7  2  0
  8  4  1  0
  9  2  1  0
  9 10  2  0
 11  9  1  0
 12 11  1  0
 12 13  1  0
 13 15  1  0
 14 13  2  0
 15 16  1  0
 16 17  1  1
 16 21  1  0
 18 17  1  0
 19 18  1  0
 20 19  2  0
 21 24  1  0
 22 21  2  0
 23 19  1  0
M  END
$$$$
