WAF.pdb
     RDKit          3D

 31 33  0  0  1  0  0  0  0  0999 V2000
    6.3709  -17.9917   24.6748 N   0  0  0  0  0  0  0  0  0  0  0  0
    7.2243  -16.8992   24.3755 C   0  0  1  0  0  0  0  0  0  0  0  0
    7.8336  -16.2618   25.5853 C   0  0  0  0  0  0  0  0  0  0  0  0
    7.1267  -14.9935   25.8744 C   0  0  0  0  0  0  0  0  0  0  0  0
    5.8807  -14.8742   26.5027 C   0  0  0  0  0  0  0  0  0  0  0  0
    5.5603  -13.5819   26.6321 N   0  0  0  0  0  0  0  0  0  0  0  0
    6.5531  -12.8261   26.1092 C   0  0  0  0  0  0  0  0  0  0  0  0
    6.7105  -11.4615   25.9868 C   0  0  0  0  0  0  0  0  0  0  0  0
    7.8535  -10.9715   25.3858 C   0  0  0  0  0  0  0  0  0  0  0  0
    8.8287  -11.8147   24.9110 C   0  0  0  0  0  0  0  0  0  0  0  0
    8.6548  -13.1781   25.0419 C   0  0  0  0  0  0  0  0  0  0  0  0
    7.5285  -13.6950   25.6365 C   0  0  0  0  0  0  0  0  0  0  0  0
    8.3259  -17.3983   23.4822 C   0  0  0  0  0  0  0  0  0  0  0  0
    8.7365  -18.5684   23.5531 O   0  0  0  0  0  0  0  0  0  0  0  0
   10.2254  -16.0117   20.5091 C   0  0  0  0  0  0  0  0  0  0  0  0
   10.0720  -16.7916   21.7721 C   0  0  2  0  0  0  0  0  0  0  0  0
    8.9036  -16.5048   22.5393 N   0  0  0  0  0  0  0  0  0  0  0  0
   11.3163  -16.7745   22.6140 C   0  0  0  0  0  0  0  0  0  0  0  0
   12.4683  -16.9627   22.1027 O   0  0  0  0  0  0  0  0  0  0  0  0
   11.2159  -16.5440   24.0115 N   0  0  0  0  0  0  0  0  0  0  0  0
   12.3895  -16.3998   24.8311 C   0  0  1  0  0  0  0  0  0  0  0  0
   12.2683  -15.2826   25.8299 C   0  0  0  0  0  0  0  0  0  0  0  0
   11.0447  -15.2329   26.6038 C   0  0  0  0  0  0  0  0  0  0  0  0
    9.8726  -14.7709   26.0768 C   0  0  0  0  0  0  0  0  0  0  0  0
    8.6939  -14.7220   26.8267 C   0  0  0  0  0  0  0  0  0  0  0  0
    8.6880  -15.1429   28.1274 C   0  0  0  0  0  0  0  0  0  0  0  0
    9.8733  -15.6179   28.6846 C   0  0  0  0  0  0  0  0  0  0  0  0
   11.0376  -15.6569   27.9145 C   0  0  0  0  0  0  0  0  0  0  0  0
   12.6589  -17.6307   25.6287 C   0  0  0  0  0  0  0  0  0  0  0  0
   11.7846  -18.5301   25.6015 O   0  0  0  0  0  0  0  0  0  0  0  0
   13.7964  -17.8388   26.3854 O   0  0  0  0  0  0  0  0  0  0  0  0
  2  1  1  1
  2 13  1  0
  2  3  1  0
  3  4  1  0
  4 12  1  0
  4  5  2  0
  5  6  1  0
  7  6  1  0
  7  8  2  0
  9  8  1  0
 10  9  2  0
 11 12  2  0
 11 10  1  0
 12  7  1  0
 13 14  2  0
 16 15  1  6
 16 18  1  0
 17 13  1  0
 17 16  1  0
 18 20  1  0
 18 19  2  0
 20 21  1  0
 21 29  1  0
 21 22  1  1
 23 24  2  0
 23 22  1  0
 25 24  1  0
 26 25  2  0
 27 28  2  0
 27 26  1  0
 28 23  1  0
 29 30  2  0
 29 31  1  0
M  END
$$$$
