WAF.pdb
     RDKit          3D

 31 33  0  0  1  0  0  0  0  0999 V2000
    9.2230  -16.8336   21.7795 N   0  0  0  0  0  0  0  0  0  0  0  0
    9.0862  -16.2700   23.0738 C   0  0  1  0  0  0  0  0  0  0  0  0
    7.6806  -15.8874   23.4187 C   0  0  0  0  0  0  0  0  0  0  0  0
    7.5247  -14.4228   23.2677 C   0  0  0  0  0  0  0  0  0  0  0  0
    7.4061  -13.7316   22.0554 C   0  0  0  0  0  0  0  0  0  0  0  0
    7.2471  -12.4247   22.2926 N   0  0  0  0  0  0  0  0  0  0  0  0
    7.2556  -12.2140   23.6290 C   0  0  0  0  0  0  0  0  0  0  0  0
    7.1372  -11.0671   24.3855 C   0  0  0  0  0  0  0  0  0  0  0  0
    7.1937  -11.1651   25.7620 C   0  0  0  0  0  0  0  0  0  0  0  0
    7.3648  -12.3773   26.3855 C   0  0  0  0  0  0  0  0  0  0  0  0
    7.4814  -13.5156   25.6127 C   0  0  0  0  0  0  0  0  0  0  0  0
    7.4279  -13.4492   24.2408 C   0  0  0  0  0  0  0  0  0  0  0  0
    9.5753  -17.2783   24.0762 C   0  0  0  0  0  0  0  0  0  0  0  0
    9.1955  -17.2523   25.2584 O   0  0  0  0  0  0  0  0  0  0  0  0
   11.9673  -20.2516   23.8629 C   0  0  0  0  0  0  0  0  0  0  0  0
   11.0968  -19.2347   24.5225 C   0  0  2  0  0  0  0  0  0  0  0  0
   10.4918  -18.2791   23.6525 N   0  0  0  0  0  0  0  0  0  0  0  0
   11.7649  -18.5809   25.6988 C   0  0  0  0  0  0  0  0  0  0  0  0
   12.7684  -17.8097   25.5500 O   0  0  0  0  0  0  0  0  0  0  0  0
   11.2739  -18.8221   27.0091 N   0  0  0  0  0  0  0  0  0  0  0  0
   11.9554  -18.3102   28.1682 C   0  0  1  0  0  0  0  0  0  0  0  0
   11.0346  -17.5909   29.1144 C   0  0  0  0  0  0  0  0  0  0  0  0
   10.1709  -16.5806   28.5384 C   0  0  0  0  0  0  0  0  0  0  0  0
    9.0563  -16.1269   29.1840 C   0  0  0  0  0  0  0  0  0  0  0  0
    8.2235  -15.1534   28.6248 C   0  0  0  0  0  0  0  0  0  0  0  0
    8.5111  -14.6245   27.3974 C   0  0  0  0  0  0  0  0  0  0  0  0
    9.6437  -15.0735   26.7217 C   0  0  0  0  0  0  0  0  0  0  0  0
   10.4600  -16.0469   27.3018 C   0  0  0  0  0  0  0  0  0  0  0  0
   12.5840  -19.4031   28.9648 C   0  0  0  0  0  0  0  0  0  0  0  0
   13.3279  -19.0602   29.9150 O   0  0  0  0  0  0  0  0  0  0  0  0
   12.3999  -20.7514   28.7241 O   0  0  0  0  0  0  0  0  0  0  0  0
  2  1  1  6
  2 13  1  0
  2  3  1  0
  3  4  1  0
  4 12  1  0
  4  5  2  0
  5  6  1  0
  7  6  1  0
  7  8  2  0
  9  8  1  0
 10  9  2  0
 11 12  2  0
 11 10  1  0
 12  7  1  0
 13 14  2  0
 16 15  1  6
 16 18  1  0
 17 13  1  0
 17 16  1  0
 18 20  1  0
 18 19  2  0
 20 21  1  0
 21 29  1  0
 21 22  1  1
 23 24  2  0
 23 22  1  0
 25 24  1  0
 26 25  2  0
 27 28  2  0
 27 26  1  0
 28 23  1  0
 29 30  2  0
 29 31  1  0
M  END
$$$$
