WAF.pdb
     RDKit          3D

 31 33  0  0  1  0  0  0  0  0999 V2000
    6.4810  -17.8820   22.3584 N   0  0  0  0  0  0  0  0  0  0  0  0
    7.4413  -16.9515   21.8856 C   0  0  1  0  0  0  0  0  0  0  0  0
    7.0442  -15.5220   22.0858 C   0  0  0  0  0  0  0  0  0  0  0  0
    6.3868  -15.3804   23.4048 C   0  0  0  0  0  0  0  0  0  0  0  0
    5.7500  -16.4040   24.1175 C   0  0  0  0  0  0  0  0  0  0  0  0
    5.2976  -15.9306   25.2839 N   0  0  0  0  0  0  0  0  0  0  0  0
    5.6101  -14.6176   25.3787 C   0  0  0  0  0  0  0  0  0  0  0  0
    5.3704  -13.6781   26.3594 C   0  0  0  0  0  0  0  0  0  0  0  0
    5.8120  -12.3835   26.1674 C   0  0  0  0  0  0  0  0  0  0  0  0
    6.4807  -12.0189   25.0240 C   0  0  0  0  0  0  0  0  0  0  0  0
    6.7123  -12.9724   24.0526 C   0  0  0  0  0  0  0  0  0  0  0  0
    6.2857  -14.2688   24.2161 C   0  0  0  0  0  0  0  0  0  0  0  0
    8.7330  -17.2036   22.6126 C   0  0  0  0  0  0  0  0  0  0  0  0
    8.7825  -17.9499   23.6042 O   0  0  0  0  0  0  0  0  0  0  0  0
   12.3535  -16.2615   21.8576 C   0  0  0  0  0  0  0  0  0  0  0  0
   11.2279  -16.8619   22.6318 C   0  0  2  0  0  0  0  0  0  0  0  0
    9.9178  -16.5699   22.1478 N   0  0  0  0  0  0  0  0  0  0  0  0
   11.3498  -16.6162   24.1091 C   0  0  0  0  0  0  0  0  0  0  0  0
   11.2690  -15.4417   24.5971 O   0  0  0  0  0  0  0  0  0  0  0  0
   11.5596  -17.7110   24.9885 N   0  0  0  0  0  0  0  0  0  0  0  0
   11.7753  -17.5076   26.3964 C   0  0  1  0  0  0  0  0  0  0  0  0
   10.6551  -16.7502   27.0535 C   0  0  0  0  0  0  0  0  0  0  0  0
   10.9865  -15.4560   27.6135 C   0  0  0  0  0  0  0  0  0  0  0  0
   10.2903  -14.3268   27.2893 C   0  0  0  0  0  0  0  0  0  0  0  0
   10.6138  -13.0787   27.8296 C   0  0  0  0  0  0  0  0  0  0  0  0
   11.6527  -12.9586   28.7102 C   0  0  0  0  0  0  0  0  0  0  0  0
   12.3760  -14.0984   29.0544 C   0  0  0  0  0  0  0  0  0  0  0  0
   12.0330  -15.3339   28.5010 C   0  0  0  0  0  0  0  0  0  0  0  0
   11.8766  -18.8017   27.1306 C   0  0  0  0  0  0  0  0  0  0  0  0
   11.6320  -19.8465   26.4805 O   0  0  0  0  0  0  0  0  0  0  0  0
   12.2186  -18.9193   28.4644 O   0  0  0  0  0  0  0  0  0  0  0  0
  2  1  1  1
  2 13  1  0
  2  3  1  0
  3  4  1  0
  4 12  1  0
  4  5  2  0
  5  6  1  0
  7  6  1  0
  7  8  2  0
  9  8  1  0
 10  9  2  0
 11 12  2  0
 11 10  1  0
 12  7  1  0
 13 14  2  0
 16 15  1  6
 16 18  1  0
 17 13  1  0
 17 16  1  0
 18 20  1  0
 18 19  2  0
 20 21  1  0
 21 29  1  0
 21 22  1  1
 23 24  2  0
 23 22  1  0
 25 24  1  0
 26 25  2  0
 27 28  2  0
 27 26  1  0
 28 23  1  0
 29 30  2  0
 29 31  1  0
M  END
$$$$
