WAF.pdb
     RDKit          3D

 31 33  0  0  1  0  0  0  0  0999 V2000
    6.3909  -18.1276   23.5369 N   0  0  0  0  0  0  0  0  0  0  0  0
    7.5338  -17.3153   23.3234 C   0  0  1  0  0  0  0  0  0  0  0  0
    8.0832  -16.7074   24.5762 C   0  0  0  0  0  0  0  0  0  0  0  0
    7.2361  -15.5591   24.9711 C   0  0  0  0  0  0  0  0  0  0  0  0
    6.1956  -15.5919   25.9080 C   0  0  0  0  0  0  0  0  0  0  0  0
    5.6681  -14.3699   26.0424 N   0  0  0  0  0  0  0  0  0  0  0  0
    6.3218  -13.5141   25.2234 C   0  0  0  0  0  0  0  0  0  0  0  0
    6.1671  -12.1654   24.9811 C   0  0  0  0  0  0  0  0  0  0  0  0
    6.9956  -11.5518   24.0620 C   0  0  0  0  0  0  0  0  0  0  0  0
    7.9639  -12.2576   23.3900 C   0  0  0  0  0  0  0  0  0  0  0  0
    8.1051  -13.6072   23.6450 C   0  0  0  0  0  0  0  0  0  0  0  0
    7.2959  -14.2449   24.5550 C   0  0  0  0  0  0  0  0  0  0  0  0
    8.5988  -18.1655   22.6880 C   0  0  0  0  0  0  0  0  0  0  0  0
    8.7790  -19.3442   23.0359 O   0  0  0  0  0  0  0  0  0  0  0  0
   11.5036  -16.8500   20.5847 C   0  0  0  0  0  0  0  0  0  0  0  0
   10.8383  -17.6321   21.6675 C   0  0  2  0  0  0  0  0  0  0  0  0
    9.4118  -17.5998   21.6682 N   0  0  0  0  0  0  0  0  0  0  0  0
   11.4085  -17.3355   23.0255 C   0  0  0  0  0  0  0  0  0  0  0  0
   12.6613  -17.4005   23.2497 O   0  0  0  0  0  0  0  0  0  0  0  0
   10.5397  -16.9738   24.0887 N   0  0  0  0  0  0  0  0  0  0  0  0
   11.0547  -16.5745   25.3714 C   0  0  1  0  0  0  0  0  0  0  0  0
   10.0590  -15.7899   26.1798 C   0  0  0  0  0  0  0  0  0  0  0  0
   10.4841  -15.3624   27.4970 C   0  0  0  0  0  0  0  0  0  0  0  0
   10.1139  -14.1573   28.0219 C   0  0  0  0  0  0  0  0  0  0  0  0
   10.5275  -13.7465   29.2925 C   0  0  0  0  0  0  0  0  0  0  0  0
   11.3260  -14.5561   30.0513 C   0  0  0  0  0  0  0  0  0  0  0  0
   11.7153  -15.7900   29.5345 C   0  0  0  0  0  0  0  0  0  0  0  0
   11.2886  -16.1776   28.2626 C   0  0  0  0  0  0  0  0  0  0  0  0
   11.4201  -17.7529   26.2092 C   0  0  0  0  0  0  0  0  0  0  0  0
   10.9865  -18.8709   25.8403 O   0  0  0  0  0  0  0  0  0  0  0  0
   12.1962  -17.6901   27.3509 O   0  0  0  0  0  0  0  0  0  0  0  0
  2  1  1  1
  2 13  1  0
  2  3  1  0
  3  4  1  0
  4 12  1  0
  4  5  2  0
  5  6  1  0
  7  6  1  0
  7  8  2  0
  9  8  1  0
 10  9  2  0
 11 12  2  0
 11 10  1  0
 12  7  1  0
 13 14  2  0
 16 15  1  6
 16 18  1  0
 17 13  1  0
 17 16  1  0
 18 20  1  0
 18 19  2  0
 20 21  1  0
 21 29  1  0
 21 22  1  1
 23 24  2  0
 23 22  1  0
 25 24  1  0
 26 25  2  0
 27 28  2  0
 27 26  1  0
 28 23  1  0
 29 30  2  0
 29 31  1  0
M  END
$$$$
