WAF.pdb
     RDKit          3D

 31 33  0  0  1  0  0  0  0  0999 V2000
    9.4896  -16.5338   21.3452 N   0  0  0  0  0  0  0  0  0  0  0  0
    8.6161  -15.9374   22.2901 C   0  0  1  0  0  0  0  0  0  0  0  0
    7.1731  -15.9929   21.8952 C   0  0  0  0  0  0  0  0  0  0  0  0
    7.0046  -15.3405   20.5769 C   0  0  0  0  0  0  0  0  0  0  0  0
    6.4646  -15.9363   19.4303 C   0  0  0  0  0  0  0  0  0  0  0  0
    6.4321  -15.0482   18.4305 N   0  0  0  0  0  0  0  0  0  0  0  0
    6.9349  -13.8711   18.8687 C   0  0  0  0  0  0  0  0  0  0  0  0
    7.1274  -12.6571   18.2434 C   0  0  0  0  0  0  0  0  0  0  0  0
    7.6828  -11.6159   18.9609 C   0  0  0  0  0  0  0  0  0  0  0  0
    8.0443  -11.7684   20.2776 C   0  0  0  0  0  0  0  0  0  0  0  0
    7.8444  -12.9906   20.8880 C   0  0  0  0  0  0  0  0  0  0  0  0
    7.2928  -14.0448   20.1997 C   0  0  0  0  0  0  0  0  0  0  0  0
    8.7890  -16.6518   23.6017 C   0  0  0  0  0  0  0  0  0  0  0  0
    7.9507  -16.5454   24.5119 O   0  0  0  0  0  0  0  0  0  0  0  0
   11.2374  -19.2460   24.9142 C   0  0  0  0  0  0  0  0  0  0  0  0
   10.2632  -18.1206   25.0198 C   0  0  2  0  0  0  0  0  0  0  0  0
    9.9396  -17.4642   23.7949 N   0  0  0  0  0  0  0  0  0  0  0  0
   10.6267  -17.1442   26.1024 C   0  0  0  0  0  0  0  0  0  0  0  0
   11.3711  -16.1370   25.8674 O   0  0  0  0  0  0  0  0  0  0  0  0
   10.1342  -17.3402   27.4197 N   0  0  0  0  0  0  0  0  0  0  0  0
   10.6076  -16.5440   28.5204 C   0  0  1  0  0  0  0  0  0  0  0  0
    9.5691  -15.5865   29.0353 C   0  0  0  0  0  0  0  0  0  0  0  0
    9.1053  -14.5721   28.1109 C   0  0  0  0  0  0  0  0  0  0  0  0
    9.8080  -13.4234   27.8839 C   0  0  0  0  0  0  0  0  0  0  0  0
    9.3569  -12.4452   26.9930 C   0  0  0  0  0  0  0  0  0  0  0  0
    8.1814  -12.6197   26.3171 C   0  0  0  0  0  0  0  0  0  0  0  0
    7.4489  -13.7847   26.5342 C   0  0  0  0  0  0  0  0  0  0  0  0
    7.9211  -14.7471   27.4293 C   0  0  0  0  0  0  0  0  0  0  0  0
   10.9938  -17.3902   29.6861 C   0  0  0  0  0  0  0  0  0  0  0  0
   10.7330  -18.6151   29.6125 O   0  0  0  0  0  0  0  0  0  0  0  0
   11.6128  -16.9146   30.8266 O   0  0  0  0  0  0  0  0  0  0  0  0
  2  1  1  6
  2 13  1  0
  2  3  1  0
  3  4  1  0
  4 12  1  0
  4  5  2  0
  5  6  1  0
  7  6  1  0
  7  8  2  0
  9  8  1  0
 10  9  2  0
 11 12  2  0
 11 10  1  0
 12  7  1  0
 13 14  2  0
 16 15  1  6
 16 18  1  0
 17 13  1  0
 17 16  1  0
 18 20  1  0
 18 19  2  0
 20 21  1  0
 21 29  1  0
 21 22  1  1
 23 24  2  0
 23 22  1  0
 25 24  1  0
 26 25  2  0
 27 28  2  0
 27 26  1  0
 28 23  1  0
 29 30  2  0
 29 31  1  0
M  END
$$$$
