FLG.pdb
     RDKit          3D

 24 24  0  0  1  0  0  0  0  0999 V2000
    6.8748  -17.5842   22.5852 N   0  0  0  0  0  0  0  0  0  0  0  0
    7.3187  -16.2688   22.1758 C   0  0  1  0  0  0  0  0  0  0  0  0
    6.3783  -15.6911   21.1412 C   0  0  0  0  0  0  0  0  0  0  0  0
    7.0038  -14.4692   20.5963 C   0  0  0  0  0  0  0  0  0  0  0  0
    7.9781  -14.5541   19.6176 C   0  0  0  0  0  0  0  0  0  0  0  0
    8.5772  -13.4306   19.0927 C   0  0  0  0  0  0  0  0  0  0  0  0
    8.1610  -12.2200   19.5876 C   0  0  0  0  0  0  0  0  0  0  0  0
    7.1945  -12.1116   20.5601 C   0  0  0  0  0  0  0  0  0  0  0  0
    6.6137  -13.2381   21.0665 C   0  0  0  0  0  0  0  0  0  0  0  0
    7.4198  -15.4167   23.3794 C   0  0  0  0  0  0  0  0  0  0  0  0
    6.8671  -14.2898   23.3918 O   0  0  0  0  0  0  0  0  0  0  0  0
    8.1732  -11.9939   25.1273 C   0  0  0  0  0  0  0  0  0  0  0  0
    7.1489  -13.0194   25.5427 C   0  0  2  0  0  0  0  0  0  0  0  0
    6.1205  -12.3909   26.4994 C   0  0  0  0  0  0  0  0  0  0  0  0
    7.7320  -14.1854   26.2208 C   0  0  0  0  0  0  0  0  0  0  0  0
    8.6758  -15.0593   25.4857 C   0  0  2  0  0  0  0  0  0  0  0  0
    8.1501  -15.9179   24.4885 N   0  0  0  0  0  0  0  0  0  0  0  0
    9.5848  -15.8237   26.3719 C   0  0  0  0  0  0  0  0  0  0  0  0
   10.1711  -15.2157   27.2984 O   0  0  0  0  0  0  0  0  0  0  0  0
    9.8208  -17.2128   26.2183 N   0  0  0  0  0  0  0  0  0  0  0  0
   10.6523  -17.8912   27.1904 C   0  0  0  0  0  0  0  0  0  0  0  0
   11.7321  -18.5863   26.4816 C   0  0  0  0  0  0  0  0  0  0  0  0
   12.4808  -19.4597   27.0153 O   0  0  0  0  0  0  0  0  0  0  0  0
   11.9724  -18.2900   25.1427 O   0  0  0  0  0  0  0  0  0  0  0  0
  2  1  1  1
  2  3  1  0
  4  3  1  0
  5  4  2  0
  6  5  1  0
  7  8  1  0
  7  6  2  0
  8  9  2  0
  9  4  1  0
 10 17  1  0
 10  2  1  0
 11 10  2  0
 13 12  1  1
 13 14  1  0
 16 15  1  1
 15 13  1  0
 16 17  1  0
 18 16  1  0
 19 18  2  0
 20 18  1  0
 21 20  1  0
 22 21  1  0
 23 22  2  0
 24 22  1  0
M  END
$$$$
