FLG.pdb
     RDKit          3D

 24 24  0  0  1  0  0  0  0  0999 V2000
    7.7607  -18.7713   27.0280 N   0  0  0  0  0  0  0  0  0  0  0  0
    8.2826  -17.4216   27.0024 C   0  0  1  0  0  0  0  0  0  0  0  0
    9.7893  -17.4340   27.1379 C   0  0  0  0  0  0  0  0  0  0  0  0
   10.1899  -16.1904   27.8265 C   0  0  0  0  0  0  0  0  0  0  0  0
   10.3636  -16.1709   29.1990 C   0  0  0  0  0  0  0  0  0  0  0  0
   10.7366  -15.0249   29.8656 C   0  0  0  0  0  0  0  0  0  0  0  0
   10.9284  -13.9006   29.1021 C   0  0  0  0  0  0  0  0  0  0  0  0
   10.7616  -13.8967   27.7369 C   0  0  0  0  0  0  0  0  0  0  0  0
   10.3915  -15.0437   27.0963 C   0  0  0  0  0  0  0  0  0  0  0  0
    7.8377  -16.7748   25.7500 C   0  0  0  0  0  0  0  0  0  0  0  0
    7.1543  -17.4257   24.9225 O   0  0  0  0  0  0  0  0  0  0  0  0
    5.3864  -13.2189   26.0071 C   0  0  0  0  0  0  0  0  0  0  0  0
    6.8303  -12.8166   25.8435 C   0  0  2  0  0  0  0  0  0  0  0  0
    6.9687  -11.2852   25.9030 C   0  0  0  0  0  0  0  0  0  0  0  0
    7.4218  -13.2673   24.5762 C   0  0  0  0  0  0  0  0  0  0  0  0
    7.7628  -14.6982   24.3994 C   0  0  2  0  0  0  0  0  0  0  0  0
    8.2088  -15.4220   25.5330 N   0  0  0  0  0  0  0  0  0  0  0  0
    8.6729  -14.9514   23.2576 C   0  0  0  0  0  0  0  0  0  0  0  0
    8.3914  -14.4502   22.1433 O   0  0  0  0  0  0  0  0  0  0  0  0
    9.8481  -15.7356   23.3695 N   0  0  0  0  0  0  0  0  0  0  0  0
   10.7751  -15.7667   22.2575 C   0  0  0  0  0  0  0  0  0  0  0  0
   10.9374  -17.1572   21.8200 C   0  0  0  0  0  0  0  0  0  0  0  0
   11.7315  -17.5211   20.9004 O   0  0  0  0  0  0  0  0  0  0  0  0
   10.1885  -18.1584   22.4323 O   0  0  0  0  0  0  0  0  0  0  0  0
  2  1  1  6
  2  3  1  0
  4  3  1  0
  5  4  2  0
  6  5  1  0
  7  8  1  0
  7  6  2  0
  8  9  2  0
  9  4  1  0
 10 17  1  0
 10  2  1  0
 11 10  2  0
 13 12  1  6
 13 14  1  0
 16 15  1  1
 15 13  1  0
 16 17  1  0
 18 16  1  0
 19 18  2  0
 20 18  1  0
 21 20  1  0
 22 21  1  0
 23 22  2  0
 24 22  1  0
M  END
$$$$
