FLG.pdb
     RDKit          3D

 24 24  0  0  1  0  0  0  0  0999 V2000
    6.7972  -17.6345   25.8437 N   0  0  0  0  0  0  0  0  0  0  0  0
    7.1072  -16.3777   25.1963 C   0  0  1  0  0  0  0  0  0  0  0  0
    8.1260  -15.6036   26.0035 C   0  0  0  0  0  0  0  0  0  0  0  0
    7.5151  -14.3132   26.3813 C   0  0  0  0  0  0  0  0  0  0  0  0
    7.9523  -13.6291   27.5017 C   0  0  0  0  0  0  0  0  0  0  0  0
    7.3999  -12.4244   27.8761 C   0  0  0  0  0  0  0  0  0  0  0  0
    6.3928  -11.9334   27.0832 C   0  0  0  0  0  0  0  0  0  0  0  0
    5.9422  -12.5959   25.9653 C   0  0  0  0  0  0  0  0  0  0  0  0
    6.5039  -13.7888   25.6124 C   0  0  0  0  0  0  0  0  0  0  0  0
    7.5792  -16.6648   23.8253 C   0  0  0  0  0  0  0  0  0  0  0  0
    7.9029  -17.8363   23.5116 O   0  0  0  0  0  0  0  0  0  0  0  0
    7.9013  -12.8115   22.0258 C   0  0  0  0  0  0  0  0  0  0  0  0
    7.9557  -13.4041   20.6405 C   0  0  2  0  0  0  0  0  0  0  0  0
    7.1500  -12.5379   19.6563 C   0  0  0  0  0  0  0  0  0  0  0  0
    7.4217  -14.7712   20.5691 C   0  0  0  0  0  0  0  0  0  0  0  0
    7.9029  -15.7925   21.5284 C   0  0  2  0  0  0  0  0  0  0  0  0
    7.6474  -15.5851   22.9066 N   0  0  0  0  0  0  0  0  0  0  0  0
    9.3257  -16.1593   21.3356 C   0  0  0  0  0  0  0  0  0  0  0  0
    9.6970  -16.5485   20.2031 O   0  0  0  0  0  0  0  0  0  0  0  0
   10.2860  -16.0895   22.3757 N   0  0  0  0  0  0  0  0  0  0  0  0
   11.6730  -16.3655   22.0648 C   0  0  0  0  0  0  0  0  0  0  0  0
   12.4717  -16.1883   23.2822 C   0  0  0  0  0  0  0  0  0  0  0  0
   12.0029  -16.2882   24.4563 O   0  0  0  0  0  0  0  0  0  0  0  0
   13.8277  -15.8922   23.1730 O   0  0  0  0  0  0  0  0  0  0  0  0
  2  1  1  1
  2  3  1  0
  4  3  1  0
  5  4  2  0
  6  5  1  0
  7  8  1  0
  7  6  2  0
  8  9  2  0
  9  4  1  0
 10 17  1  0
 10  2  1  0
 11 10  2  0
 13 12  1  1
 13 14  1  0
 16 15  1  6
 15 13  1  0
 16 17  1  0
 18 16  1  0
 19 18  2  0
 20 18  1  0
 21 20  1  0
 22 21  1  0
 23 22  2  0
 24 22  1  0
M  END
$$$$
