FLG.pdb
     RDKit          3D

 24 24  0  0  1  0  0  0  0  0999 V2000
    7.0858  -18.5380   27.1258 N   0  0  0  0  0  0  0  0  0  0  0  0
    7.8607  -17.3171   27.0640 C   0  0  1  0  0  0  0  0  0  0  0  0
    9.3111  -17.5935   27.3939 C   0  0  0  0  0  0  0  0  0  0  0  0
    9.8587  -16.3932   28.0575 C   0  0  0  0  0  0  0  0  0  0  0  0
    9.6497  -15.1354   27.5203 C   0  0  0  0  0  0  0  0  0  0  0  0
   10.1491  -14.0000   28.1189 C   0  0  0  0  0  0  0  0  0  0  0  0
   10.8658  -14.1759   29.2762 C   0  0  0  0  0  0  0  0  0  0  0  0
   11.0861  -15.4163   29.8281 C   0  0  0  0  0  0  0  0  0  0  0  0
   10.5819  -16.5284   29.2183 C   0  0  0  0  0  0  0  0  0  0  0  0
    7.6942  -16.7284   25.7185 C   0  0  0  0  0  0  0  0  0  0  0  0
    7.3485  -17.4591   24.7583 O   0  0  0  0  0  0  0  0  0  0  0  0
    5.0917  -13.1293   25.5457 C   0  0  0  0  0  0  0  0  0  0  0  0
    6.5385  -12.7056   25.5759 C   0  0  2  0  0  0  0  0  0  0  0  0
    6.6463  -11.1706   25.5679 C   0  0  0  0  0  0  0  0  0  0  0  0
    7.3188  -13.2118   24.4383 C   0  0  0  0  0  0  0  0  0  0  0  0
    7.6417  -14.6556   24.3610 C   0  0  2  0  0  0  0  0  0  0  0  0
    7.9367  -15.3380   25.5673 N   0  0  0  0  0  0  0  0  0  0  0  0
    8.6698  -14.9769   23.3432 C   0  0  0  0  0  0  0  0  0  0  0  0
    8.4286  -14.7111   22.1419 O   0  0  0  0  0  0  0  0  0  0  0  0
    9.9146  -15.5716   23.6680 N   0  0  0  0  0  0  0  0  0  0  0  0
   10.4347  -16.6153   22.8096 C   0  0  0  0  0  0  0  0  0  0  0  0
   11.8599  -16.3624   22.5730 C   0  0  0  0  0  0  0  0  0  0  0  0
   12.5431  -15.5092   23.2163 O   0  0  0  0  0  0  0  0  0  0  0  0
   12.5288  -17.0868   21.5901 O   0  0  0  0  0  0  0  0  0  0  0  0
  2  1  1  6
  2  3  1  0
  4  3  1  0
  5  4  2  0
  6  5  1  0
  7  8  1  0
  7  6  2  0
  8  9  2  0
  9  4  1  0
 10 17  1  0
 10  2  1  0
 11 10  2  0
 13 12  1  6
 13 14  1  0
 16 15  1  1
 15 13  1  0
 16 17  1  0
 18 16  1  0
 19 18  2  0
 20 18  1  0
 21 20  1  0
 22 21  1  0
 23 22  2  0
 24 22  1  0
M  END
$$$$
