FLG.pdb
     RDKit          3D

 24 24  0  0  1  0  0  0  0  0999 V2000
    7.4570  -18.8928   26.8448 N   0  0  0  0  0  0  0  0  0  0  0  0
    7.9291  -17.5313   26.9803 C   0  0  1  0  0  0  0  0  0  0  0  0
    9.4148  -17.5122   27.2653 C   0  0  0  0  0  0  0  0  0  0  0  0
    9.7265  -16.2391   27.9458 C   0  0  0  0  0  0  0  0  0  0  0  0
    9.6092  -16.1289   29.3201 C   0  0  0  0  0  0  0  0  0  0  0  0
    9.8936  -14.9537   29.9794 C   0  0  0  0  0  0  0  0  0  0  0  0
   10.2997  -13.8944   29.2067 C   0  0  0  0  0  0  0  0  0  0  0  0
   10.4233  -13.9810   27.8396 C   0  0  0  0  0  0  0  0  0  0  0  0
   10.1363  -15.1555   27.2065 C   0  0  0  0  0  0  0  0  0  0  0  0
    7.5857  -16.7951   25.7454 C   0  0  0  0  0  0  0  0  0  0  0  0
    7.0415  -17.4016   24.7907 O   0  0  0  0  0  0  0  0  0  0  0  0
    5.0965  -12.9632   26.0485 C   0  0  0  0  0  0  0  0  0  0  0  0
    6.5809  -12.7016   26.0883 C   0  0  2  0  0  0  0  0  0  0  0  0
    6.8542  -11.1975   26.2641 C   0  0  0  0  0  0  0  0  0  0  0  0
    7.2840  -13.1422   24.8755 C   0  0  0  0  0  0  0  0  0  0  0  0
    7.4571  -14.5911   24.6195 C   0  0  2  0  0  0  0  0  0  0  0  0
    7.8913  -15.4101   25.6912 N   0  0  0  0  0  0  0  0  0  0  0  0
    8.2626  -14.8848   23.4107 C   0  0  0  0  0  0  0  0  0  0  0  0
    7.8939  -14.4047   22.3127 O   0  0  0  0  0  0  0  0  0  0  0  0
    9.4321  -15.6848   23.4411 N   0  0  0  0  0  0  0  0  0  0  0  0
   10.1143  -15.9714   22.1964 C   0  0  0  0  0  0  0  0  0  0  0  0
   11.3298  -16.7371   22.4922 C   0  0  0  0  0  0  0  0  0  0  0  0
   12.5032  -16.2647   22.4002 O   0  0  0  0  0  0  0  0  0  0  0  0
   11.2196  -18.0636   22.9004 O   0  0  0  0  0  0  0  0  0  0  0  0
  2  1  1  6
  2  3  1  0
  4  3  1  0
  5  4  2  0
  6  5  1  0
  7  8  1  0
  7  6  2  0
  8  9  2  0
  9  4  1  0
 10 17  1  0
 10  2  1  0
 11 10  2  0
 13 12  1  6
 13 14  1  0
 16 15  1  1
 15 13  1  0
 16 17  1  0
 18 16  1  0
 19 18  2  0
 20 18  1  0
 21 20  1  0
 22 21  1  0
 23 22  2  0
 24 22  1  0
M  END
$$$$
