FLG.pdb
     RDKit          3D

 24 24  0  0  1  0  0  0  0  0999 V2000
    9.7694  -17.3321   21.7051 N   0  0  0  0  0  0  0  0  0  0  0  0
    9.1499  -16.0958   22.1321 C   0  0  1  0  0  0  0  0  0  0  0  0
    7.8077  -15.9158   21.4577 C   0  0  0  0  0  0  0  0  0  0  0  0
    7.7261  -14.5199   20.9822 C   0  0  0  0  0  0  0  0  0  0  0  0
    7.1381  -13.5430   21.7660 C   0  0  0  0  0  0  0  0  0  0  0  0
    7.0492  -12.2342   21.3465 C   0  0  0  0  0  0  0  0  0  0  0  0
    7.5726  -11.9443   20.1113 C   0  0  0  0  0  0  0  0  0  0  0  0
    8.1616  -12.8989   19.3153 C   0  0  0  0  0  0  0  0  0  0  0  0
    8.2391  -14.1901   19.7506 C   0  0  0  0  0  0  0  0  0  0  0  0
    9.0383  -16.1164   23.6059 C   0  0  0  0  0  0  0  0  0  0  0  0
    9.9584  -16.6242   24.2922 O   0  0  0  0  0  0  0  0  0  0  0  0
    8.0360  -12.1898   26.0187 C   0  0  0  0  0  0  0  0  0  0  0  0
    6.8483  -12.9846   25.5378 C   0  0  2  0  0  0  0  0  0  0  0  0
    5.5384  -12.2795   25.9314 C   0  0  0  0  0  0  0  0  0  0  0  0
    6.7996  -14.3486   26.0822 C   0  0  0  0  0  0  0  0  0  0  0  0
    7.7609  -15.3636   25.5917 C   0  0  2  0  0  0  0  0  0  0  0  0
    7.8755  -15.5513   24.1919 N   0  0  0  0  0  0  0  0  0  0  0  0
    7.6232  -16.6788   26.2606 C   0  0  0  0  0  0  0  0  0  0  0  0
    7.5861  -16.7139   27.5134 O   0  0  0  0  0  0  0  0  0  0  0  0
    7.5316  -17.8995   25.5464 N   0  0  0  0  0  0  0  0  0  0  0  0
    7.1273  -19.0950   26.2563 C   0  0  0  0  0  0  0  0  0  0  0  0
    8.2923  -19.6386   26.9626 C   0  0  0  0  0  0  0  0  0  0  0  0
    8.2654  -20.0429   28.1643 O   0  0  0  0  0  0  0  0  0  0  0  0
    9.5131  -19.7281   26.2995 O   0  0  0  0  0  0  0  0  0  0  0  0
  2  1  1  6
  2  3  1  0
  4  3  1  0
  5  4  2  0
  6  5  1  0
  7  8  1  0
  7  6  2  0
  8  9  2  0
  9  4  1  0
 10 17  1  0
 10  2  1  0
 11 10  2  0
 13 12  1  1
 13 14  1  0
 16 15  1  6
 15 13  1  0
 16 17  1  0
 18 16  1  0
 19 18  2  0
 20 18  1  0
 21 20  1  0
 22 21  1  0
 23 22  2  0
 24 22  1  0
M  END
$$$$
