FLG.pdb
     RDKit          3D

 24 24  0  0  1  0  0  0  0  0999 V2000
    5.8065  -17.8881   24.9772 N   0  0  0  0  0  0  0  0  0  0  0  0
    6.4866  -16.6109   25.0073 C   0  0  1  0  0  0  0  0  0  0  0  0
    7.0986  -16.3690   26.3695 C   0  0  0  0  0  0  0  0  0  0  0  0
    7.3229  -14.9162   26.5110 C   0  0  0  0  0  0  0  0  0  0  0  0
    8.6062  -14.4092   26.6137 C   0  0  0  0  0  0  0  0  0  0  0  0
    8.8431  -13.0590   26.7464 C   0  0  0  0  0  0  0  0  0  0  0  0
    7.7433  -12.2383   26.7720 C   0  0  0  0  0  0  0  0  0  0  0  0
    6.4588  -12.7199   26.6715 C   0  0  0  0  0  0  0  0  0  0  0  0
    6.2468  -14.0618   26.5407 C   0  0  0  0  0  0  0  0  0  0  0  0
    7.4969  -16.5966   23.9284 C   0  0  0  0  0  0  0  0  0  0  0  0
    7.9484  -17.6804   23.4847 O   0  0  0  0  0  0  0  0  0  0  0  0
    6.6596  -14.5452   19.9359 C   0  0  0  0  0  0  0  0  0  0  0  0
    7.2301  -13.5766   20.9408 C   0  0  2  0  0  0  0  0  0  0  0  0
    7.3751  -12.1789   20.3136 C   0  0  0  0  0  0  0  0  0  0  0  0
    8.5498  -13.9740   21.4505 C   0  0  0  0  0  0  0  0  0  0  0  0
    8.6804  -15.2197   22.2416 C   0  0  2  0  0  0  0  0  0  0  0  0
    7.9204  -15.3361   23.4318 N   0  0  0  0  0  0  0  0  0  0  0  0
   10.0864  -15.6042   22.5093 C   0  0  0  0  0  0  0  0  0  0  0  0
   10.8927  -15.6367   21.5497 O   0  0  0  0  0  0  0  0  0  0  0  0
   10.5601  -15.9370   23.8030 N   0  0  0  0  0  0  0  0  0  0  0  0
   11.9571  -16.2804   23.9678 C   0  0  0  0  0  0  0  0  0  0  0  0
   12.2215  -16.5021   25.3934 C   0  0  0  0  0  0  0  0  0  0  0  0
   11.3147  -16.5865   26.2760 O   0  0  0  0  0  0  0  0  0  0  0  0
   13.5362  -16.6313   25.8328 O   0  0  0  0  0  0  0  0  0  0  0  0
  2  1  1  1
  2  3  1  0
  4  3  1  0
  5  4  2  0
  6  5  1  0
  7  8  1  0
  7  6  2  0
  8  9  2  0
  9  4  1  0
 10 17  1  0
 10  2  1  0
 11 10  2  0
 13 12  1  6
 13 14  1  0
 16 15  1  1
 15 13  1  0
 16 17  1  0
 18 16  1  0
 19 18  2  0
 20 18  1  0
 21 20  1  0
 22 21  1  0
 23 22  2  0
 24 22  1  0
M  END
$$$$
