NMR.pdb
     RDKit          3D

 28 27  0  0  1  0  0  0  0  0999 V2000
   29.2531  -20.3811  -17.8648 N   0  0  0  0  0  0  0  0  0  0  0  0
   27.9268  -20.7927  -18.2170 C   0  0  0  0  0  0  0  0  0  0  0  0
   27.5114  -20.5744  -19.3877 O   0  0  0  0  0  0  0  0  0  0  0  0
   27.0646  -21.4596  -17.2268 C   0  0  0  0  0  0  0  0  0  0  0  0
   27.8551  -21.6752  -15.9586 C   0  0  2  0  0  0  0  0  0  0  0  0
   28.7473  -22.7896  -16.0423 N   0  0  0  0  0  0  0  0  0  0  0  0
   26.8729  -21.9469  -14.8643 C   0  0  0  0  0  0  0  0  0  0  0  0
   26.1210  -22.9502  -14.8965 O   0  0  0  0  0  0  0  0  0  0  0  0
   27.3740  -20.4869   -8.5323 C   0  0  0  0  0  0  0  0  0  0  0  0
   25.7230  -19.8185   -8.9373 S   0  0  0  0  0  0  0  0  0  0  0  0
   25.1416  -20.7902  -10.3956 C   0  0  0  0  0  0  0  0  0  0  0  0
   26.1844  -20.6325  -11.4560 C   0  0  0  0  0  0  0  0  0  0  0  0
   25.8501  -21.3947  -12.6877 C   0  0  2  0  0  0  0  0  0  0  0  0
   26.7842  -21.0633  -13.7719 N   0  0  0  0  0  0  0  0  0  0  0  0
   24.5103  -20.9391  -13.1975 C   0  0  0  0  0  0  0  0  0  0  0  0
   24.3112  -19.7949  -13.6802 O   0  0  0  0  0  0  0  0  0  0  0  0
   17.2735  -21.8511  -16.1564 N   0  0  0  0  0  0  0  0  0  0  0  0
   18.0401  -23.0216  -16.2954 C   0  0  0  0  0  0  0  0  0  0  0  0
   18.0805  -23.6042  -17.4406 N   0  0  0  0  0  0  0  0  0  0  0  0
   18.7644  -23.5670  -15.2034 N   0  0  0  0  0  0  0  0  0  0  0  0
   18.7028  -22.9982  -13.8691 C   0  0  0  0  0  0  0  0  0  0  0  0
   19.7230  -21.8698  -13.7978 C   0  0  0  0  0  0  0  0  0  0  0  0
   21.1018  -22.4011  -13.5098 C   0  0  0  0  0  0  0  0  0  0  0  0
   22.0848  -21.2573  -13.5685 C   0  0  2  0  0  0  0  0  0  0  0  0
   23.3847  -21.8008  -13.1551 N   0  0  0  0  0  0  0  0  0  0  0  0
   21.7548  -20.1962  -12.5942 C   0  0  0  0  0  0  0  0  0  0  0  0
   21.3379  -19.0530  -12.9099 O   0  0  0  0  0  0  0  0  0  0  0  0
   21.8983  -20.4298  -11.2281 O   0  0  0  0  0  0  0  0  0  0  0  0
  2  3  2  0
  2  1  1  0
  4  2  1  0
  5  4  1  0
  5  6  1  6
  7  5  1  0
  8  7  2  0
 10 11  1  0
 10  9  1  0
 11 12  1  0
 13 12  1  1
 13 14  1  0
 14  7  1  0
 15 13  1  0
 15 16  2  0
 18 17  1  0
 18 19  2  0
 20 21  1  0
 20 18  1  0
 22 21  1  0
 23 22  1  0
 24 23  1  1
 25 24  1  0
 25 15  1  0
 26 28  1  0
 26 24  1  0
 27 26  2  0
M  END
$$$$
