NMR.pdb
     RDKit          3D

 28 27  0  0  1  0  0  0  0  0999 V2000
   28.1610  -21.3755  -16.5833 N   0  0  0  0  0  0  0  0  0  0  0  0
   27.4520  -20.3207  -17.2445 C   0  0  0  0  0  0  0  0  0  0  0  0
   26.3950  -20.5980  -17.8743 O   0  0  0  0  0  0  0  0  0  0  0  0
   27.9509  -18.9364  -17.1884 C   0  0  0  0  0  0  0  0  0  0  0  0
   27.7901  -18.3045  -18.5502 C   0  0  2  0  0  0  0  0  0  0  0  0
   28.5423  -18.9736  -19.5658 N   0  0  0  0  0  0  0  0  0  0  0  0
   28.2918  -16.8994  -18.4495 C   0  0  0  0  0  0  0  0  0  0  0  0
   27.8203  -16.0967  -17.6092 O   0  0  0  0  0  0  0  0  0  0  0  0
   34.0461  -14.9187  -19.8913 C   0  0  0  0  0  0  0  0  0  0  0  0
   33.2263  -13.4150  -20.5264 S   0  0  0  0  0  0  0  0  0  0  0  0
   31.5198  -13.4488  -19.8223 C   0  0  0  0  0  0  0  0  0  0  0  0
   31.1067  -14.8855  -19.7750 C   0  0  0  0  0  0  0  0  0  0  0  0
   29.7346  -15.0558  -19.2291 C   0  0  2  0  0  0  0  0  0  0  0  0
   29.3144  -16.4609  -19.3121 N   0  0  0  0  0  0  0  0  0  0  0  0
   28.7616  -14.3228  -20.1115 C   0  0  0  0  0  0  0  0  0  0  0  0
   28.4182  -14.7367  -21.2485 O   0  0  0  0  0  0  0  0  0  0  0  0
   20.5933  -11.6375  -19.8859 N   0  0  0  0  0  0  0  0  0  0  0  0
   21.2022  -11.1313  -21.0478 C   0  0  0  0  0  0  0  0  0  0  0  0
   20.4606  -10.6146  -21.9619 N   0  0  0  0  0  0  0  0  0  0  0  0
   22.6092  -11.1799  -21.2282 N   0  0  0  0  0  0  0  0  0  0  0  0
   23.4890  -11.8590  -20.2941 C   0  0  0  0  0  0  0  0  0  0  0  0
   24.9165  -11.6965  -20.7990 C   0  0  0  0  0  0  0  0  0  0  0  0
   25.8807  -12.5039  -19.9716 C   0  0  0  0  0  0  0  0  0  0  0  0
   27.2469  -12.4308  -20.6091 C   0  0  2  0  0  0  0  0  0  0  0  0
   28.1742  -13.1027  -19.6902 N   0  0  0  0  0  0  0  0  0  0  0  0
   27.7253  -11.0377  -20.7293 C   0  0  0  0  0  0  0  0  0  0  0  0
   28.5519  -10.5051  -19.9460 O   0  0  0  0  0  0  0  0  0  0  0  0
   27.2597  -10.2233  -21.7596 O   0  0  0  0  0  0  0  0  0  0  0  0
  2  3  2  0
  2  1  1  0
  4  2  1  0
  5  4  1  0
  5  6  1  6
  7  5  1  0
  8  7  2  0
 10 11  1  0
 10  9  1  0
 11 12  1  0
 13 12  1  6
 13 14  1  0
 14  7  1  0
 15 13  1  0
 15 16  2  0
 18 17  1  0
 18 19  2  0
 20 21  1  0
 20 18  1  0
 22 21  1  0
 23 22  1  0
 24 23  1  1
 25 24  1  0
 25 15  1  0
 26 28  1  0
 26 24  1  0
 27 26  2  0
M  END
$$$$
