NMR.pdb
     RDKit          3D

 28 27  0  0  1  0  0  0  0  0999 V2000
   15.1525  -12.6720  -11.4868 N   0  0  0  0  0  0  0  0  0  0  0  0
   14.0157  -12.2288  -10.7360 C   0  0  0  0  0  0  0  0  0  0  0  0
   13.0702  -13.0370  -10.5273 O   0  0  0  0  0  0  0  0  0  0  0  0
   13.9543  -10.8518  -10.2176 C   0  0  0  0  0  0  0  0  0  0  0  0
   15.2614  -10.1586  -10.5189 C   0  0  2  0  0  0  0  0  0  0  0  0
   16.2933  -10.4876   -9.5852 N   0  0  0  0  0  0  0  0  0  0  0  0
   15.0121   -8.6865  -10.4371 C   0  0  0  0  0  0  0  0  0  0  0  0
   14.2294   -8.1120  -11.2309 O   0  0  0  0  0  0  0  0  0  0  0  0
   11.1086   -6.0406   -6.1392 C   0  0  0  0  0  0  0  0  0  0  0  0
   12.8679   -5.5895   -6.3335 S   0  0  0  0  0  0  0  0  0  0  0  0
   13.3888   -6.3191   -7.9477 C   0  0  0  0  0  0  0  0  0  0  0  0
   14.8640   -6.0989   -8.0586 C   0  0  0  0  0  0  0  0  0  0  0  0
   15.3880   -6.4812   -9.3961 C   0  0  2  0  0  0  0  0  0  0  0  0
   15.6655   -7.9226   -9.4515 N   0  0  0  0  0  0  0  0  0  0  0  0
   16.7309   -5.8347   -9.5994 C   0  0  0  0  0  0  0  0  0  0  0  0
   17.7747   -6.2189   -9.0121 O   0  0  0  0  0  0  0  0  0  0  0  0
   21.6914   -8.2801  -14.7083 N   0  0  0  0  0  0  0  0  0  0  0  0
   21.6393   -8.2141  -13.3048 C   0  0  0  0  0  0  0  0  0  0  0  0
   22.0399   -9.2261  -12.6210 N   0  0  0  0  0  0  0  0  0  0  0  0
   21.1566   -7.0596  -12.6348 N   0  0  0  0  0  0  0  0  0  0  0  0
   20.6446   -5.9041  -13.3492 C   0  0  0  0  0  0  0  0  0  0  0  0
   20.1071   -4.9212  -12.3177 C   0  0  0  0  0  0  0  0  0  0  0  0
   18.8013   -5.3988  -11.7407 C   0  0  0  0  0  0  0  0  0  0  0  0
   18.2460   -4.3225  -10.8400 C   0  0  2  0  0  0  0  0  0  0  0  0
   16.8832   -4.7366  -10.4838 N   0  0  0  0  0  0  0  0  0  0  0  0
   18.1116   -3.0298  -11.5437 C   0  0  0  0  0  0  0  0  0  0  0  0
   17.0268   -2.5795  -11.9917 O   0  0  0  0  0  0  0  0  0  0  0  0
   19.2295   -2.2235  -11.7478 O   0  0  0  0  0  0  0  0  0  0  0  0
  2  3  2  0
  2  1  1  0
  4  2  1  0
  5  4  1  0
  5  6  1  1
  7  5  1  0
  8  7  2  0
 10 11  1  0
 10  9  1  0
 11 12  1  0
 13 12  1  1
 13 14  1  0
 14  7  1  0
 15 13  1  0
 15 16  2  0
 18 17  1  0
 18 19  2  0
 20 21  1  0
 20 18  1  0
 22 21  1  0
 23 22  1  0
 24 23  1  6
 25 24  1  0
 25 15  1  0
 26 28  1  0
 26 24  1  0
 27 26  2  0
M  END
$$$$
