NMR.pdb
     RDKit          3D

 28 27  0  0  1  0  0  0  0  0999 V2000
   27.4839  -19.5862  -18.2712 N   0  0  0  0  0  0  0  0  0  0  0  0
   27.5584  -19.2042  -16.8924 C   0  0  0  0  0  0  0  0  0  0  0  0
   28.3726  -18.3029  -16.5526 O   0  0  0  0  0  0  0  0  0  0  0  0
   26.6976  -19.8546  -15.8901 C   0  0  0  0  0  0  0  0  0  0  0  0
   27.5577  -20.7066  -14.9879 C   0  0  2  0  0  0  0  0  0  0  0  0
   28.0296  -21.8945  -15.6292 N   0  0  0  0  0  0  0  0  0  0  0  0
   26.7129  -21.1116  -13.8224 C   0  0  0  0  0  0  0  0  0  0  0  0
   25.9675  -22.1188  -13.8753 O   0  0  0  0  0  0  0  0  0  0  0  0
   27.5980  -20.3474   -7.0997 C   0  0  0  0  0  0  0  0  0  0  0  0
   26.0556  -19.5352   -7.6454 S   0  0  0  0  0  0  0  0  0  0  0  0
   25.4686  -20.5152   -9.0959 C   0  0  0  0  0  0  0  0  0  0  0  0
   26.2970  -20.0848  -10.2644 C   0  0  0  0  0  0  0  0  0  0  0  0
   25.8946  -20.7723  -11.5194 C   0  0  2  0  0  0  0  0  0  0  0  0
   26.7493  -20.3519  -12.6377 N   0  0  0  0  0  0  0  0  0  0  0  0
   24.5166  -20.3125  -11.9099 C   0  0  0  0  0  0  0  0  0  0  0  0
   24.3088  -19.4009  -12.7512 O   0  0  0  0  0  0  0  0  0  0  0  0
   19.9288  -21.1146  -17.6098 N   0  0  0  0  0  0  0  0  0  0  0  0
   21.2519  -21.4640  -17.2871 C   0  0  0  0  0  0  0  0  0  0  0  0
   22.1683  -21.3103  -18.1753 N   0  0  0  0  0  0  0  0  0  0  0  0
   21.5915  -21.9789  -16.0087 N   0  0  0  0  0  0  0  0  0  0  0  0
   20.5872  -22.4150  -15.0553 C   0  0  0  0  0  0  0  0  0  0  0  0
   20.6800  -21.5080  -13.8355 C   0  0  0  0  0  0  0  0  0  0  0  0
   22.0316  -21.6139  -13.1811 C   0  0  0  0  0  0  0  0  0  0  0  0
   22.0714  -20.6804  -11.9957 C   0  0  2  0  0  0  0  0  0  0  0  0
   23.3627  -20.9008  -11.3325 N   0  0  0  0  0  0  0  0  0  0  0  0
   21.0345  -21.0134  -10.9967 C   0  0  0  0  0  0  0  0  0  0  0  0
   21.2621  -21.6162   -9.9172 O   0  0  0  0  0  0  0  0  0  0  0  0
   19.7060  -20.6576  -11.2202 O   0  0  0  0  0  0  0  0  0  0  0  0
  2  3  2  0
  2  1  1  0
  4  2  1  0
  5  4  1  0
  5  6  1  6
  7  5  1  0
  8  7  2  0
 10 11  1  0
 10  9  1  0
 11 12  1  0
 13 12  1  1
 13 14  1  0
 14  7  1  0
 15 13  1  0
 15 16  2  0
 18 17  1  0
 18 19  2  0
 20 21  1  0
 20 18  1  0
 22 21  1  0
 23 22  1  0
 24 23  1  6
 25 24  1  0
 25 15  1  0
 26 28  1  0
 26 24  1  0
 27 26  2  0
M  END
$$$$
