NMR.pdb
     RDKit          3D

 28 27  0  0  1  0  0  0  0  0999 V2000
   17.1970  -10.5532  -16.9099 N   0  0  0  0  0  0  0  0  0  0  0  0
   17.8174  -11.5318  -16.0674 C   0  0  0  0  0  0  0  0  0  0  0  0
   17.5606  -12.7517  -16.2587 O   0  0  0  0  0  0  0  0  0  0  0  0
   18.7394  -11.1179  -14.9964 C   0  0  0  0  0  0  0  0  0  0  0  0
   18.7360   -9.6108  -14.9055 C   0  0  2  0  0  0  0  0  0  0  0  0
   19.9095   -9.0173  -15.4674 N   0  0  0  0  0  0  0  0  0  0  0  0
   18.6837   -9.2539  -13.4543 C   0  0  0  0  0  0  0  0  0  0  0  0
   17.7611   -9.6689  -12.7130 O   0  0  0  0  0  0  0  0  0  0  0  0
   23.5771   -8.8394   -9.1000 C   0  0  0  0  0  0  0  0  0  0  0  0
   22.7246   -7.2285   -8.9787 S   0  0  0  0  0  0  0  0  0  0  0  0
   20.9752   -7.5580   -9.4686 C   0  0  0  0  0  0  0  0  0  0  0  0
   20.9941   -7.8725  -10.9307 C   0  0  0  0  0  0  0  0  0  0  0  0
   19.6340   -8.1542  -11.4603 C   0  0  2  0  0  0  0  0  0  0  0  0
   19.6869   -8.4356  -12.9011 N   0  0  0  0  0  0  0  0  0  0  0  0
   18.7988   -6.9077  -11.3541 C   0  0  0  0  0  0  0  0  0  0  0  0
   18.8818   -5.9532  -12.1688 O   0  0  0  0  0  0  0  0  0  0  0  0
   11.1099   -8.8119   -9.6241 N   0  0  0  0  0  0  0  0  0  0  0  0
   11.8656   -8.5155   -8.4761 C   0  0  0  0  0  0  0  0  0  0  0  0
   11.3558   -8.7518   -7.3199 N   0  0  0  0  0  0  0  0  0  0  0  0
   13.1705   -7.9648   -8.5697 N   0  0  0  0  0  0  0  0  0  0  0  0
   13.6194   -7.2250   -9.7354 C   0  0  0  0  0  0  0  0  0  0  0  0
   15.0379   -6.7432   -9.4616 C   0  0  0  0  0  0  0  0  0  0  0  0
   15.6096   -6.0293  -10.6572 C   0  0  0  0  0  0  0  0  0  0  0  0
   17.0027   -5.5564  -10.3198 C   0  0  2  0  0  0  0  0  0  0  0  0
   17.8578   -6.7499  -10.3049 N   0  0  0  0  0  0  0  0  0  0  0  0
   17.0758   -4.9819   -8.9601 C   0  0  0  0  0  0  0  0  0  0  0  0
   16.4760   -3.9366   -8.6024 O   0  0  0  0  0  0  0  0  0  0  0  0
   17.8450   -5.6021   -7.9777 O   0  0  0  0  0  0  0  0  0  0  0  0
  2  3  2  0
  2  1  1  0
  4  2  1  0
  5  4  1  0
  5  6  1  1
  7  5  1  0
  8  7  2  0
 10 11  1  0
 10  9  1  0
 11 12  1  0
 13 12  1  6
 13 14  1  0
 14  7  1  0
 15 13  1  0
 15 16  2  0
 18 17  1  0
 18 19  2  0
 20 21  1  0
 20 18  1  0
 22 21  1  0
 23 22  1  0
 24 23  1  1
 25 24  1  0
 25 15  1  0
 26 28  1  0
 26 24  1  0
 27 26  2  0
M  END
$$$$
