NMR.pdb
     RDKit          3D

 28 27  0  0  1  0  0  0  0  0999 V2000
   22.6207  -21.8708   -8.2844 N   0  0  0  0  0  0  0  0  0  0  0  0
   22.3982  -21.4223   -9.6267 C   0  0  0  0  0  0  0  0  0  0  0  0
   21.2377  -21.5070  -10.1134 O   0  0  0  0  0  0  0  0  0  0  0  0
   23.5077  -20.8718  -10.4233 C   0  0  0  0  0  0  0  0  0  0  0  0
   24.7976  -21.0670   -9.6630 C   0  0  2  0  0  0  0  0  0  0  0  0
   24.7841  -20.4434   -8.3761 N   0  0  0  0  0  0  0  0  0  0  0  0
   25.8885  -20.4411  -10.4718 C   0  0  0  0  0  0  0  0  0  0  0  0
   26.1109  -19.2077  -10.4238 O   0  0  0  0  0  0  0  0  0  0  0  0
   32.1395  -21.7981   -9.3136 C   0  0  0  0  0  0  0  0  0  0  0  0
   30.8643  -22.4385  -10.4539 S   0  0  0  0  0  0  0  0  0  0  0  0
   30.0210  -20.9458  -11.1393 C   0  0  0  0  0  0  0  0  0  0  0  0
   28.9793  -21.4438  -12.0900 C   0  0  0  0  0  0  0  0  0  0  0  0
   27.7575  -20.5972  -12.0752 C   0  0  2  0  0  0  0  0  0  0  0  0
   26.6867  -21.2459  -11.3066 N   0  0  0  0  0  0  0  0  0  0  0  0
   27.2092  -20.5035  -13.4728 C   0  0  0  0  0  0  0  0  0  0  0  0
   26.4129  -21.3482  -13.9569 O   0  0  0  0  0  0  0  0  0  0  0  0
   25.3973  -17.0235  -20.0564 N   0  0  0  0  0  0  0  0  0  0  0  0
   24.1861  -16.6613  -19.4411 C   0  0  0  0  0  0  0  0  0  0  0  0
   23.1052  -16.6869  -20.1364 N   0  0  0  0  0  0  0  0  0  0  0  0
   24.1355  -16.2715  -18.0772 N   0  0  0  0  0  0  0  0  0  0  0  0
   25.3180  -16.2339  -17.2358 C   0  0  0  0  0  0  0  0  0  0  0  0
   25.8249  -17.6618  -17.0833 C   0  0  0  0  0  0  0  0  0  0  0  0
   26.3477  -17.9074  -15.6932 C   0  0  0  0  0  0  0  0  0  0  0  0
   26.8865  -19.3153  -15.6188 C   0  0  2  0  0  0  0  0  0  0  0  0
   27.5749  -19.4325  -14.3273 N   0  0  0  0  0  0  0  0  0  0  0  0
   27.9100  -19.5693  -16.6542 C   0  0  0  0  0  0  0  0  0  0  0  0
   29.1234  -19.2621  -16.5376 O   0  0  0  0  0  0  0  0  0  0  0  0
   27.5565  -20.1859  -17.8528 O   0  0  0  0  0  0  0  0  0  0  0  0
  2  3  2  0
  2  1  1  0
  4  2  1  0
  5  4  1  0
  5  6  1  1
  7  5  1  0
  8  7  2  0
 10 11  1  0
 10  9  1  0
 11 12  1  0
 13 12  1  6
 13 14  1  0
 14  7  1  0
 15 13  1  0
 15 16  2  0
 18 17  1  0
 18 19  2  0
 20 21  1  0
 20 18  1  0
 22 21  1  0
 23 22  1  0
 24 23  1  6
 25 24  1  0
 25 15  1  0
 26 28  1  0
 26 24  1  0
 27 26  2  0
M  END
$$$$
