NMR.pdb
     RDKit          3D

 28 27  0  0  1  0  0  0  0  0999 V2000
   18.6663  -30.4643   -3.3744 N   0  0  0  0  0  0  0  0  0  0  0  0
   17.2998  -30.0349   -3.4024 C   0  0  0  0  0  0  0  0  0  0  0  0
   16.3867  -30.9042   -3.3676 O   0  0  0  0  0  0  0  0  0  0  0  0
   16.9692  -28.6015   -3.4707 C   0  0  0  0  0  0  0  0  0  0  0  0
   18.2477  -27.8128   -3.6227 C   0  0  2  0  0  0  0  0  0  0  0  0
   18.9808  -27.7013   -2.4000 N   0  0  0  0  0  0  0  0  0  0  0  0
   17.8696  -26.4356   -4.0656 C   0  0  0  0  0  0  0  0  0  0  0  0
   17.6504  -25.5205   -3.2364 O   0  0  0  0  0  0  0  0  0  0  0  0
   17.7639  -24.5905  -10.1290 C   0  0  0  0  0  0  0  0  0  0  0  0
   19.3479  -24.0894   -9.3698 S   0  0  0  0  0  0  0  0  0  0  0  0
   19.1871  -24.4995   -7.5768 C   0  0  0  0  0  0  0  0  0  0  0  0
   17.7218  -24.5708   -7.2857 C   0  0  0  0  0  0  0  0  0  0  0  0
   17.4478  -24.7721   -5.8386 C   0  0  2  0  0  0  0  0  0  0  0  0
   17.7552  -26.1521   -5.4399 N   0  0  0  0  0  0  0  0  0  0  0  0
   15.9697  -24.6342   -5.5959 C   0  0  0  0  0  0  0  0  0  0  0  0
   15.1761  -25.6098   -5.6146 O   0  0  0  0  0  0  0  0  0  0  0  0
   11.6587  -20.3164    0.2449 N   0  0  0  0  0  0  0  0  0  0  0  0
   12.3844  -21.4985    0.0151 C   0  0  0  0  0  0  0  0  0  0  0  0
   12.9402  -22.0889    1.0126 N   0  0  0  0  0  0  0  0  0  0  0  0
   12.5132  -22.0476   -1.2875 N   0  0  0  0  0  0  0  0  0  0  0  0
   11.9620  -21.3970   -2.4625 C   0  0  0  0  0  0  0  0  0  0  0  0
   12.2441  -22.2904   -3.6631 C   0  0  0  0  0  0  0  0  0  0  0  0
   13.7239  -22.4265   -3.9034 C   0  0  0  0  0  0  0  0  0  0  0  0
   13.9407  -23.3034   -5.1126 C   0  0  2  0  0  0  0  0  0  0  0  0
   15.3915  -23.3671   -5.3290 N   0  0  0  0  0  0  0  0  0  0  0  0
   13.3688  -22.7051   -6.3371 C   0  0  0  0  0  0  0  0  0  0  0  0
   12.1408  -22.5060   -6.5182 O   0  0  0  0  0  0  0  0  0  0  0  0
   14.2031  -22.3212   -7.3850 O   0  0  0  0  0  0  0  0  0  0  0  0
  2  3  2  0
  2  1  1  0
  4  2  1  0
  5  4  1  0
  5  6  1  1
  7  5  1  0
  8  7  2  0
 10 11  1  0
 10  9  1  0
 11 12  1  0
 13 12  1  6
 13 14  1  0
 14  7  1  0
 15 13  1  0
 15 16  2  0
 18 17  1  0
 18 19  2  0
 20 21  1  0
 20 18  1  0
 22 21  1  0
 23 22  1  0
 24 23  1  1
 25 24  1  0
 25 15  1  0
 26 28  1  0
 26 24  1  0
 27 26  2  0
M  END
$$$$
