WKG.pdb
     RDKit          3D

 28 29  0  0  1  0  0  0  0  0999 V2000
    7.6051  -18.6180   24.9961 N   0  0  0  0  0  0  0  0  0  0  0  0
    7.3401  -17.2223   24.7006 C   0  0  1  0  0  0  0  0  0  0  0  0
    7.9762  -16.4184   25.8129 C   0  0  0  0  0  0  0  0  0  0  0  0
    7.1897  -15.2293   26.1821 C   0  0  0  0  0  0  0  0  0  0  0  0
    5.8617  -15.2189   26.5357 C   0  0  0  0  0  0  0  0  0  0  0  0
    5.5115  -13.9516   26.8000 N   0  0  0  0  0  0  0  0  0  0  0  0
    6.5515  -13.1081   26.6382 C   0  0  0  0  0  0  0  0  0  0  0  0
    6.7092  -11.7423   26.7807 C   0  0  0  0  0  0  0  0  0  0  0  0
    7.9176  -11.1333   26.5424 C   0  0  0  0  0  0  0  0  0  0  0  0
    8.9790  -11.9172   26.1548 C   0  0  0  0  0  0  0  0  0  0  0  0
    8.8189  -13.2790   26.0134 C   0  0  0  0  0  0  0  0  0  0  0  0
    7.6145  -13.9198   26.2465 C   0  0  0  0  0  0  0  0  0  0  0  0
    7.9109  -16.9178   23.3814 C   0  0  0  0  0  0  0  0  0  0  0  0
    8.6950  -17.7253   22.8452 O   0  0  0  0  0  0  0  0  0  0  0  0
    7.5878  -15.7244   22.7062 N   0  0  0  0  0  0  0  0  0  0  0  0
    8.0925  -15.3833   21.3771 C   0  0  1  0  0  0  0  0  0  0  0  0
    7.5529  -14.0497   20.9171 C   0  0  0  0  0  0  0  0  0  0  0  0
    7.1641  -14.0210   19.4766 C   0  0  0  0  0  0  0  0  0  0  0  0
    8.1805  -13.4182   18.5648 C   0  0  0  0  0  0  0  0  0  0  0  0
    7.7637  -13.4345   17.1167 C   0  0  0  0  0  0  0  0  0  0  0  0
    8.6799  -12.7055   16.2596 N   0  0  0  0  0  0  0  0  0  0  0  0
    9.5809  -15.2471   21.4153 C   0  0  0  0  0  0  0  0  0  0  0  0
   10.1668  -15.0913   20.3193 O   0  0  0  0  0  0  0  0  0  0  0  0
   10.3484  -15.2842   22.6000 N   0  0  0  0  0  0  0  0  0  0  0  0
   11.7415  -14.9445   22.6728 C   0  0  0  0  0  0  0  0  0  0  0  0
   12.6274  -16.1192   22.5591 C   0  0  0  0  0  0  0  0  0  0  0  0
   12.1338  -17.2460   22.3580 O   0  0  0  0  0  0  0  0  0  0  0  0
   13.9928  -15.9864   22.6723 O   0  0  0  0  0  0  0  0  0  0  0  0
  2  1  1  1
  2  3  1  0
  2 13  1  0
  3  4  1  0
  4  5  2  0
  5  6  1  0
  7  6  1  0
  8  7  2  0
  9  8  1  0
 10 11  1  0
 10  9  2  0
 11 12  2  0
 12  4  1  0
 12  7  1  0
 13 15  1  0
 13 14  2  0
 15 16  1  0
 16 17  1  1
 18 17  1  0
 19 18  1  0
 20 19  1  0
 21 20  1  0
 22 24  1  0
 22 16  1  0
 23 22  2  0
 25 24  1  0
 26 28  1  0
 26 25  1  0
 27 26  2  0
M  END
$$$$
