WKG.pdb
     RDKit          3D

 28 29  0  0  1  0  0  0  0  0999 V2000
    9.4240  -15.4859   24.1559 N   0  0  0  0  0  0  0  0  0  0  0  0
    8.4423  -16.5269   24.3979 C   0  0  1  0  0  0  0  0  0  0  0  0
    7.2426  -15.8504   25.0232 C   0  0  0  0  0  0  0  0  0  0  0  0
    7.6121  -14.8790   26.0666 C   0  0  0  0  0  0  0  0  0  0  0  0
    8.4952  -15.0987   27.0965 C   0  0  0  0  0  0  0  0  0  0  0  0
    8.5642  -13.9791   27.8313 N   0  0  0  0  0  0  0  0  0  0  0  0
    7.7621  -13.0139   27.3369 C   0  0  0  0  0  0  0  0  0  0  0  0
    7.4796  -11.7149   27.7157 C   0  0  0  0  0  0  0  0  0  0  0  0
    6.5956  -10.9391   27.0052 C   0  0  0  0  0  0  0  0  0  0  0  0
    5.9904  -11.4858   25.8980 C   0  0  0  0  0  0  0  0  0  0  0  0
    6.2738  -12.7815   25.5226 C   0  0  0  0  0  0  0  0  0  0  0  0
    7.1593  -13.5862   26.2182 C   0  0  0  0  0  0  0  0  0  0  0  0
    8.1282  -17.1668   23.1130 C   0  0  0  0  0  0  0  0  0  0  0  0
    7.1353  -17.9152   23.0210 O   0  0  0  0  0  0  0  0  0  0  0  0
    8.9313  -16.9500   21.9762 N   0  0  0  0  0  0  0  0  0  0  0  0
    8.7135  -17.6138   20.6919 C   0  0  1  0  0  0  0  0  0  0  0  0
    8.7611  -16.6224   19.5533 C   0  0  0  0  0  0  0  0  0  0  0  0
    7.6941  -15.5809   19.6157 C   0  0  0  0  0  0  0  0  0  0  0  0
    8.1923  -14.1743   19.6507 C   0  0  0  0  0  0  0  0  0  0  0  0
    7.0870  -13.1511   19.6032 C   0  0  0  0  0  0  0  0  0  0  0  0
    7.5839  -11.7890   19.5447 N   0  0  0  0  0  0  0  0  0  0  0  0
    9.8045  -18.6037   20.4369 C   0  0  0  0  0  0  0  0  0  0  0  0
    9.5481  -19.5437   19.6497 O   0  0  0  0  0  0  0  0  0  0  0  0
   11.0863  -18.5372   21.0256 N   0  0  0  0  0  0  0  0  0  0  0  0
   12.1456  -19.4710   20.7660 C   0  0  0  0  0  0  0  0  0  0  0  0
   13.3807  -19.1627   21.5122 C   0  0  0  0  0  0  0  0  0  0  0  0
   13.4083  -18.1806   22.2794 O   0  0  0  0  0  0  0  0  0  0  0  0
   14.5037  -19.9465   21.3720 O   0  0  0  0  0  0  0  0  0  0  0  0
  2  1  1  6
  2  3  1  0
  2 13  1  0
  3  4  1  0
  4  5  2  0
  5  6  1  0
  7  6  1  0
  8  7  2  0
  9  8  1  0
 10 11  1  0
 10  9  2  0
 11 12  2  0
 12  4  1  0
 12  7  1  0
 13 15  1  0
 13 14  2  0
 15 16  1  0
 16 17  1  6
 18 17  1  0
 19 18  1  0
 20 19  1  0
 21 20  1  0
 22 24  1  0
 22 16  1  0
 23 22  2  0
 25 24  1  0
 26 28  1  0
 26 25  1  0
 27 26  2  0
M  END
$$$$
