WKG.pdb
     RDKit          3D

 28 29  0  0  1  0  0  0  0  0999 V2000
    7.3286  -18.3602   24.4260 N   0  0  0  0  0  0  0  0  0  0  0  0
    7.2450  -16.9282   24.2068 C   0  0  1  0  0  0  0  0  0  0  0  0
    7.8684  -16.2702   25.4179 C   0  0  0  0  0  0  0  0  0  0  0  0
    7.0080  -15.2336   26.0129 C   0  0  0  0  0  0  0  0  0  0  0  0
    5.7060  -15.4021   26.4192 C   0  0  0  0  0  0  0  0  0  0  0  0
    5.2672  -14.2318   26.9055 N   0  0  0  0  0  0  0  0  0  0  0  0
    6.2226  -13.2818   26.8425 C   0  0  0  0  0  0  0  0  0  0  0  0
    6.2741  -11.9486   27.2038 C   0  0  0  0  0  0  0  0  0  0  0  0
    7.4122  -11.2011   27.0192 C   0  0  0  0  0  0  0  0  0  0  0  0
    8.5113  -11.8116   26.4620 C   0  0  0  0  0  0  0  0  0  0  0  0
    8.4573  -13.1413   26.1027 C   0  0  0  0  0  0  0  0  0  0  0  0
    7.3255  -13.9187   26.2765 C   0  0  0  0  0  0  0  0  0  0  0  0
    7.9565  -16.6141   22.9602 C   0  0  0  0  0  0  0  0  0  0  0  0
    8.8897  -17.3476   22.5788 O   0  0  0  0  0  0  0  0  0  0  0  0
    7.6030  -15.4938   22.1827 N   0  0  0  0  0  0  0  0  0  0  0  0
    8.2079  -15.1823   20.8886 C   0  0  1  0  0  0  0  0  0  0  0  0
    7.6764  -13.8792   20.3404 C   0  0  0  0  0  0  0  0  0  0  0  0
    8.1847  -13.5464   18.9773 C   0  0  0  0  0  0  0  0  0  0  0  0
    7.3045  -13.9870   17.8552 C   0  0  0  0  0  0  0  0  0  0  0  0
    7.9706  -13.8953   16.5065 C   0  0  0  0  0  0  0  0  0  0  0  0
    9.1010  -12.9856   16.4983 N   0  0  0  0  0  0  0  0  0  0  0  0
    9.6843  -15.0052   21.0442 C   0  0  0  0  0  0  0  0  0  0  0  0
   10.0791  -14.3735   22.0511 O   0  0  0  0  0  0  0  0  0  0  0  0
   10.6410  -15.5030   20.1326 N   0  0  0  0  0  0  0  0  0  0  0  0
   12.0577  -15.3069   20.2587 C   0  0  0  0  0  0  0  0  0  0  0  0
   12.8080  -15.7441   19.0657 C   0  0  0  0  0  0  0  0  0  0  0  0
   12.2361  -16.4281   18.1945 O   0  0  0  0  0  0  0  0  0  0  0  0
   14.1325  -15.4062   18.9024 O   0  0  0  0  0  0  0  0  0  0  0  0
  2  1  1  1
  2  3  1  0
  2 13  1  0
  3  4  1  0
  4  5  2  0
  5  6  1  0
  7  6  1  0
  8  7  2  0
  9  8  1  0
 10 11  1  0
 10  9  2  0
 11 12  2  0
 12  4  1  0
 12  7  1  0
 13 15  1  0
 13 14  2  0
 15 16  1  0
 16 17  1  1
 18 17  1  0
 19 18  1  0
 20 19  1  0
 21 20  1  0
 22 24  1  0
 22 16  1  0
 23 22  2  0
 25 24  1  0
 26 28  1  0
 26 25  1  0
 27 26  2  0
M  END
$$$$
