WKG.pdb
     RDKit          3D

 28 29  0  0  1  0  0  0  0  0999 V2000
    6.7007  -18.0572   25.1406 N   0  0  0  0  0  0  0  0  0  0  0  0
    6.9816  -16.7365   24.6092 C   0  0  1  0  0  0  0  0  0  0  0  0
    7.9467  -16.0813   25.5722 C   0  0  0  0  0  0  0  0  0  0  0  0
    7.3156  -15.0321   26.3906 C   0  0  0  0  0  0  0  0  0  0  0  0
    6.5653  -15.2357   27.5239 C   0  0  0  0  0  0  0  0  0  0  0  0
    6.1679  -14.0390   27.9803 N   0  0  0  0  0  0  0  0  0  0  0  0
    6.6210  -13.0374   27.1988 C   0  0  0  0  0  0  0  0  0  0  0  0
    6.4941  -11.6614   27.2342 C   0  0  0  0  0  0  0  0  0  0  0  0
    7.0790  -10.8645   26.2798 C   0  0  0  0  0  0  0  0  0  0  0  0
    7.8010  -11.4688   25.2774 C   0  0  0  0  0  0  0  0  0  0  0  0
    7.9259  -12.8412   25.2445 C   0  0  0  0  0  0  0  0  0  0  0  0
    7.3483  -13.6688   26.1915 C   0  0  0  0  0  0  0  0  0  0  0  0
    7.5444  -16.8960   23.2613 C   0  0  0  0  0  0  0  0  0  0  0  0
    7.9782  -18.0075   22.8996 O   0  0  0  0  0  0  0  0  0  0  0  0
    7.6037  -15.8116   22.3642 N   0  0  0  0  0  0  0  0  0  0  0  0
    8.3716  -15.8304   21.1201 C   0  0  1  0  0  0  0  0  0  0  0  0
    8.1746  -14.5515   20.3411 C   0  0  0  0  0  0  0  0  0  0  0  0
    7.8312  -14.7671   18.9049 C   0  0  0  0  0  0  0  0  0  0  0  0
    8.2237  -13.6530   17.9924 C   0  0  0  0  0  0  0  0  0  0  0  0
    7.7876  -13.8712   16.5665 C   0  0  0  0  0  0  0  0  0  0  0  0
    8.1478  -12.7696   15.6935 N   0  0  0  0  0  0  0  0  0  0  0  0
    9.8329  -15.9206   21.4230 C   0  0  0  0  0  0  0  0  0  0  0  0
   10.3011  -15.0806   22.2255 O   0  0  0  0  0  0  0  0  0  0  0  0
   10.6986  -16.8852   20.8626 N   0  0  0  0  0  0  0  0  0  0  0  0
   12.1068  -16.9624   21.1319 C   0  0  0  0  0  0  0  0  0  0  0  0
   12.9333  -16.4224   20.0352 C   0  0  0  0  0  0  0  0  0  0  0  0
   12.3871  -16.0463   18.9796 O   0  0  0  0  0  0  0  0  0  0  0  0
   14.3007  -16.3285   20.1629 O   0  0  0  0  0  0  0  0  0  0  0  0
  2  1  1  1
  2  3  1  0
  2 13  1  0
  3  4  1  0
  4  5  2  0
  5  6  1  0
  7  6  1  0
  8  7  2  0
  9  8  1  0
 10 11  1  0
 10  9  2  0
 11 12  2  0
 12  4  1  0
 12  7  1  0
 13 15  1  0
 13 14  2  0
 15 16  1  0
 16 17  1  1
 18 17  1  0
 19 18  1  0
 20 19  1  0
 21 20  1  0
 22 24  1  0
 22 16  1  0
 23 22  2  0
 25 24  1  0
 26 28  1  0
 26 25  1  0
 27 26  2  0
M  END
$$$$
