WKG.pdb
     RDKit          3D

 28 29  0  0  1  0  0  0  0  0999 V2000
    6.8205  -16.3888   23.2731 N   0  0  0  0  0  0  0  0  0  0  0  0
    8.0340  -15.6115   23.4433 C   0  0  1  0  0  0  0  0  0  0  0  0
    8.3901  -15.6851   24.9116 C   0  0  0  0  0  0  0  0  0  0  0  0
    7.4284  -14.9736   25.7705 C   0  0  0  0  0  0  0  0  0  0  0  0
    6.3540  -15.5368   26.4166 C   0  0  0  0  0  0  0  0  0  0  0  0
    5.7229  -14.5683   27.0963 N   0  0  0  0  0  0  0  0  0  0  0  0
    6.3300  -13.3749   26.9334 C   0  0  0  0  0  0  0  0  0  0  0  0
    6.0814  -12.1003   27.4071 C   0  0  0  0  0  0  0  0  0  0  0  0
    6.8889  -11.0414   27.0681 C   0  0  0  0  0  0  0  0  0  0  0  0
    7.9609  -11.2765   26.2394 C   0  0  0  0  0  0  0  0  0  0  0  0
    8.2064  -12.5485   25.7684 C   0  0  0  0  0  0  0  0  0  0  0  0
    7.4110  -13.6338   26.0926 C   0  0  0  0  0  0  0  0  0  0  0  0
    9.0716  -16.1881   22.5774 C   0  0  0  0  0  0  0  0  0  0  0  0
   10.2141  -16.3924   23.0328 O   0  0  0  0  0  0  0  0  0  0  0  0
    8.7996  -16.5168   21.2350 N   0  0  0  0  0  0  0  0  0  0  0  0
    9.0403  -15.6097   20.1139 C   0  0  1  0  0  0  0  0  0  0  0  0
    8.0579  -14.4625   20.1231 C   0  0  0  0  0  0  0  0  0  0  0  0
    8.2317  -13.5107   18.9869 C   0  0  0  0  0  0  0  0  0  0  0  0
    8.0439  -14.1099   17.6328 C   0  0  0  0  0  0  0  0  0  0  0  0
    8.3118  -13.1396   16.5113 C   0  0  0  0  0  0  0  0  0  0  0  0
    8.0711  -13.7145   15.2009 N   0  0  0  0  0  0  0  0  0  0  0  0
   10.4014  -15.0023   20.2314 C   0  0  0  0  0  0  0  0  0  0  0  0
   10.5858  -14.1957   21.1717 O   0  0  0  0  0  0  0  0  0  0  0  0
   11.4716  -15.2841   19.3544 N   0  0  0  0  0  0  0  0  0  0  0  0
   12.7036  -14.5477   19.3181 C   0  0  0  0  0  0  0  0  0  0  0  0
   13.5827  -14.9504   18.2035 C   0  0  0  0  0  0  0  0  0  0  0  0
   13.3595  -16.0163   17.5968 O   0  0  0  0  0  0  0  0  0  0  0  0
   14.6468  -14.1636   17.8247 O   0  0  0  0  0  0  0  0  0  0  0  0
  2  1  1  1
  2  3  1  0
  2 13  1  0
  3  4  1  0
  4  5  2  0
  5  6  1  0
  7  6  1  0
  8  7  2  0
  9  8  1  0
 10 11  1  0
 10  9  2  0
 11 12  2  0
 12  4  1  0
 12  7  1  0
 13 15  1  0
 13 14  2  0
 15 16  1  0
 16 17  1  1
 18 17  1  0
 19 18  1  0
 20 19  1  0
 21 20  1  0
 22 24  1  0
 22 16  1  0
 23 22  2  0
 25 24  1  0
 26 28  1  0
 26 25  1  0
 27 26  2  0
M  END
$$$$
