WKG.pdb
     RDKit          3D

 28 29  0  0  1  0  0  0  0  0999 V2000
    6.3253  -17.9893   24.3130 N   0  0  0  0  0  0  0  0  0  0  0  0
    6.8770  -16.7322   23.8427 C   0  0  1  0  0  0  0  0  0  0  0  0
    7.7910  -16.2269   24.9370 C   0  0  0  0  0  0  0  0  0  0  0  0
    7.1523  -15.2145   25.7947 C   0  0  0  0  0  0  0  0  0  0  0  0
    6.2129  -15.4586   26.7677 C   0  0  0  0  0  0  0  0  0  0  0  0
    5.8772  -14.2862   27.3254 N   0  0  0  0  0  0  0  0  0  0  0  0
    6.5537  -13.2619   26.7662 C   0  0  0  0  0  0  0  0  0  0  0  0
    6.5699  -11.8957   26.9759 C   0  0  0  0  0  0  0  0  0  0  0  0
    7.3816  -11.0686   26.2376 C   0  0  0  0  0  0  0  0  0  0  0  0
    8.1864  -11.6321   25.2754 C   0  0  0  0  0  0  0  0  0  0  0  0
    8.1681  -12.9948   25.0683 C   0  0  0  0  0  0  0  0  0  0  0  0
    7.3615  -13.8523   25.7960 C   0  0  0  0  0  0  0  0  0  0  0  0
    7.5872  -16.9877   22.5820 C   0  0  0  0  0  0  0  0  0  0  0  0
    8.1387  -18.0900   22.3950 O   0  0  0  0  0  0  0  0  0  0  0  0
    7.6576  -16.0059   21.5743 N   0  0  0  0  0  0  0  0  0  0  0  0
    8.7138  -15.9555   20.5646 C   0  0  1  0  0  0  0  0  0  0  0  0
    8.6054  -14.7030   19.7275 C   0  0  0  0  0  0  0  0  0  0  0  0
    8.2447  -14.9596   18.3023 C   0  0  0  0  0  0  0  0  0  0  0  0
    8.0890  -13.7341   17.4646 C   0  0  0  0  0  0  0  0  0  0  0  0
    7.7282  -14.0350   16.0327 C   0  0  0  0  0  0  0  0  0  0  0  0
    7.5506  -12.8368   15.2339 N   0  0  0  0  0  0  0  0  0  0  0  0
   10.0528  -15.9066   21.2280 C   0  0  0  0  0  0  0  0  0  0  0  0
   10.1416  -15.2372   22.2829 O   0  0  0  0  0  0  0  0  0  0  0  0
   11.2028  -16.5630   20.7375 N   0  0  0  0  0  0  0  0  0  0  0  0
   12.5208  -16.4031   21.2841 C   0  0  0  0  0  0  0  0  0  0  0  0
   13.5676  -17.0340   20.4572 C   0  0  0  0  0  0  0  0  0  0  0  0
   14.7637  -16.9304   20.7927 O   0  0  0  0  0  0  0  0  0  0  0  0
   13.2399  -17.7360   19.3194 O   0  0  0  0  0  0  0  0  0  0  0  0
  2  1  1  1
  2  3  1  0
  2 13  1  0
  3  4  1  0
  4  5  2  0
  5  6  1  0
  7  6  1  0
  8  7  2  0
  9  8  1  0
 10 11  1  0
 10  9  2  0
 11 12  2  0
 12  4  1  0
 12  7  1  0
 13 15  1  0
 13 14  2  0
 15 16  1  0
 16 17  1  1
 18 17  1  0
 19 18  1  0
 20 19  1  0
 21 20  1  0
 22 24  1  0
 22 16  1  0
 23 22  2  0
 25 24  1  0
 26 28  1  0
 26 25  1  0
 27 26  2  0
M  END
$$$$
