WDY.pdb
     RDKit          3D

 35 37  0  0  1  0  0  0  0  0999 V2000
    8.9527  -18.1655   21.4803 N   0  0  0  0  0  0  0  0  0  0  0  0
    9.4245  -17.0313   22.3080 C   0  0  1  0  0  0  0  0  0  0  0  0
    8.2733  -16.4923   23.0095 C   0  0  0  0  0  0  0  0  0  0  0  0
    7.3175  -15.7192   22.2054 C   0  0  0  0  0  0  0  0  0  0  0  0
    6.0305  -16.0632   21.9110 C   0  0  0  0  0  0  0  0  0  0  0  0
    5.4536  -15.1551   21.1125 N   0  0  0  0  0  0  0  0  0  0  0  0
    6.3867  -14.2031   20.8848 C   0  0  0  0  0  0  0  0  0  0  0  0
    6.3305  -13.0302   20.1241 C   0  0  0  0  0  0  0  0  0  0  0  0
    7.4294  -12.2263   20.0525 C   0  0  0  0  0  0  0  0  0  0  0  0
    8.6043  -12.5394   20.7143 C   0  0  0  0  0  0  0  0  0  0  0  0
    8.6603  -13.6865   21.4586 C   0  0  0  0  0  0  0  0  0  0  0  0
    7.5529  -14.5193   21.5453 C   0  0  0  0  0  0  0  0  0  0  0  0
   10.6674  -17.3795   22.9746 C   0  0  0  0  0  0  0  0  0  0  0  0
   10.8518  -18.6187   23.3416 O   0  0  0  0  0  0  0  0  0  0  0  0
   11.7655  -16.5665   23.3151 N   0  0  0  0  0  0  0  0  0  0  0  0
   12.8317  -16.9699   24.2403 C   0  0  1  0  0  0  0  0  0  0  0  0
   13.9763  -16.0237   24.1742 C   0  0  0  0  0  0  0  0  0  0  0  0
   14.7030  -16.0258   22.9036 C   0  0  0  0  0  0  0  0  0  0  0  0
   14.7592  -17.0517   22.1866 O   0  0  0  0  0  0  0  0  0  0  0  0
   12.3001  -17.1385   25.6054 C   0  0  0  0  0  0  0  0  0  0  0  0
   13.0903  -17.3318   26.6016 O   0  0  0  0  0  0  0  0  0  0  0  0
   15.3458  -14.8838   22.4694 O   0  0  0  0  0  0  0  0  0  0  0  0
    7.7109  -11.6639   25.6843 O   0  0  0  0  0  0  0  0  0  0  0  0
    8.0062  -12.9722   26.0442 C   0  0  0  0  0  0  0  0  0  0  0  0
    8.6115  -13.2007   27.2652 C   0  0  0  0  0  0  0  0  0  0  0  0
    8.9171  -14.4882   27.6503 C   0  0  0  0  0  0  0  0  0  0  0  0
    8.6442  -15.6055   26.8583 C   0  0  0  0  0  0  0  0  0  0  0  0
    8.9926  -16.9690   27.3073 C   0  0  0  0  0  0  0  0  0  0  0  0
   10.4906  -17.1842   27.3616 C   0  0  2  0  0  0  0  0  0  0  0  0
   10.9318  -17.1042   25.9684 N   0  0  0  0  0  0  0  0  0  0  0  0
   10.7757  -18.4615   28.0038 C   0  0  0  0  0  0  0  0  0  0  0  0
   11.1227  -19.4456   27.2651 O   0  0  0  0  0  0  0  0  0  0  0  0
    8.0370  -15.3556   25.6377 C   0  0  0  0  0  0  0  0  0  0  0  0
    7.7316  -14.0632   25.2542 C   0  0  0  0  0  0  0  0  0  0  0  0
   10.6925  -18.6670   29.3774 O   0  0  0  0  0  0  0  0  0  0  0  0
  2  1  1  1
  2  3  1  0
  4  5  2  0
  4  3  1  0
  6  5  1  0
  7 12  2  0
  7  6  1  0
  8  7  1  0
  9  8  2  0
  9 10  1  0
 10 11  2  0
 11 12  1  0
 12  4  1  0
 13  2  1  0
 14 13  2  0
 15 13  1  0
 16 17  1  1
 16 15  1  0
 17 18  1  0
 18 19  2  0
 18 22  1  0
 20 30  1  0
 20 16  1  0
 21 20  2  0
 23 24  1  0
 24 34  2  0
 25 24  1  0
 25 26  2  0
 26 27  1  0
 27 33  2  0
 27 28  1  0
 29 30  1  0
 29 28  1  6
 31 35  1  0
 31 29  1  0
 32 31  2  0
 34 33  1  0
M  END
$$$$
