WDY.pdb
     RDKit          3D

 35 37  0  0  1  0  0  0  0  0999 V2000
    7.2495  -18.6034   25.7204 N   0  0  0  0  0  0  0  0  0  0  0  0
    7.3194  -17.7383   24.5200 C   0  0  1  0  0  0  0  0  0  0  0  0
    7.9408  -16.4877   24.9172 C   0  0  0  0  0  0  0  0  0  0  0  0
    7.0865  -15.5267   25.6274 C   0  0  0  0  0  0  0  0  0  0  0  0
    5.8880  -15.7849   26.2261 C   0  0  0  0  0  0  0  0  0  0  0  0
    5.3495  -14.6708   26.7398 N   0  0  0  0  0  0  0  0  0  0  0  0
    6.2174  -13.6700   26.4679 C   0  0  0  0  0  0  0  0  0  0  0  0
    6.1622  -12.3044   26.7672 C   0  0  0  0  0  0  0  0  0  0  0  0
    7.1832  -11.4914   26.3726 C   0  0  0  0  0  0  0  0  0  0  0  0
    8.2777  -11.9815   25.6810 C   0  0  0  0  0  0  0  0  0  0  0  0
    8.3326  -13.3171   25.3876 C   0  0  0  0  0  0  0  0  0  0  0  0
    7.3040  -14.1628   25.7802 C   0  0  0  0  0  0  0  0  0  0  0  0
    7.7563  -18.5104   23.3697 C   0  0  0  0  0  0  0  0  0  0  0  0
    8.5896  -19.4969   23.5614 O   0  0  0  0  0  0  0  0  0  0  0  0
    7.4211  -18.3687   22.0095 N   0  0  0  0  0  0  0  0  0  0  0  0
    8.3713  -18.5499   20.9051 C   0  0  1  0  0  0  0  0  0  0  0  0
    7.6896  -18.4103   19.5916 C   0  0  0  0  0  0  0  0  0  0  0  0
    8.5456  -18.6423   18.4271 C   0  0  0  0  0  0  0  0  0  0  0  0
    9.3765  -19.5797   18.4054 O   0  0  0  0  0  0  0  0  0  0  0  0
    9.5242  -17.6429   21.0565 C   0  0  0  0  0  0  0  0  0  0  0  0
   10.6003  -17.8250   20.3759 O   0  0  0  0  0  0  0  0  0  0  0  0
    8.4500  -17.8222   17.3206 O   0  0  0  0  0  0  0  0  0  0  0  0
    7.1659  -12.4473   17.9235 O   0  0  0  0  0  0  0  0  0  0  0  0
    7.9689  -12.8912   18.9658 C   0  0  0  0  0  0  0  0  0  0  0  0
    7.3611  -13.4148   20.0910 C   0  0  0  0  0  0  0  0  0  0  0  0
    8.1314  -13.8634   21.1420 C   0  0  0  0  0  0  0  0  0  0  0  0
    9.5272  -13.8188   21.1372 C   0  0  0  0  0  0  0  0  0  0  0  0
   10.3153  -14.3064   22.2876 C   0  0  0  0  0  0  0  0  0  0  0  0
   10.8017  -15.7258   22.0827 C   0  0  2  0  0  0  0  0  0  0  0  0
    9.5834  -16.5196   21.9166 N   0  0  0  0  0  0  0  0  0  0  0  0
   11.6236  -16.1272   23.2178 C   0  0  0  0  0  0  0  0  0  0  0  0
   12.7360  -15.5246   23.4021 O   0  0  0  0  0  0  0  0  0  0  0  0
   10.1177  -13.2905   20.0001 C   0  0  0  0  0  0  0  0  0  0  0  0
    9.3426  -12.8414   18.9475 C   0  0  0  0  0  0  0  0  0  0  0  0
   11.2620  -17.1294   24.1127 O   0  0  0  0  0  0  0  0  0  0  0  0
  2  1  1  1
  2  3  1  0
  4  5  2  0
  4  3  1  0
  6  5  1  0
  7 12  2  0
  7  6  1  0
  8  7  1  0
  9  8  2  0
  9 10  1  0
 10 11  2  0
 11 12  1  0
 12  4  1  0
 13  2  1  0
 14 13  2  0
 15 13  1  0
 16 17  1  6
 16 15  1  0
 17 18  1  0
 18 19  2  0
 18 22  1  0
 20 30  1  0
 20 16  1  0
 21 20  2  0
 23 24  1  0
 24 34  2  0
 25 24  1  0
 25 26  2  0
 26 27  1  0
 27 33  2  0
 27 28  1  0
 29 30  1  0
 29 28  1  1
 31 35  1  0
 31 29  1  0
 32 31  2  0
 34 33  1  0
M  END
$$$$
