WDY.pdb
     RDKit          3D

 35 37  0  0  1  0  0  0  0  0999 V2000
    8.1000  -16.4157   19.4562 N   0  0  0  0  0  0  0  0  0  0  0  0
    8.4380  -16.0407   20.8487 C   0  0  1  0  0  0  0  0  0  0  0  0
    7.1927  -15.7672   21.5431 C   0  0  0  0  0  0  0  0  0  0  0  0
    6.8338  -14.3532   21.7152 C   0  0  0  0  0  0  0  0  0  0  0  0
    6.4235  -13.4896   20.7420 C   0  0  0  0  0  0  0  0  0  0  0  0
    6.2256  -12.2591   21.2337 N   0  0  0  0  0  0  0  0  0  0  0  0
    6.5142  -12.3272   22.5532 C   0  0  0  0  0  0  0  0  0  0  0  0
    6.4824  -11.3445   23.5486 C   0  0  0  0  0  0  0  0  0  0  0  0
    6.8280  -11.6747   24.8255 C   0  0  0  0  0  0  0  0  0  0  0  0
    7.2111  -12.9607   25.1662 C   0  0  0  0  0  0  0  0  0  0  0  0
    7.2425  -13.9226   24.1932 C   0  0  0  0  0  0  0  0  0  0  0  0
    6.8944  -13.6081   22.8866 C   0  0  0  0  0  0  0  0  0  0  0  0
    9.4598  -16.9298   21.3738 C   0  0  0  0  0  0  0  0  0  0  0  0
    9.3468  -18.2108   21.1488 O   0  0  0  0  0  0  0  0  0  0  0  0
   10.6114  -16.6330   22.1277 N   0  0  0  0  0  0  0  0  0  0  0  0
   11.5989  -17.6342   22.5494 C   0  0  1  0  0  0  0  0  0  0  0  0
   12.1246  -18.3852   21.3793 C   0  0  0  0  0  0  0  0  0  0  0  0
   13.1696  -19.3607   21.6939 C   0  0  0  0  0  0  0  0  0  0  0  0
   12.9827  -20.5895   21.5366 O   0  0  0  0  0  0  0  0  0  0  0  0
   12.6613  -17.0088   23.3588 C   0  0  0  0  0  0  0  0  0  0  0  0
   13.8689  -17.4491   23.3154 O   0  0  0  0  0  0  0  0  0  0  0  0
   14.3925  -18.9375   22.1748 O   0  0  0  0  0  0  0  0  0  0  0  0
    9.9963  -15.5123   31.6119 O   0  0  0  0  0  0  0  0  0  0  0  0
   10.2136  -15.5967   30.2430 C   0  0  0  0  0  0  0  0  0  0  0  0
   10.7766  -14.5134   29.5956 C   0  0  0  0  0  0  0  0  0  0  0  0
   11.0043  -14.5670   28.2375 C   0  0  0  0  0  0  0  0  0  0  0  0
   10.6912  -15.6811   27.4558 C   0  0  0  0  0  0  0  0  0  0  0  0
   10.9478  -15.6954   26.0011 C   0  0  0  0  0  0  0  0  0  0  0  0
   12.3812  -16.0639   25.6802 C   0  0  2  0  0  0  0  0  0  0  0  0
   12.4937  -15.9049   24.2297 N   0  0  0  0  0  0  0  0  0  0  0  0
   12.6538  -17.4154   26.1538 C   0  0  0  0  0  0  0  0  0  0  0  0
   12.0034  -18.3828   25.6288 O   0  0  0  0  0  0  0  0  0  0  0  0
   10.1276  -16.7570   28.1233 C   0  0  0  0  0  0  0  0  0  0  0  0
    9.9004  -16.7004   29.4856 C   0  0  0  0  0  0  0  0  0  0  0  0
   13.5849  -17.7096   27.1449 O   0  0  0  0  0  0  0  0  0  0  0  0
  2  1  1  6
  2  3  1  0
  4  5  2  0
  4  3  1  0
  6  5  1  0
  7 12  2  0
  7  6  1  0
  8  7  1  0
  9  8  2  0
  9 10  1  0
 10 11  2  0
 11 12  1  0
 12  4  1  0
 13  2  1  0
 14 13  2  0
 15 13  1  0
 16 17  1  6
 16 15  1  0
 17 18  1  0
 18 19  2  0
 18 22  1  0
 20 30  1  0
 20 16  1  0
 21 20  2  0
 23 24  1  0
 24 34  2  0
 25 24  1  0
 25 26  2  0
 26 27  1  0
 27 33  2  0
 27 28  1  0
 29 30  1  0
 29 28  1  6
 31 35  1  0
 31 29  1  0
 32 31  2  0
 34 33  1  0
M  END
$$$$
