WDY.pdb
     RDKit          3D

 35 37  0  0  1  0  0  0  0  0999 V2000
    7.5184  -17.1489   22.5660 N   0  0  0  0  0  0  0  0  0  0  0  0
    8.8587  -16.8967   23.1441 C   0  0  1  0  0  0  0  0  0  0  0  0
    8.6882  -15.9914   24.2663 C   0  0  0  0  0  0  0  0  0  0  0  0
    7.7647  -14.8665   24.0677 C   0  0  0  0  0  0  0  0  0  0  0  0
    6.7305  -14.5045   24.8807 C   0  0  0  0  0  0  0  0  0  0  0  0
    6.0577  -13.4605   24.3783 N   0  0  0  0  0  0  0  0  0  0  0  0
    6.6688  -13.1397   23.2153 C   0  0  0  0  0  0  0  0  0  0  0  0
    6.3877  -12.1380   22.2799 C   0  0  0  0  0  0  0  0  0  0  0  0
    7.1681  -12.0237   21.1676 C   0  0  0  0  0  0  0  0  0  0  0  0
    8.2353  -12.8747   20.9369 C   0  0  0  0  0  0  0  0  0  0  0  0
    8.5111  -13.8549   21.8514 C   0  0  0  0  0  0  0  0  0  0  0  0
    7.7294  -13.9890   22.9909 C   0  0  0  0  0  0  0  0  0  0  0  0
    9.6082  -18.1378   23.2336 C   0  0  0  0  0  0  0  0  0  0  0  0
    9.4245  -19.0446   22.3125 O   0  0  0  0  0  0  0  0  0  0  0  0
   10.5467  -18.5561   24.1964 N   0  0  0  0  0  0  0  0  0  0  0  0
   11.9295  -18.0675   24.2634 C   0  0  1  0  0  0  0  0  0  0  0  0
   12.2118  -17.1225   23.1513 C   0  0  0  0  0  0  0  0  0  0  0  0
   13.6287  -16.9754   22.8143 C   0  0  0  0  0  0  0  0  0  0  0  0
   14.4358  -17.9218   22.9640 O   0  0  0  0  0  0  0  0  0  0  0  0
   12.2160  -17.4967   25.5927 C   0  0  0  0  0  0  0  0  0  0  0  0
   13.3806  -17.0278   25.8719 O   0  0  0  0  0  0  0  0  0  0  0  0
   14.1041  -15.7772   22.3202 O   0  0  0  0  0  0  0  0  0  0  0  0
    7.2582  -13.0955   26.0345 O   0  0  0  0  0  0  0  0  0  0  0  0
    8.0773  -14.0038   26.6920 C   0  0  0  0  0  0  0  0  0  0  0  0
    7.5015  -14.8841   27.5882 C   0  0  0  0  0  0  0  0  0  0  0  0
    8.2884  -15.7971   28.2563 C   0  0  0  0  0  0  0  0  0  0  0  0
    9.6703  -15.8877   28.0766 C   0  0  0  0  0  0  0  0  0  0  0  0
   10.4779  -16.8787   28.8168 C   0  0  0  0  0  0  0  0  0  0  0  0
   11.7259  -17.2768   28.0568 C   0  0  2  0  0  0  0  0  0  0  0  0
   11.2947  -17.3949   26.6632 N   0  0  0  0  0  0  0  0  0  0  0  0
   12.2660  -18.5084   28.6192 C   0  0  0  0  0  0  0  0  0  0  0  0
   12.1371  -19.5878   27.9462 O   0  0  0  0  0  0  0  0  0  0  0  0
   10.2288  -14.9966   27.1738 C   0  0  0  0  0  0  0  0  0  0  0  0
    9.4370  -14.0820   26.5051 C   0  0  0  0  0  0  0  0  0  0  0  0
   12.9158  -18.5726   29.8478 O   0  0  0  0  0  0  0  0  0  0  0  0
  2  1  1  1
  2  3  1  0
  4  5  2  0
  4  3  1  0
  6  5  1  0
  7 12  2  0
  7  6  1  0
  8  7  1  0
  9  8  2  0
  9 10  1  0
 10 11  2  0
 11 12  1  0
 12  4  1  0
 13  2  1  0
 14 13  2  0
 15 13  1  0
 16 17  1  6
 16 15  1  0
 17 18  1  0
 18 19  2  0
 18 22  1  0
 20 30  1  0
 20 16  1  0
 21 20  2  0
 23 24  1  0
 24 34  2  0
 25 24  1  0
 25 26  2  0
 26 27  1  0
 27 33  2  0
 27 28  1  0
 29 30  1  0
 29 28  1  1
 31 35  1  0
 31 29  1  0
 32 31  2  0
 34 33  1  0
M  END
$$$$
