WDY.pdb
     RDKit          3D

 35 37  0  0  1  0  0  0  0  0999 V2000
    8.8850  -17.4883   20.9732 N   0  0  0  0  0  0  0  0  0  0  0  0
    9.4353  -16.5799   22.0057 C   0  0  1  0  0  0  0  0  0  0  0  0
    8.3337  -15.7911   22.5271 C   0  0  0  0  0  0  0  0  0  0  0  0
    7.6196  -14.9432   21.5632 C   0  0  0  0  0  0  0  0  0  0  0  0
    6.2816  -14.9568   21.2967 C   0  0  0  0  0  0  0  0  0  0  0  0
    5.9691  -14.0884   20.3254 N   0  0  0  0  0  0  0  0  0  0  0  0
    7.1291  -13.5004   19.9548 C   0  0  0  0  0  0  0  0  0  0  0  0
    7.3919  -12.5236   18.9882 C   0  0  0  0  0  0  0  0  0  0  0  0
    8.6723  -12.0926   18.8038 C   0  0  0  0  0  0  0  0  0  0  0  0
    9.7241  -12.5966   19.5496 C   0  0  0  0  0  0  0  0  0  0  0  0
    9.4681  -13.5520   20.4954 C   0  0  0  0  0  0  0  0  0  0  0  0
    8.1718  -14.0050   20.6997 C   0  0  0  0  0  0  0  0  0  0  0  0
   10.3704  -17.2955   22.8566 C   0  0  0  0  0  0  0  0  0  0  0  0
   10.7093  -18.5119   22.5252 O   0  0  0  0  0  0  0  0  0  0  0  0
   11.0059  -16.8827   24.0434 N   0  0  0  0  0  0  0  0  0  0  0  0
   12.2890  -17.4159   24.5174 C   0  0  1  0  0  0  0  0  0  0  0  0
   13.3451  -17.2511   23.4844 C   0  0  0  0  0  0  0  0  0  0  0  0
   14.6551  -17.7905   23.8530 C   0  0  0  0  0  0  0  0  0  0  0  0
   14.7607  -18.8135   24.5684 O   0  0  0  0  0  0  0  0  0  0  0  0
   12.6531  -16.8186   25.8157 C   0  0  0  0  0  0  0  0  0  0  0  0
   13.1503  -15.6343   25.8804 O   0  0  0  0  0  0  0  0  0  0  0  0
   15.8090  -17.1733   23.4130 O   0  0  0  0  0  0  0  0  0  0  0  0
    7.6635  -12.0406   26.8551 O   0  0  0  0  0  0  0  0  0  0  0  0
    8.2471  -13.2993   26.9116 C   0  0  0  0  0  0  0  0  0  0  0  0
    9.2634  -13.5158   27.8226 C   0  0  0  0  0  0  0  0  0  0  0  0
    9.8623  -14.7545   27.9022 C   0  0  0  0  0  0  0  0  0  0  0  0
    9.4933  -15.8325   27.0948 C   0  0  0  0  0  0  0  0  0  0  0  0
   10.1649  -17.1433   27.2095 C   0  0  0  0  0  0  0  0  0  0  0  0
   11.4439  -17.0582   28.0158 C   0  0  2  0  0  0  0  0  0  0  0  0
   12.5032  -17.4380   27.0802 N   0  0  0  0  0  0  0  0  0  0  0  0
   11.3417  -17.9253   29.1832 C   0  0  0  0  0  0  0  0  0  0  0  0
   10.8580  -17.4348   30.2603 O   0  0  0  0  0  0  0  0  0  0  0  0
    8.4725  -15.5954   26.1879 C   0  0  0  0  0  0  0  0  0  0  0  0
    7.8736  -14.3521   26.1104 C   0  0  0  0  0  0  0  0  0  0  0  0
   11.7404  -19.2583   29.1882 O   0  0  0  0  0  0  0  0  0  0  0  0
  2  1  1  6
  2  3  1  0
  4  5  2  0
  4  3  1  0
  6  5  1  0
  7 12  2  0
  7  6  1  0
  8  7  1  0
  9  8  2  0
  9 10  1  0
 10 11  2  0
 11 12  1  0
 12  4  1  0
 13  2  1  0
 14 13  2  0
 15 13  1  0
 16 17  1  6
 16 15  1  0
 17 18  1  0
 18 19  2  0
 18 22  1  0
 20 30  1  0
 20 16  1  0
 21 20  2  0
 23 24  1  0
 24 34  2  0
 25 24  1  0
 25 26  2  0
 26 27  1  0
 27 33  2  0
 27 28  1  0
 29 30  1  0
 29 28  1  6
 31 35  1  0
 31 29  1  0
 32 31  2  0
 34 33  1  0
M  END
$$$$
