WDY.pdb
     RDKit          3D

 35 37  0  0  1  0  0  0  0  0999 V2000
    7.3024  -17.4064   23.9470 N   0  0  0  0  0  0  0  0  0  0  0  0
    8.3346  -16.3559   23.7883 C   0  0  1  0  0  0  0  0  0  0  0  0
    8.4557  -15.6653   25.0596 C   0  0  0  0  0  0  0  0  0  0  0  0
    7.2881  -14.8899   25.4992 C   0  0  0  0  0  0  0  0  0  0  0  0
    6.1891  -15.3663   26.1523 C   0  0  0  0  0  0  0  0  0  0  0  0
    5.2873  -14.3974   26.3603 N   0  0  0  0  0  0  0  0  0  0  0  0
    5.8133  -13.2698   25.8304 C   0  0  0  0  0  0  0  0  0  0  0  0
    5.3061  -11.9677   25.7625 C   0  0  0  0  0  0  0  0  0  0  0  0
    6.0459  -10.9922   25.1624 C   0  0  0  0  0  0  0  0  0  0  0  0
    7.2904  -11.2553   24.6159 C   0  0  0  0  0  0  0  0  0  0  0  0
    7.7874  -12.5287   24.6818 C   0  0  0  0  0  0  0  0  0  0  0  0
    7.0509  -13.5370   25.2886 C   0  0  0  0  0  0  0  0  0  0  0  0
    9.4763  -16.8805   23.0592 C   0  0  0  0  0  0  0  0  0  0  0  0
    9.6710  -18.1714   23.0511 O   0  0  0  0  0  0  0  0  0  0  0  0
   10.4650  -16.2000   22.3229 N   0  0  0  0  0  0  0  0  0  0  0  0
   11.5884  -16.8613   21.6475 C   0  0  1  0  0  0  0  0  0  0  0  0
   11.5932  -16.5455   20.1950 C   0  0  0  0  0  0  0  0  0  0  0  0
   12.7407  -17.0730   19.4550 C   0  0  0  0  0  0  0  0  0  0  0  0
   13.1841  -18.2241   19.6741 O   0  0  0  0  0  0  0  0  0  0  0  0
   12.8624  -16.5332   22.3138 C   0  0  0  0  0  0  0  0  0  0  0  0
   13.9548  -17.1206   21.9738 O   0  0  0  0  0  0  0  0  0  0  0  0
   13.3603  -16.3016   18.4922 O   0  0  0  0  0  0  0  0  0  0  0  0
   11.0598  -16.1794   30.8457 O   0  0  0  0  0  0  0  0  0  0  0  0
   11.1826  -16.0973   29.4649 C   0  0  0  0  0  0  0  0  0  0  0  0
   11.5194  -17.2388   28.7628 C   0  0  0  0  0  0  0  0  0  0  0  0
   11.6488  -17.1890   27.3916 C   0  0  0  0  0  0  0  0  0  0  0  0
   11.4549  -16.0217   26.6500 C   0  0  0  0  0  0  0  0  0  0  0  0
   11.6082  -16.0107   25.1807 C   0  0  0  0  0  0  0  0  0  0  0  0
   13.0624  -15.9584   24.7613 C   0  0  2  0  0  0  0  0  0  0  0  0
   13.0317  -15.5805   23.3477 N   0  0  0  0  0  0  0  0  0  0  0  0
   13.6899  -17.2486   25.0190 C   0  0  0  0  0  0  0  0  0  0  0  0
   13.2999  -18.2576   24.3375 O   0  0  0  0  0  0  0  0  0  0  0  0
   11.1177  -14.8878   27.3721 C   0  0  0  0  0  0  0  0  0  0  0  0
   10.9885  -14.9409   28.7473 C   0  0  0  0  0  0  0  0  0  0  0  0
   14.6917  -17.4412   25.9652 O   0  0  0  0  0  0  0  0  0  0  0  0
  2  1  1  1
  2  3  1  0
  4  5  2  0
  4  3  1  0
  6  5  1  0
  7 12  2  0
  7  6  1  0
  8  7  1  0
  9  8  2  0
  9 10  1  0
 10 11  2  0
 11 12  1  0
 12  4  1  0
 13  2  1  0
 14 13  2  0
 15 13  1  0
 16 17  1  6
 16 15  1  0
 17 18  1  0
 18 19  2  0
 18 22  1  0
 20 30  1  0
 20 16  1  0
 21 20  2  0
 23 24  1  0
 24 34  2  0
 25 24  1  0
 25 26  2  0
 26 27  1  0
 27 33  2  0
 27 28  1  0
 29 30  1  0
 29 28  1  6
 31 35  1  0
 31 29  1  0
 32 31  2  0
 34 33  1  0
M  END
$$$$
