WDY.pdb
     RDKit          3D

 35 37  0  0  1  0  0  0  0  0999 V2000
    6.5035  -19.3547   25.9697 N   0  0  0  0  0  0  0  0  0  0  0  0
    6.9257  -18.1812   25.1705 C   0  0  1  0  0  0  0  0  0  0  0  0
    7.5276  -17.2245   26.0816 C   0  0  0  0  0  0  0  0  0  0  0  0
    6.8646  -15.9185   26.1943 C   0  0  0  0  0  0  0  0  0  0  0  0
    5.5303  -15.6912   26.3651 C   0  0  0  0  0  0  0  0  0  0  0  0
    5.2569  -14.3796   26.3781 N   0  0  0  0  0  0  0  0  0  0  0  0
    6.4390  -13.7442   26.2119 C   0  0  0  0  0  0  0  0  0  0  0  0
    6.7434  -12.3802   26.1462 C   0  0  0  0  0  0  0  0  0  0  0  0
    8.0380  -11.9917   25.9675 C   0  0  0  0  0  0  0  0  0  0  0  0
    9.0644  -12.9132   25.8487 C   0  0  0  0  0  0  0  0  0  0  0  0
    8.7677  -14.2477   25.9128 C   0  0  0  0  0  0  0  0  0  0  0  0
    7.4562  -14.6651   26.0944 C   0  0  0  0  0  0  0  0  0  0  0  0
    7.5655  -18.6156   23.9407 C   0  0  0  0  0  0  0  0  0  0  0  0
    8.5527  -19.4663   24.0186 O   0  0  0  0  0  0  0  0  0  0  0  0
    7.2924  -18.2552   22.6071 N   0  0  0  0  0  0  0  0  0  0  0  0
    8.1735  -18.5657   21.4746 C   0  0  1  0  0  0  0  0  0  0  0  0
    7.4059  -18.6074   20.2023 C   0  0  0  0  0  0  0  0  0  0  0  0
    8.2089  -18.8763   19.0084 C   0  0  0  0  0  0  0  0  0  0  0  0
    9.2330  -19.5962   19.0603 O   0  0  0  0  0  0  0  0  0  0  0  0
    9.3135  -17.6313   21.4306 C   0  0  0  0  0  0  0  0  0  0  0  0
   10.2481  -17.7719   20.5583 O   0  0  0  0  0  0  0  0  0  0  0  0
    7.8465  -18.3347   17.7913 O   0  0  0  0  0  0  0  0  0  0  0  0
    6.5125  -12.8706   18.1185 O   0  0  0  0  0  0  0  0  0  0  0  0
    7.3503  -13.2159   19.1708 C   0  0  0  0  0  0  0  0  0  0  0  0
    8.7071  -12.9915   19.0358 C   0  0  0  0  0  0  0  0  0  0  0  0
    9.5639  -13.3238   20.0628 C   0  0  0  0  0  0  0  0  0  0  0  0
    9.1305  -13.8893   21.2639 C   0  0  0  0  0  0  0  0  0  0  0  0
   10.0837  -14.2350   22.3382 C   0  0  0  0  0  0  0  0  0  0  0  0
   10.6558  -15.6263   22.1646 C   0  0  2  0  0  0  0  0  0  0  0  0
    9.5061  -16.5231   22.2908 N   0  0  0  0  0  0  0  0  0  0  0  0
   11.6981  -15.8514   23.1586 C   0  0  0  0  0  0  0  0  0  0  0  0
   11.4510  -16.6536   24.1229 O   0  0  0  0  0  0  0  0  0  0  0  0
    7.7666  -14.1064   21.3800 C   0  0  0  0  0  0  0  0  0  0  0  0
    6.9096  -13.7720   20.3483 C   0  0  0  0  0  0  0  0  0  0  0  0
   12.9481  -15.2419   23.1136 O   0  0  0  0  0  0  0  0  0  0  0  0
  2  1  1  1
  2  3  1  0
  4  5  2  0
  4  3  1  0
  6  5  1  0
  7 12  2  0
  7  6  1  0
  8  7  1  0
  9  8  2  0
  9 10  1  0
 10 11  2  0
 11 12  1  0
 12  4  1  0
 13  2  1  0
 14 13  2  0
 15 13  1  0
 16 17  1  6
 16 15  1  0
 17 18  1  0
 18 19  2  0
 18 22  1  0
 20 30  1  0
 20 16  1  0
 21 20  2  0
 23 24  1  0
 24 34  2  0
 25 24  1  0
 25 26  2  0
 26 27  1  0
 27 33  2  0
 27 28  1  0
 29 30  1  0
 29 28  1  1
 31 35  1  0
 31 29  1  0
 32 31  2  0
 34 33  1  0
M  END
$$$$
