PSQ.pdb
     RDKit          3D

 23 23  0  0  1  0  0  0  0  0999 V2000
   27.2075  -17.8507  -14.5647 N   0  0  0  0  0  0  0  0  0  0  0  0
   28.0187  -17.0169  -15.4286 C   0  0  0  0  0  0  0  0  0  0  0  0
   29.2858  -17.7995  -15.6165 C   0  0  0  0  0  0  0  0  0  0  0  0
   28.9780  -19.2494  -15.2266 C   0  0  0  0  0  0  0  0  0  0  0  0
   27.4886  -19.1659  -15.0464 C   0  0  1  0  0  0  0  0  0  0  0  0
   26.8845  -20.2474  -14.2717 C   0  0  0  0  0  0  0  0  0  0  0  0
   26.9431  -21.4267  -14.7551 O   0  0  0  0  0  0  0  0  0  0  0  0
   25.3421  -19.7905  -10.4468 O   0  0  0  0  0  0  0  0  0  0  0  0
   25.6576  -21.0732  -10.9352 C   0  0  0  0  0  0  0  0  0  0  0  0
   25.4557  -21.1233  -12.4401 C   0  0  2  0  0  0  0  0  0  0  0  0
   26.2390  -20.0754  -13.0214 N   0  0  0  0  0  0  0  0  0  0  0  0
   24.0205  -21.0388  -12.7964 C   0  0  0  0  0  0  0  0  0  0  0  0
   23.5668  -19.9019  -13.0926 O   0  0  0  0  0  0  0  0  0  0  0  0
   18.0659  -24.8796  -15.2868 N   0  0  0  0  0  0  0  0  0  0  0  0
   19.3861  -24.6780  -14.7896 C   0  0  0  0  0  0  0  0  0  0  0  0
   20.1608  -25.6606  -14.8737 O   0  0  0  0  0  0  0  0  0  0  0  0
   19.8308  -23.3999  -14.2079 C   0  0  0  0  0  0  0  0  0  0  0  0
   21.2692  -23.3710  -13.7824 C   0  0  0  0  0  0  0  0  0  0  0  0
   21.7501  -22.0839  -13.2064 C   0  0  2  0  0  0  0  0  0  0  0  0
   23.1589  -22.1687  -12.8149 N   0  0  0  0  0  0  0  0  0  0  0  0
   20.9244  -21.5514  -12.1005 C   0  0  0  0  0  0  0  0  0  0  0  0
   19.7732  -20.8407  -12.3819 O   0  0  0  0  0  0  0  0  0  0  0  0
   21.2366  -21.7230  -10.8982 O   0  0  0  0  0  0  0  0  0  0  0  0
  1  2  1  0
  2  3  1  0
  4  3  1  0
  5  1  1  0
  5  4  1  0
  5  6  1  1
  6  7  2  0
  9  8  1  0
 10  9  1  1
 10 12  1  0
 11  6  1  0
 11 10  1  0
 12 20  1  0
 13 12  2  0
 15 14  1  0
 15 17  1  0
 16 15  2  0
 18 17  1  0
 19 18  1  1
 20 19  1  0
 21 19  1  0
 21 22  1  0
 23 21  2  0
M  END
$$$$
