PSQ.pdb
     RDKit          3D

 23 23  0  0  1  0  0  0  0  0999 V2000
   21.9958  -20.4744  -16.1061 N   0  0  0  0  0  0  0  0  0  0  0  0
   22.7001  -20.0456  -17.2977 C   0  0  0  0  0  0  0  0  0  0  0  0
   23.4787  -18.8410  -16.8552 C   0  0  0  0  0  0  0  0  0  0  0  0
   23.5488  -18.8910  -15.3249 C   0  0  0  0  0  0  0  0  0  0  0  0
   22.9601  -20.2509  -15.0761 C   0  0  1  0  0  0  0  0  0  0  0  0
   22.4772  -20.4912  -13.7183 C   0  0  0  0  0  0  0  0  0  0  0  0
   23.2416  -20.1630  -12.7509 O   0  0  0  0  0  0  0  0  0  0  0  0
   19.8849  -19.1868  -10.5996 O   0  0  0  0  0  0  0  0  0  0  0  0
   20.5379  -19.4083  -11.8276 C   0  0  0  0  0  0  0  0  0  0  0  0
   20.6318  -20.8983  -12.1081 C   0  0  2  0  0  0  0  0  0  0  0  0
   21.2190  -21.0632  -13.4034 N   0  0  0  0  0  0  0  0  0  0  0  0
   19.3109  -21.5566  -11.9834 C   0  0  0  0  0  0  0  0  0  0  0  0
   18.5625  -21.5420  -12.9962 O   0  0  0  0  0  0  0  0  0  0  0  0
   18.0548  -23.7325   -6.6390 N   0  0  0  0  0  0  0  0  0  0  0  0
   18.9931  -24.3112   -7.5420 C   0  0  0  0  0  0  0  0  0  0  0  0
   20.0065  -24.8346   -7.0205 O   0  0  0  0  0  0  0  0  0  0  0  0
   18.8013  -24.3031   -9.0024 C   0  0  0  0  0  0  0  0  0  0  0  0
   17.5016  -23.7104   -9.4612 C   0  0  0  0  0  0  0  0  0  0  0  0
   17.5715  -22.8582  -10.6812 C   0  0  2  0  0  0  0  0  0  0  0  0
   18.8695  -22.1882  -10.7894 N   0  0  0  0  0  0  0  0  0  0  0  0
   16.4624  -21.8903  -10.8271 C   0  0  0  0  0  0  0  0  0  0  0  0
   15.1782  -22.3453  -11.0584 O   0  0  0  0  0  0  0  0  0  0  0  0
   16.6481  -20.6526  -10.7486 O   0  0  0  0  0  0  0  0  0  0  0  0
  1  2  1  0
  2  3  1  0
  4  3  1  0
  5  1  1  0
  5  4  1  0
  5  6  1  1
  6  7  2  0
  9  8  1  0
 10  9  1  6
 10 12  1  0
 11  6  1  0
 11 10  1  0
 12 20  1  0
 13 12  2  0
 15 14  1  0
 15 17  1  0
 16 15  2  0
 18 17  1  0
 19 18  1  1
 20 19  1  0
 21 19  1  0
 21 22  1  0
 23 21  2  0
M  END
$$$$
