PSQ.pdb
     RDKit          3D

 23 23  0  0  1  0  0  0  0  0999 V2000
   18.5802  -11.0545  -16.9449 N   0  0  0  0  0  0  0  0  0  0  0  0
   19.1141  -12.3503  -16.5766 C   0  0  0  0  0  0  0  0  0  0  0  0
   19.9788  -12.0693  -15.3821 C   0  0  0  0  0  0  0  0  0  0  0  0
   19.5535  -10.7029  -14.8335 C   0  0  0  0  0  0  0  0  0  0  0  0
   18.3364  -10.4451  -15.6761 C   0  0  1  0  0  0  0  0  0  0  0  0
   17.8930   -9.0543  -15.7364 C   0  0  0  0  0  0  0  0  0  0  0  0
   18.5899   -8.2397  -16.4283 O   0  0  0  0  0  0  0  0  0  0  0  0
   14.0707   -7.5222  -15.3331 O   0  0  0  0  0  0  0  0  0  0  0  0
   15.0524   -6.9768  -14.4834 C   0  0  0  0  0  0  0  0  0  0  0  0
   16.4308   -7.1523  -15.0975 C   0  0  2  0  0  0  0  0  0  0  0  0
   16.7428   -8.5494  -15.0793 N   0  0  0  0  0  0  0  0  0  0  0  0
   17.4426   -6.3243  -14.4014 C   0  0  0  0  0  0  0  0  0  0  0  0
   17.9144   -6.7762  -13.3246 O   0  0  0  0  0  0  0  0  0  0  0  0
   22.8626   -5.8592  -15.7581 N   0  0  0  0  0  0  0  0  0  0  0  0
   22.8193   -4.7536  -14.8599 C   0  0  0  0  0  0  0  0  0  0  0  0
   23.9273   -4.2575  -14.5456 O   0  0  0  0  0  0  0  0  0  0  0  0
   21.5586   -4.2138  -14.3225 C   0  0  0  0  0  0  0  0  0  0  0  0
   20.3213   -4.9134  -14.8028 C   0  0  0  0  0  0  0  0  0  0  0  0
   19.0288   -4.3514  -14.3197 C   0  0  2  0  0  0  0  0  0  0  0  0
   17.8881   -5.0682  -14.8944 N   0  0  0  0  0  0  0  0  0  0  0  0
   18.8810   -2.8905  -14.4990 C   0  0  0  0  0  0  0  0  0  0  0  0
   18.1120   -2.3990  -15.5366 O   0  0  0  0  0  0  0  0  0  0  0  0
   19.4377   -2.0689  -13.7324 O   0  0  0  0  0  0  0  0  0  0  0  0
  1  2  1  0
  2  3  1  0
  4  3  1  0
  5  1  1  0
  5  4  1  0
  5  6  1  6
  6  7  2  0
  9  8  1  0
 10  9  1  1
 10 12  1  0
 11  6  1  0
 11 10  1  0
 12 20  1  0
 13 12  2  0
 15 14  1  0
 15 17  1  0
 16 15  2  0
 18 17  1  0
 19 18  1  6
 20 19  1  0
 21 19  1  0
 21 22  1  0
 23 21  2  0
M  END
$$$$
