PSQ.pdb
     RDKit          3D

 23 23  0  0  1  0  0  0  0  0999 V2000
   27.6080  -19.6978  -15.3393 N   0  0  0  0  0  0  0  0  0  0  0  0
   28.7119  -19.6634  -16.2773 C   0  0  0  0  0  0  0  0  0  0  0  0
   29.3752  -21.0006  -16.1188 C   0  0  0  0  0  0  0  0  0  0  0  0
   28.3640  -21.9226  -15.4285 C   0  0  0  0  0  0  0  0  0  0  0  0
   27.1449  -21.0446  -15.4513 C   0  0  1  0  0  0  0  0  0  0  0  0
   26.0851  -21.4109  -14.5147 C   0  0  0  0  0  0  0  0  0  0  0  0
   25.2803  -22.3375  -14.8636 O   0  0  0  0  0  0  0  0  0  0  0  0
   24.0396  -20.9968  -10.1396 O   0  0  0  0  0  0  0  0  0  0  0  0
   25.1666  -20.8782  -10.9759 C   0  0  0  0  0  0  0  0  0  0  0  0
   24.7804  -21.1654  -12.4168 C   0  0  2  0  0  0  0  0  0  0  0  0
   25.8909  -20.8078  -13.2466 N   0  0  0  0  0  0  0  0  0  0  0  0
   23.5294  -20.4664  -12.7912 C   0  0  0  0  0  0  0  0  0  0  0  0
   23.5808  -19.2126  -12.8993 O   0  0  0  0  0  0  0  0  0  0  0  0
   17.9561  -19.6861  -17.3114 N   0  0  0  0  0  0  0  0  0  0  0  0
   19.0541  -20.3174  -16.6581 C   0  0  0  0  0  0  0  0  0  0  0  0
   19.6841  -21.1635  -17.3363 O   0  0  0  0  0  0  0  0  0  0  0  0
   19.4391  -20.0081  -15.2704 C   0  0  0  0  0  0  0  0  0  0  0  0
   20.6718  -20.7149  -14.7889 C   0  0  0  0  0  0  0  0  0  0  0  0
   21.0655  -20.4448  -13.3776 C   0  0  2  0  0  0  0  0  0  0  0  0
   22.3033  -21.1449  -13.0266 N   0  0  0  0  0  0  0  0  0  0  0  0
   20.0078  -20.7054  -12.3770 C   0  0  0  0  0  0  0  0  0  0  0  0
   18.9180  -19.8599  -12.2916 O   0  0  0  0  0  0  0  0  0  0  0  0
   20.0653  -21.6802  -11.5901 O   0  0  0  0  0  0  0  0  0  0  0  0
  1  2  1  0
  2  3  1  0
  4  3  1  0
  5  1  1  0
  5  4  1  0
  5  6  1  1
  6  7  2  0
  9  8  1  0
 10  9  1  1
 10 12  1  0
 11  6  1  0
 11 10  1  0
 12 20  1  0
 13 12  2  0
 15 14  1  0
 15 17  1  0
 16 15  2  0
 18 17  1  0
 19 18  1  6
 20 19  1  0
 21 19  1  0
 21 22  1  0
 23 21  2  0
M  END
$$$$
