PSQ.pdb
     RDKit          3D

 23 23  0  0  1  0  0  0  0  0999 V2000
   20.8257  -12.4075  -17.4675 N   0  0  0  0  0  0  0  0  0  0  0  0
   20.7785  -13.5394  -18.3710 C   0  0  0  0  0  0  0  0  0  0  0  0
   19.3175  -13.8661  -18.4804 C   0  0  0  0  0  0  0  0  0  0  0  0
   18.5459  -12.6329  -17.9978 C   0  0  0  0  0  0  0  0  0  0  0  0
   19.6754  -11.6527  -17.8523 C   0  0  1  0  0  0  0  0  0  0  0  0
   19.3964  -10.4870  -17.0168 C   0  0  0  0  0  0  0  0  0  0  0  0
   18.4765   -9.6902  -17.3998 O   0  0  0  0  0  0  0  0  0  0  0  0
   19.1602   -8.3898  -12.7936 O   0  0  0  0  0  0  0  0  0  0  0  0
   19.5896   -9.4700  -13.5887 C   0  0  0  0  0  0  0  0  0  0  0  0
   19.7326   -9.0294  -15.0354 C   0  0  2  0  0  0  0  0  0  0  0  0
   20.0773  -10.1820  -15.8115 N   0  0  0  0  0  0  0  0  0  0  0  0
   20.7121   -7.9266  -15.1708 C   0  0  0  0  0  0  0  0  0  0  0  0
   21.9293   -8.2427  -15.2379 O   0  0  0  0  0  0  0  0  0  0  0  0
   19.5748   -1.9140  -17.2246 N   0  0  0  0  0  0  0  0  0  0  0  0
   20.9547   -1.9377  -16.8694 C   0  0  0  0  0  0  0  0  0  0  0  0
   21.6072   -0.8993  -17.1313 O   0  0  0  0  0  0  0  0  0  0  0  0
   21.5929   -3.1030  -16.2335 C   0  0  0  0  0  0  0  0  0  0  0  0
   20.6831   -4.2761  -16.0169 C   0  0  0  0  0  0  0  0  0  0  0  0
   21.3071   -5.4743  -15.3887 C   0  0  2  0  0  0  0  0  0  0  0  0
   20.3349   -6.5576  -15.2258 N   0  0  0  0  0  0  0  0  0  0  0  0
   22.0222   -5.2096  -14.1212 C   0  0  0  0  0  0  0  0  0  0  0  0
   21.4198   -5.5127  -12.9150 O   0  0  0  0  0  0  0  0  0  0  0  0
   23.1729   -4.7114  -14.1009 O   0  0  0  0  0  0  0  0  0  0  0  0
  1  2  1  0
  2  3  1  0
  4  3  1  0
  5  1  1  0
  5  4  1  0
  5  6  1  1
  6  7  2  0
  9  8  1  0
 10  9  1  1
 10 12  1  0
 11  6  1  0
 11 10  1  0
 12 20  1  0
 13 12  2  0
 15 14  1  0
 15 17  1  0
 16 15  2  0
 18 17  1  0
 19 18  1  1
 20 19  1  0
 21 19  1  0
 21 22  1  0
 23 21  2  0
M  END
$$$$
