PSQ.pdb
     RDKit          3D

 23 23  0  0  1  0  0  0  0  0999 V2000
   22.5517  -12.7685  -18.9006 N   0  0  0  0  0  0  0  0  0  0  0  0
   21.9024  -13.7929  -19.6936 C   0  0  0  0  0  0  0  0  0  0  0  0
   21.1588  -14.6241  -18.6888 C   0  0  0  0  0  0  0  0  0  0  0  0
   21.0393  -13.7830  -17.4131 C   0  0  0  0  0  0  0  0  0  0  0  0
   21.5656  -12.4670  -17.9120 C   0  0  1  0  0  0  0  0  0  0  0  0
   21.9961  -11.5268  -16.8799 C   0  0  0  0  0  0  0  0  0  0  0  0
   21.1283  -11.1471  -16.0251 O   0  0  0  0  0  0  0  0  0  0  0  0
   25.5437   -9.1517  -14.5886 O   0  0  0  0  0  0  0  0  0  0  0  0
   25.1595  -10.0479  -15.6048 C   0  0  0  0  0  0  0  0  0  0  0  0
   23.6470  -10.0587  -15.7472 C   0  0  2  0  0  0  0  0  0  0  0  0
   23.3105  -11.0087  -16.7640 N   0  0  0  0  0  0  0  0  0  0  0  0
   23.1201   -8.7027  -16.0249 C   0  0  0  0  0  0  0  0  0  0  0  0
   23.2829   -8.2488  -17.1884 O   0  0  0  0  0  0  0  0  0  0  0  0
   18.3687   -8.4076  -15.1056 N   0  0  0  0  0  0  0  0  0  0  0  0
   18.9118   -8.2604  -16.4149 C   0  0  0  0  0  0  0  0  0  0  0  0
   18.3937   -8.9727  -17.3077 O   0  0  0  0  0  0  0  0  0  0  0  0
   20.0154   -7.3336  -16.7192 C   0  0  0  0  0  0  0  0  0  0  0  0
   20.5050   -6.5348  -15.5474 C   0  0  0  0  0  0  0  0  0  0  0  0
   21.9766   -6.5567  -15.3162 C   0  0  2  0  0  0  0  0  0  0  0  0
   22.4536   -7.9152  -15.0476 N   0  0  0  0  0  0  0  0  0  0  0  0
   22.4571   -5.6130  -14.2833 C   0  0  0  0  0  0  0  0  0  0  0  0
   22.2076   -4.2604  -14.4176 O   0  0  0  0  0  0  0  0  0  0  0  0
   23.0937   -6.0015  -13.2751 O   0  0  0  0  0  0  0  0  0  0  0  0
  1  2  1  0
  2  3  1  0
  4  3  1  0
  5  1  1  0
  5  4  1  0
  5  6  1  1
  6  7  2  0
  9  8  1  0
 10  9  1  6
 10 12  1  0
 11  6  1  0
 11 10  1  0
 12 20  1  0
 13 12  2  0
 15 14  1  0
 15 17  1  0
 16 15  2  0
 18 17  1  0
 19 18  1  1
 20 19  1  0
 21 19  1  0
 21 22  1  0
 23 21  2  0
M  END
$$$$
