PSQ.pdb
     RDKit          3D

 23 23  0  0  1  0  0  0  0  0999 V2000
   17.6354  -24.9807   -6.1800 N   0  0  0  0  0  0  0  0  0  0  0  0
   17.8615  -26.1541   -6.9996 C   0  0  0  0  0  0  0  0  0  0  0  0
   17.1837  -27.2652   -6.2518 C   0  0  0  0  0  0  0  0  0  0  0  0
   16.2092  -26.6115   -5.2657 C   0  0  0  0  0  0  0  0  0  0  0  0
   16.3005  -25.1795   -5.7115 C   0  0  1  0  0  0  0  0  0  0  0  0
   15.8323  -24.1868   -4.7472 C   0  0  0  0  0  0  0  0  0  0  0  0
   16.6439  -23.8193   -3.8339 O   0  0  0  0  0  0  0  0  0  0  0  0
   13.3253  -21.0216   -5.2626 O   0  0  0  0  0  0  0  0  0  0  0  0
   12.9260  -21.9226   -4.2566 C   0  0  0  0  0  0  0  0  0  0  0  0
   14.1288  -22.6906   -3.7357 C   0  0  2  0  0  0  0  0  0  0  0  0
   14.5396  -23.6052   -4.7577 N   0  0  0  0  0  0  0  0  0  0  0  0
   13.8282  -23.3583   -2.4483 C   0  0  0  0  0  0  0  0  0  0  0  0
   13.9672  -24.6092   -2.4022 O   0  0  0  0  0  0  0  0  0  0  0  0
   17.0739  -25.6516    1.6443 N   0  0  0  0  0  0  0  0  0  0  0  0
   16.2759  -24.6158    2.2109 C   0  0  0  0  0  0  0  0  0  0  0  0
   16.8199  -23.9335    3.1116 O   0  0  0  0  0  0  0  0  0  0  0  0
   14.8935  -24.3492    1.7780 C   0  0  0  0  0  0  0  0  0  0  0  0
   14.7716  -23.7106    0.4258 C   0  0  0  0  0  0  0  0  0  0  0  0
   13.4069  -23.2483    0.0469 C   0  0  2  0  0  0  0  0  0  0  0  0
   13.3984  -22.6535   -1.2916 N   0  0  0  0  0  0  0  0  0  0  0  0
   12.7601  -22.3510    1.0291 C   0  0  0  0  0  0  0  0  0  0  0  0
   11.8663  -22.8670    1.9480 O   0  0  0  0  0  0  0  0  0  0  0  0
   12.9961  -21.1197    1.0579 O   0  0  0  0  0  0  0  0  0  0  0  0
  1  2  1  0
  2  3  1  0
  4  3  1  0
  5  1  1  0
  5  4  1  0
  5  6  1  1
  6  7  2  0
  9  8  1  0
 10  9  1  6
 10 12  1  0
 11  6  1  0
 11 10  1  0
 12 20  1  0
 13 12  2  0
 15 14  1  0
 15 17  1  0
 16 15  2  0
 18 17  1  0
 19 18  1  1
 20 19  1  0
 21 19  1  0
 21 22  1  0
 23 21  2  0
M  END
$$$$
