PSQ.pdb
     RDKit          3D

 23 23  0  0  1  0  0  0  0  0999 V2000
   14.9541  -24.9447    1.3712 N   0  0  0  0  0  0  0  0  0  0  0  0
   13.7390  -25.0721    0.5919 C   0  0  0  0  0  0  0  0  0  0  0  0
   12.9533  -26.1365    1.3012 C   0  0  0  0  0  0  0  0  0  0  0  0
   13.5391  -26.2596    2.7122 C   0  0  0  0  0  0  0  0  0  0  0  0
   14.4820  -25.0897    2.7117 C   0  0  1  0  0  0  0  0  0  0  0  0
   15.5269  -25.1202    3.7324 C   0  0  0  0  0  0  0  0  0  0  0  0
   15.1608  -25.1688    4.9537 O   0  0  0  0  0  0  0  0  0  0  0  0
   20.2388  -25.4806    4.8649 O   0  0  0  0  0  0  0  0  0  0  0  0
   19.2586  -25.2789    3.8740 C   0  0  0  0  0  0  0  0  0  0  0  0
   17.8832  -25.1823    4.5118 C   0  0  2  0  0  0  0  0  0  0  0  0
   16.9175  -25.0997    3.4581 N   0  0  0  0  0  0  0  0  0  0  0  0
   17.8048  -24.0464    5.4591 C   0  0  0  0  0  0  0  0  0  0  0  0
   17.6035  -22.9029    4.9714 O   0  0  0  0  0  0  0  0  0  0  0  0
   15.8901  -23.2997   11.8448 N   0  0  0  0  0  0  0  0  0  0  0  0
   15.6868  -22.3134   10.8365 C   0  0  0  0  0  0  0  0  0  0  0  0
   14.6257  -21.6505   10.9225 O   0  0  0  0  0  0  0  0  0  0  0  0
   16.6531  -22.0742    9.7509 C   0  0  0  0  0  0  0  0  0  0  0  0
   16.8642  -23.2401    8.8306 C   0  0  0  0  0  0  0  0  0  0  0  0
   17.9170  -23.0644    7.7911 C   0  0  2  0  0  0  0  0  0  0  0  0
   17.9458  -24.1987    6.8649 N   0  0  0  0  0  0  0  0  0  0  0  0
   19.2688  -22.7772    8.3186 C   0  0  0  0  0  0  0  0  0  0  0  0
   19.5509  -21.5318    8.8471 O   0  0  0  0  0  0  0  0  0  0  0  0
   20.1829  -23.6356    8.3024 O   0  0  0  0  0  0  0  0  0  0  0  0
  1  2  1  0
  2  3  1  0
  4  3  1  0
  5  1  1  0
  5  4  1  0
  5  6  1  1
  6  7  2  0
  9  8  1  0
 10  9  1  6
 10 12  1  0
 11  6  1  0
 11 10  1  0
 12 20  1  0
 13 12  2  0
 15 14  1  0
 15 17  1  0
 16 15  2  0
 18 17  1  0
 19 18  1  1
 20 19  1  0
 21 19  1  0
 21 22  1  0
 23 21  2  0
M  END
$$$$
