PSQ.pdb
     RDKit          3D

 23 23  0  0  1  0  0  0  0  0999 V2000
   28.9767  -24.2845  -16.8885 N   0  0  0  0  0  0  0  0  0  0  0  0
   27.8447  -23.3811  -16.9352 C   0  0  0  0  0  0  0  0  0  0  0  0
   28.2053  -22.3892  -18.0026 C   0  0  0  0  0  0  0  0  0  0  0  0
   29.3222  -23.0206  -18.8410 C   0  0  0  0  0  0  0  0  0  0  0  0
   29.3341  -24.4087  -18.2660 C   0  0  1  0  0  0  0  0  0  0  0  0
   30.5440  -25.1873  -18.5202 C   0  0  0  0  0  0  0  0  0  0  0  0
   30.5407  -25.9770  -19.5223 O   0  0  0  0  0  0  0  0  0  0  0  0
   34.3435  -24.0303  -18.2712 O   0  0  0  0  0  0  0  0  0  0  0  0
   34.0928  -25.1887  -17.5105 C   0  0  0  0  0  0  0  0  0  0  0  0
   32.8710  -25.9131  -18.0492 C   0  0  2  0  0  0  0  0  0  0  0  0
   31.7194  -25.1248  -17.7302 N   0  0  0  0  0  0  0  0  0  0  0  0
   32.7882  -27.2966  -17.5267 C   0  0  0  0  0  0  0  0  0  0  0  0
   32.2842  -27.4507  -16.3829 O   0  0  0  0  0  0  0  0  0  0  0  0
   28.6467  -32.3880  -19.4091 N   0  0  0  0  0  0  0  0  0  0  0  0
   29.3347  -31.1505  -19.2475 C   0  0  0  0  0  0  0  0  0  0  0  0
   28.9893  -30.2250  -20.0200 O   0  0  0  0  0  0  0  0  0  0  0  0
   30.3910  -30.9530  -18.2402 C   0  0  0  0  0  0  0  0  0  0  0  0
   31.1454  -29.6623  -18.3669 C   0  0  0  0  0  0  0  0  0  0  0  0
   32.6167  -29.7461  -18.1478 C   0  0  2  0  0  0  0  0  0  0  0  0
   33.2470  -28.4282  -18.2536 N   0  0  0  0  0  0  0  0  0  0  0  0
   33.3154  -30.7367  -18.9954 C   0  0  0  0  0  0  0  0  0  0  0  0
   33.4042  -32.0531  -18.5844 O   0  0  0  0  0  0  0  0  0  0  0  0
   33.8394  -30.4204  -20.0900 O   0  0  0  0  0  0  0  0  0  0  0  0
  1  2  1  0
  2  3  1  0
  4  3  1  0
  5  1  1  0
  5  4  1  0
  5  6  1  1
  6  7  2  0
  9  8  1  0
 10  9  1  1
 10 12  1  0
 11  6  1  0
 11 10  1  0
 12 20  1  0
 13 12  2  0
 15 14  1  0
 15 17  1  0
 16 15  2  0
 18 17  1  0
 19 18  1  6
 20 19  1  0
 21 19  1  0
 21 22  1  0
 23 21  2  0
M  END
$$$$
