YDT.pdb
     RDKit          3D

 28 28  0  0  1  0  0  0  0  0999 V2000
   36.1281   -9.2919   -6.2187 O   0  0  0  0  0  0  0  0  0  0  0  0
   37.4187   -9.5421   -6.7148 C   0  0  0  0  0  0  0  0  0  0  0  0
   38.0521   -8.5584   -7.4317 C   0  0  0  0  0  0  0  0  0  0  0  0
   39.3276   -8.7887   -7.9295 C   0  0  0  0  0  0  0  0  0  0  0  0
   39.9377   -9.9974   -7.6972 C   0  0  0  0  0  0  0  0  0  0  0  0
   41.2889  -10.2492   -8.2313 C   0  0  0  0  0  0  0  0  0  0  0  0
   42.1743  -10.6181   -7.0461 C   0  0  2  0  0  0  0  0  0  0  0  0
   42.1140   -9.4870   -6.1263 N   0  0  0  0  0  0  0  0  0  0  0  0
   43.5659  -10.7766   -7.4900 C   0  0  0  0  0  0  0  0  0  0  0  0
   44.3245   -9.8110   -7.5983 O   0  0  0  0  0  0  0  0  0  0  0  0
   39.2993  -10.9741   -6.9812 C   0  0  0  0  0  0  0  0  0  0  0  0
   38.0314  -10.7444   -6.4868 C   0  0  0  0  0  0  0  0  0  0  0  0
   44.0892  -12.0753   -7.8147 N   0  0  0  0  0  0  0  0  0  0  0  0
   45.3515  -12.3077   -8.4297 C   0  0  1  0  0  0  0  0  0  0  0  0
   45.9289  -13.6771   -8.0958 C   0  0  0  0  0  0  0  0  0  0  0  0
   46.5273  -13.5340   -6.7294 C   0  0  0  0  0  0  0  0  0  0  0  0
   45.9975  -14.0267   -5.6889 O   0  0  0  0  0  0  0  0  0  0  0  0
   45.4005  -12.0007   -9.8764 C   0  0  0  0  0  0  0  0  0  0  0  0
   44.7131  -12.6072  -10.7295 O   0  0  0  0  0  0  0  0  0  0  0  0
   47.7335  -12.8347   -6.5156 O   0  0  0  0  0  0  0  0  0  0  0  0
   44.7187   -8.7170  -11.5684 C   0  0  0  0  0  0  0  0  0  0  0  0
   46.1064   -9.1267  -11.9270 C   0  0  1  0  0  0  0  0  0  0  0  0
   46.9821   -8.4274  -11.0787 O   0  0  0  0  0  0  0  0  0  0  0  0
   46.3649  -10.6103  -11.7810 C   0  0  2  0  0  0  0  0  0  0  0  0
   46.2599  -10.9655  -10.3849 N   0  0  0  0  0  0  0  0  0  0  0  0
   47.6561  -11.0110  -12.3644 C   0  0  0  0  0  0  0  0  0  0  0  0
   47.8386  -10.8898  -13.7641 O   0  0  0  0  0  0  0  0  0  0  0  0
   48.6198  -11.4529  -11.7324 O   0  0  0  0  0  0  0  0  0  0  0  0
  1  2  1  0
  2 12  2  0
  3  4  2  0
  3  2  1  0
  4  5  1  0
  5  6  1  0
  5 11  2  0
  7  8  1  1
  7  6  1  0
  9  7  1  0
 10  9  2  0
 12 11  1  0
 13  9  1  0
 14 13  1  0
 14 15  1  6
 15 16  1  0
 16 20  1  0
 17 16  2  0
 18 14  1  0
 19 18  2  0
 22 21  1  1
 22 24  1  0
 23 22  1  0
 24 26  1  0
 24 25  1  1
 25 18  1  0
 26 27  1  0
 28 26  2  0
M  END
$$$$
