YDT.pdb
     RDKit          3D

 28 28  0  0  1  0  0  0  0  0999 V2000
   28.7553  -20.0352   -5.9524 O   0  0  0  0  0  0  0  0  0  0  0  0
   28.1965  -20.0847   -7.2407 C   0  0  0  0  0  0  0  0  0  0  0  0
   26.8671  -19.7817   -7.3952 C   0  0  0  0  0  0  0  0  0  0  0  0
   26.2984  -19.8257   -8.6611 C   0  0  0  0  0  0  0  0  0  0  0  0
   27.0742  -20.1713   -9.7409 C   0  0  0  0  0  0  0  0  0  0  0  0
   26.4722  -20.2274  -11.0857 C   0  0  0  0  0  0  0  0  0  0  0  0
   25.6408  -21.5038  -11.1484 C   0  0  2  0  0  0  0  0  0  0  0  0
   26.5296  -22.5431  -11.6575 N   0  0  0  0  0  0  0  0  0  0  0  0
   24.5355  -21.3360  -12.1017 C   0  0  0  0  0  0  0  0  0  0  0  0
   24.6937  -21.5061  -13.3124 O   0  0  0  0  0  0  0  0  0  0  0  0
   28.3998  -20.4724   -9.5787 C   0  0  0  0  0  0  0  0  0  0  0  0
   28.9642  -20.4286   -8.3201 C   0  0  0  0  0  0  0  0  0  0  0  0
   23.2237  -20.9646  -11.6464 N   0  0  0  0  0  0  0  0  0  0  0  0
   22.0683  -20.9009  -12.4750 C   0  0  1  0  0  0  0  0  0  0  0  0
   20.7686  -20.9603  -11.6830 C   0  0  0  0  0  0  0  0  0  0  0  0
   19.6856  -21.1156  -12.7071 C   0  0  0  0  0  0  0  0  0  0  0  0
   18.7078  -20.3152  -12.8043 O   0  0  0  0  0  0  0  0  0  0  0  0
   22.0830  -19.8093  -13.4740 C   0  0  0  0  0  0  0  0  0  0  0  0
   22.3461  -18.6194  -13.1853 O   0  0  0  0  0  0  0  0  0  0  0  0
   19.6895  -22.1748  -13.6386 O   0  0  0  0  0  0  0  0  0  0  0  0
   21.9053  -20.7585  -17.7655 C   0  0  0  0  0  0  0  0  0  0  0  0
   22.6025  -19.6339  -17.0792 C   0  0  1  0  0  0  0  0  0  0  0  0
   22.7897  -18.6150  -18.0291 O   0  0  0  0  0  0  0  0  0  0  0  0
   21.8416  -19.0691  -15.8997 C   0  0  2  0  0  0  0  0  0  0  0  0
   21.7900  -20.0683  -14.8581 N   0  0  0  0  0  0  0  0  0  0  0  0
   20.5030  -18.5872  -16.2794 C   0  0  0  0  0  0  0  0  0  0  0  0
   20.4007  -17.4600  -17.1315 O   0  0  0  0  0  0  0  0  0  0  0  0
   19.4340  -19.0863  -15.9166 O   0  0  0  0  0  0  0  0  0  0  0  0
  1  2  1  0
  2 12  2  0
  3  4  2  0
  3  2  1  0
  4  5  1  0
  5  6  1  0
  5 11  2  0
  7  8  1  6
  7  6  1  0
  9  7  1  0
 10  9  2  0
 12 11  1  0
 13  9  1  0
 14 13  1  0
 14 15  1  1
 15 16  1  0
 16 20  1  0
 17 16  2  0
 18 14  1  0
 19 18  2  0
 22 21  1  6
 22 24  1  0
 23 22  1  0
 24 26  1  0
 24 25  1  1
 25 18  1  0
 26 27  1  0
 28 26  2  0
M  END
$$$$
