YDT.pdb
     RDKit          3D

 28 28  0  0  1  0  0  0  0  0999 V2000
   28.7736  -18.4303   -4.3140 O   0  0  0  0  0  0  0  0  0  0  0  0
   28.3147  -18.8710   -5.5669 C   0  0  0  0  0  0  0  0  0  0  0  0
   28.7365  -20.0910   -6.0321 C   0  0  0  0  0  0  0  0  0  0  0  0
   28.2932  -20.5421   -7.2681 C   0  0  0  0  0  0  0  0  0  0  0  0
   27.4384  -19.7612   -8.0077 C   0  0  0  0  0  0  0  0  0  0  0  0
   26.9717  -20.2327   -9.3245 C   0  0  0  0  0  0  0  0  0  0  0  0
   25.5475  -20.7431   -9.1354 C   0  0  2  0  0  0  0  0  0  0  0  0
   25.6534  -21.9521   -8.3253 N   0  0  0  0  0  0  0  0  0  0  0  0
   24.9695  -21.1096  -10.4356 C   0  0  0  0  0  0  0  0  0  0  0  0
   25.2631  -22.1655  -10.9998 O   0  0  0  0  0  0  0  0  0  0  0  0
   27.0220  -18.5450   -7.5368 C   0  0  0  0  0  0  0  0  0  0  0  0
   27.4633  -18.0974   -6.3082 C   0  0  0  0  0  0  0  0  0  0  0  0
   24.0351  -20.2388  -11.0949 N   0  0  0  0  0  0  0  0  0  0  0  0
   23.3963  -20.5275  -12.3335 C   0  0  1  0  0  0  0  0  0  0  0  0
   21.9159  -20.1689  -12.3332 C   0  0  0  0  0  0  0  0  0  0  0  0
   21.3736  -20.7174  -13.6180 C   0  0  0  0  0  0  0  0  0  0  0  0
   21.6886  -20.2528  -14.7543 O   0  0  0  0  0  0  0  0  0  0  0  0
   24.1090  -20.0248  -13.5289 C   0  0  0  0  0  0  0  0  0  0  0  0
   24.0292  -18.8400  -13.9268 O   0  0  0  0  0  0  0  0  0  0  0  0
   20.4690  -21.7994  -13.6414 O   0  0  0  0  0  0  0  0  0  0  0  0
   27.8405  -21.3025  -14.4189 C   0  0  0  0  0  0  0  0  0  0  0  0
   26.9280  -21.3509  -15.5965 C   0  0  1  0  0  0  0  0  0  0  0  0
   26.5095  -22.6841  -15.7477 O   0  0  0  0  0  0  0  0  0  0  0  0
   25.7071  -20.4672  -15.4630 C   0  0  2  0  0  0  0  0  0  0  0  0
   24.9488  -20.8930  -14.3099 N   0  0  0  0  0  0  0  0  0  0  0  0
   24.8950  -20.4498  -16.6912 C   0  0  0  0  0  0  0  0  0  0  0  0
   23.5591  -20.9177  -16.6318 O   0  0  0  0  0  0  0  0  0  0  0  0
   25.2781  -20.0547  -17.7960 O   0  0  0  0  0  0  0  0  0  0  0  0
  1  2  1  0
  2 12  2  0
  3  4  2  0
  3  2  1  0
  4  5  1  0
  5  6  1  0
  5 11  2  0
  7  8  1  1
  7  6  1  0
  9  7  1  0
 10  9  2  0
 12 11  1  0
 13  9  1  0
 14 13  1  0
 14 15  1  1
 15 16  1  0
 16 20  1  0
 17 16  2  0
 18 14  1  0
 19 18  2  0
 22 21  1  1
 22 24  1  0
 23 22  1  0
 24 26  1  0
 24 25  1  1
 25 18  1  0
 26 27  1  0
 28 26  2  0
M  END
$$$$
