YDT.pdb
     RDKit          3D

 28 28  0  0  1  0  0  0  0  0999 V2000
   26.6980  -15.9158  -17.3197 O   0  0  0  0  0  0  0  0  0  0  0  0
   25.9651  -14.8208  -16.8317 C   0  0  0  0  0  0  0  0  0  0  0  0
   25.6439  -14.7836  -15.4981 C   0  0  0  0  0  0  0  0  0  0  0  0
   24.9200  -13.7091  -14.9989 C   0  0  0  0  0  0  0  0  0  0  0  0
   24.5360  -12.6984  -15.8464 C   0  0  0  0  0  0  0  0  0  0  0  0
   23.7599  -11.5595  -15.3220 C   0  0  0  0  0  0  0  0  0  0  0  0
   22.2865  -11.9334  -15.4392 C   0  0  2  0  0  0  0  0  0  0  0  0
   22.2080  -12.9558  -16.4773 N   0  0  0  0  0  0  0  0  0  0  0  0
   21.5072  -10.7687  -15.8806 C   0  0  0  0  0  0  0  0  0  0  0  0
   21.2915  -10.5491  -17.0743 O   0  0  0  0  0  0  0  0  0  0  0  0
   24.8601  -12.7427  -17.1758 C   0  0  0  0  0  0  0  0  0  0  0  0
   25.5796  -13.8111  -17.6712 C   0  0  0  0  0  0  0  0  0  0  0  0
   20.9680   -9.8412  -14.9241 N   0  0  0  0  0  0  0  0  0  0  0  0
   20.1773   -8.7054  -15.2563 C   0  0  1  0  0  0  0  0  0  0  0  0
   18.6826   -8.9651  -15.1208 C   0  0  0  0  0  0  0  0  0  0  0  0
   18.0150   -7.7366  -15.6600 C   0  0  0  0  0  0  0  0  0  0  0  0
   17.3301   -6.9507  -14.9393 O   0  0  0  0  0  0  0  0  0  0  0  0
   20.6025   -7.4450  -14.6080 C   0  0  0  0  0  0  0  0  0  0  0  0
   20.8543   -7.3543  -13.3846 O   0  0  0  0  0  0  0  0  0  0  0  0
   18.1109   -7.3744  -17.0198 O   0  0  0  0  0  0  0  0  0  0  0  0
   23.6154   -5.5415  -15.7913 C   0  0  0  0  0  0  0  0  0  0  0  0
   22.4642   -4.5947  -15.7720 C   0  0  1  0  0  0  0  0  0  0  0  0
   21.9726   -4.5061  -17.0857 O   0  0  0  0  0  0  0  0  0  0  0  0
   21.3372   -5.0182  -14.8556 C   0  0  2  0  0  0  0  0  0  0  0  0
   20.7517   -6.2342  -15.3699 N   0  0  0  0  0  0  0  0  0  0  0  0
   20.3392   -3.9515  -14.6703 C   0  0  0  0  0  0  0  0  0  0  0  0
   19.0132   -4.1736  -15.1170 O   0  0  0  0  0  0  0  0  0  0  0  0
   20.5543   -2.8541  -14.1479 O   0  0  0  0  0  0  0  0  0  0  0  0
  1  2  1  0
  2 12  2  0
  3  4  2  0
  3  2  1  0
  4  5  1  0
  5  6  1  0
  5 11  2  0
  7  8  1  6
  7  6  1  0
  9  7  1  0
 10  9  2  0
 12 11  1  0
 13  9  1  0
 14 13  1  0
 14 15  1  1
 15 16  1  0
 16 20  1  0
 17 16  2  0
 18 14  1  0
 19 18  2  0
 22 21  1  6
 22 24  1  0
 23 22  1  0
 24 26  1  0
 24 25  1  6
 25 18  1  0
 26 27  1  0
 28 26  2  0
M  END
$$$$
