YDT.pdb
     RDKit          3D

 28 28  0  0  1  0  0  0  0  0999 V2000
   17.3444  -21.1703    2.8876 O   0  0  0  0  0  0  0  0  0  0  0  0
   17.1923  -19.8137    3.2203 C   0  0  0  0  0  0  0  0  0  0  0  0
   15.9396  -19.2565    3.1619 C   0  0  0  0  0  0  0  0  0  0  0  0
   15.7710  -17.9173    3.4872 C   0  0  0  0  0  0  0  0  0  0  0  0
   16.8600  -17.1690    3.8633 C   0  0  0  0  0  0  0  0  0  0  0  0
   16.6867  -15.7443    4.2015 C   0  0  0  0  0  0  0  0  0  0  0  0
   15.7943  -15.6853    5.4362 C   0  0  2  0  0  0  0  0  0  0  0  0
   15.2929  -14.3171    5.5102 N   0  0  0  0  0  0  0  0  0  0  0  0
   16.5898  -15.9497    6.6429 C   0  0  0  0  0  0  0  0  0  0  0  0
   17.0894  -15.0355    7.3018 O   0  0  0  0  0  0  0  0  0  0  0  0
   18.1067  -17.7319    3.9190 C   0  0  0  0  0  0  0  0  0  0  0  0
   18.2734  -19.0631    3.5954 C   0  0  0  0  0  0  0  0  0  0  0  0
   16.8116  -17.2959    7.0953 N   0  0  0  0  0  0  0  0  0  0  0  0
   17.5503  -17.6459    8.2604 C   0  0  1  0  0  0  0  0  0  0  0  0
   16.9111  -18.7832    9.0465 C   0  0  0  0  0  0  0  0  0  0  0  0
   17.4466  -18.6536   10.4400 C   0  0  0  0  0  0  0  0  0  0  0  0
   18.1101  -17.6481   10.8337 O   0  0  0  0  0  0  0  0  0  0  0  0
   18.9995  -17.8453    8.0371 C   0  0  0  0  0  0  0  0  0  0  0  0
   19.4588  -18.6125    7.1602 O   0  0  0  0  0  0  0  0  0  0  0  0
   17.2408  -19.6551   11.4118 O   0  0  0  0  0  0  0  0  0  0  0  0
   21.5894  -14.7625    8.0973 C   0  0  0  0  0  0  0  0  0  0  0  0
   22.0136  -15.8851    8.9814 C   0  0  1  0  0  0  0  0  0  0  0  0
   21.6314  -15.5531   10.2926 O   0  0  0  0  0  0  0  0  0  0  0  0
   21.4001  -17.2190    8.6161 C   0  0  2  0  0  0  0  0  0  0  0  0
   19.9740  -17.1504    8.8346 N   0  0  0  0  0  0  0  0  0  0  0  0
   22.0242  -18.3371    9.3430 C   0  0  0  0  0  0  0  0  0  0  0  0
   23.4135  -18.5633    9.1830 O   0  0  0  0  0  0  0  0  0  0  0  0
   21.4359  -19.1153   10.0992 O   0  0  0  0  0  0  0  0  0  0  0  0
  1  2  1  0
  2 12  2  0
  3  4  2  0
  3  2  1  0
  4  5  1  0
  5  6  1  0
  5 11  2  0
  7  8  1  1
  7  6  1  0
  9  7  1  0
 10  9  2  0
 12 11  1  0
 13  9  1  0
 14 13  1  0
 14 15  1  6
 15 16  1  0
 16 20  1  0
 17 16  2  0
 18 14  1  0
 19 18  2  0
 22 21  1  6
 22 24  1  0
 23 22  1  0
 24 26  1  0
 24 25  1  1
 25 18  1  0
 26 27  1  0
 28 26  2  0
M  END
$$$$
