YDT.pdb
     RDKit          3D

 28 28  0  0  1  0  0  0  0  0999 V2000
   28.7175  -18.6016   -5.6228 O   0  0  0  0  0  0  0  0  0  0  0  0
   28.3607  -19.4990   -6.6435 C   0  0  0  0  0  0  0  0  0  0  0  0
   27.0861  -19.4499   -7.1493 C   0  0  0  0  0  0  0  0  0  0  0  0
   26.7164  -20.3293   -8.1581 C   0  0  0  0  0  0  0  0  0  0  0  0
   27.6314  -21.2358   -8.6359 C   0  0  0  0  0  0  0  0  0  0  0  0
   27.2404  -22.1772   -9.7013 C   0  0  0  0  0  0  0  0  0  0  0  0
   27.8006  -21.6276  -11.0084 C   0  0  2  0  0  0  0  0  0  0  0  0
   28.8977  -20.7394  -10.6388 N   0  0  0  0  0  0  0  0  0  0  0  0
   26.7760  -20.8312  -11.6975 C   0  0  0  0  0  0  0  0  0  0  0  0
   26.6298  -19.6285  -11.4699 O   0  0  0  0  0  0  0  0  0  0  0  0
   28.9012  -21.2789   -8.1260 C   0  0  0  0  0  0  0  0  0  0  0  0
   29.2679  -20.4044   -7.1233 C   0  0  0  0  0  0  0  0  0  0  0  0
   25.9048  -21.4370  -12.6671 N   0  0  0  0  0  0  0  0  0  0  0  0
   24.9469  -20.7298  -13.4467 C   0  0  1  0  0  0  0  0  0  0  0  0
   25.4171  -20.4749  -14.8728 C   0  0  0  0  0  0  0  0  0  0  0  0
   24.3640  -19.6049  -15.4893 C   0  0  0  0  0  0  0  0  0  0  0  0
   23.8609  -18.6046  -14.8957 O   0  0  0  0  0  0  0  0  0  0  0  0
   23.5732  -21.2765  -13.3837 C   0  0  0  0  0  0  0  0  0  0  0  0
   23.3068  -22.4849  -13.5770 O   0  0  0  0  0  0  0  0  0  0  0  0
   23.8634  -19.8485  -16.7853 O   0  0  0  0  0  0  0  0  0  0  0  0
   18.8877  -20.3117  -11.9120 C   0  0  0  0  0  0  0  0  0  0  0  0
   20.2806  -19.8747  -12.2131 C   0  0  1  0  0  0  0  0  0  0  0  0
   20.9207  -19.6394  -10.9841 O   0  0  0  0  0  0  0  0  0  0  0  0
   21.0852  -20.8879  -12.9975 C   0  0  2  0  0  0  0  0  0  0  0  0
   22.4508  -20.4266  -13.0895 N   0  0  0  0  0  0  0  0  0  0  0  0
   20.4976  -21.1631  -14.3193 C   0  0  0  0  0  0  0  0  0  0  0  0
   19.6328  -22.2760  -14.4624 O   0  0  0  0  0  0  0  0  0  0  0  0
   20.6918  -20.4977  -15.3406 O   0  0  0  0  0  0  0  0  0  0  0  0
  1  2  1  0
  2 12  2  0
  3  4  2  0
  3  2  1  0
  4  5  1  0
  5  6  1  0
  5 11  2  0
  7  8  1  1
  7  6  1  0
  9  7  1  0
 10  9  2  0
 12 11  1  0
 13  9  1  0
 14 13  1  0
 14 15  1  6
 15 16  1  0
 16 20  1  0
 17 16  2  0
 18 14  1  0
 19 18  2  0
 22 21  1  1
 22 24  1  0
 23 22  1  0
 24 26  1  0
 24 25  1  6
 25 18  1  0
 26 27  1  0
 28 26  2  0
M  END
$$$$
