YDT.pdb
     RDKit          3D

 28 28  0  0  1  0  0  0  0  0999 V2000
   27.3290  -18.9963  -15.5219 O   0  0  0  0  0  0  0  0  0  0  0  0
   27.0652  -17.6752  -15.9212 C   0  0  0  0  0  0  0  0  0  0  0  0
   27.7860  -17.1439  -16.9610 C   0  0  0  0  0  0  0  0  0  0  0  0
   27.5385  -15.8399  -17.3685 C   0  0  0  0  0  0  0  0  0  0  0  0
   26.5757  -15.1002  -16.7258 C   0  0  0  0  0  0  0  0  0  0  0  0
   26.3155  -13.7122  -17.1500 C   0  0  0  0  0  0  0  0  0  0  0  0
   25.2892  -13.7758  -18.2758 C   0  0  2  0  0  0  0  0  0  0  0  0
   25.9803  -14.3542  -19.4234 N   0  0  0  0  0  0  0  0  0  0  0  0
   24.8552  -12.4191  -18.6358 C   0  0  0  0  0  0  0  0  0  0  0  0
   25.4322  -11.7649  -19.5069 O   0  0  0  0  0  0  0  0  0  0  0  0
   25.8608  -15.6372  -15.6891 C   0  0  0  0  0  0  0  0  0  0  0  0
   26.1075  -16.9334  -15.2846 C   0  0  0  0  0  0  0  0  0  0  0  0
   23.7337  -11.8081  -17.9763 N   0  0  0  0  0  0  0  0  0  0  0  0
   23.2268  -10.5125  -18.2764 C   0  0  1  0  0  0  0  0  0  0  0  0
   22.9990  -10.2974  -19.7670 C   0  0  0  0  0  0  0  0  0  0  0  0
   22.5443   -8.8755  -19.8987 C   0  0  0  0  0  0  0  0  0  0  0  0
   23.3366   -7.8886  -19.8322 O   0  0  0  0  0  0  0  0  0  0  0  0
   22.0711  -10.0944  -17.4523 C   0  0  0  0  0  0  0  0  0  0  0  0
   20.9780  -10.7054  -17.4445 O   0  0  0  0  0  0  0  0  0  0  0  0
   21.1894   -8.5447  -20.1091 O   0  0  0  0  0  0  0  0  0  0  0  0
   21.8341  -10.0878  -13.9402 C   0  0  0  0  0  0  0  0  0  0  0  0
   21.5069   -8.6779  -14.2968 C   0  0  1  0  0  0  0  0  0  0  0  0
   22.6592   -7.9082  -14.0617 O   0  0  0  0  0  0  0  0  0  0  0  0
   21.0804   -8.4928  -15.7366 C   0  0  2  0  0  0  0  0  0  0  0  0
   22.1494   -8.9390  -16.5993 N   0  0  0  0  0  0  0  0  0  0  0  0
   20.6720   -7.1073  -16.0229 C   0  0  0  0  0  0  0  0  0  0  0  0
   19.5602   -6.5675  -15.3304 O   0  0  0  0  0  0  0  0  0  0  0  0
   21.2220   -6.3520  -16.8294 O   0  0  0  0  0  0  0  0  0  0  0  0
  1  2  1  0
  2 12  2  0
  3  4  2  0
  3  2  1  0
  4  5  1  0
  5  6  1  0
  5 11  2  0
  7  8  1  6
  7  6  1  0
  9  7  1  0
 10  9  2  0
 12 11  1  0
 13  9  1  0
 14 13  1  0
 14 15  1  6
 15 16  1  0
 16 20  1  0
 17 16  2  0
 18 14  1  0
 19 18  2  0
 22 21  1  6
 22 24  1  0
 23 22  1  0
 24 26  1  0
 24 25  1  6
 25 18  1  0
 26 27  1  0
 28 26  2  0
M  END
$$$$
