YDT.pdb
     RDKit          3D

 28 28  0  0  1  0  0  0  0  0999 V2000
   16.8729  -15.2717  -22.8265 O   0  0  0  0  0  0  0  0  0  0  0  0
   17.0678  -14.5766  -21.6210 C   0  0  0  0  0  0  0  0  0  0  0  0
   17.3215  -13.2290  -21.6701 C   0  0  0  0  0  0  0  0  0  0  0  0
   17.5167  -12.5265  -20.4885 C   0  0  0  0  0  0  0  0  0  0  0  0
   17.4529  -13.1898  -19.2873 C   0  0  0  0  0  0  0  0  0  0  0  0
   17.6680  -12.4492  -18.0306 C   0  0  0  0  0  0  0  0  0  0  0  0
   19.1754  -12.3559  -17.8213 C   0  0  2  0  0  0  0  0  0  0  0  0
   19.5920  -13.6477  -17.2859 N   0  0  0  0  0  0  0  0  0  0  0  0
   19.4798  -11.3235  -16.8213 C   0  0  0  0  0  0  0  0  0  0  0  0
   19.7836  -11.6146  -15.6625 O   0  0  0  0  0  0  0  0  0  0  0  0
   17.1996  -14.5346  -19.2464 C   0  0  0  0  0  0  0  0  0  0  0  0
   17.0057  -15.2321  -20.4213 C   0  0  0  0  0  0  0  0  0  0  0  0
   19.4317   -9.9293  -17.1677 N   0  0  0  0  0  0  0  0  0  0  0  0
   19.7642   -8.8646  -16.2837 C   0  0  1  0  0  0  0  0  0  0  0  0
   21.0686   -9.1035  -15.5344 C   0  0  0  0  0  0  0  0  0  0  0  0
   21.2030   -7.9469  -14.5911 C   0  0  0  0  0  0  0  0  0  0  0  0
   21.9553   -6.9530  -14.8206 O   0  0  0  0  0  0  0  0  0  0  0  0
   19.6856   -7.5146  -16.8844 C   0  0  0  0  0  0  0  0  0  0  0  0
   20.5157   -7.0861  -17.7186 O   0  0  0  0  0  0  0  0  0  0  0  0
   20.4898   -7.8921  -13.3754 O   0  0  0  0  0  0  0  0  0  0  0  0
   16.0835   -5.9652  -17.8532 C   0  0  0  0  0  0  0  0  0  0  0  0
   16.9396   -4.9954  -17.1126 C   0  0  1  0  0  0  0  0  0  0  0  0
   16.5133   -4.9981  -15.7732 O   0  0  0  0  0  0  0  0  0  0  0  0
   18.4161   -5.3226  -17.1566 C   0  0  2  0  0  0  0  0  0  0  0  0
   18.6264   -6.6077  -16.5317 N   0  0  0  0  0  0  0  0  0  0  0  0
   19.2397   -4.2638  -16.5493 C   0  0  0  0  0  0  0  0  0  0  0  0
   19.2034   -2.9645  -17.1127 O   0  0  0  0  0  0  0  0  0  0  0  0
   19.9771   -4.4052  -15.5695 O   0  0  0  0  0  0  0  0  0  0  0  0
  1  2  1  0
  2 12  2  0
  3  4  2  0
  3  2  1  0
  4  5  1  0
  5  6  1  0
  5 11  2  0
  7  8  1  1
  7  6  1  0
  9  7  1  0
 10  9  2  0
 12 11  1  0
 13  9  1  0
 14 13  1  0
 14 15  1  6
 15 16  1  0
 16 20  1  0
 17 16  2  0
 18 14  1  0
 19 18  2  0
 22 21  1  6
 22 24  1  0
 23 22  1  0
 24 26  1  0
 24 25  1  1
 25 18  1  0
 26 27  1  0
 28 26  2  0
M  END
$$$$
