YDT.pdb
     RDKit          3D

 28 28  0  0  1  0  0  0  0  0999 V2000
   26.0540  -16.5658  -16.1562 O   0  0  0  0  0  0  0  0  0  0  0  0
   25.5048  -15.2765  -16.2598 C   0  0  0  0  0  0  0  0  0  0  0  0
   24.9393  -14.7089  -15.1458 C   0  0  0  0  0  0  0  0  0  0  0  0
   24.3918  -13.4357  -15.2302 C   0  0  0  0  0  0  0  0  0  0  0  0
   24.4242  -12.7621  -16.4270 C   0  0  0  0  0  0  0  0  0  0  0  0
   23.8365  -11.4132  -16.5231 C   0  0  0  0  0  0  0  0  0  0  0  0
   22.3217  -11.5867  -16.5213 C   0  0  2  0  0  0  0  0  0  0  0  0
   21.9873  -12.2517  -17.7763 N   0  0  0  0  0  0  0  0  0  0  0  0
   21.6665  -10.2716  -16.5085 C   0  0  0  0  0  0  0  0  0  0  0  0
   21.6204   -9.5619  -17.5154 O   0  0  0  0  0  0  0  0  0  0  0  0
   24.9900  -13.3352  -17.5341 C   0  0  0  0  0  0  0  0  0  0  0  0
   25.5339  -14.6007  -17.4494 C   0  0  0  0  0  0  0  0  0  0  0  0
   21.0539   -9.7685  -15.3095 N   0  0  0  0  0  0  0  0  0  0  0  0
   20.4014   -8.5082  -15.2026 C   0  0  1  0  0  0  0  0  0  0  0  0
   19.0259   -8.6073  -14.5558 C   0  0  0  0  0  0  0  0  0  0  0  0
   18.2360   -9.5242  -15.4396 C   0  0  0  0  0  0  0  0  0  0  0  0
   17.9863   -9.2655  -16.6548 O   0  0  0  0  0  0  0  0  0  0  0  0
   21.2320   -7.4289  -14.6239 C   0  0  0  0  0  0  0  0  0  0  0  0
   21.8298   -7.5363  -13.5287 O   0  0  0  0  0  0  0  0  0  0  0  0
   17.7172  -10.7478  -14.9671 O   0  0  0  0  0  0  0  0  0  0  0  0
   23.8317   -5.3610  -16.7472 C   0  0  0  0  0  0  0  0  0  0  0  0
   22.9149   -4.4459  -16.0096 C   0  0  1  0  0  0  0  0  0  0  0  0
   21.9400   -4.0055  -16.9212 O   0  0  0  0  0  0  0  0  0  0  0  0
   22.2240   -5.0913  -14.8284 C   0  0  2  0  0  0  0  0  0  0  0  0
   21.3978   -6.1746  -15.3079 N   0  0  0  0  0  0  0  0  0  0  0  0
   21.4614   -4.1178  -14.0290 C   0  0  0  0  0  0  0  0  0  0  0  0
   22.1696   -3.1331  -13.2969 O   0  0  0  0  0  0  0  0  0  0  0  0
   20.2314   -4.0771  -13.9350 O   0  0  0  0  0  0  0  0  0  0  0  0
  1  2  1  0
  2 12  2  0
  3  4  2  0
  3  2  1  0
  4  5  1  0
  5  6  1  0
  5 11  2  0
  7  8  1  6
  7  6  1  0
  9  7  1  0
 10  9  2  0
 12 11  1  0
 13  9  1  0
 14 13  1  0
 14 15  1  1
 15 16  1  0
 16 20  1  0
 17 16  2  0
 18 14  1  0
 19 18  2  0
 22 21  1  6
 22 24  1  0
 23 22  1  0
 24 26  1  0
 24 25  1  6
 25 18  1  0
 26 27  1  0
 28 26  2  0
M  END
$$$$
