YDT.pdb
     RDKit          3D

 28 28  0  0  1  0  0  0  0  0999 V2000
   27.0034  -16.8960  -15.9231 O   0  0  0  0  0  0  0  0  0  0  0  0
   26.3416  -15.6659  -16.0754 C   0  0  0  0  0  0  0  0  0  0  0  0
   25.8825  -15.0205  -14.9548 C   0  0  0  0  0  0  0  0  0  0  0  0
   25.2262  -13.8041  -15.0870 C   0  0  0  0  0  0  0  0  0  0  0  0
   25.0460  -13.2636  -16.3370 C   0  0  0  0  0  0  0  0  0  0  0  0
   24.3421  -11.9761  -16.4825 C   0  0  0  0  0  0  0  0  0  0  0  0
   22.8979  -12.2073  -16.0520 C   0  0  2  0  0  0  0  0  0  0  0  0
   22.3309  -13.1426  -17.0178 N   0  0  0  0  0  0  0  0  0  0  0  0
   22.1433  -10.9492  -16.1322 C   0  0  0  0  0  0  0  0  0  0  0  0
   21.6883  -10.5345  -17.2002 O   0  0  0  0  0  0  0  0  0  0  0  0
   25.5067  -13.9136  -17.4503 C   0  0  0  0  0  0  0  0  0  0  0  0
   26.1589  -15.1226  -17.3181 C   0  0  0  0  0  0  0  0  0  0  0  0
   21.9110  -10.1565  -14.9559 N   0  0  0  0  0  0  0  0  0  0  0  0
   21.1126   -8.9789  -14.9192 C   0  0  1  0  0  0  0  0  0  0  0  0
   19.9523   -9.0814  -13.9377 C   0  0  0  0  0  0  0  0  0  0  0  0
   18.9579   -9.9922  -14.5913 C   0  0  0  0  0  0  0  0  0  0  0  0
   18.3020   -9.6687  -15.6264 O   0  0  0  0  0  0  0  0  0  0  0  0
   21.8754   -7.7188  -14.7775 C   0  0  0  0  0  0  0  0  0  0  0  0
   22.8673   -7.5991  -14.0224 O   0  0  0  0  0  0  0  0  0  0  0  0
   18.6890  -11.2825  -14.0889 O   0  0  0  0  0  0  0  0  0  0  0  0
   20.3748   -4.0859  -16.7069 C   0  0  0  0  0  0  0  0  0  0  0  0
   21.8234   -4.4240  -16.6110 C   0  0  1  0  0  0  0  0  0  0  0  0
   22.5326   -3.2126  -16.5407 O   0  0  0  0  0  0  0  0  0  0  0  0
   22.1775   -5.2686  -15.4066 C   0  0  2  0  0  0  0  0  0  0  0  0
   21.5063   -6.5426  -15.5186 N   0  0  0  0  0  0  0  0  0  0  0  0
   21.8731   -4.5856  -14.1382 C   0  0  0  0  0  0  0  0  0  0  0  0
   22.6615   -3.4718  -13.7574 O   0  0  0  0  0  0  0  0  0  0  0  0
   20.9716   -4.8994  -13.3557 O   0  0  0  0  0  0  0  0  0  0  0  0
  1  2  1  0
  2 12  2  0
  3  4  2  0
  3  2  1  0
  4  5  1  0
  5  6  1  0
  5 11  2  0
  7  8  1  6
  7  6  1  0
  9  7  1  0
 10  9  2  0
 12 11  1  0
 13  9  1  0
 14 13  1  0
 14 15  1  1
 15 16  1  0
 16 20  1  0
 17 16  2  0
 18 14  1  0
 19 18  2  0
 22 21  1  1
 22 24  1  0
 23 22  1  0
 24 26  1  0
 24 25  1  6
 25 18  1  0
 26 27  1  0
 28 26  2  0
M  END
$$$$
