KDR.pdb
     RDKit          3D

 29 28  0  0  1  0  0  0  0  0999 V2000
   20.4166  -10.2236  -14.9043 N   0  0  0  0  0  0  0  0  0  0  0  0
   19.6151   -9.0232  -15.2108 C   0  0  1  0  0  0  0  0  0  0  0  0
   18.2200   -9.4321  -15.5103 C   0  0  0  0  0  0  0  0  0  0  0  0
   17.9079   -9.6824  -16.9152 C   0  0  0  0  0  0  0  0  0  0  0  0
   18.6711   -9.1566  -18.0336 C   0  0  0  0  0  0  0  0  0  0  0  0
   18.2742   -9.3883  -19.4379 C   0  0  0  0  0  0  0  0  0  0  0  0
   19.2298   -8.6366  -20.3213 N   0  0  0  0  0  0  0  0  0  0  0  0
   19.6510   -8.2258  -13.9111 C   0  0  0  0  0  0  0  0  0  0  0  0
   19.4021   -8.8386  -12.8587 O   0  0  0  0  0  0  0  0  0  0  0  0
   19.9486   -6.8563  -13.8652 N   0  0  0  0  0  0  0  0  0  0  0  0
   19.9986   -6.0517  -12.6827 C   0  0  1  0  0  0  0  0  0  0  0  0
   20.7498   -4.7918  -12.9678 C   0  0  0  0  0  0  0  0  0  0  0  0
   22.2083   -5.0303  -13.0518 C   0  0  0  0  0  0  0  0  0  0  0  0
   23.0186   -4.2097  -13.5541 O   0  0  0  0  0  0  0  0  0  0  0  0
   18.6354   -5.7842  -12.1432 C   0  0  0  0  0  0  0  0  0  0  0  0
   17.7982   -5.2716  -12.9266 O   0  0  0  0  0  0  0  0  0  0  0  0
   22.7899   -6.2109  -12.5658 O   0  0  0  0  0  0  0  0  0  0  0  0
   12.5253  -10.2375   -8.0491 N   0  0  0  0  0  0  0  0  0  0  0  0
   12.0778   -8.8855   -8.2098 C   0  0  0  0  0  0  0  0  0  0  0  0
   10.8142   -8.6464   -8.2881 N   0  0  0  0  0  0  0  0  0  0  0  0
   13.0292   -7.8310   -8.2801 N   0  0  0  0  0  0  0  0  0  0  0  0
   14.3746   -8.1050   -8.7288 C   0  0  0  0  0  0  0  0  0  0  0  0
   15.0805   -6.7385   -8.8541 C   0  0  0  0  0  0  0  0  0  0  0  0
   16.4746   -6.9306   -9.3896 C   0  0  0  0  0  0  0  0  0  0  0  0
   16.9341   -5.8177  -10.2605 C   0  0  2  0  0  0  0  0  0  0  0  0
   18.2659   -6.0821  -10.8102 N   0  0  0  0  0  0  0  0  0  0  0  0
   16.8899   -4.5159   -9.5872 C   0  0  0  0  0  0  0  0  0  0  0  0
   18.0566   -4.0484   -8.9724 O   0  0  0  0  0  0  0  0  0  0  0  0
   15.8909   -3.7662   -9.5068 O   0  0  0  0  0  0  0  0  0  0  0  0
  2  1  1  1
  3  2  1  0
  4  3  1  0
  5  4  1  0
  6  5  1  0
  7  6  1  0
  8 10  1  0
  8  2  1  0
  9  8  2  0
 11 10  1  0
 12 13  1  0
 11 12  1  6
 13 17  1  0
 14 13  2  0
 15 26  1  0
 15 11  1  0
 16 15  2  0
 18 19  1  0
 19 21  1  0
 20 19  2  0
 21 22  1  0
 22 23  1  0
 23 24  1  0
 25 24  1  1
 25 26  1  0
 25 27  1  0
 27 28  1  0
 29 27  2  0
M  END
$$$$
