KDR.pdb
     RDKit          3D

 29 28  0  0  1  0  0  0  0  0999 V2000
   25.7141  -20.2982  -16.1859 N   0  0  0  0  0  0  0  0  0  0  0  0
   25.7368  -19.5125  -14.9371 C   0  0  1  0  0  0  0  0  0  0  0  0
   27.0996  -18.9606  -14.7333 C   0  0  0  0  0  0  0  0  0  0  0  0
   28.1489  -19.4959  -15.5970 C   0  0  0  0  0  0  0  0  0  0  0  0
   28.3556  -20.9092  -15.8610 C   0  0  0  0  0  0  0  0  0  0  0  0
   29.4904  -21.4033  -16.6681 C   0  0  0  0  0  0  0  0  0  0  0  0
   29.4735  -22.9054  -16.6235 N   0  0  0  0  0  0  0  0  0  0  0  0
   24.7560  -18.3766  -15.2095 C   0  0  0  0  0  0  0  0  0  0  0  0
   24.5726  -17.5505  -14.2990 O   0  0  0  0  0  0  0  0  0  0  0  0
   24.0705  -18.2366  -16.4246 N   0  0  0  0  0  0  0  0  0  0  0  0
   23.1210  -17.2117  -16.7346 C   0  0  1  0  0  0  0  0  0  0  0  0
   23.4555  -16.6054  -18.0588 C   0  0  0  0  0  0  0  0  0  0  0  0
   22.5654  -15.4675  -18.3812 C   0  0  0  0  0  0  0  0  0  0  0  0
   21.5306  -15.5737  -19.0885 O   0  0  0  0  0  0  0  0  0  0  0  0
   21.7233  -17.7267  -16.6885 C   0  0  0  0  0  0  0  0  0  0  0  0
   21.5323  -18.9050  -17.0790 O   0  0  0  0  0  0  0  0  0  0  0  0
   22.8255  -14.1728  -17.9077 O   0  0  0  0  0  0  0  0  0  0  0  0
   14.5658  -12.8223  -15.0458 N   0  0  0  0  0  0  0  0  0  0  0  0
   14.4585  -13.4587  -16.3255 C   0  0  0  0  0  0  0  0  0  0  0  0
   13.5181  -13.0995  -17.1296 N   0  0  0  0  0  0  0  0  0  0  0  0
   15.3867  -14.4727  -16.6893 N   0  0  0  0  0  0  0  0  0  0  0  0
   16.4102  -14.8794  -15.7547 C   0  0  0  0  0  0  0  0  0  0  0  0
   17.2637  -15.9432  -16.4768 C   0  0  0  0  0  0  0  0  0  0  0  0
   18.3458  -16.4415  -15.5560 C   0  0  0  0  0  0  0  0  0  0  0  0
   19.2525  -17.4344  -16.1887 C   0  0  2  0  0  0  0  0  0  0  0  0
   20.6338  -16.9486  -16.2304 N   0  0  0  0  0  0  0  0  0  0  0  0
   18.7983  -17.8490  -17.5198 C   0  0  0  0  0  0  0  0  0  0  0  0
   17.7992  -18.8249  -17.6043 O   0  0  0  0  0  0  0  0  0  0  0  0
   19.2247  -17.4066  -18.6101 O   0  0  0  0  0  0  0  0  0  0  0  0
  2  1  1  6
  3  2  1  0
  4  3  1  0
  5  4  1  0
  6  5  1  0
  7  6  1  0
  8 10  1  0
  8  2  1  0
  9  8  2  0
 11 10  1  0
 12 13  1  0
 11 12  1  6
 13 17  1  0
 14 13  2  0
 15 26  1  0
 15 11  1  0
 16 15  2  0
 18 19  1  0
 19 21  1  0
 20 19  2  0
 21 22  1  0
 22 23  1  0
 23 24  1  0
 25 24  1  6
 25 26  1  0
 25 27  1  0
 27 28  1  0
 29 27  2  0
M  END
$$$$
