KDR.pdb
     RDKit          3D

 29 28  0  0  1  0  0  0  0  0999 V2000
   27.3976  -20.8609   -9.7652 N   0  0  0  0  0  0  0  0  0  0  0  0
   25.9229  -20.8312   -9.8066 C   0  0  1  0  0  0  0  0  0  0  0  0
   25.4234  -19.9282   -8.7396 C   0  0  0  0  0  0  0  0  0  0  0  0
   24.5860  -20.5432   -7.7129 C   0  0  0  0  0  0  0  0  0  0  0  0
   23.5788  -21.5573   -7.9716 C   0  0  0  0  0  0  0  0  0  0  0  0
   22.6579  -22.0404   -6.9219 C   0  0  0  0  0  0  0  0  0  0  0  0
   21.7466  -23.0643   -7.5381 N   0  0  0  0  0  0  0  0  0  0  0  0
   25.6139  -20.2325  -11.1751 C   0  0  0  0  0  0  0  0  0  0  0  0
   25.7910  -19.0104  -11.3164 O   0  0  0  0  0  0  0  0  0  0  0  0
   25.1478  -20.9974  -12.2539 N   0  0  0  0  0  0  0  0  0  0  0  0
   24.9159  -20.5152  -13.5811 C   0  0  1  0  0  0  0  0  0  0  0  0
   25.6862  -21.3458  -14.5556 C   0  0  0  0  0  0  0  0  0  0  0  0
   26.3441  -20.5119  -15.5867 C   0  0  0  0  0  0  0  0  0  0  0  0
   26.1037  -19.2877  -15.7473 O   0  0  0  0  0  0  0  0  0  0  0  0
   23.4613  -20.4738  -13.9034 C   0  0  0  0  0  0  0  0  0  0  0  0
   22.7985  -21.5213  -13.7017 O   0  0  0  0  0  0  0  0  0  0  0  0
   27.2969  -21.0461  -16.4670 O   0  0  0  0  0  0  0  0  0  0  0  0
   24.4966  -18.4095  -20.0586 N   0  0  0  0  0  0  0  0  0  0  0  0
   23.3170  -17.6411  -20.3274 C   0  0  0  0  0  0  0  0  0  0  0  0
   23.4137  -16.5655  -21.0300 N   0  0  0  0  0  0  0  0  0  0  0  0
   22.0619  -18.0738  -19.8181 N   0  0  0  0  0  0  0  0  0  0  0  0
   21.9986  -19.2176  -18.9382 C   0  0  0  0  0  0  0  0  0  0  0  0
   21.8192  -18.6611  -17.5100 C   0  0  0  0  0  0  0  0  0  0  0  0
   21.7023  -19.7978  -16.5295 C   0  0  0  0  0  0  0  0  0  0  0  0
   21.5383  -19.3521  -15.1215 C   0  0  2  0  0  0  0  0  0  0  0  0
   22.8218  -19.3205  -14.4164 N   0  0  0  0  0  0  0  0  0  0  0  0
   20.5515  -20.1492  -14.3861 C   0  0  0  0  0  0  0  0  0  0  0  0
   20.8789  -20.5830  -13.0967 O   0  0  0  0  0  0  0  0  0  0  0  0
   19.4220  -20.4865  -14.8066 O   0  0  0  0  0  0  0  0  0  0  0  0
  2  1  1  1
  3  2  1  0
  4  3  1  0
  5  4  1  0
  6  5  1  0
  7  6  1  0
  8 10  1  0
  8  2  1  0
  9  8  2  0
 11 10  1  0
 12 13  1  0
 11 12  1  6
 13 17  1  0
 14 13  2  0
 15 26  1  0
 15 11  1  0
 16 15  2  0
 18 19  1  0
 19 21  1  0
 20 19  2  0
 21 22  1  0
 22 23  1  0
 23 24  1  0
 25 24  1  6
 25 26  1  0
 25 27  1  0
 27 28  1  0
 29 27  2  0
M  END
$$$$
