KDR.pdb
     RDKit          3D

 29 28  0  0  1  0  0  0  0  0999 V2000
   27.1258  -24.6687  -18.1109 N   0  0  0  0  0  0  0  0  0  0  0  0
   28.0136  -23.8605  -17.2530 C   0  0  1  0  0  0  0  0  0  0  0  0
   29.1621  -23.3765  -18.0592 C   0  0  0  0  0  0  0  0  0  0  0  0
   29.7987  -24.3600  -18.9317 C   0  0  0  0  0  0  0  0  0  0  0  0
   30.9818  -24.1036  -19.7344 C   0  0  0  0  0  0  0  0  0  0  0  0
   31.5290  -25.1036  -20.6746 C   0  0  0  0  0  0  0  0  0  0  0  0
   32.7628  -24.5221  -21.3057 N   0  0  0  0  0  0  0  0  0  0  0  0
   27.1390  -22.6807  -16.8414 C   0  0  0  0  0  0  0  0  0  0  0  0
   27.6708  -21.7856  -16.1625 O   0  0  0  0  0  0  0  0  0  0  0  0
   25.7864  -22.5747  -17.1955 N   0  0  0  0  0  0  0  0  0  0  0  0
   24.9088  -21.5049  -16.8303 C   0  0  1  0  0  0  0  0  0  0  0  0
   23.9176  -21.2767  -17.9250 C   0  0  0  0  0  0  0  0  0  0  0  0
   23.0064  -20.1524  -17.6137 C   0  0  0  0  0  0  0  0  0  0  0  0
   22.1135  -20.2063  -16.7295 O   0  0  0  0  0  0  0  0  0  0  0  0
   24.2494  -21.7599  -15.5183 C   0  0  0  0  0  0  0  0  0  0  0  0
   23.5293  -22.7848  -15.4272 O   0  0  0  0  0  0  0  0  0  0  0  0
   23.0840  -18.9310  -18.2995 O   0  0  0  0  0  0  0  0  0  0  0  0
   27.3895  -20.5232   -7.6504 N   0  0  0  0  0  0  0  0  0  0  0  0
   27.5811  -20.8139   -9.0407 C   0  0  0  0  0  0  0  0  0  0  0  0
   28.7771  -20.8367   -9.5194 N   0  0  0  0  0  0  0  0  0  0  0  0
   26.4548  -21.0723   -9.8692 N   0  0  0  0  0  0  0  0  0  0  0  0
   25.1761  -20.4814   -9.5493 C   0  0  0  0  0  0  0  0  0  0  0  0
   24.1811  -20.9894  -10.6139 C   0  0  0  0  0  0  0  0  0  0  0  0
   24.7398  -20.7499  -11.9914 C   0  0  0  0  0  0  0  0  0  0  0  0
   23.8288  -21.1792  -13.0840 C   0  0  2  0  0  0  0  0  0  0  0  0
   24.4059  -20.9046  -14.4020 N   0  0  0  0  0  0  0  0  0  0  0  0
   22.4873  -20.5996  -12.9639 C   0  0  0  0  0  0  0  0  0  0  0  0
   22.1057  -19.6171  -13.8841 O   0  0  0  0  0  0  0  0  0  0  0  0
   21.6324  -20.9036  -12.1019 O   0  0  0  0  0  0  0  0  0  0  0  0
  2  1  1  6
  3  2  1  0
  4  3  1  0
  5  4  1  0
  6  5  1  0
  7  6  1  0
  8 10  1  0
  8  2  1  0
  9  8  2  0
 11 10  1  0
 12 13  1  0
 11 12  1  6
 13 17  1  0
 14 13  2  0
 15 26  1  0
 15 11  1  0
 16 15  2  0
 18 19  1  0
 19 21  1  0
 20 19  2  0
 21 22  1  0
 22 23  1  0
 23 24  1  0
 25 24  1  1
 25 26  1  0
 25 27  1  0
 27 28  1  0
 29 27  2  0
M  END
$$$$
