KDR.pdb
     RDKit          3D

 29 28  0  0  1  0  0  0  0  0999 V2000
   18.7555  -24.5132   -7.0079 N   0  0  0  0  0  0  0  0  0  0  0  0
   18.3153  -25.7250   -7.7256 C   0  0  1  0  0  0  0  0  0  0  0  0
   17.1737  -26.3343   -6.9985 C   0  0  0  0  0  0  0  0  0  0  0  0
   17.0426  -25.9787   -5.5879 C   0  0  0  0  0  0  0  0  0  0  0  0
   15.9591  -26.4181   -4.7261 C   0  0  0  0  0  0  0  0  0  0  0  0
   15.8127  -25.9389   -3.3360 C   0  0  0  0  0  0  0  0  0  0  0  0
   14.5529  -26.5313   -2.7701 N   0  0  0  0  0  0  0  0  0  0  0  0
   17.8424  -25.1920   -9.0741 C   0  0  0  0  0  0  0  0  0  0  0  0
   17.6637  -26.0198   -9.9840 O   0  0  0  0  0  0  0  0  0  0  0  0
   17.6077  -23.8309   -9.3158 N   0  0  0  0  0  0  0  0  0  0  0  0
   17.2854  -23.2513  -10.5839 C   0  0  1  0  0  0  0  0  0  0  0  0
   16.0604  -22.4061  -10.4494 C   0  0  0  0  0  0  0  0  0  0  0  0
   15.7037  -21.7507  -11.7278 C   0  0  0  0  0  0  0  0  0  0  0  0
   15.7648  -22.3266  -12.8445 O   0  0  0  0  0  0  0  0  0  0  0  0
   18.4357  -22.4892  -11.1470 C   0  0  0  0  0  0  0  0  0  0  0  0
   19.0011  -21.6610  -10.3909 O   0  0  0  0  0  0  0  0  0  0  0  0
   15.2656  -20.4188  -11.7746 O   0  0  0  0  0  0  0  0  0  0  0  0
   24.4111  -24.7684  -17.1151 N   0  0  0  0  0  0  0  0  0  0  0  0
   24.8361  -24.2782  -15.8371 C   0  0  0  0  0  0  0  0  0  0  0  0
   25.9959  -24.6151  -15.3883 N   0  0  0  0  0  0  0  0  0  0  0  0
   23.9768  -23.4306  -15.0853 N   0  0  0  0  0  0  0  0  0  0  0  0
   22.6800  -23.0725  -15.6110 C   0  0  0  0  0  0  0  0  0  0  0  0
   22.0232  -22.1492  -14.5634 C   0  0  0  0  0  0  0  0  0  0  0  0
   20.8045  -22.8180  -13.9851 C   0  0  0  0  0  0  0  0  0  0  0  0
   20.0569  -21.9628  -13.0270 C   0  0  2  0  0  0  0  0  0  0  0  0
   18.8975  -22.6658  -12.4728 N   0  0  0  0  0  0  0  0  0  0  0  0
   19.6657  -20.6731  -13.6046 C   0  0  0  0  0  0  0  0  0  0  0  0
   18.5238  -20.6283  -14.4120 O   0  0  0  0  0  0  0  0  0  0  0  0
   20.2646  -19.5861  -13.4430 O   0  0  0  0  0  0  0  0  0  0  0  0
  2  1  1  1
  3  2  1  0
  4  3  1  0
  5  4  1  0
  6  5  1  0
  7  6  1  0
  8 10  1  0
  8  2  1  0
  9  8  2  0
 11 10  1  0
 12 13  1  0
 11 12  1  1
 13 17  1  0
 14 13  2  0
 15 26  1  0
 15 11  1  0
 16 15  2  0
 18 19  1  0
 19 21  1  0
 20 19  2  0
 21 22  1  0
 22 23  1  0
 23 24  1  0
 25 24  1  6
 25 26  1  0
 25 27  1  0
 27 28  1  0
 29 27  2  0
M  END
$$$$
