KDR.pdb
     RDKit          3D

 29 28  0  0  1  0  0  0  0  0999 V2000
   16.3575  -28.2012  -12.4438 N   0  0  0  0  0  0  0  0  0  0  0  0
   16.8639  -27.2821  -11.4064 C   0  0  1  0  0  0  0  0  0  0  0  0
   18.3432  -27.3858  -11.3434 C   0  0  0  0  0  0  0  0  0  0  0  0
   19.0313  -27.5875  -12.6160 C   0  0  0  0  0  0  0  0  0  0  0  0
   20.4745  -27.5871  -12.7799 C   0  0  0  0  0  0  0  0  0  0  0  0
   21.1193  -27.7869  -14.0943 C   0  0  0  0  0  0  0  0  0  0  0  0
   22.6071  -27.8105  -13.8835 N   0  0  0  0  0  0  0  0  0  0  0  0
   16.4653  -25.9033  -11.9226 C   0  0  0  0  0  0  0  0  0  0  0  0
   15.3867  -25.8127  -12.5338 O   0  0  0  0  0  0  0  0  0  0  0  0
   17.2566  -24.7611  -11.7346 N   0  0  0  0  0  0  0  0  0  0  0  0
   16.8269  -23.5378  -11.1290 C   0  0  1  0  0  0  0  0  0  0  0  0
   16.2561  -23.8233   -9.7778 C   0  0  0  0  0  0  0  0  0  0  0  0
   14.8451  -23.3879   -9.6757 C   0  0  0  0  0  0  0  0  0  0  0  0
   14.1159  -23.1553  -10.6740 O   0  0  0  0  0  0  0  0  0  0  0  0
   17.9292  -22.5362  -11.0740 C   0  0  0  0  0  0  0  0  0  0  0  0
   18.9252  -22.8169  -10.3625 O   0  0  0  0  0  0  0  0  0  0  0  0
   14.2199  -23.2041   -8.4334 O   0  0  0  0  0  0  0  0  0  0  0  0
   21.7348  -25.0660  -17.0723 N   0  0  0  0  0  0  0  0  0  0  0  0
   22.1408  -23.7007  -17.2312 C   0  0  0  0  0  0  0  0  0  0  0  0
   22.8889  -23.3792  -18.2297 N   0  0  0  0  0  0  0  0  0  0  0  0
   21.7147  -22.7238  -16.2899 N   0  0  0  0  0  0  0  0  0  0  0  0
   20.8585  -23.1084  -15.1920 C   0  0  0  0  0  0  0  0  0  0  0  0
   20.6357  -21.8376  -14.3452 C   0  0  0  0  0  0  0  0  0  0  0  0
   19.6718  -22.1313  -13.2265 C   0  0  0  0  0  0  0  0  0  0  0  0
   18.7763  -20.9912  -12.9003 C   0  0  2  0  0  0  0  0  0  0  0  0
   17.8880  -21.3107  -11.7803 N   0  0  0  0  0  0  0  0  0  0  0  0
   18.0141  -20.5194  -14.0606 C   0  0  0  0  0  0  0  0  0  0  0  0
   18.6001  -19.5579  -14.8913 O   0  0  0  0  0  0  0  0  0  0  0  0
   16.8677  -20.9000  -14.3881 O   0  0  0  0  0  0  0  0  0  0  0  0
  2  1  1  6
  3  2  1  0
  4  3  1  0
  5  4  1  0
  6  5  1  0
  7  6  1  0
  8 10  1  0
  8  2  1  0
  9  8  2  0
 11 10  1  0
 12 13  1  0
 11 12  1  1
 13 17  1  0
 14 13  2  0
 15 26  1  0
 15 11  1  0
 16 15  2  0
 18 19  1  0
 19 21  1  0
 20 19  2  0
 21 22  1  0
 22 23  1  0
 23 24  1  0
 25 24  1  6
 25 26  1  0
 25 27  1  0
 27 28  1  0
 29 27  2  0
M  END
$$$$
