QEK.pdb
     RDKit          3D

 28 27  0  0  1  0  0  0  0  0999 V2000
   17.3973  -15.5470  -16.4767 N   0  0  0  0  0  0  0  0  0  0  0  0
   18.5918  -14.8285  -16.3160 C   0  0  0  0  0  0  0  0  0  0  0  0
   19.3516  -15.0221  -15.3598 O   0  0  0  0  0  0  0  0  0  0  0  0
   18.9472  -13.7988  -17.3383 C   0  0  0  0  0  0  0  0  0  0  0  0
   19.4783  -12.5868  -16.6321 C   0  0  0  0  0  0  0  0  0  0  0  0
   19.9395  -11.5556  -17.5952 C   0  0  2  0  0  0  0  0  0  0  0  0
   21.1635  -12.0127  -18.2805 N   0  0  0  0  0  0  0  0  0  0  0  0
   20.2583  -10.2670  -16.8881 C   0  0  0  0  0  0  0  0  0  0  0  0
   19.4189   -9.6959  -16.1534 O   0  0  0  0  0  0  0  0  0  0  0  0
   21.5112   -9.6495  -17.0215 N   0  0  0  0  0  0  0  0  0  0  0  0
   21.9352   -8.4386  -16.4317 C   0  0  1  0  0  0  0  0  0  0  0  0
   23.3985   -8.2962  -16.1502 C   0  0  0  0  0  0  0  0  0  0  0  0
   23.9280   -9.3886  -15.3082 C   0  0  0  0  0  0  0  0  0  0  0  0
   25.4009   -9.3722  -15.0878 C   0  0  0  0  0  0  0  0  0  0  0  0
   26.0845   -8.4614  -15.5891 O   0  0  0  0  0  0  0  0  0  0  0  0
   21.2925   -7.2779  -17.0589 C   0  0  0  0  0  0  0  0  0  0  0  0
   21.2335   -7.2434  -18.3286 O   0  0  0  0  0  0  0  0  0  0  0  0
   26.0555  -10.3293  -14.3451 O   0  0  0  0  0  0  0  0  0  0  0  0
   20.7537   -6.2294  -16.2813 N   0  0  0  0  0  0  0  0  0  0  0  0
   20.0477   -5.0644  -16.9272 C   0  0  1  0  0  0  0  0  0  0  0  0
   19.1733   -5.5706  -17.9673 C   0  0  0  0  0  0  0  0  0  0  0  0
   18.2769   -4.6630  -18.6916 C   0  0  0  0  0  0  0  0  0  0  0  0
   17.3993   -5.2072  -19.7631 C   0  0  0  0  0  0  0  0  0  0  0  0
   16.5578   -4.0128  -20.2663 C   0  0  0  0  0  0  0  0  0  0  0  0
   15.8240   -4.4760  -21.4094 N   0  0  0  0  0  0  0  0  0  0  0  0
   19.6569   -4.1068  -15.9235 C   0  0  0  0  0  0  0  0  0  0  0  0
   19.1773   -4.3562  -14.7682 O   0  0  0  0  0  0  0  0  0  0  0  0
   19.7747   -2.7022  -16.1385 O   0  0  0  0  0  0  0  0  0  0  0  0
  1  2  1  0
  2  4  1  0
  3  2  2  0
  4  5  1  0
  6  8  1  0
  6  7  1  1
  6  5  1  0
  8  9  2  0
 10 11  1  0
 10  8  1  0
 11 16  1  0
 11 12  1  6
 13 12  1  0
 14 13  1  0
 15 14  2  0
 16 17  2  0
 16 19  1  0
 18 14  1  0
 19 20  1  0
 20 26  1  0
 20 21  1  1
 22 21  1  0
 22 23  1  0
 24 23  1  0
 25 24  1  0
 26 27  2  0
 26 28  1  0
M  END
$$$$
