QEK.pdb
     RDKit          3D

 28 27  0  0  1  0  0  0  0  0999 V2000
   18.9349  -14.0813  -15.8536 N   0  0  0  0  0  0  0  0  0  0  0  0
   19.2922  -15.0237  -16.8298 C   0  0  0  0  0  0  0  0  0  0  0  0
   18.5994  -16.0205  -17.0658 O   0  0  0  0  0  0  0  0  0  0  0  0
   20.5521  -14.8066  -17.6027 C   0  0  0  0  0  0  0  0  0  0  0  0
   21.1787  -13.5229  -17.1453 C   0  0  0  0  0  0  0  0  0  0  0  0
   21.0922  -12.4733  -18.1916 C   0  0  2  0  0  0  0  0  0  0  0  0
   21.8699  -12.8752  -19.3791 N   0  0  0  0  0  0  0  0  0  0  0  0
   21.6520  -11.1704  -17.6904 C   0  0  0  0  0  0  0  0  0  0  0  0
   21.2356  -10.6395  -16.6343 O   0  0  0  0  0  0  0  0  0  0  0  0
   22.6658  -10.4938  -18.3855 N   0  0  0  0  0  0  0  0  0  0  0  0
   23.2535   -9.2546  -18.0491 C   0  0  1  0  0  0  0  0  0  0  0  0
   24.5181   -8.8874  -18.7607 C   0  0  0  0  0  0  0  0  0  0  0  0
   25.1786   -7.7012  -18.1781 C   0  0  0  0  0  0  0  0  0  0  0  0
   26.4994   -7.3478  -18.7687 C   0  0  0  0  0  0  0  0  0  0  0  0
   26.9781   -8.0615  -19.6685 O   0  0  0  0  0  0  0  0  0  0  0  0
   22.2487   -8.1899  -17.9477 C   0  0  0  0  0  0  0  0  0  0  0  0
   21.5524   -7.9276  -18.9788 O   0  0  0  0  0  0  0  0  0  0  0  0
   27.2298   -6.2532  -18.3632 O   0  0  0  0  0  0  0  0  0  0  0  0
   22.0561   -7.4761  -16.7445 N   0  0  0  0  0  0  0  0  0  0  0  0
   20.9876   -6.4188  -16.6289 C   0  0  1  0  0  0  0  0  0  0  0  0
   19.7625   -6.9316  -17.2109 C   0  0  0  0  0  0  0  0  0  0  0  0
   18.5018   -6.1982  -17.0551 C   0  0  0  0  0  0  0  0  0  0  0  0
   17.2461   -6.7840  -17.5978 C   0  0  0  0  0  0  0  0  0  0  0  0
   16.1159   -5.8135  -17.1873 C   0  0  0  0  0  0  0  0  0  0  0  0
   14.8949   -6.3541  -17.7132 N   0  0  0  0  0  0  0  0  0  0  0  0
   21.0746   -5.7682  -15.3458 C   0  0  0  0  0  0  0  0  0  0  0  0
   21.8676   -6.0572  -14.3894 O   0  0  0  0  0  0  0  0  0  0  0  0
   20.2304   -4.6725  -14.9998 O   0  0  0  0  0  0  0  0  0  0  0  0
  1  2  1  0
  2  4  1  0
  3  2  2  0
  4  5  1  0
  6  8  1  0
  6  7  1  6
  6  5  1  0
  8  9  2  0
 10 11  1  0
 10  8  1  0
 11 16  1  0
 11 12  1  6
 13 12  1  0
 14 13  1  0
 15 14  2  0
 16 17  2  0
 16 19  1  0
 18 14  1  0
 19 20  1  0
 20 26  1  0
 20 21  1  1
 22 21  1  0
 22 23  1  0
 24 23  1  0
 25 24  1  0
 26 27  2  0
 26 28  1  0
M  END
$$$$
