QEK.pdb
     RDKit          3D

 28 27  0  0  1  0  0  0  0  0999 V2000
   30.1074  -24.4719  -16.2341 N   0  0  0  0  0  0  0  0  0  0  0  0
   30.2454  -23.4511  -17.1870 C   0  0  0  0  0  0  0  0  0  0  0  0
   31.1307  -23.4731  -18.0501 O   0  0  0  0  0  0  0  0  0  0  0  0
   29.2871  -22.3058  -17.1483 C   0  0  0  0  0  0  0  0  0  0  0  0
   28.2686  -22.5700  -16.0794 C   0  0  0  0  0  0  0  0  0  0  0  0
   26.9986  -21.8502  -16.3494 C   0  0  2  0  0  0  0  0  0  0  0  0
   27.1806  -20.4020  -16.1345 N   0  0  0  0  0  0  0  0  0  0  0  0
   25.9090  -22.3221  -15.4263 C   0  0  0  0  0  0  0  0  0  0  0  0
   25.8333  -23.5171  -15.0565 O   0  0  0  0  0  0  0  0  0  0  0  0
   24.9303  -21.4425  -14.9395 N   0  0  0  0  0  0  0  0  0  0  0  0
   23.8441  -21.7550  -14.0929 C   0  0  1  0  0  0  0  0  0  0  0  0
   24.1682  -22.1069  -12.6745 C   0  0  0  0  0  0  0  0  0  0  0  0
   24.7777  -20.9848  -11.9315 C   0  0  0  0  0  0  0  0  0  0  0  0
   25.0461  -21.2411  -10.4892 C   0  0  0  0  0  0  0  0  0  0  0  0
   26.1796  -21.6115  -10.1341 O   0  0  0  0  0  0  0  0  0  0  0  0
   22.7288  -20.8192  -14.2770 C   0  0  0  0  0  0  0  0  0  0  0  0
   22.9805  -19.5741  -14.2217 O   0  0  0  0  0  0  0  0  0  0  0  0
   24.0879  -21.0864   -9.5124 O   0  0  0  0  0  0  0  0  0  0  0  0
   21.4149  -21.2817  -14.5095 N   0  0  0  0  0  0  0  0  0  0  0  0
   20.2775  -20.3171  -14.7301 C   0  0  1  0  0  0  0  0  0  0  0  0
   19.7191  -20.5517  -16.0476 C   0  0  0  0  0  0  0  0  0  0  0  0
   20.3073  -19.9114  -17.2290 C   0  0  0  0  0  0  0  0  0  0  0  0
   19.7612  -20.2272  -18.5768 C   0  0  0  0  0  0  0  0  0  0  0  0
   20.6716  -19.4895  -19.5842 C   0  0  0  0  0  0  0  0  0  0  0  0
   20.1042  -19.6998  -20.8856 N   0  0  0  0  0  0  0  0  0  0  0  0
   19.5007  -20.1865  -13.5231 C   0  0  0  0  0  0  0  0  0  0  0  0
   18.7628  -19.2021  -13.1864 O   0  0  0  0  0  0  0  0  0  0  0  0
   19.4818  -21.2068  -12.5274 O   0  0  0  0  0  0  0  0  0  0  0  0
  1  2  1  0
  2  4  1  0
  3  2  2  0
  4  5  1  0
  6  8  1  0
  6  7  1  1
  6  5  1  0
  8  9  2  0
 10 11  1  0
 10  8  1  0
 11 16  1  0
 11 12  1  1
 13 12  1  0
 14 13  1  0
 15 14  2  0
 16 17  2  0
 16 19  1  0
 18 14  1  0
 19 20  1  0
 20 26  1  0
 20 21  1  6
 22 21  1  0
 22 23  1  0
 24 23  1  0
 25 24  1  0
 26 27  2  0
 26 28  1  0
M  END
$$$$
