QEK.pdb
     RDKit          3D

 28 27  0  0  1  0  0  0  0  0999 V2000
   24.6660  -21.0036   -9.4569 N   0  0  0  0  0  0  0  0  0  0  0  0
   26.0418  -20.9581   -9.7288 C   0  0  0  0  0  0  0  0  0  0  0  0
   26.8856  -21.3574   -8.9177 O   0  0  0  0  0  0  0  0  0  0  0  0
   26.4908  -20.4074  -11.0429 C   0  0  0  0  0  0  0  0  0  0  0  0
   25.2879  -19.9151  -11.7915 C   0  0  0  0  0  0  0  0  0  0  0  0
   24.7515  -20.9569  -12.7029 C   0  0  2  0  0  0  0  0  0  0  0  0
   25.7829  -21.3570  -13.6790 N   0  0  0  0  0  0  0  0  0  0  0  0
   23.5651  -20.4390  -13.4687 C   0  0  0  0  0  0  0  0  0  0  0  0
   22.5651  -19.9595  -12.8852 O   0  0  0  0  0  0  0  0  0  0  0  0
   23.5285  -20.4709  -14.8710 N   0  0  0  0  0  0  0  0  0  0  0  0
   22.5058  -19.9790  -15.7114 C   0  0  1  0  0  0  0  0  0  0  0  0
   22.9299  -19.3651  -17.0091 C   0  0  0  0  0  0  0  0  0  0  0  0
   23.1686  -17.9110  -16.9031 C   0  0  0  0  0  0  0  0  0  0  0  0
   23.6180  -17.2418  -18.1554 C   0  0  0  0  0  0  0  0  0  0  0  0
   24.5343  -16.4016  -18.1055 O   0  0  0  0  0  0  0  0  0  0  0  0
   21.3748  -20.9109  -15.7885 C   0  0  0  0  0  0  0  0  0  0  0  0
   21.6243  -22.1309  -16.0453 O   0  0  0  0  0  0  0  0  0  0  0  0
   23.0619  -17.5101  -19.3863 O   0  0  0  0  0  0  0  0  0  0  0  0
   20.0482  -20.4718  -15.5835 N   0  0  0  0  0  0  0  0  0  0  0  0
   18.8982  -21.4466  -15.5735 C   0  0  1  0  0  0  0  0  0  0  0  0
   18.1971  -21.3241  -14.3102 C   0  0  0  0  0  0  0  0  0  0  0  0
   17.0145  -22.1466  -14.0336 C   0  0  0  0  0  0  0  0  0  0  0  0
   16.2611  -21.9371  -12.7675 C   0  0  0  0  0  0  0  0  0  0  0  0
   15.0390  -22.8798  -12.8429 C   0  0  0  0  0  0  0  0  0  0  0  0
   14.3567  -22.7743  -11.5847 N   0  0  0  0  0  0  0  0  0  0  0  0
   18.2595  -21.4688  -16.8654 C   0  0  0  0  0  0  0  0  0  0  0  0
   18.1621  -20.5020  -17.6916 O   0  0  0  0  0  0  0  0  0  0  0  0
   17.6357  -22.6452  -17.3753 O   0  0  0  0  0  0  0  0  0  0  0  0
  1  2  1  0
  2  4  1  0
  3  2  2  0
  4  5  1  0
  6  8  1  0
  6  7  1  6
  6  5  1  0
  8  9  2  0
 10 11  1  0
 10  8  1  0
 11 16  1  0
 11 12  1  6
 13 12  1  0
 14 13  1  0
 15 14  2  0
 16 17  2  0
 16 19  1  0
 18 14  1  0
 19 20  1  0
 20 26  1  0
 20 21  1  1
 22 21  1  0
 22 23  1  0
 24 23  1  0
 25 24  1  0
 26 27  2  0
 26 28  1  0
M  END
$$$$
