QEK.pdb
     RDKit          3D

 28 27  0  0  1  0  0  0  0  0999 V2000
   17.7206  -15.8038  -13.9281 N   0  0  0  0  0  0  0  0  0  0  0  0
   17.2377  -15.9991  -15.2311 C   0  0  0  0  0  0  0  0  0  0  0  0
   16.8401  -17.1013  -15.6263 O   0  0  0  0  0  0  0  0  0  0  0  0
   17.2077  -14.8315  -16.1625 C   0  0  0  0  0  0  0  0  0  0  0  0
   17.6560  -13.6111  -15.4145 C   0  0  0  0  0  0  0  0  0  0  0  0
   17.7004  -12.4186  -16.2976 C   0  0  2  0  0  0  0  0  0  0  0  0
   18.7076  -12.6101  -17.3585 N   0  0  0  0  0  0  0  0  0  0  0  0
   18.0768  -11.1888  -15.5180 C   0  0  0  0  0  0  0  0  0  0  0  0
   17.4713  -10.8647  -14.4698 O   0  0  0  0  0  0  0  0  0  0  0  0
   19.1238  -10.3516  -15.9323 N   0  0  0  0  0  0  0  0  0  0  0  0
   19.5050   -9.1149  -15.3672 C   0  0  1  0  0  0  0  0  0  0  0  0
   20.9667   -8.9000  -15.1267 C   0  0  0  0  0  0  0  0  0  0  0  0
   21.7400   -8.7731  -16.3791 C   0  0  0  0  0  0  0  0  0  0  0  0
   23.2073   -8.5816  -16.2103 C   0  0  0  0  0  0  0  0  0  0  0  0
   23.6867   -8.5056  -15.0646 O   0  0  0  0  0  0  0  0  0  0  0  0
   18.7914   -7.9937  -15.9894 C   0  0  0  0  0  0  0  0  0  0  0  0
   18.3254   -8.1604  -17.1606 O   0  0  0  0  0  0  0  0  0  0  0  0
   24.0749   -8.4829  -17.2751 O   0  0  0  0  0  0  0  0  0  0  0  0
   18.6236   -6.7656  -15.3125 N   0  0  0  0  0  0  0  0  0  0  0  0
   17.6413   -5.7333  -15.8044 C   0  0  1  0  0  0  0  0  0  0  0  0
   16.3710   -6.3851  -16.0574 C   0  0  0  0  0  0  0  0  0  0  0  0
   15.3363   -5.7139  -16.8516 C   0  0  0  0  0  0  0  0  0  0  0  0
   14.0002   -6.3528  -16.9967 C   0  0  0  0  0  0  0  0  0  0  0  0
   13.1504   -5.3686  -17.8316 C   0  0  0  0  0  0  0  0  0  0  0  0
   13.3810   -5.6900  -19.2111 N   0  0  0  0  0  0  0  0  0  0  0  0
   17.7993   -4.5087  -15.0610 C   0  0  0  0  0  0  0  0  0  0  0  0
   17.3608   -4.2583  -13.8897 O   0  0  0  0  0  0  0  0  0  0  0  0
   18.5032   -3.3901  -15.5960 O   0  0  0  0  0  0  0  0  0  0  0  0
  1  2  1  0
  2  4  1  0
  3  2  2  0
  4  5  1  0
  6  8  1  0
  6  7  1  6
  6  5  1  0
  8  9  2  0
 10 11  1  0
 10  8  1  0
 11 16  1  0
 11 12  1  6
 13 12  1  0
 14 13  1  0
 15 14  2  0
 16 17  2  0
 16 19  1  0
 18 14  1  0
 19 20  1  0
 20 26  1  0
 20 21  1  1
 22 21  1  0
 22 23  1  0
 24 23  1  0
 25 24  1  0
 26 27  2  0
 26 28  1  0
M  END
$$$$
