QEK.pdb
     RDKit          3D

 28 27  0  0  1  0  0  0  0  0999 V2000
   20.9027  -12.7537  -18.7001 N   0  0  0  0  0  0  0  0  0  0  0  0
   19.7658  -12.1941  -19.3029 C   0  0  0  0  0  0  0  0  0  0  0  0
   19.5514  -12.2897  -20.5170 O   0  0  0  0  0  0  0  0  0  0  0  0
   18.7901  -11.4612  -18.4412 C   0  0  0  0  0  0  0  0  0  0  0  0
   19.2135  -11.6054  -17.0096 C   0  0  0  0  0  0  0  0  0  0  0  0
   20.2524  -10.6088  -16.6475 C   0  0  2  0  0  0  0  0  0  0  0  0
   21.3170  -11.2513  -15.8535 N   0  0  0  0  0  0  0  0  0  0  0  0
   19.6642   -9.4984  -15.8209 C   0  0  0  0  0  0  0  0  0  0  0  0
   18.8086   -9.7228  -14.9332 O   0  0  0  0  0  0  0  0  0  0  0  0
   20.0499   -8.1626  -16.0093 N   0  0  0  0  0  0  0  0  0  0  0  0
   19.5626   -7.0270  -15.3258 C   0  0  1  0  0  0  0  0  0  0  0  0
   20.5594   -5.9678  -14.9720 C   0  0  0  0  0  0  0  0  0  0  0  0
   21.5683   -6.4339  -13.9986 C   0  0  0  0  0  0  0  0  0  0  0  0
   22.4675   -5.3797  -13.4525 C   0  0  0  0  0  0  0  0  0  0  0  0
   23.5453   -5.1377  -14.0251 O   0  0  0  0  0  0  0  0  0  0  0  0
   18.3030   -6.5466  -15.9056 C   0  0  0  0  0  0  0  0  0  0  0  0
   18.2006   -6.5246  -17.1728 O   0  0  0  0  0  0  0  0  0  0  0  0
   22.1618   -4.6469  -12.3274 O   0  0  0  0  0  0  0  0  0  0  0  0
   17.2341   -6.1215  -15.0863 N   0  0  0  0  0  0  0  0  0  0  0  0
   15.9611   -5.5804  -15.6858 C   0  0  1  0  0  0  0  0  0  0  0  0
   14.9199   -6.5795  -15.5433 C   0  0  0  0  0  0  0  0  0  0  0  0
   13.5464   -6.2873  -15.9672 C   0  0  0  0  0  0  0  0  0  0  0  0
   12.4902   -7.3183  -15.7773 C   0  0  0  0  0  0  0  0  0  0  0  0
   11.2170   -6.7447  -16.4390 C   0  0  0  0  0  0  0  0  0  0  0  0
   10.1609   -7.6832  -16.1867 N   0  0  0  0  0  0  0  0  0  0  0  0
   15.8106   -4.1873  -15.3483 C   0  0  0  0  0  0  0  0  0  0  0  0
   16.4111   -3.5520  -14.4195 O   0  0  0  0  0  0  0  0  0  0  0  0
   14.9206   -3.3327  -16.0629 O   0  0  0  0  0  0  0  0  0  0  0  0
  1  2  1  0
  2  4  1  0
  3  2  2  0
  4  5  1  0
  6  8  1  0
  6  7  1  1
  6  5  1  0
  8  9  2  0
 10 11  1  0
 10  8  1  0
 11 16  1  0
 11 12  1  6
 13 12  1  0
 14 13  1  0
 15 14  2  0
 16 17  2  0
 16 19  1  0
 18 14  1  0
 19 20  1  0
 20 26  1  0
 20 21  1  1
 22 21  1  0
 22 23  1  0
 24 23  1  0
 25 24  1  0
 26 27  2  0
 26 28  1  0
M  END
$$$$
