QEK.pdb
     RDKit          3D

 28 27  0  0  1  0  0  0  0  0999 V2000
   28.0839  -27.0569  -16.2171 N   0  0  0  0  0  0  0  0  0  0  0  0
   27.2565  -27.1253  -17.3483 C   0  0  0  0  0  0  0  0  0  0  0  0
   26.8084  -28.1976  -17.7708 O   0  0  0  0  0  0  0  0  0  0  0  0
   26.9125  -25.8564  -18.0575 C   0  0  0  0  0  0  0  0  0  0  0  0
   27.5314  -24.7099  -17.3143 C   0  0  0  0  0  0  0  0  0  0  0  0
   26.5771  -24.1107  -16.3479 C   0  0  2  0  0  0  0  0  0  0  0  0
   25.3711  -23.6366  -17.0533 N   0  0  0  0  0  0  0  0  0  0  0  0
   27.1953  -22.9335  -15.6449 C   0  0  0  0  0  0  0  0  0  0  0  0
   28.4381  -22.8035  -15.5503 O   0  0  0  0  0  0  0  0  0  0  0  0
   26.4049  -21.9298  -15.0649 N   0  0  0  0  0  0  0  0  0  0  0  0
   26.5411  -20.5335  -15.2262 C   0  0  1  0  0  0  0  0  0  0  0  0
   26.7820  -20.0308  -16.6154 C   0  0  0  0  0  0  0  0  0  0  0  0
   28.1899  -19.6491  -16.8496 C   0  0  0  0  0  0  0  0  0  0  0  0
   28.3961  -18.4749  -17.7423 C   0  0  0  0  0  0  0  0  0  0  0  0
   27.4080  -17.8812  -18.2105 O   0  0  0  0  0  0  0  0  0  0  0  0
   25.5354  -19.7992  -14.4497 C   0  0  0  0  0  0  0  0  0  0  0  0
   25.7699  -18.5808  -14.1722 O   0  0  0  0  0  0  0  0  0  0  0  0
   29.6452  -18.0050  -18.0814 O   0  0  0  0  0  0  0  0  0  0  0  0
   24.3418  -20.4214  -14.0221 N   0  0  0  0  0  0  0  0  0  0  0  0
   23.0018  -19.9877  -14.5598 C   0  0  1  0  0  0  0  0  0  0  0  0
   23.1620  -19.6014  -15.9482 C   0  0  0  0  0  0  0  0  0  0  0  0
   22.0827  -18.9031  -16.6547 C   0  0  0  0  0  0  0  0  0  0  0  0
   20.8873  -19.6699  -17.0993 C   0  0  0  0  0  0  0  0  0  0  0  0
   20.0223  -18.6738  -17.9039 C   0  0  0  0  0  0  0  0  0  0  0  0
   18.8661  -19.3969  -18.3508 N   0  0  0  0  0  0  0  0  0  0  0  0
   21.9668  -20.8615  -14.0674 C   0  0  0  0  0  0  0  0  0  0  0  0
   22.0075  -22.1340  -13.9896 O   0  0  0  0  0  0  0  0  0  0  0  0
   20.7208  -20.3573  -13.5918 O   0  0  0  0  0  0  0  0  0  0  0  0
  1  2  1  0
  2  4  1  0
  3  2  2  0
  4  5  1  0
  6  8  1  0
  6  7  1  6
  6  5  1  0
  8  9  2  0
 10 11  1  0
 10  8  1  0
 11 16  1  0
 11 12  1  6
 13 12  1  0
 14 13  1  0
 15 14  2  0
 16 17  2  0
 16 19  1  0
 18 14  1  0
 19 20  1  0
 20 26  1  0
 20 21  1  6
 22 21  1  0
 22 23  1  0
 24 23  1  0
 25 24  1  0
 26 27  2  0
 26 28  1  0
M  END
$$$$
