QEK.pdb
     RDKit          3D

 28 27  0  0  1  0  0  0  0  0999 V2000
   16.8644  -13.2545  -14.9264 N   0  0  0  0  0  0  0  0  0  0  0  0
   18.0768  -13.7559  -15.4242 C   0  0  0  0  0  0  0  0  0  0  0  0
   18.4280  -14.9274  -15.2412 O   0  0  0  0  0  0  0  0  0  0  0  0
   18.9641  -12.8366  -16.1982 C   0  0  0  0  0  0  0  0  0  0  0  0
   18.3559  -11.4656  -16.1905 C   0  0  0  0  0  0  0  0  0  0  0  0
   19.2199  -10.4842  -16.8935 C   0  0  2  0  0  0  0  0  0  0  0  0
   20.6353  -10.7142  -16.5466 N   0  0  0  0  0  0  0  0  0  0  0  0
   18.8677   -9.0777  -16.4937 C   0  0  0  0  0  0  0  0  0  0  0  0
   17.6956   -8.6434  -16.5835 O   0  0  0  0  0  0  0  0  0  0  0  0
   19.8383   -8.1917  -16.0023 N   0  0  0  0  0  0  0  0  0  0  0  0
   19.6704   -6.8237  -15.6946 C   0  0  1  0  0  0  0  0  0  0  0  0
   20.1655   -6.3623  -14.3595 C   0  0  0  0  0  0  0  0  0  0  0  0
   21.6400   -6.3555  -14.2671 C   0  0  0  0  0  0  0  0  0  0  0  0
   22.1969   -6.0444  -12.9213 C   0  0  0  0  0  0  0  0  0  0  0  0
   23.1317   -5.2296  -12.8193 O   0  0  0  0  0  0  0  0  0  0  0  0
   20.0204   -5.9669  -16.8334 C   0  0  0  0  0  0  0  0  0  0  0  0
   20.4775   -6.5248  -17.8805 O   0  0  0  0  0  0  0  0  0  0  0  0
   21.7221   -6.6220  -11.7650 O   0  0  0  0  0  0  0  0  0  0  0  0
   19.8557   -4.5655  -16.7740 N   0  0  0  0  0  0  0  0  0  0  0  0
   20.0470   -3.7065  -17.9981 C   0  0  1  0  0  0  0  0  0  0  0  0
   19.4679   -4.3890  -19.1389 C   0  0  0  0  0  0  0  0  0  0  0  0
   19.4282   -3.7381  -20.4529 C   0  0  0  0  0  0  0  0  0  0  0  0
   18.8210   -4.4583  -21.6048 C   0  0  0  0  0  0  0  0  0  0  0  0
   18.9377   -3.4993  -22.8109 C   0  0  0  0  0  0  0  0  0  0  0  0
   18.1495   -4.0660  -23.8679 N   0  0  0  0  0  0  0  0  0  0  0  0
   19.8178   -2.3221  -17.6694 C   0  0  0  0  0  0  0  0  0  0  0  0
   18.8670   -1.8463  -16.9647 O   0  0  0  0  0  0  0  0  0  0  0  0
   20.6840   -1.2871  -18.1294 O   0  0  0  0  0  0  0  0  0  0  0  0
  1  2  1  0
  2  4  1  0
  3  2  2  0
  4  5  1  0
  6  8  1  0
  6  7  1  1
  6  5  1  0
  8  9  2  0
 10 11  1  0
 10  8  1  0
 11 16  1  0
 11 12  1  1
 13 12  1  0
 14 13  1  0
 15 14  2  0
 16 17  2  0
 16 19  1  0
 18 14  1  0
 19 20  1  0
 20 26  1  0
 20 21  1  6
 22 21  1  0
 22 23  1  0
 24 23  1  0
 25 24  1  0
 26 27  2  0
 26 28  1  0
M  END
$$$$
