QEK.pdb
     RDKit          3D

 28 27  0  0  1  0  0  0  0  0999 V2000
   24.8272  -25.2768  -14.8714 N   0  0  0  0  0  0  0  0  0  0  0  0
   24.2826  -24.9322  -16.1178 C   0  0  0  0  0  0  0  0  0  0  0  0
   24.6879  -25.4332  -17.1733 O   0  0  0  0  0  0  0  0  0  0  0  0
   23.1786  -23.9267  -16.1598 C   0  0  0  0  0  0  0  0  0  0  0  0
   22.7119  -23.6698  -14.7577 C   0  0  0  0  0  0  0  0  0  0  0  0
   21.2300  -23.6755  -14.6688 C   0  0  2  0  0  0  0  0  0  0  0  0
   20.6914  -22.3683  -15.0903 N   0  0  0  0  0  0  0  0  0  0  0  0
   20.7793  -23.9286  -13.2564 C   0  0  0  0  0  0  0  0  0  0  0  0
   20.6246  -22.9917  -12.4385 O   0  0  0  0  0  0  0  0  0  0  0  0
   20.5125  -25.2264  -12.7947 N   0  0  0  0  0  0  0  0  0  0  0  0
   20.0342  -25.5993  -11.5194 C   0  0  1  0  0  0  0  0  0  0  0  0
   18.8944  -24.8046  -10.9627 C   0  0  0  0  0  0  0  0  0  0  0  0
   17.7341  -24.7514  -11.8758 C   0  0  0  0  0  0  0  0  0  0  0  0
   16.5475  -24.0121  -11.3627 C   0  0  0  0  0  0  0  0  0  0  0  0
   15.6311  -24.6395  -10.8018 O   0  0  0  0  0  0  0  0  0  0  0  0
   19.9159  -27.0564  -11.3915 C   0  0  0  0  0  0  0  0  0  0  0  0
   19.2020  -27.6733  -12.2438 O   0  0  0  0  0  0  0  0  0  0  0  0
   16.4106  -22.6468  -11.4791 O   0  0  0  0  0  0  0  0  0  0  0  0
   20.5733  -27.7569  -10.3564 N   0  0  0  0  0  0  0  0  0  0  0  0
   20.6024  -29.2641  -10.3326 C   0  0  1  0  0  0  0  0  0  0  0  0
   21.8764  -29.6950   -9.7905 C   0  0  0  0  0  0  0  0  0  0  0  0
   22.2493  -31.1136   -9.8063 C   0  0  0  0  0  0  0  0  0  0  0  0
   23.6068  -31.5153   -9.3479 C   0  0  0  0  0  0  0  0  0  0  0  0
   23.6991  -33.0392   -9.5871 C   0  0  0  0  0  0  0  0  0  0  0  0
   25.0476  -33.4249   -9.2831 N   0  0  0  0  0  0  0  0  0  0  0  0
   19.3207  -29.7754   -9.9166 C   0  0  0  0  0  0  0  0  0  0  0  0
   18.5081  -29.2366   -9.0943 O   0  0  0  0  0  0  0  0  0  0  0  0
   18.8064  -31.0089  -10.4135 O   0  0  0  0  0  0  0  0  0  0  0  0
  1  2  1  0
  2  4  1  0
  3  2  2  0
  4  5  1  0
  6  8  1  0
  6  7  1  1
  6  5  1  0
  8  9  2  0
 10 11  1  0
 10  8  1  0
 11 16  1  0
 11 12  1  6
 13 12  1  0
 14 13  1  0
 15 14  2  0
 16 17  2  0
 16 19  1  0
 18 14  1  0
 19 20  1  0
 20 26  1  0
 20 21  1  1
 22 21  1  0
 22 23  1  0
 24 23  1  0
 25 24  1  0
 26 27  2  0
 26 28  1  0
M  END
$$$$
