KWT.pdb
     RDKit          3D

 31 32  0  0  1  0  0  0  0  0999 V2000
    7.1068  -16.1150   21.3186 N   0  0  0  0  0  0  0  0  0  0  0  0
    8.2442  -15.2641   21.2061 C   0  0  1  0  0  0  0  0  0  0  0  0
    7.9852  -13.8515   20.8310 C   0  0  0  0  0  0  0  0  0  0  0  0
    7.3598  -13.6069   19.5085 C   0  0  0  0  0  0  0  0  0  0  0  0
    8.3408  -13.3585   18.3965 C   0  0  0  0  0  0  0  0  0  0  0  0
    7.5617  -13.0960   17.1081 C   0  0  0  0  0  0  0  0  0  0  0  0
    8.4457  -12.7121   16.0255 N   0  0  0  0  0  0  0  0  0  0  0  0
    9.0051  -15.3205   22.4918 C   0  0  0  0  0  0  0  0  0  0  0  0
    9.9842  -14.5596   22.6998 O   0  0  0  0  0  0  0  0  0  0  0  0
    8.6153  -16.2481   23.4917 N   0  0  0  0  0  0  0  0  0  0  0  0
    9.3737  -16.4785   24.6855 C   0  0  1  0  0  0  0  0  0  0  0  0
    8.5536  -16.3330   25.9457 C   0  0  0  0  0  0  0  0  0  0  0  0
    7.5083  -15.3098   25.8101 C   0  0  0  0  0  0  0  0  0  0  0  0
    6.1899  -15.4939   25.4513 C   0  0  0  0  0  0  0  0  0  0  0  0
    5.5836  -14.2931   25.4498 N   0  0  0  0  0  0  0  0  0  0  0  0
    6.4562  -13.3127   25.7963 C   0  0  0  0  0  0  0  0  0  0  0  0
    6.3008  -11.9398   25.9321 C   0  0  0  0  0  0  0  0  0  0  0  0
    7.3810  -11.1915   26.3026 C   0  0  0  0  0  0  0  0  0  0  0  0
    8.6083  -11.7803   26.5398 C   0  0  0  0  0  0  0  0  0  0  0  0
    8.7224  -13.1439   26.3947 C   0  0  0  0  0  0  0  0  0  0  0  0
    7.6547  -13.9486   26.0203 C   0  0  0  0  0  0  0  0  0  0  0  0
   10.0875  -17.7846   24.6456 C   0  0  0  0  0  0  0  0  0  0  0  0
    9.4721  -18.8793   24.4251 O   0  0  0  0  0  0  0  0  0  0  0  0
   13.3355  -19.0175   22.8686 C   0  0  0  0  0  0  0  0  0  0  0  0
   13.4550  -19.2716   24.3420 C   0  0  1  0  0  0  0  0  0  0  0  0
   14.3738  -18.3860   24.8643 O   0  0  0  0  0  0  0  0  0  0  0  0
   12.1619  -19.1415   25.0961 C   0  0  2  0  0  0  0  0  0  0  0  0
   11.4889  -17.8921   24.8490 N   0  0  0  0  0  0  0  0  0  0  0  0
   12.2954  -19.4409   26.5432 C   0  0  0  0  0  0  0  0  0  0  0  0
   12.0789  -18.5922   27.4487 O   0  0  0  0  0  0  0  0  0  0  0  0
   12.6747  -20.6999   26.9991 O   0  0  0  0  0  0  0  0  0  0  0  0
  2  1  1  1
  2  3  1  0
  4  3  1  0
  5  6  1  0
  5  4  1  0
  7  6  1  0
  8  2  1  0
  8  9  2  0
 10  8  1  0
 11 10  1  0
 11 12  1  1
 13 14  2  0
 13 12  1  0
 15 14  1  0
 16 21  2  0
 16 15  1  0
 17 16  1  0
 18 19  1  0
 18 17  2  0
 19 20  2  0
 20 21  1  0
 21 13  1  0
 22 11  1  0
 23 22  2  0
 25 24  1  6
 26 25  1  0
 27 25  1  0
 27 28  1  1
 28 22  1  0
 29 27  1  0
 30 29  2  0
 31 29  1  0
M  END
$$$$
