KWT.pdb
     RDKit          3D

 31 32  0  0  1  0  0  0  0  0999 V2000
    7.6415  -16.3740   18.9856 N   0  0  0  0  0  0  0  0  0  0  0  0
    8.5245  -15.2667   19.1420 C   0  0  1  0  0  0  0  0  0  0  0  0
    8.1217  -13.9955   18.4900 C   0  0  0  0  0  0  0  0  0  0  0  0
    7.4980  -14.0924   17.1477 C   0  0  0  0  0  0  0  0  0  0  0  0
    8.3662  -13.5965   16.0247 C   0  0  0  0  0  0  0  0  0  0  0  0
    7.5504  -13.6156   14.7324 C   0  0  0  0  0  0  0  0  0  0  0  0
    8.3845  -13.3476   13.5777 N   0  0  0  0  0  0  0  0  0  0  0  0
    8.7475  -15.0434   20.6035 C   0  0  0  0  0  0  0  0  0  0  0  0
    9.6518  -14.2707   21.0108 O   0  0  0  0  0  0  0  0  0  0  0  0
    7.9252  -15.7151   21.5441 N   0  0  0  0  0  0  0  0  0  0  0  0
    8.0979  -15.5964   22.9616 C   0  0  1  0  0  0  0  0  0  0  0  0
    6.7964  -15.3982   23.7024 C   0  0  0  0  0  0  0  0  0  0  0  0
    7.0110  -14.9994   25.0999 C   0  0  0  0  0  0  0  0  0  0  0  0
    7.1500  -15.8201   26.1989 C   0  0  0  0  0  0  0  0  0  0  0  0
    7.3284  -15.0437   27.2829 N   0  0  0  0  0  0  0  0  0  0  0  0
    7.3128  -13.7299   26.9418 C   0  0  0  0  0  0  0  0  0  0  0  0
    7.4542  -12.5746   27.6988 C   0  0  0  0  0  0  0  0  0  0  0  0
    7.3942  -11.3657   27.0670 C   0  0  0  0  0  0  0  0  0  0  0  0
    7.1969  -11.2842   25.7019 C   0  0  0  0  0  0  0  0  0  0  0  0
    7.0613  -12.4515   24.9861 C   0  0  0  0  0  0  0  0  0  0  0  0
    7.1149  -13.7048   25.5813 C   0  0  0  0  0  0  0  0  0  0  0  0
    8.8782  -16.7338   23.5224 C   0  0  0  0  0  0  0  0  0  0  0  0
    8.5205  -17.9448   23.3461 O   0  0  0  0  0  0  0  0  0  0  0  0
   12.0581  -17.9485   22.5993 C   0  0  0  0  0  0  0  0  0  0  0  0
   12.1775  -17.7711   24.0839 C   0  0  1  0  0  0  0  0  0  0  0  0
   12.9490  -16.6549   24.3292 O   0  0  0  0  0  0  0  0  0  0  0  0
   10.8615  -17.6260   24.7943 C   0  0  2  0  0  0  0  0  0  0  0  0
   10.0619  -16.5422   24.2834 N   0  0  0  0  0  0  0  0  0  0  0  0
   10.9947  -17.5892   26.2717 C   0  0  0  0  0  0  0  0  0  0  0  0
   10.5987  -16.6247   26.9788 O   0  0  0  0  0  0  0  0  0  0  0  0
   11.5756  -18.6359   26.9814 O   0  0  0  0  0  0  0  0  0  0  0  0
  2  1  1  1
  2  3  1  0
  4  3  1  0
  5  6  1  0
  5  4  1  0
  7  6  1  0
  8  2  1  0
  8  9  2  0
 10  8  1  0
 11 10  1  0
 11 12  1  1
 13 14  2  0
 13 12  1  0
 15 14  1  0
 16 21  2  0
 16 15  1  0
 17 16  1  0
 18 19  1  0
 18 17  2  0
 19 20  2  0
 20 21  1  0
 21 13  1  0
 22 11  1  0
 23 22  2  0
 25 24  1  6
 26 25  1  0
 27 25  1  0
 27 28  1  6
 28 22  1  0
 29 27  1  0
 30 29  2  0
 31 29  1  0
M  END
$$$$
