KWT.pdb
     RDKit          3D

 31 32  0  0  1  0  0  0  0  0999 V2000
    8.5796  -17.9140   20.2869 N   0  0  0  0  0  0  0  0  0  0  0  0
    9.3891  -16.7439   20.3629 C   0  0  1  0  0  0  0  0  0  0  0  0
    8.9548  -15.5791   19.5516 C   0  0  0  0  0  0  0  0  0  0  0  0
    9.1083  -15.6853   18.0802 C   0  0  0  0  0  0  0  0  0  0  0  0
    8.7060  -14.4488   17.3253 C   0  0  0  0  0  0  0  0  0  0  0  0
    8.8301  -14.7293   15.8280 C   0  0  0  0  0  0  0  0  0  0  0  0
    8.4532  -13.5719   15.0411 N   0  0  0  0  0  0  0  0  0  0  0  0
    9.5139  -16.3485   21.7994 C   0  0  0  0  0  0  0  0  0  0  0  0
   10.2277  -15.3723   22.1436 O   0  0  0  0  0  0  0  0  0  0  0  0
    8.8157  -17.0877   22.7884 N   0  0  0  0  0  0  0  0  0  0  0  0
    8.8484  -16.7573   24.1823 C   0  0  1  0  0  0  0  0  0  0  0  0
    7.4749  -16.6902   24.8076 C   0  0  0  0  0  0  0  0  0  0  0  0
    7.0205  -15.3060   24.9963 C   0  0  0  0  0  0  0  0  0  0  0  0
    6.0346  -14.6400   24.2999 C   0  0  0  0  0  0  0  0  0  0  0  0
    5.9411  -13.3924   24.7941 N   0  0  0  0  0  0  0  0  0  0  0  0
    6.8341  -13.2045   25.7991 C   0  0  0  0  0  0  0  0  0  0  0  0
    7.1081  -12.1050   26.6013 C   0  0  0  0  0  0  0  0  0  0  0  0
    8.0829  -12.2134   27.5511 C   0  0  0  0  0  0  0  0  0  0  0  0
    8.7879  -13.3900   27.7176 C   0  0  0  0  0  0  0  0  0  0  0  0
    8.4872  -14.4576   26.9032 C   0  0  0  0  0  0  0  0  0  0  0  0
    7.5054  -14.3981   25.9232 C   0  0  0  0  0  0  0  0  0  0  0  0
    9.7527  -17.6611   24.9455 C   0  0  0  0  0  0  0  0  0  0  0  0
    9.7454  -18.9238   24.7683 O   0  0  0  0  0  0  0  0  0  0  0  0
   13.3567  -16.2512   26.9025 C   0  0  0  0  0  0  0  0  0  0  0  0
   13.0255  -17.6397   26.4420 C   0  0  1  0  0  0  0  0  0  0  0  0
   13.8271  -18.5290   27.1260 O   0  0  0  0  0  0  0  0  0  0  0  0
   11.5862  -18.0254   26.6346 C   0  0  2  0  0  0  0  0  0  0  0  0
   10.6740  -17.1767   25.9116 N   0  0  0  0  0  0  0  0  0  0  0  0
   11.2085  -18.1846   28.0606 C   0  0  0  0  0  0  0  0  0  0  0  0
   10.2842  -17.5277   28.6095 O   0  0  0  0  0  0  0  0  0  0  0  0
   11.8628  -19.0851   28.8959 O   0  0  0  0  0  0  0  0  0  0  0  0
  2  1  1  1
  2  3  1  0
  4  3  1  0
  5  6  1  0
  5  4  1  0
  7  6  1  0
  8  2  1  0
  8  9  2  0
 10  8  1  0
 11 10  1  0
 11 12  1  1
 13 14  2  0
 13 12  1  0
 15 14  1  0
 16 21  2  0
 16 15  1  0
 17 16  1  0
 18 19  1  0
 18 17  2  0
 19 20  2  0
 20 21  1  0
 21 13  1  0
 22 11  1  0
 23 22  2  0
 25 24  1  1
 26 25  1  0
 27 25  1  0
 27 28  1  1
 28 22  1  0
 29 27  1  0
 30 29  2  0
 31 29  1  0
M  END
$$$$
