KWT.pdb
     RDKit          3D

 31 32  0  0  1  0  0  0  0  0999 V2000
    6.9418  -16.7884   21.7215 N   0  0  0  0  0  0  0  0  0  0  0  0
    7.7324  -15.6634   21.3479 C   0  0  1  0  0  0  0  0  0  0  0  0
    6.9998  -14.4218   20.9942 C   0  0  0  0  0  0  0  0  0  0  0  0
    7.6275  -13.5297   19.9891 C   0  0  0  0  0  0  0  0  0  0  0  0
    7.1641  -13.7644   18.5781 C   0  0  0  0  0  0  0  0  0  0  0  0
    7.8942  -12.7883   17.6561 C   0  0  0  0  0  0  0  0  0  0  0  0
    7.4222  -12.8991   16.2901 N   0  0  0  0  0  0  0  0  0  0  0  0
    8.7080  -15.3861   22.4464 C   0  0  0  0  0  0  0  0  0  0  0  0
    9.5719  -14.4797   22.3329 O   0  0  0  0  0  0  0  0  0  0  0  0
    8.6570  -16.1591   23.6347 N   0  0  0  0  0  0  0  0  0  0  0  0
    9.6256  -16.0469   24.6847 C   0  0  1  0  0  0  0  0  0  0  0  0
    9.0088  -16.0597   26.0635 C   0  0  0  0  0  0  0  0  0  0  0  0
    7.7392  -15.3222   26.1081 C   0  0  0  0  0  0  0  0  0  0  0  0
    6.4650  -15.8275   25.9601 C   0  0  0  0  0  0  0  0  0  0  0  0
    5.5938  -14.8084   26.0699 N   0  0  0  0  0  0  0  0  0  0  0  0
    6.2466  -13.6381   26.2865 C   0  0  0  0  0  0  0  0  0  0  0  0
    5.7871  -12.3399   26.4628 C   0  0  0  0  0  0  0  0  0  0  0  0
    6.6986  -11.3442   26.6674 C   0  0  0  0  0  0  0  0  0  0  0  0
    8.0533  -11.6139   26.6999 C   0  0  0  0  0  0  0  0  0  0  0  0
    8.4696  -12.9132   26.5211 C   0  0  0  0  0  0  0  0  0  0  0  0
    7.5831  -13.9608   26.3100 C   0  0  0  0  0  0  0  0  0  0  0  0
   10.7018  -17.0682   24.5579 C   0  0  0  0  0  0  0  0  0  0  0  0
   10.7096  -18.1267   25.2686 O   0  0  0  0  0  0  0  0  0  0  0  0
   11.9335  -18.5529   21.1705 C   0  0  0  0  0  0  0  0  0  0  0  0
   13.1190  -18.1767   22.0089 C   0  0  1  0  0  0  0  0  0  0  0  0
   13.6895  -17.0414   21.4734 O   0  0  0  0  0  0  0  0  0  0  0  0
   12.7967  -17.9305   23.4556 C   0  0  2  0  0  0  0  0  0  0  0  0
   11.7793  -16.9281   23.6434 N   0  0  0  0  0  0  0  0  0  0  0  0
   13.9991  -17.6859   24.2899 C   0  0  0  0  0  0  0  0  0  0  0  0
   14.9141  -18.5365   24.4520 O   0  0  0  0  0  0  0  0  0  0  0  0
   14.1950  -16.4806   24.9576 O   0  0  0  0  0  0  0  0  0  0  0  0
  2  1  1  1
  2  3  1  0
  4  3  1  0
  5  6  1  0
  5  4  1  0
  7  6  1  0
  8  2  1  0
  8  9  2  0
 10  8  1  0
 11 10  1  0
 11 12  1  1
 13 14  2  0
 13 12  1  0
 15 14  1  0
 16 21  2  0
 16 15  1  0
 17 16  1  0
 18 19  1  0
 18 17  2  0
 19 20  2  0
 20 21  1  0
 21 13  1  0
 22 11  1  0
 23 22  2  0
 25 24  1  6
 26 25  1  0
 27 25  1  0
 27 28  1  6
 28 22  1  0
 29 27  1  0
 30 29  2  0
 31 29  1  0
M  END
$$$$
