KWT.pdb
     RDKit          3D

 31 32  0  0  1  0  0  0  0  0999 V2000
    6.7036  -16.6694   21.2318 N   0  0  0  0  0  0  0  0  0  0  0  0
    7.7931  -15.8436   20.8302 C   0  0  1  0  0  0  0  0  0  0  0  0
    7.4508  -14.5940   20.1059 C   0  0  0  0  0  0  0  0  0  0  0  0
    7.8842  -14.4924   18.6911 C   0  0  0  0  0  0  0  0  0  0  0  0
    8.1223  -13.0858   18.2163 C   0  0  0  0  0  0  0  0  0  0  0  0
    8.5760  -13.1334   16.7576 C   0  0  0  0  0  0  0  0  0  0  0  0
    7.4878  -12.8121   15.8555 N   0  0  0  0  0  0  0  0  0  0  0  0
    8.6150  -15.5257   22.0381 C   0  0  0  0  0  0  0  0  0  0  0  0
    9.3615  -14.5144   22.0667 O   0  0  0  0  0  0  0  0  0  0  0  0
    8.5506  -16.3799   23.1688 N   0  0  0  0  0  0  0  0  0  0  0  0
    9.4489  -16.2774   24.2804 C   0  0  1  0  0  0  0  0  0  0  0  0
    8.7432  -16.2957   25.6159 C   0  0  0  0  0  0  0  0  0  0  0  0
    7.6134  -15.3577   25.6572 C   0  0  0  0  0  0  0  0  0  0  0  0
    6.2778  -15.6375   25.4610 C   0  0  0  0  0  0  0  0  0  0  0  0
    5.5857  -14.4909   25.5870 N   0  0  0  0  0  0  0  0  0  0  0  0
    6.4178  -13.4539   25.8611 C   0  0  0  0  0  0  0  0  0  0  0  0
    6.1760  -12.1034   26.0732 C   0  0  0  0  0  0  0  0  0  0  0  0
    7.2342  -11.2814   26.3350 C   0  0  0  0  0  0  0  0  0  0  0  0
    8.5236  -11.7751   26.3897 C   0  0  0  0  0  0  0  0  0  0  0  0
    8.7226  -13.1194   26.1740 C   0  0  0  0  0  0  0  0  0  0  0  0
    7.6805  -13.9965   25.9043 C   0  0  0  0  0  0  0  0  0  0  0  0
   10.5275  -17.3020   24.2182 C   0  0  0  0  0  0  0  0  0  0  0  0
   10.3407  -18.4983   24.6178 O   0  0  0  0  0  0  0  0  0  0  0  0
   13.2081  -17.5459   21.1889 C   0  0  0  0  0  0  0  0  0  0  0  0
   13.8537  -17.7235   22.5311 C   0  0  1  0  0  0  0  0  0  0  0  0
   14.5825  -16.5888   22.8182 O   0  0  0  0  0  0  0  0  0  0  0  0
   12.8856  -17.9835   23.6503 C   0  0  2  0  0  0  0  0  0  0  0  0
   11.8229  -17.0130   23.7129 N   0  0  0  0  0  0  0  0  0  0  0  0
   13.5484  -18.1886   24.9619 C   0  0  0  0  0  0  0  0  0  0  0  0
   13.3296  -17.4642   25.9691 O   0  0  0  0  0  0  0  0  0  0  0  0
   14.4695  -19.2119   25.1655 O   0  0  0  0  0  0  0  0  0  0  0  0
  2  1  1  1
  2  3  1  0
  4  3  1  0
  5  6  1  0
  5  4  1  0
  7  6  1  0
  8  2  1  0
  8  9  2  0
 10  8  1  0
 11 10  1  0
 11 12  1  1
 13 14  2  0
 13 12  1  0
 15 14  1  0
 16 21  2  0
 16 15  1  0
 17 16  1  0
 18 19  1  0
 18 17  2  0
 19 20  2  0
 20 21  1  0
 21 13  1  0
 22 11  1  0
 23 22  2  0
 25 24  1  6
 26 25  1  0
 27 25  1  0
 27 28  1  1
 28 22  1  0
 29 27  1  0
 30 29  2  0
 31 29  1  0
M  END
$$$$
