KWT.pdb
     RDKit          3D

 31 32  0  0  1  0  0  0  0  0999 V2000
    7.5959  -17.1722   21.6457 N   0  0  0  0  0  0  0  0  0  0  0  0
    8.6610  -16.2263   21.6138 C   0  0  1  0  0  0  0  0  0  0  0  0
    8.3534  -14.8954   21.0329 C   0  0  0  0  0  0  0  0  0  0  0  0
    8.2831  -14.8032   19.5542 C   0  0  0  0  0  0  0  0  0  0  0  0
    8.0528  -13.4125   19.0312 C   0  0  0  0  0  0  0  0  0  0  0  0
    8.0189  -13.4649   17.5041 C   0  0  0  0  0  0  0  0  0  0  0  0
    7.6539  -12.1807   16.9397 N   0  0  0  0  0  0  0  0  0  0  0  0
    9.1933  -16.0676   23.0019 C   0  0  0  0  0  0  0  0  0  0  0  0
   10.1002  -15.2350   23.2574 O   0  0  0  0  0  0  0  0  0  0  0  0
    8.6662  -16.8702   24.0460 N   0  0  0  0  0  0  0  0  0  0  0  0
    9.1940  -16.8689   25.3781 C   0  0  1  0  0  0  0  0  0  0  0  0
    8.1467  -16.5889   26.4301 C   0  0  0  0  0  0  0  0  0  0  0  0
    7.2502  -15.4926   26.0396 C   0  0  0  0  0  0  0  0  0  0  0  0
    6.0327  -15.5864   25.3998 C   0  0  0  0  0  0  0  0  0  0  0  0
    5.5485  -14.3424   25.2338 N   0  0  0  0  0  0  0  0  0  0  0  0
    6.4051  -13.4205   25.7429 C   0  0  0  0  0  0  0  0  0  0  0  0
    6.3437  -12.0351   25.8074 C   0  0  0  0  0  0  0  0  0  0  0  0
    7.3764  -11.3598   26.3920 C   0  0  0  0  0  0  0  0  0  0  0  0
    8.4650  -12.0337   26.9116 C   0  0  0  0  0  0  0  0  0  0  0  0
    8.4892  -13.4069   26.8286 C   0  0  0  0  0  0  0  0  0  0  0  0
    7.4645  -14.1395   26.2444 C   0  0  0  0  0  0  0  0  0  0  0  0
    9.9485  -18.1174   25.6769 C   0  0  0  0  0  0  0  0  0  0  0  0
    9.4354  -19.2708   25.4980 O   0  0  0  0  0  0  0  0  0  0  0  0
   13.0860  -19.5905   24.3656 C   0  0  0  0  0  0  0  0  0  0  0  0
   13.2554  -19.5199   25.8542 C   0  0  1  0  0  0  0  0  0  0  0  0
   14.1453  -18.5075   26.1445 O   0  0  0  0  0  0  0  0  0  0  0  0
   11.9778  -19.2840   26.6088 C   0  0  2  0  0  0  0  0  0  0  0  0
   11.2780  -18.1016   26.1760 N   0  0  0  0  0  0  0  0  0  0  0  0
   12.1491  -19.3383   28.0816 C   0  0  0  0  0  0  0  0  0  0  0  0
   11.8810  -18.3734   28.8459 O   0  0  0  0  0  0  0  0  0  0  0  0
   12.6249  -20.4784   28.7226 O   0  0  0  0  0  0  0  0  0  0  0  0
  2  1  1  1
  2  3  1  0
  4  3  1  0
  5  6  1  0
  5  4  1  0
  7  6  1  0
  8  2  1  0
  8  9  2  0
 10  8  1  0
 11 10  1  0
 11 12  1  1
 13 14  2  0
 13 12  1  0
 15 14  1  0
 16 21  2  0
 16 15  1  0
 17 16  1  0
 18 19  1  0
 18 17  2  0
 19 20  2  0
 20 21  1  0
 21 13  1  0
 22 11  1  0
 23 22  2  0
 25 24  1  6
 26 25  1  0
 27 25  1  0
 27 28  1  1
 28 22  1  0
 29 27  1  0
 30 29  2  0
 31 29  1  0
M  END
$$$$
