KWT.pdb
     RDKit          3D

 31 32  0  0  1  0  0  0  0  0999 V2000
    9.7274  -15.8374   18.2655 N   0  0  0  0  0  0  0  0  0  0  0  0
    9.3879  -16.8285   19.2313 C   0  0  1  0  0  0  0  0  0  0  0  0
   10.1971  -18.0729   19.2220 C   0  0  0  0  0  0  0  0  0  0  0  0
   10.2509  -18.8348   17.9505 C   0  0  0  0  0  0  0  0  0  0  0  0
   10.9680  -20.1527   18.0487 C   0  0  0  0  0  0  0  0  0  0  0  0
   10.8823  -20.8567   16.6948 C   0  0  0  0  0  0  0  0  0  0  0  0
   11.6230  -22.1027   16.7000 N   0  0  0  0  0  0  0  0  0  0  0  0
    9.4311  -16.2007   20.5875 C   0  0  0  0  0  0  0  0  0  0  0  0
   10.4140  -15.5049   20.9490 O   0  0  0  0  0  0  0  0  0  0  0  0
    8.3454  -16.3943   21.4795 N   0  0  0  0  0  0  0  0  0  0  0  0
    8.3290  -15.8810   22.8173 C   0  0  1  0  0  0  0  0  0  0  0  0
    6.9481  -15.4826   23.2821 C   0  0  0  0  0  0  0  0  0  0  0  0
    6.9399  -15.0548   24.6875 C   0  0  0  0  0  0  0  0  0  0  0  0
    6.6090  -15.8056   25.7954 C   0  0  0  0  0  0  0  0  0  0  0  0
    6.7361  -15.0259   26.8842 N   0  0  0  0  0  0  0  0  0  0  0  0
    7.1414  -13.7775   26.5377 C   0  0  0  0  0  0  0  0  0  0  0  0
    7.4061  -12.6456   27.2967 C   0  0  0  0  0  0  0  0  0  0  0  0
    7.8077  -11.5075   26.6581 C   0  0  0  0  0  0  0  0  0  0  0  0
    7.9504  -11.4739   25.2842 C   0  0  0  0  0  0  0  0  0  0  0  0
    7.6787  -12.6162   24.5668 C   0  0  0  0  0  0  0  0  0  0  0  0
    7.2677  -13.7980   25.1687 C   0  0  0  0  0  0  0  0  0  0  0  0
    8.9808  -16.8141   23.7773 C   0  0  0  0  0  0  0  0  0  0  0  0
    8.4988  -17.9685   24.0235 O   0  0  0  0  0  0  0  0  0  0  0  0
   12.5983  -17.9954   23.7187 C   0  0  0  0  0  0  0  0  0  0  0  0
   12.2930  -17.5367   25.1137 C   0  0  1  0  0  0  0  0  0  0  0  0
   12.9371  -16.3368   25.3292 O   0  0  0  0  0  0  0  0  0  0  0  0
   10.8276  -17.3673   25.3992 C   0  0  2  0  0  0  0  0  0  0  0  0
   10.1723  -16.4790   24.4737 N   0  0  0  0  0  0  0  0  0  0  0  0
   10.5425  -17.0273   26.8150 C   0  0  0  0  0  0  0  0  0  0  0  0
    9.9571  -15.9693   27.1686 O   0  0  0  0  0  0  0  0  0  0  0  0
   10.9102  -17.8702   27.8596 O   0  0  0  0  0  0  0  0  0  0  0  0
  2  1  1  6
  2  3  1  0
  4  3  1  0
  5  6  1  0
  5  4  1  0
  7  6  1  0
  8  2  1  0
  8  9  2  0
 10  8  1  0
 11 10  1  0
 11 12  1  1
 13 14  2  0
 13 12  1  0
 15 14  1  0
 16 21  2  0
 16 15  1  0
 17 16  1  0
 18 19  1  0
 18 17  2  0
 19 20  2  0
 20 21  1  0
 21 13  1  0
 22 11  1  0
 23 22  2  0
 25 24  1  6
 26 25  1  0
 27 25  1  0
 27 28  1  6
 28 22  1  0
 29 27  1  0
 30 29  2  0
 31 29  1  0
M  END
$$$$
