KWT.pdb
     RDKit          3D

 31 32  0  0  1  0  0  0  0  0999 V2000
    7.3556  -16.8081   21.1488 N   0  0  0  0  0  0  0  0  0  0  0  0
    8.3061  -15.7488   21.0803 C   0  0  1  0  0  0  0  0  0  0  0  0
    7.7957  -14.4218   20.6537 C   0  0  0  0  0  0  0  0  0  0  0  0
    7.6531  -14.1891   19.1959 C   0  0  0  0  0  0  0  0  0  0  0  0
    8.2218  -12.8814   18.7194 C   0  0  0  0  0  0  0  0  0  0  0  0
    7.5150  -12.4853   17.4234 C   0  0  0  0  0  0  0  0  0  0  0  0
    7.5752  -13.5507   16.4425 N   0  0  0  0  0  0  0  0  0  0  0  0
    8.9816  -15.6338   22.4091 C   0  0  0  0  0  0  0  0  0  0  0  0
    9.8791  -14.7761   22.6082 O   0  0  0  0  0  0  0  0  0  0  0  0
    8.6031  -16.5072   23.4608 N   0  0  0  0  0  0  0  0  0  0  0  0
    9.2808  -16.5546   24.7224 C   0  0  1  0  0  0  0  0  0  0  0  0
    8.3422  -16.4670   25.9027 C   0  0  0  0  0  0  0  0  0  0  0  0
    7.3310  -15.4158   25.7282 C   0  0  0  0  0  0  0  0  0  0  0  0
    6.0080  -15.5694   25.3724 C   0  0  0  0  0  0  0  0  0  0  0  0
    5.4412  -14.3502   25.3269 N   0  0  0  0  0  0  0  0  0  0  0  0
    6.3447  -13.3872   25.6413 C   0  0  0  0  0  0  0  0  0  0  0  0
    6.2340  -12.0060   25.7283 C   0  0  0  0  0  0  0  0  0  0  0  0
    7.3374  -11.2807   26.0755 C   0  0  0  0  0  0  0  0  0  0  0  0
    8.5444  -11.9005   26.3368 C   0  0  0  0  0  0  0  0  0  0  0  0
    8.6141  -13.2713   26.2400 C   0  0  0  0  0  0  0  0  0  0  0  0
    7.5214  -14.0535   25.8909 C   0  0  0  0  0  0  0  0  0  0  0  0
   10.1793  -17.7375   24.8252 C   0  0  0  0  0  0  0  0  0  0  0  0
    9.7473  -18.9252   24.6563 O   0  0  0  0  0  0  0  0  0  0  0  0
   13.4061  -18.4198   22.9610 C   0  0  0  0  0  0  0  0  0  0  0  0
   13.6794  -18.6497   24.4178 C   0  0  1  0  0  0  0  0  0  0  0  0
   14.4669  -17.6175   24.8821 O   0  0  0  0  0  0  0  0  0  0  0  0
   12.4444  -18.7478   25.2679 C   0  0  2  0  0  0  0  0  0  0  0  0
   11.5644  -17.6176   25.1156 N   0  0  0  0  0  0  0  0  0  0  0  0
   12.7354  -19.0564   26.6898 C   0  0  0  0  0  0  0  0  0  0  0  0
   12.4512  -18.2787   27.6393 O   0  0  0  0  0  0  0  0  0  0  0  0
   13.3513  -20.2449   27.0706 O   0  0  0  0  0  0  0  0  0  0  0  0
  2  1  1  1
  2  3  1  0
  4  3  1  0
  5  6  1  0
  5  4  1  0
  7  6  1  0
  8  2  1  0
  8  9  2  0
 10  8  1  0
 11 10  1  0
 11 12  1  1
 13 14  2  0
 13 12  1  0
 15 14  1  0
 16 21  2  0
 16 15  1  0
 17 16  1  0
 18 19  1  0
 18 17  2  0
 19 20  2  0
 20 21  1  0
 21 13  1  0
 22 11  1  0
 23 22  2  0
 25 24  1  6
 26 25  1  0
 27 25  1  0
 27 28  1  1
 28 22  1  0
 29 27  1  0
 30 29  2  0
 31 29  1  0
M  END
$$$$
