KLQ.pdb
     RDKit          3D

 27 26  0  0  1  0  0  0  0  0999 V2000
    7.8569  -15.5463   20.6518 N   0  0  0  0  0  0  0  0  0  0  0  0
    7.2751  -15.8823   21.9282 C   0  0  1  0  0  0  0  0  0  0  0  0
    7.3254  -17.3447   22.1903 C   0  0  0  0  0  0  0  0  0  0  0  0
    7.3021  -18.2275   20.9895 C   0  0  0  0  0  0  0  0  0  0  0  0
    6.5045  -19.4876   21.1218 C   0  0  0  0  0  0  0  0  0  0  0  0
    6.5338  -20.2319   19.7817 C   0  0  0  0  0  0  0  0  0  0  0  0
    5.8138  -21.4795   19.8739 N   0  0  0  0  0  0  0  0  0  0  0  0
    8.0301  -15.1702   23.0053 C   0  0  0  0  0  0  0  0  0  0  0  0
    9.2686  -15.0636   22.8831 O   0  0  0  0  0  0  0  0  0  0  0  0
    5.3043  -11.5330   26.3610 C   0  0  0  0  0  0  0  0  0  0  0  0
    6.3163  -12.0913   25.3492 C   0  0  1  0  0  0  0  0  0  0  0  0
    7.1533  -10.9442   24.8998 C   0  0  0  0  0  0  0  0  0  0  0  0
    7.0650  -13.1684   26.0564 C   0  0  0  0  0  0  0  0  0  0  0  0
    8.0569  -13.9004   25.1800 C   0  0  2  0  0  0  0  0  0  0  0  0
    7.3521  -14.6260   24.1442 N   0  0  0  0  0  0  0  0  0  0  0  0
    8.7226  -14.9036   26.0611 C   0  0  0  0  0  0  0  0  0  0  0  0
    9.3212  -14.4864   27.0825 O   0  0  0  0  0  0  0  0  0  0  0  0
    6.7443  -20.4469   27.7710 N   0  0  0  0  0  0  0  0  0  0  0  0
    8.1095  -20.5031   28.1250 C   0  0  0  0  0  0  0  0  0  0  0  0
    8.5337  -21.5257   28.7595 O   0  0  0  0  0  0  0  0  0  0  0  0
    9.0507  -19.4445   27.7884 C   0  0  0  0  0  0  0  0  0  0  0  0
    8.5388  -18.2855   27.0345 C   0  0  0  0  0  0  0  0  0  0  0  0
    9.4719  -17.1704   26.6985 C   0  0  2  0  0  0  0  0  0  0  0  0
    8.7124  -16.2782   25.8058 N   0  0  0  0  0  0  0  0  0  0  0  0
   10.7030  -17.6041   26.0604 C   0  0  0  0  0  0  0  0  0  0  0  0
   10.8729  -17.6086   24.7919 O   0  0  0  0  0  0  0  0  0  0  0  0
   11.8075  -18.0440   26.7837 O   0  0  0  0  0  0  0  0  0  0  0  0
  2  3  1  0
  2  1  1  6
  4  5  1  0
  4  3  1  0
  5  6  1  0
  6  7  1  0
  8  2  1  0
  9  8  2  0
 11 10  1  1
 12 11  1  0
 13 11  1  0
 14 13  1  1
 14 15  1  0
 15  8  1  0
 16 17  2  0
 16 14  1  0
 18 19  1  0
 19 20  2  0
 21 22  1  0
 21 19  1  0
 23 22  1  6
 23 24  1  0
 24 16  1  0
 25 23  1  0
 26 25  2  0
 27 25  1  0
M  END
$$$$
