KLQ.pdb
     RDKit          3D

 27 26  0  0  1  0  0  0  0  0999 V2000
    6.9753  -15.7100   20.6740 N   0  0  0  0  0  0  0  0  0  0  0  0
    8.3892  -15.4308   20.7318 C   0  0  1  0  0  0  0  0  0  0  0  0
    8.7867  -14.3874   19.7505 C   0  0  0  0  0  0  0  0  0  0  0  0
    8.2430  -14.5426   18.3714 C   0  0  0  0  0  0  0  0  0  0  0  0
    8.7383  -13.5561   17.3600 C   0  0  0  0  0  0  0  0  0  0  0  0
    8.0614  -13.8472   16.0155 C   0  0  0  0  0  0  0  0  0  0  0  0
    8.5673  -12.9691   14.9876 N   0  0  0  0  0  0  0  0  0  0  0  0
    8.7320  -14.9576   22.1087 C   0  0  0  0  0  0  0  0  0  0  0  0
    9.9359  -14.7695   22.3830 O   0  0  0  0  0  0  0  0  0  0  0  0
    7.9722  -11.8757   26.3496 C   0  0  0  0  0  0  0  0  0  0  0  0
    6.9974  -13.0621   26.3895 C   0  0  1  0  0  0  0  0  0  0  0  0
    5.7537  -12.5755   27.0490 C   0  0  0  0  0  0  0  0  0  0  0  0
    6.8203  -13.5067   24.9783 C   0  0  0  0  0  0  0  0  0  0  0  0
    8.0146  -14.2442   24.4149 C   0  0  2  0  0  0  0  0  0  0  0  0
    7.7087  -14.7268   23.0846 N   0  0  0  0  0  0  0  0  0  0  0  0
    8.2147  -15.4343   25.2922 C   0  0  0  0  0  0  0  0  0  0  0  0
    7.3351  -16.3298   25.2812 O   0  0  0  0  0  0  0  0  0  0  0  0
   11.2098  -19.4759   23.6344 N   0  0  0  0  0  0  0  0  0  0  0  0
   11.9929  -18.4627   24.2283 C   0  0  0  0  0  0  0  0  0  0  0  0
   13.1824  -18.2827   23.8029 O   0  0  0  0  0  0  0  0  0  0  0  0
   11.4937  -17.6132   25.3001 C   0  0  0  0  0  0  0  0  0  0  0  0
   10.0940  -17.7965   25.7254 C   0  0  0  0  0  0  0  0  0  0  0  0
    9.5341  -16.9012   26.7799 C   0  0  2  0  0  0  0  0  0  0  0  0
    9.3281  -15.5997   26.1215 N   0  0  0  0  0  0  0  0  0  0  0  0
   10.3907  -16.7547   27.9443 C   0  0  0  0  0  0  0  0  0  0  0  0
   10.9395  -15.6476   28.2777 O   0  0  0  0  0  0  0  0  0  0  0  0
   10.6775  -17.8126   28.8017 O   0  0  0  0  0  0  0  0  0  0  0  0
  2  3  1  0
  2  1  1  1
  4  5  1  0
  4  3  1  0
  5  6  1  0
  6  7  1  0
  8  2  1  0
  9  8  2  0
 11 10  1  6
 12 11  1  0
 13 11  1  0
 14 13  1  1
 14 15  1  0
 15  8  1  0
 16 17  2  0
 16 14  1  0
 18 19  1  0
 19 20  2  0
 21 22  1  0
 21 19  1  0
 23 22  1  6
 23 24  1  0
 24 16  1  0
 25 23  1  0
 26 25  2  0
 27 25  1  0
M  END
$$$$
