KLQ.pdb
     RDKit          3D

 27 26  0  0  1  0  0  0  0  0999 V2000
    6.8904  -16.8736   22.3651 N   0  0  0  0  0  0  0  0  0  0  0  0
    8.2057  -16.4469   21.9548 C   0  0  1  0  0  0  0  0  0  0  0  0
    8.1619  -15.6516   20.6997 C   0  0  0  0  0  0  0  0  0  0  0  0
    7.5072  -16.3056   19.5312 C   0  0  0  0  0  0  0  0  0  0  0  0
    8.3828  -16.5398   18.3396 C   0  0  0  0  0  0  0  0  0  0  0  0
    7.5443  -17.1888   17.2322 C   0  0  0  0  0  0  0  0  0  0  0  0
    8.3636  -17.4970   16.0845 N   0  0  0  0  0  0  0  0  0  0  0  0
    8.8016  -15.6078   23.0403 C   0  0  0  0  0  0  0  0  0  0  0  0
   10.0003  -15.2733   22.9338 O   0  0  0  0  0  0  0  0  0  0  0  0
    5.5723  -12.3113   26.2650 C   0  0  0  0  0  0  0  0  0  0  0  0
    6.6930  -12.7693   25.3196 C   0  0  1  0  0  0  0  0  0  0  0  0
    7.4620  -11.5511   24.9414 C   0  0  0  0  0  0  0  0  0  0  0  0
    7.4775  -13.7938   26.0650 C   0  0  0  0  0  0  0  0  0  0  0  0
    8.5867  -14.4248   25.2531 C   0  0  2  0  0  0  0  0  0  0  0  0
    8.0198  -15.1997   24.1695 N   0  0  0  0  0  0  0  0  0  0  0  0
    9.2808  -15.3735   26.1719 C   0  0  0  0  0  0  0  0  0  0  0  0
    9.5558  -14.9775   27.3309 O   0  0  0  0  0  0  0  0  0  0  0  0
    7.2693  -20.0751   28.6251 N   0  0  0  0  0  0  0  0  0  0  0  0
    8.6356  -20.2660   28.9236 C   0  0  0  0  0  0  0  0  0  0  0  0
    8.9572  -21.1837   29.7499 O   0  0  0  0  0  0  0  0  0  0  0  0
    9.6893  -19.4624   28.3206 C   0  0  0  0  0  0  0  0  0  0  0  0
    9.2907  -18.4180   27.3593 C   0  0  0  0  0  0  0  0  0  0  0  0
   10.3377  -17.5200   26.7898 C   0  0  2  0  0  0  0  0  0  0  0  0
    9.6380  -16.6750   25.8068 N   0  0  0  0  0  0  0  0  0  0  0  0
   11.4419  -18.2258   26.1626 C   0  0  0  0  0  0  0  0  0  0  0  0
   11.5784  -18.3312   24.8944 O   0  0  0  0  0  0  0  0  0  0  0  0
   12.4521  -18.8403   26.8964 O   0  0  0  0  0  0  0  0  0  0  0  0
  2  3  1  0
  2  1  1  1
  4  5  1  0
  4  3  1  0
  5  6  1  0
  6  7  1  0
  8  2  1  0
  9  8  2  0
 11 10  1  1
 12 11  1  0
 13 11  1  0
 14 13  1  1
 14 15  1  0
 15  8  1  0
 16 17  2  0
 16 14  1  0
 18 19  1  0
 19 20  2  0
 21 22  1  0
 21 19  1  0
 23 22  1  6
 23 24  1  0
 24 16  1  0
 25 23  1  0
 26 25  2  0
 27 25  1  0
M  END
$$$$
