KLQ.pdb
     RDKit          3D

 27 26  0  0  1  0  0  0  0  0999 V2000
    8.2503  -16.2224   20.9425 N   0  0  0  0  0  0  0  0  0  0  0  0
    7.8270  -16.5165   22.2897 C   0  0  1  0  0  0  0  0  0  0  0  0
    8.1434  -17.9170   22.6747 C   0  0  0  0  0  0  0  0  0  0  0  0
    8.2043  -18.9057   21.5610 C   0  0  0  0  0  0  0  0  0  0  0  0
    7.5900  -20.2421   21.8408 C   0  0  0  0  0  0  0  0  0  0  0  0
    7.8446  -21.1621   20.6410 C   0  0  0  0  0  0  0  0  0  0  0  0
    7.2945  -22.4753   20.8778 N   0  0  0  0  0  0  0  0  0  0  0  0
    8.5255  -15.5855   23.2293 C   0  0  0  0  0  0  0  0  0  0  0  0
    9.7157  -15.2921   22.9897 O   0  0  0  0  0  0  0  0  0  0  0  0
    5.6097  -12.0207   26.5611 C   0  0  0  0  0  0  0  0  0  0  0  0
    6.6045  -12.5340   25.5092 C   0  0  1  0  0  0  0  0  0  0  0  0
    7.3082  -11.3401   24.9634 C   0  0  0  0  0  0  0  0  0  0  0  0
    7.4868  -13.5106   26.2083 C   0  0  0  0  0  0  0  0  0  0  0  0
    8.5117  -14.1628   25.3073 C   0  0  2  0  0  0  0  0  0  0  0  0
    7.8486  -15.0459   24.3710 N   0  0  0  0  0  0  0  0  0  0  0  0
    9.3645  -15.0048   26.1959 C   0  0  0  0  0  0  0  0  0  0  0  0
   10.0729  -14.4256   27.0551 O   0  0  0  0  0  0  0  0  0  0  0  0
    8.8975  -20.5919   29.8761 N   0  0  0  0  0  0  0  0  0  0  0  0
    9.6175  -20.5315   28.6635 C   0  0  0  0  0  0  0  0  0  0  0  0
    9.6178  -21.5557   27.9024 O   0  0  0  0  0  0  0  0  0  0  0  0
   10.3518  -19.3457   28.2463 C   0  0  0  0  0  0  0  0  0  0  0  0
    9.6302  -18.3368   27.4492 C   0  0  0  0  0  0  0  0  0  0  0  0
   10.3633  -17.1249   26.9793 C   0  0  2  0  0  0  0  0  0  0  0  0
    9.4128  -16.4000   26.1186 N   0  0  0  0  0  0  0  0  0  0  0  0
   11.5866  -17.4207   26.2533 C   0  0  0  0  0  0  0  0  0  0  0  0
   11.6813  -17.3514   24.9789 O   0  0  0  0  0  0  0  0  0  0  0  0
   12.7646  -17.7969   26.8916 O   0  0  0  0  0  0  0  0  0  0  0  0
  2  3  1  0
  2  1  1  6
  4  5  1  0
  4  3  1  0
  5  6  1  0
  6  7  1  0
  8  2  1  0
  9  8  2  0
 11 10  1  1
 12 11  1  0
 13 11  1  0
 14 13  1  1
 14 15  1  0
 15  8  1  0
 16 17  2  0
 16 14  1  0
 18 19  1  0
 19 20  2  0
 21 22  1  0
 21 19  1  0
 23 22  1  6
 23 24  1  0
 24 16  1  0
 25 23  1  0
 26 25  2  0
 27 25  1  0
M  END
$$$$
