KLQ.pdb
     RDKit          3D

 27 26  0  0  1  0  0  0  0  0999 V2000
    8.3414  -14.8049   20.0233 N   0  0  0  0  0  0  0  0  0  0  0  0
    7.6284  -15.4505   21.0982 C   0  0  1  0  0  0  0  0  0  0  0  0
    7.6298  -16.9298   20.9517 C   0  0  0  0  0  0  0  0  0  0  0  0
    6.9227  -17.4714   19.7566 C   0  0  0  0  0  0  0  0  0  0  0  0
    6.8734  -18.9638   19.6486 C   0  0  0  0  0  0  0  0  0  0  0  0
    6.2103  -19.3396   18.3182 C   0  0  0  0  0  0  0  0  0  0  0  0
    6.2291  -20.7697   18.1235 N   0  0  0  0  0  0  0  0  0  0  0  0
    8.2812  -15.0908   22.3951 C   0  0  0  0  0  0  0  0  0  0  0  0
    9.5288  -15.1115   22.4508 O   0  0  0  0  0  0  0  0  0  0  0  0
    5.6040  -12.0548   26.4669 C   0  0  0  0  0  0  0  0  0  0  0  0
    6.6505  -12.4590   25.4177 C   0  0  1  0  0  0  0  0  0  0  0  0
    7.7441  -11.4505   25.4896 C   0  0  0  0  0  0  0  0  0  0  0  0
    7.0645  -13.8507   25.7531 C   0  0  0  0  0  0  0  0  0  0  0  0
    8.1059  -14.4216   24.8166 C   0  0  2  0  0  0  0  0  0  0  0  0
    7.4978  -14.7329   23.5401 N   0  0  0  0  0  0  0  0  0  0  0  0
    8.5511  -15.7066   25.4301 C   0  0  0  0  0  0  0  0  0  0  0  0
    7.7465  -16.6701   25.4303 O   0  0  0  0  0  0  0  0  0  0  0  0
   13.6857  -18.3583   23.9907 N   0  0  0  0  0  0  0  0  0  0  0  0
   13.2864  -19.1611   25.0809 C   0  0  0  0  0  0  0  0  0  0  0  0
   13.9546  -20.2175   25.3377 O   0  0  0  0  0  0  0  0  0  0  0  0
   12.1485  -18.8266   25.9252 C   0  0  0  0  0  0  0  0  0  0  0  0
   11.4308  -17.5700   25.6432 C   0  0  0  0  0  0  0  0  0  0  0  0
   10.2081  -17.2411   26.4331 C   0  0  2  0  0  0  0  0  0  0  0  0
    9.8139  -15.8888   26.0019 N   0  0  0  0  0  0  0  0  0  0  0  0
   10.4075  -17.2807   27.8716 C   0  0  0  0  0  0  0  0  0  0  0  0
   10.4239  -16.2337   28.6076 O   0  0  0  0  0  0  0  0  0  0  0  0
   10.5886  -18.4703   28.5708 O   0  0  0  0  0  0  0  0  0  0  0  0
  2  3  1  0
  2  1  1  6
  4  5  1  0
  4  3  1  0
  5  6  1  0
  6  7  1  0
  8  2  1  0
  9  8  2  0
 11 10  1  1
 12 11  1  0
 13 11  1  0
 14 13  1  1
 14 15  1  0
 15  8  1  0
 16 17  2  0
 16 14  1  0
 18 19  1  0
 19 20  2  0
 21 22  1  0
 21 19  1  0
 23 22  1  6
 23 24  1  0
 24 16  1  0
 25 23  1  0
 26 25  2  0
 27 25  1  0
M  END
$$$$
