KLQ.pdb
     RDKit          3D

 27 26  0  0  1  0  0  0  0  0999 V2000
    7.2598  -15.5712   20.9109 N   0  0  0  0  0  0  0  0  0  0  0  0
    8.4080  -14.7431   20.6347 C   0  0  1  0  0  0  0  0  0  0  0  0
    8.0968  -13.6805   19.6428 C   0  0  0  0  0  0  0  0  0  0  0  0
    7.6077  -14.1463   18.3141 C   0  0  0  0  0  0  0  0  0  0  0  0
    8.5584  -13.9713   17.1709 C   0  0  0  0  0  0  0  0  0  0  0  0
    7.8671  -14.4282   15.8809 C   0  0  0  0  0  0  0  0  0  0  0  0
    8.7464  -14.2728   14.7469 N   0  0  0  0  0  0  0  0  0  0  0  0
    8.8578  -14.1010   21.9085 C   0  0  0  0  0  0  0  0  0  0  0  0
    9.8939  -13.4038   21.8815 O   0  0  0  0  0  0  0  0  0  0  0  0
    8.0845  -12.1879   27.2066 C   0  0  0  0  0  0  0  0  0  0  0  0
    7.2769  -13.2934   26.5101 C   0  0  1  0  0  0  0  0  0  0  0  0
    5.8983  -13.2379   27.0710 C   0  0  0  0  0  0  0  0  0  0  0  0
    7.3653  -13.0189   25.0480 C   0  0  0  0  0  0  0  0  0  0  0  0
    8.5455  -13.6803   24.3718 C   0  0  2  0  0  0  0  0  0  0  0  0
    8.1214  -14.2805   23.1244 N   0  0  0  0  0  0  0  0  0  0  0  0
    8.9755  -14.7829   25.2803 C   0  0  0  0  0  0  0  0  0  0  0  0
    9.1948  -14.5035   26.4842 O   0  0  0  0  0  0  0  0  0  0  0  0
    7.1495  -20.5311   26.3197 N   0  0  0  0  0  0  0  0  0  0  0  0
    7.0712  -19.4247   27.1928 C   0  0  0  0  0  0  0  0  0  0  0  0
    6.2245  -19.4591   28.1468 O   0  0  0  0  0  0  0  0  0  0  0  0
    7.9226  -18.2523   27.0506 C   0  0  0  0  0  0  0  0  0  0  0  0
    8.8345  -18.2029   25.8931 C   0  0  0  0  0  0  0  0  0  0  0  0
    9.7904  -17.0633   25.7721 C   0  0  2  0  0  0  0  0  0  0  0  0
    9.1454  -16.1049   24.8582 N   0  0  0  0  0  0  0  0  0  0  0  0
   11.1004  -17.4435   25.2720 C   0  0  0  0  0  0  0  0  0  0  0  0
   11.5142  -17.1549   24.0958 O   0  0  0  0  0  0  0  0  0  0  0  0
   12.0205  -18.1494   26.0413 O   0  0  0  0  0  0  0  0  0  0  0  0
  2  3  1  0
  2  1  1  1
  4  5  1  0
  4  3  1  0
  5  6  1  0
  6  7  1  0
  8  2  1  0
  9  8  2  0
 11 10  1  1
 12 11  1  0
 13 11  1  0
 14 13  1  1
 14 15  1  0
 15  8  1  0
 16 17  2  0
 16 14  1  0
 18 19  1  0
 19 20  2  0
 21 22  1  0
 21 19  1  0
 23 22  1  6
 23 24  1  0
 24 16  1  0
 25 23  1  0
 26 25  2  0
 27 25  1  0
M  END
$$$$
