KLQ.pdb
     RDKit          3D

 27 26  0  0  1  0  0  0  0  0999 V2000
    6.9827  -15.4954   21.1312 N   0  0  0  0  0  0  0  0  0  0  0  0
    8.3763  -15.1251   21.0971 C   0  0  1  0  0  0  0  0  0  0  0  0
    8.6019  -13.8968   20.2908 C   0  0  0  0  0  0  0  0  0  0  0  0
    7.9717  -13.8738   18.9402 C   0  0  0  0  0  0  0  0  0  0  0  0
    8.8070  -13.2960   17.8403 C   0  0  0  0  0  0  0  0  0  0  0  0
    7.9507  -13.1952   16.5725 C   0  0  0  0  0  0  0  0  0  0  0  0
    8.7078  -12.6156   15.4889 N   0  0  0  0  0  0  0  0  0  0  0  0
    8.8450  -14.8797   22.4963 C   0  0  0  0  0  0  0  0  0  0  0  0
   10.0683  -14.7127   22.6857 O   0  0  0  0  0  0  0  0  0  0  0  0
    5.6506  -12.4352   26.4434 C   0  0  0  0  0  0  0  0  0  0  0  0
    6.8370  -12.7601   25.5234 C   0  0  1  0  0  0  0  0  0  0  0  0
    7.9010  -11.7622   25.8241 C   0  0  0  0  0  0  0  0  0  0  0  0
    7.2122  -14.1742   25.8069 C   0  0  0  0  0  0  0  0  0  0  0  0
    8.3555  -14.6854   24.9590 C   0  0  2  0  0  0  0  0  0  0  0  0
    7.9175  -14.8376   23.5874 N   0  0  0  0  0  0  0  0  0  0  0  0
    8.6809  -16.0440   25.4826 C   0  0  0  0  0  0  0  0  0  0  0  0
    7.8087  -16.9408   25.3785 O   0  0  0  0  0  0  0  0  0  0  0  0
   12.7004  -19.7078   23.6198 N   0  0  0  0  0  0  0  0  0  0  0  0
   12.6899  -20.1760   24.9514 C   0  0  0  0  0  0  0  0  0  0  0  0
   13.3497  -21.2316   25.2322 O   0  0  0  0  0  0  0  0  0  0  0  0
   11.9625  -19.4981   26.0148 C   0  0  0  0  0  0  0  0  0  0  0  0
   11.3357  -18.2015   25.6989 C   0  0  0  0  0  0  0  0  0  0  0  0
   10.1483  -17.7596   26.4875 C   0  0  2  0  0  0  0  0  0  0  0  0
    9.9033  -16.3653   26.0804 N   0  0  0  0  0  0  0  0  0  0  0  0
   10.3306  -17.8471   27.9262 C   0  0  0  0  0  0  0  0  0  0  0  0
   10.5217  -18.9515   28.5441 O   0  0  0  0  0  0  0  0  0  0  0  0
   10.3212  -16.7274   28.7524 O   0  0  0  0  0  0  0  0  0  0  0  0
  2  3  1  0
  2  1  1  1
  4  5  1  0
  4  3  1  0
  5  6  1  0
  6  7  1  0
  8  2  1  0
  9  8  2  0
 11 10  1  1
 12 11  1  0
 13 11  1  0
 14 13  1  1
 14 15  1  0
 15  8  1  0
 16 17  2  0
 16 14  1  0
 18 19  1  0
 19 20  2  0
 21 22  1  0
 21 19  1  0
 23 22  1  6
 23 24  1  0
 24 16  1  0
 25 23  1  0
 26 25  2  0
 27 25  1  0
M  END
$$$$
