KLQ.pdb
     RDKit          3D

 27 26  0  0  1  0  0  0  0  0999 V2000
    6.9988  -15.7551   21.3752 N   0  0  0  0  0  0  0  0  0  0  0  0
    8.3913  -15.3788   21.3833 C   0  0  1  0  0  0  0  0  0  0  0  0
    8.6378  -14.1562   20.5745 C   0  0  0  0  0  0  0  0  0  0  0  0
    7.8911  -14.0591   19.2881 C   0  0  0  0  0  0  0  0  0  0  0  0
    8.6118  -13.3800   18.1653 C   0  0  0  0  0  0  0  0  0  0  0  0
    7.6656  -13.2780   16.9631 C   0  0  0  0  0  0  0  0  0  0  0  0
    8.3571  -12.7494   15.8116 N   0  0  0  0  0  0  0  0  0  0  0  0
    8.8132  -15.1199   22.7948 C   0  0  0  0  0  0  0  0  0  0  0  0
   10.0167  -14.8653   23.0113 O   0  0  0  0  0  0  0  0  0  0  0  0
    5.5552  -12.6441   26.5950 C   0  0  0  0  0  0  0  0  0  0  0  0
    6.7740  -13.0073   25.7336 C   0  0  1  0  0  0  0  0  0  0  0  0
    7.8490  -12.0352   26.0769 C   0  0  0  0  0  0  0  0  0  0  0  0
    7.0979  -14.4284   26.0438 C   0  0  0  0  0  0  0  0  0  0  0  0
    8.2603  -14.9786   25.2477 C   0  0  2  0  0  0  0  0  0  0  0  0
    7.8642  -15.1629   23.8673 N   0  0  0  0  0  0  0  0  0  0  0  0
    8.5488  -16.3265   25.8186 C   0  0  0  0  0  0  0  0  0  0  0  0
    7.6051  -17.1511   25.8903 O   0  0  0  0  0  0  0  0  0  0  0  0
   12.1776  -20.3540   23.6743 N   0  0  0  0  0  0  0  0  0  0  0  0
   12.7319  -19.1800   24.2285 C   0  0  0  0  0  0  0  0  0  0  0  0
   13.8757  -18.7922   23.8167 O   0  0  0  0  0  0  0  0  0  0  0  0
   12.0467  -18.3934   25.2440 C   0  0  0  0  0  0  0  0  0  0  0  0
   10.6864  -18.8093   25.6320 C   0  0  0  0  0  0  0  0  0  0  0  0
   10.0016  -18.0955   26.7493 C   0  0  2  0  0  0  0  0  0  0  0  0
    9.8123  -16.7138   26.2751 N   0  0  0  0  0  0  0  0  0  0  0  0
   10.7421  -18.1096   27.9992 C   0  0  0  0  0  0  0  0  0  0  0  0
   11.0319  -19.1837   28.6319 O   0  0  0  0  0  0  0  0  0  0  0  0
   11.2069  -16.9478   28.6082 O   0  0  0  0  0  0  0  0  0  0  0  0
  2  3  1  0
  2  1  1  1
  4  5  1  0
  4  3  1  0
  5  6  1  0
  6  7  1  0
  8  2  1  0
  9  8  2  0
 11 10  1  1
 12 11  1  0
 13 11  1  0
 14 13  1  1
 14 15  1  0
 15  8  1  0
 16 17  2  0
 16 14  1  0
 18 19  1  0
 19 20  2  0
 21 22  1  0
 21 19  1  0
 23 22  1  6
 23 24  1  0
 24 16  1  0
 25 23  1  0
 26 25  2  0
 27 25  1  0
M  END
$$$$
