KLQ.pdb
     RDKit          3D

 27 26  0  0  1  0  0  0  0  0999 V2000
    6.7571  -15.9424   21.7459 N   0  0  0  0  0  0  0  0  0  0  0  0
    7.9250  -15.1262   21.5210 C   0  0  1  0  0  0  0  0  0  0  0  0
    7.6010  -13.9002   20.7454 C   0  0  0  0  0  0  0  0  0  0  0  0
    7.4124  -14.0829   19.2782 C   0  0  0  0  0  0  0  0  0  0  0  0
    8.3750  -13.3456   18.4000 C   0  0  0  0  0  0  0  0  0  0  0  0
    8.0375  -13.6492   16.9355 C   0  0  0  0  0  0  0  0  0  0  0  0
    9.0232  -13.0717   16.0533 N   0  0  0  0  0  0  0  0  0  0  0  0
    8.4965  -14.7263   22.8442 C   0  0  0  0  0  0  0  0  0  0  0  0
    9.6421  -14.2288   22.8635 O   0  0  0  0  0  0  0  0  0  0  0  0
    5.6731  -12.0866   26.5103 C   0  0  0  0  0  0  0  0  0  0  0  0
    6.8171  -12.5816   25.6127 C   0  0  1  0  0  0  0  0  0  0  0  0
    7.8491  -11.5077   25.5990 C   0  0  0  0  0  0  0  0  0  0  0  0
    7.2741  -13.8763   26.1920 C   0  0  0  0  0  0  0  0  0  0  0  0
    8.3092  -14.5907   25.3519 C   0  0  2  0  0  0  0  0  0  0  0  0
    7.7515  -14.9088   24.0543 N   0  0  0  0  0  0  0  0  0  0  0  0
    8.5892  -15.8786   26.0512 C   0  0  0  0  0  0  0  0  0  0  0  0
    8.1118  -16.0417   27.2006 O   0  0  0  0  0  0  0  0  0  0  0  0
    7.5930  -21.3951   24.2177 N   0  0  0  0  0  0  0  0  0  0  0  0
    6.8912  -20.2264   24.5840 C   0  0  0  0  0  0  0  0  0  0  0  0
    5.6657  -20.1191   24.2449 O   0  0  0  0  0  0  0  0  0  0  0  0
    7.5090  -19.1451   25.3380 C   0  0  0  0  0  0  0  0  0  0  0  0
    8.9575  -19.2310   25.5992 C   0  0  0  0  0  0  0  0  0  0  0  0
    9.6348  -18.1033   26.3038 C   0  0  2  0  0  0  0  0  0  0  0  0
    9.3534  -16.9071   25.4916 N   0  0  0  0  0  0  0  0  0  0  0  0
   11.0671  -18.2851   26.4663 C   0  0  0  0  0  0  0  0  0  0  0  0
   11.9391  -17.5852   25.8435 O   0  0  0  0  0  0  0  0  0  0  0  0
   11.6092  -19.2359   27.3257 O   0  0  0  0  0  0  0  0  0  0  0  0
  2  3  1  0
  2  1  1  1
  4  5  1  0
  4  3  1  0
  5  6  1  0
  6  7  1  0
  8  2  1  0
  9  8  2  0
 11 10  1  1
 12 11  1  0
 13 11  1  0
 14 13  1  1
 14 15  1  0
 15  8  1  0
 16 17  2  0
 16 14  1  0
 18 19  1  0
 19 20  2  0
 21 22  1  0
 21 19  1  0
 23 22  1  6
 23 24  1  0
 24 16  1  0
 25 23  1  0
 26 25  2  0
 27 25  1  0
M  END
$$$$
