WQI.pdb
     RDKit          3D

 32 33  0  0  1  0  0  0  0  0999 V2000
   25.2676  -22.3607  -13.2817 N   0  0  0  0  0  0  0  0  0  0  0  0
   24.8317  -20.9549  -13.2566 C   0  0  1  0  0  0  0  0  0  0  0  0
   24.9530  -20.3559  -14.5988 C   0  0  0  0  0  0  0  0  0  0  0  0
   26.2595  -20.0532  -15.1191 C   0  0  0  0  0  0  0  0  0  0  0  0
   27.2258  -21.0073  -15.3785 C   0  0  0  0  0  0  0  0  0  0  0  0
   28.3146  -20.4062  -15.8461 N   0  0  0  0  0  0  0  0  0  0  0  0
   28.1332  -19.0759  -15.9175 C   0  0  0  0  0  0  0  0  0  0  0  0
   28.9030  -18.0054  -16.3153 C   0  0  0  0  0  0  0  0  0  0  0  0
   28.3819  -16.7369  -16.2540 C   0  0  0  0  0  0  0  0  0  0  0  0
   27.0914  -16.4994  -15.7991 C   0  0  0  0  0  0  0  0  0  0  0  0
   26.3263  -17.5644  -15.4037 C   0  0  0  0  0  0  0  0  0  0  0  0
   26.8378  -18.8437  -15.4602 C   0  0  0  0  0  0  0  0  0  0  0  0
   23.3651  -21.0134  -12.9647 C   0  0  0  0  0  0  0  0  0  0  0  0
   22.7976  -22.1139  -13.1807 O   0  0  0  0  0  0  0  0  0  0  0  0
   19.1037  -21.5979  -10.6303 N   0  0  0  0  0  0  0  0  0  0  0  0
   20.1079  -21.4462   -9.6372 C   0  0  0  0  0  0  0  0  0  0  0  0
   20.1303  -22.2727   -8.6967 O   0  0  0  0  0  0  0  0  0  0  0  0
   21.1164  -20.3673   -9.6650 C   0  0  0  0  0  0  0  0  0  0  0  0
   20.8576  -19.4806  -10.8279 C   0  0  0  0  0  0  0  0  0  0  0  0
   21.1899  -20.1079  -12.1587 C   0  0  2  0  0  0  0  0  0  0  0  0
   22.6078  -19.9499  -12.4804 N   0  0  0  0  0  0  0  0  0  0  0  0
   20.3567  -19.5481  -13.2554 C   0  0  0  0  0  0  0  0  0  0  0  0
   20.4007  -18.3033  -13.5261 O   0  0  0  0  0  0  0  0  0  0  0  0
   19.8553  -22.1429  -17.8982 C   0  0  0  0  0  0  0  0  0  0  0  0
   19.9222  -21.1054  -16.8215 C   0  0  0  0  0  0  0  0  0  0  0  0
   18.5666  -20.8290  -16.2043 C   0  0  2  0  0  0  0  0  0  0  0  0
   17.5731  -20.3474  -17.2228 C   0  0  0  0  0  0  0  0  0  0  0  0
   18.6643  -19.7974  -15.1016 C   0  0  2  0  0  0  0  0  0  0  0  0
   19.4980  -20.3531  -14.0287 N   0  0  0  0  0  0  0  0  0  0  0  0
   17.3523  -19.3852  -14.5948 C   0  0  0  0  0  0  0  0  0  0  0  0
   16.7868  -20.0760  -13.7140 O   0  0  0  0  0  0  0  0  0  0  0  0
   16.7355  -18.2580  -15.0680 O   0  0  0  0  0  0  0  0  0  0  0  0
  2  1  1  6
  2  3  1  0
  3  4  1  0
  4  5  2  0
  5  6  1  0
  7  6  1  0
  8  7  2  0
  9  8  1  0
 10 11  1  0
 10  9  2  0
 11 12  2  0
 12  4  1  0
 12  7  1  0
 13  2  1  0
 13 21  1  0
 14 13  2  0
 16 18  1  0
 16 15  1  0
 17 16  2  0
 19 18  1  0
 20 21  1  0
 20 19  1  1
 22 20  1  0
 23 22  2  0
 24 25  1  0
 26 25  1  0
 26 27  1  6
 26 28  1  0
 28 29  1  1
 29 22  1  0
 30 32  1  0
 30 28  1  0
 31 30  2  0
M  END
$$$$
