WQI.pdb
     RDKit          3D

 32 33  0  0  1  0  0  0  0  0999 V2000
   26.6265  -22.4701  -10.1733 N   0  0  0  0  0  0  0  0  0  0  0  0
   26.1519  -21.1080   -9.8797 C   0  0  1  0  0  0  0  0  0  0  0  0
   27.2923  -20.1786   -9.7749 C   0  0  0  0  0  0  0  0  0  0  0  0
   28.2894  -20.3993   -8.7618 C   0  0  0  0  0  0  0  0  0  0  0  0
   29.4950  -21.0352   -8.9925 C   0  0  0  0  0  0  0  0  0  0  0  0
   30.1853  -21.0815   -7.8582 N   0  0  0  0  0  0  0  0  0  0  0  0
   29.4999  -20.5019   -6.8572 C   0  0  0  0  0  0  0  0  0  0  0  0
   29.7304  -20.2767   -5.5182 C   0  0  0  0  0  0  0  0  0  0  0  0
   28.7794  -19.6325   -4.7664 C   0  0  0  0  0  0  0  0  0  0  0  0
   27.5825  -19.1977   -5.3207 C   0  0  0  0  0  0  0  0  0  0  0  0
   27.3539  -19.4220   -6.6524 C   0  0  0  0  0  0  0  0  0  0  0  0
   28.3009  -20.0681   -7.4186 C   0  0  0  0  0  0  0  0  0  0  0  0
   25.3961  -20.6933  -11.1029 C   0  0  0  0  0  0  0  0  0  0  0  0
   25.7308  -19.5976  -11.6197 O   0  0  0  0  0  0  0  0  0  0  0  0
   24.7977  -24.6825  -13.8046 N   0  0  0  0  0  0  0  0  0  0  0  0
   25.5342  -23.6706  -14.4765 C   0  0  0  0  0  0  0  0  0  0  0  0
   26.6735  -23.9636  -14.9058 O   0  0  0  0  0  0  0  0  0  0  0  0
   25.0203  -22.3022  -14.6887 C   0  0  0  0  0  0  0  0  0  0  0  0
   23.7412  -22.1363  -13.9525 C   0  0  0  0  0  0  0  0  0  0  0  0
   23.7565  -21.0092  -12.9502 C   0  0  2  0  0  0  0  0  0  0  0  0
   24.3693  -21.4281  -11.6902 N   0  0  0  0  0  0  0  0  0  0  0  0
   22.3911  -20.4782  -12.6971 C   0  0  0  0  0  0  0  0  0  0  0  0
   21.7724  -20.7782  -11.6238 O   0  0  0  0  0  0  0  0  0  0  0  0
   21.5655  -16.0749  -15.1527 C   0  0  0  0  0  0  0  0  0  0  0  0
   21.1158  -16.8204  -13.9352 C   0  0  0  0  0  0  0  0  0  0  0  0
   20.1484  -17.9373  -14.2695 C   0  0  2  0  0  0  0  0  0  0  0  0
   18.7176  -17.5008  -14.1337 C   0  0  0  0  0  0  0  0  0  0  0  0
   20.3709  -19.1419  -13.3812 C   0  0  2  0  0  0  0  0  0  0  0  0
   21.7333  -19.6364  -13.6146 N   0  0  0  0  0  0  0  0  0  0  0  0
   19.3783  -20.1976  -13.6007 C   0  0  0  0  0  0  0  0  0  0  0  0
   19.4608  -20.9184  -14.6237 O   0  0  0  0  0  0  0  0  0  0  0  0
   18.3632  -20.4086  -12.7064 O   0  0  0  0  0  0  0  0  0  0  0  0
  2  1  1  6
  2  3  1  0
  3  4  1  0
  4  5  2  0
  5  6  1  0
  7  6  1  0
  8  7  2  0
  9  8  1  0
 10 11  1  0
 10  9  2  0
 11 12  2  0
 12  4  1  0
 12  7  1  0
 13  2  1  0
 13 21  1  0
 14 13  2  0
 16 18  1  0
 16 15  1  0
 17 16  2  0
 19 18  1  0
 20 21  1  0
 20 19  1  6
 22 20  1  0
 23 22  2  0
 24 25  1  0
 26 25  1  0
 26 27  1  1
 26 28  1  0
 28 29  1  6
 29 22  1  0
 30 32  1  0
 30 28  1  0
 31 30  2  0
M  END
$$$$
