WQI.pdb
     RDKit          3D

 32 33  0  0  1  0  0  0  0  0999 V2000
   27.8003  -21.8219  -14.4535 N   0  0  0  0  0  0  0  0  0  0  0  0
   26.7429  -21.7337  -13.4331 C   0  0  1  0  0  0  0  0  0  0  0  0
   26.6340  -20.3535  -12.9247 C   0  0  0  0  0  0  0  0  0  0  0  0
   27.4725  -19.9376  -11.8324 C   0  0  0  0  0  0  0  0  0  0  0  0
   28.6458  -19.2237  -11.9899 C   0  0  0  0  0  0  0  0  0  0  0  0
   29.1816  -19.0003  -10.7948 N   0  0  0  0  0  0  0  0  0  0  0  0
   28.4212  -19.5334   -9.8225 C   0  0  0  0  0  0  0  0  0  0  0  0
   28.4972  -19.5993   -8.4489 C   0  0  0  0  0  0  0  0  0  0  0  0
   27.5107  -20.2458   -7.7465 C   0  0  0  0  0  0  0  0  0  0  0  0
   26.4300  -20.8400   -8.3852 C   0  0  0  0  0  0  0  0  0  0  0  0
   26.3550  -20.7740   -9.7512 C   0  0  0  0  0  0  0  0  0  0  0  0
   27.3394  -20.1277  -10.4686 C   0  0  0  0  0  0  0  0  0  0  0  0
   25.4708  -21.9988  -14.1753 C   0  0  0  0  0  0  0  0  0  0  0  0
   25.3791  -21.4929  -15.3222 O   0  0  0  0  0  0  0  0  0  0  0  0
   23.2226  -24.7911  -17.1858 N   0  0  0  0  0  0  0  0  0  0  0  0
   24.1399  -25.4687  -16.3390 C   0  0  0  0  0  0  0  0  0  0  0  0
   25.0630  -26.1203  -16.8788 O   0  0  0  0  0  0  0  0  0  0  0  0
   24.0536  -25.4385  -14.8647 C   0  0  0  0  0  0  0  0  0  0  0  0
   22.9323  -24.5552  -14.4546 C   0  0  0  0  0  0  0  0  0  0  0  0
   23.2572  -23.0841  -14.5266 C   0  0  2  0  0  0  0  0  0  0  0  0
   24.4073  -22.7531  -13.6860 N   0  0  0  0  0  0  0  0  0  0  0  0
   22.0923  -22.2429  -14.1448 C   0  0  0  0  0  0  0  0  0  0  0  0
   21.8470  -22.0022  -12.9174 O   0  0  0  0  0  0  0  0  0  0  0  0
   19.9033  -18.9169  -18.0723 C   0  0  0  0  0  0  0  0  0  0  0  0
   19.9364  -20.0681  -17.1163 C   0  0  0  0  0  0  0  0  0  0  0  0
   20.1196  -19.6187  -15.6812 C   0  0  2  0  0  0  0  0  0  0  0  0
   21.3979  -18.8531  -15.4910 C   0  0  0  0  0  0  0  0  0  0  0  0
   20.1178  -20.7966  -14.7314 C   0  0  2  0  0  0  0  0  0  0  0  0
   21.2249  -21.6857  -15.1041 N   0  0  0  0  0  0  0  0  0  0  0  0
   18.8402  -21.5146  -14.7231 C   0  0  0  0  0  0  0  0  0  0  0  0
   17.8212  -20.9546  -14.2532 O   0  0  0  0  0  0  0  0  0  0  0  0
   18.7425  -22.7866  -15.2206 O   0  0  0  0  0  0  0  0  0  0  0  0
  2  1  1  6
  2  3  1  0
  3  4  1  0
  4  5  2  0
  5  6  1  0
  7  6  1  0
  8  7  2  0
  9  8  1  0
 10 11  1  0
 10  9  2  0
 11 12  2  0
 12  4  1  0
 12  7  1  0
 13  2  1  0
 13 21  1  0
 14 13  2  0
 16 18  1  0
 16 15  1  0
 17 16  2  0
 19 18  1  0
 20 21  1  0
 20 19  1  1
 22 20  1  0
 23 22  2  0
 24 25  1  0
 26 25  1  0
 26 27  1  6
 26 28  1  0
 28 29  1  6
 29 22  1  0
 30 32  1  0
 30 28  1  0
 31 30  2  0
M  END
$$$$
