WQI.pdb
     RDKit          3D

 32 33  0  0  1  0  0  0  0  0999 V2000
   26.5263  -18.4334   -8.9943 N   0  0  0  0  0  0  0  0  0  0  0  0
   27.0384  -19.7672   -9.3487 C   0  0  1  0  0  0  0  0  0  0  0  0
   26.3472  -20.8075   -8.5644 C   0  0  0  0  0  0  0  0  0  0  0  0
   26.3548  -20.7277   -7.1282 C   0  0  0  0  0  0  0  0  0  0  0  0
   25.2331  -20.9073   -6.3404 C   0  0  0  0  0  0  0  0  0  0  0  0
   25.5727  -20.7673   -5.0635 N   0  0  0  0  0  0  0  0  0  0  0  0
   26.8846  -20.4984   -4.9442 C   0  0  0  0  0  0  0  0  0  0  0  0
   27.7423  -20.2673   -3.8916 C   0  0  0  0  0  0  0  0  0  0  0  0
   29.0685  -20.0162   -4.1415 C   0  0  0  0  0  0  0  0  0  0  0  0
   29.5748  -19.9881   -5.4345 C   0  0  0  0  0  0  0  0  0  0  0  0
   28.7213  -20.2180   -6.4808 C   0  0  0  0  0  0  0  0  0  0  0  0
   27.3869  -20.4713   -6.2434 C   0  0  0  0  0  0  0  0  0  0  0  0
   26.6153  -19.9754  -10.7689 C   0  0  0  0  0  0  0  0  0  0  0  0
   25.4906  -19.5143  -11.0884 O   0  0  0  0  0  0  0  0  0  0  0  0
   28.7465  -18.7642  -15.6074 N   0  0  0  0  0  0  0  0  0  0  0  0
   27.8226  -19.7564  -16.0316 C   0  0  0  0  0  0  0  0  0  0  0  0
   27.0013  -19.4474  -16.9249 O   0  0  0  0  0  0  0  0  0  0  0  0
   27.7888  -21.1226  -15.4710 C   0  0  0  0  0  0  0  0  0  0  0  0
   28.1298  -21.0712  -14.0264 C   0  0  0  0  0  0  0  0  0  0  0  0
   26.9967  -20.6013  -13.1488 C   0  0  2  0  0  0  0  0  0  0  0  0
   27.3720  -20.6328  -11.7357 N   0  0  0  0  0  0  0  0  0  0  0  0
   25.7640  -21.4042  -13.3633 C   0  0  0  0  0  0  0  0  0  0  0  0
   25.5734  -22.4793  -12.7054 O   0  0  0  0  0  0  0  0  0  0  0  0
   20.4295  -20.6279  -12.0148 C   0  0  0  0  0  0  0  0  0  0  0  0
   21.2120  -21.3363  -13.0760 C   0  0  0  0  0  0  0  0  0  0  0  0
   22.6317  -20.8190  -13.1854 C   0  0  2  0  0  0  0  0  0  0  0  0
   22.6720  -19.3538  -13.5140 C   0  0  0  0  0  0  0  0  0  0  0  0
   23.4113  -21.5711  -14.2418 C   0  0  2  0  0  0  0  0  0  0  0  0
   24.7712  -21.0199  -14.2852 N   0  0  0  0  0  0  0  0  0  0  0  0
   22.7744  -21.5169  -15.5607 C   0  0  0  0  0  0  0  0  0  0  0  0
   21.6821  -22.1056  -15.7426 O   0  0  0  0  0  0  0  0  0  0  0  0
   23.3535  -20.8334  -16.5962 O   0  0  0  0  0  0  0  0  0  0  0  0
  2  1  1  1
  2  3  1  0
  3  4  1  0
  4  5  2  0
  5  6  1  0
  7  6  1  0
  8  7  2  0
  9  8  1  0
 10 11  1  0
 10  9  2  0
 11 12  2  0
 12  4  1  0
 12  7  1  0
 13  2  1  0
 13 21  1  0
 14 13  2  0
 16 18  1  0
 16 15  1  0
 17 16  2  0
 19 18  1  0
 20 21  1  0
 20 19  1  6
 22 20  1  0
 23 22  2  0
 24 25  1  0
 26 25  1  0
 26 27  1  6
 26 28  1  0
 28 29  1  6
 29 22  1  0
 30 32  1  0
 30 28  1  0
 31 30  2  0
M  END
$$$$
