WQI.pdb
     RDKit          3D

 32 33  0  0  1  0  0  0  0  0999 V2000
   22.2307  -17.6987  -16.4424 N   0  0  0  0  0  0  0  0  0  0  0  0
   23.3542  -18.6252  -16.2277 C   0  0  1  0  0  0  0  0  0  0  0  0
   24.6318  -17.9692  -16.5632 C   0  0  0  0  0  0  0  0  0  0  0  0
   24.9704  -17.7525  -17.9443 C   0  0  0  0  0  0  0  0  0  0  0  0
   25.3498  -16.5280  -18.4619 C   0  0  0  0  0  0  0  0  0  0  0  0
   25.5908  -16.6622  -19.7616 N   0  0  0  0  0  0  0  0  0  0  0  0
   25.3914  -17.9318  -20.1566 C   0  0  0  0  0  0  0  0  0  0  0  0
   25.4897  -18.6096  -21.3514 C   0  0  0  0  0  0  0  0  0  0  0  0
   25.2010  -19.9510  -21.3946 C   0  0  0  0  0  0  0  0  0  0  0  0
   24.8096  -20.6500  -20.2601 C   0  0  0  0  0  0  0  0  0  0  0  0
   24.7120  -19.9753  -19.0722 C   0  0  0  0  0  0  0  0  0  0  0  0
   24.9992  -18.6279  -19.0152 C   0  0  0  0  0  0  0  0  0  0  0  0
   23.3861  -18.8532  -14.7491 C   0  0  0  0  0  0  0  0  0  0  0  0
   23.1466  -17.8533  -14.0260 O   0  0  0  0  0  0  0  0  0  0  0  0
   21.8537  -19.5199  -10.0174 N   0  0  0  0  0  0  0  0  0  0  0  0
   20.9154  -19.5623  -11.0831 C   0  0  0  0  0  0  0  0  0  0  0  0
   19.8440  -18.9289  -10.9450 O   0  0  0  0  0  0  0  0  0  0  0  0
   21.1458  -20.3132  -12.3341 C   0  0  0  0  0  0  0  0  0  0  0  0
   22.4382  -21.0390  -12.2425 C   0  0  0  0  0  0  0  0  0  0  0  0
   23.6279  -20.2237  -12.6841 C   0  0  2  0  0  0  0  0  0  0  0  0
   23.6585  -20.0748  -14.1387 N   0  0  0  0  0  0  0  0  0  0  0  0
   24.9072  -20.8133  -12.2086 C   0  0  0  0  0  0  0  0  0  0  0  0
   25.5010  -21.7051  -12.8992 O   0  0  0  0  0  0  0  0  0  0  0  0
   27.3369  -18.9273   -7.3504 C   0  0  0  0  0  0  0  0  0  0  0  0
   26.6307  -19.7911   -8.3481 C   0  0  0  0  0  0  0  0  0  0  0  0
   27.4387  -19.9849   -9.6149 C   0  0  2  0  0  0  0  0  0  0  0  0
   27.6266  -18.6966  -10.3641 C   0  0  0  0  0  0  0  0  0  0  0  0
   26.7818  -20.9876  -10.5382 C   0  0  2  0  0  0  0  0  0  0  0  0
   25.5081  -20.4201  -10.9972 N   0  0  0  0  0  0  0  0  0  0  0  0
   26.5830  -22.2943   -9.9048 C   0  0  0  0  0  0  0  0  0  0  0  0
   25.4179  -22.6974   -9.6755 O   0  0  0  0  0  0  0  0  0  0  0  0
   27.6495  -23.0808   -9.5600 O   0  0  0  0  0  0  0  0  0  0  0  0
  2  1  1  1
  2  3  1  0
  3  4  1  0
  4  5  2  0
  5  6  1  0
  7  6  1  0
  8  7  2  0
  9  8  1  0
 10 11  1  0
 10  9  2  0
 11 12  2  0
 12  4  1  0
 12  7  1  0
 13  2  1  0
 13 21  1  0
 14 13  2  0
 16 18  1  0
 16 15  1  0
 17 16  2  0
 19 18  1  0
 20 21  1  0
 20 19  1  6
 22 20  1  0
 23 22  2  0
 24 25  1  0
 26 25  1  0
 26 27  1  6
 26 28  1  0
 28 29  1  1
 29 22  1  0
 30 32  1  0
 30 28  1  0
 31 30  2  0
M  END
$$$$
