WQI.pdb
     RDKit          3D

 32 33  0  0  1  0  0  0  0  0999 V2000
   26.9906  -19.7257  -17.7810 N   0  0  0  0  0  0  0  0  0  0  0  0
   27.1796  -19.0455  -16.4893 C   0  0  1  0  0  0  0  0  0  0  0  0
   26.5220  -17.7254  -16.5033 C   0  0  0  0  0  0  0  0  0  0  0  0
   27.0988  -16.6600  -17.2787 C   0  0  0  0  0  0  0  0  0  0  0  0
   26.3765  -15.5929  -17.7794 C   0  0  0  0  0  0  0  0  0  0  0  0
   27.1965  -14.7899  -18.4490 N   0  0  0  0  0  0  0  0  0  0  0  0
   28.4542  -15.2646  -18.4273 C   0  0  0  0  0  0  0  0  0  0  0  0
   29.6630  -14.8509  -18.9414 C   0  0  0  0  0  0  0  0  0  0  0  0
   30.7875  -15.6062  -18.7189 C   0  0  0  0  0  0  0  0  0  0  0  0
   30.7416  -16.7844  -17.9849 C   0  0  0  0  0  0  0  0  0  0  0  0
   29.5391  -17.1953  -17.4740 C   0  0  0  0  0  0  0  0  0  0  0  0
   28.4021  -16.4458  -17.6903 C   0  0  0  0  0  0  0  0  0  0  0  0
   26.4158  -19.8737  -15.5044 C   0  0  0  0  0  0  0  0  0  0  0  0
   25.4797  -20.5712  -15.9704 O   0  0  0  0  0  0  0  0  0  0  0  0
   25.1117  -19.4839   -9.9048 N   0  0  0  0  0  0  0  0  0  0  0  0
   25.1038  -20.9043   -9.8929 C   0  0  0  0  0  0  0  0  0  0  0  0
   24.5113  -21.4783   -8.9508 O   0  0  0  0  0  0  0  0  0  0  0  0
   25.7570  -21.7255  -10.9325 C   0  0  0  0  0  0  0  0  0  0  0  0
   26.4928  -20.8396  -11.8703 C   0  0  0  0  0  0  0  0  0  0  0  0
   25.8606  -20.7382  -13.2360 C   0  0  2  0  0  0  0  0  0  0  0  0
   26.6711  -19.9186  -14.1362 N   0  0  0  0  0  0  0  0  0  0  0  0
   24.4782  -20.1959  -13.1646 C   0  0  0  0  0  0  0  0  0  0  0  0
   24.2812  -18.9726  -12.8655 O   0  0  0  0  0  0  0  0  0  0  0  0
   21.1852  -18.4653  -16.4500 C   0  0  0  0  0  0  0  0  0  0  0  0
   21.6541  -18.7512  -15.0577 C   0  0  0  0  0  0  0  0  0  0  0  0
   21.4379  -20.1980  -14.6638 C   0  0  2  0  0  0  0  0  0  0  0  0
   19.9848  -20.5775  -14.6944 C   0  0  0  0  0  0  0  0  0  0  0  0
   21.9798  -20.4780  -13.2791 C   0  0  2  0  0  0  0  0  0  0  0  0
   23.3467  -20.9947  -13.4192 N   0  0  0  0  0  0  0  0  0  0  0  0
   21.1372  -21.4054  -12.5188 C   0  0  0  0  0  0  0  0  0  0  0  0
   21.4673  -22.6125  -12.4370 O   0  0  0  0  0  0  0  0  0  0  0  0
   19.9962  -20.9739  -11.8969 O   0  0  0  0  0  0  0  0  0  0  0  0
  2  1  1  6
  2  3  1  0
  3  4  1  0
  4  5  2  0
  5  6  1  0
  7  6  1  0
  8  7  2  0
  9  8  1  0
 10 11  1  0
 10  9  2  0
 11 12  2  0
 12  4  1  0
 12  7  1  0
 13  2  1  0
 13 21  1  0
 14 13  2  0
 16 18  1  0
 16 15  1  0
 17 16  2  0
 19 18  1  0
 20 21  1  0
 20 19  1  1
 22 20  1  0
 23 22  2  0
 24 25  1  0
 26 25  1  0
 26 27  1  1
 26 28  1  0
 28 29  1  6
 29 22  1  0
 30 32  1  0
 30 28  1  0
 31 30  2  0
M  END
$$$$
