WQI.pdb
     RDKit          3D

 32 33  0  0  1  0  0  0  0  0999 V2000
   27.9633  -24.7559  -17.1488 N   0  0  0  0  0  0  0  0  0  0  0  0
   26.5433  -24.4088  -16.9760 C   0  0  1  0  0  0  0  0  0  0  0  0
   25.8148  -25.5260  -16.3465 C   0  0  0  0  0  0  0  0  0  0  0  0
   24.9343  -26.3328  -17.1483 C   0  0  0  0  0  0  0  0  0  0  0  0
   25.3122  -27.5158  -17.7557 C   0  0  0  0  0  0  0  0  0  0  0  0
   24.2751  -28.0125  -18.4214 N   0  0  0  0  0  0  0  0  0  0  0  0
   23.1994  -27.2159  -18.2946 C   0  0  0  0  0  0  0  0  0  0  0  0
   21.9029  -27.2448  -18.7582 C   0  0  0  0  0  0  0  0  0  0  0  0
   21.0410  -26.2305  -18.4225 C   0  0  0  0  0  0  0  0  0  0  0  0
   21.4412  -25.1678  -17.6228 C   0  0  0  0  0  0  0  0  0  0  0  0
   22.7307  -25.1396  -17.1621 C   0  0  0  0  0  0  0  0  0  0  0  0
   23.6064  -26.1523  -17.4921 C   0  0  0  0  0  0  0  0  0  0  0  0
   26.5392  -23.2991  -15.9720 C   0  0  0  0  0  0  0  0  0  0  0  0
   27.4018  -23.3694  -15.0605 O   0  0  0  0  0  0  0  0  0  0  0  0
   24.3379  -17.6737  -16.9924 N   0  0  0  0  0  0  0  0  0  0  0  0
   23.4087  -18.4610  -16.2611 C   0  0  0  0  0  0  0  0  0  0  0  0
   22.2153  -18.0829  -16.2338 O   0  0  0  0  0  0  0  0  0  0  0  0
   23.7849  -19.6934  -15.5389 C   0  0  0  0  0  0  0  0  0  0  0  0
   25.2629  -19.8388  -15.5485 C   0  0  0  0  0  0  0  0  0  0  0  0
   25.7501  -21.1518  -14.9885 C   0  0  2  0  0  0  0  0  0  0  0  0
   25.6600  -22.2192  -15.9842 N   0  0  0  0  0  0  0  0  0  0  0  0
   25.0037  -21.5390  -13.7624 C   0  0  0  0  0  0  0  0  0  0  0  0
   23.9571  -22.2617  -13.8472 O   0  0  0  0  0  0  0  0  0  0  0  0
   26.2345  -19.3436   -8.5272 C   0  0  0  0  0  0  0  0  0  0  0  0
   25.7188  -19.6889   -9.8892 C   0  0  0  0  0  0  0  0  0  0  0  0
   25.5159  -21.1797  -10.0663 C   0  0  2  0  0  0  0  0  0  0  0  0
   26.8195  -21.9097  -10.2217 C   0  0  0  0  0  0  0  0  0  0  0  0
   24.6504  -21.4777  -11.2712 C   0  0  2  0  0  0  0  0  0  0  0  0
   25.4121  -21.1320  -12.4776 N   0  0  0  0  0  0  0  0  0  0  0  0
   23.3664  -20.7720  -11.2338 C   0  0  0  0  0  0  0  0  0  0  0  0
   22.5152  -21.0862  -10.3681 O   0  0  0  0  0  0  0  0  0  0  0  0
   23.0828  -19.7755  -12.1290 O   0  0  0  0  0  0  0  0  0  0  0  0
  2  1  1  1
  2  3  1  0
  3  4  1  0
  4  5  2  0
  5  6  1  0
  7  6  1  0
  8  7  2  0
  9  8  1  0
 10 11  1  0
 10  9  2  0
 11 12  2  0
 12  4  1  0
 12  7  1  0
 13  2  1  0
 13 21  1  0
 14 13  2  0
 16 18  1  0
 16 15  1  0
 17 16  2  0
 19 18  1  0
 20 21  1  0
 20 19  1  6
 22 20  1  0
 23 22  2  0
 24 25  1  0
 26 25  1  0
 26 27  1  6
 26 28  1  0
 28 29  1  6
 29 22  1  0
 30 32  1  0
 30 28  1  0
 31 30  2  0
M  END
$$$$
