IYI.pdb
     RDKit          3D

 29 29  0  0  1  0  0  0  0  0999 V2000
   13.3868  -20.0541   19.3871 C   0  0  0  0  0  0  0  0  0  0  0  0
   12.1643  -19.2169   19.1170 C   0  0  0  0  0  0  0  0  0  0  0  0
   11.9591  -18.2950   20.3011 C   0  0  2  0  0  0  0  0  0  0  0  0
   11.8939  -19.1250   21.5406 C   0  0  0  0  0  0  0  0  0  0  0  0
   10.7142  -17.4884   20.0452 C   0  0  2  0  0  0  0  0  0  0  0  0
   10.7912  -16.9442   18.7089 N   0  0  0  0  0  0  0  0  0  0  0  0
   10.4771  -16.4423   21.0412 C   0  0  0  0  0  0  0  0  0  0  0  0
   11.1727  -15.4047   21.0504 O   0  0  0  0  0  0  0  0  0  0  0  0
    5.3588  -11.7506   26.6527 O   0  0  0  0  0  0  0  0  0  0  0  0
    5.9177  -12.6337   25.7348 C   0  0  0  0  0  0  0  0  0  0  0  0
    6.6663  -12.1658   24.6868 C   0  0  0  0  0  0  0  0  0  0  0  0
    7.2123  -13.0542   23.7874 C   0  0  0  0  0  0  0  0  0  0  0  0
    7.0569  -14.4202   23.8653 C   0  0  0  0  0  0  0  0  0  0  0  0
    7.6452  -15.3579   22.8984 C   0  0  0  0  0  0  0  0  0  0  0  0
    9.1171  -15.5857   23.0012 C   0  0  2  0  0  0  0  0  0  0  0  0
    9.4455  -16.6281   21.9935 N   0  0  0  0  0  0  0  0  0  0  0  0
    9.6284  -16.0160   24.3094 C   0  0  0  0  0  0  0  0  0  0  0  0
    9.8771  -17.2763   24.4252 O   0  0  0  0  0  0  0  0  0  0  0  0
    6.2869  -14.8692   24.9467 C   0  0  0  0  0  0  0  0  0  0  0  0
    5.7429  -13.9893   25.8423 C   0  0  0  0  0  0  0  0  0  0  0  0
   11.3249  -14.1873   29.9757 C   0  0  0  0  0  0  0  0  0  0  0  0
   11.2917  -15.3026   28.9282 C   0  0  0  0  0  0  0  0  0  0  0  0
   10.6473  -14.7327   27.7121 C   0  0  2  0  0  0  0  0  0  0  0  0
    9.3445  -14.0548   28.0589 C   0  0  0  0  0  0  0  0  0  0  0  0
   10.3958  -15.7693   26.6302 C   0  0  2  0  0  0  0  0  0  0  0  0
    9.8725  -15.1787   25.4301 N   0  0  0  0  0  0  0  0  0  0  0  0
    9.5591  -16.8771   27.1407 C   0  0  0  0  0  0  0  0  0  0  0  0
    8.3330  -16.9108   26.9303 O   0  0  0  0  0  0  0  0  0  0  0  0
   10.0930  -17.9321   27.8772 O   0  0  0  0  0  0  0  0  0  0  0  0
  2  1  1  0
  3  2  1  0
  3  4  1  1
  5  3  1  0
  5  6  1  6
  7  8  2  0
  7  5  1  0
  9 10  1  0
 10 11  2  0
 11 12  1  0
 13 14  1  0
 13 12  2  0
 15 14  1  1
 15 16  1  0
 16  7  1  0
 17 26  1  0
 17 15  1  0
 18 17  2  0
 19 13  1  0
 20 19  2  0
 20 10  1  0
 21 22  1  0
 22 23  1  0
 23 25  1  0
 23 24  1  1
 25 27  1  0
 25 26  1  6
 27 29  1  0
 28 27  2  0
M  END
$$$$
