IYI.pdb
     RDKit          3D

 29 29  0  0  1  0  0  0  0  0999 V2000
    7.5992  -12.3782   19.9098 C   0  0  0  0  0  0  0  0  0  0  0  0
    7.1174  -13.7973   20.0584 C   0  0  0  0  0  0  0  0  0  0  0  0
    8.2740  -14.7195   19.7326 C   0  0  2  0  0  0  0  0  0  0  0  0
    8.7765  -14.3834   18.3673 C   0  0  0  0  0  0  0  0  0  0  0  0
    7.7840  -16.1364   19.8667 C   0  0  2  0  0  0  0  0  0  0  0  0
    6.7668  -16.3628   18.8658 N   0  0  0  0  0  0  0  0  0  0  0  0
    7.3036  -16.4672   21.2091 C   0  0  0  0  0  0  0  0  0  0  0  0
    6.0883  -16.3854   21.4868 O   0  0  0  0  0  0  0  0  0  0  0  0
    8.0244  -20.1445   29.3482 O   0  0  0  0  0  0  0  0  0  0  0  0
    8.0896  -19.7504   28.0159 C   0  0  0  0  0  0  0  0  0  0  0  0
    6.9617  -19.7403   27.2378 C   0  0  0  0  0  0  0  0  0  0  0  0
    7.0443  -19.3473   25.9206 C   0  0  0  0  0  0  0  0  0  0  0  0
    8.2124  -18.9515   25.3083 C   0  0  0  0  0  0  0  0  0  0  0  0
    8.2871  -18.5340   23.9010 C   0  0  0  0  0  0  0  0  0  0  0  0
    7.8370  -17.1443   23.5929 C   0  0  2  0  0  0  0  0  0  0  0  0
    8.2409  -16.8811   22.1866 N   0  0  0  0  0  0  0  0  0  0  0  0
    8.3704  -16.0737   24.4456 C   0  0  0  0  0  0  0  0  0  0  0  0
    9.5691  -15.6850   24.1706 O   0  0  0  0  0  0  0  0  0  0  0  0
    9.3487  -18.9719   26.1282 C   0  0  0  0  0  0  0  0  0  0  0  0
    9.2703  -19.3618   27.4374 C   0  0  0  0  0  0  0  0  0  0  0  0
    5.8004  -11.5818   26.0535 C   0  0  0  0  0  0  0  0  0  0  0  0
    6.7873  -12.6050   25.4865 C   0  0  0  0  0  0  0  0  0  0  0  0
    7.4219  -13.2831   26.6511 C   0  0  2  0  0  0  0  0  0  0  0  0
    8.1691  -12.2933   27.5108 C   0  0  0  0  0  0  0  0  0  0  0  0
    8.3660  -14.4025   26.2465 C   0  0  2  0  0  0  0  0  0  0  0  0
    7.6900  -15.4403   25.5192 N   0  0  0  0  0  0  0  0  0  0  0  0
    9.1170  -14.9117   27.4147 C   0  0  0  0  0  0  0  0  0  0  0  0
    8.6843  -15.8566   28.0993 O   0  0  0  0  0  0  0  0  0  0  0  0
   10.3372  -14.3665   27.8078 O   0  0  0  0  0  0  0  0  0  0  0  0
  2  1  1  0
  3  2  1  0
  3  4  1  6
  5  3  1  0
  5  6  1  6
  7  8  2  0
  7  5  1  0
  9 10  1  0
 10 11  2  0
 11 12  1  0
 13 14  1  0
 13 12  2  0
 15 14  1  1
 15 16  1  0
 16  7  1  0
 17 26  1  0
 17 15  1  0
 18 17  2  0
 19 13  1  0
 20 19  2  0
 20 10  1  0
 21 22  1  0
 22 23  1  0
 23 25  1  0
 23 24  1  6
 25 27  1  0
 25 26  1  1
 27 29  1  0
 28 27  2  0
M  END
$$$$
