IYI.pdb
     RDKit          3D

 29 29  0  0  1  0  0  0  0  0999 V2000
    7.4383  -11.9510   19.1261 C   0  0  0  0  0  0  0  0  0  0  0  0
    7.8199  -13.4072   19.0803 C   0  0  0  0  0  0  0  0  0  0  0  0
    7.8644  -13.9230   20.5038 C   0  0  2  0  0  0  0  0  0  0  0  0
    8.8057  -13.0685   21.2870 C   0  0  0  0  0  0  0  0  0  0  0  0
    8.2608  -15.3743   20.4546 C   0  0  2  0  0  0  0  0  0  0  0  0
    7.3148  -16.0763   19.6178 N   0  0  0  0  0  0  0  0  0  0  0  0
    8.3791  -15.9959   21.7745 C   0  0  0  0  0  0  0  0  0  0  0  0
    7.3587  -16.2741   22.4392 O   0  0  0  0  0  0  0  0  0  0  0  0
   10.5456  -22.6038   20.6367 O   0  0  0  0  0  0  0  0  0  0  0  0
   10.6777  -21.4133   21.3438 C   0  0  0  0  0  0  0  0  0  0  0  0
    9.5704  -20.7591   21.8168 C   0  0  0  0  0  0  0  0  0  0  0  0
    9.7194  -19.5815   22.5149 C   0  0  0  0  0  0  0  0  0  0  0  0
   10.9361  -18.9943   22.7812 C   0  0  0  0  0  0  0  0  0  0  0  0
   11.0816  -17.7367   23.5278 C   0  0  0  0  0  0  0  0  0  0  0  0
    9.8653  -16.8768   23.6292 C   0  0  2  0  0  0  0  0  0  0  0  0
    9.6705  -16.2758   22.2835 N   0  0  0  0  0  0  0  0  0  0  0  0
    9.9003  -15.7993   24.6271 C   0  0  0  0  0  0  0  0  0  0  0  0
   10.7807  -14.8786   24.4247 O   0  0  0  0  0  0  0  0  0  0  0  0
   12.0498  -19.6855   22.2854 C   0  0  0  0  0  0  0  0  0  0  0  0
   11.9055  -20.8558   21.5913 C   0  0  0  0  0  0  0  0  0  0  0  0
    6.2248  -12.5271   26.2256 C   0  0  0  0  0  0  0  0  0  0  0  0
    7.4809  -13.2808   25.7823 C   0  0  0  0  0  0  0  0  0  0  0  0
    8.1355  -13.7924   27.0187 C   0  0  2  0  0  0  0  0  0  0  0  0
    8.5454  -12.6555   27.9225 C   0  0  0  0  0  0  0  0  0  0  0  0
    9.3475  -14.6631   26.7341 C   0  0  2  0  0  0  0  0  0  0  0  0
    9.0608  -15.6853   25.7667 N   0  0  0  0  0  0  0  0  0  0  0  0
    9.9220  -15.1993   27.9873 C   0  0  0  0  0  0  0  0  0  0  0  0
   10.4628  -14.4513   28.8221 O   0  0  0  0  0  0  0  0  0  0  0  0
    9.8891  -16.5569   28.2977 O   0  0  0  0  0  0  0  0  0  0  0  0
  2  1  1  0
  3  2  1  0
  3  4  1  1
  5  3  1  0
  5  6  1  6
  7  8  2  0
  7  5  1  0
  9 10  1  0
 10 11  2  0
 11 12  1  0
 13 14  1  0
 13 12  2  0
 15 14  1  6
 15 16  1  0
 16  7  1  0
 17 26  1  0
 17 15  1  0
 18 17  2  0
 19 13  1  0
 20 19  2  0
 20 10  1  0
 21 22  1  0
 22 23  1  0
 23 25  1  0
 23 24  1  1
 25 27  1  0
 25 26  1  6
 27 29  1  0
 28 27  2  0
M  END
$$$$
