IYI.pdb
     RDKit          3D

 29 29  0  0  1  0  0  0  0  0999 V2000
    7.4554  -12.0517   19.6885 C   0  0  0  0  0  0  0  0  0  0  0  0
    7.3974  -13.5561   19.6491 C   0  0  0  0  0  0  0  0  0  0  0  0
    8.8097  -14.0730   19.4690 C   0  0  2  0  0  0  0  0  0  0  0  0
    9.3694  -13.4914   18.2129 C   0  0  0  0  0  0  0  0  0  0  0  0
    8.7519  -15.5772   19.4677 C   0  0  2  0  0  0  0  0  0  0  0  0
    8.0602  -16.0050   18.2734 N   0  0  0  0  0  0  0  0  0  0  0  0
    8.1461  -16.1427   20.6742 C   0  0  0  0  0  0  0  0  0  0  0  0
    6.9267  -16.4125   20.7060 O   0  0  0  0  0  0  0  0  0  0  0  0
   14.2591  -19.5810   22.3517 O   0  0  0  0  0  0  0  0  0  0  0  0
   12.9178  -19.2719   22.5521 C   0  0  0  0  0  0  0  0  0  0  0  0
   12.4653  -18.9127   23.7946 C   0  0  0  0  0  0  0  0  0  0  0  0
   11.1342  -18.6099   23.9753 C   0  0  0  0  0  0  0  0  0  0  0  0
   10.1949  -18.6423   22.9689 C   0  0  0  0  0  0  0  0  0  0  0  0
    8.7766  -18.3165   23.1749 C   0  0  0  0  0  0  0  0  0  0  0  0
    8.4043  -16.8734   23.0876 C   0  0  2  0  0  0  0  0  0  0  0  0
    8.9670  -16.3782   21.8038 N   0  0  0  0  0  0  0  0  0  0  0  0
    8.8728  -16.0041   24.1751 C   0  0  0  0  0  0  0  0  0  0  0  0
   10.0364  -15.4743   24.0051 O   0  0  0  0  0  0  0  0  0  0  0  0
   10.6866  -19.0128   21.7100 C   0  0  0  0  0  0  0  0  0  0  0  0
   12.0086  -19.3143   21.5268 C   0  0  0  0  0  0  0  0  0  0  0  0
    6.5728  -11.6973   25.7488 C   0  0  0  0  0  0  0  0  0  0  0  0
    7.5281  -12.8183   25.3328 C   0  0  0  0  0  0  0  0  0  0  0  0
    7.8574  -13.5844   26.5671 C   0  0  2  0  0  0  0  0  0  0  0  0
    8.5112  -12.6951   27.5962 C   0  0  0  0  0  0  0  0  0  0  0  0
    8.7542  -14.7820   26.3032 C   0  0  2  0  0  0  0  0  0  0  0  0
    8.1654  -15.6997   25.3682 N   0  0  0  0  0  0  0  0  0  0  0  0
    9.1612  -15.4296   27.5692 C   0  0  0  0  0  0  0  0  0  0  0  0
    8.6274  -16.4853   27.9558 O   0  0  0  0  0  0  0  0  0  0  0  0
   10.1541  -14.8982   28.3891 O   0  0  0  0  0  0  0  0  0  0  0  0
  2  1  1  0
  3  2  1  0
  3  4  1  6
  5  3  1  0
  5  6  1  6
  7  8  2  0
  7  5  1  0
  9 10  1  0
 10 11  2  0
 11 12  1  0
 13 14  1  0
 13 12  2  0
 15 14  1  1
 15 16  1  0
 16  7  1  0
 17 26  1  0
 17 15  1  0
 18 17  2  0
 19 13  1  0
 20 19  2  0
 20 10  1  0
 21 22  1  0
 22 23  1  0
 23 25  1  0
 23 24  1  1
 25 27  1  0
 25 26  1  6
 27 29  1  0
 28 27  2  0
M  END
$$$$
