IYI.pdb
     RDKit          3D

 29 29  0  0  1  0  0  0  0  0999 V2000
    8.3194  -12.5227   17.7067 C   0  0  0  0  0  0  0  0  0  0  0  0
    8.5615  -13.9788   18.0053 C   0  0  0  0  0  0  0  0  0  0  0  0
    7.8802  -14.3056   19.3180 C   0  0  2  0  0  0  0  0  0  0  0  0
    8.4558  -13.4284   20.3805 C   0  0  0  0  0  0  0  0  0  0  0  0
    8.0667  -15.7764   19.5790 C   0  0  2  0  0  0  0  0  0  0  0  0
    7.4491  -16.5120   18.4995 N   0  0  0  0  0  0  0  0  0  0  0  0
    7.5648  -16.2096   20.8839 C   0  0  0  0  0  0  0  0  0  0  0  0
    6.3493  -16.4443   21.0509 O   0  0  0  0  0  0  0  0  0  0  0  0
    8.0879  -19.9979   28.9304 O   0  0  0  0  0  0  0  0  0  0  0  0
    8.2275  -19.5218   27.6309 C   0  0  0  0  0  0  0  0  0  0  0  0
    7.1802  -19.5887   26.7497 C   0  0  0  0  0  0  0  0  0  0  0  0
    7.3357  -19.1127   25.4669 C   0  0  0  0  0  0  0  0  0  0  0  0
    8.5016  -18.5573   24.9891 C   0  0  0  0  0  0  0  0  0  0  0  0
    8.6546  -18.0526   23.6172 C   0  0  0  0  0  0  0  0  0  0  0  0
    8.0326  -16.7283   23.3206 C   0  0  2  0  0  0  0  0  0  0  0  0
    8.4819  -16.3575   21.9528 N   0  0  0  0  0  0  0  0  0  0  0  0
    8.3553  -15.6274   24.2382 C   0  0  0  0  0  0  0  0  0  0  0  0
    9.5431  -15.1371   24.1269 O   0  0  0  0  0  0  0  0  0  0  0  0
    9.5546  -18.5023   25.9122 C   0  0  0  0  0  0  0  0  0  0  0  0
    9.4036  -18.9743   27.1876 C   0  0  0  0  0  0  0  0  0  0  0  0
    6.2800  -10.9067   27.4435 C   0  0  0  0  0  0  0  0  0  0  0  0
    7.4282  -11.9054   27.2813 C   0  0  0  0  0  0  0  0  0  0  0  0
    6.9239  -13.0045   26.4115 C   0  0  2  0  0  0  0  0  0  0  0  0
    5.7519  -13.7061   27.0529 C   0  0  0  0  0  0  0  0  0  0  0  0
    7.9910  -14.0304   26.0692 C   0  0  2  0  0  0  0  0  0  0  0  0
    7.4867  -15.0659   25.2112 N   0  0  0  0  0  0  0  0  0  0  0  0
    8.6332  -14.5568   27.2933 C   0  0  0  0  0  0  0  0  0  0  0  0
    8.2762  -15.6374   27.7967 O   0  0  0  0  0  0  0  0  0  0  0  0
    9.6623  -13.8782   27.9422 O   0  0  0  0  0  0  0  0  0  0  0  0
  2  1  1  0
  3  2  1  0
  3  4  1  1
  5  3  1  0
  5  6  1  6
  7  8  2  0
  7  5  1  0
  9 10  1  0
 10 11  2  0
 11 12  1  0
 13 14  1  0
 13 12  2  0
 15 14  1  1
 15 16  1  0
 16  7  1  0
 17 26  1  0
 17 15  1  0
 18 17  2  0
 19 13  1  0
 20 19  2  0
 20 10  1  0
 21 22  1  0
 22 23  1  0
 23 25  1  0
 23 24  1  1
 25 27  1  0
 25 26  1  1
 27 29  1  0
 28 27  2  0
M  END
$$$$
