IYI.pdb
     RDKit          3D

 29 29  0  0  1  0  0  0  0  0999 V2000
    7.8798  -12.5901   18.2663 C   0  0  0  0  0  0  0  0  0  0  0  0
    7.8751  -14.0789   18.4938 C   0  0  0  0  0  0  0  0  0  0  0  0
    7.3804  -14.3343   19.9024 C   0  0  2  0  0  0  0  0  0  0  0  0
    8.2809  -13.6210   20.8563 C   0  0  0  0  0  0  0  0  0  0  0  0
    7.3347  -15.8244   20.1104 C   0  0  2  0  0  0  0  0  0  0  0  0
    6.4355  -16.3931   19.1328 N   0  0  0  0  0  0  0  0  0  0  0  0
    6.9691  -16.2163   21.4725 C   0  0  0  0  0  0  0  0  0  0  0  0
    5.7866  -16.1231   21.8644 O   0  0  0  0  0  0  0  0  0  0  0  0
    8.2150  -20.4154   29.2822 O   0  0  0  0  0  0  0  0  0  0  0  0
    8.2072  -19.9336   27.9774 C   0  0  0  0  0  0  0  0  0  0  0  0
    7.0251  -19.7696   27.3038 C   0  0  0  0  0  0  0  0  0  0  0  0
    7.0357  -19.2915   26.0125 C   0  0  0  0  0  0  0  0  0  0  0  0
    8.1814  -18.9556   25.3265 C   0  0  0  0  0  0  0  0  0  0  0  0
    8.1790  -18.4460   23.9478 C   0  0  0  0  0  0  0  0  0  0  0  0
    7.6943  -17.0472   23.7547 C   0  0  2  0  0  0  0  0  0  0  0  0
    7.9797  -16.7027   22.3370 N   0  0  0  0  0  0  0  0  0  0  0  0
    8.2872  -16.0182   24.6193 C   0  0  0  0  0  0  0  0  0  0  0  0
    9.4580  -15.6030   24.2718 O   0  0  0  0  0  0  0  0  0  0  0  0
    9.3742  -19.1336   26.0401 C   0  0  0  0  0  0  0  0  0  0  0  0
    9.3675  -19.6085   27.3234 C   0  0  0  0  0  0  0  0  0  0  0  0
    5.7389  -11.7497   26.8202 C   0  0  0  0  0  0  0  0  0  0  0  0
    6.6446  -12.7302   26.0716 C   0  0  0  0  0  0  0  0  0  0  0  0
    7.5013  -13.3928   27.0944 C   0  0  2  0  0  0  0  0  0  0  0  0
    8.3317  -12.3786   27.8421 C   0  0  0  0  0  0  0  0  0  0  0  0
    8.4191  -14.4514   26.5071 C   0  0  2  0  0  0  0  0  0  0  0  0
    7.6905  -15.4501   25.7759 N   0  0  0  0  0  0  0  0  0  0  0  0
    9.3005  -15.0258   27.5469 C   0  0  0  0  0  0  0  0  0  0  0  0
   10.5038  -14.7160   27.6174 O   0  0  0  0  0  0  0  0  0  0  0  0
    8.8361  -15.9356   28.4941 O   0  0  0  0  0  0  0  0  0  0  0  0
  2  1  1  0
  3  2  1  0
  3  4  1  1
  5  3  1  0
  5  6  1  6
  7  8  2  0
  7  5  1  0
  9 10  1  0
 10 11  2  0
 11 12  1  0
 13 14  1  0
 13 12  2  0
 15 14  1  1
 15 16  1  0
 16  7  1  0
 17 26  1  0
 17 15  1  0
 18 17  2  0
 19 13  1  0
 20 19  2  0
 20 10  1  0
 21 22  1  0
 22 23  1  0
 23 25  1  0
 23 24  1  6
 25 27  1  0
 25 26  1  1
 27 29  1  0
 28 27  2  0
M  END
$$$$
