IYI.pdb
     RDKit          3D

 29 29  0  0  1  0  0  0  0  0999 V2000
    7.9633  -12.5993   18.3274 C   0  0  0  0  0  0  0  0  0  0  0  0
    8.0291  -14.0849   18.5660 C   0  0  0  0  0  0  0  0  0  0  0  0
    7.4838  -14.3596   19.9521 C   0  0  2  0  0  0  0  0  0  0  0  0
    8.3336  -13.6387   20.9459 C   0  0  0  0  0  0  0  0  0  0  0  0
    7.4556  -15.8519   20.1475 C   0  0  2  0  0  0  0  0  0  0  0  0
    6.5986  -16.4272   19.1364 N   0  0  0  0  0  0  0  0  0  0  0  0
    7.0517  -16.2604   21.4938 C   0  0  0  0  0  0  0  0  0  0  0  0
    5.8655  -16.1374   21.8657 O   0  0  0  0  0  0  0  0  0  0  0  0
    8.0355  -20.2780   29.4348 O   0  0  0  0  0  0  0  0  0  0  0  0
    8.0699  -19.8393   28.1153 C   0  0  0  0  0  0  0  0  0  0  0  0
    9.2676  -19.6238   27.4853 C   0  0  0  0  0  0  0  0  0  0  0  0
    9.2833  -19.1894   26.1786 C   0  0  0  0  0  0  0  0  0  0  0  0
    8.1497  -18.9480   25.4351 C   0  0  0  0  0  0  0  0  0  0  0  0
    8.1802  -18.4844   24.0406 C   0  0  0  0  0  0  0  0  0  0  0  0
    7.7291  -17.0829   23.7937 C   0  0  2  0  0  0  0  0  0  0  0  0
    8.0296  -16.7972   22.3661 N   0  0  0  0  0  0  0  0  0  0  0  0
    8.3413  -16.0368   24.6236 C   0  0  0  0  0  0  0  0  0  0  0  0
    9.5522  -15.7164   24.3157 O   0  0  0  0  0  0  0  0  0  0  0  0
    6.9405  -19.1769   26.1053 C   0  0  0  0  0  0  0  0  0  0  0  0
    6.9211  -19.6085   27.4035 C   0  0  0  0  0  0  0  0  0  0  0  0
    5.8198  -11.5855   26.3894 C   0  0  0  0  0  0  0  0  0  0  0  0
    6.7898  -12.5800   25.7475 C   0  0  0  0  0  0  0  0  0  0  0  0
    7.5686  -13.1994   26.8560 C   0  0  2  0  0  0  0  0  0  0  0  0
    8.4091  -12.1675   27.5675 C   0  0  0  0  0  0  0  0  0  0  0  0
    8.4637  -14.3360   26.3923 C   0  0  2  0  0  0  0  0  0  0  0  0
    7.7236  -15.3592   25.7080 N   0  0  0  0  0  0  0  0  0  0  0  0
    9.2765  -14.8617   27.5108 C   0  0  0  0  0  0  0  0  0  0  0  0
    8.8715  -15.8025   28.2175 O   0  0  0  0  0  0  0  0  0  0  0  0
   10.5269  -14.3372   27.8303 O   0  0  0  0  0  0  0  0  0  0  0  0
  2  1  1  0
  3  2  1  0
  3  4  1  1
  5  3  1  0
  5  6  1  6
  7  8  2  0
  7  5  1  0
  9 10  1  0
 10 11  2  0
 11 12  1  0
 13 14  1  0
 13 12  2  0
 15 14  1  1
 15 16  1  0
 16  7  1  0
 17 26  1  0
 17 15  1  0
 18 17  2  0
 19 13  1  0
 20 19  2  0
 20 10  1  0
 21 22  1  0
 22 23  1  0
 23 25  1  0
 23 24  1  6
 25 27  1  0
 25 26  1  1
 27 29  1  0
 28 27  2  0
M  END
$$$$
