IYI.pdb
     RDKit          3D

 29 29  0  0  1  0  0  0  0  0999 V2000
    7.8554  -12.4011   18.2463 C   0  0  0  0  0  0  0  0  0  0  0  0
    8.1885  -13.8652   18.3631 C   0  0  0  0  0  0  0  0  0  0  0  0
    7.5790  -14.3813   19.6501 C   0  0  2  0  0  0  0  0  0  0  0  0
    8.1368  -13.5909   20.7875 C   0  0  0  0  0  0  0  0  0  0  0  0
    7.8684  -15.8559   19.7368 C   0  0  2  0  0  0  0  0  0  0  0  0
    7.2156  -16.5137   18.6282 N   0  0  0  0  0  0  0  0  0  0  0  0
    7.4903  -16.4543   21.0180 C   0  0  0  0  0  0  0  0  0  0  0  0
    6.5880  -17.3164   21.0747 O   0  0  0  0  0  0  0  0  0  0  0  0
    7.4129  -21.4175   27.9118 O   0  0  0  0  0  0  0  0  0  0  0  0
    7.6004  -20.6122   26.7933 C   0  0  0  0  0  0  0  0  0  0  0  0
    8.7817  -19.9427   26.6087 C   0  0  0  0  0  0  0  0  0  0  0  0
    8.9504  -19.1497   25.4956 C   0  0  0  0  0  0  0  0  0  0  0  0
    7.9904  -18.9740   24.5242 C   0  0  0  0  0  0  0  0  0  0  0  0
    8.1832  -18.1245   23.3403 C   0  0  0  0  0  0  0  0  0  0  0  0
    7.8984  -16.6690   23.5105 C   0  0  2  0  0  0  0  0  0  0  0  0
    8.1657  -16.0383   22.1911 N   0  0  0  0  0  0  0  0  0  0  0  0
    8.6732  -15.9607   24.5380 C   0  0  0  0  0  0  0  0  0  0  0  0
    9.8403  -15.5498   24.1736 O   0  0  0  0  0  0  0  0  0  0  0  0
    6.7936  -19.6706   24.7397 C   0  0  0  0  0  0  0  0  0  0  0  0
    6.6226  -20.4594   25.8445 C   0  0  0  0  0  0  0  0  0  0  0  0
    6.8411  -11.0546   26.3580 C   0  0  0  0  0  0  0  0  0  0  0  0
    7.9213  -12.0444   26.8004 C   0  0  0  0  0  0  0  0  0  0  0  0
    7.5568  -13.3675   26.2213 C   0  0  2  0  0  0  0  0  0  0  0  0
    6.2345  -13.8493   26.7659 C   0  0  0  0  0  0  0  0  0  0  0  0
    8.6119  -14.4339   26.4618 C   0  0  2  0  0  0  0  0  0  0  0  0
    8.2522  -15.6908   25.8671 N   0  0  0  0  0  0  0  0  0  0  0  0
    8.9334  -14.5473   27.9012 C   0  0  0  0  0  0  0  0  0  0  0  0
    9.4134  -13.5890   28.5336 O   0  0  0  0  0  0  0  0  0  0  0  0
    8.7186  -15.7214   28.6195 O   0  0  0  0  0  0  0  0  0  0  0  0
  2  1  1  0
  3  2  1  0
  3  4  1  1
  5  3  1  0
  5  6  1  6
  7  8  2  0
  7  5  1  0
  9 10  1  0
 10 11  2  0
 11 12  1  0
 13 14  1  0
 13 12  2  0
 15 14  1  6
 15 16  1  0
 16  7  1  0
 17 26  1  0
 17 15  1  0
 18 17  2  0
 19 13  1  0
 20 19  2  0
 20 10  1  0
 21 22  1  0
 22 23  1  0
 23 25  1  0
 23 24  1  1
 25 27  1  0
 25 26  1  1
 27 29  1  0
 28 27  2  0
M  END
$$$$
