CPM.pdb
     RDKit          3D

 22 22  0  0  1  0  0  0  0  0999 V2000
    7.5045  -14.1775   17.5636 N   0  0  0  0  0  0  0  0  0  0  0  0
    8.5602  -14.1637   18.5207 C   0  0  1  0  0  0  0  0  0  0  0  0
    8.8821  -12.7325   18.9431 C   0  0  0  0  0  0  0  0  0  0  0  0
   10.2049  -12.7038   20.1721 S   0  0  0  0  0  0  0  0  0  0  0  0
    8.2915  -14.9257   19.7502 C   0  0  0  0  0  0  0  0  0  0  0  0
    7.2657  -14.5431   20.4145 O   0  0  0  0  0  0  0  0  0  0  0  0
    9.0855  -16.0091   20.1996 N   0  0  0  0  0  0  0  0  0  0  0  0
   10.2721  -16.4853   19.5247 C   0  0  0  0  0  0  0  0  0  0  0  0
   10.8818  -17.5305   20.4367 C   0  0  0  0  0  0  0  0  0  0  0  0
    9.7258  -18.0355   21.2365 C   0  0  0  0  0  0  0  0  0  0  0  0
    8.8486  -16.8019   21.3791 C   0  0  1  0  0  0  0  0  0  0  0  0
    9.1753  -16.0410   22.6266 C   0  0  0  0  0  0  0  0  0  0  0  0
   10.2366  -15.3775   22.6809 O   0  0  0  0  0  0  0  0  0  0  0  0
    6.4878  -10.6658   26.9026 C   0  0  0  0  0  0  0  0  0  0  0  0
    6.1420  -12.4019   26.4650 S   0  0  0  0  0  0  0  0  0  0  0  0
    7.6722  -13.1644   25.8540 C   0  0  0  0  0  0  0  0  0  0  0  0
    7.3719  -14.5906   25.4821 C   0  0  0  0  0  0  0  0  0  0  0  0
    8.6020  -15.3124   24.9681 C   0  0  2  0  0  0  0  0  0  0  0  0
    8.3176  -16.0477   23.7529 N   0  0  0  0  0  0  0  0  0  0  0  0
    9.2076  -16.1558   26.0077 C   0  0  0  0  0  0  0  0  0  0  0  0
    8.8799  -17.3745   26.0367 O   0  0  0  0  0  0  0  0  0  0  0  0
   10.0994  -15.7014   26.9396 O   0  0  0  0  0  0  0  0  0  0  0  0
  2  1  1  6
  3  2  1  0
  4  3  1  0
  5  2  1  0
  5  6  2  0
  7  5  1  0
  8  7  1  0
  9 10  1  0
  9  8  1  0
 10 11  1  0
 11  7  1  0
 11 12  1  1
 12 13  2  0
 12 19  1  0
 15 14  1  0
 16 17  1  0
 16 15  1  0
 18 17  1  1
 19 18  1  0
 20 18  1  0
 20 22  1  0
 21 20  2  0
M  END
$$$$
