CPM.pdb
     RDKit          3D

 22 22  0  0  1  0  0  0  0  0999 V2000
    6.0838  -18.7999   19.5803 N   0  0  0  0  0  0  0  0  0  0  0  0
    5.8528  -17.4766   20.0561 C   0  0  1  0  0  0  0  0  0  0  0  0
    4.8498  -17.4881   21.2069 C   0  0  0  0  0  0  0  0  0  0  0  0
    3.2247  -18.0364   20.6418 S   0  0  0  0  0  0  0  0  0  0  0  0
    7.0521  -16.7731   20.5369 C   0  0  0  0  0  0  0  0  0  0  0  0
    7.8942  -17.5021   21.1688 O   0  0  0  0  0  0  0  0  0  0  0  0
    7.2940  -15.3921   20.3355 N   0  0  0  0  0  0  0  0  0  0  0  0
    6.3550  -14.4812   19.7199 C   0  0  0  0  0  0  0  0  0  0  0  0
    6.9566  -13.0981   19.8650 C   0  0  0  0  0  0  0  0  0  0  0  0
    8.4255  -13.3485   19.9684 C   0  0  0  0  0  0  0  0  0  0  0  0
    8.4910  -14.6787   20.7017 C   0  0  1  0  0  0  0  0  0  0  0  0
    8.5808  -14.4815   22.1833 C   0  0  0  0  0  0  0  0  0  0  0  0
    7.9599  -13.5323   22.7151 O   0  0  0  0  0  0  0  0  0  0  0  0
    6.7015  -11.5288   27.3642 C   0  0  0  0  0  0  0  0  0  0  0  0
    6.7684  -13.2540   26.7775 S   0  0  0  0  0  0  0  0  0  0  0  0
    8.0760  -13.3932   25.5257 C   0  0  0  0  0  0  0  0  0  0  0  0
    8.1559  -14.8293   25.0857 C   0  0  0  0  0  0  0  0  0  0  0  0
    9.4878  -15.1489   24.4359 C   0  0  2  0  0  0  0  0  0  0  0  0
    9.3497  -15.3391   23.0065 N   0  0  0  0  0  0  0  0  0  0  0  0
   10.1516  -16.2830   25.0932 C   0  0  0  0  0  0  0  0  0  0  0  0
   10.0077  -17.4252   24.5753 O   0  0  0  0  0  0  0  0  0  0  0  0
   10.9111  -16.1749   26.2254 O   0  0  0  0  0  0  0  0  0  0  0  0
  2  1  1  1
  3  2  1  0
  4  3  1  0
  5  2  1  0
  5  6  2  0
  7  5  1  0
  8  7  1  0
  9 10  1  0
  9  8  1  0
 10 11  1  0
 11  7  1  0
 11 12  1  1
 12 13  2  0
 12 19  1  0
 15 14  1  0
 16 17  1  0
 16 15  1  0
 18 17  1  1
 19 18  1  0
 20 18  1  0
 20 22  1  0
 21 20  2  0
M  END
$$$$
