CPM.pdb
     RDKit          3D

 22 22  0  0  1  0  0  0  0  0999 V2000
    6.0121  -18.8518   19.9630 N   0  0  0  0  0  0  0  0  0  0  0  0
    5.9125  -17.5907   20.6190 C   0  0  1  0  0  0  0  0  0  0  0  0
    5.3077  -17.7567   22.0108 C   0  0  0  0  0  0  0  0  0  0  0  0
    3.5139  -17.9428   21.9174 S   0  0  0  0  0  0  0  0  0  0  0  0
    7.1881  -16.8769   20.7860 C   0  0  0  0  0  0  0  0  0  0  0  0
    8.1955  -17.6189   21.0591 O   0  0  0  0  0  0  0  0  0  0  0  0
    7.3322  -15.4733   20.6616 N   0  0  0  0  0  0  0  0  0  0  0  0
    6.2366  -14.5586   20.4307 C   0  0  0  0  0  0  0  0  0  0  0  0
    6.8245  -13.1660   20.5350 C   0  0  0  0  0  0  0  0  0  0  0  0
    8.2663  -13.3524   20.1924 C   0  0  0  0  0  0  0  0  0  0  0  0
    8.5682  -14.7374   20.7419 C   0  0  1  0  0  0  0  0  0  0  0  0
    9.0752  -14.6679   22.1490 C   0  0  0  0  0  0  0  0  0  0  0  0
    9.8932  -13.7726   22.4635 O   0  0  0  0  0  0  0  0  0  0  0  0
    6.8433  -11.5075   28.1154 C   0  0  0  0  0  0  0  0  0  0  0  0
    6.8952  -11.9798   26.3549 S   0  0  0  0  0  0  0  0  0  0  0  0
    7.6476  -13.6263   26.2156 C   0  0  0  0  0  0  0  0  0  0  0  0
    7.8466  -13.9312   24.7562 C   0  0  0  0  0  0  0  0  0  0  0  0
    8.5675  -15.2483   24.5465 C   0  0  2  0  0  0  0  0  0  0  0  0
    8.6566  -15.5873   23.1409 N   0  0  0  0  0  0  0  0  0  0  0  0
    7.9704  -16.3250   25.3484 C   0  0  0  0  0  0  0  0  0  0  0  0
    8.0265  -16.2185   26.6050 O   0  0  0  0  0  0  0  0  0  0  0  0
    7.3613  -17.4284   24.8173 O   0  0  0  0  0  0  0  0  0  0  0  0
  2  1  1  1
  3  2  1  0
  4  3  1  0
  5  2  1  0
  5  6  2  0
  7  5  1  0
  8  7  1  0
  9 10  1  0
  9  8  1  0
 10 11  1  0
 11  7  1  0
 11 12  1  1
 12 13  2  0
 12 19  1  0
 15 14  1  0
 16 17  1  0
 16 15  1  0
 18 17  1  6
 19 18  1  0
 20 18  1  0
 20 22  1  0
 21 20  2  0
M  END
$$$$
