CPM.pdb
     RDKit          3D

 22 22  0  0  1  0  0  0  0  0999 V2000
    6.8565  -14.4289   18.2803 N   0  0  0  0  0  0  0  0  0  0  0  0
    7.9958  -14.4688   19.1353 C   0  0  1  0  0  0  0  0  0  0  0  0
    8.3497  -13.0660   19.6227 C   0  0  0  0  0  0  0  0  0  0  0  0
    8.7634  -11.9857   18.2360 S   0  0  0  0  0  0  0  0  0  0  0  0
    7.8446  -15.3144   20.3297 C   0  0  0  0  0  0  0  0  0  0  0  0
    6.7680  -15.1264   20.9971 O   0  0  0  0  0  0  0  0  0  0  0  0
    8.7973  -16.2772   20.7439 N   0  0  0  0  0  0  0  0  0  0  0  0
    9.9508  -16.6700   19.9657 C   0  0  0  0  0  0  0  0  0  0  0  0
   10.7665  -17.5838   20.8576 C   0  0  0  0  0  0  0  0  0  0  0  0
    9.7655  -18.1533   21.8088 C   0  0  0  0  0  0  0  0  0  0  0  0
    8.7770  -17.0115   21.9834 C   0  0  1  0  0  0  0  0  0  0  0  0
    9.1482  -16.1406   23.1434 C   0  0  0  0  0  0  0  0  0  0  0  0
    9.6351  -15.0064   22.9286 O   0  0  0  0  0  0  0  0  0  0  0  0
    6.5806  -11.0498   27.4175 C   0  0  0  0  0  0  0  0  0  0  0  0
    6.4923  -12.3824   26.1759 S   0  0  0  0  0  0  0  0  0  0  0  0
    7.8155  -13.5795   26.5113 C   0  0  0  0  0  0  0  0  0  0  0  0
    7.8372  -14.5836   25.3916 C   0  0  0  0  0  0  0  0  0  0  0  0
    8.9043  -15.6402   25.5995 C   0  0  2  0  0  0  0  0  0  0  0  0
    8.9651  -16.5609   24.4828 N   0  0  0  0  0  0  0  0  0  0  0  0
    8.7404  -16.3277   26.8876 C   0  0  0  0  0  0  0  0  0  0  0  0
    7.9707  -17.3276   26.9234 O   0  0  0  0  0  0  0  0  0  0  0  0
    9.3684  -15.9507   28.0426 O   0  0  0  0  0  0  0  0  0  0  0  0
  2  1  1  1
  3  2  1  0
  4  3  1  0
  5  2  1  0
  5  6  2  0
  7  5  1  0
  8  7  1  0
  9 10  1  0
  9  8  1  0
 10 11  1  0
 11  7  1  0
 11 12  1  1
 12 13  2  0
 12 19  1  0
 15 14  1  0
 16 17  1  0
 16 15  1  0
 18 17  1  6
 19 18  1  0
 20 18  1  0
 20 22  1  0
 21 20  2  0
M  END
$$$$
