CPM.pdb
     RDKit          3D

 22 22  0  0  1  0  0  0  0  0999 V2000
    7.2950  -19.5417   20.4056 N   0  0  0  0  0  0  0  0  0  0  0  0
    6.9879  -18.4347   21.2488 C   0  0  1  0  0  0  0  0  0  0  0  0
    6.7473  -18.9029   22.6818 C   0  0  0  0  0  0  0  0  0  0  0  0
    5.2033  -19.8309   22.8074 S   0  0  0  0  0  0  0  0  0  0  0  0
    8.0245  -17.3922   21.3044 C   0  0  0  0  0  0  0  0  0  0  0  0
    9.2299  -17.8237   21.3271 O   0  0  0  0  0  0  0  0  0  0  0  0
    7.7495  -16.0030   21.3322 N   0  0  0  0  0  0  0  0  0  0  0  0
    6.4201  -15.4355   21.3659 C   0  0  0  0  0  0  0  0  0  0  0  0
    6.6060  -13.9439   21.5563 C   0  0  0  0  0  0  0  0  0  0  0  0
    7.9650  -13.6719   20.9992 C   0  0  0  0  0  0  0  0  0  0  0  0
    8.7273  -14.9448   21.3306 C   0  0  1  0  0  0  0  0  0  0  0  0
    9.4213  -14.8370   22.6530 C   0  0  0  0  0  0  0  0  0  0  0  0
   10.2481  -13.9144   22.8392 O   0  0  0  0  0  0  0  0  0  0  0  0
    7.0074  -11.1070   27.1817 C   0  0  0  0  0  0  0  0  0  0  0  0
    6.2067  -12.5204   26.3533 S   0  0  0  0  0  0  0  0  0  0  0  0
    7.3038  -13.9622   26.4709 C   0  0  0  0  0  0  0  0  0  0  0  0
    7.6413  -14.4122   25.0759 C   0  0  0  0  0  0  0  0  0  0  0  0
    8.8455  -15.3330   25.0540 C   0  0  2  0  0  0  0  0  0  0  0  0
    9.1710  -15.7502   23.7055 N   0  0  0  0  0  0  0  0  0  0  0  0
    8.6733  -16.4698   25.9688 C   0  0  0  0  0  0  0  0  0  0  0  0
    8.2121  -17.5424   25.4888 O   0  0  0  0  0  0  0  0  0  0  0  0
    8.9812  -16.4347   27.3009 O   0  0  0  0  0  0  0  0  0  0  0  0
  2  1  1  6
  3  2  1  0
  4  3  1  0
  5  2  1  0
  5  6  2  0
  7  5  1  0
  8  7  1  0
  9 10  1  0
  9  8  1  0
 10 11  1  0
 11  7  1  0
 11 12  1  1
 12 13  2  0
 12 19  1  0
 15 14  1  0
 16 17  1  0
 16 15  1  0
 18 17  1  6
 19 18  1  0
 20 18  1  0
 20 22  1  0
 21 20  2  0
M  END
$$$$
