CPM.pdb
     RDKit          3D

 22 22  0  0  1  0  0  0  0  0999 V2000
    6.9702  -18.2548   18.5071 N   0  0  0  0  0  0  0  0  0  0  0  0
    6.5932  -17.4763   19.6396 C   0  0  1  0  0  0  0  0  0  0  0  0
    5.9888  -18.3650   20.7238 C   0  0  0  0  0  0  0  0  0  0  0  0
    5.4881  -17.3862   22.1563 S   0  0  0  0  0  0  0  0  0  0  0  0
    7.6898  -16.7201   20.2641 C   0  0  0  0  0  0  0  0  0  0  0  0
    8.7267  -17.4101   20.5613 O   0  0  0  0  0  0  0  0  0  0  0  0
    7.6403  -15.3303   20.5331 N   0  0  0  0  0  0  0  0  0  0  0  0
    6.4450  -14.5229   20.4347 C   0  0  0  0  0  0  0  0  0  0  0  0
    6.8184  -13.1548   20.9684 C   0  0  0  0  0  0  0  0  0  0  0  0
    8.2933  -13.0679   20.7486 C   0  0  0  0  0  0  0  0  0  0  0  0
    8.7492  -14.5055   20.9406 C   0  0  1  0  0  0  0  0  0  0  0  0
    9.1366  -14.7702   22.3625 C   0  0  0  0  0  0  0  0  0  0  0  0
   10.2086  -14.2966   22.8051 O   0  0  0  0  0  0  0  0  0  0  0  0
    5.7810  -11.8925   27.5523 C   0  0  0  0  0  0  0  0  0  0  0  0
    7.4112  -12.3864   26.9012 S   0  0  0  0  0  0  0  0  0  0  0  0
    7.1967  -13.8417   25.8371 C   0  0  0  0  0  0  0  0  0  0  0  0
    8.5414  -14.2193   25.2788 C   0  0  0  0  0  0  0  0  0  0  0  0
    8.5290  -15.6033   24.6601 C   0  0  2  0  0  0  0  0  0  0  0  0
    8.3247  -15.5431   23.2273 N   0  0  0  0  0  0  0  0  0  0  0  0
    7.5640  -16.4860   25.3297 C   0  0  0  0  0  0  0  0  0  0  0  0
    6.5491  -16.8488   24.6725 O   0  0  0  0  0  0  0  0  0  0  0  0
    7.6994  -16.9348   26.6145 O   0  0  0  0  0  0  0  0  0  0  0  0
  2  1  1  6
  3  2  1  0
  4  3  1  0
  5  2  1  0
  5  6  2  0
  7  5  1  0
  8  7  1  0
  9 10  1  0
  9  8  1  0
 10 11  1  0
 11  7  1  0
 11 12  1  1
 12 13  2  0
 12 19  1  0
 15 14  1  0
 16 17  1  0
 16 15  1  0
 18 17  1  1
 19 18  1  0
 20 18  1  0
 20 22  1  0
 21 20  2  0
M  END
$$$$
