TMK.pdb
     RDKit          3D

 25 24  0  0  1  0  0  0  0  0999 V2000
    6.9740  -17.0192   19.0883 C   0  0  0  0  0  0  0  0  0  0  0  0
    7.5553  -16.8381   20.4810 C   0  0  1  0  0  0  0  0  0  0  0  0
    8.2214  -17.9326   20.9516 O   0  0  0  0  0  0  0  0  0  0  0  0
    8.4264  -15.6301   20.5741 C   0  0  2  0  0  0  0  0  0  0  0  0
    9.4970  -15.7670   19.6236 N   0  0  0  0  0  0  0  0  0  0  0  0
    9.0232  -15.4004   21.9303 C   0  0  0  0  0  0  0  0  0  0  0  0
   10.1796  -15.7974   22.1895 O   0  0  0  0  0  0  0  0  0  0  0  0
    5.2735  -12.1735   26.1903 C   0  0  0  0  0  0  0  0  0  0  0  0
    6.9408  -11.6421   26.6403 S   0  0  0  0  0  0  0  0  0  0  0  0
    8.0643  -13.0673   26.3008 C   0  0  0  0  0  0  0  0  0  0  0  0
    7.8479  -13.4483   24.8778 C   0  0  0  0  0  0  0  0  0  0  0  0
    8.7305  -14.5049   24.3090 C   0  0  2  0  0  0  0  0  0  0  0  0
    8.3036  -14.7331   22.9410 N   0  0  0  0  0  0  0  0  0  0  0  0
    8.7746  -15.7253   25.0955 C   0  0  0  0  0  0  0  0  0  0  0  0
    7.9576  -16.6438   24.9296 O   0  0  0  0  0  0  0  0  0  0  0  0
    9.7330  -15.9988   26.1331 N   0  0  0  0  0  0  0  0  0  0  0  0
    9.9661  -17.3602   26.5492 C   0  0  1  0  0  0  0  0  0  0  0  0
   10.7012  -18.1865   25.5502 C   0  0  0  0  0  0  0  0  0  0  0  0
   10.9364  -19.6055   25.9998 C   0  0  0  0  0  0  0  0  0  0  0  0
   11.6113  -20.4065   24.9278 C   0  0  0  0  0  0  0  0  0  0  0  0
   11.7586  -21.8621   25.3048 C   0  0  0  0  0  0  0  0  0  0  0  0
   12.2594  -22.6282   24.1970 N   0  0  0  0  0  0  0  0  0  0  0  0
   10.6257  -17.4014   27.8935 C   0  0  0  0  0  0  0  0  0  0  0  0
   11.0281  -18.4193   28.4668 O   0  0  0  0  0  0  0  0  0  0  0  0
   10.7991  -16.1945   28.5469 O   0  0  0  0  0  0  0  0  0  0  0  0
  2  1  1  6
  3  2  1  0
  4  2  1  0
  4  6  1  0
  4  5  1  6
  6  7  2  0
  8  9  1  0
  9 10  1  0
 11 10  1  0
 12 11  1  1
 13  6  1  0
 13 12  1  0
 14 12  1  0
 14 15  2  0
 16 14  1  0
 17 16  1  0
 17 23  1  0
 17 18  1  6
 19 20  1  0
 19 18  1  0
 20 21  1  0
 21 22  1  0
 23 25  1  0
 24 23  2  0
M  END
$$$$
