TMK.pdb
     RDKit          3D

 25 24  0  0  1  0  0  0  0  0999 V2000
    7.1685  -16.5541   20.2421 C   0  0  0  0  0  0  0  0  0  0  0  0
    7.7556  -15.2627   19.6965 C   0  0  1  0  0  0  0  0  0  0  0  0
    7.3809  -14.9800   18.4148 O   0  0  0  0  0  0  0  0  0  0  0  0
    7.4691  -14.0964   20.5821 C   0  0  2  0  0  0  0  0  0  0  0  0
    7.9267  -12.9023   19.9240 N   0  0  0  0  0  0  0  0  0  0  0  0
    8.1163  -14.1709   21.9325 C   0  0  0  0  0  0  0  0  0  0  0  0
    9.3360  -13.9320   22.0650 O   0  0  0  0  0  0  0  0  0  0  0  0
    6.5789  -10.5279   27.0214 C   0  0  0  0  0  0  0  0  0  0  0  0
    7.1983  -12.2172   26.8562 S   0  0  0  0  0  0  0  0  0  0  0  0
    6.2621  -12.9948   25.4678 C   0  0  0  0  0  0  0  0  0  0  0  0
    6.7473  -14.3985   25.3628 C   0  0  0  0  0  0  0  0  0  0  0  0
    7.8791  -14.6650   24.4317 C   0  0  2  0  0  0  0  0  0  0  0  0
    7.3727  -14.5066   23.0810 N   0  0  0  0  0  0  0  0  0  0  0  0
    8.5290  -15.9469   24.6421 C   0  0  0  0  0  0  0  0  0  0  0  0
    7.9430  -17.0215   24.4409 O   0  0  0  0  0  0  0  0  0  0  0  0
    9.8811  -16.1155   25.1039 N   0  0  0  0  0  0  0  0  0  0  0  0
   10.4012  -17.4433   25.3214 C   0  0  1  0  0  0  0  0  0  0  0  0
   11.7378  -17.6834   24.7075 C   0  0  0  0  0  0  0  0  0  0  0  0
   11.6667  -18.1712   23.2834 C   0  0  0  0  0  0  0  0  0  0  0  0
   13.0372  -18.4112   22.7260 C   0  0  0  0  0  0  0  0  0  0  0  0
   12.9976  -18.9363   21.3099 C   0  0  0  0  0  0  0  0  0  0  0  0
   14.3165  -18.9686   20.7404 N   0  0  0  0  0  0  0  0  0  0  0  0
   10.3924  -17.7873   26.7792 C   0  0  0  0  0  0  0  0  0  0  0  0
   10.0359  -17.0367   27.6936 O   0  0  0  0  0  0  0  0  0  0  0  0
   10.8197  -19.0555   27.1294 O   0  0  0  0  0  0  0  0  0  0  0  0
  2  1  1  1
  3  2  1  0
  4  2  1  0
  4  6  1  0
  4  5  1  6
  6  7  2  0
  8  9  1  0
  9 10  1  0
 11 10  1  0
 12 11  1  1
 13  6  1  0
 13 12  1  0
 14 12  1  0
 14 15  2  0
 16 14  1  0
 17 16  1  0
 17 23  1  0
 17 18  1  1
 19 20  1  0
 19 18  1  0
 20 21  1  0
 21 22  1  0
 23 25  1  0
 24 23  2  0
M  END
$$$$
