TMK.pdb
     RDKit          3D

 25 24  0  0  1  0  0  0  0  0999 V2000
    6.6440  -17.3661   20.8534 C   0  0  0  0  0  0  0  0  0  0  0  0
    7.7581  -16.8407   19.9630 C   0  0  1  0  0  0  0  0  0  0  0  0
    7.5571  -17.0638   18.6315 O   0  0  0  0  0  0  0  0  0  0  0  0
    8.0351  -15.3942   20.2031 C   0  0  2  0  0  0  0  0  0  0  0  0
    8.9484  -14.9322   19.1928 N   0  0  0  0  0  0  0  0  0  0  0  0
    8.6240  -15.0917   21.5484 C   0  0  0  0  0  0  0  0  0  0  0  0
    9.8307  -15.3220   21.7785 O   0  0  0  0  0  0  0  0  0  0  0  0
    6.8807  -10.5319   26.5356 C   0  0  0  0  0  0  0  0  0  0  0  0
    6.0494  -12.1352   26.5935 S   0  0  0  0  0  0  0  0  0  0  0  0
    7.3054  -13.4040   26.1230 C   0  0  0  0  0  0  0  0  0  0  0  0
    7.1848  -13.5947   24.6513 C   0  0  0  0  0  0  0  0  0  0  0  0
    8.1595  -14.5114   23.9966 C   0  0  2  0  0  0  0  0  0  0  0  0
    7.8402  -14.5408   22.5813 N   0  0  0  0  0  0  0  0  0  0  0  0
    8.2147  -15.8367   24.5885 C   0  0  0  0  0  0  0  0  0  0  0  0
    7.5517  -16.7846   24.1405 O   0  0  0  0  0  0  0  0  0  0  0  0
    9.0106  -16.1916   25.7333 N   0  0  0  0  0  0  0  0  0  0  0  0
    9.8703  -17.3484   25.6745 C   0  0  1  0  0  0  0  0  0  0  0  0
   10.8188  -17.3462   24.5249 C   0  0  0  0  0  0  0  0  0  0  0  0
   11.8237  -18.4682   24.5720 C   0  0  0  0  0  0  0  0  0  0  0  0
   11.6293  -19.4154   23.4268 C   0  0  0  0  0  0  0  0  0  0  0  0
   12.6111  -20.5634   23.4577 C   0  0  0  0  0  0  0  0  0  0  0  0
   12.5176  -21.3474   22.2571 N   0  0  0  0  0  0  0  0  0  0  0  0
   10.5811  -17.5514   26.9773 C   0  0  0  0  0  0  0  0  0  0  0  0
   10.6475  -18.6150   27.6027 O   0  0  0  0  0  0  0  0  0  0  0  0
   11.2181  -16.4524   27.5249 O   0  0  0  0  0  0  0  0  0  0  0  0
  2  1  1  1
  3  2  1  0
  4  2  1  0
  4  6  1  0
  4  5  1  6
  6  7  2  0
  8  9  1  0
  9 10  1  0
 11 10  1  0
 12 11  1  1
 13  6  1  0
 13 12  1  0
 14 12  1  0
 14 15  2  0
 16 14  1  0
 17 16  1  0
 17 23  1  0
 17 18  1  6
 19 20  1  0
 19 18  1  0
 20 21  1  0
 21 22  1  0
 23 25  1  0
 24 23  2  0
M  END
$$$$
