TMK.pdb
     RDKit          3D

 25 24  0  0  1  0  0  0  0  0999 V2000
    7.1858  -16.5211   20.1792 C   0  0  0  0  0  0  0  0  0  0  0  0
    7.7641  -15.3290   19.4344 C   0  0  1  0  0  0  0  0  0  0  0  0
    7.3502  -15.2302   18.1375 O   0  0  0  0  0  0  0  0  0  0  0  0
    7.5147  -14.0437   20.1503 C   0  0  2  0  0  0  0  0  0  0  0  0
    7.9538  -12.9624   19.3098 N   0  0  0  0  0  0  0  0  0  0  0  0
    8.2096  -13.9274   21.4738 C   0  0  0  0  0  0  0  0  0  0  0  0
    9.4417  -13.7238   21.5272 O   0  0  0  0  0  0  0  0  0  0  0  0
    5.8637  -11.0431   26.7109 C   0  0  0  0  0  0  0  0  0  0  0  0
    5.8589  -12.7689   27.2461 S   0  0  0  0  0  0  0  0  0  0  0  0
    7.2823  -13.5914   26.4058 C   0  0  0  0  0  0  0  0  0  0  0  0
    7.0030  -13.5341   24.9445 C   0  0  0  0  0  0  0  0  0  0  0  0
    8.0544  -14.0511   24.0246 C   0  0  2  0  0  0  0  0  0  0  0  0
    7.4980  -14.0403   22.6844 N   0  0  0  0  0  0  0  0  0  0  0  0
    8.5851  -15.3492   24.4030 C   0  0  0  0  0  0  0  0  0  0  0  0
    7.8754  -16.3661   24.4321 O   0  0  0  0  0  0  0  0  0  0  0  0
    9.9493  -15.5979   24.7865 N   0  0  0  0  0  0  0  0  0  0  0  0
   10.3320  -16.9075   25.2548 C   0  0  1  0  0  0  0  0  0  0  0  0
   11.6739  -17.3553   24.7859 C   0  0  0  0  0  0  0  0  0  0  0  0
   11.6167  -18.4794   23.7838 C   0  0  0  0  0  0  0  0  0  0  0  0
   11.1856  -17.9810   22.4377 C   0  0  0  0  0  0  0  0  0  0  0  0
   10.9515  -19.1057   21.4564 C   0  0  0  0  0  0  0  0  0  0  0  0
   10.4903  -18.5950   20.1950 N   0  0  0  0  0  0  0  0  0  0  0  0
   10.2083  -16.9982   26.7448 C   0  0  0  0  0  0  0  0  0  0  0  0
   10.2131  -16.0416   27.5269 O   0  0  0  0  0  0  0  0  0  0  0  0
   10.0762  -18.2628   27.2898 O   0  0  0  0  0  0  0  0  0  0  0  0
  2  1  1  1
  3  2  1  0
  4  2  1  0
  4  6  1  0
  4  5  1  6
  6  7  2  0
  8  9  1  0
  9 10  1  0
 11 10  1  0
 12 11  1  1
 13  6  1  0
 13 12  1  0
 14 12  1  0
 14 15  2  0
 16 14  1  0
 17 16  1  0
 17 23  1  0
 17 18  1  1
 19 20  1  0
 19 18  1  0
 20 21  1  0
 21 22  1  0
 23 25  1  0
 24 23  2  0
M  END
$$$$
