TMK.pdb
     RDKit          3D

 25 24  0  0  1  0  0  0  0  0999 V2000
    6.5727  -16.9656   18.8261 C   0  0  0  0  0  0  0  0  0  0  0  0
    7.2279  -16.7248   20.1763 C   0  0  1  0  0  0  0  0  0  0  0  0
    8.3120  -17.5184   20.4171 O   0  0  0  0  0  0  0  0  0  0  0  0
    7.5885  -15.2910   20.3787 C   0  0  2  0  0  0  0  0  0  0  0  0
    8.5058  -14.9019   19.3415 N   0  0  0  0  0  0  0  0  0  0  0  0
    8.2196  -14.9929   21.7057 C   0  0  0  0  0  0  0  0  0  0  0  0
    9.4564  -15.0922   21.8561 O   0  0  0  0  0  0  0  0  0  0  0  0
    7.7288  -10.9641   27.1048 C   0  0  0  0  0  0  0  0  0  0  0  0
    6.2905  -12.0329   26.8734 S   0  0  0  0  0  0  0  0  0  0  0  0
    6.9349  -13.7036   26.4234 C   0  0  0  0  0  0  0  0  0  0  0  0
    6.7613  -13.8427   24.9512 C   0  0  0  0  0  0  0  0  0  0  0  0
    7.8939  -14.4260   24.1793 C   0  0  2  0  0  0  0  0  0  0  0  0
    7.4422  -14.5928   22.8104 N   0  0  0  0  0  0  0  0  0  0  0  0
    8.4287  -15.6508   24.7483 C   0  0  0  0  0  0  0  0  0  0  0  0
    7.7743  -16.7043   24.7733 O   0  0  0  0  0  0  0  0  0  0  0  0
    9.7337  -15.7791   25.3403 N   0  0  0  0  0  0  0  0  0  0  0  0
   10.1512  -17.0500   25.8801 C   0  0  1  0  0  0  0  0  0  0  0  0
   11.4497  -17.5450   25.3415 C   0  0  0  0  0  0  0  0  0  0  0  0
   11.2962  -18.5121   24.1960 C   0  0  0  0  0  0  0  0  0  0  0  0
   12.6290  -18.8782   23.6164 C   0  0  0  0  0  0  0  0  0  0  0  0
   12.5010  -19.7078   22.3602 C   0  0  0  0  0  0  0  0  0  0  0  0
   13.7770  -19.8615   21.7176 N   0  0  0  0  0  0  0  0  0  0  0  0
   10.1493  -17.0199   27.3777 C   0  0  0  0  0  0  0  0  0  0  0  0
    9.8828  -16.0369   28.0773 O   0  0  0  0  0  0  0  0  0  0  0  0
   10.4730  -18.1952   28.0315 O   0  0  0  0  0  0  0  0  0  0  0  0
  2  1  1  6
  3  2  1  0
  4  2  1  0
  4  6  1  0
  4  5  1  6
  6  7  2  0
  8  9  1  0
  9 10  1  0
 11 10  1  0
 12 11  1  1
 13  6  1  0
 13 12  1  0
 14 12  1  0
 14 15  2  0
 16 14  1  0
 17 16  1  0
 17 23  1  0
 17 18  1  6
 19 20  1  0
 19 18  1  0
 20 21  1  0
 21 22  1  0
 23 25  1  0
 24 23  2  0
M  END
$$$$
