TMK.pdb
     RDKit          3D

 25 24  0  0  1  0  0  0  0  0999 V2000
    8.1047  -15.1909   19.0668 C   0  0  0  0  0  0  0  0  0  0  0  0
    6.8792  -15.4604   19.9245 C   0  0  1  0  0  0  0  0  0  0  0  0
    5.8169  -15.9657   19.2322 O   0  0  0  0  0  0  0  0  0  0  0  0
    7.1913  -16.3352   21.0924 C   0  0  2  0  0  0  0  0  0  0  0  0
    5.9648  -16.6221   21.7864 N   0  0  0  0  0  0  0  0  0  0  0  0
    8.1608  -15.7406   22.0695 C   0  0  0  0  0  0  0  0  0  0  0  0
    9.3522  -15.5492   21.7437 O   0  0  0  0  0  0  0  0  0  0  0  0
    5.7871  -13.1114   27.5658 C   0  0  0  0  0  0  0  0  0  0  0  0
    6.6066  -11.9222   26.4800 S   0  0  0  0  0  0  0  0  0  0  0  0
    7.0615  -12.8324   24.9395 C   0  0  0  0  0  0  0  0  0  0  0  0
    7.6769  -14.1174   25.3722 C   0  0  0  0  0  0  0  0  0  0  0  0
    8.5868  -14.7999   24.4104 C   0  0  2  0  0  0  0  0  0  0  0  0
    7.7579  -15.3810   23.3707 N   0  0  0  0  0  0  0  0  0  0  0  0
    9.4790  -15.7675   25.0250 C   0  0  0  0  0  0  0  0  0  0  0  0
    9.0772  -16.8714   25.4233 O   0  0  0  0  0  0  0  0  0  0  0  0
   10.8855  -15.5617   25.2468 N   0  0  0  0  0  0  0  0  0  0  0  0
   11.8298  -16.5670   24.8241 C   0  0  1  0  0  0  0  0  0  0  0  0
   11.6443  -17.0261   23.4184 C   0  0  0  0  0  0  0  0  0  0  0  0
   11.1675  -18.4515   23.3092 C   0  0  0  0  0  0  0  0  0  0  0  0
   11.2690  -18.9480   21.8987 C   0  0  0  0  0  0  0  0  0  0  0  0
   10.8070  -20.3797   21.7589 C   0  0  0  0  0  0  0  0  0  0  0  0
   10.8028  -20.7823   20.3795 N   0  0  0  0  0  0  0  0  0  0  0  0
   13.2361  -16.1181   25.0782 C   0  0  0  0  0  0  0  0  0  0  0  0
   13.6308  -14.9472   25.0678 O   0  0  0  0  0  0  0  0  0  0  0  0
   14.1715  -17.1007   25.3486 O   0  0  0  0  0  0  0  0  0  0  0  0
  2  1  1  6
  3  2  1  0
  4  2  1  0
  4  6  1  0
  4  5  1  1
  6  7  2  0
  8  9  1  0
  9 10  1  0
 11 10  1  0
 12 11  1  1
 13  6  1  0
 13 12  1  0
 14 12  1  0
 14 15  2  0
 16 14  1  0
 17 16  1  0
 17 23  1  0
 17 18  1  6
 19 20  1  0
 19 18  1  0
 20 21  1  0
 21 22  1  0
 23 25  1  0
 24 23  2  0
M  END
$$$$
