TMK.pdb
     RDKit          3D

 25 24  0  0  1  0  0  0  0  0999 V2000
    7.1891  -16.4686   20.0670 C   0  0  0  0  0  0  0  0  0  0  0  0
    7.7733  -15.1933   19.4818 C   0  0  1  0  0  0  0  0  0  0  0  0
    7.3941  -14.9486   18.1936 O   0  0  0  0  0  0  0  0  0  0  0  0
    7.4889  -14.0017   20.3338 C   0  0  2  0  0  0  0  0  0  0  0  0
    7.9489  -12.8278   19.6419 N   0  0  0  0  0  0  0  0  0  0  0  0
    8.1359  -14.0390   21.6858 C   0  0  0  0  0  0  0  0  0  0  0  0
    9.3450  -13.7509   21.8183 O   0  0  0  0  0  0  0  0  0  0  0  0
    5.6964  -10.4631   26.8748 C   0  0  0  0  0  0  0  0  0  0  0  0
    6.1704  -12.2067   26.8722 S   0  0  0  0  0  0  0  0  0  0  0  0
    6.3389  -12.7105   25.1040 C   0  0  0  0  0  0  0  0  0  0  0  0
    6.7913  -14.1290   25.1084 C   0  0  0  0  0  0  0  0  0  0  0  0
    7.9078  -14.4954   24.1930 C   0  0  2  0  0  0  0  0  0  0  0  0
    7.4039  -14.3940   22.8360 N   0  0  0  0  0  0  0  0  0  0  0  0
    8.5045  -15.7891   24.4762 C   0  0  0  0  0  0  0  0  0  0  0  0
    7.8603  -16.8449   24.3808 O   0  0  0  0  0  0  0  0  0  0  0  0
    9.8654  -15.9907   24.8973 N   0  0  0  0  0  0  0  0  0  0  0  0
   10.3079  -17.3105   25.2756 C   0  0  1  0  0  0  0  0  0  0  0  0
   11.5445  -17.7630   24.5776 C   0  0  0  0  0  0  0  0  0  0  0  0
   11.4068  -17.8065   23.0775 C   0  0  0  0  0  0  0  0  0  0  0  0
   12.7094  -18.1599   22.4260 C   0  0  0  0  0  0  0  0  0  0  0  0
   12.5997  -18.2252   20.9205 C   0  0  0  0  0  0  0  0  0  0  0  0
   13.8670  -18.5574   20.3302 N   0  0  0  0  0  0  0  0  0  0  0  0
   10.4403  -17.4225   26.7634 C   0  0  0  0  0  0  0  0  0  0  0  0
   10.2616  -16.5061   27.5728 O   0  0  0  0  0  0  0  0  0  0  0  0
   10.7921  -18.6595   27.2728 O   0  0  0  0  0  0  0  0  0  0  0  0
  2  1  1  1
  3  2  1  0
  4  2  1  0
  4  6  1  0
  4  5  1  6
  6  7  2  0
  8  9  1  0
  9 10  1  0
 11 10  1  0
 12 11  1  1
 13  6  1  0
 13 12  1  0
 14 12  1  0
 14 15  2  0
 16 14  1  0
 17 16  1  0
 17 23  1  0
 17 18  1  6
 19 20  1  0
 19 18  1  0
 20 21  1  0
 21 22  1  0
 23 25  1  0
 24 23  2  0
M  END
$$$$
