TMK.pdb
     RDKit          3D

 25 24  0  0  1  0  0  0  0  0999 V2000
    6.9022  -18.2188   20.0141 C   0  0  0  0  0  0  0  0  0  0  0  0
    7.5957  -17.4608   21.1342 C   0  0  1  0  0  0  0  0  0  0  0  0
    8.8701  -17.8812   21.3835 O   0  0  0  0  0  0  0  0  0  0  0  0
    7.5785  -15.9856   20.9098 C   0  0  2  0  0  0  0  0  0  0  0  0
    8.1667  -15.7140   19.6258 N   0  0  0  0  0  0  0  0  0  0  0  0
    8.3169  -15.1932   21.9465 C   0  0  0  0  0  0  0  0  0  0  0  0
    9.5264  -14.9183   21.7919 O   0  0  0  0  0  0  0  0  0  0  0  0
    5.4065  -10.8991   26.0443 C   0  0  0  0  0  0  0  0  0  0  0  0
    6.0166  -12.2198   27.1158 S   0  0  0  0  0  0  0  0  0  0  0  0
    7.5803  -12.8424   26.3570 C   0  0  0  0  0  0  0  0  0  0  0  0
    7.1934  -13.5393   25.0994 C   0  0  0  0  0  0  0  0  0  0  0  0
    8.2905  -14.0855   24.2527 C   0  0  2  0  0  0  0  0  0  0  0  0
    7.6721  -14.7373   23.1132 N   0  0  0  0  0  0  0  0  0  0  0  0
    9.2117  -14.9533   24.9656 C   0  0  0  0  0  0  0  0  0  0  0  0
    9.7981  -14.5852   25.9949 O   0  0  0  0  0  0  0  0  0  0  0  0
    9.5495  -16.2943   24.5686 N   0  0  0  0  0  0  0  0  0  0  0  0
   10.4088  -17.0926   25.4084 C   0  0  1  0  0  0  0  0  0  0  0  0
    9.9047  -18.4722   25.6611 C   0  0  0  0  0  0  0  0  0  0  0  0
   10.7974  -19.2825   26.5653 C   0  0  0  0  0  0  0  0  0  0  0  0
   10.2505  -20.6631   26.7676 C   0  0  0  0  0  0  0  0  0  0  0  0
   11.0719  -21.4687   27.7470 C   0  0  0  0  0  0  0  0  0  0  0  0
   10.4145  -22.7054   28.0686 N   0  0  0  0  0  0  0  0  0  0  0  0
   11.8102  -17.1043   24.8794 C   0  0  0  0  0  0  0  0  0  0  0  0
   12.1309  -17.0183   23.6893 O   0  0  0  0  0  0  0  0  0  0  0  0
   12.8315  -17.2203   25.8051 O   0  0  0  0  0  0  0  0  0  0  0  0
  2  1  1  6
  3  2  1  0
  4  2  1  0
  4  6  1  0
  4  5  1  6
  6  7  2  0
  8  9  1  0
  9 10  1  0
 11 10  1  0
 12 11  1  1
 13  6  1  0
 13 12  1  0
 14 12  1  0
 14 15  2  0
 16 14  1  0
 17 16  1  0
 17 23  1  0
 17 18  1  6
 19 20  1  0
 19 18  1  0
 20 21  1  0
 21 22  1  0
 23 25  1  0
 24 23  2  0
M  END
$$$$
