TMK.pdb
     RDKit          3D

 25 24  0  0  1  0  0  0  0  0999 V2000
    6.8369  -14.7555   17.8860 C   0  0  0  0  0  0  0  0  0  0  0  0
    7.4230  -14.8811   19.2828 C   0  0  1  0  0  0  0  0  0  0  0  0
    8.5981  -15.5737   19.3321 O   0  0  0  0  0  0  0  0  0  0  0  0
    7.5831  -13.5543   19.9469 C   0  0  2  0  0  0  0  0  0  0  0  0
    8.4354  -12.7355   19.1274 N   0  0  0  0  0  0  0  0  0  0  0  0
    8.1703  -13.6188   21.3249 C   0  0  0  0  0  0  0  0  0  0  0  0
    9.4088  -13.6727   21.4844 O   0  0  0  0  0  0  0  0  0  0  0  0
    7.5367  -11.8964   28.4703 C   0  0  0  0  0  0  0  0  0  0  0  0
    6.5185  -11.9261   26.9779 S   0  0  0  0  0  0  0  0  0  0  0  0
    6.7867  -13.5704   26.1823 C   0  0  0  0  0  0  0  0  0  0  0  0
    6.6423  -13.3604   24.7153 C   0  0  0  0  0  0  0  0  0  0  0  0
    7.7720  -13.7932   23.8463 C   0  0  2  0  0  0  0  0  0  0  0  0
    7.3488  -13.6172   22.4694 N   0  0  0  0  0  0  0  0  0  0  0  0
    8.2480  -15.1378   24.1210 C   0  0  0  0  0  0  0  0  0  0  0  0
    7.5266  -16.1348   23.9654 O   0  0  0  0  0  0  0  0  0  0  0  0
    9.5657  -15.4598   24.6004 N   0  0  0  0  0  0  0  0  0  0  0  0
    9.9022  -16.8307   24.8979 C   0  0  1  0  0  0  0  0  0  0  0  0
   11.0407  -17.3668   24.0994 C   0  0  0  0  0  0  0  0  0  0  0  0
   10.8654  -17.1963   22.6123 C   0  0  0  0  0  0  0  0  0  0  0  0
   11.9924  -17.8358   21.8592 C   0  0  0  0  0  0  0  0  0  0  0  0
   11.8091  -17.7424   20.3623 C   0  0  0  0  0  0  0  0  0  0  0  0
   12.8881  -18.3959   19.6742 N   0  0  0  0  0  0  0  0  0  0  0  0
   10.1205  -17.0193   26.3677 C   0  0  0  0  0  0  0  0  0  0  0  0
   10.0697  -16.1289   27.2229 O   0  0  0  0  0  0  0  0  0  0  0  0
   10.4020  -18.3018   26.8030 O   0  0  0  0  0  0  0  0  0  0  0  0
  2  1  1  6
  3  2  1  0
  4  2  1  0
  4  6  1  0
  4  5  1  6
  6  7  2  0
  8  9  1  0
  9 10  1  0
 11 10  1  0
 12 11  1  1
 13  6  1  0
 13 12  1  0
 14 12  1  0
 14 15  2  0
 16 14  1  0
 17 16  1  0
 17 23  1  0
 17 18  1  6
 19 20  1  0
 19 18  1  0
 20 21  1  0
 21 22  1  0
 23 25  1  0
 24 23  2  0
M  END
$$$$
