TMK.pdb
     RDKit          3D

 25 24  0  0  1  0  0  0  0  0999 V2000
    7.0393  -18.0420   21.1373 C   0  0  0  0  0  0  0  0  0  0  0  0
    7.9314  -17.4405   20.0637 C   0  0  1  0  0  0  0  0  0  0  0  0
    7.5716  -17.7756   18.7905 O   0  0  0  0  0  0  0  0  0  0  0  0
    8.0424  -15.9578   20.1904 C   0  0  2  0  0  0  0  0  0  0  0  0
    8.8215  -15.4641   19.0870 N   0  0  0  0  0  0  0  0  0  0  0  0
    8.6782  -15.4914   21.4657 C   0  0  0  0  0  0  0  0  0  0  0  0
    9.9106  -15.6070   21.6389 O   0  0  0  0  0  0  0  0  0  0  0  0
    6.3192  -11.7488   28.0395 C   0  0  0  0  0  0  0  0  0  0  0  0
    6.0282  -12.3266   26.3524 S   0  0  0  0  0  0  0  0  0  0  0  0
    7.4544  -13.4112   25.9070 C   0  0  0  0  0  0  0  0  0  0  0  0
    7.2885  -13.7610   24.4693 C   0  0  0  0  0  0  0  0  0  0  0  0
    8.3565  -14.5840   23.8362 C   0  0  2  0  0  0  0  0  0  0  0  0
    7.9104  -14.9116   22.4948 N   0  0  0  0  0  0  0  0  0  0  0  0
    8.7338  -15.7568   24.6057 C   0  0  0  0  0  0  0  0  0  0  0  0
    7.9845  -16.7393   24.7160 O   0  0  0  0  0  0  0  0  0  0  0  0
    9.9757  -15.9076   25.3161 N   0  0  0  0  0  0  0  0  0  0  0  0
   10.3009  -17.1742   25.9251 C   0  0  1  0  0  0  0  0  0  0  0  0
   11.4357  -17.8900   25.2764 C   0  0  0  0  0  0  0  0  0  0  0  0
   11.8001  -19.1833   25.9589 C   0  0  0  0  0  0  0  0  0  0  0  0
   12.9565  -19.8474   25.2750 C   0  0  0  0  0  0  0  0  0  0  0  0
   13.3618  -21.1358   25.9521 C   0  0  0  0  0  0  0  0  0  0  0  0
   14.5157  -21.7069   25.3140 N   0  0  0  0  0  0  0  0  0  0  0  0
   10.5164  -17.0174   27.3992 C   0  0  0  0  0  0  0  0  0  0  0  0
   10.5160  -15.9472   28.0167 O   0  0  0  0  0  0  0  0  0  0  0  0
   10.7331  -18.1717   28.1301 O   0  0  0  0  0  0  0  0  0  0  0  0
  2  1  1  1
  3  2  1  0
  4  2  1  0
  4  6  1  0
  4  5  1  6
  6  7  2  0
  8  9  1  0
  9 10  1  0
 11 10  1  0
 12 11  1  1
 13  6  1  0
 13 12  1  0
 14 12  1  0
 14 15  2  0
 16 14  1  0
 17 16  1  0
 17 23  1  0
 17 18  1  6
 19 20  1  0
 19 18  1  0
 20 21  1  0
 21 22  1  0
 23 25  1  0
 24 23  2  0
M  END
$$$$
