TMK.pdb
     RDKit          3D

 25 24  0  0  1  0  0  0  0  0999 V2000
    7.5271  -18.5275   21.1858 C   0  0  0  0  0  0  0  0  0  0  0  0
    8.3778  -17.8429   20.1286 C   0  0  1  0  0  0  0  0  0  0  0  0
    8.1535  -18.2912   18.8590 O   0  0  0  0  0  0  0  0  0  0  0  0
    8.2470  -16.3572   20.1769 C   0  0  2  0  0  0  0  0  0  0  0  0
    8.8577  -15.8083   18.9961 N   0  0  0  0  0  0  0  0  0  0  0  0
    8.8788  -15.7189   21.3775 C   0  0  0  0  0  0  0  0  0  0  0  0
   10.1225  -15.6364   21.4709 O   0  0  0  0  0  0  0  0  0  0  0  0
    6.5836  -11.2287   27.4415 C   0  0  0  0  0  0  0  0  0  0  0  0
    6.2054  -12.1944   25.9619 S   0  0  0  0  0  0  0  0  0  0  0  0
    7.7048  -13.2044   25.5871 C   0  0  0  0  0  0  0  0  0  0  0  0
    7.4598  -13.8548   24.2703 C   0  0  0  0  0  0  0  0  0  0  0  0
    8.5699  -14.6570   23.6847 C   0  0  2  0  0  0  0  0  0  0  0  0
    8.0941  -15.1958   22.4240 N   0  0  0  0  0  0  0  0  0  0  0  0
    9.0921  -15.6810   24.5728 C   0  0  0  0  0  0  0  0  0  0  0  0
    8.5543  -16.7935   24.6810 O   0  0  0  0  0  0  0  0  0  0  0  0
   10.2504  -15.5265   25.4120 N   0  0  0  0  0  0  0  0  0  0  0  0
   10.8758  -16.6919   25.9877 C   0  0  1  0  0  0  0  0  0  0  0  0
    9.9153  -17.7081   26.5033 C   0  0  0  0  0  0  0  0  0  0  0  0
   10.5795  -18.8501   27.2284 C   0  0  0  0  0  0  0  0  0  0  0  0
   10.5891  -18.6168   28.7089 C   0  0  0  0  0  0  0  0  0  0  0  0
   11.3774  -19.6702   29.4515 C   0  0  0  0  0  0  0  0  0  0  0  0
   11.4945  -19.3335   30.8435 N   0  0  0  0  0  0  0  0  0  0  0  0
   11.8599  -17.2955   25.0332 C   0  0  0  0  0  0  0  0  0  0  0  0
   11.6216  -18.2085   24.2355 O   0  0  0  0  0  0  0  0  0  0  0  0
   13.1452  -16.7842   25.0470 O   0  0  0  0  0  0  0  0  0  0  0  0
  2  1  1  1
  3  2  1  0
  4  2  1  0
  4  6  1  0
  4  5  1  6
  6  7  2  0
  8  9  1  0
  9 10  1  0
 11 10  1  0
 12 11  1  1
 13  6  1  0
 13 12  1  0
 14 12  1  0
 14 15  2  0
 16 14  1  0
 17 16  1  0
 17 23  1  0
 17 18  1  6
 19 20  1  0
 19 18  1  0
 20 21  1  0
 21 22  1  0
 23 25  1  0
 24 23  2  0
M  END
$$$$
