TMK.pdb
     RDKit          3D

 25 24  0  0  1  0  0  0  0  0999 V2000
    7.2722  -17.9654   19.1945 C   0  0  0  0  0  0  0  0  0  0  0  0
    7.7968  -17.5428   20.5570 C   0  0  1  0  0  0  0  0  0  0  0  0
    8.8222  -18.3147   21.0213 O   0  0  0  0  0  0  0  0  0  0  0  0
    8.1862  -16.1026   20.5878 C   0  0  2  0  0  0  0  0  0  0  0  0
    9.2664  -15.9036   19.6594 N   0  0  0  0  0  0  0  0  0  0  0  0
    8.6215  -15.6078   21.9345 C   0  0  0  0  0  0  0  0  0  0  0  0
    9.8139  -15.7141   22.2940 O   0  0  0  0  0  0  0  0  0  0  0  0
    7.6366  -11.2719   27.8126 C   0  0  0  0  0  0  0  0  0  0  0  0
    7.5739  -11.8388   26.0981 S   0  0  0  0  0  0  0  0  0  0  0  0
    6.7207  -13.4761   26.1090 C   0  0  0  0  0  0  0  0  0  0  0  0
    6.7152  -13.9609   24.7012 C   0  0  0  0  0  0  0  0  0  0  0  0
    7.9704  -14.5721   24.1817 C   0  0  2  0  0  0  0  0  0  0  0  0
    7.7063  -15.0110   22.8239 N   0  0  0  0  0  0  0  0  0  0  0  0
    8.5045  -15.6304   25.0211 C   0  0  0  0  0  0  0  0  0  0  0  0
    7.9484  -16.7348   25.1196 O   0  0  0  0  0  0  0  0  0  0  0  0
    9.6964  -15.5219   25.8195 N   0  0  0  0  0  0  0  0  0  0  0  0
   10.2206  -16.6907   26.4828 C   0  0  1  0  0  0  0  0  0  0  0  0
   11.4808  -17.2174   25.8865 C   0  0  0  0  0  0  0  0  0  0  0  0
   12.0224  -18.4299   26.5988 C   0  0  0  0  0  0  0  0  0  0  0  0
   13.2623  -18.9403   25.9292 C   0  0  0  0  0  0  0  0  0  0  0  0
   13.7936  -20.1946   26.5828 C   0  0  0  0  0  0  0  0  0  0  0  0
   14.9593  -20.6750   25.8936 N   0  0  0  0  0  0  0  0  0  0  0  0
   10.3637  -16.4496   27.9542 C   0  0  0  0  0  0  0  0  0  0  0  0
   10.3782  -17.3226   28.8285 O   0  0  0  0  0  0  0  0  0  0  0  0
   10.4916  -15.1356   28.3674 O   0  0  0  0  0  0  0  0  0  0  0  0
  2  1  1  6
  3  2  1  0
  4  2  1  0
  4  6  1  0
  4  5  1  6
  6  7  2  0
  8  9  1  0
  9 10  1  0
 11 10  1  0
 12 11  1  1
 13  6  1  0
 13 12  1  0
 14 12  1  0
 14 15  2  0
 16 14  1  0
 17 16  1  0
 17 23  1  0
 17 18  1  6
 19 20  1  0
 19 18  1  0
 20 21  1  0
 21 22  1  0
 23 25  1  0
 24 23  2  0
M  END
$$$$
