TMK.pdb
     RDKit          3D

 25 24  0  0  1  0  0  0  0  0999 V2000
    6.6228  -14.3847   17.8386 C   0  0  0  0  0  0  0  0  0  0  0  0
    7.3198  -14.6380   19.1653 C   0  0  1  0  0  0  0  0  0  0  0  0
    8.4788  -15.3508   19.0569 O   0  0  0  0  0  0  0  0  0  0  0  0
    7.5648  -13.3754   19.9220 C   0  0  2  0  0  0  0  0  0  0  0  0
    8.4358  -12.5389   19.1410 N   0  0  0  0  0  0  0  0  0  0  0  0
    8.1842  -13.5737   21.2730 C   0  0  0  0  0  0  0  0  0  0  0  0
    9.4220  -13.7020   21.3903 O   0  0  0  0  0  0  0  0  0  0  0  0
    7.2908  -10.8872   26.7285 C   0  0  0  0  0  0  0  0  0  0  0  0
    6.2171  -12.3020   27.0606 S   0  0  0  0  0  0  0  0  0  0  0  0
    6.9442  -13.7443   26.1663 C   0  0  0  0  0  0  0  0  0  0  0  0
    6.7474  -13.4855   24.7133 C   0  0  0  0  0  0  0  0  0  0  0  0
    7.8517  -13.8736   23.7920 C   0  0  2  0  0  0  0  0  0  0  0  0
    7.3946  -13.6174   22.4389 N   0  0  0  0  0  0  0  0  0  0  0  0
    8.3262  -15.2339   23.9774 C   0  0  0  0  0  0  0  0  0  0  0  0
    7.6684  -16.2162   23.6018 O   0  0  0  0  0  0  0  0  0  0  0  0
    9.5693  -15.5907   24.6077 N   0  0  0  0  0  0  0  0  0  0  0  0
    9.9254  -16.9815   24.7484 C   0  0  1  0  0  0  0  0  0  0  0  0
   11.1537  -17.3757   24.0020 C   0  0  0  0  0  0  0  0  0  0  0  0
   11.5961  -18.7900   24.2760 C   0  0  0  0  0  0  0  0  0  0  0  0
   12.7956  -19.1494   23.4525 C   0  0  0  0  0  0  0  0  0  0  0  0
   13.1951  -20.5968   23.6205 C   0  0  0  0  0  0  0  0  0  0  0  0
   14.4565  -20.8555   22.9826 N   0  0  0  0  0  0  0  0  0  0  0  0
   10.0089  -17.3670   26.1934 C   0  0  0  0  0  0  0  0  0  0  0  0
    9.9734  -16.5856   27.1499 O   0  0  0  0  0  0  0  0  0  0  0  0
   10.1356  -18.7145   26.4792 O   0  0  0  0  0  0  0  0  0  0  0  0
  2  1  1  6
  3  2  1  0
  4  2  1  0
  4  6  1  0
  4  5  1  6
  6  7  2  0
  8  9  1  0
  9 10  1  0
 11 10  1  0
 12 11  1  1
 13  6  1  0
 13 12  1  0
 14 12  1  0
 14 15  2  0
 16 14  1  0
 17 16  1  0
 17 23  1  0
 17 18  1  1
 19 20  1  0
 19 18  1  0
 20 21  1  0
 21 22  1  0
 23 25  1  0
 24 23  2  0
M  END
$$$$
