LYG.pdb
     RDKit          3D

 25 25  0  0  1  0  0  0  0  0999 V2000
   25.2743  -24.6149  -18.3786 C   0  0  0  0  0  0  0  0  0  0  0  0
   26.5062  -24.3827  -17.5737 C   0  0  2  0  0  0  0  0  0  0  0  0
   27.4091  -25.6118  -17.6844 C   0  0  0  0  0  0  0  0  0  0  0  0
   26.2425  -24.1677  -16.1031 C   0  0  0  0  0  0  0  0  0  0  0  0
   25.3464  -22.9975  -15.8317 C   0  0  2  0  0  0  0  0  0  0  0  0
   25.8111  -21.7715  -16.4103 N   0  0  0  0  0  0  0  0  0  0  0  0
   25.2682  -22.8218  -14.3577 C   0  0  0  0  0  0  0  0  0  0  0  0
   24.8946  -23.7780  -13.5976 O   0  0  0  0  0  0  0  0  0  0  0  0
   26.5080  -19.6480   -6.1672 O   0  0  0  0  0  0  0  0  0  0  0  0
   26.5463  -19.9128   -7.5306 C   0  0  0  0  0  0  0  0  0  0  0  0
   26.9140  -21.1492   -7.9997 C   0  0  0  0  0  0  0  0  0  0  0  0
   26.9558  -21.4263   -9.3703 C   0  0  0  0  0  0  0  0  0  0  0  0
   26.6291  -20.4664  -10.2979 C   0  0  0  0  0  0  0  0  0  0  0  0
   26.6640  -20.7138  -11.7585 C   0  0  0  0  0  0  0  0  0  0  0  0
   25.4706  -21.4682  -12.2742 C   0  0  2  0  0  0  0  0  0  0  0  0
   25.5957  -21.6092  -13.7123 N   0  0  0  0  0  0  0  0  0  0  0  0
   24.1859  -20.8266  -11.9145 C   0  0  0  0  0  0  0  0  0  0  0  0
   23.8201  -20.6650  -10.7293 O   0  0  0  0  0  0  0  0  0  0  0  0
   26.2580  -19.2175   -9.8108 C   0  0  0  0  0  0  0  0  0  0  0  0
   26.2168  -18.9448   -8.4611 C   0  0  0  0  0  0  0  0  0  0  0  0
   23.3231  -20.3705  -12.9599 N   0  0  0  0  0  0  0  0  0  0  0  0
   22.0848  -19.6970  -12.6969 C   0  0  0  0  0  0  0  0  0  0  0  0
   20.9278  -20.5885  -12.8018 C   0  0  0  0  0  0  0  0  0  0  0  0
   19.6492  -20.0979  -12.5983 O   0  0  0  0  0  0  0  0  0  0  0  0
   21.0755  -21.7992  -13.0751 O   0  0  0  0  0  0  0  0  0  0  0  0
  2  1  1  6
  2  3  1  0
  4  5  1  0
  4  2  1  0
  5  7  1  0
  5  6  1  6
  7  8  2  0
  9 10  1  0
 10 11  2  0
 10 20  1  0
 11 12  1  0
 12 13  2  0
 13 14  1  0
 15 14  1  6
 16  7  1  0
 16 15  1  0
 17 15  1  0
 17 18  2  0
 19 13  1  0
 20 19  2  0
 21 22  1  0
 21 17  1  0
 23 22  1  0
 24 23  1  0
 25 23  2  0
M  END
$$$$
