LYG.pdb
     RDKit          3D

 25 25  0  0  1  0  0  0  0  0999 V2000
   24.7878  -16.5115  -15.5110 C   0  0  0  0  0  0  0  0  0  0  0  0
   25.6809  -15.6013  -16.2813 C   0  0  2  0  0  0  0  0  0  0  0  0
   27.0675  -16.2377  -16.3836 C   0  0  0  0  0  0  0  0  0  0  0  0
   25.8699  -14.2472  -15.6417 C   0  0  0  0  0  0  0  0  0  0  0  0
   24.5831  -13.5042  -15.4471 C   0  0  2  0  0  0  0  0  0  0  0  0
   23.7078  -13.5645  -16.5802 N   0  0  0  0  0  0  0  0  0  0  0  0
   24.9195  -12.0797  -15.1881 C   0  0  0  0  0  0  0  0  0  0  0  0
   25.6782  -11.7465  -14.2160 O   0  0  0  0  0  0  0  0  0  0  0  0
   30.4060  -11.8123  -18.1740 O   0  0  0  0  0  0  0  0  0  0  0  0
   29.2195  -11.1535  -17.8763 C   0  0  0  0  0  0  0  0  0  0  0  0
   29.1711  -10.1944  -16.8956 C   0  0  0  0  0  0  0  0  0  0  0  0
   27.9818   -9.5252  -16.5881 C   0  0  0  0  0  0  0  0  0  0  0  0
   26.8163   -9.8061  -17.2597 C   0  0  0  0  0  0  0  0  0  0  0  0
   25.5332   -9.1262  -16.9642 C   0  0  0  0  0  0  0  0  0  0  0  0
   24.8379   -9.6498  -15.7388 C   0  0  2  0  0  0  0  0  0  0  0  0
   24.4319  -11.0204  -15.9846 N   0  0  0  0  0  0  0  0  0  0  0  0
   23.6812   -8.8188  -15.3353 C   0  0  0  0  0  0  0  0  0  0  0  0
   23.7745   -7.5902  -15.1199 O   0  0  0  0  0  0  0  0  0  0  0  0
   26.8774  -10.7796  -18.2514 C   0  0  0  0  0  0  0  0  0  0  0  0
   28.0487  -11.4385  -18.5541 C   0  0  0  0  0  0  0  0  0  0  0  0
   22.4018   -9.4396  -15.1839 N   0  0  0  0  0  0  0  0  0  0  0  0
   21.2406   -8.7153  -14.7559 C   0  0  0  0  0  0  0  0  0  0  0  0
   20.6584   -7.9044  -15.8273 C   0  0  0  0  0  0  0  0  0  0  0  0
   19.5712   -7.0866  -15.5702 O   0  0  0  0  0  0  0  0  0  0  0  0
   21.1312   -7.9375  -16.9839 O   0  0  0  0  0  0  0  0  0  0  0  0
  2  1  1  1
  2  3  1  0
  4  5  1  0
  4  2  1  0
  5  7  1  0
  5  6  1  6
  7  8  2  0
  9 10  1  0
 10 11  2  0
 10 20  1  0
 11 12  1  0
 12 13  2  0
 13 14  1  0
 15 14  1  6
 16  7  1  0
 16 15  1  0
 17 15  1  0
 17 18  2  0
 19 13  1  0
 20 19  2  0
 21 22  1  0
 21 17  1  0
 23 22  1  0
 24 23  1  0
 25 23  2  0
M  END
$$$$
