LYG.pdb
     RDKit          3D

 25 25  0  0  1  0  0  0  0  0999 V2000
   19.5590  -21.7851  -16.2595 C   0  0  0  0  0  0  0  0  0  0  0  0
   19.8278  -20.4498  -16.8630 C   0  0  2  0  0  0  0  0  0  0  0  0
   19.7223  -20.5635  -18.3842 C   0  0  0  0  0  0  0  0  0  0  0  0
   21.2050  -19.9103  -16.5616 C   0  0  0  0  0  0  0  0  0  0  0  0
   21.5306  -19.9140  -15.0987 C   0  0  2  0  0  0  0  0  0  0  0  0
   20.7952  -18.9427  -14.3440 N   0  0  0  0  0  0  0  0  0  0  0  0
   22.9806  -19.6187  -14.9588 C   0  0  0  0  0  0  0  0  0  0  0  0
   23.4754  -18.5213  -15.3861 O   0  0  0  0  0  0  0  0  0  0  0  0
   22.5387  -21.1990   -8.5690 O   0  0  0  0  0  0  0  0  0  0  0  0
   23.2902  -20.7802   -9.6599 C   0  0  0  0  0  0  0  0  0  0  0  0
   24.5705  -21.2360   -9.8524 C   0  0  0  0  0  0  0  0  0  0  0  0
   25.3356  -20.8207  -10.9474 C   0  0  0  0  0  0  0  0  0  0  0  0
   24.8299  -19.9385  -11.8717 C   0  0  0  0  0  0  0  0  0  0  0  0
   25.6055  -19.4678  -13.0433 C   0  0  0  0  0  0  0  0  0  0  0  0
   25.3101  -20.2230  -14.3090 C   0  0  2  0  0  0  0  0  0  0  0  0
   23.8902  -20.5148  -14.3555 N   0  0  0  0  0  0  0  0  0  0  0  0
   26.1102  -21.4618  -14.4388 C   0  0  0  0  0  0  0  0  0  0  0  0
   25.8574  -22.5004  -13.7891 O   0  0  0  0  0  0  0  0  0  0  0  0
   23.5316  -19.4835  -11.6665 C   0  0  0  0  0  0  0  0  0  0  0  0
   22.7782  -19.8926  -10.5882 C   0  0  0  0  0  0  0  0  0  0  0  0
   27.2187  -21.4787  -15.3421 N   0  0  0  0  0  0  0  0  0  0  0  0
   27.4524  -22.5606  -16.2536 C   0  0  0  0  0  0  0  0  0  0  0  0
   28.5751  -22.3007  -17.1572 C   0  0  0  0  0  0  0  0  0  0  0  0
   29.0878  -23.3190  -17.9427 O   0  0  0  0  0  0  0  0  0  0  0  0
   29.0851  -21.1621  -17.2330 O   0  0  0  0  0  0  0  0  0  0  0  0
  2  1  1  1
  2  3  1  0
  4  5  1  0
  4  2  1  0
  5  7  1  0
  5  6  1  1
  7  8  2  0
  9 10  1  0
 10 11  2  0
 10 20  1  0
 11 12  1  0
 12 13  2  0
 13 14  1  0
 15 14  1  1
 16  7  1  0
 16 15  1  0
 17 15  1  0
 17 18  2  0
 19 13  1  0
 20 19  2  0
 21 22  1  0
 21 17  1  0
 23 22  1  0
 24 23  1  0
 25 23  2  0
M  END
$$$$
