LYG.pdb
     RDKit          3D

 25 25  0  0  1  0  0  0  0  0999 V2000
   26.9443  -20.5518  -19.5282 C   0  0  0  0  0  0  0  0  0  0  0  0
   25.8599  -21.5680  -19.4224 C   0  0  2  0  0  0  0  0  0  0  0  0
   24.6106  -21.0340  -20.1239 C   0  0  0  0  0  0  0  0  0  0  0  0
   25.4589  -21.8863  -18.0024 C   0  0  0  0  0  0  0  0  0  0  0  0
   26.6081  -22.3417  -17.1551 C   0  0  2  0  0  0  0  0  0  0  0  0
   27.0784  -23.6552  -17.4825 N   0  0  0  0  0  0  0  0  0  0  0  0
   26.1519  -22.3447  -15.7404 C   0  0  0  0  0  0  0  0  0  0  0  0
   25.5239  -23.3436  -15.2512 O   0  0  0  0  0  0  0  0  0  0  0  0
   25.3373  -20.5177   -7.1209 O   0  0  0  0  0  0  0  0  0  0  0  0
   25.6971  -20.5198   -8.4628 C   0  0  0  0  0  0  0  0  0  0  0  0
   26.5758  -21.4514   -8.9569 C   0  0  0  0  0  0  0  0  0  0  0  0
   26.9447  -21.4622  -10.3062 C   0  0  0  0  0  0  0  0  0  0  0  0
   26.4383  -20.5368  -11.1870 C   0  0  0  0  0  0  0  0  0  0  0  0
   26.8047  -20.5076  -12.6226 C   0  0  0  0  0  0  0  0  0  0  0  0
   25.8648  -21.2818  -13.5039 C   0  0  2  0  0  0  0  0  0  0  0  0
   26.3784  -21.2638  -14.8602 N   0  0  0  0  0  0  0  0  0  0  0  0
   24.4774  -20.7677  -13.4558 C   0  0  0  0  0  0  0  0  0  0  0  0
   24.1598  -19.6390  -13.8916 O   0  0  0  0  0  0  0  0  0  0  0  0
   25.5489  -19.5979  -10.6751 C   0  0  0  0  0  0  0  0  0  0  0  0
   25.1857  -19.5874   -9.3463 C   0  0  0  0  0  0  0  0  0  0  0  0
   23.4535  -21.5898  -12.8894 N   0  0  0  0  0  0  0  0  0  0  0  0
   22.0688  -21.2181  -12.9098 C   0  0  0  0  0  0  0  0  0  0  0  0
   21.5935  -20.7520  -11.6054 C   0  0  0  0  0  0  0  0  0  0  0  0
   22.4435  -20.7542  -10.5125 O   0  0  0  0  0  0  0  0  0  0  0  0
   20.4200  -20.3473  -11.4592 O   0  0  0  0  0  0  0  0  0  0  0  0
  2  1  1  1
  2  3  1  0
  4  5  1  0
  4  2  1  0
  5  7  1  0
  5  6  1  6
  7  8  2  0
  9 10  1  0
 10 11  2  0
 10 20  1  0
 11 12  1  0
 12 13  2  0
 13 14  1  0
 15 14  1  1
 16  7  1  0
 16 15  1  0
 17 15  1  0
 17 18  2  0
 19 13  1  0
 20 19  2  0
 21 22  1  0
 21 17  1  0
 23 22  1  0
 24 23  1  0
 25 23  2  0
M  END
$$$$
