LYG.pdb
     RDKit          3D

 25 25  0  0  1  0  0  0  0  0999 V2000
   25.6389  -23.0775  -18.9514 C   0  0  0  0  0  0  0  0  0  0  0  0
   24.9264  -24.2221  -18.3176 C   0  0  2  0  0  0  0  0  0  0  0  0
   23.9576  -24.8268  -19.3345 C   0  0  0  0  0  0  0  0  0  0  0  0
   24.1058  -23.8369  -17.1107 C   0  0  0  0  0  0  0  0  0  0  0  0
   24.9201  -23.2017  -16.0246 C   0  0  2  0  0  0  0  0  0  0  0  0
   25.8982  -24.0788  -15.4522 N   0  0  0  0  0  0  0  0  0  0  0  0
   23.9850  -22.7754  -14.9507 C   0  0  0  0  0  0  0  0  0  0  0  0
   23.5585  -23.6054  -14.0784 O   0  0  0  0  0  0  0  0  0  0  0  0
   26.9000  -21.4055   -9.0672 O   0  0  0  0  0  0  0  0  0  0  0  0
   25.9666  -21.0412  -10.0297 C   0  0  0  0  0  0  0  0  0  0  0  0
   24.6915  -20.6774   -9.6749 C   0  0  0  0  0  0  0  0  0  0  0  0
   23.7442  -20.3090  -10.6361 C   0  0  0  0  0  0  0  0  0  0  0  0
   24.0586  -20.2988  -11.9738 C   0  0  0  0  0  0  0  0  0  0  0  0
   23.0864  -19.9206  -13.0262 C   0  0  0  0  0  0  0  0  0  0  0  0
   22.5503  -21.0896  -13.8045 C   0  0  2  0  0  0  0  0  0  0  0  0
   23.5150  -21.4495  -14.8260 N   0  0  0  0  0  0  0  0  0  0  0  0
   21.2221  -20.8221  -14.4008 C   0  0  0  0  0  0  0  0  0  0  0  0
   21.0605  -20.0506  -15.3721 O   0  0  0  0  0  0  0  0  0  0  0  0
   25.3535  -20.6692  -12.3214 C   0  0  0  0  0  0  0  0  0  0  0  0
   26.2863  -21.0319  -11.3748 C   0  0  0  0  0  0  0  0  0  0  0  0
   20.0723  -21.4690  -13.8488 N   0  0  0  0  0  0  0  0  0  0  0  0
   18.7358  -21.0239  -14.1169 C   0  0  0  0  0  0  0  0  0  0  0  0
   18.2738  -21.4076  -15.4525 C   0  0  0  0  0  0  0  0  0  0  0  0
   16.9249  -21.6068  -15.6928 O   0  0  0  0  0  0  0  0  0  0  0  0
   19.0851  -21.5604  -16.3909 O   0  0  0  0  0  0  0  0  0  0  0  0
  2  1  1  6
  2  3  1  0
  4  5  1  0
  4  2  1  0
  5  7  1  0
  5  6  1  1
  7  8  2  0
  9 10  1  0
 10 11  2  0
 10 20  1  0
 11 12  1  0
 12 13  2  0
 13 14  1  0
 15 14  1  6
 16  7  1  0
 16 15  1  0
 17 15  1  0
 17 18  2  0
 19 13  1  0
 20 19  2  0
 21 22  1  0
 21 17  1  0
 23 22  1  0
 24 23  1  0
 25 23  2  0
M  END
$$$$
