LYG.pdb
     RDKit          3D

 25 25  0  0  1  0  0  0  0  0999 V2000
   26.7125  -11.6179  -15.1586 C   0  0  0  0  0  0  0  0  0  0  0  0
   26.5282  -10.9396  -16.4722 C   0  0  2  0  0  0  0  0  0  0  0  0
   27.6842   -9.9631  -16.6919 C   0  0  0  0  0  0  0  0  0  0  0  0
   25.2547  -10.1351  -16.5699 C   0  0  0  0  0  0  0  0  0  0  0  0
   24.0215  -10.9576  -16.3497 C   0  0  2  0  0  0  0  0  0  0  0  0
   23.8720  -12.0313  -17.2871 N   0  0  0  0  0  0  0  0  0  0  0  0
   22.8480  -10.0543  -16.4785 C   0  0  0  0  0  0  0  0  0  0  0  0
   22.3583   -9.7669  -17.6228 O   0  0  0  0  0  0  0  0  0  0  0  0
   17.9505  -13.8323  -17.9686 O   0  0  0  0  0  0  0  0  0  0  0  0
   18.4199  -12.7661  -17.2115 C   0  0  0  0  0  0  0  0  0  0  0  0
   19.2919  -12.9686  -16.1709 C   0  0  0  0  0  0  0  0  0  0  0  0
   19.7704  -11.9022  -15.4025 C   0  0  0  0  0  0  0  0  0  0  0  0
   19.3826  -10.6100  -15.6638 C   0  0  0  0  0  0  0  0  0  0  0  0
   19.8599   -9.4510  -14.8734 C   0  0  0  0  0  0  0  0  0  0  0  0
   20.9879   -8.6983  -15.5219 C   0  0  2  0  0  0  0  0  0  0  0  0
   22.2090   -9.4652  -15.3655 N   0  0  0  0  0  0  0  0  0  0  0  0
   21.1495   -7.3290  -14.9831 C   0  0  0  0  0  0  0  0  0  0  0  0
   20.1921   -6.5331  -14.8626 O   0  0  0  0  0  0  0  0  0  0  0  0
   18.4989  -10.4169  -16.7205 C   0  0  0  0  0  0  0  0  0  0  0  0
   18.0278  -11.4672  -17.4772 C   0  0  0  0  0  0  0  0  0  0  0  0
   22.4507   -6.8918  -14.5821 N   0  0  0  0  0  0  0  0  0  0  0  0
   22.6920   -5.5838  -14.0464 C   0  0  0  0  0  0  0  0  0  0  0  0
   22.4927   -4.5253  -15.0386 C   0  0  0  0  0  0  0  0  0  0  0  0
   22.7149   -3.2014  -14.6996 O   0  0  0  0  0  0  0  0  0  0  0  0
   22.1211   -4.7989  -16.2002 O   0  0  0  0  0  0  0  0  0  0  0  0
  2  1  1  1
  2  3  1  0
  4  5  1  0
  4  2  1  0
  5  7  1  0
  5  6  1  6
  7  8  2  0
  9 10  1  0
 10 11  2  0
 10 20  1  0
 11 12  1  0
 12 13  2  0
 13 14  1  0
 15 14  1  1
 16  7  1  0
 16 15  1  0
 17 15  1  0
 17 18  2  0
 19 13  1  0
 20 19  2  0
 21 22  1  0
 21 17  1  0
 23 22  1  0
 24 23  1  0
 25 23  2  0
M  END
$$$$
