LYG.pdb
     RDKit          3D

 25 25  0  0  1  0  0  0  0  0999 V2000
   27.4035  -22.5825  -18.0075 C   0  0  0  0  0  0  0  0  0  0  0  0
   28.0419  -21.8777  -16.8606 C   0  0  2  0  0  0  0  0  0  0  0  0
   29.4315  -22.4712  -16.6260 C   0  0  0  0  0  0  0  0  0  0  0  0
   27.2850  -22.0159  -15.5620 C   0  0  0  0  0  0  0  0  0  0  0  0
   25.8707  -21.5284  -15.6513 C   0  0  2  0  0  0  0  0  0  0  0  0
   25.7610  -20.1474  -16.0182 N   0  0  0  0  0  0  0  0  0  0  0  0
   25.2455  -21.7110  -14.3151 C   0  0  0  0  0  0  0  0  0  0  0  0
   25.2244  -22.8547  -13.7466 O   0  0  0  0  0  0  0  0  0  0  0  0
   30.3310  -21.0812  -10.4090 O   0  0  0  0  0  0  0  0  0  0  0  0
   28.9925  -20.7832  -10.6324 C   0  0  0  0  0  0  0  0  0  0  0  0
   28.0302  -21.1246   -9.7150 C   0  0  0  0  0  0  0  0  0  0  0  0
   26.6800  -20.8293   -9.9303 C   0  0  0  0  0  0  0  0  0  0  0  0
   26.2685  -20.1847  -11.0721 C   0  0  0  0  0  0  0  0  0  0  0  0
   24.8494  -19.8564  -11.3441 C   0  0  0  0  0  0  0  0  0  0  0  0
   24.1609  -20.8429  -12.2453 C   0  0  2  0  0  0  0  0  0  0  0  0
   24.6450  -20.6522  -13.5991 N   0  0  0  0  0  0  0  0  0  0  0  0
   22.6853  -20.7384  -12.1906 C   0  0  0  0  0  0  0  0  0  0  0  0
   22.0503  -20.6987  -11.1136 O   0  0  0  0  0  0  0  0  0  0  0  0
   27.2523  -19.8436  -11.9944 C   0  0  0  0  0  0  0  0  0  0  0  0
   28.5820  -20.1344  -11.7823 C   0  0  0  0  0  0  0  0  0  0  0  0
   21.9494  -20.6799  -13.4155 N   0  0  0  0  0  0  0  0  0  0  0  0
   20.5341  -20.4526  -13.4530 C   0  0  0  0  0  0  0  0  0  0  0  0
   19.7645  -21.6981  -13.4184 C   0  0  0  0  0  0  0  0  0  0  0  0
   18.3804  -21.6623  -13.4155 O   0  0  0  0  0  0  0  0  0  0  0  0
   20.3417  -22.8064  -13.3910 O   0  0  0  0  0  0  0  0  0  0  0  0
  2  1  1  6
  2  3  1  0
  4  5  1  0
  4  2  1  0
  5  7  1  0
  5  6  1  1
  7  8  2  0
  9 10  1  0
 10 11  2  0
 10 20  1  0
 11 12  1  0
 12 13  2  0
 13 14  1  0
 15 14  1  1
 16  7  1  0
 16 15  1  0
 17 15  1  0
 17 18  2  0
 19 13  1  0
 20 19  2  0
 21 22  1  0
 21 17  1  0
 23 22  1  0
 24 23  1  0
 25 23  2  0
M  END
$$$$
