LYG.pdb
     RDKit          3D

 25 25  0  0  1  0  0  0  0  0999 V2000
   31.6894  -22.5098  -11.0143 C   0  0  0  0  0  0  0  0  0  0  0  0
   30.6366  -21.6523  -11.6274 C   0  0  2  0  0  0  0  0  0  0  0  0
   31.1941  -20.2407  -11.8138 C   0  0  0  0  0  0  0  0  0  0  0  0
   29.3907  -21.5203  -10.7855 C   0  0  0  0  0  0  0  0  0  0  0  0
   28.1576  -21.2617  -11.5970 C   0  0  2  0  0  0  0  0  0  0  0  0
   28.1254  -19.9594  -12.1942 N   0  0  0  0  0  0  0  0  0  0  0  0
   26.9862  -21.3928  -10.6914 C   0  0  0  0  0  0  0  0  0  0  0  0
   26.6620  -22.5222  -10.1903 O   0  0  0  0  0  0  0  0  0  0  0  0
   29.0136  -20.2480   -4.3840 O   0  0  0  0  0  0  0  0  0  0  0  0
   28.0547  -20.0353   -5.3666 C   0  0  0  0  0  0  0  0  0  0  0  0
   28.1749  -18.9984   -6.2580 C   0  0  0  0  0  0  0  0  0  0  0  0
   27.2152  -18.7755   -7.2510 C   0  0  0  0  0  0  0  0  0  0  0  0
   26.1146  -19.5900   -7.3688 C   0  0  0  0  0  0  0  0  0  0  0  0
   25.0711  -19.3885   -8.4015 C   0  0  0  0  0  0  0  0  0  0  0  0
   25.0346  -20.4696   -9.4452 C   0  0  2  0  0  0  0  0  0  0  0  0
   26.1696  -20.2982  -10.3318 N   0  0  0  0  0  0  0  0  0  0  0  0
   23.7655  -20.4899  -10.2071 C   0  0  0  0  0  0  0  0  0  0  0  0
   22.6470  -20.5786   -9.6541 O   0  0  0  0  0  0  0  0  0  0  0  0
   26.0035  -20.6373   -6.4603 C   0  0  0  0  0  0  0  0  0  0  0  0
   26.9487  -20.8568   -5.4824 C   0  0  0  0  0  0  0  0  0  0  0  0
   23.8129  -20.4051  -11.6339 N   0  0  0  0  0  0  0  0  0  0  0  0
   22.6507  -20.1308  -12.4276 C   0  0  0  0  0  0  0  0  0  0  0  0
   22.0946  -21.3372  -13.0441 C   0  0  0  0  0  0  0  0  0  0  0  0
   22.6755  -22.5716  -12.8081 O   0  0  0  0  0  0  0  0  0  0  0  0
   21.0927  -21.2717  -13.7886 O   0  0  0  0  0  0  0  0  0  0  0  0
  2  1  1  1
  2  3  1  0
  4  5  1  0
  4  2  1  0
  5  7  1  0
  5  6  1  1
  7  8  2  0
  9 10  1  0
 10 11  2  0
 10 20  1  0
 11 12  1  0
 12 13  2  0
 13 14  1  0
 15 14  1  1
 16  7  1  0
 16 15  1  0
 17 15  1  0
 17 18  2  0
 19 13  1  0
 20 19  2  0
 21 22  1  0
 21 17  1  0
 23 22  1  0
 24 23  1  0
 25 23  2  0
M  END
$$$$
