LYG.pdb
     RDKit          3D

 25 25  0  0  1  0  0  0  0  0999 V2000
   23.9075   -9.7981  -22.9778 C   0  0  0  0  0  0  0  0  0  0  0  0
   25.0220   -9.8387  -21.9900 C   0  0  2  0  0  0  0  0  0  0  0  0
   25.8191  -11.1273  -22.1952 C   0  0  0  0  0  0  0  0  0  0  0  0
   24.5630   -9.8354  -20.5520 C   0  0  0  0  0  0  0  0  0  0  0  0
   23.6514   -8.6907  -20.2287 C   0  0  2  0  0  0  0  0  0  0  0  0
   24.2621   -7.4050  -20.3952 N   0  0  0  0  0  0  0  0  0  0  0  0
   23.2350   -8.8330  -18.8088 C   0  0  0  0  0  0  0  0  0  0  0  0
   22.6208   -9.8767  -18.4022 O   0  0  0  0  0  0  0  0  0  0  0  0
   27.6102  -12.5688  -16.1246 O   0  0  0  0  0  0  0  0  0  0  0  0
   26.7974  -11.4497  -15.9928 C   0  0  0  0  0  0  0  0  0  0  0  0
   27.1598  -10.2451  -16.5420 C   0  0  0  0  0  0  0  0  0  0  0  0
   26.3488   -9.1124  -16.4151 C   0  0  0  0  0  0  0  0  0  0  0  0
   25.1568   -9.1667  -15.7335 C   0  0  0  0  0  0  0  0  0  0  0  0
   24.2689   -7.9916  -15.5700 C   0  0  0  0  0  0  0  0  0  0  0  0
   23.0575   -8.0187  -16.4595 C   0  0  2  0  0  0  0  0  0  0  0  0
   23.4860   -7.8427  -17.8339 N   0  0  0  0  0  0  0  0  0  0  0  0
   22.0472   -7.0035  -16.0853 C   0  0  0  0  0  0  0  0  0  0  0  0
   21.4835   -6.9909  -14.9687 O   0  0  0  0  0  0  0  0  0  0  0  0
   24.7999  -10.3925  -15.1814 C   0  0  0  0  0  0  0  0  0  0  0  0
   25.5986  -11.5079  -15.3065 C   0  0  0  0  0  0  0  0  0  0  0  0
   21.6966   -5.9929  -17.0345 N   0  0  0  0  0  0  0  0  0  0  0  0
   20.7411   -4.9636  -16.7453 C   0  0  0  0  0  0  0  0  0  0  0  0
   21.2240   -4.0166  -15.7380 C   0  0  0  0  0  0  0  0  0  0  0  0
   22.4492   -4.2158  -15.1248 O   0  0  0  0  0  0  0  0  0  0  0  0
   20.5416   -3.0195  -15.4179 O   0  0  0  0  0  0  0  0  0  0  0  0
  2  1  1  6
  2  3  1  0
  4  5  1  0
  4  2  1  0
  5  7  1  0
  5  6  1  1
  7  8  2  0
  9 10  1  0
 10 11  2  0
 10 20  1  0
 11 12  1  0
 12 13  2  0
 13 14  1  0
 15 14  1  1
 16  7  1  0
 16 15  1  0
 17 15  1  0
 17 18  2  0
 19 13  1  0
 20 19  2  0
 21 22  1  0
 21 17  1  0
 23 22  1  0
 24 23  1  0
 25 23  2  0
M  END
$$$$
