LYG.pdb
     RDKit          3D

 25 25  0  0  1  0  0  0  0  0999 V2000
   27.8751  -18.2704  -16.8542 C   0  0  0  0  0  0  0  0  0  0  0  0
   28.3615  -18.2291  -15.4466 C   0  0  2  0  0  0  0  0  0  0  0  0
   29.8522  -18.5693  -15.4275 C   0  0  0  0  0  0  0  0  0  0  0  0
   27.6776  -19.2194  -14.5356 C   0  0  0  0  0  0  0  0  0  0  0  0
   26.1907  -19.0401  -14.4830 C   0  0  2  0  0  0  0  0  0  0  0  0
   25.7837  -17.7552  -13.9959 N   0  0  0  0  0  0  0  0  0  0  0  0
   25.6426  -20.0821  -13.5756 C   0  0  0  0  0  0  0  0  0  0  0  0
   25.8625  -21.3228  -13.7857 O   0  0  0  0  0  0  0  0  0  0  0  0
   30.0056  -21.1307   -8.7159 O   0  0  0  0  0  0  0  0  0  0  0  0
   28.6716  -20.9954   -9.0797 C   0  0  0  0  0  0  0  0  0  0  0  0
   28.1396  -21.7399  -10.1029 C   0  0  0  0  0  0  0  0  0  0  0  0
   26.7979  -21.6113  -10.4771 C   0  0  0  0  0  0  0  0  0  0  0  0
   25.9629  -20.7316   -9.8310 C   0  0  0  0  0  0  0  0  0  0  0  0
   24.5373  -20.5589  -10.1967 C   0  0  0  0  0  0  0  0  0  0  0  0
   24.2474  -20.8238  -11.6476 C   0  0  2  0  0  0  0  0  0  0  0  0
   24.8575  -19.7753  -12.4426 N   0  0  0  0  0  0  0  0  0  0  0  0
   22.7989  -20.9308  -11.9338 C   0  0  0  0  0  0  0  0  0  0  0  0
   22.0326  -21.6672  -11.2741 O   0  0  0  0  0  0  0  0  0  0  0  0
   26.5129  -19.9826   -8.7960 C   0  0  0  0  0  0  0  0  0  0  0  0
   27.8342  -20.1095   -8.4275 C   0  0  0  0  0  0  0  0  0  0  0  0
   22.2465  -20.1636  -13.0068 N   0  0  0  0  0  0  0  0  0  0  0  0
   20.8501  -20.1885  -13.3316 C   0  0  0  0  0  0  0  0  0  0  0  0
   20.5094  -21.2672  -14.2616 C   0  0  0  0  0  0  0  0  0  0  0  0
   19.2111  -21.4064  -14.7221 O   0  0  0  0  0  0  0  0  0  0  0  0
   21.3802  -22.0745  -14.6519 O   0  0  0  0  0  0  0  0  0  0  0  0
  2  1  1  6
  2  3  1  0
  4  5  1  0
  4  2  1  0
  5  7  1  0
  5  6  1  1
  7  8  2  0
  9 10  1  0
 10 11  2  0
 10 20  1  0
 11 12  1  0
 12 13  2  0
 13 14  1  0
 15 14  1  1
 16  7  1  0
 16 15  1  0
 17 15  1  0
 17 18  2  0
 19 13  1  0
 20 19  2  0
 21 22  1  0
 21 17  1  0
 23 22  1  0
 24 23  1  0
 25 23  2  0
M  END
$$$$
