LYG.pdb
     RDKit          3D

 25 25  0  0  1  0  0  0  0  0999 V2000
   24.9740  -20.3589   -9.2769 C   0  0  0  0  0  0  0  0  0  0  0  0
   25.3955  -21.3165  -10.3375 C   0  0  2  0  0  0  0  0  0  0  0  0
   26.8678  -21.6721  -10.1270 C   0  0  0  0  0  0  0  0  0  0  0  0
   25.2768  -20.7665  -11.7381 C   0  0  0  0  0  0  0  0  0  0  0  0
   23.8786  -20.3612  -12.0939 C   0  0  2  0  0  0  0  0  0  0  0  0
   22.8835  -21.3057  -11.6795 N   0  0  0  0  0  0  0  0  0  0  0  0
   23.8109  -20.2254  -13.5726 C   0  0  0  0  0  0  0  0  0  0  0  0
   24.7149  -19.5967  -14.2200 O   0  0  0  0  0  0  0  0  0  0  0  0
   26.7450  -25.6364  -16.2035 O   0  0  0  0  0  0  0  0  0  0  0  0
   25.6890  -24.7347  -16.2506 C   0  0  0  0  0  0  0  0  0  0  0  0
   24.7130  -24.7390  -15.2854 C   0  0  0  0  0  0  0  0  0  0  0  0
   23.6457  -23.8356  -15.3235 C   0  0  0  0  0  0  0  0  0  0  0  0
   23.5369  -22.9091  -16.3325 C   0  0  0  0  0  0  0  0  0  0  0  0
   22.4217  -21.9368  -16.4156 C   0  0  0  0  0  0  0  0  0  0  0  0
   22.7286  -20.6071  -15.7855 C   0  0  2  0  0  0  0  0  0  0  0  0
   22.7626  -20.7721  -14.3449 N   0  0  0  0  0  0  0  0  0  0  0  0
   21.7672  -19.5511  -16.1753 C   0  0  0  0  0  0  0  0  0  0  0  0
   20.6364  -19.4405  -15.6522 O   0  0  0  0  0  0  0  0  0  0  0  0
   24.5316  -22.9140  -17.3048 C   0  0  0  0  0  0  0  0  0  0  0  0
   25.5826  -23.8037  -17.2671 C   0  0  0  0  0  0  0  0  0  0  0  0
   22.1401  -18.6157  -17.1908 N   0  0  0  0  0  0  0  0  0  0  0  0
   21.2237  -17.6481  -17.7200 C   0  0  0  0  0  0  0  0  0  0  0  0
   21.2664  -16.3780  -16.9924 C   0  0  0  0  0  0  0  0  0  0  0  0
   20.5728  -15.2784  -17.4685 O   0  0  0  0  0  0  0  0  0  0  0  0
   21.9259  -16.2673  -15.9364 O   0  0  0  0  0  0  0  0  0  0  0  0
  2  1  1  1
  2  3  1  0
  4  5  1  0
  4  2  1  0
  5  7  1  0
  5  6  1  6
  7  8  2  0
  9 10  1  0
 10 11  2  0
 10 20  1  0
 11 12  1  0
 12 13  2  0
 13 14  1  0
 15 14  1  6
 16  7  1  0
 16 15  1  0
 17 15  1  0
 17 18  2  0
 19 13  1  0
 20 19  2  0
 21 22  1  0
 21 17  1  0
 23 22  1  0
 24 23  1  0
 25 23  2  0
M  END
$$$$
