LYG.pdb
     RDKit          3D

 25 25  0  0  1  0  0  0  0  0999 V2000
   26.2529  -22.3406  -10.5383 C   0  0  0  0  0  0  0  0  0  0  0  0
   26.1759  -20.8542  -10.6021 C   0  0  2  0  0  0  0  0  0  0  0  0
   25.9931  -20.3064   -9.1862 C   0  0  0  0  0  0  0  0  0  0  0  0
   25.0178  -20.3380  -11.4211 C   0  0  0  0  0  0  0  0  0  0  0  0
   25.0210  -20.8481  -12.8303 C   0  0  2  0  0  0  0  0  0  0  0  0
   26.2021  -20.5015  -13.5642 N   0  0  0  0  0  0  0  0  0  0  0  0
   23.8461  -20.2599  -13.5254 C   0  0  0  0  0  0  0  0  0  0  0  0
   23.6755  -18.9951  -13.5791 O   0  0  0  0  0  0  0  0  0  0  0  0
   26.1125  -17.9115  -18.7886 O   0  0  0  0  0  0  0  0  0  0  0  0
   25.0655  -18.5902  -18.1774 C   0  0  0  0  0  0  0  0  0  0  0  0
   25.1487  -19.9368  -17.9247 C   0  0  0  0  0  0  0  0  0  0  0  0
   24.1004  -20.6295  -17.3098 C   0  0  0  0  0  0  0  0  0  0  0  0
   22.9466  -19.9833  -16.9362 C   0  0  0  0  0  0  0  0  0  0  0  0
   21.8096  -20.6773  -16.2871 C   0  0  0  0  0  0  0  0  0  0  0  0
   21.7150  -20.4324  -14.8071 C   0  0  2  0  0  0  0  0  0  0  0  0
   22.8593  -21.0456  -14.1604 N   0  0  0  0  0  0  0  0  0  0  0  0
   20.4480  -20.9272  -14.2227 C   0  0  0  0  0  0  0  0  0  0  0  0
   19.3260  -20.5308  -14.6083 O   0  0  0  0  0  0  0  0  0  0  0  0
   22.8737  -18.6190  -17.1971 C   0  0  0  0  0  0  0  0  0  0  0  0
   23.9061  -17.9369  -17.8025 C   0  0  0  0  0  0  0  0  0  0  0  0
   20.5018  -21.8982  -13.1741 N   0  0  0  0  0  0  0  0  0  0  0  0
   19.3373  -22.3090  -12.4452 C   0  0  0  0  0  0  0  0  0  0  0  0
   18.5861  -23.3606  -13.1339 C   0  0  0  0  0  0  0  0  0  0  0  0
   17.4301  -23.8741  -12.5709 O   0  0  0  0  0  0  0  0  0  0  0  0
   18.9743  -23.8083  -14.2344 O   0  0  0  0  0  0  0  0  0  0  0  0
  2  1  1  1
  2  3  1  0
  4  5  1  0
  4  2  1  0
  5  7  1  0
  5  6  1  6
  7  8  2  0
  9 10  1  0
 10 11  2  0
 10 20  1  0
 11 12  1  0
 12 13  2  0
 13 14  1  0
 15 14  1  6
 16  7  1  0
 16 15  1  0
 17 15  1  0
 17 18  2  0
 19 13  1  0
 20 19  2  0
 21 22  1  0
 21 17  1  0
 23 22  1  0
 24 23  1  0
 25 23  2  0
M  END
$$$$
