CQP.pdb
     RDKit          3D

 23 23  0  0  1  0  0  0  0  0999 V2000
   18.3240  -12.0193  -17.6207 N   0  0  0  0  0  0  0  0  0  0  0  0
   19.3619  -11.7897  -16.6469 C   0  0  1  0  0  0  0  0  0  0  0  0
   20.7067  -11.7531  -17.3563 C   0  0  0  0  0  0  0  0  0  0  0  0
   21.2922  -13.4269  -17.7113 S   0  0  0  0  0  0  0  0  0  0  0  0
   19.1360  -10.4481  -16.0292 C   0  0  0  0  0  0  0  0  0  0  0  0
   18.8839   -9.4667  -16.7713 O   0  0  0  0  0  0  0  0  0  0  0  0
   17.1041   -9.1775  -10.1553 N   0  0  0  0  0  0  0  0  0  0  0  0
   17.3460   -7.9077  -10.7834 C   0  0  0  0  0  0  0  0  0  0  0  0
   17.0218   -6.8806  -10.1471 O   0  0  0  0  0  0  0  0  0  0  0  0
   17.9477   -7.8249  -12.1103 C   0  0  0  0  0  0  0  0  0  0  0  0
   18.2436   -9.1291  -12.7626 C   0  0  0  0  0  0  0  0  0  0  0  0
   18.8807   -8.9170  -14.1173 C   0  0  2  0  0  0  0  0  0  0  0  0
   19.1972  -10.2470  -14.6305 N   0  0  0  0  0  0  0  0  0  0  0  0
   20.1558   -8.1441  -13.9762 C   0  0  0  0  0  0  0  0  0  0  0  0
   21.1645   -8.7722  -13.5729 O   0  0  0  0  0  0  0  0  0  0  0  0
   20.2421   -6.7756  -14.2766 N   0  0  0  0  0  0  0  0  0  0  0  0
   19.1655   -5.9139  -14.6792 C   0  0  0  0  0  0  0  0  0  0  0  0
   19.8404   -4.9298  -15.6265 C   0  0  0  0  0  0  0  0  0  0  0  0
   21.3176   -5.1623  -15.5091 C   0  0  0  0  0  0  0  0  0  0  0  0
   21.4370   -5.9723  -14.2416 C   0  0  1  0  0  0  0  0  0  0  0  0
   21.4415   -5.0960  -13.0419 C   0  0  0  0  0  0  0  0  0  0  0  0
   20.3455   -5.0578  -12.2162 O   0  0  0  0  0  0  0  0  0  0  0  0
   22.4650   -4.3974  -12.8047 O   0  0  0  0  0  0  0  0  0  0  0  0
  2  1  1  6
  3  2  1  0
  4  3  1  0
  5  2  1  0
  5  6  2  0
  7  8  1  0
  8 10  1  0
  9  8  2  0
 10 11  1  0
 12 11  1  1
 12 13  1  0
 12 14  1  0
 13  5  1  0
 14 16  1  0
 15 14  2  0
 16 20  1  0
 16 17  1  0
 17 18  1  0
 19 18  1  0
 20 19  1  0
 21 22  1  0
 20 21  1  1
 23 21  2  0
M  END
$$$$
