CQP.pdb
     RDKit          3D

 23 23  0  0  1  0  0  0  0  0999 V2000
   23.9139  -25.9011  -14.8693 N   0  0  0  0  0  0  0  0  0  0  0  0
   25.1494  -25.2065  -15.1327 C   0  0  1  0  0  0  0  0  0  0  0  0
   25.4965  -25.3554  -16.6059 C   0  0  0  0  0  0  0  0  0  0  0  0
   27.1291  -24.6607  -16.9553 S   0  0  0  0  0  0  0  0  0  0  0  0
   24.9370  -23.7530  -14.8593 C   0  0  0  0  0  0  0  0  0  0  0  0
   23.8492  -23.2199  -15.1911 O   0  0  0  0  0  0  0  0  0  0  0  0
   25.7956  -21.7613  -10.4158 N   0  0  0  0  0  0  0  0  0  0  0  0
   25.5001  -20.4369  -10.8894 C   0  0  0  0  0  0  0  0  0  0  0  0
   24.8366  -19.6914  -10.1352 O   0  0  0  0  0  0  0  0  0  0  0  0
   25.9595  -19.9838  -12.1984 C   0  0  0  0  0  0  0  0  0  0  0  0
   26.6146  -21.0200  -13.0418 C   0  0  0  0  0  0  0  0  0  0  0  0
   25.6637  -21.5247  -14.1035 C   0  0  2  0  0  0  0  0  0  0  0  0
   25.9251  -22.9552  -14.2367 N   0  0  0  0  0  0  0  0  0  0  0  0
   25.9518  -20.8627  -15.4158 C   0  0  0  0  0  0  0  0  0  0  0  0
   26.8192  -21.3969  -16.1484 O   0  0  0  0  0  0  0  0  0  0  0  0
   25.2919  -19.6947  -15.8290 N   0  0  0  0  0  0  0  0  0  0  0  0
   24.4272  -18.8681  -15.0335 C   0  0  0  0  0  0  0  0  0  0  0  0
   23.4081  -18.3546  -16.0429 C   0  0  0  0  0  0  0  0  0  0  0  0
   23.9125  -18.7435  -17.4010 C   0  0  0  0  0  0  0  0  0  0  0  0
   25.3547  -19.1028  -17.1405 C   0  0  1  0  0  0  0  0  0  0  0  0
   26.2162  -17.8925  -17.1259 C   0  0  0  0  0  0  0  0  0  0  0  0
   26.5315  -17.2606  -18.3031 O   0  0  0  0  0  0  0  0  0  0  0  0
   26.6447  -17.4661  -16.0184 O   0  0  0  0  0  0  0  0  0  0  0  0
  2  1  1  6
  3  2  1  0
  4  3  1  0
  5  2  1  0
  5  6  2  0
  7  8  1  0
  8 10  1  0
  9  8  2  0
 10 11  1  0
 12 11  1  1
 12 13  1  0
 12 14  1  0
 13  5  1  0
 14 16  1  0
 15 14  2  0
 16 20  1  0
 16 17  1  0
 17 18  1  0
 19 18  1  0
 20 19  1  0
 21 22  1  0
 20 21  1  1
 23 21  2  0
M  END
$$$$
