CQP.pdb
     RDKit          3D

 23 23  0  0  1  0  0  0  0  0999 V2000
   25.5526  -33.9996  -15.8036 N   0  0  0  0  0  0  0  0  0  0  0  0
   24.5655  -34.3990  -14.8319 C   0  0  1  0  0  0  0  0  0  0  0  0
   24.3956  -35.9092  -14.8911 C   0  0  0  0  0  0  0  0  0  0  0  0
   23.5868  -36.4056  -16.4305 S   0  0  0  0  0  0  0  0  0  0  0  0
   25.0789  -34.0512  -13.4725 C   0  0  0  0  0  0  0  0  0  0  0  0
   26.3063  -34.1674  -13.2332 O   0  0  0  0  0  0  0  0  0  0  0  0
   23.5317  -29.5901   -9.6871 N   0  0  0  0  0  0  0  0  0  0  0  0
   24.1916  -30.4973   -8.7887 C   0  0  0  0  0  0  0  0  0  0  0  0
   24.5851  -30.0376   -7.6939 O   0  0  0  0  0  0  0  0  0  0  0  0
   24.3910  -31.8987   -9.1437 C   0  0  0  0  0  0  0  0  0  0  0  0
   23.8732  -32.3018  -10.4792 C   0  0  0  0  0  0  0  0  0  0  0  0
   24.8238  -33.2657  -11.1525 C   0  0  2  0  0  0  0  0  0  0  0  0
   24.2239  -33.5937  -12.4429 N   0  0  0  0  0  0  0  0  0  0  0  0
   24.9437  -34.5236  -10.3484 C   0  0  0  0  0  0  0  0  0  0  0  0
   24.1275  -35.4432  -10.5988 O   0  0  0  0  0  0  0  0  0  0  0  0
   25.9195  -34.6889   -9.3530 N   0  0  0  0  0  0  0  0  0  0  0  0
   26.8331  -33.6910   -8.8700 C   0  0  0  0  0  0  0  0  0  0  0  0
   28.0821  -34.4949   -8.5306 C   0  0  0  0  0  0  0  0  0  0  0  0
   27.7019  -35.9429   -8.6254 C   0  0  0  0  0  0  0  0  0  0  0  0
   26.1935  -35.9015   -8.6256 C   0  0  1  0  0  0  0  0  0  0  0  0
   25.6578  -35.8126   -7.2428 C   0  0  0  0  0  0  0  0  0  0  0  0
   25.7785  -36.8820   -6.3904 O   0  0  0  0  0  0  0  0  0  0  0  0
   25.0967  -34.7434   -6.8770 O   0  0  0  0  0  0  0  0  0  0  0  0
  2  1  1  6
  3  2  1  0
  4  3  1  0
  5  2  1  0
  5  6  2  0
  7  8  1  0
  8 10  1  0
  9  8  2  0
 10 11  1  0
 12 11  1  1
 12 13  1  0
 12 14  1  0
 13  5  1  0
 14 16  1  0
 15 14  2  0
 16 20  1  0
 16 17  1  0
 17 18  1  0
 19 18  1  0
 20 19  1  0
 21 22  1  0
 20 21  1  1
 23 21  2  0
M  END
$$$$
