CQP.pdb
     RDKit          3D

 23 23  0  0  1  0  0  0  0  0999 V2000
   25.0095  -23.1722  -11.7868 N   0  0  0  0  0  0  0  0  0  0  0  0
   24.9796  -21.7333  -11.7053 C   0  0  1  0  0  0  0  0  0  0  0  0
   26.1396  -21.2623  -10.8418 C   0  0  0  0  0  0  0  0  0  0  0  0
   26.1175  -19.4632  -10.6607 S   0  0  0  0  0  0  0  0  0  0  0  0
   25.1813  -21.1820  -13.0793 C   0  0  0  0  0  0  0  0  0  0  0  0
   26.2133  -21.4991  -13.7211 O   0  0  0  0  0  0  0  0  0  0  0  0
   21.1714  -20.9238  -13.8829 N   0  0  0  0  0  0  0  0  0  0  0  0
   21.5339  -21.6842  -15.0474 C   0  0  0  0  0  0  0  0  0  0  0  0
   20.9677  -22.7873  -15.2128 O   0  0  0  0  0  0  0  0  0  0  0  0
   22.5226  -21.1842  -15.9972 C   0  0  0  0  0  0  0  0  0  0  0  0
   23.0756  -19.8358  -15.6968 C   0  0  0  0  0  0  0  0  0  0  0  0
   24.4522  -19.9473  -15.0814 C   0  0  2  0  0  0  0  0  0  0  0  0
   24.2440  -20.3114  -13.6827 N   0  0  0  0  0  0  0  0  0  0  0  0
   25.1519  -18.6240  -15.1311 C   0  0  0  0  0  0  0  0  0  0  0  0
   24.7479  -17.7329  -14.3455 O   0  0  0  0  0  0  0  0  0  0  0  0
   26.2163  -18.3694  -16.0101 N   0  0  0  0  0  0  0  0  0  0  0  0
   26.7524  -19.2678  -16.9946 C   0  0  0  0  0  0  0  0  0  0  0  0
   28.2345  -18.9154  -17.0199 C   0  0  0  0  0  0  0  0  0  0  0  0
   28.3942  -17.6647  -16.2072 C   0  0  0  0  0  0  0  0  0  0  0  0
   26.9804  -17.1511  -16.0879 C   0  0  1  0  0  0  0  0  0  0  0  0
   26.5903  -16.3664  -17.2876 C   0  0  0  0  0  0  0  0  0  0  0  0
   25.7016  -16.8924  -18.1921 O   0  0  0  0  0  0  0  0  0  0  0  0
   27.0902  -15.2196  -17.4514 O   0  0  0  0  0  0  0  0  0  0  0  0
  2  1  1  6
  3  2  1  0
  4  3  1  0
  5  2  1  0
  5  6  2  0
  7  8  1  0
  8 10  1  0
  9  8  2  0
 10 11  1  0
 12 11  1  6
 12 13  1  0
 12 14  1  0
 13  5  1  0
 14 16  1  0
 15 14  2  0
 16 20  1  0
 16 17  1  0
 17 18  1  0
 19 18  1  0
 20 19  1  0
 21 22  1  0
 20 21  1  6
 23 21  2  0
M  END
$$$$
