CQP.pdb
     RDKit          3D

 23 23  0  0  1  0  0  0  0  0999 V2000
   28.1225  -19.9304  -18.0059 N   0  0  0  0  0  0  0  0  0  0  0  0
   27.5995  -20.9268  -17.1049 C   0  0  1  0  0  0  0  0  0  0  0  0
   28.7292  -21.8527  -16.6812 C   0  0  0  0  0  0  0  0  0  0  0  0
   29.3113  -22.8391  -18.0806 S   0  0  0  0  0  0  0  0  0  0  0  0
   27.0955  -20.2334  -15.8811 C   0  0  0  0  0  0  0  0  0  0  0  0
   27.3606  -19.0172  -15.7133 O   0  0  0  0  0  0  0  0  0  0  0  0
   22.4603  -17.8176  -15.5342 N   0  0  0  0  0  0  0  0  0  0  0  0
   22.3421  -19.2305  -15.2989 C   0  0  0  0  0  0  0  0  0  0  0  0
   21.2414  -19.7661  -15.5568 O   0  0  0  0  0  0  0  0  0  0  0  0
   23.4650  -20.0056  -14.7813 C   0  0  0  0  0  0  0  0  0  0  0  0
   24.6971  -19.2271  -14.4810 C   0  0  0  0  0  0  0  0  0  0  0  0
   25.7398  -20.1069  -13.8292 C   0  0  2  0  0  0  0  0  0  0  0  0
   26.3268  -20.9049  -14.9020 N   0  0  0  0  0  0  0  0  0  0  0  0
   25.0955  -21.0326  -12.8436 C   0  0  0  0  0  0  0  0  0  0  0  0
   24.7641  -22.1696  -13.2581 O   0  0  0  0  0  0  0  0  0  0  0  0
   24.8631  -20.6654  -11.5088 N   0  0  0  0  0  0  0  0  0  0  0  0
   25.1666  -19.4004  -10.8995 C   0  0  0  0  0  0  0  0  0  0  0  0
   25.5240  -19.7785   -9.4675 C   0  0  0  0  0  0  0  0  0  0  0  0
   25.1652  -21.2255   -9.3012 C   0  0  0  0  0  0  0  0  0  0  0  0
   24.2757  -21.4964  -10.4896 C   0  0  1  0  0  0  0  0  0  0  0  0
   22.8756  -21.0794  -10.2194 C   0  0  0  0  0  0  0  0  0  0  0  0
   22.0954  -21.8122   -9.3598 O   0  0  0  0  0  0  0  0  0  0  0  0
   22.4282  -20.0484  -10.7927 O   0  0  0  0  0  0  0  0  0  0  0  0
  2  1  1  6
  3  2  1  0
  4  3  1  0
  5  2  1  0
  5  6  2  0
  7  8  1  0
  8 10  1  0
  9  8  2  0
 10 11  1  0
 12 11  1  6
 12 13  1  0
 12 14  1  0
 13  5  1  0
 14 16  1  0
 15 14  2  0
 16 20  1  0
 16 17  1  0
 17 18  1  0
 19 18  1  0
 20 19  1  0
 21 22  1  0
 20 21  1  1
 23 21  2  0
M  END
$$$$
