CQP.pdb
     RDKit          3D

 23 23  0  0  1  0  0  0  0  0999 V2000
   27.8742  -26.1244  -16.2247 N   0  0  0  0  0  0  0  0  0  0  0  0
   28.1652  -26.6237  -17.5454 C   0  0  1  0  0  0  0  0  0  0  0  0
   29.3697  -25.8800  -18.1013 C   0  0  0  0  0  0  0  0  0  0  0  0
   29.6202  -26.2761  -19.8479 S   0  0  0  0  0  0  0  0  0  0  0  0
   28.5344  -28.0669  -17.4296 C   0  0  0  0  0  0  0  0  0  0  0  0
   29.5138  -28.3931  -16.7142 O   0  0  0  0  0  0  0  0  0  0  0  0
   29.2346  -32.7891  -15.9212 N   0  0  0  0  0  0  0  0  0  0  0  0
   28.4106  -31.9111  -15.1365 C   0  0  0  0  0  0  0  0  0  0  0  0
   28.5724  -31.9268  -13.8962 O   0  0  0  0  0  0  0  0  0  0  0  0
   27.4267  -31.0366  -15.7665 C   0  0  0  0  0  0  0  0  0  0  0  0
   27.2514  -31.2202  -17.2327 C   0  0  0  0  0  0  0  0  0  0  0  0
   28.3055  -30.4522  -17.9975 C   0  0  2  0  0  0  0  0  0  0  0  0
   27.8139  -29.0812  -18.1023 N   0  0  0  0  0  0  0  0  0  0  0  0
   28.4562  -31.0120  -19.3785 C   0  0  0  0  0  0  0  0  0  0  0  0
   27.9764  -30.3409  -20.3240 O   0  0  0  0  0  0  0  0  0  0  0  0
   29.1027  -32.2328  -19.6280 N   0  0  0  0  0  0  0  0  0  0  0  0
   29.6413  -33.1365  -18.6498 C   0  0  0  0  0  0  0  0  0  0  0  0
   30.8516  -33.7352  -19.3553 C   0  0  0  0  0  0  0  0  0  0  0  0
   30.7759  -33.2974  -20.7880 C   0  0  0  0  0  0  0  0  0  0  0  0
   29.3537  -32.8116  -20.9228 C   0  0  1  0  0  0  0  0  0  0  0  0
   28.4220  -33.9400  -21.1792 C   0  0  0  0  0  0  0  0  0  0  0  0
   28.3984  -34.5435  -22.4120 O   0  0  0  0  0  0  0  0  0  0  0  0
   27.6632  -34.3242  -20.2472 O   0  0  0  0  0  0  0  0  0  0  0  0
  2  1  1  1
  3  2  1  0
  4  3  1  0
  5  2  1  0
  5  6  2  0
  7  8  1  0
  8 10  1  0
  9  8  2  0
 10 11  1  0
 12 11  1  1
 12 13  1  0
 12 14  1  0
 13  5  1  0
 14 16  1  0
 15 14  2  0
 16 20  1  0
 16 17  1  0
 17 18  1  0
 19 18  1  0
 20 19  1  0
 21 22  1  0
 20 21  1  1
 23 21  2  0
M  END
$$$$
