CQP.pdb
     RDKit          3D

 23 23  0  0  1  0  0  0  0  0999 V2000
   19.7568  -11.9791  -15.2801 N   0  0  0  0  0  0  0  0  0  0  0  0
   20.7299  -11.0475  -14.7669 C   0  0  1  0  0  0  0  0  0  0  0  0
   21.9058  -10.9800  -15.7291 C   0  0  0  0  0  0  0  0  0  0  0  0
   23.2339   -9.9571  -15.0507 S   0  0  0  0  0  0  0  0  0  0  0  0
   20.1017   -9.6926  -14.7196 C   0  0  0  0  0  0  0  0  0  0  0  0
   19.5319   -9.2454  -15.7457 O   0  0  0  0  0  0  0  0  0  0  0  0
   18.0196   -6.7204   -9.6513 N   0  0  0  0  0  0  0  0  0  0  0  0
   17.4454   -7.7474  -10.4767 C   0  0  0  0  0  0  0  0  0  0  0  0
   16.4710   -8.3799  -10.0129 O   0  0  0  0  0  0  0  0  0  0  0  0
   17.9806   -8.0360  -11.8033 C   0  0  0  0  0  0  0  0  0  0  0  0
   19.1297   -7.1917  -12.2287 C   0  0  0  0  0  0  0  0  0  0  0  0
   19.5656   -7.5494  -13.6316 C   0  0  2  0  0  0  0  0  0  0  0  0
   20.1281   -8.8946  -13.5521 N   0  0  0  0  0  0  0  0  0  0  0  0
   20.6360   -6.6113  -14.0978 C   0  0  0  0  0  0  0  0  0  0  0  0
   21.8254   -6.9438  -13.8755 O   0  0  0  0  0  0  0  0  0  0  0  0
   20.3446   -5.4069  -14.7575 N   0  0  0  0  0  0  0  0  0  0  0  0
   19.0406   -4.8880  -15.0642 C   0  0  0  0  0  0  0  0  0  0  0  0
   19.2569   -4.1546  -16.3820 C   0  0  0  0  0  0  0  0  0  0  0  0
   20.7385   -4.1101  -16.6126 C   0  0  0  0  0  0  0  0  0  0  0  0
   21.3063   -4.4592  -15.2589 C   0  0  1  0  0  0  0  0  0  0  0  0
   21.3696   -3.2647  -14.3779 C   0  0  0  0  0  0  0  0  0  0  0  0
   22.4222   -2.3897  -14.4833 O   0  0  0  0  0  0  0  0  0  0  0  0
   20.4435   -3.0776  -13.5417 O   0  0  0  0  0  0  0  0  0  0  0  0
  2  1  1  6
  3  2  1  0
  4  3  1  0
  5  2  1  0
  5  6  2  0
  7  8  1  0
  8 10  1  0
  9  8  2  0
 10 11  1  0
 12 11  1  1
 12 13  1  0
 12 14  1  0
 13  5  1  0
 14 16  1  0
 15 14  2  0
 16 20  1  0
 16 17  1  0
 17 18  1  0
 19 18  1  0
 20 19  1  0
 21 22  1  0
 20 21  1  1
 23 21  2  0
M  END
$$$$
