CQP.pdb
     RDKit          3D

 23 23  0  0  1  0  0  0  0  0999 V2000
   22.0587  -18.5037  -16.2141 N   0  0  0  0  0  0  0  0  0  0  0  0
   21.2445  -17.4092  -15.7482 C   0  0  1  0  0  0  0  0  0  0  0  0
   20.8110  -17.6890  -14.3175 C   0  0  0  0  0  0  0  0  0  0  0  0
   19.5573  -18.9913  -14.2684 S   0  0  0  0  0  0  0  0  0  0  0  0
   22.0837  -16.1730  -15.7364 C   0  0  0  0  0  0  0  0  0  0  0  0
   23.2689  -16.2412  -15.3266 O   0  0  0  0  0  0  0  0  0  0  0  0
   24.7310  -15.0829  -20.3550 N   0  0  0  0  0  0  0  0  0  0  0  0
   23.9877  -14.1303  -19.5767 C   0  0  0  0  0  0  0  0  0  0  0  0
   23.6611  -13.0604  -20.1366 O   0  0  0  0  0  0  0  0  0  0  0  0
   23.6293  -14.4056  -18.1891 C   0  0  0  0  0  0  0  0  0  0  0  0
   22.7752  -13.3795  -17.5318 C   0  0  0  0  0  0  0  0  0  0  0  0
   22.4757  -13.7694  -16.1020 C   0  0  2  0  0  0  0  0  0  0  0  0
   21.5844  -14.9240  -16.1736 N   0  0  0  0  0  0  0  0  0  0  0  0
   21.7600  -12.6569  -15.3996 C   0  0  0  0  0  0  0  0  0  0  0  0
   20.5057  -12.6911  -15.4024 O   0  0  0  0  0  0  0  0  0  0  0  0
   22.4425  -11.6110  -14.7586 N   0  0  0  0  0  0  0  0  0  0  0  0
   23.8662  -11.4533  -14.6482 C   0  0  0  0  0  0  0  0  0  0  0  0
   24.0399  -10.7830  -13.2911 C   0  0  0  0  0  0  0  0  0  0  0  0
   22.6691  -10.3898  -12.8258 C   0  0  0  0  0  0  0  0  0  0  0  0
   21.8388  -10.4924  -14.0815 C   0  0  1  0  0  0  0  0  0  0  0  0
   21.9537   -9.2608  -14.9044 C   0  0  0  0  0  0  0  0  0  0  0  0
   22.6007   -9.3021  -16.1145 O   0  0  0  0  0  0  0  0  0  0  0  0
   21.4481   -8.1902  -14.4681 O   0  0  0  0  0  0  0  0  0  0  0  0
  2  1  1  1
  3  2  1  0
  4  3  1  0
  5  2  1  0
  5  6  2  0
  7  8  1  0
  8 10  1  0
  9  8  2  0
 10 11  1  0
 12 11  1  6
 12 13  1  0
 12 14  1  0
 13  5  1  0
 14 16  1  0
 15 14  2  0
 16 20  1  0
 16 17  1  0
 17 18  1  0
 19 18  1  0
 20 19  1  0
 21 22  1  0
 20 21  1  6
 23 21  2  0
M  END
$$$$
