ELL.pdb
     RDKit          3D

 26 25  0  0  1  0  0  0  0  0999 V2000
    8.8255  -15.5226   21.1062 N   0  0  0  0  0  0  0  0  0  0  0  0
    8.1029  -16.1421   22.1991 C   0  0  1  0  0  0  0  0  0  0  0  0
    8.4057  -17.6183   22.1334 C   0  0  0  0  0  0  0  0  0  0  0  0
    7.5960  -18.1917   20.9700 C   0  0  0  0  0  0  0  0  0  0  0  0
    7.7641  -19.6487   20.9786 C   0  0  0  0  0  0  0  0  0  0  0  0
    7.5727  -20.3306   19.9526 O   0  0  0  0  0  0  0  0  0  0  0  0
    8.6094  -15.6062   23.4922 C   0  0  0  0  0  0  0  0  0  0  0  0
    9.8516  -15.5652   23.6840 O   0  0  0  0  0  0  0  0  0  0  0  0
    8.1445  -20.2753   22.1560 O   0  0  0  0  0  0  0  0  0  0  0  0
    5.7901  -11.8506   26.2486 C   0  0  0  0  0  0  0  0  0  0  0  0
    6.8883  -12.6220   25.4509 C   0  0  1  0  0  0  0  0  0  0  0  0
    7.9432  -11.5711   25.1602 C   0  0  0  0  0  0  0  0  0  0  0  0
    7.3959  -13.7018   26.3093 C   0  0  0  0  0  0  0  0  0  0  0  0
    8.3646  -14.7125   25.7944 C   0  0  2  0  0  0  0  0  0  0  0  0
    7.7570  -15.1413   24.5083 N   0  0  0  0  0  0  0  0  0  0  0  0
    8.6433  -15.8888   26.6266 C   0  0  0  0  0  0  0  0  0  0  0  0
    9.0226  -15.8616   27.8129 O   0  0  0  0  0  0  0  0  0  0  0  0
    7.5044  -20.5181   28.8125 C   0  0  0  0  0  0  0  0  0  0  0  0
    7.9414  -20.7692   27.3513 C   0  0  1  0  0  0  0  0  0  0  0  0
    7.0849  -21.9179   26.8772 C   0  0  0  0  0  0  0  0  0  0  0  0
    7.7595  -19.4944   26.6453 C   0  0  0  0  0  0  0  0  0  0  0  0
    8.7280  -18.3811   26.8951 C   0  0  2  0  0  0  0  0  0  0  0  0
    8.4921  -17.2253   26.1100 N   0  0  0  0  0  0  0  0  0  0  0  0
   10.1252  -18.8096   26.9678 C   0  0  0  0  0  0  0  0  0  0  0  0
   10.4803  -19.6425   27.8096 O   0  0  0  0  0  0  0  0  0  0  0  0
   11.0607  -18.3012   26.1126 O   0  0  0  0  0  0  0  0  0  0  0  0
  2  1  1  6
  2  3  1  0
  2  7  1  0
  4  5  1  0
  4  3  1  0
  5  6  2  0
  7  8  2  0
  9  5  1  0
 11 10  1  1
 11 12  1  0
 13 11  1  0
 14 13  1  1
 15 14  1  0
 15  7  1  0
 16 14  1  0
 16 17  2  0
 19 21  1  0
 19 18  1  1
 20 19  1  0
 22 21  1  6
 22 23  1  0
 22 24  1  0
 23 16  1  0
 24 25  2  0
 24 26  1  0
M  END
$$$$
