ELL.pdb
     RDKit          3D

 26 25  0  0  1  0  0  0  0  0999 V2000
    7.9838  -17.9851   22.1771 N   0  0  0  0  0  0  0  0  0  0  0  0
    9.3750  -17.6430   21.9588 C   0  0  1  0  0  0  0  0  0  0  0  0
    9.4934  -17.2211   20.5156 C   0  0  0  0  0  0  0  0  0  0  0  0
    8.8533  -18.3235   19.6712 C   0  0  0  0  0  0  0  0  0  0  0  0
    9.0619  -17.9881   18.2588 C   0  0  0  0  0  0  0  0  0  0  0  0
   10.2076  -17.8889   17.7772 O   0  0  0  0  0  0  0  0  0  0  0  0
    9.7418  -16.4903   22.8266 C   0  0  0  0  0  0  0  0  0  0  0  0
   10.8837  -15.9787   22.7005 O   0  0  0  0  0  0  0  0  0  0  0  0
    7.9574  -17.7782   17.4466 O   0  0  0  0  0  0  0  0  0  0  0  0
    5.8269  -13.1579   24.9617 C   0  0  0  0  0  0  0  0  0  0  0  0
    7.0333  -13.6902   24.1259 C   0  0  1  0  0  0  0  0  0  0  0  0
    7.5011  -12.4813   23.3377 C   0  0  0  0  0  0  0  0  0  0  0  0
    8.0548  -14.1752   25.0650 C   0  0  0  0  0  0  0  0  0  0  0  0
    9.3272  -14.7852   24.5813 C   0  0  2  0  0  0  0  0  0  0  0  0
    8.8639  -15.9475   23.7805 N   0  0  0  0  0  0  0  0  0  0  0  0
   10.3036  -15.2312   25.5820 C   0  0  0  0  0  0  0  0  0  0  0  0
   11.2201  -14.5348   26.0585 O   0  0  0  0  0  0  0  0  0  0  0  0
   10.0492  -14.4547   29.8383 C   0  0  0  0  0  0  0  0  0  0  0  0
   10.5010  -14.8335   28.4094 C   0  0  1  0  0  0  0  0  0  0  0  0
   11.6131  -13.8678   28.0802 C   0  0  0  0  0  0  0  0  0  0  0  0
   10.8732  -16.2531   28.4610 C   0  0  0  0  0  0  0  0  0  0  0  0
   11.1076  -16.9897   27.1796 C   0  0  2  0  0  0  0  0  0  0  0  0
   10.2740  -16.5703   26.1132 N   0  0  0  0  0  0  0  0  0  0  0  0
   11.2339  -18.4389   27.3378 C   0  0  0  0  0  0  0  0  0  0  0  0
   10.6082  -19.2052   26.5965 O   0  0  0  0  0  0  0  0  0  0  0  0
   12.0407  -18.9720   28.3022 O   0  0  0  0  0  0  0  0  0  0  0  0
  2  1  1  1
  2  3  1  0
  2  7  1  0
  4  5  1  0
  4  3  1  0
  5  6  2  0
  7  8  2  0
  9  5  1  0
 11 10  1  1
 11 12  1  0
 13 11  1  0
 14 13  1  1
 15 14  1  0
 15  7  1  0
 16 14  1  0
 16 17  2  0
 19 21  1  0
 19 18  1  1
 20 19  1  0
 22 21  1  1
 22 23  1  0
 22 24  1  0
 23 16  1  0
 24 25  2  0
 24 26  1  0
M  END
$$$$
