ELL.pdb
     RDKit          3D

 26 25  0  0  1  0  0  0  0  0999 V2000
    9.3470  -17.4217   20.5054 N   0  0  0  0  0  0  0  0  0  0  0  0
    8.5431  -17.5062   21.7083 C   0  0  1  0  0  0  0  0  0  0  0  0
    8.9419  -18.7838   22.4038 C   0  0  0  0  0  0  0  0  0  0  0  0
   10.2442  -19.2590   21.7588 C   0  0  0  0  0  0  0  0  0  0  0  0
   10.6369  -20.5142   22.4078 C   0  0  0  0  0  0  0  0  0  0  0  0
   11.3963  -20.5242   23.3966 O   0  0  0  0  0  0  0  0  0  0  0  0
    8.8635  -16.3563   22.5977 C   0  0  0  0  0  0  0  0  0  0  0  0
    9.9658  -15.7687   22.4518 O   0  0  0  0  0  0  0  0  0  0  0  0
   10.1497  -21.7122   21.9067 O   0  0  0  0  0  0  0  0  0  0  0  0
    7.4010  -11.8005   25.1211 C   0  0  0  0  0  0  0  0  0  0  0  0
    7.0462  -13.1034   25.9048 C   0  0  1  0  0  0  0  0  0  0  0  0
    5.6457  -12.8506   26.4306 C   0  0  0  0  0  0  0  0  0  0  0  0
    7.0940  -14.2271   24.9585 C   0  0  0  0  0  0  0  0  0  0  0  0
    8.3870  -14.7144   24.3966 C   0  0  2  0  0  0  0  0  0  0  0  0
    7.9841  -15.8975   23.5934 N   0  0  0  0  0  0  0  0  0  0  0  0
    9.4497  -15.0924   25.3356 C   0  0  0  0  0  0  0  0  0  0  0  0
   10.2516  -14.3060   25.8745 O   0  0  0  0  0  0  0  0  0  0  0  0
    9.7129  -14.2082   29.5299 C   0  0  0  0  0  0  0  0  0  0  0  0
   10.1961  -14.6446   28.1280 C   0  0  1  0  0  0  0  0  0  0  0  0
   11.5855  -14.0703   27.9952 C   0  0  0  0  0  0  0  0  0  0  0  0
   10.0979  -16.1096   28.0993 C   0  0  0  0  0  0  0  0  0  0  0  0
   10.4455  -16.8364   26.8382 C   0  0  2  0  0  0  0  0  0  0  0  0
    9.6546  -16.4651   25.7225 N   0  0  0  0  0  0  0  0  0  0  0  0
   10.6392  -18.2763   27.0122 C   0  0  0  0  0  0  0  0  0  0  0  0
   11.3113  -18.7067   27.9563 O   0  0  0  0  0  0  0  0  0  0  0  0
   10.0850  -19.1695   26.1403 O   0  0  0  0  0  0  0  0  0  0  0  0
  2  1  1  6
  2  3  1  0
  2  7  1  0
  4  5  1  0
  4  3  1  0
  5  6  2  0
  7  8  2  0
  9  5  1  0
 11 10  1  6
 11 12  1  0
 13 11  1  0
 14 13  1  1
 15 14  1  0
 15  7  1  0
 16 14  1  0
 16 17  2  0
 19 21  1  0
 19 18  1  1
 20 19  1  0
 22 21  1  1
 22 23  1  0
 22 24  1  0
 23 16  1  0
 24 25  2  0
 24 26  1  0
M  END
$$$$
