ELL.pdb
     RDKit          3D

 26 25  0  0  1  0  0  0  0  0999 V2000
    7.8266  -18.0389   21.7870 N   0  0  0  0  0  0  0  0  0  0  0  0
    9.1896  -17.5768   21.6167 C   0  0  1  0  0  0  0  0  0  0  0  0
    9.2887  -17.0361   20.2122 C   0  0  0  0  0  0  0  0  0  0  0  0
    8.8807  -18.1657   19.2659 C   0  0  0  0  0  0  0  0  0  0  0  0
    9.0749  -17.6940   17.8908 C   0  0  0  0  0  0  0  0  0  0  0  0
   10.1547  -17.8657   17.2917 O   0  0  0  0  0  0  0  0  0  0  0  0
    9.4593  -16.4710   22.5761 C   0  0  0  0  0  0  0  0  0  0  0  0
   10.5497  -15.8502   22.4911 O   0  0  0  0  0  0  0  0  0  0  0  0
    8.0314  -17.0442   17.2484 O   0  0  0  0  0  0  0  0  0  0  0  0
    5.6353  -13.1510   25.4738 C   0  0  0  0  0  0  0  0  0  0  0  0
    6.7616  -13.5142   24.4555 C   0  0  1  0  0  0  0  0  0  0  0  0
    7.5179  -12.2138   24.2589 C   0  0  0  0  0  0  0  0  0  0  0  0
    7.5972  -14.5613   25.0603 C   0  0  0  0  0  0  0  0  0  0  0  0
    8.9052  -14.9540   24.4603 C   0  0  2  0  0  0  0  0  0  0  0  0
    8.5447  -16.0895   23.5727 N   0  0  0  0  0  0  0  0  0  0  0  0
    9.9872  -15.3579   25.3659 C   0  0  0  0  0  0  0  0  0  0  0  0
   10.9826  -14.6673   25.6563 O   0  0  0  0  0  0  0  0  0  0  0  0
    9.8128  -14.5449   29.8323 C   0  0  0  0  0  0  0  0  0  0  0  0
   10.3127  -14.8699   28.4062 C   0  0  1  0  0  0  0  0  0  0  0  0
   11.5317  -14.0019   28.2100 C   0  0  0  0  0  0  0  0  0  0  0  0
   10.5411  -16.3202   28.3735 C   0  0  0  0  0  0  0  0  0  0  0  0
   10.8696  -16.9746   27.0684 C   0  0  2  0  0  0  0  0  0  0  0  0
    9.9789  -16.6430   26.0173 N   0  0  0  0  0  0  0  0  0  0  0  0
   11.2002  -18.3957   27.1789 C   0  0  0  0  0  0  0  0  0  0  0  0
   10.6622  -19.2222   26.4332 O   0  0  0  0  0  0  0  0  0  0  0  0
   12.1044  -18.8363   28.1027 O   0  0  0  0  0  0  0  0  0  0  0  0
  2  1  1  1
  2  3  1  0
  2  7  1  0
  4  5  1  0
  4  3  1  0
  5  6  2  0
  7  8  2  0
  9  5  1  0
 11 10  1  1
 11 12  1  0
 13 11  1  0
 14 13  1  1
 15 14  1  0
 15  7  1  0
 16 14  1  0
 16 17  2  0
 19 21  1  0
 19 18  1  1
 20 19  1  0
 22 21  1  1
 22 23  1  0
 22 24  1  0
 23 16  1  0
 24 25  2  0
 24 26  1  0
M  END
$$$$
