ELL.pdb
     RDKit          3D

 26 25  0  0  1  0  0  0  0  0999 V2000
    8.0392  -18.1829   21.5681 N   0  0  0  0  0  0  0  0  0  0  0  0
    9.3945  -17.6951   21.4087 C   0  0  1  0  0  0  0  0  0  0  0  0
    9.5374  -17.2848   19.9643 C   0  0  0  0  0  0  0  0  0  0  0  0
    9.3954  -18.5522   19.1209 C   0  0  0  0  0  0  0  0  0  0  0  0
    9.5962  -18.1834   17.7157 C   0  0  0  0  0  0  0  0  0  0  0  0
    8.6309  -17.9677   16.9566 O   0  0  0  0  0  0  0  0  0  0  0  0
    9.5920  -16.4965   22.2692 C   0  0  0  0  0  0  0  0  0  0  0  0
   10.6652  -15.8491   22.1658 O   0  0  0  0  0  0  0  0  0  0  0  0
   10.8895  -18.0736   17.2268 O   0  0  0  0  0  0  0  0  0  0  0  0
    7.8091  -11.9886   24.8019 C   0  0  0  0  0  0  0  0  0  0  0  0
    7.4744  -13.3443   25.5000 C   0  0  1  0  0  0  0  0  0  0  0  0
    6.0430  -13.1748   25.9732 C   0  0  0  0  0  0  0  0  0  0  0  0
    7.6102  -14.4131   24.5001 C   0  0  0  0  0  0  0  0  0  0  0  0
    8.9500  -14.8775   24.0370 C   0  0  2  0  0  0  0  0  0  0  0  0
    8.6276  -16.0560   23.1917 N   0  0  0  0  0  0  0  0  0  0  0  0
    9.9401  -15.2532   25.0530 C   0  0  0  0  0  0  0  0  0  0  0  0
   11.0575  -14.7236   25.2042 O   0  0  0  0  0  0  0  0  0  0  0  0
    9.1089  -14.4962   29.9029 C   0  0  0  0  0  0  0  0  0  0  0  0
    9.6512  -14.6850   28.4678 C   0  0  1  0  0  0  0  0  0  0  0  0
   10.7053  -13.6176   28.3027 C   0  0  0  0  0  0  0  0  0  0  0  0
   10.1212  -16.0740   28.3878 C   0  0  0  0  0  0  0  0  0  0  0  0
   10.5611  -16.6169   27.0644 C   0  0  2  0  0  0  0  0  0  0  0  0
    9.6820  -16.3120   25.9956 N   0  0  0  0  0  0  0  0  0  0  0  0
   11.0255  -18.0037   27.1119 C   0  0  0  0  0  0  0  0  0  0  0  0
   11.8273  -18.3647   27.9809 O   0  0  0  0  0  0  0  0  0  0  0  0
   10.5858  -18.9227   26.2024 O   0  0  0  0  0  0  0  0  0  0  0  0
  2  1  1  6
  2  3  1  0
  2  7  1  0
  4  5  1  0
  4  3  1  0
  5  6  2  0
  7  8  2  0
  9  5  1  0
 11 10  1  6
 11 12  1  0
 13 11  1  0
 14 13  1  1
 15 14  1  0
 15  7  1  0
 16 14  1  0
 16 17  2  0
 19 21  1  0
 19 18  1  1
 20 19  1  0
 22 21  1  1
 22 23  1  0
 22 24  1  0
 23 16  1  0
 24 25  2  0
 24 26  1  0
M  END
$$$$
