ELL.pdb
     RDKit          3D

 26 25  0  0  1  0  0  0  0  0999 V2000
   10.2875  -19.0756   19.8883 N   0  0  0  0  0  0  0  0  0  0  0  0
    9.1795  -18.5207   20.6398 C   0  0  1  0  0  0  0  0  0  0  0  0
    8.9594  -19.4339   21.8199 C   0  0  0  0  0  0  0  0  0  0  0  0
   10.1480  -20.3943   21.8728 C   0  0  0  0  0  0  0  0  0  0  0  0
    9.9142  -21.3410   22.9683 C   0  0  0  0  0  0  0  0  0  0  0  0
   10.7203  -22.2592   23.2163 O   0  0  0  0  0  0  0  0  0  0  0  0
    9.5514  -17.1696   21.1422 C   0  0  0  0  0  0  0  0  0  0  0  0
   10.7702  -16.8716   21.2283 O   0  0  0  0  0  0  0  0  0  0  0  0
    8.7705  -21.2068   23.7413 O   0  0  0  0  0  0  0  0  0  0  0  0
    6.5372  -12.6737   19.9890 C   0  0  0  0  0  0  0  0  0  0  0  0
    7.8145  -13.5650   20.0963 C   0  0  1  0  0  0  0  0  0  0  0  0
    8.9381  -12.6620   19.6231 C   0  0  0  0  0  0  0  0  0  0  0  0
    7.9711  -13.9628   21.5026 C   0  0  0  0  0  0  0  0  0  0  0  0
    9.0761  -14.8667   21.9354 C   0  0  2  0  0  0  0  0  0  0  0  0
    8.5967  -16.2110   21.5228 N   0  0  0  0  0  0  0  0  0  0  0  0
    9.4367  -14.8849   23.3578 C   0  0  0  0  0  0  0  0  0  0  0  0
   10.2735  -14.1389   23.9011 O   0  0  0  0  0  0  0  0  0  0  0  0
    6.2700  -14.1462   26.3249 C   0  0  0  0  0  0  0  0  0  0  0  0
    7.5638  -13.6089   25.6716 C   0  0  1  0  0  0  0  0  0  0  0  0
    7.5658  -12.1283   25.9643 C   0  0  0  0  0  0  0  0  0  0  0  0
    8.6676  -14.3833   26.2535 C   0  0  0  0  0  0  0  0  0  0  0  0
    8.9949  -15.7259   25.6791 C   0  0  2  0  0  0  0  0  0  0  0  0
    8.8213  -15.8098   24.2753 N   0  0  0  0  0  0  0  0  0  0  0  0
    8.4521  -16.8506   26.4417 C   0  0  0  0  0  0  0  0  0  0  0  0
    8.5120  -16.8551   27.6765 O   0  0  0  0  0  0  0  0  0  0  0  0
    7.8716  -17.9126   25.8091 O   0  0  0  0  0  0  0  0  0  0  0  0
  2  1  1  6
  2  3  1  0
  2  7  1  0
  4  5  1  0
  4  3  1  0
  5  6  2  0
  7  8  2  0
  9  5  1  0
 11 10  1  1
 11 12  1  0
 13 11  1  0
 14 13  1  1
 15 14  1  0
 15  7  1  0
 16 14  1  0
 16 17  2  0
 19 21  1  0
 19 18  1  1
 20 19  1  0
 22 21  1  1
 22 23  1  0
 22 24  1  0
 23 16  1  0
 24 25  2  0
 24 26  1  0
M  END
$$$$
