ELL.pdb
     RDKit          3D

 26 25  0  0  1  0  0  0  0  0999 V2000
    9.4281  -18.7280   20.4278 N   0  0  0  0  0  0  0  0  0  0  0  0
   10.7300  -18.1679   20.7306 C   0  0  1  0  0  0  0  0  0  0  0  0
   11.4316  -17.9707   19.4100 C   0  0  0  0  0  0  0  0  0  0  0  0
   11.4241  -19.3202   18.6913 C   0  0  0  0  0  0  0  0  0  0  0  0
   12.2391  -19.1898   17.4790 C   0  0  0  0  0  0  0  0  0  0  0  0
   12.8647  -18.1413   17.2266 O   0  0  0  0  0  0  0  0  0  0  0  0
   10.5567  -16.8415   21.3839 C   0  0  0  0  0  0  0  0  0  0  0  0
   11.5786  -16.2268   21.7832 O   0  0  0  0  0  0  0  0  0  0  0  0
   12.3118  -20.2591   16.5986 O   0  0  0  0  0  0  0  0  0  0  0  0
    6.2345  -13.5725   20.1002 C   0  0  0  0  0  0  0  0  0  0  0  0
    7.7430  -13.9271   20.2901 C   0  0  1  0  0  0  0  0  0  0  0  0
    8.4707  -12.6332   19.9774 C   0  0  0  0  0  0  0  0  0  0  0  0
    7.9350  -14.3543   21.6833 C   0  0  0  0  0  0  0  0  0  0  0  0
    9.2462  -14.8822   22.1599 C   0  0  2  0  0  0  0  0  0  0  0  0
    9.2979  -16.2454   21.5715 N   0  0  0  0  0  0  0  0  0  0  0  0
    9.4750  -14.9589   23.6075 C   0  0  0  0  0  0  0  0  0  0  0  0
   10.2621  -14.2417   24.2541 O   0  0  0  0  0  0  0  0  0  0  0  0
    5.9776  -14.6364   26.0695 C   0  0  0  0  0  0  0  0  0  0  0  0
    7.2674  -13.8357   25.7785 C   0  0  1  0  0  0  0  0  0  0  0  0
    6.9961  -12.4485   26.3074 C   0  0  0  0  0  0  0  0  0  0  0  0
    8.3604  -14.5714   26.4272 C   0  0  0  0  0  0  0  0  0  0  0  0
    8.8046  -15.8759   25.8438 C   0  0  2  0  0  0  0  0  0  0  0  0
    8.7738  -15.9139   24.4276 N   0  0  0  0  0  0  0  0  0  0  0  0
    8.2425  -17.0510   26.5102 C   0  0  0  0  0  0  0  0  0  0  0  0
    8.2251  -17.1207   27.7444 O   0  0  0  0  0  0  0  0  0  0  0  0
    7.7285  -18.0893   25.7871 O   0  0  0  0  0  0  0  0  0  0  0  0
  2  1  1  6
  2  3  1  0
  2  7  1  0
  4  5  1  0
  4  3  1  0
  5  6  2  0
  7  8  2  0
  9  5  1  0
 11 10  1  1
 11 12  1  0
 13 11  1  0
 14 13  1  1
 15 14  1  0
 15  7  1  0
 16 14  1  0
 16 17  2  0
 19 21  1  0
 19 18  1  1
 20 19  1  0
 22 21  1  1
 22 23  1  0
 22 24  1  0
 23 16  1  0
 24 25  2  0
 24 26  1  0
M  END
$$$$
