ELL.pdb
     RDKit          3D

 26 25  0  0  1  0  0  0  0  0999 V2000
    8.9523  -18.8595   20.7502 N   0  0  0  0  0  0  0  0  0  0  0  0
   10.2966  -18.3290   20.8576 C   0  0  1  0  0  0  0  0  0  0  0  0
   10.8507  -18.2729   19.4559 C   0  0  0  0  0  0  0  0  0  0  0  0
   10.8592  -19.7042   18.9183 C   0  0  0  0  0  0  0  0  0  0  0  0
   11.5528  -19.6964   17.6261 C   0  0  0  0  0  0  0  0  0  0  0  0
   12.7964  -19.7509   17.5561 O   0  0  0  0  0  0  0  0  0  0  0  0
   10.2392  -16.9463   21.4060 C   0  0  0  0  0  0  0  0  0  0  0  0
   11.3182  -16.3466   21.6463 O   0  0  0  0  0  0  0  0  0  0  0  0
   10.8039  -19.6269   16.4607 O   0  0  0  0  0  0  0  0  0  0  0  0
    6.0964  -13.7000   19.9302 C   0  0  0  0  0  0  0  0  0  0  0  0
    7.5617  -14.2002   20.1301 C   0  0  1  0  0  0  0  0  0  0  0  0
    8.4116  -13.1377   19.4589 C   0  0  0  0  0  0  0  0  0  0  0  0
    7.8157  -14.2892   21.5751 C   0  0  0  0  0  0  0  0  0  0  0  0
    9.0857  -14.8636   22.1063 C   0  0  2  0  0  0  0  0  0  0  0  0
    9.0286  -16.2809   21.6647 N   0  0  0  0  0  0  0  0  0  0  0  0
    9.3178  -14.8054   23.5543 C   0  0  0  0  0  0  0  0  0  0  0  0
   10.0461  -13.9796   24.1371 O   0  0  0  0  0  0  0  0  0  0  0  0
    6.4371  -12.6291   26.5420 C   0  0  0  0  0  0  0  0  0  0  0  0
    7.7743  -13.2470   26.0735 C   0  0  1  0  0  0  0  0  0  0  0  0
    8.8441  -12.4449   26.7736 C   0  0  0  0  0  0  0  0  0  0  0  0
    7.7084  -14.6732   26.4172 C   0  0  0  0  0  0  0  0  0  0  0  0
    8.7410  -15.6029   25.8613 C   0  0  2  0  0  0  0  0  0  0  0  0
    8.6917  -15.7424   24.4520 N   0  0  0  0  0  0  0  0  0  0  0  0
    8.8813  -16.8545   26.6061 C   0  0  0  0  0  0  0  0  0  0  0  0
    8.8862  -17.9383   26.0113 O   0  0  0  0  0  0  0  0  0  0  0  0
    9.0086  -16.8517   27.9658 O   0  0  0  0  0  0  0  0  0  0  0  0
  2  1  1  6
  2  3  1  0
  2  7  1  0
  4  5  1  0
  4  3  1  0
  5  6  2  0
  7  8  2  0
  9  5  1  0
 11 10  1  1
 11 12  1  0
 13 11  1  0
 14 13  1  1
 15 14  1  0
 15  7  1  0
 16 14  1  0
 16 17  2  0
 19 21  1  0
 19 18  1  1
 20 19  1  0
 22 21  1  1
 22 23  1  0
 22 24  1  0
 23 16  1  0
 24 25  2  0
 24 26  1  0
M  END
$$$$
