YNP.pdb
     RDKit          3D

 28 29  0  0  1  0  0  0  0  0999 V2000
   27.6119  -11.0993  -17.0488 O   0  0  0  0  0  0  0  0  0  0  0  0
   26.9880  -12.2827  -16.6396 C   0  0  0  0  0  0  0  0  0  0  0  0
   25.8167  -12.7228  -17.2188 C   0  0  0  0  0  0  0  0  0  0  0  0
   25.2078  -13.8913  -16.8091 C   0  0  0  0  0  0  0  0  0  0  0  0
   25.7398  -14.6722  -15.8043 C   0  0  0  0  0  0  0  0  0  0  0  0
   25.0860  -15.9311  -15.3616 C   0  0  0  0  0  0  0  0  0  0  0  0
   25.8544  -17.1208  -15.8912 C   0  0  2  0  0  0  0  0  0  0  0  0
   25.6187  -17.2479  -17.2941 N   0  0  0  0  0  0  0  0  0  0  0  0
   25.5441  -18.3597  -15.1337 C   0  0  0  0  0  0  0  0  0  0  0  0
   24.3866  -18.8529  -15.1536 O   0  0  0  0  0  0  0  0  0  0  0  0
   26.9173  -14.2310  -15.2212 C   0  0  0  0  0  0  0  0  0  0  0  0
   27.5220  -13.0620  -15.6344 C   0  0  0  0  0  0  0  0  0  0  0  0
   28.1504  -21.3413  -16.3707 N   0  0  0  0  0  0  0  0  0  0  0  0
   27.2021  -21.6975  -15.3834 C   0  0  0  0  0  0  0  0  0  0  0  0
   26.2222  -22.4060  -15.6941 O   0  0  0  0  0  0  0  0  0  0  0  0
   27.3433  -21.2482  -13.9813 C   0  0  0  0  0  0  0  0  0  0  0  0
   26.2472  -20.2724  -13.6198 C   0  0  2  0  0  0  0  0  0  0  0  0
   26.5129  -19.0504  -14.3564 N   0  0  0  0  0  0  0  0  0  0  0  0
   26.3790  -20.0391  -12.1394 C   0  0  0  0  0  0  0  0  0  0  0  0
   27.2030  -19.1648  -11.7907 O   0  0  0  0  0  0  0  0  0  0  0  0
   25.6443  -20.7351  -11.1809 N   0  0  0  0  0  0  0  0  0  0  0  0
   24.6031  -21.7412  -11.4235 C   0  0  0  0  0  0  0  0  0  0  0  0
   23.6078  -21.3576  -10.3197 C   0  0  0  0  0  0  0  0  0  0  0  0
   24.5428  -21.2404   -9.1346 C   0  0  0  0  0  0  0  0  0  0  0  0
   25.7594  -20.6090   -9.7526 C   0  0  1  0  0  0  0  0  0  0  0  0
   26.9525  -21.2828   -9.2204 C   0  0  0  0  0  0  0  0  0  0  0  0
   27.5558  -22.1353   -9.9025 O   0  0  0  0  0  0  0  0  0  0  0  0
   27.4082  -20.9718   -7.9609 O   0  0  0  0  0  0  0  0  0  0  0  0
  2 12  2  0
  2  1  1  0
  3  2  1  0
  4  5  1  0
  4  3  2  0
  5 11  2  0
  6  7  1  0
  6  5  1  0
  7  8  1  6
  9  7  1  0
  9 10  2  0
 11 12  1  0
 13 14  1  0
 14 16  1  0
 15 14  2  0
 17 16  1  6
 17 18  1  0
 18  9  1  0
 19 17  1  0
 20 19  2  0
 21 22  1  0
 21 19  1  0
 22 23  1  0
 24 23  1  0
 25 21  1  0
 25 24  1  0
 25 26  1  1
 27 26  2  0
 28 26  1  0
M  END
$$$$
