YNP.pdb
     RDKit          3D

 28 29  0  0  1  0  0  0  0  0999 V2000
   16.9927  -24.8920  -15.9886 O   0  0  0  0  0  0  0  0  0  0  0  0
   18.0555  -24.0041  -15.7906 C   0  0  0  0  0  0  0  0  0  0  0  0
   19.3017  -24.4414  -15.3944 C   0  0  0  0  0  0  0  0  0  0  0  0
   20.3447  -23.5589  -15.2014 C   0  0  0  0  0  0  0  0  0  0  0  0
   20.1911  -22.2019  -15.3948 C   0  0  0  0  0  0  0  0  0  0  0  0
   21.3130  -21.2495  -15.1877 C   0  0  0  0  0  0  0  0  0  0  0  0
   21.6643  -21.1838  -13.7186 C   0  0  2  0  0  0  0  0  0  0  0  0
   20.5662  -20.6259  -12.9955 N   0  0  0  0  0  0  0  0  0  0  0  0
   22.9409  -20.4610  -13.4883 C   0  0  0  0  0  0  0  0  0  0  0  0
   22.9832  -19.2038  -13.5213 O   0  0  0  0  0  0  0  0  0  0  0  0
   18.9390  -21.7608  -15.7930 C   0  0  0  0  0  0  0  0  0  0  0  0
   17.8995  -22.6474  -15.9846 C   0  0  0  0  0  0  0  0  0  0  0  0
   25.3800  -20.4937  -10.4637 N   0  0  0  0  0  0  0  0  0  0  0  0
   26.3155  -21.3543  -11.0843 C   0  0  0  0  0  0  0  0  0  0  0  0
   27.0637  -22.0647  -10.3811 O   0  0  0  0  0  0  0  0  0  0  0  0
   26.4306  -21.4346  -12.5566 C   0  0  0  0  0  0  0  0  0  0  0  0
   25.4653  -20.4800  -13.2210 C   0  0  2  0  0  0  0  0  0  0  0  0
   24.1670  -21.1287  -13.2223 N   0  0  0  0  0  0  0  0  0  0  0  0
   25.9702  -20.3001  -14.6268 C   0  0  0  0  0  0  0  0  0  0  0  0
   25.4498  -21.0329  -15.4970 O   0  0  0  0  0  0  0  0  0  0  0  0
   26.9579  -19.3820  -14.9796 N   0  0  0  0  0  0  0  0  0  0  0  0
   27.7079  -18.4996  -14.0774 C   0  0  0  0  0  0  0  0  0  0  0  0
   27.7617  -17.2306  -14.9392 C   0  0  0  0  0  0  0  0  0  0  0  0
   28.2047  -17.8158  -16.2635 C   0  0  0  0  0  0  0  0  0  0  0  0
   27.4459  -19.1132  -16.3057 C   0  0  1  0  0  0  0  0  0  0  0  0
   28.3493  -20.1628  -16.7987 C   0  0  0  0  0  0  0  0  0  0  0  0
   28.7078  -21.0934  -16.0494 O   0  0  0  0  0  0  0  0  0  0  0  0
   28.8034  -20.1197  -18.0959 O   0  0  0  0  0  0  0  0  0  0  0  0
  2 12  2  0
  2  1  1  0
  3  2  1  0
  4  5  1  0
  4  3  2  0
  5 11  2  0
  6  7  1  0
  6  5  1  0
  7  8  1  1
  9  7  1  0
  9 10  2  0
 11 12  1  0
 13 14  1  0
 14 16  1  0
 15 14  2  0
 17 16  1  1
 17 18  1  0
 18  9  1  0
 19 17  1  0
 20 19  2  0
 21 22  1  0
 21 19  1  0
 22 23  1  0
 24 23  1  0
 25 21  1  0
 25 24  1  0
 25 26  1  1
 27 26  2  0
 28 26  1  0
M  END
$$$$
