YNP.pdb
     RDKit          3D

 28 29  0  0  1  0  0  0  0  0999 V2000
   27.9154  -19.0484   -3.3372 O   0  0  0  0  0  0  0  0  0  0  0  0
   27.7924  -19.5761   -4.6269 C   0  0  0  0  0  0  0  0  0  0  0  0
   27.1019  -20.7447   -4.8695 C   0  0  0  0  0  0  0  0  0  0  0  0
   26.9854  -21.2584   -6.1448 C   0  0  0  0  0  0  0  0  0  0  0  0
   27.5519  -20.6298   -7.2341 C   0  0  0  0  0  0  0  0  0  0  0  0
   27.4275  -21.1810   -8.6085 C   0  0  0  0  0  0  0  0  0  0  0  0
   26.4225  -20.3711   -9.3959 C   0  0  2  0  0  0  0  0  0  0  0  0
   25.1156  -20.5968   -8.8656 N   0  0  0  0  0  0  0  0  0  0  0  0
   26.5148  -20.6429  -10.8529 C   0  0  0  0  0  0  0  0  0  0  0  0
   27.6310  -20.8306  -11.4027 O   0  0  0  0  0  0  0  0  0  0  0  0
   28.2464  -19.4551   -6.9916 C   0  0  0  0  0  0  0  0  0  0  0  0
   28.3600  -18.9457   -5.7146 C   0  0  0  0  0  0  0  0  0  0  0  0
   25.3774  -23.6811  -13.0538 N   0  0  0  0  0  0  0  0  0  0  0  0
   24.1803  -23.0211  -13.4176 C   0  0  0  0  0  0  0  0  0  0  0  0
   23.1507  -23.6891  -13.6465 O   0  0  0  0  0  0  0  0  0  0  0  0
   24.1171  -21.5480  -13.5347 C   0  0  0  0  0  0  0  0  0  0  0  0
   25.4330  -20.9229  -13.1323 C   0  0  2  0  0  0  0  0  0  0  0  0
   25.3743  -20.7065  -11.6984 N   0  0  0  0  0  0  0  0  0  0  0  0
   25.5036  -19.6106  -13.8647 C   0  0  0  0  0  0  0  0  0  0  0  0
   24.6952  -18.7299  -13.4961 O   0  0  0  0  0  0  0  0  0  0  0  0
   26.4023  -19.3520  -14.8982 N   0  0  0  0  0  0  0  0  0  0  0  0
   27.4439  -20.2510  -15.4102 C   0  0  0  0  0  0  0  0  0  0  0  0
   28.5699  -19.2358  -15.6498 C   0  0  0  0  0  0  0  0  0  0  0  0
   27.8129  -18.1556  -16.3932 C   0  0  0  0  0  0  0  0  0  0  0  0
   26.4905  -18.1462  -15.6776 C   0  0  1  0  0  0  0  0  0  0  0  0
   25.4212  -18.0425  -16.6808 C   0  0  0  0  0  0  0  0  0  0  0  0
   24.7059  -19.0287  -16.9485 O   0  0  0  0  0  0  0  0  0  0  0  0
   25.2066  -16.8495  -17.3300 O   0  0  0  0  0  0  0  0  0  0  0  0
  2 12  2  0
  2  1  1  0
  3  2  1  0
  4  5  1  0
  4  3  2  0
  5 11  2  0
  6  7  1  0
  6  5  1  0
  7  8  1  1
  9  7  1  0
  9 10  2  0
 11 12  1  0
 13 14  1  0
 14 16  1  0
 15 14  2  0
 17 16  1  6
 17 18  1  0
 18  9  1  0
 19 17  1  0
 20 19  2  0
 21 22  1  0
 21 19  1  0
 22 23  1  0
 24 23  1  0
 25 21  1  0
 25 24  1  0
 25 26  1  6
 27 26  2  0
 28 26  1  0
M  END
$$$$
