YNP.pdb
     RDKit          3D

 28 29  0  0  1  0  0  0  0  0999 V2000
   20.6970  -21.7129   -8.0577 O   0  0  0  0  0  0  0  0  0  0  0  0
   21.8120  -21.2601   -8.7711 C   0  0  0  0  0  0  0  0  0  0  0  0
   21.8471  -21.2774  -10.1494 C   0  0  0  0  0  0  0  0  0  0  0  0
   22.9509  -20.8289  -10.8454 C   0  0  0  0  0  0  0  0  0  0  0  0
   24.0680  -20.3437  -10.1980 C   0  0  0  0  0  0  0  0  0  0  0  0
   25.2579  -19.8599  -10.9454 C   0  0  0  0  0  0  0  0  0  0  0  0
   26.0788  -21.0380  -11.4191 C   0  0  2  0  0  0  0  0  0  0  0  0
   26.8964  -21.5054  -10.3452 N   0  0  0  0  0  0  0  0  0  0  0  0
   26.8543  -20.7137  -12.6432 C   0  0  0  0  0  0  0  0  0  0  0  0
   27.9316  -20.0675  -12.5697 O   0  0  0  0  0  0  0  0  0  0  0  0
   24.0342  -20.3259   -8.8125 C   0  0  0  0  0  0  0  0  0  0  0  0
   22.9281  -20.7754   -8.1214 C   0  0  0  0  0  0  0  0  0  0  0  0
   29.1525  -22.3983  -17.4105 N   0  0  0  0  0  0  0  0  0  0  0  0
   27.8172  -21.9517  -17.2751 C   0  0  0  0  0  0  0  0  0  0  0  0
   27.2442  -21.4121  -18.2443 O   0  0  0  0  0  0  0  0  0  0  0  0
   27.0768  -22.1090  -16.0044 C   0  0  0  0  0  0  0  0  0  0  0  0
   27.2076  -20.8676  -15.1523 C   0  0  2  0  0  0  0  0  0  0  0  0
   26.4379  -21.1038  -13.9448 N   0  0  0  0  0  0  0  0  0  0  0  0
   26.6007  -19.7519  -15.9589 C   0  0  0  0  0  0  0  0  0  0  0  0
   25.3566  -19.6382  -15.8930 O   0  0  0  0  0  0  0  0  0  0  0  0
   27.3463  -18.8754  -16.7454 N   0  0  0  0  0  0  0  0  0  0  0  0
   28.8000  -18.8890  -16.9498 C   0  0  0  0  0  0  0  0  0  0  0  0
   29.0789  -17.3797  -16.9387 C   0  0  0  0  0  0  0  0  0  0  0  0
   28.0018  -16.8939  -17.8854 C   0  0  0  0  0  0  0  0  0  0  0  0
   26.8394  -17.7755  -17.5215 C   0  0  1  0  0  0  0  0  0  0  0  0
   26.1839  -18.2140  -18.7620 C   0  0  0  0  0  0  0  0  0  0  0  0
   26.3637  -19.3682  -19.1996 O   0  0  0  0  0  0  0  0  0  0  0  0
   25.3658  -17.3462  -19.4463 O   0  0  0  0  0  0  0  0  0  0  0  0
  2 12  2  0
  2  1  1  0
  3  2  1  0
  4  5  1  0
  4  3  2  0
  5 11  2  0
  6  7  1  0
  6  5  1  0
  7  8  1  1
  9  7  1  0
  9 10  2  0
 11 12  1  0
 13 14  1  0
 14 16  1  0
 15 14  2  0
 17 16  1  6
 17 18  1  0
 18  9  1  0
 19 17  1  0
 20 19  2  0
 21 22  1  0
 21 19  1  0
 22 23  1  0
 24 23  1  0
 25 21  1  0
 25 24  1  0
 25 26  1  6
 27 26  2  0
 28 26  1  0
M  END
$$$$
