YNP.pdb
     RDKit          3D

 28 29  0  0  1  0  0  0  0  0999 V2000
   15.9629  -18.4029  -16.1653 O   0  0  0  0  0  0  0  0  0  0  0  0
   17.1154  -19.1749  -15.9842 C   0  0  0  0  0  0  0  0  0  0  0  0
   17.3127  -20.3553  -16.6691 C   0  0  0  0  0  0  0  0  0  0  0  0
   18.4524  -21.1108  -16.4845 C   0  0  0  0  0  0  0  0  0  0  0  0
   19.4453  -20.7229  -15.6092 C   0  0  0  0  0  0  0  0  0  0  0  0
   20.6737  -21.5348  -15.4089 C   0  0  0  0  0  0  0  0  0  0  0  0
   21.6756  -21.2249  -16.4981 C   0  0  2  0  0  0  0  0  0  0  0  0
   21.5492  -22.1897  -17.5437 N   0  0  0  0  0  0  0  0  0  0  0  0
   23.0574  -21.1224  -15.9640 C   0  0  0  0  0  0  0  0  0  0  0  0
   23.7690  -22.1501  -15.8194 O   0  0  0  0  0  0  0  0  0  0  0  0
   19.2483  -19.5366  -14.9200 C   0  0  0  0  0  0  0  0  0  0  0  0
   18.1070  -18.7849  -15.1082 C   0  0  0  0  0  0  0  0  0  0  0  0
   27.4759  -19.1866  -14.0085 N   0  0  0  0  0  0  0  0  0  0  0  0
   26.7817  -18.1425  -14.6634 C   0  0  0  0  0  0  0  0  0  0  0  0
   27.3144  -17.0185  -14.7719 O   0  0  0  0  0  0  0  0  0  0  0  0
   25.4302  -18.3503  -15.2273 C   0  0  0  0  0  0  0  0  0  0  0  0
   24.9533  -19.7605  -14.9664 C   0  0  2  0  0  0  0  0  0  0  0  0
   23.6493  -19.8853  -15.5912 N   0  0  0  0  0  0  0  0  0  0  0  0
   24.8396  -19.8841  -13.4713 C   0  0  0  0  0  0  0  0  0  0  0  0
   23.8851  -19.2752  -12.9393 O   0  0  0  0  0  0  0  0  0  0  0  0
   25.7252  -20.6238  -12.6894 N   0  0  0  0  0  0  0  0  0  0  0  0
   26.9410  -21.3118  -13.1407 C   0  0  0  0  0  0  0  0  0  0  0  0
   26.8463  -22.5897  -12.2958 C   0  0  0  0  0  0  0  0  0  0  0  0
   26.5528  -21.9977  -10.9335 C   0  0  0  0  0  0  0  0  0  0  0  0
   25.6274  -20.8627  -11.2743 C   0  0  1  0  0  0  0  0  0  0  0  0
   26.0163  -19.6916  -10.4756 C   0  0  0  0  0  0  0  0  0  0  0  0
   26.7255  -18.7934  -10.9719 O   0  0  0  0  0  0  0  0  0  0  0  0
   25.5957  -19.5841   -9.1709 O   0  0  0  0  0  0  0  0  0  0  0  0
  2 12  2  0
  2  1  1  0
  3  2  1  0
  4  5  1  0
  4  3  2  0
  5 11  2  0
  6  7  1  0
  6  5  1  0
  7  8  1  6
  9  7  1  0
  9 10  2  0
 11 12  1  0
 13 14  1  0
 14 16  1  0
 15 14  2  0
 17 16  1  1
 17 18  1  0
 18  9  1  0
 19 17  1  0
 20 19  2  0
 21 22  1  0
 21 19  1  0
 22 23  1  0
 24 23  1  0
 25 21  1  0
 25 24  1  0
 25 26  1  1
 27 26  2  0
 28 26  1  0
M  END
$$$$
