YNP.pdb
     RDKit          3D

 28 29  0  0  1  0  0  0  0  0999 V2000
   30.2624  -22.5967  -19.8113 O   0  0  0  0  0  0  0  0  0  0  0  0
   29.6067  -21.8864  -18.8001 C   0  0  0  0  0  0  0  0  0  0  0  0
   29.5513  -20.5087  -18.8005 C   0  0  0  0  0  0  0  0  0  0  0  0
   28.9024  -19.8158  -17.7991 C   0  0  0  0  0  0  0  0  0  0  0  0
   28.2804  -20.4658  -16.7536 C   0  0  0  0  0  0  0  0  0  0  0  0
   27.5807  -19.7218  -15.6742 C   0  0  0  0  0  0  0  0  0  0  0  0
   26.0846  -19.8586  -15.8447 C   0  0  2  0  0  0  0  0  0  0  0  0
   25.6618  -19.0653  -16.9546 N   0  0  0  0  0  0  0  0  0  0  0  0
   25.3550  -19.5419  -14.5907 C   0  0  0  0  0  0  0  0  0  0  0  0
   25.2961  -18.3603  -14.1618 O   0  0  0  0  0  0  0  0  0  0  0  0
   28.3353  -21.8508  -16.7520 C   0  0  0  0  0  0  0  0  0  0  0  0
   28.9853  -22.5388  -17.7556 C   0  0  0  0  0  0  0  0  0  0  0  0
   22.0974  -19.1349  -14.0678 N   0  0  0  0  0  0  0  0  0  0  0  0
   21.7721  -20.3285  -13.3819 C   0  0  0  0  0  0  0  0  0  0  0  0
   20.6312  -20.8206  -13.5037 O   0  0  0  0  0  0  0  0  0  0  0  0
   22.7573  -21.0136  -12.5172 C   0  0  0  0  0  0  0  0  0  0  0  0
   24.0775  -20.2778  -12.5241 C   0  0  2  0  0  0  0  0  0  0  0  0
   24.6927  -20.5308  -13.8140 N   0  0  0  0  0  0  0  0  0  0  0  0
   24.8930  -20.8900  -11.4179 C   0  0  0  0  0  0  0  0  0  0  0  0
   25.4323  -21.9892  -11.6746 O   0  0  0  0  0  0  0  0  0  0  0  0
   25.0619  -20.2989  -10.1669 N   0  0  0  0  0  0  0  0  0  0  0  0
   24.5832  -18.9781   -9.7409 C   0  0  0  0  0  0  0  0  0  0  0  0
   25.7849  -18.5236   -8.9012 C   0  0  0  0  0  0  0  0  0  0  0  0
   26.0119  -19.7583   -8.0548 C   0  0  0  0  0  0  0  0  0  0  0  0
   25.7416  -20.8672   -9.0337 C   0  0  1  0  0  0  0  0  0  0  0  0
   24.9443  -21.8996   -8.3561 C   0  0  0  0  0  0  0  0  0  0  0  0
   23.7353  -22.0452   -8.6264 O   0  0  0  0  0  0  0  0  0  0  0  0
   25.5346  -22.7120   -7.4169 O   0  0  0  0  0  0  0  0  0  0  0  0
  2 12  2  0
  2  1  1  0
  3  2  1  0
  4  5  1  0
  4  3  2  0
  5 11  2  0
  6  7  1  0
  6  5  1  0
  7  8  1  6
  9  7  1  0
  9 10  2  0
 11 12  1  0
 13 14  1  0
 14 16  1  0
 15 14  2  0
 17 16  1  6
 17 18  1  0
 18  9  1  0
 19 17  1  0
 20 19  2  0
 21 22  1  0
 21 19  1  0
 22 23  1  0
 24 23  1  0
 25 21  1  0
 25 24  1  0
 25 26  1  1
 27 26  2  0
 28 26  1  0
M  END
$$$$
