PSE.pdb
     RDKit          3D

 23 23  0  0  1  0  0  0  0  0999 V2000
   20.8987  -12.7198  -18.8426 N   0  0  0  0  0  0  0  0  0  0  0  0
   20.6973  -13.9912  -18.2118 C   0  0  0  0  0  0  0  0  0  0  0  0
   19.7463  -13.7344  -17.0368 C   0  0  0  0  0  0  0  0  0  0  0  0
   18.8513  -12.6508  -17.6558 C   0  0  0  0  0  0  0  0  0  0  0  0
   19.9527  -11.7745  -18.2748 C   0  0  1  0  0  0  0  0  0  0  0  0
   20.5497  -11.0407  -17.1214 C   0  0  0  0  0  0  0  0  0  0  0  0
   19.8008  -10.6957  -16.1890 O   0  0  0  0  0  0  0  0  0  0  0  0
   24.5599   -9.5281  -17.0965 O   0  0  0  0  0  0  0  0  0  0  0  0
   23.9621  -10.0079  -15.9526 C   0  0  0  0  0  0  0  0  0  0  0  0
   22.4401   -9.8748  -15.9920 C   0  0  2  0  0  0  0  0  0  0  0  0
   21.9432  -10.7182  -17.0446 N   0  0  0  0  0  0  0  0  0  0  0  0
   22.0845   -8.4479  -16.1979 C   0  0  0  0  0  0  0  0  0  0  0  0
   22.1960   -7.9834  -17.3546 O   0  0  0  0  0  0  0  0  0  0  0  0
   21.6418   -7.6820  -15.1034 N   0  0  0  0  0  0  0  0  0  0  0  0
   21.3665   -6.3017  -15.0069 C   0  0  1  0  0  0  0  0  0  0  0  0
   19.8833   -6.0230  -15.2035 C   0  0  0  0  0  0  0  0  0  0  0  0
   19.5823   -4.5467  -15.1433 C   0  0  0  0  0  0  0  0  0  0  0  0
   18.2156   -4.2613  -15.6388 C   0  0  0  0  0  0  0  0  0  0  0  0
   17.8038   -3.0693  -15.5917 O   0  0  0  0  0  0  0  0  0  0  0  0
   21.9935   -5.5477  -13.9402 C   0  0  0  0  0  0  0  0  0  0  0  0
   22.3498   -4.3611  -14.1505 O   0  0  0  0  0  0  0  0  0  0  0  0
   17.4057   -5.2423  -16.1400 O   0  0  0  0  0  0  0  0  0  0  0  0
   22.2301   -6.0640  -12.6744 O   0  0  0  0  0  0  0  0  0  0  0  0
  1  2  1  0
  2  3  1  0
  4  3  1  0
  5  1  1  0
  5  4  1  0
  5  6  1  1
  7  6  2  0
  8  9  1  0
 10  9  1  6
 10 11  1  0
 10 12  1  0
 11  6  1  0
 12 14  1  0
 13 12  2  0
 14 15  1  0
 15 16  1  1
 15 20  1  0
 16 17  1  0
 17 18  1  0
 18 22  1  0
 19 18  2  0
 20 21  2  0
 20 23  1  0
M  END
$$$$
