PSE.pdb
     RDKit          3D

 23 23  0  0  1  0  0  0  0  0999 V2000
   26.4566  -12.1800  -15.6991 N   0  0  0  0  0  0  0  0  0  0  0  0
   26.7199  -12.9472  -16.8810 C   0  0  0  0  0  0  0  0  0  0  0  0
   27.3043  -11.9639  -17.9021 C   0  0  0  0  0  0  0  0  0  0  0  0
   28.1185  -11.0629  -16.9622 C   0  0  0  0  0  0  0  0  0  0  0  0
   27.0610  -10.8690  -15.8629 C   0  0  1  0  0  0  0  0  0  0  0  0
   26.0885   -9.8943  -16.4368 C   0  0  0  0  0  0  0  0  0  0  0  0
   26.5294   -8.8387  -16.9273 O   0  0  0  0  0  0  0  0  0  0  0  0
   21.8761  -10.2900  -16.0310 O   0  0  0  0  0  0  0  0  0  0  0  0
   22.4162   -9.7816  -17.1911 C   0  0  0  0  0  0  0  0  0  0  0  0
   23.7771   -9.1255  -16.9603 C   0  0  2  0  0  0  0  0  0  0  0  0
   24.6746  -10.1230  -16.4452 N   0  0  0  0  0  0  0  0  0  0  0  0
   23.6106   -7.9818  -16.0280 C   0  0  0  0  0  0  0  0  0  0  0  0
   23.6652   -8.2212  -14.8009 O   0  0  0  0  0  0  0  0  0  0  0  0
   23.4014   -6.6913  -16.5490 N   0  0  0  0  0  0  0  0  0  0  0  0
   23.2337   -5.4562  -15.8880 C   0  0  1  0  0  0  0  0  0  0  0  0
   23.4583   -4.2898  -16.8394 C   0  0  0  0  0  0  0  0  0  0  0  0
   23.5278   -2.9764  -16.1019 C   0  0  0  0  0  0  0  0  0  0  0  0
   23.7258   -1.8480  -17.0413 C   0  0  0  0  0  0  0  0  0  0  0  0
   22.7697   -1.5346  -17.8029 O   0  0  0  0  0  0  0  0  0  0  0  0
   22.1067   -5.3037  -14.9900 C   0  0  0  0  0  0  0  0  0  0  0  0
   20.9671   -5.6821  -15.3606 O   0  0  0  0  0  0  0  0  0  0  0  0
   24.8995   -1.1488  -17.0985 O   0  0  0  0  0  0  0  0  0  0  0  0
   22.2087   -4.7548  -13.7200 O   0  0  0  0  0  0  0  0  0  0  0  0
  1  2  1  0
  2  3  1  0
  4  3  1  0
  5  1  1  0
  5  4  1  0
  5  6  1  6
  7  6  2  0
  8  9  1  0
 10  9  1  1
 10 11  1  0
 10 12  1  0
 11  6  1  0
 12 14  1  0
 13 12  2  0
 14 15  1  0
 15 16  1  6
 15 20  1  0
 16 17  1  0
 17 18  1  0
 18 22  1  0
 19 18  2  0
 20 21  2  0
 20 23  1  0
M  END
$$$$
