PSE.pdb
     RDKit          3D

 23 23  0  0  1  0  0  0  0  0999 V2000
   21.9308  -11.6267  -19.0759 N   0  0  0  0  0  0  0  0  0  0  0  0
   21.9930  -12.9783  -18.6024 C   0  0  0  0  0  0  0  0  0  0  0  0
   20.7008  -13.2087  -17.8099 C   0  0  0  0  0  0  0  0  0  0  0  0
   19.7246  -12.3736  -18.6513 C   0  0  0  0  0  0  0  0  0  0  0  0
   20.5936  -11.1170  -18.8246 C   0  0  1  0  0  0  0  0  0  0  0  0
   20.5209  -10.4185  -17.5086 C   0  0  0  0  0  0  0  0  0  0  0  0
   19.4065  -10.0464  -17.0978 O   0  0  0  0  0  0  0  0  0  0  0  0
   23.8310   -9.9701  -14.8280 O   0  0  0  0  0  0  0  0  0  0  0  0
   22.5138  -10.1093  -14.4515 C   0  0  0  0  0  0  0  0  0  0  0  0
   21.5523   -9.4660  -15.4502 C   0  0  2  0  0  0  0  0  0  0  0  0
   21.6766  -10.1594  -16.7031 N   0  0  0  0  0  0  0  0  0  0  0  0
   21.8754   -8.0217  -15.5710 C   0  0  0  0  0  0  0  0  0  0  0  0
   22.8118   -7.6988  -16.3358 O   0  0  0  0  0  0  0  0  0  0  0  0
   21.1292   -7.0834  -14.8337 N   0  0  0  0  0  0  0  0  0  0  0  0
   21.2772   -5.6849  -14.7213 C   0  0  1  0  0  0  0  0  0  0  0  0
   19.9404   -4.9766  -14.8861 C   0  0  0  0  0  0  0  0  0  0  0  0
   20.0991   -3.4773  -14.8636 C   0  0  0  0  0  0  0  0  0  0  0  0
   18.8044   -2.8009  -15.1108 C   0  0  0  0  0  0  0  0  0  0  0  0
   18.7787   -1.5396  -15.0835 O   0  0  0  0  0  0  0  0  0  0  0  0
   22.1175   -5.1648  -13.6615 C   0  0  0  0  0  0  0  0  0  0  0  0
   22.7973   -4.1279  -13.8660 O   0  0  0  0  0  0  0  0  0  0  0  0
   17.6575   -3.5001  -15.3664 O   0  0  0  0  0  0  0  0  0  0  0  0
   22.2207   -5.7517  -12.4086 O   0  0  0  0  0  0  0  0  0  0  0  0
  1  2  1  0
  2  3  1  0
  4  3  1  0
  5  1  1  0
  5  4  1  0
  5  6  1  1
  7  6  2  0
  8  9  1  0
 10  9  1  1
 10 11  1  0
 10 12  1  0
 11  6  1  0
 12 14  1  0
 13 12  2  0
 14 15  1  0
 15 16  1  1
 15 20  1  0
 16 17  1  0
 17 18  1  0
 18 22  1  0
 19 18  2  0
 20 21  2  0
 20 23  1  0
M  END
$$$$
