PSE.pdb
     RDKit          3D

 23 23  0  0  1  0  0  0  0  0999 V2000
   19.4637  -13.5021  -15.8095 N   0  0  0  0  0  0  0  0  0  0  0  0
   18.9322  -14.2288  -16.9251 C   0  0  0  0  0  0  0  0  0  0  0  0
   19.2815  -13.4061  -18.1709 C   0  0  0  0  0  0  0  0  0  0  0  0
   20.6584  -12.8694  -17.7531 C   0  0  0  0  0  0  0  0  0  0  0  0
   20.3063  -12.4347  -16.3209 C   0  0  1  0  0  0  0  0  0  0  0  0
   19.5339  -11.1693  -16.4852 C   0  0  0  0  0  0  0  0  0  0  0  0
   20.0561  -10.2367  -17.1230 O   0  0  0  0  0  0  0  0  0  0  0  0
   15.8750  -10.8367  -14.7313 O   0  0  0  0  0  0  0  0  0  0  0  0
   16.0730   -9.9279  -15.7467 C   0  0  0  0  0  0  0  0  0  0  0  0
   17.5544   -9.7175  -16.0582 C   0  0  2  0  0  0  0  0  0  0  0  0
   18.2220  -10.9850  -15.9405 N   0  0  0  0  0  0  0  0  0  0  0  0
   18.1052   -8.7017  -15.1256 C   0  0  0  0  0  0  0  0  0  0  0  0
   18.8238   -9.1074  -14.1847 O   0  0  0  0  0  0  0  0  0  0  0  0
   17.8050   -7.3421  -15.3301 N   0  0  0  0  0  0  0  0  0  0  0  0
   18.3927   -6.1845  -14.7780 C   0  0  1  0  0  0  0  0  0  0  0  0
   19.9080   -6.3132  -14.7189 C   0  0  0  0  0  0  0  0  0  0  0  0
   20.5429   -5.1120  -14.0651 C   0  0  0  0  0  0  0  0  0  0  0  0
   22.0211   -5.1987  -14.1131 C   0  0  0  0  0  0  0  0  0  0  0  0
   22.5415   -6.0347  -14.9021 O   0  0  0  0  0  0  0  0  0  0  0  0
   17.9061   -4.8909  -15.2137 C   0  0  0  0  0  0  0  0  0  0  0  0
   17.5413   -4.7389  -16.4065 O   0  0  0  0  0  0  0  0  0  0  0  0
   22.8201   -4.4050  -13.3378 O   0  0  0  0  0  0  0  0  0  0  0  0
   17.8156   -3.7864  -14.3791 O   0  0  0  0  0  0  0  0  0  0  0  0
  1  2  1  0
  2  3  1  0
  4  3  1  0
  5  1  1  0
  5  4  1  0
  5  6  1  6
  7  6  2  0
  8  9  1  0
 10  9  1  1
 10 11  1  0
 10 12  1  0
 11  6  1  0
 12 14  1  0
 13 12  2  0
 14 15  1  0
 15 16  1  6
 15 20  1  0
 16 17  1  0
 17 18  1  0
 18 22  1  0
 19 18  2  0
 20 21  2  0
 20 23  1  0
M  END
$$$$
