PSE.pdb
     RDKit          3D

 23 23  0  0  1  0  0  0  0  0999 V2000
   20.9578  -11.4702  -17.4545 N   0  0  0  0  0  0  0  0  0  0  0  0
   20.1525  -12.4569  -16.7966 C   0  0  0  0  0  0  0  0  0  0  0  0
   18.7203  -11.9096  -16.8073 C   0  0  0  0  0  0  0  0  0  0  0  0
   18.7174  -11.2093  -18.1740 C   0  0  0  0  0  0  0  0  0  0  0  0
   20.0728  -10.4918  -18.0631 C   0  0  1  0  0  0  0  0  0  0  0  0
   19.8229   -9.3444  -17.1432 C   0  0  0  0  0  0  0  0  0  0  0  0
   19.0065   -8.4728  -17.4938 O   0  0  0  0  0  0  0  0  0  0  0  0
   21.8604   -8.7981  -13.4268 O   0  0  0  0  0  0  0  0  0  0  0  0
   20.5313   -8.4770  -13.5902 C   0  0  0  0  0  0  0  0  0  0  0  0
   20.2013   -8.0814  -15.0291 C   0  0  2  0  0  0  0  0  0  0  0  0
   20.4822   -9.2058  -15.8792 N   0  0  0  0  0  0  0  0  0  0  0  0
   20.9989   -6.8840  -15.3965 C   0  0  0  0  0  0  0  0  0  0  0  0
   22.0721   -7.0688  -16.0131 O   0  0  0  0  0  0  0  0  0  0  0  0
   20.5270   -5.6057  -15.0444 N   0  0  0  0  0  0  0  0  0  0  0  0
   21.1091   -4.3343  -15.2318 C   0  0  1  0  0  0  0  0  0  0  0  0
   20.0509   -3.2877  -15.5493 C   0  0  0  0  0  0  0  0  0  0  0  0
   20.6710   -1.9594  -15.9026 C   0  0  0  0  0  0  0  0  0  0  0  0
   19.6299   -0.9383  -16.1639 C   0  0  0  0  0  0  0  0  0  0  0  0
   19.8161    0.2273  -15.7176 O   0  0  0  0  0  0  0  0  0  0  0  0
   22.1351   -3.9035  -14.3036 C   0  0  0  0  0  0  0  0  0  0  0  0
   21.9250   -3.9909  -13.0678 O   0  0  0  0  0  0  0  0  0  0  0  0
   18.4933   -1.2244  -16.8681 O   0  0  0  0  0  0  0  0  0  0  0  0
   23.3608   -3.3899  -14.7019 O   0  0  0  0  0  0  0  0  0  0  0  0
  1  2  1  0
  2  3  1  0
  4  3  1  0
  5  1  1  0
  5  4  1  0
  5  6  1  1
  7  6  2  0
  8  9  1  0
 10  9  1  1
 10 11  1  0
 10 12  1  0
 11  6  1  0
 12 14  1  0
 13 12  2  0
 14 15  1  0
 15 16  1  1
 15 20  1  0
 16 17  1  0
 17 18  1  0
 18 22  1  0
 19 18  2  0
 20 21  2  0
 20 23  1  0
M  END
$$$$
