NNY.pdb
     RDKit          3D

 29 29  0  0  1  0  0  0  0  0999 V2000
   19.8088  -13.7124  -19.8923 N   0  0  0  0  0  0  0  0  0  0  0  0
   20.2050  -13.2732  -18.6164 C   0  0  0  0  0  0  0  0  0  0  0  0
   19.4061  -13.3366  -17.6634 O   0  0  0  0  0  0  0  0  0  0  0  0
   21.5574  -12.7389  -18.3982 C   0  0  0  0  0  0  0  0  0  0  0  0
   21.5415  -11.8432  -17.2071 C   0  0  2  0  0  0  0  0  0  0  0  0
   20.6368  -10.7578  -17.4527 N   0  0  0  0  0  0  0  0  0  0  0  0
   22.8704  -11.4095  -16.7609 C   0  0  0  0  0  0  0  0  0  0  0  0
   23.8266  -12.2251  -16.7838 O   0  0  0  0  0  0  0  0  0  0  0  0
   27.7255  -10.2869  -16.4061 N   0  0  0  0  0  0  0  0  0  0  0  0
   26.7931   -9.3595  -16.9548 C   0  0  0  0  0  0  0  0  0  0  0  0
   27.1227   -8.1776  -17.2122 O   0  0  0  0  0  0  0  0  0  0  0  0
   25.4258   -9.8231  -17.2141 C   0  0  0  0  0  0  0  0  0  0  0  0
   24.4849   -9.6075  -16.0567 C   0  0  2  0  0  0  0  0  0  0  0  0
   23.1599  -10.0810  -16.2872 N   0  0  0  0  0  0  0  0  0  0  0  0
   24.4523   -8.1689  -15.7068 C   0  0  0  0  0  0  0  0  0  0  0  0
   25.5257   -7.6151  -15.3687 O   0  0  0  0  0  0  0  0  0  0  0  0
   17.6457   -5.5494  -18.3493 O   0  0  0  0  0  0  0  0  0  0  0  0
   18.9746   -5.4763  -17.9414 C   0  0  0  0  0  0  0  0  0  0  0  0
   19.3444   -4.4705  -17.0819 C   0  0  0  0  0  0  0  0  0  0  0  0
   20.6755   -4.4171  -16.6883 C   0  0  0  0  0  0  0  0  0  0  0  0
   21.6004   -5.3375  -17.1396 C   0  0  0  0  0  0  0  0  0  0  0  0
   22.9902   -5.2305  -16.6967 C   0  0  0  0  0  0  0  0  0  0  0  0
   23.2876   -5.9731  -15.4113 C   0  0  2  0  0  0  0  0  0  0  0  0
   23.2796   -7.3739  -15.7297 N   0  0  0  0  0  0  0  0  0  0  0  0
   22.2622   -5.7475  -14.3680 C   0  0  0  0  0  0  0  0  0  0  0  0
   21.4268   -6.6376  -14.0299 O   0  0  0  0  0  0  0  0  0  0  0  0
   21.1959   -6.3390  -18.0052 C   0  0  0  0  0  0  0  0  0  0  0  0
   19.8736   -6.4132  -18.4122 C   0  0  0  0  0  0  0  0  0  0  0  0
   22.1710   -4.5378  -13.7071 O   0  0  0  0  0  0  0  0  0  0  0  0
  2  3  2  0
  2  1  1  0
  4  2  1  0
  5  4  1  0
  5  6  1  6
  7  8  2  0
  7  5  1  0
 10  9  1  0
 10 12  1  0
 11 10  2  0
 13 12  1  6
 13 14  1  0
 14  7  1  0
 15 13  1  0
 16 15  2  0
 18 17  1  0
 18 28  2  0
 19 18  1  0
 20 19  2  0
 20 21  1  0
 21 27  2  0
 22 21  1  0
 23 22  1  6
 23 24  1  0
 24 15  1  0
 25 23  1  0
 26 25  2  0
 27 28  1  0
 29 25  1  0
M  END
$$$$
