NNY.pdb
     RDKit          3D

 29 29  0  0  1  0  0  0  0  0999 V2000
   16.9860  -13.0403  -15.0999 N   0  0  0  0  0  0  0  0  0  0  0  0
   18.2454  -12.4518  -15.3131 C   0  0  0  0  0  0  0  0  0  0  0  0
   19.2349  -13.1719  -15.5430 O   0  0  0  0  0  0  0  0  0  0  0  0
   18.4034  -10.9907  -15.2668 C   0  0  0  0  0  0  0  0  0  0  0  0
   17.1217  -10.3755  -14.8195 C   0  0  2  0  0  0  0  0  0  0  0  0
   16.1647  -10.4673  -15.8838 N   0  0  0  0  0  0  0  0  0  0  0  0
   17.2615   -9.0214  -14.2717 C   0  0  0  0  0  0  0  0  0  0  0  0
   17.1097   -8.0297  -15.0291 O   0  0  0  0  0  0  0  0  0  0  0  0
   16.5458   -5.5052   -9.3251 N   0  0  0  0  0  0  0  0  0  0  0  0
   17.3138   -5.8793  -10.4657 C   0  0  0  0  0  0  0  0  0  0  0  0
   18.0980   -5.0719  -11.0179 O   0  0  0  0  0  0  0  0  0  0  0  0
   17.1647   -7.2434  -10.9841 C   0  0  0  0  0  0  0  0  0  0  0  0
   17.7139   -7.4244  -12.3758 C   0  0  2  0  0  0  0  0  0  0  0  0
   17.5682   -8.7453  -12.8923 N   0  0  0  0  0  0  0  0  0  0  0  0
   19.1406   -7.0282  -12.4003 C   0  0  0  0  0  0  0  0  0  0  0  0
   19.9228   -7.5731  -11.5850 O   0  0  0  0  0  0  0  0  0  0  0  0
   21.5432  -11.7082  -15.8008 O   0  0  0  0  0  0  0  0  0  0  0  0
   21.5229  -10.3368  -15.5633 C   0  0  0  0  0  0  0  0  0  0  0  0
   22.5269   -9.7857  -14.8047 C   0  0  0  0  0  0  0  0  0  0  0  0
   22.4863   -8.4154  -14.5808 C   0  0  0  0  0  0  0  0  0  0  0  0
   21.4772   -7.6278  -15.0980 C   0  0  0  0  0  0  0  0  0  0  0  0
   21.4813   -6.1907  -14.8261 C   0  0  0  0  0  0  0  0  0  0  0  0
   21.0932   -5.8294  -13.4081 C   0  0  2  0  0  0  0  0  0  0  0  0
   19.6814   -6.0676  -13.2906 N   0  0  0  0  0  0  0  0  0  0  0  0
   21.3320   -4.4029  -13.0937 C   0  0  0  0  0  0  0  0  0  0  0  0
   22.4921   -3.8943  -13.0746 O   0  0  0  0  0  0  0  0  0  0  0  0
   20.4799   -8.2137  -15.8583 C   0  0  0  0  0  0  0  0  0  0  0  0
   20.4986   -9.5786  -16.0957 C   0  0  0  0  0  0  0  0  0  0  0  0
   20.2839   -3.5511  -12.8036 O   0  0  0  0  0  0  0  0  0  0  0  0
  2  3  2  0
  2  1  1  0
  4  2  1  0
  5  4  1  0
  5  6  1  6
  7  8  2  0
  7  5  1  0
 10  9  1  0
 10 12  1  0
 11 10  2  0
 13 12  1  1
 13 14  1  0
 14  7  1  0
 15 13  1  0
 16 15  2  0
 18 17  1  0
 18 28  2  0
 19 18  1  0
 20 19  2  0
 20 21  1  0
 21 27  2  0
 22 21  1  0
 23 22  1  6
 23 24  1  0
 24 15  1  0
 25 23  1  0
 26 25  2  0
 27 28  1  0
 29 25  1  0
M  END
$$$$
