NNY.pdb
     RDKit          3D

 29 29  0  0  1  0  0  0  0  0999 V2000
   27.6778  -19.2352  -21.1449 N   0  0  0  0  0  0  0  0  0  0  0  0
   27.1294  -19.8601  -20.0106 C   0  0  0  0  0  0  0  0  0  0  0  0
   26.2948  -19.2547  -19.3123 O   0  0  0  0  0  0  0  0  0  0  0  0
   27.5343  -21.2246  -19.6418 C   0  0  0  0  0  0  0  0  0  0  0  0
   26.3216  -22.0868  -19.5564 C   0  0  2  0  0  0  0  0  0  0  0  0
   25.4061  -21.5108  -18.6145 N   0  0  0  0  0  0  0  0  0  0  0  0
   26.6058  -23.5044  -19.3062 C   0  0  0  0  0  0  0  0  0  0  0  0
   27.1701  -24.1881  -20.1974 O   0  0  0  0  0  0  0  0  0  0  0  0
   27.2675  -28.1960  -17.5797 N   0  0  0  0  0  0  0  0  0  0  0  0
   27.6703  -27.3140  -16.5355 C   0  0  0  0  0  0  0  0  0  0  0  0
   28.3008  -27.7314  -15.5355 O   0  0  0  0  0  0  0  0  0  0  0  0
   27.3274  -25.8930  -16.6580 C   0  0  0  0  0  0  0  0  0  0  0  0
   26.4959  -25.5748  -17.8740 C   0  0  2  0  0  0  0  0  0  0  0  0
   26.2741  -24.1814  -18.0795 N   0  0  0  0  0  0  0  0  0  0  0  0
   25.1989  -26.2839  -17.7860 C   0  0  0  0  0  0  0  0  0  0  0  0
   25.2065  -27.5383  -17.7813 O   0  0  0  0  0  0  0  0  0  0  0  0
   16.9316  -28.3716  -15.9439 O   0  0  0  0  0  0  0  0  0  0  0  0
   18.2251  -27.8668  -16.0417 C   0  0  0  0  0  0  0  0  0  0  0  0
   18.3928  -26.5110  -16.1861 C   0  0  0  0  0  0  0  0  0  0  0  0
   19.6923  -26.0297  -16.2816 C   0  0  0  0  0  0  0  0  0  0  0  0
   20.7821  -26.8759  -16.2341 C   0  0  0  0  0  0  0  0  0  0  0  0
   22.1283  -26.3150  -16.3448 C   0  0  0  0  0  0  0  0  0  0  0  0
   22.6968  -26.3460  -17.7476 C   0  0  2  0  0  0  0  0  0  0  0  0
   23.9430  -25.6325  -17.7064 N   0  0  0  0  0  0  0  0  0  0  0  0
   21.8272  -25.6671  -18.7343 C   0  0  0  0  0  0  0  0  0  0  0  0
   22.0030  -24.4618  -19.0820 O   0  0  0  0  0  0  0  0  0  0  0  0
   20.5794  -28.2374  -16.0881 C   0  0  0  0  0  0  0  0  0  0  0  0
   19.2926  -28.7416  -15.9906 C   0  0  0  0  0  0  0  0  0  0  0  0
   20.7702  -26.3291  -19.3284 O   0  0  0  0  0  0  0  0  0  0  0  0
  2  3  2  0
  2  1  1  0
  4  2  1  0
  5  4  1  0
  5  6  1  1
  7  8  2  0
  7  5  1  0
 10  9  1  0
 10 12  1  0
 11 10  2  0
 13 12  1  1
 13 14  1  0
 14  7  1  0
 15 13  1  0
 16 15  2  0
 18 17  1  0
 18 28  2  0
 19 18  1  0
 20 19  2  0
 20 21  1  0
 21 27  2  0
 22 21  1  0
 23 22  1  1
 23 24  1  0
 24 15  1  0
 25 23  1  0
 26 25  2  0
 27 28  1  0
 29 25  1  0
M  END
$$$$
