NNY.pdb
     RDKit          3D

 29 29  0  0  1  0  0  0  0  0999 V2000
   21.2742  -36.6775  -11.5238 N   0  0  0  0  0  0  0  0  0  0  0  0
   21.5227  -35.3208  -11.7983 C   0  0  0  0  0  0  0  0  0  0  0  0
   20.8489  -34.7299  -12.6629 O   0  0  0  0  0  0  0  0  0  0  0  0
   22.5735  -34.5930  -11.0715 C   0  0  0  0  0  0  0  0  0  0  0  0
   23.1854  -35.5011  -10.0605 C   0  0  2  0  0  0  0  0  0  0  0  0
   22.1769  -35.8998   -9.1219 N   0  0  0  0  0  0  0  0  0  0  0  0
   24.3980  -34.9694   -9.4279 C   0  0  0  0  0  0  0  0  0  0  0  0
   25.3220  -34.5142  -10.1483 O   0  0  0  0  0  0  0  0  0  0  0  0
   27.4459  -33.6959   -9.4574 N   0  0  0  0  0  0  0  0  0  0  0  0
   26.8260  -32.5832   -8.8185 C   0  0  0  0  0  0  0  0  0  0  0  0
   27.0718  -31.4063   -9.1739 O   0  0  0  0  0  0  0  0  0  0  0  0
   25.8847  -32.8482   -7.7251 C   0  0  0  0  0  0  0  0  0  0  0  0
   25.7365  -34.3116   -7.3968 C   0  0  2  0  0  0  0  0  0  0  0  0
   24.6058  -34.9332   -8.0036 N   0  0  0  0  0  0  0  0  0  0  0  0
   25.6791  -34.4857   -5.9273 C   0  0  0  0  0  0  0  0  0  0  0  0
   24.7794  -33.8850   -5.2924 O   0  0  0  0  0  0  0  0  0  0  0  0
   19.8303  -37.0696   -3.7290 O   0  0  0  0  0  0  0  0  0  0  0  0
   21.1864  -37.1127   -4.0399 C   0  0  0  0  0  0  0  0  0  0  0  0
   21.8755  -38.2800   -3.8168 C   0  0  0  0  0  0  0  0  0  0  0  0
   23.2277  -38.3000   -4.1345 C   0  0  0  0  0  0  0  0  0  0  0  0
   23.8644  -37.1916   -4.6560 C   0  0  0  0  0  0  0  0  0  0  0  0
   25.2914  -37.2672   -4.9674 C   0  0  0  0  0  0  0  0  0  0  0  0
   26.1403  -36.2592   -4.2222 C   0  0  2  0  0  0  0  0  0  0  0  0
   26.5805  -35.2918   -5.1887 N   0  0  0  0  0  0  0  0  0  0  0  0
   27.3474  -36.8632   -3.6148 C   0  0  0  0  0  0  0  0  0  0  0  0
   28.3530  -37.2135   -4.3010 O   0  0  0  0  0  0  0  0  0  0  0  0
   23.1418  -36.0303   -4.8689 C   0  0  0  0  0  0  0  0  0  0  0  0
   21.7919  -35.9856   -4.5600 C   0  0  0  0  0  0  0  0  0  0  0  0
   27.4312  -37.0736   -2.2521 O   0  0  0  0  0  0  0  0  0  0  0  0
  2  3  2  0
  2  1  1  0
  4  2  1  0
  5  4  1  0
  5  6  1  1
  7  8  2  0
  7  5  1  0
 10  9  1  0
 10 12  1  0
 11 10  2  0
 13 12  1  1
 13 14  1  0
 14  7  1  0
 15 13  1  0
 16 15  2  0
 18 17  1  0
 18 28  2  0
 19 18  1  0
 20 19  2  0
 20 21  1  0
 21 27  2  0
 22 21  1  0
 23 22  1  6
 23 24  1  0
 24 15  1  0
 25 23  1  0
 26 25  2  0
 27 28  1  0
 29 25  1  0
M  END
$$$$
