NNY.pdb
     RDKit          3D

 29 29  0  0  1  0  0  0  0  0999 V2000
   21.1318  -13.2269  -24.8341 N   0  0  0  0  0  0  0  0  0  0  0  0
   20.8938  -14.5396  -24.3890 C   0  0  0  0  0  0  0  0  0  0  0  0
   20.9022  -15.4813  -25.2037 O   0  0  0  0  0  0  0  0  0  0  0  0
   20.6346  -14.8096  -22.9671 C   0  0  0  0  0  0  0  0  0  0  0  0
   20.6938  -13.5279  -22.2087 C   0  0  2  0  0  0  0  0  0  0  0  0
   22.0582  -13.0915  -22.1376 N   0  0  0  0  0  0  0  0  0  0  0  0
   20.0219  -13.5671  -20.9048 C   0  0  0  0  0  0  0  0  0  0  0  0
   20.0501  -14.6251  -20.2267 O   0  0  0  0  0  0  0  0  0  0  0  0
   18.1631  -10.5659  -16.1242 N   0  0  0  0  0  0  0  0  0  0  0  0
   17.5674  -11.2380  -17.2305 C   0  0  0  0  0  0  0  0  0  0  0  0
   16.4960  -11.8771  -17.1060 O   0  0  0  0  0  0  0  0  0  0  0  0
   18.2423  -11.1647  -18.5308 C   0  0  0  0  0  0  0  0  0  0  0  0
   18.6407  -12.5097  -19.0816 C   0  0  2  0  0  0  0  0  0  0  0  0
   19.3156  -12.4487  -20.3361 N   0  0  0  0  0  0  0  0  0  0  0  0
   17.4426  -13.3725  -19.1951 C   0  0  0  0  0  0  0  0  0  0  0  0
   16.8548  -13.4307  -20.3017 O   0  0  0  0  0  0  0  0  0  0  0  0
   11.8515  -19.6244  -20.1487 O   0  0  0  0  0  0  0  0  0  0  0  0
   12.8808  -18.7070  -19.9577 C   0  0  0  0  0  0  0  0  0  0  0  0
   12.6429  -17.3835  -20.2387 C   0  0  0  0  0  0  0  0  0  0  0  0
   13.6845  -16.4861  -20.0406 C   0  0  0  0  0  0  0  0  0  0  0  0
   14.9177  -16.9003  -19.5782 C   0  0  0  0  0  0  0  0  0  0  0  0
   15.9803  -15.9126  -19.3928 C   0  0  0  0  0  0  0  0  0  0  0  0
   15.7280  -14.9389  -18.2613 C   0  0  2  0  0  0  0  0  0  0  0  0
   16.9150  -14.1408  -18.1278 N   0  0  0  0  0  0  0  0  0  0  0  0
   15.4967  -15.6138  -16.9644 C   0  0  0  0  0  0  0  0  0  0  0  0
   16.3744  -15.6556  -16.0520 O   0  0  0  0  0  0  0  0  0  0  0  0
   15.1255  -18.2410  -19.3043 C   0  0  0  0  0  0  0  0  0  0  0  0
   14.1020  -19.1555  -19.4939 C   0  0  0  0  0  0  0  0  0  0  0  0
   14.2948  -16.2363  -16.6885 O   0  0  0  0  0  0  0  0  0  0  0  0
  2  3  2  0
  2  1  1  0
  4  2  1  0
  5  4  1  0
  5  6  1  1
  7  8  2  0
  7  5  1  0
 10  9  1  0
 10 12  1  0
 11 10  2  0
 13 12  1  6
 13 14  1  0
 14  7  1  0
 15 13  1  0
 16 15  2  0
 18 17  1  0
 18 28  2  0
 19 18  1  0
 20 19  2  0
 20 21  1  0
 21 27  2  0
 22 21  1  0
 23 22  1  6
 23 24  1  0
 24 15  1  0
 25 23  1  0
 26 25  2  0
 27 28  1  0
 29 25  1  0
M  END
$$$$
