NNY.pdb
     RDKit          3D

 29 29  0  0  1  0  0  0  0  0999 V2000
   28.5205  -19.4450  -17.7244 N   0  0  0  0  0  0  0  0  0  0  0  0
   28.1622  -18.0882  -17.6320 C   0  0  0  0  0  0  0  0  0  0  0  0
   28.9546  -17.2101  -18.0214 O   0  0  0  0  0  0  0  0  0  0  0  0
   26.8573  -17.6974  -17.0783 C   0  0  0  0  0  0  0  0  0  0  0  0
   26.0891  -18.9253  -16.7271 C   0  0  2  0  0  0  0  0  0  0  0  0
   25.8894  -19.7051  -17.9142 N   0  0  0  0  0  0  0  0  0  0  0  0
   24.8532  -18.6701  -15.9784 C   0  0  0  0  0  0  0  0  0  0  0  0
   24.9044  -18.0163  -14.9059 O   0  0  0  0  0  0  0  0  0  0  0  0
   19.7070  -16.9539  -15.2430 N   0  0  0  0  0  0  0  0  0  0  0  0
   19.9474  -18.2486  -15.7876 C   0  0  0  0  0  0  0  0  0  0  0  0
   19.1267  -19.1838  -15.6342 O   0  0  0  0  0  0  0  0  0  0  0  0
   21.1886  -18.4646  -16.5388 C   0  0  0  0  0  0  0  0  0  0  0  0
   22.3588  -18.8551  -15.6731 C   0  0  2  0  0  0  0  0  0  0  0  0
   23.5549  -19.1287  -16.3992 N   0  0  0  0  0  0  0  0  0  0  0  0
   21.9925  -20.0271  -14.8452 C   0  0  0  0  0  0  0  0  0  0  0  0
   22.1711  -21.1724  -15.3245 O   0  0  0  0  0  0  0  0  0  0  0  0
   27.4601  -21.7910  -12.2149 O   0  0  0  0  0  0  0  0  0  0  0  0
   26.0978  -21.5781  -12.0236 C   0  0  0  0  0  0  0  0  0  0  0  0
   25.2088  -22.4618  -12.5856 C   0  0  0  0  0  0  0  0  0  0  0  0
   23.8545  -22.2297  -12.3815 C   0  0  0  0  0  0  0  0  0  0  0  0
   23.4089  -21.1524  -11.6420 C   0  0  0  0  0  0  0  0  0  0  0  0
   21.9710  -20.9533  -11.4635 C   0  0  0  0  0  0  0  0  0  0  0  0
   21.1653  -21.0943  -12.7375 C   0  0  2  0  0  0  0  0  0  0  0  0
   21.4503  -19.9367  -13.5392 N   0  0  0  0  0  0  0  0  0  0  0  0
   19.7056  -21.1187  -12.4935 C   0  0  0  0  0  0  0  0  0  0  0  0
   18.9378  -20.1799  -12.8591 O   0  0  0  0  0  0  0  0  0  0  0  0
   24.3304  -20.2800  -11.0889 C   0  0  0  0  0  0  0  0  0  0  0  0
   25.6867  -20.4904  -11.2784 C   0  0  0  0  0  0  0  0  0  0  0  0
   19.1081  -22.1833  -11.8469 O   0  0  0  0  0  0  0  0  0  0  0  0
  2  3  2  0
  2  1  1  0
  4  2  1  0
  5  4  1  0
  5  6  1  6
  7  8  2  0
  7  5  1  0
 10  9  1  0
 10 12  1  0
 11 10  2  0
 13 12  1  6
 13 14  1  0
 14  7  1  0
 15 13  1  0
 16 15  2  0
 18 17  1  0
 18 28  2  0
 19 18  1  0
 20 19  2  0
 20 21  1  0
 21 27  2  0
 22 21  1  0
 23 22  1  1
 23 24  1  0
 24 15  1  0
 25 23  1  0
 26 25  2  0
 27 28  1  0
 29 25  1  0
M  END
$$$$
