NNY.pdb
     RDKit          3D

 29 29  0  0  1  0  0  0  0  0999 V2000
   26.4679  -11.3513  -21.7244 N   0  0  0  0  0  0  0  0  0  0  0  0
   26.9519  -11.6463  -20.4373 C   0  0  0  0  0  0  0  0  0  0  0  0
   27.9475  -12.3822  -20.3033 O   0  0  0  0  0  0  0  0  0  0  0  0
   26.2908  -11.0920  -19.2467 C   0  0  0  0  0  0  0  0  0  0  0  0
   25.1196  -10.2758  -19.6747 C   0  0  2  0  0  0  0  0  0  0  0  0
   25.5870   -9.1546  -20.4372 N   0  0  0  0  0  0  0  0  0  0  0  0
   24.2115   -9.9052  -18.5834 C   0  0  0  0  0  0  0  0  0  0  0  0
   24.1756  -10.6101  -17.5431 O   0  0  0  0  0  0  0  0  0  0  0  0
   24.4076   -6.7300  -16.7236 N   0  0  0  0  0  0  0  0  0  0  0  0
   23.1649   -6.1158  -17.0541 C   0  0  0  0  0  0  0  0  0  0  0  0
   23.0058   -4.8754  -16.9646 O   0  0  0  0  0  0  0  0  0  0  0  0
   22.0656   -6.9756  -17.5056 C   0  0  0  0  0  0  0  0  0  0  0  0
   22.4300   -8.4363  -17.5742 C   0  0  2  0  0  0  0  0  0  0  0  0
   23.3379   -8.7615  -18.6244 N   0  0  0  0  0  0  0  0  0  0  0  0
   21.1982   -9.2481  -17.7034 C   0  0  0  0  0  0  0  0  0  0  0  0
   20.7254   -9.4321  -18.8506 O   0  0  0  0  0  0  0  0  0  0  0  0
   14.5637  -14.6320  -15.4077 O   0  0  0  0  0  0  0  0  0  0  0  0
   15.7317  -13.8770  -15.4662 C   0  0  0  0  0  0  0  0  0  0  0  0
   16.7962  -14.3669  -16.1831 C   0  0  0  0  0  0  0  0  0  0  0  0
   17.9513  -13.5966  -16.2277 C   0  0  0  0  0  0  0  0  0  0  0  0
   18.0355  -12.3813  -15.5781 C   0  0  0  0  0  0  0  0  0  0  0  0
   19.2784  -11.6143  -15.6545 C   0  0  0  0  0  0  0  0  0  0  0  0
   19.3017  -10.5850  -16.7644 C   0  0  2  0  0  0  0  0  0  0  0  0
   20.5159   -9.8332  -16.6080 N   0  0  0  0  0  0  0  0  0  0  0  0
   18.1734   -9.6304  -16.6854 C   0  0  0  0  0  0  0  0  0  0  0  0
   17.0886   -9.8039  -17.3163 O   0  0  0  0  0  0  0  0  0  0  0  0
   16.9451  -11.9155  -14.8640 C   0  0  0  0  0  0  0  0  0  0  0  0
   15.7817  -12.6656  -14.8047 C   0  0  0  0  0  0  0  0  0  0  0  0
   18.2554   -8.4916  -15.9078 O   0  0  0  0  0  0  0  0  0  0  0  0
  2  3  2  0
  2  1  1  0
  4  2  1  0
  5  4  1  0
  5  6  1  1
  7  8  2  0
  7  5  1  0
 10  9  1  0
 10 12  1  0
 11 10  2  0
 13 12  1  6
 13 14  1  0
 14  7  1  0
 15 13  1  0
 16 15  2  0
 18 17  1  0
 18 28  2  0
 19 18  1  0
 20 19  2  0
 20 21  1  0
 21 27  2  0
 22 21  1  0
 23 22  1  1
 23 24  1  0
 24 15  1  0
 25 23  1  0
 26 25  2  0
 27 28  1  0
 29 25  1  0
M  END
$$$$
