HWM.pdb
     RDKit          3D

 33 35  0  0  1  0  0  0  0  0999 V2000
   28.8402  -21.3534  -15.4529 N   0  0  0  0  0  0  0  0  0  0  0  0
   27.9310  -20.5395  -14.6940 C   0  0  1  0  0  0  0  0  0  0  0  0
   27.4514  -19.3796  -15.5093 C   0  0  0  0  0  0  0  0  0  0  0  0
   28.5512  -18.4623  -15.9256 C   0  0  0  0  0  0  0  0  0  0  0  0
   29.1524  -18.5177  -17.1766 C   0  0  0  0  0  0  0  0  0  0  0  0
   30.0888  -17.5496  -17.1855 N   0  0  0  0  0  0  0  0  0  0  0  0
   30.0766  -16.9166  -15.9977 C   0  0  0  0  0  0  0  0  0  0  0  0
   29.1327  -17.4784  -15.2270 N   0  0  0  0  0  0  0  0  0  0  0  0
   26.8143  -21.3288  -14.1145 C   0  0  0  0  0  0  0  0  0  0  0  0
   26.3754  -22.3192  -14.7509 O   0  0  0  0  0  0  0  0  0  0  0  0
   26.2493  -20.9748  -12.8674 N   0  0  0  0  0  0  0  0  0  0  0  0
   24.9986  -21.6079  -12.4319 C   0  0  1  0  0  0  0  0  0  0  0  0
   25.1838  -22.0373  -11.0217 C   0  0  0  0  0  0  0  0  0  0  0  0
   26.1304  -21.2091  -10.2596 C   0  0  0  0  0  0  0  0  0  0  0  0
   25.7315  -20.1906   -9.3760 C   0  0  0  0  0  0  0  0  0  0  0  0
   26.8159  -19.6475   -8.8117 N   0  0  0  0  0  0  0  0  0  0  0  0
   27.9354  -20.2442   -9.2668 C   0  0  0  0  0  0  0  0  0  0  0  0
   29.2691  -20.0287   -8.9901 C   0  0  0  0  0  0  0  0  0  0  0  0
   30.2042  -20.8041   -9.6329 C   0  0  0  0  0  0  0  0  0  0  0  0
   29.7756  -21.7583  -10.5217 C   0  0  0  0  0  0  0  0  0  0  0  0
   28.4562  -21.9782  -10.8012 C   0  0  0  0  0  0  0  0  0  0  0  0
   27.4955  -21.2112  -10.1656 C   0  0  0  0  0  0  0  0  0  0  0  0
   23.8337  -20.7532  -12.7120 C   0  0  0  0  0  0  0  0  0  0  0  0
   23.8859  -19.5294  -12.4433 O   0  0  0  0  0  0  0  0  0  0  0  0
   20.4378  -24.6204  -16.8630 C   0  0  0  0  0  0  0  0  0  0  0  0
   20.3644  -22.8281  -16.6734 S   0  0  0  0  0  0  0  0  0  0  0  0
   21.0771  -22.3100  -15.0716 C   0  0  0  0  0  0  0  0  0  0  0  0
   20.8944  -20.8406  -14.8504 C   0  0  0  0  0  0  0  0  0  0  0  0
   21.4817  -20.4096  -13.5524 C   0  0  2  0  0  0  0  0  0  0  0  0
   22.6589  -21.2704  -13.2740 N   0  0  0  0  0  0  0  0  0  0  0  0
   20.5398  -20.6316  -12.4430 C   0  0  0  0  0  0  0  0  0  0  0  0
   20.6852  -21.5173  -11.5901 O   0  0  0  0  0  0  0  0  0  0  0  0
   19.4142  -19.8178  -12.3187 O   0  0  0  0  0  0  0  0  0  0  0  0
  2  1  1  6
  2  3  1  0
  3  4  1  0
  4  8  1  0
  5  4  2  0
  5  6  1  0
  6  7  1  0
  8  7  2  0
  9  2  1  0
  9 10  2  0
 11  9  1  0
 12 13  1  1
 12 11  1  0
 13 14  1  0
 14 15  2  0
 14 22  1  0
 15 16  1  0
 16 17  1  0
 17 18  2  0
 18 19  1  0
 20 19  2  0
 21 20  1  0
 22 21  2  0
 22 17  1  0
 23 12  1  0
 24 23  2  0
 25 26  1  0
 26 27  1  0
 27 28  1  0
 29 28  1  6
 29 30  1  0
 30 23  1  0
 31 29  1  0
 31 33  1  0
 32 31  2  0
M  END
$$$$
