HWM.pdb
     RDKit          3D

 33 35  0  0  1  0  0  0  0  0999 V2000
   26.9109  -24.2210  -17.7087 N   0  0  0  0  0  0  0  0  0  0  0  0
   25.9385  -24.3637  -16.6604 C   0  0  1  0  0  0  0  0  0  0  0  0
   26.4213  -25.3215  -15.6166 C   0  0  0  0  0  0  0  0  0  0  0  0
   26.6973  -26.6844  -16.1555 C   0  0  0  0  0  0  0  0  0  0  0  0
   26.4453  -27.0443  -17.4733 C   0  0  0  0  0  0  0  0  0  0  0  0
   26.8155  -28.3344  -17.5868 N   0  0  0  0  0  0  0  0  0  0  0  0
   27.2776  -28.7642  -16.3979 C   0  0  0  0  0  0  0  0  0  0  0  0
   27.2040  -27.7503  -15.5220 N   0  0  0  0  0  0  0  0  0  0  0  0
   25.5283  -23.0563  -16.0876 C   0  0  0  0  0  0  0  0  0  0  0  0
   26.3880  -22.1475  -15.9699 O   0  0  0  0  0  0  0  0  0  0  0  0
   24.1933  -22.8327  -15.6782 N   0  0  0  0  0  0  0  0  0  0  0  0
   23.7456  -21.4673  -15.3783 C   0  0  1  0  0  0  0  0  0  0  0  0
   24.0012  -20.6392  -16.5850 C   0  0  0  0  0  0  0  0  0  0  0  0
   23.6035  -19.2305  -16.4437 C   0  0  0  0  0  0  0  0  0  0  0  0
   24.1434  -18.3665  -15.4746 C   0  0  0  0  0  0  0  0  0  0  0  0
   23.6096  -17.1491  -15.6236 N   0  0  0  0  0  0  0  0  0  0  0  0
   22.7313  -17.1392  -16.6459 C   0  0  0  0  0  0  0  0  0  0  0  0
   21.9393  -16.1381  -17.1673 C   0  0  0  0  0  0  0  0  0  0  0  0
   21.1179  -16.4388  -18.2274 C   0  0  0  0  0  0  0  0  0  0  0  0
   21.1182  -17.7189  -18.7232 C   0  0  0  0  0  0  0  0  0  0  0  0
   21.9002  -18.7163  -18.2125 C   0  0  0  0  0  0  0  0  0  0  0  0
   22.7367  -18.4379  -17.1458 C   0  0  0  0  0  0  0  0  0  0  0  0
   22.3725  -21.4525  -14.8488 C   0  0  0  0  0  0  0  0  0  0  0  0
   21.4646  -22.0566  -15.4678 O   0  0  0  0  0  0  0  0  0  0  0  0
   19.9139  -16.0277  -12.9214 C   0  0  0  0  0  0  0  0  0  0  0  0
   18.5266  -17.0265  -13.4970 S   0  0  0  0  0  0  0  0  0  0  0  0
   18.8761  -18.8096  -13.2952 C   0  0  0  0  0  0  0  0  0  0  0  0
   20.3241  -19.1054  -13.5338 C   0  0  0  0  0  0  0  0  0  0  0  0
   20.6377  -20.5355  -13.2658 C   0  0  2  0  0  0  0  0  0  0  0  0
   22.0471  -20.7779  -13.6645 N   0  0  0  0  0  0  0  0  0  0  0  0
   19.8161  -21.4256  -14.1025 C   0  0  0  0  0  0  0  0  0  0  0  0
   19.7483  -21.3342  -15.3354 O   0  0  0  0  0  0  0  0  0  0  0  0
   19.0625  -22.4351  -13.5045 O   0  0  0  0  0  0  0  0  0  0  0  0
  2  1  1  6
  2  3  1  0
  3  4  1  0
  4  8  1  0
  5  4  2  0
  5  6  1  0
  6  7  1  0
  8  7  2  0
  9  2  1  0
  9 10  2  0
 11  9  1  0
 12 13  1  6
 12 11  1  0
 13 14  1  0
 14 15  2  0
 14 22  1  0
 15 16  1  0
 16 17  1  0
 17 18  2  0
 18 19  1  0
 20 19  2  0
 21 20  1  0
 22 21  2  0
 22 17  1  0
 23 12  1  0
 24 23  2  0
 25 26  1  0
 26 27  1  0
 27 28  1  0
 29 28  1  6
 29 30  1  0
 30 23  1  0
 31 29  1  0
 31 33  1  0
 32 31  2  0
M  END
$$$$
