HWM.pdb
     RDKit          3D

 33 35  0  0  1  0  0  0  0  0999 V2000
   28.6651  -33.1598  -15.5192 N   0  0  0  0  0  0  0  0  0  0  0  0
   27.4373  -33.0818  -14.7768 C   0  0  1  0  0  0  0  0  0  0  0  0
   26.3355  -33.7925  -15.4986 C   0  0  0  0  0  0  0  0  0  0  0  0
   25.9300  -33.1127  -16.7626 C   0  0  0  0  0  0  0  0  0  0  0  0
   26.6948  -33.1476  -17.9217 C   0  0  0  0  0  0  0  0  0  0  0  0
   26.0172  -32.4314  -18.8393 N   0  0  0  0  0  0  0  0  0  0  0  0
   24.8818  -31.9689  -18.2837 C   0  0  0  0  0  0  0  0  0  0  0  0
   24.8309  -32.3882  -17.0101 N   0  0  0  0  0  0  0  0  0  0  0  0
   27.5933  -33.5477  -13.3752 C   0  0  0  0  0  0  0  0  0  0  0  0
   28.3962  -34.4829  -13.1312 O   0  0  0  0  0  0  0  0  0  0  0  0
   26.8516  -32.9531  -12.3284 N   0  0  0  0  0  0  0  0  0  0  0  0
   27.1332  -33.3263  -10.9370 C   0  0  1  0  0  0  0  0  0  0  0  0
   26.6511  -32.2187  -10.0720 C   0  0  0  0  0  0  0  0  0  0  0  0
   26.8238  -32.4608   -8.6318 C   0  0  0  0  0  0  0  0  0  0  0  0
   28.0637  -32.7593   -8.0396 C   0  0  0  0  0  0  0  0  0  0  0  0
   27.9007  -32.8892   -6.7183 N   0  0  0  0  0  0  0  0  0  0  0  0
   26.6109  -32.6950   -6.3791 C   0  0  0  0  0  0  0  0  0  0  0  0
   25.9652  -32.7332   -5.1612 C   0  0  0  0  0  0  0  0  0  0  0  0
   24.6109  -32.5007   -5.1311 C   0  0  0  0  0  0  0  0  0  0  0  0
   23.9571  -32.2411   -6.3099 C   0  0  0  0  0  0  0  0  0  0  0  0
   24.5896  -32.2012   -7.5205 C   0  0  0  0  0  0  0  0  0  0  0  0
   25.9531  -32.4306   -7.5766 C   0  0  0  0  0  0  0  0  0  0  0  0
   26.6274  -34.6728  -10.6252 C   0  0  0  0  0  0  0  0  0  0  0  0
   25.4938  -35.0177  -11.0356 O   0  0  0  0  0  0  0  0  0  0  0  0
   27.9400  -42.2178  -10.5985 C   0  0  0  0  0  0  0  0  0  0  0  0
   28.3877  -40.5125  -10.9797 S   0  0  0  0  0  0  0  0  0  0  0  0
   27.3871  -39.3386   -9.9984 C   0  0  0  0  0  0  0  0  0  0  0  0
   27.7860  -37.9234  -10.2805 C   0  0  0  0  0  0  0  0  0  0  0  0
   26.8860  -36.9580   -9.5923 C   0  0  2  0  0  0  0  0  0  0  0  0
   27.3807  -35.5876   -9.8773 N   0  0  0  0  0  0  0  0  0  0  0  0
   26.9496  -37.1211   -8.1306 C   0  0  0  0  0  0  0  0  0  0  0  0
   28.0002  -37.3385   -7.5124 O   0  0  0  0  0  0  0  0  0  0  0  0
   25.7818  -37.0317   -7.3737 O   0  0  0  0  0  0  0  0  0  0  0  0
  2  1  1  6
  2  3  1  0
  3  4  1  0
  4  8  1  0
  5  4  2  0
  5  6  1  0
  6  7  1  0
  8  7  2  0
  9  2  1  0
  9 10  2  0
 11  9  1  0
 12 13  1  1
 12 11  1  0
 13 14  1  0
 14 15  2  0
 14 22  1  0
 15 16  1  0
 16 17  1  0
 17 18  2  0
 18 19  1  0
 20 19  2  0
 21 20  1  0
 22 21  2  0
 22 17  1  0
 23 12  1  0
 24 23  2  0
 25 26  1  0
 26 27  1  0
 27 28  1  0
 29 28  1  6
 29 30  1  0
 30 23  1  0
 31 29  1  0
 31 33  1  0
 32 31  2  0
M  END
$$$$
