HWM.pdb
     RDKit          3D

 33 35  0  0  1  0  0  0  0  0999 V2000
   24.2757  -21.0294  -14.4629 N   0  0  0  0  0  0  0  0  0  0  0  0
   23.9895  -20.1151  -13.3918 C   0  0  1  0  0  0  0  0  0  0  0  0
   22.5830  -19.6123  -13.4860 C   0  0  0  0  0  0  0  0  0  0  0  0
   22.3841  -18.6338  -14.5938 C   0  0  0  0  0  0  0  0  0  0  0  0
   22.8857  -18.8261  -15.8748 C   0  0  0  0  0  0  0  0  0  0  0  0
   22.5110  -17.7478  -16.5897 N   0  0  0  0  0  0  0  0  0  0  0  0
   21.8083  -16.9182  -15.7963 C   0  0  0  0  0  0  0  0  0  0  0  0
   21.7319  -17.4640  -14.5728 N   0  0  0  0  0  0  0  0  0  0  0  0
   24.3006  -20.6907  -12.0586 C   0  0  0  0  0  0  0  0  0  0  0  0
   23.9287  -21.8628  -11.8005 O   0  0  0  0  0  0  0  0  0  0  0  0
   25.0025  -19.9356  -11.0906 N   0  0  0  0  0  0  0  0  0  0  0  0
   25.2258  -20.4988   -9.7536 C   0  0  1  0  0  0  0  0  0  0  0  0
   26.4542  -19.8692   -9.2041 C   0  0  0  0  0  0  0  0  0  0  0  0
   26.8239  -20.3418   -7.8614 C   0  0  0  0  0  0  0  0  0  0  0  0
   26.6256  -21.6632   -7.4234 C   0  0  0  0  0  0  0  0  0  0  0  0
   27.0946  -21.7889   -6.1770 N   0  0  0  0  0  0  0  0  0  0  0  0
   27.6025  -20.6187   -5.7420 C   0  0  0  0  0  0  0  0  0  0  0  0
   28.1807  -20.2567   -4.5436 C   0  0  0  0  0  0  0  0  0  0  0  0
   28.6010  -18.9577   -4.3860 C   0  0  0  0  0  0  0  0  0  0  0  0
   28.4291  -18.0753   -5.4234 C   0  0  0  0  0  0  0  0  0  0  0  0
   27.8574  -18.4262   -6.6139 C   0  0  0  0  0  0  0  0  0  0  0  0
   27.4274  -19.7287   -6.7974 C   0  0  0  0  0  0  0  0  0  0  0  0
   24.0145  -20.4142   -8.9220 C   0  0  0  0  0  0  0  0  0  0  0  0
   23.4049  -19.3225   -8.8269 O   0  0  0  0  0  0  0  0  0  0  0  0
   18.7967  -23.7770   -9.1606 C   0  0  0  0  0  0  0  0  0  0  0  0
   18.9615  -23.7570   -7.3644 S   0  0  0  0  0  0  0  0  0  0  0  0
   20.1722  -22.4946   -6.8327 C   0  0  0  0  0  0  0  0  0  0  0  0
   21.3712  -22.4863   -7.7291 C   0  0  0  0  0  0  0  0  0  0  0  0
   22.3373  -21.4252   -7.3341 C   0  0  2  0  0  0  0  0  0  0  0  0
   23.5187  -21.5258   -8.2276 N   0  0  0  0  0  0  0  0  0  0  0  0
   22.8375  -21.6440   -5.9669 C   0  0  0  0  0  0  0  0  0  0  0  0
   22.4986  -20.9533   -4.9967 O   0  0  0  0  0  0  0  0  0  0  0  0
   23.7421  -22.6758   -5.7187 O   0  0  0  0  0  0  0  0  0  0  0  0
  2  1  1  6
  2  3  1  0
  3  4  1  0
  4  8  1  0
  5  4  2  0
  5  6  1  0
  6  7  1  0
  8  7  2  0
  9  2  1  0
  9 10  2  0
 11  9  1  0
 12 13  1  1
 12 11  1  0
 13 14  1  0
 14 15  2  0
 14 22  1  0
 15 16  1  0
 16 17  1  0
 17 18  2  0
 18 19  1  0
 20 19  2  0
 21 20  1  0
 22 21  2  0
 22 17  1  0
 23 12  1  0
 24 23  2  0
 25 26  1  0
 26 27  1  0
 27 28  1  0
 29 28  1  6
 29 30  1  0
 30 23  1  0
 31 29  1  0
 31 33  1  0
 32 31  2  0
M  END
$$$$
