HWM.pdb
     RDKit          3D

 33 35  0  0  1  0  0  0  0  0999 V2000
   26.6472  -20.6388  -16.3372 N   0  0  0  0  0  0  0  0  0  0  0  0
   25.6205  -19.9450  -15.6097 C   0  0  1  0  0  0  0  0  0  0  0  0
   24.5528  -19.4550  -16.5371 C   0  0  0  0  0  0  0  0  0  0  0  0
   25.0565  -18.4784  -17.5455 C   0  0  0  0  0  0  0  0  0  0  0  0
   25.1904  -17.1205  -17.2854 C   0  0  0  0  0  0  0  0  0  0  0  0
   25.6662  -16.5673  -18.4175 N   0  0  0  0  0  0  0  0  0  0  0  0
   25.8235  -17.5309  -19.3440 C   0  0  0  0  0  0  0  0  0  0  0  0
   25.4489  -18.7019  -18.8066 N   0  0  0  0  0  0  0  0  0  0  0  0
   25.0751  -20.7545  -14.4903 C   0  0  0  0  0  0  0  0  0  0  0  0
   24.8679  -21.9805  -14.6713 O   0  0  0  0  0  0  0  0  0  0  0  0
   24.7901  -20.1600  -13.2393 N   0  0  0  0  0  0  0  0  0  0  0  0
   24.1415  -20.9548  -12.1894 C   0  0  1  0  0  0  0  0  0  0  0  0
   24.5666  -20.3956  -10.8803 C   0  0  0  0  0  0  0  0  0  0  0  0
   25.9269  -20.7800  -10.4746 C   0  0  0  0  0  0  0  0  0  0  0  0
   26.8231  -21.4614  -11.3171 C   0  0  0  0  0  0  0  0  0  0  0  0
   27.9846  -21.6343  -10.6765 N   0  0  0  0  0  0  0  0  0  0  0  0
   27.9257  -21.1055   -9.4383 C   0  0  0  0  0  0  0  0  0  0  0  0
   28.8530  -21.0457   -8.4194 C   0  0  0  0  0  0  0  0  0  0  0  0
   28.4911  -20.4397   -7.2401 C   0  0  0  0  0  0  0  0  0  0  0  0
   27.2258  -19.9203   -7.1234 C   0  0  0  0  0  0  0  0  0  0  0  0
   26.3014  -19.9751   -8.1281 C   0  0  0  0  0  0  0  0  0  0  0  0
   26.6424  -20.5790   -9.3257 C   0  0  0  0  0  0  0  0  0  0  0  0
   22.6920  -21.0702  -12.4163 C   0  0  0  0  0  0  0  0  0  0  0  0
   22.0105  -20.0337  -12.6004 O   0  0  0  0  0  0  0  0  0  0  0  0
   19.6949  -26.4646  -14.5836 C   0  0  0  0  0  0  0  0  0  0  0  0
   18.4096  -25.7927  -13.5110 S   0  0  0  0  0  0  0  0  0  0  0  0
   18.7845  -24.0654  -13.0437 C   0  0  0  0  0  0  0  0  0  0  0  0
   20.2615  -23.8431  -12.9420 C   0  0  0  0  0  0  0  0  0  0  0  0
   20.5759  -22.4273  -12.6072 C   0  0  2  0  0  0  0  0  0  0  0  0
   22.0457  -22.3134  -12.4323 N   0  0  0  0  0  0  0  0  0  0  0  0
   19.9785  -22.0406  -11.3185 C   0  0  0  0  0  0  0  0  0  0  0  0
   20.6075  -22.0213  -10.2521 O   0  0  0  0  0  0  0  0  0  0  0  0
   18.6349  -21.6713  -11.2625 O   0  0  0  0  0  0  0  0  0  0  0  0
  2  1  1  6
  2  3  1  0
  3  4  1  0
  4  8  1  0
  5  4  2  0
  5  6  1  0
  6  7  1  0
  8  7  2  0
  9  2  1  0
  9 10  2  0
 11  9  1  0
 12 13  1  1
 12 11  1  0
 13 14  1  0
 14 15  2  0
 14 22  1  0
 15 16  1  0
 16 17  1  0
 17 18  2  0
 18 19  1  0
 20 19  2  0
 21 20  1  0
 22 21  2  0
 22 17  1  0
 23 12  1  0
 24 23  2  0
 25 26  1  0
 26 27  1  0
 27 28  1  0
 29 28  1  1
 29 30  1  0
 30 23  1  0
 31 29  1  0
 31 33  1  0
 32 31  2  0
M  END
$$$$
