HWM.pdb
     RDKit          3D

 33 35  0  0  1  0  0  0  0  0999 V2000
   28.0577  -21.1018  -15.3831 N   0  0  0  0  0  0  0  0  0  0  0  0
   28.0240  -20.1515  -14.3057 C   0  0  1  0  0  0  0  0  0  0  0  0
   27.4383  -18.8524  -14.7632 C   0  0  0  0  0  0  0  0  0  0  0  0
   28.2435  -18.1907  -15.8299 C   0  0  0  0  0  0  0  0  0  0  0  0
   27.9789  -18.3437  -17.1850 C   0  0  0  0  0  0  0  0  0  0  0  0
   28.9023  -17.6073  -17.8325 N   0  0  0  0  0  0  0  0  0  0  0  0
   29.7081  -17.0203  -16.9282 C   0  0  0  0  0  0  0  0  0  0  0  0
   29.3018  -17.3797  -15.7009 N   0  0  0  0  0  0  0  0  0  0  0  0
   27.3453  -20.6887  -13.0988 C   0  0  0  0  0  0  0  0  0  0  0  0
   26.2307  -21.2537  -13.2290 O   0  0  0  0  0  0  0  0  0  0  0  0
   27.9388  -20.5675  -11.8210 N   0  0  0  0  0  0  0  0  0  0  0  0
   27.1773  -20.9560  -10.6278 C   0  0  1  0  0  0  0  0  0  0  0  0
   28.0579  -20.7476   -9.4495 C   0  0  0  0  0  0  0  0  0  0  0  0
   27.3453  -20.7164   -8.1634 C   0  0  0  0  0  0  0  0  0  0  0  0
   26.0269  -21.1761   -7.9969 C   0  0  0  0  0  0  0  0  0  0  0  0
   25.6751  -21.0489   -6.7126 N   0  0  0  0  0  0  0  0  0  0  0  0
   26.6877  -20.5244   -5.9942 C   0  0  0  0  0  0  0  0  0  0  0  0
   26.7966  -20.2045   -4.6573 C   0  0  0  0  0  0  0  0  0  0  0  0
   27.9763  -19.6604   -4.2087 C   0  0  0  0  0  0  0  0  0  0  0  0
   28.9953  -19.4572   -5.1057 C   0  0  0  0  0  0  0  0  0  0  0  0
   28.8954  -19.7717   -6.4318 C   0  0  0  0  0  0  0  0  0  0  0  0
   27.7182  -20.3221   -6.9073 C   0  0  0  0  0  0  0  0  0  0  0  0
   25.8604  -20.2999  -10.5894 C   0  0  0  0  0  0  0  0  0  0  0  0
   25.7939  -19.0536  -10.4682 O   0  0  0  0  0  0  0  0  0  0  0  0
   22.7175  -18.0640  -15.2880 C   0  0  0  0  0  0  0  0  0  0  0  0
   23.2794  -19.4763  -14.3167 S   0  0  0  0  0  0  0  0  0  0  0  0
   22.1707  -19.7741  -12.8938 C   0  0  0  0  0  0  0  0  0  0  0  0
   22.6844  -20.8869  -12.0340 C   0  0  0  0  0  0  0  0  0  0  0  0
   23.3497  -20.3643  -10.8094 C   0  0  2  0  0  0  0  0  0  0  0  0
   24.6696  -21.0324  -10.6846 N   0  0  0  0  0  0  0  0  0  0  0  0
   22.5925  -20.7230   -9.5989 C   0  0  0  0  0  0  0  0  0  0  0  0
   22.9848  -21.5536   -8.7687 O   0  0  0  0  0  0  0  0  0  0  0  0
   21.3646  -20.1125   -9.3455 O   0  0  0  0  0  0  0  0  0  0  0  0
  2  1  1  6
  2  3  1  0
  3  4  1  0
  4  8  1  0
  5  4  2  0
  5  6  1  0
  6  7  1  0
  8  7  2  0
  9  2  1  0
  9 10  2  0
 11  9  1  0
 12 13  1  1
 12 11  1  0
 13 14  1  0
 14 15  2  0
 14 22  1  0
 15 16  1  0
 16 17  1  0
 17 18  2  0
 18 19  1  0
 20 19  2  0
 21 20  1  0
 22 21  2  0
 22 17  1  0
 23 12  1  0
 24 23  2  0
 25 26  1  0
 26 27  1  0
 27 28  1  0
 29 28  1  6
 29 30  1  0
 30 23  1  0
 31 29  1  0
 31 33  1  0
 32 31  2  0
M  END
$$$$
