MAR.pdb
     RDKit          3D

 25 24  0  0  1  0  0  0  0  0999 V2000
   30.6975  -21.1807   -7.0427 C   0  0  0  0  0  0  0  0  0  0  0  0
   31.9913  -21.5662   -8.2450 S   0  0  0  0  0  0  0  0  0  0  0  0
   31.2547  -21.9893   -9.8226 C   0  0  0  0  0  0  0  0  0  0  0  0
   29.8590  -21.3915   -9.9804 C   0  0  0  0  0  0  0  0  0  0  0  0
   29.2906  -21.8484  -11.3231 C   0  0  2  0  0  0  0  0  0  0  0  0
   30.3542  -22.1259  -12.2651 N   0  0  0  0  0  0  0  0  0  0  0  0
   28.3767  -20.8608  -11.9044 C   0  0  0  0  0  0  0  0  0  0  0  0
   27.3063  -20.6241  -11.2454 O   0  0  0  0  0  0  0  0  0  0  0  0
   28.2511  -18.6760  -14.9402 C   0  0  0  0  0  0  0  0  0  0  0  0
   27.5808  -19.2445  -13.6824 C   0  0  2  0  0  0  0  0  0  0  0  0
   28.5521  -20.1506  -13.1037 N   0  0  0  0  0  0  0  0  0  0  0  0
   26.3671  -20.0148  -14.0351 C   0  0  0  0  0  0  0  0  0  0  0  0
   26.4747  -21.1560  -14.4965 O   0  0  0  0  0  0  0  0  0  0  0  0
   18.0229  -20.8873  -12.9854 N   0  0  0  0  0  0  0  0  0  0  0  0
   18.5755  -22.1308  -12.5701 C   0  0  0  0  0  0  0  0  0  0  0  0
   17.8588  -23.2005  -12.5004 N   0  0  0  0  0  0  0  0  0  0  0  0
   19.9506  -22.1909  -12.2259 N   0  0  0  0  0  0  0  0  0  0  0  0
   20.7249  -20.9754  -12.2826 C   0  0  0  0  0  0  0  0  0  0  0  0
   21.5641  -20.8740  -13.5507 C   0  0  0  0  0  0  0  0  0  0  0  0
   22.9118  -20.3499  -13.1391 C   0  0  0  0  0  0  0  0  0  0  0  0
   23.8695  -20.1737  -14.2767 C   0  0  2  0  0  0  0  0  0  0  0  0
   25.0481  -19.4605  -13.8516 N   0  0  0  0  0  0  0  0  0  0  0  0
   23.2958  -19.5702  -15.4725 C   0  0  0  0  0  0  0  0  0  0  0  0
   23.5366  -18.3577  -15.7103 O   0  0  0  0  0  0  0  0  0  0  0  0
   22.4939  -20.2209  -16.3897 O   0  0  0  0  0  0  0  0  0  0  0  0
  2  1  1  0
  2  3  1  0
  4  3  1  0
  4  5  1  0
  5  6  1  6
  7  5  1  0
  7  8  2  0
 10  9  1  6
 10 11  1  0
 10 12  1  0
 11  7  1  0
 12 22  1  0
 13 12  2  0
 14 15  1  0
 15 16  2  0
 17 15  1  0
 17 18  1  0
 19 18  1  0
 20 19  1  0
 21 23  1  0
 21 20  1  1
 22 21  1  0
 23 24  2  0
 23 25  1  0
M  END
$$$$
