MAR.pdb
     RDKit          3D

 25 24  0  0  1  0  0  0  0  0999 V2000
   18.1403  -19.0861  -16.3311 C   0  0  0  0  0  0  0  0  0  0  0  0
   17.4584  -17.4186  -16.4816 S   0  0  0  0  0  0  0  0  0  0  0  0
   18.7744  -16.2072  -16.3763 C   0  0  0  0  0  0  0  0  0  0  0  0
   20.1040  -16.7624  -16.8803 C   0  0  0  0  0  0  0  0  0  0  0  0
   21.1363  -16.6235  -15.7625 C   0  0  2  0  0  0  0  0  0  0  0  0
   20.7355  -15.6054  -14.8148 N   0  0  0  0  0  0  0  0  0  0  0  0
   22.4719  -16.3057  -16.2762 C   0  0  0  0  0  0  0  0  0  0  0  0
   22.9955  -17.1681  -17.0624 O   0  0  0  0  0  0  0  0  0  0  0  0
   24.8367  -13.4377  -16.3215 C   0  0  0  0  0  0  0  0  0  0  0  0
   24.6067  -14.9522  -16.4105 C   0  0  2  0  0  0  0  0  0  0  0  0
   23.2337  -15.1589  -15.9965 N   0  0  0  0  0  0  0  0  0  0  0  0
   25.4966  -15.6757  -15.4748 C   0  0  0  0  0  0  0  0  0  0  0  0
   25.2351  -15.6951  -14.2673 O   0  0  0  0  0  0  0  0  0  0  0  0
   24.0537  -21.8566  -12.9041 N   0  0  0  0  0  0  0  0  0  0  0  0
   25.2664  -22.4035  -13.4085 C   0  0  0  0  0  0  0  0  0  0  0  0
   25.3182  -23.5932  -13.9030 N   0  0  0  0  0  0  0  0  0  0  0  0
   26.4457  -21.6159  -13.3653 N   0  0  0  0  0  0  0  0  0  0  0  0
   26.3132  -20.1944  -13.1601 C   0  0  0  0  0  0  0  0  0  0  0  0
   25.7328  -19.4788  -14.3740 C   0  0  0  0  0  0  0  0  0  0  0  0
   26.1526  -18.0388  -14.2715 C   0  0  0  0  0  0  0  0  0  0  0  0
   27.1040  -17.6046  -15.3433 C   0  0  2  0  0  0  0  0  0  0  0  0
   26.6736  -16.3660  -15.9425 N   0  0  0  0  0  0  0  0  0  0  0  0
   27.3802  -18.6100  -16.3612 C   0  0  0  0  0  0  0  0  0  0  0  0
   26.4909  -18.8623  -17.2157 O   0  0  0  0  0  0  0  0  0  0  0  0
   28.5545  -19.3277  -16.4773 O   0  0  0  0  0  0  0  0  0  0  0  0
  2  1  1  0
  2  3  1  0
  4  3  1  0
  4  5  1  0
  5  6  1  1
  7  5  1  0
  7  8  2  0
 10  9  1  1
 10 11  1  0
 10 12  1  0
 11  7  1  0
 12 22  1  0
 13 12  2  0
 14 15  1  0
 15 16  2  0
 17 15  1  0
 17 18  1  0
 19 18  1  0
 20 19  1  0
 21 23  1  0
 21 20  1  1
 22 21  1  0
 23 24  2  0
 23 25  1  0
M  END
$$$$
