MAR.pdb
     RDKit          3D

 25 24  0  0  1  0  0  0  0  0999 V2000
   31.4839  -22.0715   -7.8871 C   0  0  0  0  0  0  0  0  0  0  0  0
   32.5811  -21.7266   -9.2819 S   0  0  0  0  0  0  0  0  0  0  0  0
   31.7267  -22.0406  -10.8252 C   0  0  0  0  0  0  0  0  0  0  0  0
   30.4833  -21.1684  -10.9779 C   0  0  0  0  0  0  0  0  0  0  0  0
   29.8126  -21.5176  -12.3055 C   0  0  2  0  0  0  0  0  0  0  0  0
   30.7863  -21.5752  -13.3751 N   0  0  0  0  0  0  0  0  0  0  0  0
   28.7587  -20.5637  -12.6632 C   0  0  0  0  0  0  0  0  0  0  0  0
   28.9975  -19.3339  -12.4050 O   0  0  0  0  0  0  0  0  0  0  0  0
   26.4808  -19.4174  -14.8334 C   0  0  0  0  0  0  0  0  0  0  0  0
   26.4187  -19.9240  -13.3863 C   0  0  2  0  0  0  0  0  0  0  0  0
   27.5196  -20.8571  -13.2567 N   0  0  0  0  0  0  0  0  0  0  0  0
   25.1527  -20.6489  -13.1361 C   0  0  0  0  0  0  0  0  0  0  0  0
   25.1729  -21.7435  -12.5634 O   0  0  0  0  0  0  0  0  0  0  0  0
   19.2580  -21.4235   -9.6264 N   0  0  0  0  0  0  0  0  0  0  0  0
   19.9159  -22.1185   -8.5736 C   0  0  0  0  0  0  0  0  0  0  0  0
   19.2908  -22.9625   -7.8256 N   0  0  0  0  0  0  0  0  0  0  0  0
   21.2947  -21.8744   -8.3454 N   0  0  0  0  0  0  0  0  0  0  0  0
   21.9790  -20.9466   -9.2121 C   0  0  0  0  0  0  0  0  0  0  0  0
   21.9576  -21.3836  -10.6719 C   0  0  0  0  0  0  0  0  0  0  0  0
   22.6933  -20.3297  -11.4519 C   0  0  0  0  0  0  0  0  0  0  0  0
   22.6493  -20.5289  -12.9354 C   0  0  2  0  0  0  0  0  0  0  0  0
   23.8827  -20.1033  -13.5486 N   0  0  0  0  0  0  0  0  0  0  0  0
   21.5001  -19.9284  -13.6003 C   0  0  0  0  0  0  0  0  0  0  0  0
   21.6049  -18.7540  -14.0412 O   0  0  0  0  0  0  0  0  0  0  0  0
   20.2788  -20.5434  -13.7955 O   0  0  0  0  0  0  0  0  0  0  0  0
  2  1  1  0
  2  3  1  0
  4  3  1  0
  4  5  1  0
  5  6  1  6
  7  5  1  0
  7  8  2  0
 10  9  1  6
 10 11  1  0
 10 12  1  0
 11  7  1  0
 12 22  1  0
 13 12  2  0
 14 15  1  0
 15 16  2  0
 17 15  1  0
 17 18  1  0
 19 18  1  0
 20 19  1  0
 21 23  1  0
 21 20  1  1
 22 21  1  0
 23 24  2  0
 23 25  1  0
M  END
$$$$
