MLY.pdb
     RDKit          3D

 29 29  0  0  1  0  0  0  0  0999 V2000
   20.4374  -10.7823  -23.8602 C   0  0  0  0  0  0  0  0  0  0  0  0
   20.8042  -10.3015  -22.1599 S   0  0  0  0  0  0  0  0  0  0  0  0
   21.8760  -11.5836  -21.4365 C   0  0  0  0  0  0  0  0  0  0  0  0
   22.3226  -11.1854  -20.0590 C   0  0  0  0  0  0  0  0  0  0  0  0
   23.2543  -12.1629  -19.4462 C   0  0  2  0  0  0  0  0  0  0  0  0
   22.7958  -13.5381  -19.6948 N   0  0  0  0  0  0  0  0  0  0  0  0
   23.4360  -12.0133  -17.9676 C   0  0  0  0  0  0  0  0  0  0  0  0
   22.4714  -12.2299  -17.1918 O   0  0  0  0  0  0  0  0  0  0  0  0
   26.5005  -14.0309  -15.6116 C   0  0  0  0  0  0  0  0  0  0  0  0
   27.0808  -12.6870  -15.9375 C   0  0  2  0  0  0  0  0  0  0  0  0
   28.5473  -12.6300  -15.6987 C   0  0  0  0  0  0  0  0  0  0  0  0
   26.2997  -11.5035  -15.5839 C   0  0  0  0  0  0  0  0  0  0  0  0
   24.9005  -11.3296  -15.9822 C   0  0  2  0  0  0  0  0  0  0  0  0
   24.6771  -11.6301  -17.4040 N   0  0  0  0  0  0  0  0  0  0  0  0
   24.3152  -10.0489  -15.6011 C   0  0  0  0  0  0  0  0  0  0  0  0
   24.2048   -9.7153  -14.4057 O   0  0  0  0  0  0  0  0  0  0  0  0
   21.3844   -1.7550  -15.3690 O   0  0  0  0  0  0  0  0  0  0  0  0
   21.9865   -2.9596  -15.7187 C   0  0  0  0  0  0  0  0  0  0  0  0
   22.6247   -3.6913  -14.7547 C   0  0  0  0  0  0  0  0  0  0  0  0
   23.2206   -4.8796  -15.0908 C   0  0  0  0  0  0  0  0  0  0  0  0
   23.2195   -5.4062  -16.3841 C   0  0  0  0  0  0  0  0  0  0  0  0
   23.8860   -6.6737  -16.6998 C   0  0  0  0  0  0  0  0  0  0  0  0
   23.2059   -7.8710  -16.1068 C   0  0  2  0  0  0  0  0  0  0  0  0
   23.8305   -9.0964  -16.5682 N   0  0  0  0  0  0  0  0  0  0  0  0
   21.7618   -7.8587  -16.4043 C   0  0  0  0  0  0  0  0  0  0  0  0
   21.0041   -7.0099  -15.8243 O   0  0  0  0  0  0  0  0  0  0  0  0
   22.5584   -4.6230  -17.3215 C   0  0  0  0  0  0  0  0  0  0  0  0
   21.9517   -3.4279  -17.0146 C   0  0  0  0  0  0  0  0  0  0  0  0
   21.1418   -8.7176  -17.2895 O   0  0  0  0  0  0  0  0  0  0  0  0
  2  1  1  0
  3  2  1  0
  4  3  1  0
  5  4  1  0
  5  6  1  1
  7  8  2  0
  7  5  1  0
 10 11  1  1
 10  9  1  0
 12 10  1  0
 13 12  1  6
 13 14  1  0
 14  7  1  0
 15 13  1  0
 15 16  2  0
 18 17  1  0
 19 18  2  0
 20 19  1  0
 21 20  2  0
 21 27  1  0
 22 21  1  0
 23 22  1  6
 23 24  1  0
 24 15  1  0
 25 23  1  0
 26 25  2  0
 27 28  2  0
 28 18  1  0
 29 25  1  0
M  END
$$$$
