MLY.pdb
     RDKit          3D

 29 29  0  0  1  0  0  0  0  0999 V2000
   25.1665  -15.5421  -15.6634 C   0  0  0  0  0  0  0  0  0  0  0  0
   26.6156  -15.9239  -16.6691 S   0  0  0  0  0  0  0  0  0  0  0  0
   27.3462  -17.4655  -16.0321 C   0  0  0  0  0  0  0  0  0  0  0  0
   26.3023  -18.3058  -15.3542 C   0  0  0  0  0  0  0  0  0  0  0  0
   26.8673  -19.4984  -14.6779 C   0  0  2  0  0  0  0  0  0  0  0  0
   27.5180  -20.3852  -15.6543 N   0  0  0  0  0  0  0  0  0  0  0  0
   25.8704  -20.3214  -13.9224 C   0  0  0  0  0  0  0  0  0  0  0  0
   25.3475  -21.3272  -14.4646 O   0  0  0  0  0  0  0  0  0  0  0  0
   26.8150  -22.1057  -10.2365 C   0  0  0  0  0  0  0  0  0  0  0  0
   26.0590  -20.8946   -9.7776 C   0  0  2  0  0  0  0  0  0  0  0  0
   26.2078  -20.6531   -8.3180 C   0  0  0  0  0  0  0  0  0  0  0  0
   24.7432  -20.6497  -10.3647 C   0  0  0  0  0  0  0  0  0  0  0  0
   24.4906  -20.7327  -11.8055 C   0  0  2  0  0  0  0  0  0  0  0  0
   25.4903  -20.0004  -12.5967 N   0  0  0  0  0  0  0  0  0  0  0  0
   23.1294  -20.3922  -12.2041 C   0  0  0  0  0  0  0  0  0  0  0  0
   22.5517  -19.3864  -11.7491 O   0  0  0  0  0  0  0  0  0  0  0  0
   24.3091  -18.7826  -18.6243 O   0  0  0  0  0  0  0  0  0  0  0  0
   23.5096  -18.8996  -17.4916 C   0  0  0  0  0  0  0  0  0  0  0  0
   23.1492  -20.1451  -17.0548 C   0  0  0  0  0  0  0  0  0  0  0  0
   22.3615  -20.2693  -15.9395 C   0  0  0  0  0  0  0  0  0  0  0  0
   21.8906  -19.1818  -15.2008 C   0  0  0  0  0  0  0  0  0  0  0  0
   21.0352  -19.3633  -14.0235 C   0  0  0  0  0  0  0  0  0  0  0  0
   21.0292  -20.7679  -13.4995 C   0  0  2  0  0  0  0  0  0  0  0  0
   22.3704  -21.1860  -13.1376 N   0  0  0  0  0  0  0  0  0  0  0  0
   20.4228  -21.6925  -14.4749 C   0  0  0  0  0  0  0  0  0  0  0  0
   21.1364  -22.6097  -15.0046 O   0  0  0  0  0  0  0  0  0  0  0  0
   22.2863  -17.9430  -15.6885 C   0  0  0  0  0  0  0  0  0  0  0  0
   23.0753  -17.7869  -16.8037 C   0  0  0  0  0  0  0  0  0  0  0  0
   19.1021  -21.6468  -14.8743 O   0  0  0  0  0  0  0  0  0  0  0  0
  2  1  1  0
  3  2  1  0
  4  3  1  0
  5  4  1  0
  5  6  1  6
  7  8  2  0
  7  5  1  0
 10 11  1  1
 10  9  1  0
 12 10  1  0
 13 12  1  1
 13 14  1  0
 14  7  1  0
 15 13  1  0
 15 16  2  0
 18 17  1  0
 19 18  2  0
 20 19  1  0
 21 20  2  0
 21 27  1  0
 22 21  1  0
 23 22  1  6
 23 24  1  0
 24 15  1  0
 25 23  1  0
 26 25  2  0
 27 28  2  0
 28 18  1  0
 29 25  1  0
M  END
$$$$
