MLY.pdb
     RDKit          3D

 29 29  0  0  1  0  0  0  0  0999 V2000
   25.9898  -25.0029  -19.1206 C   0  0  0  0  0  0  0  0  0  0  0  0
   27.1029  -23.6763  -19.6288 S   0  0  0  0  0  0  0  0  0  0  0  0
   27.8147  -22.9382  -18.1240 C   0  0  0  0  0  0  0  0  0  0  0  0
   26.9201  -23.1788  -16.9418 C   0  0  0  0  0  0  0  0  0  0  0  0
   26.4401  -21.9245  -16.3130 C   0  0  2  0  0  0  0  0  0  0  0  0
   27.5701  -21.0307  -16.0172 N   0  0  0  0  0  0  0  0  0  0  0  0
   25.6760  -22.1146  -15.0395 C   0  0  0  0  0  0  0  0  0  0  0  0
   24.6498  -22.8397  -15.0259 O   0  0  0  0  0  0  0  0  0  0  0  0
   26.2184  -20.0984   -9.0820 C   0  0  0  0  0  0  0  0  0  0  0  0
   25.4682  -20.9060  -10.0988 C   0  0  2  0  0  0  0  0  0  0  0  0
   24.8480  -22.1227   -9.5106 C   0  0  0  0  0  0  0  0  0  0  0  0
   26.0500  -21.0312  -11.4336 C   0  0  0  0  0  0  0  0  0  0  0  0
   25.2690  -21.4431  -12.6028 C   0  0  2  0  0  0  0  0  0  0  0  0
   26.0762  -21.4957  -13.8305 N   0  0  0  0  0  0  0  0  0  0  0  0
   24.0314  -20.6965  -12.8002 C   0  0  0  0  0  0  0  0  0  0  0  0
   23.9664  -19.4740  -12.5689 O   0  0  0  0  0  0  0  0  0  0  0  0
   17.9949  -16.2441  -16.8053 O   0  0  0  0  0  0  0  0  0  0  0  0
   19.0025  -17.0802  -16.3348 C   0  0  0  0  0  0  0  0  0  0  0  0
   19.7508  -16.6844  -15.2599 C   0  0  0  0  0  0  0  0  0  0  0  0
   20.7456  -17.5025  -14.7899 C   0  0  0  0  0  0  0  0  0  0  0  0
   21.0540  -18.7443  -15.3493 C   0  0  0  0  0  0  0  0  0  0  0  0
   22.1399  -19.5775  -14.8228 C   0  0  0  0  0  0  0  0  0  0  0  0
   21.7140  -20.4761  -13.7009 C   0  0  2  0  0  0  0  0  0  0  0  0
   22.8163  -21.3144  -13.2687 N   0  0  0  0  0  0  0  0  0  0  0  0
   20.5434  -21.2847  -14.0878 C   0  0  0  0  0  0  0  0  0  0  0  0
   19.3740  -20.9150  -13.7314 O   0  0  0  0  0  0  0  0  0  0  0  0
   20.2642  -19.0954  -16.4365 C   0  0  0  0  0  0  0  0  0  0  0  0
   19.2598  -18.2965  -16.9301 C   0  0  0  0  0  0  0  0  0  0  0  0
   20.6106  -22.4468  -14.8299 O   0  0  0  0  0  0  0  0  0  0  0  0
  2  1  1  0
  3  2  1  0
  4  3  1  0
  5  4  1  0
  5  6  1  1
  7  8  2  0
  7  5  1  0
 10 11  1  1
 10  9  1  0
 12 10  1  0
 13 12  1  1
 13 14  1  0
 14  7  1  0
 15 13  1  0
 15 16  2  0
 18 17  1  0
 19 18  2  0
 20 19  1  0
 21 20  2  0
 21 27  1  0
 22 21  1  0
 23 22  1  6
 23 24  1  0
 24 15  1  0
 25 23  1  0
 26 25  2  0
 27 28  2  0
 28 18  1  0
 29 25  1  0
M  END
$$$$
