MLY.pdb
     RDKit          3D

 29 29  0  0  1  0  0  0  0  0999 V2000
   33.0540  -22.5832   -8.3022 C   0  0  0  0  0  0  0  0  0  0  0  0
   33.4040  -22.8453  -10.0531 S   0  0  0  0  0  0  0  0  0  0  0  0
   32.0026  -22.1813  -11.0076 C   0  0  0  0  0  0  0  0  0  0  0  0
   30.7138  -22.3762  -10.2615 C   0  0  0  0  0  0  0  0  0  0  0  0
   29.5533  -21.7435  -10.9336 C   0  0  2  0  0  0  0  0  0  0  0  0
   29.8740  -20.3626  -11.3253 N   0  0  0  0  0  0  0  0  0  0  0  0
   28.3028  -21.6953  -10.1115 C   0  0  0  0  0  0  0  0  0  0  0  0
   27.6926  -22.7583   -9.8347 O   0  0  0  0  0  0  0  0  0  0  0  0
   27.6955  -20.7475   -5.8822 C   0  0  0  0  0  0  0  0  0  0  0  0
   27.6792  -19.4645   -6.6584 C   0  0  2  0  0  0  0  0  0  0  0  0
   27.8863  -18.2748   -5.7908 C   0  0  0  0  0  0  0  0  0  0  0  0
   26.7112  -19.3381   -7.7459 C   0  0  0  0  0  0  0  0  0  0  0  0
   26.5672  -20.3460   -8.7995 C   0  0  2  0  0  0  0  0  0  0  0  0
   27.7757  -20.4736   -9.6272 N   0  0  0  0  0  0  0  0  0  0  0  0
   25.3654  -20.2056   -9.6142 C   0  0  0  0  0  0  0  0  0  0  0  0
   24.5338  -19.3040   -9.3950 O   0  0  0  0  0  0  0  0  0  0  0  0
   28.7431  -19.4470  -15.7548 O   0  0  0  0  0  0  0  0  0  0  0  0
   27.6299  -19.4483  -14.9203 C   0  0  0  0  0  0  0  0  0  0  0  0
   27.7011  -18.8110  -13.7116 C   0  0  0  0  0  0  0  0  0  0  0  0
   26.6086  -18.8075  -12.8832 C   0  0  0  0  0  0  0  0  0  0  0  0
   25.3973  -19.4266  -13.1986 C   0  0  0  0  0  0  0  0  0  0  0  0
   24.2607  -19.4115  -12.2721 C   0  0  0  0  0  0  0  0  0  0  0  0
   23.9946  -20.7400  -11.6304 C   0  0  2  0  0  0  0  0  0  0  0  0
   25.0620  -21.0890  -10.7120 N   0  0  0  0  0  0  0  0  0  0  0  0
   23.7978  -21.7879  -12.6488 C   0  0  0  0  0  0  0  0  0  0  0  0
   22.7901  -21.7278  -13.4312 O   0  0  0  0  0  0  0  0  0  0  0  0
   25.3812  -20.0576  -14.4359 C   0  0  0  0  0  0  0  0  0  0  0  0
   26.4602  -20.0780  -15.2878 C   0  0  0  0  0  0  0  0  0  0  0  0
   24.6432  -22.8637  -12.8327 O   0  0  0  0  0  0  0  0  0  0  0  0
  2  1  1  0
  3  2  1  0
  4  3  1  0
  5  4  1  0
  5  6  1  1
  7  8  2  0
  7  5  1  0
 10 11  1  1
 10  9  1  0
 12 10  1  0
 13 12  1  1
 13 14  1  0
 14  7  1  0
 15 13  1  0
 15 16  2  0
 18 17  1  0
 19 18  2  0
 20 19  1  0
 21 20  2  0
 21 27  1  0
 22 21  1  0
 23 22  1  6
 23 24  1  0
 24 15  1  0
 25 23  1  0
 26 25  2  0
 27 28  2  0
 28 18  1  0
 29 25  1  0
M  END
$$$$
