MLY.pdb
     RDKit          3D

 29 29  0  0  1  0  0  0  0  0999 V2000
   17.7445  -13.3245    0.8984 C   0  0  0  0  0  0  0  0  0  0  0  0
   18.0538  -14.6368    2.0980 S   0  0  0  0  0  0  0  0  0  0  0  0
   17.3171  -14.1281    3.6837 C   0  0  0  0  0  0  0  0  0  0  0  0
   17.6315  -15.1284    4.7589 C   0  0  0  0  0  0  0  0  0  0  0  0
   17.0996  -14.7386    6.0871 C   0  0  2  0  0  0  0  0  0  0  0  0
   17.6516  -13.4403    6.5030 N   0  0  0  0  0  0  0  0  0  0  0  0
   17.3806  -15.7158    7.1861 C   0  0  0  0  0  0  0  0  0  0  0  0
   18.2083  -15.4266    8.0864 O   0  0  0  0  0  0  0  0  0  0  0  0
   16.3721  -17.7042   12.1307 C   0  0  0  0  0  0  0  0  0  0  0  0
   16.9104  -18.2612   10.8465 C   0  0  2  0  0  0  0  0  0  0  0  0
   18.1874  -18.9979   11.0396 C   0  0  0  0  0  0  0  0  0  0  0  0
   16.7875  -17.4408    9.6433 C   0  0  0  0  0  0  0  0  0  0  0  0
   16.9547  -17.9846    8.2931 C   0  0  2  0  0  0  0  0  0  0  0  0
   16.7357  -16.9749    7.2471 N   0  0  0  0  0  0  0  0  0  0  0  0
   16.2013  -19.2062    8.0327 C   0  0  0  0  0  0  0  0  0  0  0  0
   14.9674  -19.1842    7.8609 O   0  0  0  0  0  0  0  0  0  0  0  0
   20.5099  -24.5226    4.0807 O   0  0  0  0  0  0  0  0  0  0  0  0
   19.3777  -23.8999    4.5967 C   0  0  0  0  0  0  0  0  0  0  0  0
   19.2733  -22.5377    4.5233 C   0  0  0  0  0  0  0  0  0  0  0  0
   18.1608  -21.9161    5.0293 C   0  0  0  0  0  0  0  0  0  0  0  0
   17.1004  -22.5979    5.6299 C   0  0  0  0  0  0  0  0  0  0  0  0
   15.9379  -21.8880    6.1732 C   0  0  0  0  0  0  0  0  0  0  0  0
   16.0112  -21.6660    7.6541 C   0  0  2  0  0  0  0  0  0  0  0  0
   16.8245  -20.5038    7.9587 N   0  0  0  0  0  0  0  0  0  0  0  0
   16.5130  -22.8687    8.3438 C   0  0  0  0  0  0  0  0  0  0  0  0
   15.8645  -23.9654    8.2544 O   0  0  0  0  0  0  0  0  0  0  0  0
   17.2591  -23.9769    5.6775 C   0  0  0  0  0  0  0  0  0  0  0  0
   18.3625  -24.6282    5.1788 C   0  0  0  0  0  0  0  0  0  0  0  0
   17.6658  -22.9076    9.1022 O   0  0  0  0  0  0  0  0  0  0  0  0
  2  1  1  0
  3  2  1  0
  4  3  1  0
  5  4  1  0
  5  6  1  1
  7  8  2  0
  7  5  1  0
 10 11  1  1
 10  9  1  0
 12 10  1  0
 13 12  1  1
 13 14  1  0
 14  7  1  0
 15 13  1  0
 15 16  2  0
 18 17  1  0
 19 18  2  0
 20 19  1  0
 21 20  2  0
 21 27  1  0
 22 21  1  0
 23 22  1  6
 23 24  1  0
 24 15  1  0
 25 23  1  0
 26 25  2  0
 27 28  2  0
 28 18  1  0
 29 25  1  0
M  END
$$$$
