KLW.pdb
     RDKit          3D

 32 33  0  0  1  0  0  0  0  0999 V2000
   21.5877  -19.4453  -16.6995 N   0  0  0  0  0  0  0  0  0  0  0  0
   22.1615  -19.7574  -17.9991 C   0  0  1  0  0  0  0  0  0  0  0  0
   21.4361  -19.1071  -19.1046 C   0  0  0  0  0  0  0  0  0  0  0  0
   20.0928  -19.5308  -19.4925 C   0  0  0  0  0  0  0  0  0  0  0  0
   19.5941  -20.8187  -19.0084 C   0  0  0  0  0  0  0  0  0  0  0  0
   18.2628  -21.3042  -19.4158 C   0  0  0  0  0  0  0  0  0  0  0  0
   17.1755  -20.6496  -18.7001 N   0  0  0  0  0  0  0  0  0  0  0  0
   23.5765  -19.1661  -18.0441 C   0  0  0  0  0  0  0  0  0  0  0  0
   24.1866  -19.0725  -19.1366 O   0  0  0  0  0  0  0  0  0  0  0  0
   26.8958  -15.3065  -15.0530 C   0  0  0  0  0  0  0  0  0  0  0  0
   25.8825  -15.8419  -16.1215 C   0  0  1  0  0  0  0  0  0  0  0  0
   26.5657  -15.5786  -17.4225 C   0  0  0  0  0  0  0  0  0  0  0  0
   25.6813  -17.2469  -15.7407 C   0  0  0  0  0  0  0  0  0  0  0  0
   25.5449  -18.3137  -16.7463 C   0  0  2  0  0  0  0  0  0  0  0  0
   24.1247  -18.7511  -16.8172 N   0  0  0  0  0  0  0  0  0  0  0  0
   26.3178  -19.5575  -16.5652 C   0  0  0  0  0  0  0  0  0  0  0  0
   27.5287  -19.7120  -16.8839 O   0  0  0  0  0  0  0  0  0  0  0  0
   25.7281  -20.7383  -15.9893 N   0  0  0  0  0  0  0  0  0  0  0  0
   25.9386  -21.1600  -14.6174 C   0  0  1  0  0  0  0  0  0  0  0  0
   25.9629  -20.0259  -13.6743 C   0  0  0  0  0  0  0  0  0  0  0  0
   26.2378  -20.4524  -12.2929 C   0  0  0  0  0  0  0  0  0  0  0  0
   27.4759  -20.7299  -11.7078 C   0  0  0  0  0  0  0  0  0  0  0  0
   27.3234  -21.1358  -10.4371 N   0  0  0  0  0  0  0  0  0  0  0  0
   26.0062  -21.1314  -10.1694 C   0  0  0  0  0  0  0  0  0  0  0  0
   25.3235  -21.4475   -8.9977 C   0  0  0  0  0  0  0  0  0  0  0  0
   23.9504  -21.3222   -9.0213 C   0  0  0  0  0  0  0  0  0  0  0  0
   23.2590  -20.9082  -10.1309 C   0  0  0  0  0  0  0  0  0  0  0  0
   23.9375  -20.5981  -11.2854 C   0  0  0  0  0  0  0  0  0  0  0  0
   25.3175  -20.7195  -11.2790 C   0  0  0  0  0  0  0  0  0  0  0  0
   25.1115  -22.2830  -14.2061 C   0  0  0  0  0  0  0  0  0  0  0  0
   23.9168  -22.4229  -14.4825 O   0  0  0  0  0  0  0  0  0  0  0  0
   25.7167  -23.2851  -13.4356 O   0  0  0  0  0  0  0  0  0  0  0  0
  2  1  1  1
  2  3  1  0
  3  4  1  0
  5  4  1  0
  6  5  1  0
  7  6  1  0
  8  2  1  0
  9  8  2  0
 11 10  1  1
 11 13  1  0
 12 11  1  0
 14 13  1  1
 14 16  1  0
 14 15  1  0
 15  8  1  0
 16 17  2  0
 18 16  1  0
 18 19  1  0
 19 20  1  1
 20 21  1  0
 21 29  1  0
 22 21  2  0
 22 23  1  0
 23 24  1  0
 24 25  2  0
 25 26  1  0
 27 26  2  0
 28 27  1  0
 29 28  2  0
 29 24  1  0
 30 32  1  0
 30 19  1  0
 31 30  2  0
M  END
$$$$
