KLW.pdb
     RDKit          3D

 32 33  0  0  1  0  0  0  0  0999 V2000
   27.3661  -17.2438  -12.3178 N   0  0  0  0  0  0  0  0  0  0  0  0
   26.7171  -17.8323  -13.4789 C   0  0  1  0  0  0  0  0  0  0  0  0
   27.3090  -17.3714  -14.7473 C   0  0  0  0  0  0  0  0  0  0  0  0
   26.5454  -16.5719  -15.7023 C   0  0  0  0  0  0  0  0  0  0  0  0
   26.7737  -16.7776  -17.1332 C   0  0  0  0  0  0  0  0  0  0  0  0
   25.6751  -16.5898  -18.0986 C   0  0  0  0  0  0  0  0  0  0  0  0
   26.0875  -16.8087  -19.4787 N   0  0  0  0  0  0  0  0  0  0  0  0
   26.9695  -19.3452  -13.4440 C   0  0  0  0  0  0  0  0  0  0  0  0
   26.5621  -20.0745  -14.3803 O   0  0  0  0  0  0  0  0  0  0  0  0
   31.5083  -21.7814  -11.0045 C   0  0  0  0  0  0  0  0  0  0  0  0
   30.0251  -21.3610  -10.7244 C   0  0  1  0  0  0  0  0  0  0  0  0
   30.1432  -19.9670  -10.2034 C   0  0  0  0  0  0  0  0  0  0  0  0
   29.3592  -21.5390  -12.0222 C   0  0  0  0  0  0  0  0  0  0  0  0
   27.9163  -21.3022  -12.1953 C   0  0  2  0  0  0  0  0  0  0  0  0
   27.6648  -19.8418  -12.3267 N   0  0  0  0  0  0  0  0  0  0  0  0
   26.9948  -21.7534  -11.1350 C   0  0  0  0  0  0  0  0  0  0  0  0
   26.5822  -22.9366  -10.9877 O   0  0  0  0  0  0  0  0  0  0  0  0
   26.4731  -20.8442  -10.1478 N   0  0  0  0  0  0  0  0  0  0  0  0
   25.3320  -21.1377   -9.3015 C   0  0  1  0  0  0  0  0  0  0  0  0
   25.7124  -21.3479   -7.8917 C   0  0  0  0  0  0  0  0  0  0  0  0
   26.4746  -20.2150   -7.3427 C   0  0  0  0  0  0  0  0  0  0  0  0
   26.4955  -18.8924   -7.7929 C   0  0  0  0  0  0  0  0  0  0  0  0
   27.3480  -18.1536   -7.0651 N   0  0  0  0  0  0  0  0  0  0  0  0
   27.8919  -18.9628   -6.1398 C   0  0  0  0  0  0  0  0  0  0  0  0
   28.8142  -18.6891   -5.1331 C   0  0  0  0  0  0  0  0  0  0  0  0
   29.1697  -19.7365   -4.3097 C   0  0  0  0  0  0  0  0  0  0  0  0
   28.6574  -21.0009   -4.4490 C   0  0  0  0  0  0  0  0  0  0  0  0
   27.7479  -21.2662   -5.4450 C   0  0  0  0  0  0  0  0  0  0  0  0
   27.3805  -20.2251   -6.2818 C   0  0  0  0  0  0  0  0  0  0  0  0
   24.1961  -20.2531   -9.5056 C   0  0  0  0  0  0  0  0  0  0  0  0
   24.1980  -19.2504  -10.2254 O   0  0  0  0  0  0  0  0  0  0  0  0
   23.0059  -20.5617   -8.8332 O   0  0  0  0  0  0  0  0  0  0  0  0
  2  1  1  1
  2  3  1  0
  3  4  1  0
  5  4  1  0
  6  5  1  0
  7  6  1  0
  8  2  1  0
  9  8  2  0
 11 10  1  6
 11 13  1  0
 12 11  1  0
 14 13  1  1
 14 16  1  0
 14 15  1  0
 15  8  1  0
 16 17  2  0
 18 16  1  0
 18 19  1  0
 19 20  1  1
 20 21  1  0
 21 29  1  0
 22 21  2  0
 22 23  1  0
 23 24  1  0
 24 25  2  0
 25 26  1  0
 27 26  2  0
 28 27  1  0
 29 28  2  0
 29 24  1  0
 30 32  1  0
 30 19  1  0
 31 30  2  0
M  END
$$$$
