KLW.pdb
     RDKit          3D

 32 33  0  0  1  0  0  0  0  0999 V2000
   27.9370  -20.7834  -17.4704 N   0  0  0  0  0  0  0  0  0  0  0  0
   27.2586  -19.8022  -16.6382 C   0  0  1  0  0  0  0  0  0  0  0  0
   26.3441  -18.9446  -17.4126 C   0  0  0  0  0  0  0  0  0  0  0  0
   26.8449  -17.9310  -18.3378 C   0  0  0  0  0  0  0  0  0  0  0  0
   27.8687  -18.3119  -19.3118 C   0  0  0  0  0  0  0  0  0  0  0  0
   28.3705  -17.3292  -20.2898 C   0  0  0  0  0  0  0  0  0  0  0  0
   29.4428  -17.8547  -21.1246 N   0  0  0  0  0  0  0  0  0  0  0  0
   26.3602  -20.5605  -15.6524 C   0  0  0  0  0  0  0  0  0  0  0  0
   25.8579  -21.6636  -15.9769 O   0  0  0  0  0  0  0  0  0  0  0  0
   25.5294  -22.3228  -10.7719 C   0  0  0  0  0  0  0  0  0  0  0  0
   25.2007  -20.7911  -10.8020 C   0  0  1  0  0  0  0  0  0  0  0  0
   25.7383  -20.2866   -9.5039 C   0  0  0  0  0  0  0  0  0  0  0  0
   25.8542  -20.3164  -12.0297 C   0  0  0  0  0  0  0  0  0  0  0  0
   25.3345  -20.6493  -13.3665 C   0  0  2  0  0  0  0  0  0  0  0  0
   26.1448  -19.9535  -14.4020 N   0  0  0  0  0  0  0  0  0  0  0  0
   23.9349  -20.3075  -13.6849 C   0  0  0  0  0  0  0  0  0  0  0  0
   23.4940  -19.1373  -13.8519 O   0  0  0  0  0  0  0  0  0  0  0  0
   22.9232  -21.3212  -13.8349 N   0  0  0  0  0  0  0  0  0  0  0  0
   21.5077  -21.0361  -13.9735 C   0  0  1  0  0  0  0  0  0  0  0  0
   20.9457  -21.5598  -15.2330 C   0  0  0  0  0  0  0  0  0  0  0  0
   21.3179  -20.7387  -16.3962 C   0  0  0  0  0  0  0  0  0  0  0  0
   22.4710  -20.8288  -17.1801 C   0  0  0  0  0  0  0  0  0  0  0  0
   22.4796  -19.8779  -18.1279 N   0  0  0  0  0  0  0  0  0  0  0  0
   21.3523  -19.1596  -17.9866 C   0  0  0  0  0  0  0  0  0  0  0  0
   20.8732  -18.0798  -18.7236 C   0  0  0  0  0  0  0  0  0  0  0  0
   19.6525  -17.5595  -18.3484 C   0  0  0  0  0  0  0  0  0  0  0  0
   18.9194  -18.0589  -17.3026 C   0  0  0  0  0  0  0  0  0  0  0  0
   19.3972  -19.1245  -16.5774 C   0  0  0  0  0  0  0  0  0  0  0  0
   20.6226  -19.6588  -16.9408 C   0  0  0  0  0  0  0  0  0  0  0  0
   20.7228  -21.3250  -12.7840 C   0  0  0  0  0  0  0  0  0  0  0  0
   21.1225  -21.9678  -11.8091 O   0  0  0  0  0  0  0  0  0  0  0  0
   19.4100  -20.8363  -12.7398 O   0  0  0  0  0  0  0  0  0  0  0  0
  2  1  1  6
  2  3  1  0
  3  4  1  0
  5  4  1  0
  6  5  1  0
  7  6  1  0
  8  2  1  0
  9  8  2  0
 11 10  1  1
 11 13  1  0
 12 11  1  0
 14 13  1  1
 14 16  1  0
 14 15  1  0
 15  8  1  0
 16 17  2  0
 18 16  1  0
 18 19  1  0
 19 20  1  6
 20 21  1  0
 21 29  1  0
 22 21  2  0
 22 23  1  0
 23 24  1  0
 24 25  2  0
 25 26  1  0
 27 26  2  0
 28 27  1  0
 29 28  2  0
 29 24  1  0
 30 32  1  0
 30 19  1  0
 31 30  2  0
M  END
$$$$
