KLW.pdb
     RDKit          3D

 32 33  0  0  1  0  0  0  0  0999 V2000
   23.1506  -17.0160  -18.8549 N   0  0  0  0  0  0  0  0  0  0  0  0
   24.0058  -16.4163  -17.8426 C   0  0  1  0  0  0  0  0  0  0  0  0
   23.3557  -16.3562  -16.5215 C   0  0  0  0  0  0  0  0  0  0  0  0
   21.9704  -15.9179  -16.3695 C   0  0  0  0  0  0  0  0  0  0  0  0
   20.9337  -16.9267  -16.1472 C   0  0  0  0  0  0  0  0  0  0  0  0
   19.5391  -16.5203  -15.8942 C   0  0  0  0  0  0  0  0  0  0  0  0
   18.9212  -15.8653  -17.0396 N   0  0  0  0  0  0  0  0  0  0  0  0
   25.2223  -17.3313  -17.6506 C   0  0  0  0  0  0  0  0  0  0  0  0
   25.1030  -18.5740  -17.7765 O   0  0  0  0  0  0  0  0  0  0  0  0
   30.4027  -15.3689  -18.8622 C   0  0  0  0  0  0  0  0  0  0  0  0
   29.0451  -16.1459  -18.9524 C   0  0  1  0  0  0  0  0  0  0  0  0
   29.2818  -17.1509  -20.0307 C   0  0  0  0  0  0  0  0  0  0  0  0
   28.8429  -16.6577  -17.5898 C   0  0  0  0  0  0  0  0  0  0  0  0
   27.6894  -17.5032  -17.2394 C   0  0  2  0  0  0  0  0  0  0  0  0
   26.4394  -16.7019  -17.3332 N   0  0  0  0  0  0  0  0  0  0  0  0
   27.6471  -18.1194  -15.8995 C   0  0  0  0  0  0  0  0  0  0  0  0
   27.9030  -17.5221  -14.8180 O   0  0  0  0  0  0  0  0  0  0  0  0
   27.2982  -19.5040  -15.7134 N   0  0  0  0  0  0  0  0  0  0  0  0
   27.1517  -20.1332  -14.4145 C   0  0  1  0  0  0  0  0  0  0  0  0
   26.3479  -19.3221  -13.4805 C   0  0  0  0  0  0  0  0  0  0  0  0
   26.1753  -19.9787  -12.1748 C   0  0  0  0  0  0  0  0  0  0  0  0
   27.1665  -20.4552  -11.3130 C   0  0  0  0  0  0  0  0  0  0  0  0
   26.6211  -21.0352  -10.2320 N   0  0  0  0  0  0  0  0  0  0  0  0
   25.2858  -20.9508  -10.3616 C   0  0  0  0  0  0  0  0  0  0  0  0
   24.2689  -21.3787   -9.5120 C   0  0  0  0  0  0  0  0  0  0  0  0
   22.9735  -21.1255   -9.9110 C   0  0  0  0  0  0  0  0  0  0  0  0
   22.6668  -20.4846  -11.0839 C   0  0  0  0  0  0  0  0  0  0  0  0
   23.6744  -20.0649  -11.9197 C   0  0  0  0  0  0  0  0  0  0  0  0
   24.9818  -20.3122  -11.5342 C   0  0  0  0  0  0  0  0  0  0  0  0
   26.7915  -21.5408  -14.4719 C   0  0  0  0  0  0  0  0  0  0  0  0
   27.5200  -22.4743  -14.1236 O   0  0  0  0  0  0  0  0  0  0  0  0
   25.5184  -21.8641  -14.9604 O   0  0  0  0  0  0  0  0  0  0  0  0
  2  1  1  6
  2  3  1  0
  3  4  1  0
  5  4  1  0
  6  5  1  0
  7  6  1  0
  8  2  1  0
  9  8  2  0
 11 10  1  1
 11 13  1  0
 12 11  1  0
 14 13  1  1
 14 16  1  0
 14 15  1  0
 15  8  1  0
 16 17  2  0
 18 16  1  0
 18 19  1  0
 19 20  1  1
 20 21  1  0
 21 29  1  0
 22 21  2  0
 22 23  1  0
 23 24  1  0
 24 25  2  0
 25 26  1  0
 27 26  2  0
 28 27  1  0
 29 28  2  0
 29 24  1  0
 30 32  1  0
 30 19  1  0
 31 30  2  0
M  END
$$$$
