KLW.pdb
     RDKit          3D

 32 33  0  0  1  0  0  0  0  0999 V2000
   28.1605  -21.7908  -15.4188 N   0  0  0  0  0  0  0  0  0  0  0  0
   27.1583  -20.7738  -15.6963 C   0  0  1  0  0  0  0  0  0  0  0  0
   26.7236  -20.7825  -17.1043 C   0  0  0  0  0  0  0  0  0  0  0  0
   27.6828  -20.6859  -18.2020 C   0  0  0  0  0  0  0  0  0  0  0  0
   28.6847  -19.6197  -18.1689 C   0  0  0  0  0  0  0  0  0  0  0  0
   29.6287  -19.4479  -19.2885 C   0  0  0  0  0  0  0  0  0  0  0  0
   29.6982  -20.6152  -20.1575 N   0  0  0  0  0  0  0  0  0  0  0  0
   25.9016  -21.1165  -14.8856 C   0  0  0  0  0  0  0  0  0  0  0  0
   24.9981  -21.8250  -15.3918 O   0  0  0  0  0  0  0  0  0  0  0  0
   26.8639  -21.6795  -10.9568 C   0  0  0  0  0  0  0  0  0  0  0  0
   25.4555  -21.3222  -10.3705 C   0  0  1  0  0  0  0  0  0  0  0  0
   25.7639  -20.7615   -9.0217 C   0  0  0  0  0  0  0  0  0  0  0  0
   24.8844  -20.4036  -11.3652 C   0  0  0  0  0  0  0  0  0  0  0  0
   24.6195  -20.8244  -12.7511 C   0  0  2  0  0  0  0  0  0  0  0  0
   25.8340  -20.5980  -13.5799 N   0  0  0  0  0  0  0  0  0  0  0  0
   23.5253  -20.1672  -13.4913 C   0  0  0  0  0  0  0  0  0  0  0  0
   23.4800  -18.9400  -13.7807 O   0  0  0  0  0  0  0  0  0  0  0  0
   22.3788  -20.9025  -13.9588 N   0  0  0  0  0  0  0  0  0  0  0  0
   21.2222  -20.2864  -14.5809 C   0  0  1  0  0  0  0  0  0  0  0  0
   21.3551  -20.1848  -16.0467 C   0  0  0  0  0  0  0  0  0  0  0  0
   20.2435  -19.4401  -16.6592 C   0  0  0  0  0  0  0  0  0  0  0  0
   20.0129  -18.0622  -16.6339 C   0  0  0  0  0  0  0  0  0  0  0  0
   18.8686  -17.7577  -17.2667 N   0  0  0  0  0  0  0  0  0  0  0  0
   18.3371  -18.9093  -17.7118 C   0  0  0  0  0  0  0  0  0  0  0  0
   17.1739  -19.1428  -18.4407 C   0  0  0  0  0  0  0  0  0  0  0  0
   16.8996  -20.4515  -18.7776 C   0  0  0  0  0  0  0  0  0  0  0  0
   17.7138  -21.4976  -18.4264 C   0  0  0  0  0  0  0  0  0  0  0  0
   18.8606  -21.2620  -17.7059 C   0  0  0  0  0  0  0  0  0  0  0  0
   19.1506  -19.9527  -17.3585 C   0  0  0  0  0  0  0  0  0  0  0  0
   19.9472  -20.8073  -14.1148 C   0  0  0  0  0  0  0  0  0  0  0  0
   19.6779  -22.0037  -13.9750 O   0  0  0  0  0  0  0  0  0  0  0  0
   18.9450  -19.8799  -13.7994 O   0  0  0  0  0  0  0  0  0  0  0  0
  2  1  1  6
  2  3  1  0
  3  4  1  0
  5  4  1  0
  6  5  1  0
  7  6  1  0
  8  2  1  0
  9  8  2  0
 11 10  1  6
 11 13  1  0
 12 11  1  0
 14 13  1  1
 14 16  1  0
 14 15  1  0
 15  8  1  0
 16 17  2  0
 18 16  1  0
 18 19  1  0
 19 20  1  6
 20 21  1  0
 21 29  1  0
 22 21  2  0
 22 23  1  0
 23 24  1  0
 24 25  2  0
 25 26  1  0
 27 26  2  0
 28 27  1  0
 29 28  2  0
 29 24  1  0
 30 32  1  0
 30 19  1  0
 31 30  2  0
M  END
$$$$
