YNG.pdb
     RDKit          3D

 25 25  0  0  1  0  0  0  0  0999 V2000
   28.3633  -20.0739   -4.1980 O   0  0  0  0  0  0  0  0  0  0  0  0
   27.9930  -19.9527   -5.5292 C   0  0  0  0  0  0  0  0  0  0  0  0
   28.8698  -19.4921   -6.4803 C   0  0  0  0  0  0  0  0  0  0  0  0
   28.4866  -19.3787   -7.7932 C   0  0  0  0  0  0  0  0  0  0  0  0
   27.2082  -19.7201   -8.2208 C   0  0  0  0  0  0  0  0  0  0  0  0
   26.8256  -19.5841   -9.6544 C   0  0  0  0  0  0  0  0  0  0  0  0
   26.6753  -20.9846  -10.2203 C   0  0  2  0  0  0  0  0  0  0  0  0
   28.0059  -21.4820  -10.5138 N   0  0  0  0  0  0  0  0  0  0  0  0
   25.8911  -20.9965  -11.4722 C   0  0  0  0  0  0  0  0  0  0  0  0
   26.4100  -20.5334  -12.5168 O   0  0  0  0  0  0  0  0  0  0  0  0
   26.3398  -20.1831   -7.2422 C   0  0  0  0  0  0  0  0  0  0  0  0
   26.7321  -20.2952   -5.9194 C   0  0  0  0  0  0  0  0  0  0  0  0
   25.1210  -24.5731  -13.3962 N   0  0  0  0  0  0  0  0  0  0  0  0
   24.6190  -23.3712  -13.9263 C   0  0  0  0  0  0  0  0  0  0  0  0
   25.1776  -22.8381  -14.9021 O   0  0  0  0  0  0  0  0  0  0  0  0
   23.4321  -22.7403  -13.3295 C   0  0  0  0  0  0  0  0  0  0  0  0
   23.7503  -21.3787  -12.7405 C   0  0  2  0  0  0  0  0  0  0  0  0
   24.5714  -21.5108  -11.5476 N   0  0  0  0  0  0  0  0  0  0  0  0
   22.5461  -20.6071  -12.4228 C   0  0  0  0  0  0  0  0  0  0  0  0
   21.9915  -20.7394  -11.3131 O   0  0  0  0  0  0  0  0  0  0  0  0
   22.0087  -19.7121  -13.3694 N   0  0  0  0  0  0  0  0  0  0  0  0
   20.9347  -18.7966  -13.1006 C   0  0  0  0  0  0  0  0  0  0  0  0
   19.6419  -19.5052  -13.2004 C   0  0  0  0  0  0  0  0  0  0  0  0
   18.4683  -18.8196  -12.9167 O   0  0  0  0  0  0  0  0  0  0  0  0
   19.5475  -20.7148  -13.5340 O   0  0  0  0  0  0  0  0  0  0  0  0
  2  3  2  0
  2  1  1  0
  4  3  1  0
  5  4  2  0
  6  5  1  0
  6  7  1  0
  7  8  1  6
  9 18  1  0
  9  7  1  0
 10  9  2  0
 11  5  1  0
 11 12  2  0
 12  2  1  0
 14 13  1  0
 15 14  2  0
 16 14  1  0
 17 16  1  1
 17 19  1  0
 17 18  1  0
 19 20  2  0
 21 22  1  0
 21 19  1  0
 22 23  1  0
 23 25  2  0
 23 24  1  0
M  END
$$$$
