YNG.pdb
     RDKit          3D

 25 25  0  0  1  0  0  0  0  0999 V2000
   28.3725  -19.5735   -5.8584 O   0  0  0  0  0  0  0  0  0  0  0  0
   27.7362  -20.0622   -6.9899 C   0  0  0  0  0  0  0  0  0  0  0  0
   26.4271  -19.7546   -7.2680 C   0  0  0  0  0  0  0  0  0  0  0  0
   25.8132  -20.2469   -8.3923 C   0  0  0  0  0  0  0  0  0  0  0  0
   26.4769  -21.0709   -9.2946 C   0  0  0  0  0  0  0  0  0  0  0  0
   25.7795  -21.5880  -10.5054 C   0  0  0  0  0  0  0  0  0  0  0  0
   26.4363  -20.9505  -11.7164 C   0  0  2  0  0  0  0  0  0  0  0  0
   26.3661  -19.5120  -11.5444 N   0  0  0  0  0  0  0  0  0  0  0  0
   25.7425  -21.2999  -12.9729 C   0  0  0  0  0  0  0  0  0  0  0  0
   24.8158  -20.5581  -13.3800 O   0  0  0  0  0  0  0  0  0  0  0  0
   27.7987  -21.3678   -8.9930 C   0  0  0  0  0  0  0  0  0  0  0  0
   28.4126  -20.8684   -7.8571 C   0  0  0  0  0  0  0  0  0  0  0  0
   27.3487  -20.4989  -15.6864 N   0  0  0  0  0  0  0  0  0  0  0  0
   27.7030  -21.7425  -16.2391 C   0  0  0  0  0  0  0  0  0  0  0  0
   28.7402  -21.8510  -16.9178 O   0  0  0  0  0  0  0  0  0  0  0  0
   26.8490  -22.9190  -16.0168 C   0  0  0  0  0  0  0  0  0  0  0  0
   25.6615  -22.5971  -15.1289 C   0  0  2  0  0  0  0  0  0  0  0  0
   26.0784  -22.4418  -13.7444 N   0  0  0  0  0  0  0  0  0  0  0  0
   24.6058  -23.6096  -15.2114 C   0  0  0  0  0  0  0  0  0  0  0  0
   24.0846  -23.8835  -16.3114 O   0  0  0  0  0  0  0  0  0  0  0  0
   24.1742  -24.2786  -14.0486 N   0  0  0  0  0  0  0  0  0  0  0  0
   23.2013  -25.3356  -14.0357 C   0  0  0  0  0  0  0  0  0  0  0  0
   21.8453  -24.7605  -13.9173 C   0  0  0  0  0  0  0  0  0  0  0  0
   20.7520  -25.6120  -13.8307 O   0  0  0  0  0  0  0  0  0  0  0  0
   21.6264  -23.5217  -13.8903 O   0  0  0  0  0  0  0  0  0  0  0  0
  2  3  2  0
  2  1  1  0
  4  3  1  0
  5  4  2  0
  6  5  1  0
  6  7  1  0
  7  8  1  1
  9 18  1  0
  9  7  1  0
 10  9  2  0
 11  5  1  0
 11 12  2  0
 12  2  1  0
 14 13  1  0
 15 14  2  0
 16 14  1  0
 17 16  1  6
 17 19  1  0
 17 18  1  0
 19 20  2  0
 21 22  1  0
 21 19  1  0
 22 23  1  0
 23 25  2  0
 23 24  1  0
M  END
$$$$
