YNG.pdb
     RDKit          3D

 25 25  0  0  1  0  0  0  0  0999 V2000
   23.1052  -30.4830  -15.9716 O   0  0  0  0  0  0  0  0  0  0  0  0
   23.5692  -29.1997  -15.7229 C   0  0  0  0  0  0  0  0  0  0  0  0
   22.7074  -28.1555  -15.4935 C   0  0  0  0  0  0  0  0  0  0  0  0
   23.1840  -26.8919  -15.2488 C   0  0  0  0  0  0  0  0  0  0  0  0
   24.5452  -26.6093  -15.2212 C   0  0  0  0  0  0  0  0  0  0  0  0
   25.0279  -25.2255  -14.9528 C   0  0  0  0  0  0  0  0  0  0  0  0
   24.9890  -24.4667  -16.2668 C   0  0  2  0  0  0  0  0  0  0  0  0
   26.0999  -24.9340  -17.0739 N   0  0  0  0  0  0  0  0  0  0  0  0
   25.1402  -23.0102  -16.0719 C   0  0  0  0  0  0  0  0  0  0  0  0
   26.2931  -22.5334  -15.9357 O   0  0  0  0  0  0  0  0  0  0  0  0
   25.3966  -27.6800  -15.4556 C   0  0  0  0  0  0  0  0  0  0  0  0
   24.9100  -28.9523  -15.7020 C   0  0  0  0  0  0  0  0  0  0  0  0
   25.5695  -17.8733  -16.7650 N   0  0  0  0  0  0  0  0  0  0  0  0
   24.3060  -18.4776  -16.8911 C   0  0  0  0  0  0  0  0  0  0  0  0
   23.2739  -17.7861  -16.8224 O   0  0  0  0  0  0  0  0  0  0  0  0
   24.2001  -19.9289  -17.1048 C   0  0  0  0  0  0  0  0  0  0  0  0
   24.1911  -20.6949  -15.7951 C   0  0  2  0  0  0  0  0  0  0  0  0
   24.0356  -22.1213  -16.0317 N   0  0  0  0  0  0  0  0  0  0  0  0
   23.1439  -20.2337  -14.8801 C   0  0  0  0  0  0  0  0  0  0  0  0
   23.4490  -19.6297  -13.8319 O   0  0  0  0  0  0  0  0  0  0  0  0
   21.7875  -20.4703  -15.1798 N   0  0  0  0  0  0  0  0  0  0  0  0
   20.6887  -20.0281  -14.3667 C   0  0  0  0  0  0  0  0  0  0  0  0
   20.4703  -20.9867  -13.2637 C   0  0  0  0  0  0  0  0  0  0  0  0
   20.1996  -20.5056  -11.9897 O   0  0  0  0  0  0  0  0  0  0  0  0
   20.5173  -22.2343  -13.4208 O   0  0  0  0  0  0  0  0  0  0  0  0
  2  3  2  0
  2  1  1  0
  4  3  1  0
  5  4  2  0
  6  5  1  0
  6  7  1  0
  7  8  1  6
  9 18  1  0
  9  7  1  0
 10  9  2  0
 11  5  1  0
 11 12  2  0
 12  2  1  0
 14 13  1  0
 15 14  2  0
 16 14  1  0
 17 16  1  6
 17 19  1  0
 17 18  1  0
 19 20  2  0
 21 22  1  0
 21 19  1  0
 22 23  1  0
 23 25  2  0
 23 24  1  0
M  END
$$$$
