YNG.pdb
     RDKit          3D

 25 25  0  0  1  0  0  0  0  0999 V2000
   29.5328  -12.8931  -16.9237 O   0  0  0  0  0  0  0  0  0  0  0  0
   28.5539  -11.9275  -16.7414 C   0  0  0  0  0  0  0  0  0  0  0  0
   28.1324  -11.1271  -17.7746 C   0  0  0  0  0  0  0  0  0  0  0  0
   27.1624  -10.1766  -17.5765 C   0  0  0  0  0  0  0  0  0  0  0  0
   26.5655   -9.9789  -16.3362 C   0  0  0  0  0  0  0  0  0  0  0  0
   25.5153   -8.9374  -16.1565 C   0  0  0  0  0  0  0  0  0  0  0  0
   24.1877   -9.6537  -15.9878 C   0  0  2  0  0  0  0  0  0  0  0  0
   23.9879  -10.4845  -17.1598 N   0  0  0  0  0  0  0  0  0  0  0  0
   23.0555   -8.7096  -15.8923 C   0  0  0  0  0  0  0  0  0  0  0  0
   22.5842   -8.2197  -16.9472 O   0  0  0  0  0  0  0  0  0  0  0  0
   27.0073  -10.7993  -15.3076 C   0  0  0  0  0  0  0  0  0  0  0  0
   27.9862  -11.7562  -15.5135 C   0  0  0  0  0  0  0  0  0  0  0  0
   19.8547   -9.3208  -15.9285 N   0  0  0  0  0  0  0  0  0  0  0  0
   19.4671   -9.0682  -14.6006 C   0  0  0  0  0  0  0  0  0  0  0  0
   18.5050   -9.6814  -14.1038 O   0  0  0  0  0  0  0  0  0  0  0  0
   20.1976   -8.0787  -13.7942 C   0  0  0  0  0  0  0  0  0  0  0  0
   21.3292   -7.4363  -14.5746 C   0  0  2  0  0  0  0  0  0  0  0  0
   22.4735   -8.3300  -14.6558 N   0  0  0  0  0  0  0  0  0  0  0  0
   21.7493   -6.1537  -14.0047 C   0  0  0  0  0  0  0  0  0  0  0  0
   22.4772   -6.1263  -12.9917 O   0  0  0  0  0  0  0  0  0  0  0  0
   21.3330   -4.9452  -14.5980 N   0  0  0  0  0  0  0  0  0  0  0  0
   21.6257   -3.6409  -14.0715 C   0  0  0  0  0  0  0  0  0  0  0  0
   21.1155   -2.6069  -14.9955 C   0  0  0  0  0  0  0  0  0  0  0  0
   21.2191   -1.2685  -14.6406 O   0  0  0  0  0  0  0  0  0  0  0  0
   20.5845   -2.8796  -16.1032 O   0  0  0  0  0  0  0  0  0  0  0  0
  2  3  2  0
  2  1  1  0
  4  3  1  0
  5  4  2  0
  6  5  1  0
  6  7  1  0
  7  8  1  6
  9 18  1  0
  9  7  1  0
 10  9  2  0
 11  5  1  0
 11 12  2  0
 12  2  1  0
 14 13  1  0
 15 14  2  0
 16 14  1  0
 17 16  1  1
 17 19  1  0
 17 18  1  0
 19 20  2  0
 21 22  1  0
 21 19  1  0
 22 23  1  0
 23 25  2  0
 23 24  1  0
M  END
$$$$
