YNG.pdb
     RDKit          3D

 25 25  0  0  1  0  0  0  0  0999 V2000
   17.8533  -22.8800  -11.1839 O   0  0  0  0  0  0  0  0  0  0  0  0
   18.1158  -24.2338  -11.0341 C   0  0  0  0  0  0  0  0  0  0  0  0
   17.7453  -25.1479  -11.9895 C   0  0  0  0  0  0  0  0  0  0  0  0
   18.0132  -26.4838  -11.8251 C   0  0  0  0  0  0  0  0  0  0  0  0
   18.6647  -26.9725  -10.6980 C   0  0  0  0  0  0  0  0  0  0  0  0
   18.9394  -28.4296  -10.5518 C   0  0  0  0  0  0  0  0  0  0  0  0
   20.4016  -28.6537  -10.8919 C   0  0  2  0  0  0  0  0  0  0  0  0
   20.5661  -28.3883  -12.3083 N   0  0  0  0  0  0  0  0  0  0  0  0
   20.8259  -30.0443  -10.6301 C   0  0  0  0  0  0  0  0  0  0  0  0
   20.6682  -30.9055  -11.5293 O   0  0  0  0  0  0  0  0  0  0  0  0
   19.0296  -26.0303   -9.7465 C   0  0  0  0  0  0  0  0  0  0  0  0
   18.7564  -24.6840   -9.9178 C   0  0  0  0  0  0  0  0  0  0  0  0
   25.4894  -32.0505   -9.8128 N   0  0  0  0  0  0  0  0  0  0  0  0
   24.2215  -31.5368   -9.4874 C   0  0  0  0  0  0  0  0  0  0  0  0
   24.1242  -30.5035   -8.8009 O   0  0  0  0  0  0  0  0  0  0  0  0
   23.0062  -32.2188   -9.9572 C   0  0  0  0  0  0  0  0  0  0  0  0
   21.7877  -31.8312   -9.1403 C   0  0  2  0  0  0  0  0  0  0  0  0
   21.4070  -30.4524   -9.4023 N   0  0  0  0  0  0  0  0  0  0  0  0
   21.9917  -32.0177   -7.7015 C   0  0  0  0  0  0  0  0  0  0  0  0
   22.4837  -31.1001   -7.0141 O   0  0  0  0  0  0  0  0  0  0  0  0
   21.6333  -33.2344   -7.0876 N   0  0  0  0  0  0  0  0  0  0  0  0
   21.7918  -33.5132   -5.6872 C   0  0  0  0  0  0  0  0  0  0  0  0
   23.2216  -33.7284   -5.3828 C   0  0  0  0  0  0  0  0  0  0  0  0
   23.6158  -33.9035   -4.0630 O   0  0  0  0  0  0  0  0  0  0  0  0
   24.1135  -33.7617   -6.2697 O   0  0  0  0  0  0  0  0  0  0  0  0
  2  3  2  0
  2  1  1  0
  4  3  1  0
  5  4  2  0
  6  5  1  0
  6  7  1  0
  7  8  1  6
  9 18  1  0
  9  7  1  0
 10  9  2  0
 11  5  1  0
 11 12  2  0
 12  2  1  0
 14 13  1  0
 15 14  2  0
 16 14  1  0
 17 16  1  6
 17 19  1  0
 17 18  1  0
 19 20  2  0
 21 22  1  0
 21 19  1  0
 22 23  1  0
 23 25  2  0
 23 24  1  0
M  END
$$$$
