YNG.pdb
     RDKit          3D

 25 25  0  0  1  0  0  0  0  0999 V2000
   22.8157  -14.4248  -20.6057 O   0  0  0  0  0  0  0  0  0  0  0  0
   22.4534  -15.4000  -19.6882 C   0  0  0  0  0  0  0  0  0  0  0  0
   22.8937  -15.3630  -18.3881 C   0  0  0  0  0  0  0  0  0  0  0  0
   22.5251  -16.3362  -17.4934 C   0  0  0  0  0  0  0  0  0  0  0  0
   21.6983  -17.3946  -17.8536 C   0  0  0  0  0  0  0  0  0  0  0  0
   21.3181  -18.4344  -16.8564 C   0  0  0  0  0  0  0  0  0  0  0  0
   22.5211  -19.3394  -16.6611 C   0  0  2  0  0  0  0  0  0  0  0  0
   22.6876  -20.1127  -17.8768 N   0  0  0  0  0  0  0  0  0  0  0  0
   22.3320  -20.2798  -15.5376 C   0  0  0  0  0  0  0  0  0  0  0  0
   21.5669  -21.2625  -15.6921 O   0  0  0  0  0  0  0  0  0  0  0  0
   21.2657  -17.4109  -19.1723 C   0  0  0  0  0  0  0  0  0  0  0  0
   21.6411  -16.4264  -20.0702 C   0  0  0  0  0  0  0  0  0  0  0  0
   24.9048  -22.5646  -14.0261 N   0  0  0  0  0  0  0  0  0  0  0  0
   25.0661  -21.9030  -12.7958 C   0  0  0  0  0  0  0  0  0  0  0  0
   26.1254  -22.0268  -12.1548 O   0  0  0  0  0  0  0  0  0  0  0  0
   23.9836  -21.0622  -12.2625 C   0  0  0  0  0  0  0  0  0  0  0  0
   22.7756  -21.0447  -13.1805 C   0  0  2  0  0  0  0  0  0  0  0  0
   22.9797  -20.1218  -14.2857 N   0  0  0  0  0  0  0  0  0  0  0  0
   21.5382  -20.6990  -12.4765 C   0  0  0  0  0  0  0  0  0  0  0  0
   21.2675  -19.5055  -12.2339 O   0  0  0  0  0  0  0  0  0  0  0  0
   20.6482  -21.7131  -12.0699 N   0  0  0  0  0  0  0  0  0  0  0  0
   19.4771  -21.4902  -11.2681 C   0  0  0  0  0  0  0  0  0  0  0  0
   18.3159  -22.1613  -11.8882 C   0  0  0  0  0  0  0  0  0  0  0  0
   17.1019  -22.1778  -11.2146 O   0  0  0  0  0  0  0  0  0  0  0  0
   18.3704  -22.7267  -13.0110 O   0  0  0  0  0  0  0  0  0  0  0  0
  2  3  2  0
  2  1  1  0
  4  3  1  0
  5  4  2  0
  6  5  1  0
  6  7  1  0
  7  8  1  6
  9 18  1  0
  9  7  1  0
 10  9  2  0
 11  5  1  0
 11 12  2  0
 12  2  1  0
 14 13  1  0
 15 14  2  0
 16 14  1  0
 17 16  1  1
 17 19  1  0
 17 18  1  0
 19 20  2  0
 21 22  1  0
 21 19  1  0
 22 23  1  0
 23 25  2  0
 23 24  1  0
M  END
$$$$
