YNG.pdb
     RDKit          3D

 25 25  0  0  1  0  0  0  0  0999 V2000
   26.3729  -16.7394  -16.0540 O   0  0  0  0  0  0  0  0  0  0  0  0
   25.8173  -15.4719  -16.1460 C   0  0  0  0  0  0  0  0  0  0  0  0
   25.7467  -14.8030  -17.3433 C   0  0  0  0  0  0  0  0  0  0  0  0
   25.1933  -13.5493  -17.4162 C   0  0  0  0  0  0  0  0  0  0  0  0
   24.6829  -12.9017  -16.2964 C   0  0  0  0  0  0  0  0  0  0  0  0
   24.0893  -11.5400  -16.4117 C   0  0  0  0  0  0  0  0  0  0  0  0
   22.5834  -11.7062  -16.5051 C   0  0  2  0  0  0  0  0  0  0  0  0
   22.2902  -12.3158  -17.7883 N   0  0  0  0  0  0  0  0  0  0  0  0
   21.8764  -10.4109  -16.4368 C   0  0  0  0  0  0  0  0  0  0  0  0
   21.7152   -9.7520  -17.4926 O   0  0  0  0  0  0  0  0  0  0  0  0
   24.7651  -13.5969  -15.0980 C   0  0  0  0  0  0  0  0  0  0  0  0
   25.3246  -14.8614  -15.0307 C   0  0  0  0  0  0  0  0  0  0  0  0
   17.7235   -7.2031  -13.5667 N   0  0  0  0  0  0  0  0  0  0  0  0
   18.4860   -7.5284  -14.7026 C   0  0  0  0  0  0  0  0  0  0  0  0
   18.5416   -6.7399  -15.6636 O   0  0  0  0  0  0  0  0  0  0  0  0
   19.2205   -8.8014  -14.7587 C   0  0  0  0  0  0  0  0  0  0  0  0
   20.6675   -8.6026  -15.1693 C   0  0  2  0  0  0  0  0  0  0  0  0
   21.3683   -9.8755  -15.2255 N   0  0  0  0  0  0  0  0  0  0  0  0
   21.3853   -7.6877  -14.2781 C   0  0  0  0  0  0  0  0  0  0  0  0
   21.9631   -8.1261  -13.2630 O   0  0  0  0  0  0  0  0  0  0  0  0
   21.4260   -6.3083  -14.5634 N   0  0  0  0  0  0  0  0  0  0  0  0
   22.0983   -5.3322  -13.7514 C   0  0  0  0  0  0  0  0  0  0  0  0
   21.8904   -3.9847  -14.3210 C   0  0  0  0  0  0  0  0  0  0  0  0
   22.4390   -2.8836  -13.6773 O   0  0  0  0  0  0  0  0  0  0  0  0
   21.2328   -3.7800  -15.3740 O   0  0  0  0  0  0  0  0  0  0  0  0
  2  3  2  0
  2  1  1  0
  4  3  1  0
  5  4  2  0
  6  5  1  0
  6  7  1  0
  7  8  1  6
  9 18  1  0
  9  7  1  0
 10  9  2  0
 11  5  1  0
 11 12  2  0
 12  2  1  0
 14 13  1  0
 15 14  2  0
 16 14  1  0
 17 16  1  1
 17 19  1  0
 17 18  1  0
 19 20  2  0
 21 22  1  0
 21 19  1  0
 22 23  1  0
 23 25  2  0
 23 24  1  0
M  END
$$$$
