SMR.pdb
     RDKit          3D

 26 25  0  0  1  0  0  0  0  0999 V2000
   21.1189  -19.1187  -17.7437 O   0  0  0  0  0  0  0  0  0  0  0  0
   22.2298  -19.9085  -17.4536 C   0  0  0  0  0  0  0  0  0  0  0  0
   22.4884  -19.8510  -15.9762 C   0  0  2  0  0  0  0  0  0  0  0  0
   21.3891  -20.4479  -15.2623 N   0  0  0  0  0  0  0  0  0  0  0  0
   22.6714  -18.4316  -15.5784 C   0  0  0  0  0  0  0  0  0  0  0  0
   21.8489  -17.9009  -14.7902 O   0  0  0  0  0  0  0  0  0  0  0  0
   27.7748  -14.3344  -16.4645 C   0  0  0  0  0  0  0  0  0  0  0  0
   27.9037  -15.8322  -15.4865 S   0  0  0  0  0  0  0  0  0  0  0  0
   26.2182  -16.3295  -14.9807 C   0  0  0  0  0  0  0  0  0  0  0  0
   25.2730  -15.8013  -16.0158 C   0  0  0  0  0  0  0  0  0  0  0  0
   23.8458  -16.2746  -15.7414 C   0  0  2  0  0  0  0  0  0  0  0  0
   23.7724  -17.6602  -16.0811 N   0  0  0  0  0  0  0  0  0  0  0  0
   22.9579  -15.4901  -16.6338 C   0  0  0  0  0  0  0  0  0  0  0  0
   22.7796  -15.8979  -17.8169 O   0  0  0  0  0  0  0  0  0  0  0  0
   15.1695  -11.3164  -15.6968 N   0  0  0  0  0  0  0  0  0  0  0  0
   15.6753  -11.1167  -17.0195 C   0  0  0  0  0  0  0  0  0  0  0  0
   14.9285  -10.5298  -17.9066 N   0  0  0  0  0  0  0  0  0  0  0  0
   16.9551  -11.5302  -17.4164 N   0  0  0  0  0  0  0  0  0  0  0  0
   17.8093  -12.2594  -16.4506 C   0  0  0  0  0  0  0  0  0  0  0  0
   19.0962  -12.4853  -17.1304 C   0  0  0  0  0  0  0  0  0  0  0  0
   20.1559  -13.2633  -16.4974 C   0  0  0  0  0  0  0  0  0  0  0  0
   21.3955  -13.5591  -17.2066 C   0  0  2  0  0  0  0  0  0  0  0  0
   22.2903  -14.3185  -16.2669 N   0  0  0  0  0  0  0  0  0  0  0  0
   22.2031  -12.4618  -17.6572 C   0  0  0  0  0  0  0  0  0  0  0  0
   21.8435  -11.7573  -18.8274 O   0  0  0  0  0  0  0  0  0  0  0  0
   23.2272  -12.0544  -17.1008 O   0  0  0  0  0  0  0  0  0  0  0  0
  2  3  1  0
  2  1  1  0
  3  4  1  1
  5 12  1  0
  5  3  1  0
  6  5  2  0
  7  8  1  0
  8  9  1  0
  9 10  1  0
 11 10  1  6
 11 12  1  0
 13 11  1  0
 14 13  2  0
 16 15  1  0
 17 16  2  0
 18 16  1  0
 19 18  1  0
 20 19  1  0
 21 20  1  0
 22 21  1  1
 22 24  1  0
 22 23  1  0
 23 13  1  0
 24 25  1  0
 26 24  2  0
M  END
$$$$
