SMR.pdb
     RDKit          3D

 26 25  0  0  1  0  0  0  0  0999 V2000
   27.3262  -18.6884  -14.7556 O   0  0  0  0  0  0  0  0  0  0  0  0
   28.3820  -18.8459  -13.8598 C   0  0  0  0  0  0  0  0  0  0  0  0
   28.6285  -20.3128  -13.6597 C   0  0  2  0  0  0  0  0  0  0  0  0
   28.6868  -20.9788  -14.9355 N   0  0  0  0  0  0  0  0  0  0  0  0
   27.5376  -20.8700  -12.8195 C   0  0  0  0  0  0  0  0  0  0  0  0
   26.7898  -21.7628  -13.2920 O   0  0  0  0  0  0  0  0  0  0  0  0
   26.0834  -19.3896   -6.5687 C   0  0  0  0  0  0  0  0  0  0  0  0
   27.6898  -20.0406   -7.0292 S   0  0  0  0  0  0  0  0  0  0  0  0
   27.5013  -20.9698   -8.5929 C   0  0  0  0  0  0  0  0  0  0  0  0
   26.3210  -20.3906   -9.3108 C   0  0  0  0  0  0  0  0  0  0  0  0
   26.2293  -20.9363  -10.7356 C   0  0  2  0  0  0  0  0  0  0  0  0
   27.3270  -20.4034  -11.4786 N   0  0  0  0  0  0  0  0  0  0  0  0
   24.9510  -20.4395  -11.3005 C   0  0  0  0  0  0  0  0  0  0  0  0
   24.9389  -19.3057  -11.8591 O   0  0  0  0  0  0  0  0  0  0  0  0
   22.5612  -26.2609  -14.9503 N   0  0  0  0  0  0  0  0  0  0  0  0
   21.4242  -25.5597  -15.4610 C   0  0  0  0  0  0  0  0  0  0  0  0
   20.3083  -26.2005  -15.6438 N   0  0  0  0  0  0  0  0  0  0  0  0
   21.4517  -24.1950  -15.7824 N   0  0  0  0  0  0  0  0  0  0  0  0
   22.6808  -23.4145  -15.5098 C   0  0  0  0  0  0  0  0  0  0  0  0
   22.3009  -22.3784  -14.5345 C   0  0  0  0  0  0  0  0  0  0  0  0
   23.1388  -22.0923  -13.3748 C   0  0  0  0  0  0  0  0  0  0  0  0
   22.7409  -21.0930  -12.3898 C   0  0  2  0  0  0  0  0  0  0  0  0
   23.7392  -21.1349  -11.2664 N   0  0  0  0  0  0  0  0  0  0  0  0
   21.4696  -21.2419  -11.7409 C   0  0  0  0  0  0  0  0  0  0  0  0
   20.2842  -20.8993  -12.4282 O   0  0  0  0  0  0  0  0  0  0  0  0
   21.3005  -21.6566  -10.5904 O   0  0  0  0  0  0  0  0  0  0  0  0
  2  3  1  0
  2  1  1  0
  3  4  1  6
  5 12  1  0
  5  3  1  0
  6  5  2  0
  7  8  1  0
  8  9  1  0
  9 10  1  0
 11 10  1  1
 11 12  1  0
 13 11  1  0
 14 13  2  0
 16 15  1  0
 17 16  2  0
 18 16  1  0
 19 18  1  0
 20 19  1  0
 21 20  1  0
 22 21  1  6
 22 24  1  0
 22 23  1  0
 23 13  1  0
 24 25  1  0
 26 24  2  0
M  END
$$$$
