SMR.pdb
     RDKit          3D

 26 25  0  0  1  0  0  0  0  0999 V2000
   27.2955  -18.2802  -14.8009 O   0  0  0  0  0  0  0  0  0  0  0  0
   28.6615  -18.5547  -14.7774 C   0  0  0  0  0  0  0  0  0  0  0  0
   28.8540  -20.0427  -14.8148 C   0  0  2  0  0  0  0  0  0  0  0  0
   28.4382  -20.5589  -16.0937 N   0  0  0  0  0  0  0  0  0  0  0  0
   28.0659  -20.6540  -13.7141 C   0  0  0  0  0  0  0  0  0  0  0  0
   27.0973  -21.4050  -13.9922 O   0  0  0  0  0  0  0  0  0  0  0  0
   27.6210  -19.0380   -6.9202 C   0  0  0  0  0  0  0  0  0  0  0  0
   28.2017  -20.6942   -7.2894 S   0  0  0  0  0  0  0  0  0  0  0  0
   27.4170  -21.2389   -8.8488 C   0  0  0  0  0  0  0  0  0  0  0  0
   28.2350  -20.6808   -9.9728 C   0  0  0  0  0  0  0  0  0  0  0  0
   27.6008  -21.0116  -11.3236 C   0  0  2  0  0  0  0  0  0  0  0  0
   28.3953  -20.3990  -12.3406 N   0  0  0  0  0  0  0  0  0  0  0  0
   26.2442  -20.4119  -11.3155 C   0  0  0  0  0  0  0  0  0  0  0  0
   26.1372  -19.1607  -11.4600 O   0  0  0  0  0  0  0  0  0  0  0  0
   20.1111  -23.5644  -15.9294 N   0  0  0  0  0  0  0  0  0  0  0  0
   19.4118  -22.9554  -14.8407 C   0  0  0  0  0  0  0  0  0  0  0  0
   18.1920  -23.3214  -14.5811 N   0  0  0  0  0  0  0  0  0  0  0  0
   19.9821  -21.9661  -14.0269 N   0  0  0  0  0  0  0  0  0  0  0  0
   21.3204  -21.4324  -14.3707 C   0  0  0  0  0  0  0  0  0  0  0  0
   21.8464  -20.8197  -13.1391 C   0  0  0  0  0  0  0  0  0  0  0  0
   23.1793  -21.1478  -12.6446 C   0  0  0  0  0  0  0  0  0  0  0  0
   23.7005  -20.5344  -11.4284 C   0  0  2  0  0  0  0  0  0  0  0  0
   25.0550  -21.1292  -11.1600 N   0  0  0  0  0  0  0  0  0  0  0  0
   22.9789  -20.7269  -10.2030 C   0  0  0  0  0  0  0  0  0  0  0  0
   21.8563  -19.9203   -9.9131 O   0  0  0  0  0  0  0  0  0  0  0  0
   23.2539  -21.5632   -9.3373 O   0  0  0  0  0  0  0  0  0  0  0  0
  2  3  1  0
  2  1  1  0
  3  4  1  6
  5 12  1  0
  5  3  1  0
  6  5  2  0
  7  8  1  0
  8  9  1  0
  9 10  1  0
 11 10  1  1
 11 12  1  0
 13 11  1  0
 14 13  2  0
 16 15  1  0
 17 16  2  0
 18 16  1  0
 19 18  1  0
 20 19  1  0
 21 20  1  0
 22 21  1  6
 22 24  1  0
 22 23  1  0
 23 13  1  0
 24 25  1  0
 26 24  2  0
M  END
$$$$
