SMR.pdb
     RDKit          3D

 26 25  0  0  1  0  0  0  0  0999 V2000
  -50.1300   40.2890  -42.5761 O   0  0  0  0  0  0  0  0  0  0  0  0
  -49.0787   39.4961  -42.1200 C   0  0  0  0  0  0  0  0  0  0  0  0
  -48.3345   38.9550  -43.3059 C   0  0  2  0  0  0  0  0  0  0  0  0
  -47.0637   39.6211  -43.4329 N   0  0  0  0  0  0  0  0  0  0  0  0
  -49.1632   39.1563  -44.5221 C   0  0  0  0  0  0  0  0  0  0  0  0
  -50.0895   38.3466  -44.7784 O   0  0  0  0  0  0  0  0  0  0  0  0
  -51.6717   38.5659  -48.5699 C   0  0  0  0  0  0  0  0  0  0  0  0
  -51.5059   39.4073  -46.9947 S   0  0  0  0  0  0  0  0  0  0  0  0
  -50.5385   40.9356  -47.2640 C   0  0  0  0  0  0  0  0  0  0  0  0
  -50.6709   41.7659  -46.0243 C   0  0  0  0  0  0  0  0  0  0  0  0
  -49.4896   41.5307  -45.0832 C   0  0  2  0  0  0  0  0  0  0  0  0
  -48.9204   40.2608  -45.4061 N   0  0  0  0  0  0  0  0  0  0  0  0
  -50.0413   41.4994  -43.7068 C   0  0  0  0  0  0  0  0  0  0  0  0
  -50.7837   40.5311  -43.3766 O   0  0  0  0  0  0  0  0  0  0  0  0
  -53.7057   48.5641  -44.1352 N   0  0  0  0  0  0  0  0  0  0  0  0
  -52.4872   47.9800  -43.6670 C   0  0  0  0  0  0  0  0  0  0  0  0
  -51.3894   48.6747  -43.7077 N   0  0  0  0  0  0  0  0  0  0  0  0
  -52.4133   46.6745  -43.1604 N   0  0  0  0  0  0  0  0  0  0  0  0
  -51.6916   46.4338  -41.8893 C   0  0  0  0  0  0  0  0  0  0  0  0
  -50.6811   45.4028  -42.1804 C   0  0  0  0  0  0  0  0  0  0  0  0
  -50.5015   44.2542  -41.2988 C   0  0  0  0  0  0  0  0  0  0  0  0
  -50.8468   42.9079  -41.7406 C   0  0  2  0  0  0  0  0  0  0  0  0
  -49.8021   42.4683  -42.7284 N   0  0  0  0  0  0  0  0  0  0  0  0
  -52.0908   42.7130  -42.4290 C   0  0  0  0  0  0  0  0  0  0  0  0
  -53.2246   43.4710  -42.0618 O   0  0  0  0  0  0  0  0  0  0  0  0
  -52.2783   41.9126  -43.3502 O   0  0  0  0  0  0  0  0  0  0  0  0
  2  3  1  0
  2  1  1  0
  3  4  1  6
  5 12  1  0
  5  3  1  0
  6  5  2  0
  7  8  1  0
  8  9  1  0
  9 10  1  0
 11 10  1  6
 11 12  1  0
 13 11  1  0
 14 13  2  0
 16 15  1  0
 17 16  2  0
 18 16  1  0
 19 18  1  0
 20 19  1  0
 21 20  1  0
 22 21  1  6
 22 24  1  0
 22 23  1  0
 23 13  1  0
 24 25  1  0
 26 24  2  0
M  END
$$$$
