SMR.pdb
     RDKit          3D

 26 25  0  0  1  0  0  0  0  0999 V2000
   28.2586  -16.7502  -16.4776 O   0  0  0  0  0  0  0  0  0  0  0  0
   27.7139  -17.9419  -16.0031 C   0  0  0  0  0  0  0  0  0  0  0  0
   28.7606  -19.0147  -16.0826 C   0  0  2  0  0  0  0  0  0  0  0  0
   28.7296  -19.6347  -17.3823 N   0  0  0  0  0  0  0  0  0  0  0  0
   28.5041  -20.0123  -15.0124 C   0  0  0  0  0  0  0  0  0  0  0  0
   27.8483  -21.0503  -15.2809 O   0  0  0  0  0  0  0  0  0  0  0  0
   32.3203  -20.0442  -10.2068 C   0  0  0  0  0  0  0  0  0  0  0  0
   31.8396  -21.7684  -10.3190 S   0  0  0  0  0  0  0  0  0  0  0  0
   30.5958  -21.9279  -11.6500 C   0  0  0  0  0  0  0  0  0  0  0  0
   29.7274  -20.7088  -11.5908 C   0  0  0  0  0  0  0  0  0  0  0  0
   28.6469  -20.7575  -12.6708 C   0  0  2  0  0  0  0  0  0  0  0  0
   28.9943  -19.8070  -13.6791 N   0  0  0  0  0  0  0  0  0  0  0  0
   27.3755  -20.3583  -12.0197 C   0  0  0  0  0  0  0  0  0  0  0  0
   27.2253  -19.1499  -11.6805 O   0  0  0  0  0  0  0  0  0  0  0  0
   20.6142  -18.7291  -14.2900 N   0  0  0  0  0  0  0  0  0  0  0  0
   20.5624  -20.1526  -14.1619 C   0  0  0  0  0  0  0  0  0  0  0  0
   19.7340  -20.8301  -14.8995 N   0  0  0  0  0  0  0  0  0  0  0  0
   21.3703  -20.8669  -13.2656 N   0  0  0  0  0  0  0  0  0  0  0  0
   21.6447  -20.2936  -11.9276 C   0  0  0  0  0  0  0  0  0  0  0  0
   22.5610  -21.2329  -11.2590 C   0  0  0  0  0  0  0  0  0  0  0  0
   23.9277  -21.4191  -11.7347 C   0  0  0  0  0  0  0  0  0  0  0  0
   25.0506  -20.7767  -11.0613 C   0  0  2  0  0  0  0  0  0  0  0  0
   26.3118  -21.2229  -11.7474 N   0  0  0  0  0  0  0  0  0  0  0  0
   25.2763  -21.0731   -9.6754 C   0  0  0  0  0  0  0  0  0  0  0  0
   26.0897  -22.1696   -9.3136 O   0  0  0  0  0  0  0  0  0  0  0  0
   24.8088  -20.4384   -8.7251 O   0  0  0  0  0  0  0  0  0  0  0  0
  2  3  1  0
  2  1  1  0
  3  4  1  6
  5 12  1  0
  5  3  1  0
  6  5  2  0
  7  8  1  0
  8  9  1  0
  9 10  1  0
 11 10  1  1
 11 12  1  0
 13 11  1  0
 14 13  2  0
 16 15  1  0
 17 16  2  0
 18 16  1  0
 19 18  1  0
 20 19  1  0
 21 20  1  0
 22 21  1  6
 22 24  1  0
 22 23  1  0
 23 13  1  0
 24 25  1  0
 26 24  2  0
M  END
$$$$
