SMR.pdb
     RDKit          3D

 26 25  0  0  1  0  0  0  0  0999 V2000
   23.8612  -21.4176  -16.2336 O   0  0  0  0  0  0  0  0  0  0  0  0
   22.8435  -21.0632  -15.3500 C   0  0  0  0  0  0  0  0  0  0  0  0
   21.5307  -21.1362  -16.0739 C   0  0  2  0  0  0  0  0  0  0  0  0
   21.3890  -20.0004  -16.9482 N   0  0  0  0  0  0  0  0  0  0  0  0
   20.4346  -21.1748  -15.0721 C   0  0  0  0  0  0  0  0  0  0  0  0
   19.9500  -20.0964  -14.6460 O   0  0  0  0  0  0  0  0  0  0  0  0
   15.2418  -22.6762  -16.4047 C   0  0  0  0  0  0  0  0  0  0  0  0
   14.8794  -22.2377  -14.7038 S   0  0  0  0  0  0  0  0  0  0  0  0
   16.4384  -21.7106  -13.9066 C   0  0  0  0  0  0  0  0  0  0  0  0
   17.5376  -22.5410  -14.4948 C   0  0  0  0  0  0  0  0  0  0  0  0
   18.8213  -22.4029  -13.6765 C   0  0  2  0  0  0  0  0  0  0  0  0
   19.9230  -22.4245  -14.5857 N   0  0  0  0  0  0  0  0  0  0  0  0
   18.8847  -23.5836  -12.7811 C   0  0  0  0  0  0  0  0  0  0  0  0
   19.1760  -24.7063  -13.2834 O   0  0  0  0  0  0  0  0  0  0  0  0
   16.9907  -24.6449   -4.1996 N   0  0  0  0  0  0  0  0  0  0  0  0
   17.3826  -25.9342   -4.6785 C   0  0  0  0  0  0  0  0  0  0  0  0
   17.0840  -26.9912   -3.9836 N   0  0  0  0  0  0  0  0  0  0  0  0
   18.0860  -26.1203   -5.8773 N   0  0  0  0  0  0  0  0  0  0  0  0
   18.4860  -24.9349   -6.6703 C   0  0  0  0  0  0  0  0  0  0  0  0
   18.3558  -25.3246   -8.0846 C   0  0  0  0  0  0  0  0  0  0  0  0
   18.6290  -24.3729   -9.1563 C   0  0  0  0  0  0  0  0  0  0  0  0
   18.6269  -24.7941  -10.5525 C   0  0  2  0  0  0  0  0  0  0  0  0
   18.6462  -23.5554  -11.4043 N   0  0  0  0  0  0  0  0  0  0  0  0
   17.5028  -25.5420  -11.0387 C   0  0  0  0  0  0  0  0  0  0  0  0
   16.3821  -24.8642  -11.5674 O   0  0  0  0  0  0  0  0  0  0  0  0
   17.4122  -26.7733  -11.0399 O   0  0  0  0  0  0  0  0  0  0  0  0
  2  3  1  0
  2  1  1  0
  3  4  1  6
  5 12  1  0
  5  3  1  0
  6  5  2  0
  7  8  1  0
  8  9  1  0
  9 10  1  0
 11 10  1  6
 11 12  1  0
 13 11  1  0
 14 13  2  0
 16 15  1  0
 17 16  2  0
 18 16  1  0
 19 18  1  0
 20 19  1  0
 21 20  1  0
 22 21  1  1
 22 24  1  0
 22 23  1  0
 23 13  1  0
 24 25  1  0
 26 24  2  0
M  END
$$$$
