SMR.pdb
     RDKit          3D

 26 25  0  0  1  0  0  0  0  0999 V2000
   27.8331  -13.8255  -17.7187 O   0  0  0  0  0  0  0  0  0  0  0  0
   28.0385  -14.0688  -16.3620 C   0  0  0  0  0  0  0  0  0  0  0  0
   27.1569  -15.2073  -15.9385 C   0  0  2  0  0  0  0  0  0  0  0  0
   27.4627  -16.3800  -16.7170 N   0  0  0  0  0  0  0  0  0  0  0  0
   25.7383  -14.8055  -16.1190 C   0  0  0  0  0  0  0  0  0  0  0  0
   24.9062  -15.6501  -16.5361 O   0  0  0  0  0  0  0  0  0  0  0  0
   19.7885  -16.5396  -15.0810 C   0  0  0  0  0  0  0  0  0  0  0  0
   21.2090  -15.7412  -14.3318 S   0  0  0  0  0  0  0  0  0  0  0  0
   22.0949  -14.8139  -15.6353 C   0  0  0  0  0  0  0  0  0  0  0  0
   23.1414  -13.9862  -14.9544 C   0  0  0  0  0  0  0  0  0  0  0  0
   23.9212  -13.1518  -15.9702 C   0  0  2  0  0  0  0  0  0  0  0  0
   25.3065  -13.4689  -15.8240 N   0  0  0  0  0  0  0  0  0  0  0  0
   23.6910  -11.7292  -15.6193 C   0  0  0  0  0  0  0  0  0  0  0  0
   24.3692  -11.2223  -14.6807 O   0  0  0  0  0  0  0  0  0  0  0  0
   20.8605   -4.6111  -20.3697 N   0  0  0  0  0  0  0  0  0  0  0  0
   21.0932   -4.2430  -19.0075 C   0  0  0  0  0  0  0  0  0  0  0  0
   20.9922   -2.9954  -18.6573 N   0  0  0  0  0  0  0  0  0  0  0  0
   21.4325   -5.1728  -18.0142 N   0  0  0  0  0  0  0  0  0  0  0  0
   21.5654   -6.6022  -18.3794 C   0  0  0  0  0  0  0  0  0  0  0  0
   21.9290   -7.3101  -17.1402 C   0  0  0  0  0  0  0  0  0  0  0  0
   22.2079   -8.7422  -17.1450 C   0  0  0  0  0  0  0  0  0  0  0  0
   22.6456   -9.4255  -15.9332 C   0  0  2  0  0  0  0  0  0  0  0  0
   22.7714  -10.8892  -16.2531 N   0  0  0  0  0  0  0  0  0  0  0  0
   21.7918   -9.3860  -14.7805 C   0  0  0  0  0  0  0  0  0  0  0  0
   21.9184   -8.3340  -13.8466 O   0  0  0  0  0  0  0  0  0  0  0  0
   20.9196  -10.2170  -14.5103 O   0  0  0  0  0  0  0  0  0  0  0  0
  2  3  1  0
  2  1  1  0
  3  4  1  6
  5 12  1  0
  5  3  1  0
  6  5  2  0
  7  8  1  0
  8  9  1  0
  9 10  1  0
 11 10  1  1
 11 12  1  0
 13 11  1  0
 14 13  2  0
 16 15  1  0
 17 16  2  0
 18 16  1  0
 19 18  1  0
 20 19  1  0
 21 20  1  0
 22 21  1  6
 22 24  1  0
 22 23  1  0
 23 13  1  0
 24 25  1  0
 26 24  2  0
M  END
$$$$
