SMR.pdb
     RDKit          3D

 26 25  0  0  1  0  0  0  0  0999 V2000
   29.4206  -22.1266  -18.9904 O   0  0  0  0  0  0  0  0  0  0  0  0
   28.3917  -21.5714  -18.2319 C   0  0  0  0  0  0  0  0  0  0  0  0
   28.8205  -21.5338  -16.7940 C   0  0  2  0  0  0  0  0  0  0  0  0
   28.8659  -22.8710  -16.2607 N   0  0  0  0  0  0  0  0  0  0  0  0
   27.8635  -20.6909  -16.0324 C   0  0  0  0  0  0  0  0  0  0  0  0
   27.1460  -21.2192  -15.1461 O   0  0  0  0  0  0  0  0  0  0  0  0
   27.6293  -14.4661  -16.9048 C   0  0  0  0  0  0  0  0  0  0  0  0
   26.5564  -14.4305  -15.4681 S   0  0  0  0  0  0  0  0  0  0  0  0
   26.2645  -16.1542  -14.9319 C   0  0  0  0  0  0  0  0  0  0  0  0
   27.1209  -17.0342  -15.7897 C   0  0  0  0  0  0  0  0  0  0  0  0
   26.8655  -18.5094  -15.4814 C   0  0  2  0  0  0  0  0  0  0  0  0
   27.7480  -19.2845  -16.2945 N   0  0  0  0  0  0  0  0  0  0  0  0
   25.4586  -18.7864  -15.8605 C   0  0  0  0  0  0  0  0  0  0  0  0
   25.1915  -18.9904  -17.0790 O   0  0  0  0  0  0  0  0  0  0  0  0
   18.3351  -21.8294  -11.8608 N   0  0  0  0  0  0  0  0  0  0  0  0
   18.2390  -22.2301  -13.2303 C   0  0  0  0  0  0  0  0  0  0  0  0
   17.0991  -22.6472  -13.6948 N   0  0  0  0  0  0  0  0  0  0  0  0
   19.3291  -22.1981  -14.1119 N   0  0  0  0  0  0  0  0  0  0  0  0
   20.6525  -21.7647  -13.6071 C   0  0  0  0  0  0  0  0  0  0  0  0
   21.1734  -20.8037  -14.5941 C   0  0  0  0  0  0  0  0  0  0  0  0
   22.5196  -20.2546  -14.4728 C   0  0  0  0  0  0  0  0  0  0  0  0
   22.9919  -19.2176  -15.3831 C   0  0  2  0  0  0  0  0  0  0  0  0
   24.3866  -18.8425  -14.9655 N   0  0  0  0  0  0  0  0  0  0  0  0
   22.2851  -17.9694  -15.4223 C   0  0  0  0  0  0  0  0  0  0  0  0
   22.6904  -16.9045  -14.5876 O   0  0  0  0  0  0  0  0  0  0  0  0
   21.3139  -17.7221  -16.1435 O   0  0  0  0  0  0  0  0  0  0  0  0
  2  3  1  0
  2  1  1  0
  3  4  1  1
  5 12  1  0
  5  3  1  0
  6  5  2  0
  7  8  1  0
  8  9  1  0
  9 10  1  0
 11 10  1  6
 11 12  1  0
 13 11  1  0
 14 13  2  0
 16 15  1  0
 17 16  2  0
 18 16  1  0
 19 18  1  0
 20 19  1  0
 21 20  1  0
 22 21  1  1
 22 24  1  0
 22 23  1  0
 23 13  1  0
 24 25  1  0
 26 24  2  0
M  END
$$$$
