RGD.pdb
     RDKit          3D

 24 23  0  0  1  0  0  0  0  0999 V2000
    8.0957  -11.7121   19.4575 N   0  0  0  0  0  0  0  0  0  0  0  0
    8.1552  -12.9518   18.7834 C   0  0  0  0  0  0  0  0  0  0  0  0
    8.9151  -13.1130   17.7375 N   0  0  0  0  0  0  0  0  0  0  0  0
    7.3536  -14.0236   19.2900 N   0  0  0  0  0  0  0  0  0  0  0  0
    6.6466  -13.8797   20.5148 C   0  0  0  0  0  0  0  0  0  0  0  0
    7.3732  -14.4054   21.7265 C   0  0  0  0  0  0  0  0  0  0  0  0
    7.9949  -15.7663   21.5052 C   0  0  0  0  0  0  0  0  0  0  0  0
    8.6393  -16.1686   22.8142 C   0  0  2  0  0  0  0  0  0  0  0  0
    8.9446  -14.9744   23.5530 N   0  0  0  0  0  0  0  0  0  0  0  0
    9.8266  -17.0035   22.5534 C   0  0  0  0  0  0  0  0  0  0  0  0
    9.7265  -18.1803   22.1220 O   0  0  0  0  0  0  0  0  0  0  0  0
    8.9415  -14.0545   17.2939 N   0  0  0  0  0  0  0  0  0  0  0  0
   11.1288  -16.4179   22.8151 C   0  0  0  0  0  0  0  0  0  0  0  0
   12.2540  -17.2241   22.4251 C   0  0  0  0  0  0  0  0  0  0  0  0
   13.3595  -17.0872   23.3702 O   0  0  0  0  0  0  0  0  0  0  0  0
   13.2954  -16.0733   24.1566 N   0  0  0  0  0  0  0  0  0  0  0  0
   14.4727  -17.9311   23.5119 C   0  0  1  0  0  0  0  0  0  0  0  0
   15.5237  -17.5779   24.4764 C   0  0  0  0  0  0  0  0  0  0  0  0
   16.1607  -18.8651   24.9985 C   0  0  0  0  0  0  0  0  0  0  0  0
   15.1967  -19.5933   25.8164 O   0  0  0  0  0  0  0  0  0  0  0  0
   14.2933  -18.9537   26.4208 C   0  0  0  0  0  0  0  0  0  0  0  0
   16.5578  -16.7593   23.8224 O   0  0  0  0  0  0  0  0  0  0  0  0
   17.5781  -16.1607   24.5590 O   0  0  0  0  0  0  0  0  0  0  0  0
   15.2009  -20.9772   25.9823 O   0  0  0  0  0  0  0  0  0  0  0  0
  1  2  1  0
  2  3  2  0
  4  5  1  0
  4  2  1  0
  6  7  1  0
  6  5  1  0
  7  8  1  0
  8  9  1  6
 10  8  1  0
 10 12  1  0
 11 10  2  0
 12 13  1  0
 13 14  1  0
 14 15  2  0
 14 16  1  0
 16 17  1  0
 17 21  1  0
 17 18  1  1
 18 19  1  0
 19 23  1  0
 20 19  2  0
 21 24  2  0
 21 22  1  0
M  END
$$$$
