RGD.pdb
     RDKit          3D

 24 23  0  0  1  0  0  0  0  0999 V2000
    8.6891  -11.8477   20.0078 N   0  0  0  0  0  0  0  0  0  0  0  0
    8.6986  -12.9292   19.0996 C   0  0  0  0  0  0  0  0  0  0  0  0
    8.7273  -12.7269   17.8130 N   0  0  0  0  0  0  0  0  0  0  0  0
    8.6774  -14.2534   19.6419 N   0  0  0  0  0  0  0  0  0  0  0  0
    8.4603  -14.4611   21.0312 C   0  0  0  0  0  0  0  0  0  0  0  0
    7.0634  -14.8983   21.3917 C   0  0  0  0  0  0  0  0  0  0  0  0
    6.8338  -14.9903   22.8838 C   0  0  0  0  0  0  0  0  0  0  0  0
    7.4326  -16.3046   23.3361 C   0  0  2  0  0  0  0  0  0  0  0  0
    7.5237  -17.1754   22.1965 N   0  0  0  0  0  0  0  0  0  0  0  0
    6.6256  -16.8731   24.4317 C   0  0  0  0  0  0  0  0  0  0  0  0
    5.3929  -16.6462   24.5326 O   0  0  0  0  0  0  0  0  0  0  0  0
    8.8214  -13.5561   17.1905 N   0  0  0  0  0  0  0  0  0  0  0  0
    7.3071  -17.7106   25.4019 C   0  0  0  0  0  0  0  0  0  0  0  0
    8.6790  -17.3628   25.6569 C   0  0  0  0  0  0  0  0  0  0  0  0
    9.3211  -18.3392   26.5337 O   0  0  0  0  0  0  0  0  0  0  0  0
    8.5757  -19.3103   26.9233 N   0  0  0  0  0  0  0  0  0  0  0  0
   10.6478  -18.3331   26.9935 C   0  0  1  0  0  0  0  0  0  0  0  0
   11.1543  -19.4927   27.7407 C   0  0  0  0  0  0  0  0  0  0  0  0
   12.6548  -19.6234   27.4822 C   0  0  0  0  0  0  0  0  0  0  0  0
   12.9588  -19.1866   26.1238 O   0  0  0  0  0  0  0  0  0  0  0  0
   12.8167  -19.9980   25.1689 C   0  0  0  0  0  0  0  0  0  0  0  0
   10.9284  -19.3046   29.1832 O   0  0  0  0  0  0  0  0  0  0  0  0
   11.1125  -20.3504   30.0856 O   0  0  0  0  0  0  0  0  0  0  0  0
   13.4052  -17.9074   25.7962 O   0  0  0  0  0  0  0  0  0  0  0  0
  1  2  1  0
  2  3  2  0
  4  5  1  0
  4  2  1  0
  6  7  1  0
  6  5  1  0
  7  8  1  0
  8  9  1  6
 10  8  1  0
 10 12  1  0
 11 10  2  0
 12 13  1  0
 13 14  1  0
 14 15  2  0
 14 16  1  0
 16 17  1  0
 17 21  1  0
 17 18  1  1
 18 19  1  0
 19 23  1  0
 20 19  2  0
 21 24  2  0
 21 22  1  0
M  END
$$$$
