RGD.pdb
     RDKit          3D

 24 23  0  0  1  0  0  0  0  0999 V2000
    9.4264  -13.8864   18.5472 N   0  0  0  0  0  0  0  0  0  0  0  0
    8.7020  -12.8631   19.1974 C   0  0  0  0  0  0  0  0  0  0  0  0
    9.1226  -11.6302   19.1868 N   0  0  0  0  0  0  0  0  0  0  0  0
    7.4903  -13.2277   19.8659 N   0  0  0  0  0  0  0  0  0  0  0  0
    6.9595  -14.5396   19.7336 C   0  0  0  0  0  0  0  0  0  0  0  0
    7.7391  -15.6099   20.4541 C   0  0  0  0  0  0  0  0  0  0  0  0
    8.3931  -15.1172   21.7258 C   0  0  0  0  0  0  0  0  0  0  0  0
    8.9966  -16.3290   22.4025 C   0  0  2  0  0  0  0  0  0  0  0  0
    8.0250  -17.3876   22.3836 N   0  0  0  0  0  0  0  0  0  0  0  0
    9.4364  -15.9757   23.7651 C   0  0  0  0  0  0  0  0  0  0  0  0
   10.3658  -15.1535   23.9684 O   0  0  0  0  0  0  0  0  0  0  0  0
    8.5085  -10.9014   19.6059 N   0  0  0  0  0  0  0  0  0  0  0  0
    8.7564  -16.6157   24.8765 C   0  0  0  0  0  0  0  0  0  0  0  0
    9.1326  -16.1422   26.1812 C   0  0  0  0  0  0  0  0  0  0  0  0
   10.1542  -16.9960   26.7827 O   0  0  0  0  0  0  0  0  0  0  0  0
   10.5110  -16.6788   27.9754 N   0  0  0  0  0  0  0  0  0  0  0  0
   10.7829  -18.1119   26.2074 C   0  0  1  0  0  0  0  0  0  0  0  0
   11.8896  -18.7614   26.9238 C   0  0  0  0  0  0  0  0  0  0  0  0
   11.6065  -20.2609   27.0043 C   0  0  0  0  0  0  0  0  0  0  0  0
   10.7316  -20.5352   28.1391 O   0  0  0  0  0  0  0  0  0  0  0  0
   10.3291  -19.5767   28.8530 C   0  0  0  0  0  0  0  0  0  0  0  0
   13.1551  -18.5479   26.2027 O   0  0  0  0  0  0  0  0  0  0  0  0
   13.1726  -18.0057   24.9191 O   0  0  0  0  0  0  0  0  0  0  0  0
   10.2974  -21.8095   28.5005 O   0  0  0  0  0  0  0  0  0  0  0  0
  1  2  1  0
  2  3  2  0
  4  5  1  0
  4  2  1  0
  6  7  1  0
  6  5  1  0
  7  8  1  0
  8  9  1  1
 10  8  1  0
 10 12  1  0
 11 10  2  0
 12 13  1  0
 13 14  1  0
 14 15  2  0
 14 16  1  0
 16 17  1  0
 17 21  1  0
 17 18  1  1
 18 19  1  0
 19 23  1  0
 20 19  2  0
 21 24  2  0
 21 22  1  0
M  END
$$$$
