RGD.pdb
     RDKit          3D

 24 23  0  0  1  0  0  0  0  0999 V2000
    8.7793  -15.4422   17.4032 N   0  0  0  0  0  0  0  0  0  0  0  0
    8.1401  -14.3378   16.7979 C   0  0  0  0  0  0  0  0  0  0  0  0
    7.8328  -14.3492   15.5320 N   0  0  0  0  0  0  0  0  0  0  0  0
    7.8408  -13.2079   17.6236 N   0  0  0  0  0  0  0  0  0  0  0  0
    8.1375  -13.2308   19.0136 C   0  0  0  0  0  0  0  0  0  0  0  0
    7.1229  -13.9540   19.8621 C   0  0  0  0  0  0  0  0  0  0  0  0
    7.4412  -13.9094   21.3400 C   0  0  0  0  0  0  0  0  0  0  0  0
    8.2443  -15.1543   21.6499 C   0  0  2  0  0  0  0  0  0  0  0  0
    7.3925  -16.2976   21.4703 N   0  0  0  0  0  0  0  0  0  0  0  0
    8.8063  -15.0632   23.0103 C   0  0  0  0  0  0  0  0  0  0  0  0
    9.6467  -14.1812   23.3217 O   0  0  0  0  0  0  0  0  0  0  0  0
    7.4517  -13.4750   15.1143 N   0  0  0  0  0  0  0  0  0  0  0  0
    8.3551  -16.0358   23.9889 C   0  0  0  0  0  0  0  0  0  0  0  0
    8.9675  -15.9312   25.2858 C   0  0  0  0  0  0  0  0  0  0  0  0
    9.7652  -17.1157   25.5944 O   0  0  0  0  0  0  0  0  0  0  0  0
    9.4450  -18.1828   24.9546 N   0  0  0  0  0  0  0  0  0  0  0  0
   10.8304  -17.2160   26.5035 C   0  0  1  0  0  0  0  0  0  0  0  0
   11.5110  -18.5074   26.6729 C   0  0  0  0  0  0  0  0  0  0  0  0
   13.0195  -18.2805   26.5829 C   0  0  0  0  0  0  0  0  0  0  0  0
   13.4811  -18.5783   25.2313 O   0  0  0  0  0  0  0  0  0  0  0  0
   12.6383  -18.8925   24.3472 C   0  0  0  0  0  0  0  0  0  0  0  0
   11.1879  -19.0822   27.9890 O   0  0  0  0  0  0  0  0  0  0  0  0
   11.4940  -20.4072   28.2934 O   0  0  0  0  0  0  0  0  0  0  0  0
   14.8172  -18.5399   24.8359 O   0  0  0  0  0  0  0  0  0  0  0  0
  1  2  1  0
  2  3  2  0
  4  5  1  0
  4  2  1  0
  6  7  1  0
  6  5  1  0
  7  8  1  0
  8  9  1  1
 10  8  1  0
 10 12  1  0
 11 10  2  0
 12 13  1  0
 13 14  1  0
 14 15  2  0
 14 16  1  0
 16 17  1  0
 17 21  1  0
 17 18  1  1
 18 19  1  0
 19 23  1  0
 20 19  2  0
 21 24  2  0
 21 22  1  0
M  END
$$$$
