RGD.pdb
     RDKit          3D

 24 23  0  0  1  0  0  0  0  0999 V2000
    7.8501  -12.8647   18.8209 N   0  0  0  0  0  0  0  0  0  0  0  0
    8.1328  -13.7893   17.7914 C   0  0  0  0  0  0  0  0  0  0  0  0
    8.1308  -13.4249   16.5407 N   0  0  0  0  0  0  0  0  0  0  0  0
    8.4228  -15.1385   18.1703 N   0  0  0  0  0  0  0  0  0  0  0  0
    7.6536  -15.7876   19.1741 C   0  0  0  0  0  0  0  0  0  0  0  0
    6.9181  -17.0178   18.7066 C   0  0  0  0  0  0  0  0  0  0  0  0
    7.5373  -18.3063   19.2003 C   0  0  0  0  0  0  0  0  0  0  0  0
    6.6632  -18.8037   20.3313 C   0  0  2  0  0  0  0  0  0  0  0  0
    5.9348  -17.6856   20.8646 N   0  0  0  0  0  0  0  0  0  0  0  0
    7.4915  -19.4863   21.3427 C   0  0  0  0  0  0  0  0  0  0  0  0
    8.0400  -20.5939   21.1113 O   0  0  0  0  0  0  0  0  0  0  0  0
    8.3036  -14.1552   15.8192 N   0  0  0  0  0  0  0  0  0  0  0  0
    7.6537  -18.8329   22.6288 C   0  0  0  0  0  0  0  0  0  0  0  0
    8.5516  -19.4881   23.5413 C   0  0  0  0  0  0  0  0  0  0  0  0
    9.9454  -19.1843   23.2263 O   0  0  0  0  0  0  0  0  0  0  0  0
   10.4952  -19.9456   22.3495 N   0  0  0  0  0  0  0  0  0  0  0  0
   10.7422  -18.1643   23.7705 C   0  0  1  0  0  0  0  0  0  0  0  0
   12.1190  -17.9928   23.2862 C   0  0  0  0  0  0  0  0  0  0  0  0
   12.4384  -16.4991   23.2397 C   0  0  0  0  0  0  0  0  0  0  0  0
   13.7777  -16.3000   22.6964 O   0  0  0  0  0  0  0  0  0  0  0  0
   14.4817  -17.3058   22.4079 C   0  0  0  0  0  0  0  0  0  0  0  0
   13.0639  -18.6593   24.1973 O   0  0  0  0  0  0  0  0  0  0  0  0
   12.7460  -18.8740   25.5370 O   0  0  0  0  0  0  0  0  0  0  0  0
   14.3498  -15.0498   22.4672 O   0  0  0  0  0  0  0  0  0  0  0  0
  1  2  1  0
  2  3  2  0
  4  5  1  0
  4  2  1  0
  6  7  1  0
  6  5  1  0
  7  8  1  0
  8  9  1  1
 10  8  1  0
 10 12  1  0
 11 10  2  0
 12 13  1  0
 13 14  1  0
 14 15  2  0
 14 16  1  0
 16 17  1  0
 17 21  1  0
 17 18  1  1
 18 19  1  0
 19 23  1  0
 20 19  2  0
 21 24  2  0
 21 22  1  0
M  END
$$$$
