RGD.pdb
     RDKit          3D

 24 23  0  0  1  0  0  0  0  0999 V2000
    8.6676  -11.7478   20.1494 N   0  0  0  0  0  0  0  0  0  0  0  0
    8.6420  -12.8398   19.2541 C   0  0  0  0  0  0  0  0  0  0  0  0
    9.6996  -13.1744   18.5708 N   0  0  0  0  0  0  0  0  0  0  0  0
    7.4155  -13.5658   19.1254 N   0  0  0  0  0  0  0  0  0  0  0  0
    7.0666  -14.5671   20.0720 C   0  0  0  0  0  0  0  0  0  0  0  0
    6.9759  -15.9623   19.5081 C   0  0  0  0  0  0  0  0  0  0  0  0
    7.2582  -17.0388   20.5323 C   0  0  0  0  0  0  0  0  0  0  0  0
    6.0840  -17.0496   21.4872 C   0  0  2  0  0  0  0  0  0  0  0  0
    5.8233  -15.6974   21.8979 N   0  0  0  0  0  0  0  0  0  0  0  0
    6.3666  -17.9507   22.6199 C   0  0  0  0  0  0  0  0  0  0  0  0
    6.4106  -19.1993   22.4774 O   0  0  0  0  0  0  0  0  0  0  0  0
    9.6073  -13.9417   17.8732 N   0  0  0  0  0  0  0  0  0  0  0  0
    6.5929  -17.3443   23.9192 C   0  0  0  0  0  0  0  0  0  0  0  0
    6.8714  -18.2665   24.9869 C   0  0  0  0  0  0  0  0  0  0  0  0
    8.2241  -18.0842   25.5079 O   0  0  0  0  0  0  0  0  0  0  0  0
    8.8264  -17.0152   25.1271 N   0  0  0  0  0  0  0  0  0  0  0  0
    8.9312  -18.9392   26.3684 C   0  0  1  0  0  0  0  0  0  0  0  0
   10.3136  -18.6039   26.7375 C   0  0  0  0  0  0  0  0  0  0  0  0
   10.7668  -19.5515   27.8474 C   0  0  0  0  0  0  0  0  0  0  0  0
   10.0249  -19.2654   29.0706 O   0  0  0  0  0  0  0  0  0  0  0  0
    9.1417  -18.3652   29.0597 C   0  0  0  0  0  0  0  0  0  0  0  0
   11.2021  -18.7639   25.5746 O   0  0  0  0  0  0  0  0  0  0  0  0
   12.4770  -18.2016   25.5568 O   0  0  0  0  0  0  0  0  0  0  0  0
   10.2251  -19.9303   30.2792 O   0  0  0  0  0  0  0  0  0  0  0  0
  1  2  1  0
  2  3  2  0
  4  5  1  0
  4  2  1  0
  6  7  1  0
  6  5  1  0
  7  8  1  0
  8  9  1  1
 10  8  1  0
 10 12  1  0
 11 10  2  0
 12 13  1  0
 13 14  1  0
 14 15  2  0
 14 16  1  0
 16 17  1  0
 17 21  1  0
 17 18  1  6
 18 19  1  0
 19 23  1  0
 20 19  2  0
 21 24  2  0
 21 22  1  0
M  END
$$$$
