RGD.pdb
     RDKit          3D

 24 23  0  0  1  0  0  0  0  0999 V2000
    8.0892  -12.2955   14.0315 N   0  0  0  0  0  0  0  0  0  0  0  0
    7.0931  -13.2769   13.8330 C   0  0  0  0  0  0  0  0  0  0  0  0
    6.0955  -13.0683   13.0215 N   0  0  0  0  0  0  0  0  0  0  0  0
    7.2191  -14.5074   14.5526 N   0  0  0  0  0  0  0  0  0  0  0  0
    8.3569  -14.7536   15.3681 C   0  0  0  0  0  0  0  0  0  0  0  0
    8.3700  -16.1031   16.0399 C   0  0  0  0  0  0  0  0  0  0  0  0
    9.6702  -16.4019   16.7523 C   0  0  0  0  0  0  0  0  0  0  0  0
    9.3059  -17.0670   18.0621 C   0  0  2  0  0  0  0  0  0  0  0  0
    7.8793  -16.9992   18.2217 N   0  0  0  0  0  0  0  0  0  0  0  0
   10.0400  -16.4284   19.1704 C   0  0  0  0  0  0  0  0  0  0  0  0
   11.2888  -16.2845   19.1412 O   0  0  0  0  0  0  0  0  0  0  0  0
    5.4322  -13.8525   12.8518 N   0  0  0  0  0  0  0  0  0  0  0  0
    9.2670  -15.9678   20.3095 C   0  0  0  0  0  0  0  0  0  0  0  0
   10.0409  -15.5063   21.4303 C   0  0  0  0  0  0  0  0  0  0  0  0
   10.2980  -16.5862   22.3799 O   0  0  0  0  0  0  0  0  0  0  0  0
    9.2911  -16.9548   23.0877 N   0  0  0  0  0  0  0  0  0  0  0  0
   11.5107  -17.2578   22.6031 C   0  0  2  0  0  0  0  0  0  0  0  0
   12.0880  -17.2681   23.9545 C   0  0  0  0  0  0  0  0  0  0  0  0
   13.0472  -16.0857   24.0853 C   0  0  0  0  0  0  0  0  0  0  0  0
   14.2796  -16.3705   23.3581 O   0  0  0  0  0  0  0  0  0  0  0  0
   14.4215  -17.4932   22.8014 C   0  0  0  0  0  0  0  0  0  0  0  0
   11.0226  -17.1380   24.9621 O   0  0  0  0  0  0  0  0  0  0  0  0
   10.3615  -15.9277   25.1622 O   0  0  0  0  0  0  0  0  0  0  0  0
   15.3367  -15.4711   23.2304 O   0  0  0  0  0  0  0  0  0  0  0  0
  1  2  1  0
  2  3  2  0
  4  5  1  0
  4  2  1  0
  6  7  1  0
  6  5  1  0
  7  8  1  0
  8  9  1  1
 10  8  1  0
 10 12  1  0
 11 10  2  0
 12 13  1  0
 13 14  1  0
 14 15  2  0
 14 16  1  0
 16 17  1  0
 17 21  1  0
 17 18  1  6
 18 19  1  0
 19 23  1  0
 20 19  2  0
 21 24  2  0
 21 22  1  0
M  END
$$$$
