RGD.pdb
     RDKit          3D

 24 23  0  0  1  0  0  0  0  0999 V2000
    8.9179  -12.3954   20.6538 N   0  0  0  0  0  0  0  0  0  0  0  0
    8.3717  -12.7638   19.4046 C   0  0  0  0  0  0  0  0  0  0  0  0
    7.1564  -12.4283   19.0765 N   0  0  0  0  0  0  0  0  0  0  0  0
    9.1999  -13.5162   18.5124 N   0  0  0  0  0  0  0  0  0  0  0  0
   10.3793  -14.1527   18.9861 C   0  0  0  0  0  0  0  0  0  0  0  0
   10.1582  -15.1302   20.1122 C   0  0  0  0  0  0  0  0  0  0  0  0
   11.4426  -15.7209   20.6497 C   0  0  0  0  0  0  0  0  0  0  0  0
   11.3655  -17.2145   20.4171 C   0  0  2  0  0  0  0  0  0  0  0  0
   10.7318  -17.4417   19.1475 N   0  0  0  0  0  0  0  0  0  0  0  0
   10.6576  -17.8610   21.5377 C   0  0  0  0  0  0  0  0  0  0  0  0
    9.7613  -18.7219   21.3459 O   0  0  0  0  0  0  0  0  0  0  0  0
    6.7846  -12.7702   18.1661 N   0  0  0  0  0  0  0  0  0  0  0  0
   11.0308  -17.4664   22.8838 C   0  0  0  0  0  0  0  0  0  0  0  0
   10.4540  -18.2569   23.9375 C   0  0  0  0  0  0  0  0  0  0  0  0
   10.7857  -17.7138   25.2525 O   0  0  0  0  0  0  0  0  0  0  0  0
   12.0333  -17.4904   25.4624 N   0  0  0  0  0  0  0  0  0  0  0  0
    9.9017  -17.4133   26.3012 C   0  0  1  0  0  0  0  0  0  0  0  0
   10.4272  -16.8054   27.5316 C   0  0  0  0  0  0  0  0  0  0  0  0
    9.3683  -15.8626   28.1019 C   0  0  0  0  0  0  0  0  0  0  0  0
    9.9787  -14.9780   29.0884 O   0  0  0  0  0  0  0  0  0  0  0  0
   11.1744  -15.1755   29.4374 C   0  0  0  0  0  0  0  0  0  0  0  0
   10.7278  -17.8496   28.5248 O   0  0  0  0  0  0  0  0  0  0  0  0
   10.3829  -19.1809   28.3003 O   0  0  0  0  0  0  0  0  0  0  0  0
    9.3216  -13.9046   29.6877 O   0  0  0  0  0  0  0  0  0  0  0  0
  1  2  1  0
  2  3  2  0
  4  5  1  0
  4  2  1  0
  6  7  1  0
  6  5  1  0
  7  8  1  0
  8  9  1  6
 10  8  1  0
 10 12  1  0
 11 10  2  0
 12 13  1  0
 13 14  1  0
 14 15  2  0
 14 16  1  0
 16 17  1  0
 17 21  1  0
 17 18  1  1
 18 19  1  0
 19 23  1  0
 20 19  2  0
 21 24  2  0
 21 22  1  0
M  END
$$$$
