RGD.pdb
     RDKit          3D

 24 23  0  0  1  0  0  0  0  0999 V2000
   11.5456  -16.0163   18.6246 N   0  0  0  0  0  0  0  0  0  0  0  0
   12.0637  -14.7029   18.6589 C   0  0  0  0  0  0  0  0  0  0  0  0
   13.1648  -14.4307   19.2997 N   0  0  0  0  0  0  0  0  0  0  0  0
   11.3384  -13.6834   17.9644 N   0  0  0  0  0  0  0  0  0  0  0  0
   10.2723  -12.9934   18.6031 C   0  0  0  0  0  0  0  0  0  0  0  0
    8.9204  -13.1971   17.9679 C   0  0  0  0  0  0  0  0  0  0  0  0
    8.2210  -14.4510   18.4434 C   0  0  0  0  0  0  0  0  0  0  0  0
    7.3198  -14.0394   19.5875 C   0  0  2  0  0  0  0  0  0  0  0  0
    7.6597  -12.6964   19.9696 N   0  0  0  0  0  0  0  0  0  0  0  0
    7.4455  -15.0028   20.6969 C   0  0  0  0  0  0  0  0  0  0  0  0
    7.1303  -16.2126   20.5620 O   0  0  0  0  0  0  0  0  0  0  0  0
   13.4638  -13.4349   19.3552 N   0  0  0  0  0  0  0  0  0  0  0  0
    7.9484  -14.5045   21.9642 C   0  0  0  0  0  0  0  0  0  0  0  0
    7.9749  -15.4646   23.0344 C   0  0  0  0  0  0  0  0  0  0  0  0
    9.3404  -15.8876   23.3359 O   0  0  0  0  0  0  0  0  0  0  0  0
   10.2603  -15.0358   23.0550 N   0  0  0  0  0  0  0  0  0  0  0  0
    9.7541  -17.1088   23.8917 C   0  0  1  0  0  0  0  0  0  0  0  0
   11.1826  -17.3300   24.1566 C   0  0  0  0  0  0  0  0  0  0  0  0
   11.3179  -18.3429   25.2928 C   0  0  0  0  0  0  0  0  0  0  0  0
   10.7603  -17.7826   26.5190 O   0  0  0  0  0  0  0  0  0  0  0  0
   11.1688  -16.6609   26.9258 C   0  0  0  0  0  0  0  0  0  0  0  0
   11.8448  -17.8629   22.9546 O   0  0  0  0  0  0  0  0  0  0  0  0
   13.2335  -17.9401   22.8692 O   0  0  0  0  0  0  0  0  0  0  0  0
    9.7856  -18.4111   27.2923 O   0  0  0  0  0  0  0  0  0  0  0  0
  1  2  1  0
  2  3  2  0
  4  5  1  0
  4  2  1  0
  6  7  1  0
  6  5  1  0
  7  8  1  0
  8  9  1  1
 10  8  1  0
 10 12  1  0
 11 10  2  0
 12 13  1  0
 13 14  1  0
 14 15  2  0
 14 16  1  0
 16 17  1  0
 17 21  1  0
 17 18  1  6
 18 19  1  0
 19 23  1  0
 20 19  2  0
 21 24  2  0
 21 22  1  0
M  END
$$$$
