RGD.pdb
     RDKit          3D

 24 23  0  0  1  0  0  0  0  0999 V2000
    8.9619  -12.9180   16.7947 N   0  0  0  0  0  0  0  0  0  0  0  0
    7.5946  -13.2601   16.7051 C   0  0  0  0  0  0  0  0  0  0  0  0
    7.0202  -13.4388   15.5495 N   0  0  0  0  0  0  0  0  0  0  0  0
    6.8637  -13.4052   17.9269 N   0  0  0  0  0  0  0  0  0  0  0  0
    7.5424  -13.4281   19.1757 C   0  0  0  0  0  0  0  0  0  0  0  0
    8.7213  -14.3658   19.2344 C   0  0  0  0  0  0  0  0  0  0  0  0
    9.3670  -14.4269   20.6008 C   0  0  0  0  0  0  0  0  0  0  0  0
    9.7746  -15.8671   20.8254 C   0  0  2  0  0  0  0  0  0  0  0  0
    8.5826  -16.6626   20.9315 N   0  0  0  0  0  0  0  0  0  0  0  0
   10.6391  -15.9640   22.0163 C   0  0  0  0  0  0  0  0  0  0  0  0
   11.3341  -14.9930   22.4106 O   0  0  0  0  0  0  0  0  0  0  0  0
    6.0063  -13.6750   15.5398 N   0  0  0  0  0  0  0  0  0  0  0  0
   10.6642  -17.2302   22.7256 C   0  0  0  0  0  0  0  0  0  0  0  0
   11.3778  -17.2204   23.9741 C   0  0  0  0  0  0  0  0  0  0  0  0
   11.4655  -18.5614   24.5472 O   0  0  0  0  0  0  0  0  0  0  0  0
   10.5135  -19.3639   24.2305 N   0  0  0  0  0  0  0  0  0  0  0  0
   12.4634  -19.0643   25.3973 C   0  0  1  0  0  0  0  0  0  0  0  0
   12.1735  -20.2417   26.2274 C   0  0  0  0  0  0  0  0  0  0  0  0
   12.8664  -20.0698   27.5786 C   0  0  0  0  0  0  0  0  0  0  0  0
   14.3059  -19.9414   27.3793 O   0  0  0  0  0  0  0  0  0  0  0  0
   14.7679  -19.9370   26.2059 C   0  0  0  0  0  0  0  0  0  0  0  0
   10.7224  -20.3658   26.4424 O   0  0  0  0  0  0  0  0  0  0  0  0
    9.9385  -19.2528   26.7401 O   0  0  0  0  0  0  0  0  0  0  0  0
   15.2301  -19.8199   28.4157 O   0  0  0  0  0  0  0  0  0  0  0  0
  1  2  1  0
  2  3  2  0
  4  5  1  0
  4  2  1  0
  6  7  1  0
  6  5  1  0
  7  8  1  0
  8  9  1  1
 10  8  1  0
 10 12  1  0
 11 10  2  0
 12 13  1  0
 13 14  1  0
 14 15  2  0
 14 16  1  0
 16 17  1  0
 17 21  1  0
 17 18  1  1
 18 19  1  0
 19 23  1  0
 20 19  2  0
 21 24  2  0
 21 22  1  0
M  END
$$$$
