VSQ.pdb
     RDKit          3D

 23 22  0  0  1  0  0  0  0  0999 V2000
   10.6111  -17.2428   16.8331 C   0  0  0  0  0  0  0  0  0  0  0  0
   11.2070  -18.3269   17.6934 C   0  0  2  0  0  0  0  0  0  0  0  0
   11.4689  -19.5613   16.8714 C   0  0  0  0  0  0  0  0  0  0  0  0
   10.3637  -18.6232   18.9100 C   0  0  2  0  0  0  0  0  0  0  0  0
    9.1393  -19.2633   18.4031 N   0  0  0  0  0  0  0  0  0  0  0  0
    9.9313  -17.3865   19.6055 C   0  0  0  0  0  0  0  0  0  0  0  0
   10.8182  -16.6658   20.1260 O   0  0  0  0  0  0  0  0  0  0  0  0
    5.9755  -15.2572   21.1255 O   0  0  0  0  0  0  0  0  0  0  0  0
    6.8464  -15.3333   20.0591 C   0  0  0  0  0  0  0  0  0  0  0  0
    8.1800  -15.8269   20.5245 C   0  0  2  0  0  0  0  0  0  0  0  0
    8.5835  -16.9555   19.7268 N   0  0  0  0  0  0  0  0  0  0  0  0
    8.1997  -16.1311   21.9791 C   0  0  0  0  0  0  0  0  0  0  0  0
    7.8768  -17.2833   22.3712 O   0  0  0  0  0  0  0  0  0  0  0  0
   11.6315  -18.3510   25.2915 N   0  0  0  0  0  0  0  0  0  0  0  0
   11.0828  -17.5897   26.3607 C   0  0  0  0  0  0  0  0  0  0  0  0
   11.3314  -17.9815   27.5132 O   0  0  0  0  0  0  0  0  0  0  0  0
   10.2592  -16.3968   26.1302 C   0  0  0  0  0  0  0  0  0  0  0  0
   10.0452  -16.0387   24.6904 C   0  0  0  0  0  0  0  0  0  0  0  0
    8.7023  -15.4775   24.3800 C   0  0  2  0  0  0  0  0  0  0  0  0
    8.5690  -15.1737   22.9556 N   0  0  0  0  0  0  0  0  0  0  0  0
    8.3156  -14.3160   25.2076 C   0  0  0  0  0  0  0  0  0  0  0  0
    8.2677  -13.1832   24.6248 O   0  0  0  0  0  0  0  0  0  0  0  0
    8.0039  -14.3339   26.5285 O   0  0  0  0  0  0  0  0  0  0  0  0
  2  1  1  6
  2  3  1  0
  4  5  1  6
  4  2  1  0
  4  6  1  0
  6 11  1  0
  7  6  2  0
  9  8  1  0
 10  9  1  6
 11 10  1  0
 12 20  1  0
 12 10  1  0
 13 12  2  0
 14 15  1  0
 15 16  2  0
 15 17  1  0
 17 18  1  0
 19 18  1  6
 19 20  1  0
 19 21  1  0
 21 23  1  0
 22 21  2  0
M  END
$$$$
