VSQ.pdb
     RDKit          3D

 23 22  0  0  1  0  0  0  0  0999 V2000
    8.1126  -13.0888   21.1185 C   0  0  0  0  0  0  0  0  0  0  0  0
    8.4601  -13.2702   19.6636 C   0  0  2  0  0  0  0  0  0  0  0  0
    7.7781  -12.2188   18.8285 C   0  0  0  0  0  0  0  0  0  0  0  0
    8.1633  -14.6664   19.1720 C   0  0  2  0  0  0  0  0  0  0  0  0
    6.7021  -14.8192   19.2565 N   0  0  0  0  0  0  0  0  0  0  0  0
    8.7439  -15.7060   20.0566 C   0  0  0  0  0  0  0  0  0  0  0  0
    8.1534  -15.9533   21.1368 O   0  0  0  0  0  0  0  0  0  0  0  0
   12.6536  -17.4990   19.7147 O   0  0  0  0  0  0  0  0  0  0  0  0
   11.5131  -18.2312   19.9694 C   0  0  0  0  0  0  0  0  0  0  0  0
   10.5133  -17.3829   20.6900 C   0  0  2  0  0  0  0  0  0  0  0  0
    9.9226  -16.4451   19.7710 N   0  0  0  0  0  0  0  0  0  0  0  0
   11.0897  -16.7121   21.8844 C   0  0  0  0  0  0  0  0  0  0  0  0
   11.1746  -15.4559   21.9036 O   0  0  0  0  0  0  0  0  0  0  0  0
    6.6892  -17.0372   24.4440 N   0  0  0  0  0  0  0  0  0  0  0  0
    7.4653  -15.9342   24.8966 C   0  0  0  0  0  0  0  0  0  0  0  0
    6.8422  -14.9298   25.2794 O   0  0  0  0  0  0  0  0  0  0  0  0
    8.9326  -15.9648   24.9155 C   0  0  0  0  0  0  0  0  0  0  0  0
    9.5505  -17.2243   24.3876 C   0  0  0  0  0  0  0  0  0  0  0  0
   11.0386  -17.2292   24.3692 C   0  0  2  0  0  0  0  0  0  0  0  0
   11.5532  -17.4290   23.0149 N   0  0  0  0  0  0  0  0  0  0  0  0
   11.6616  -18.1760   25.3174 C   0  0  0  0  0  0  0  0  0  0  0  0
   12.3622  -17.6741   26.2567 O   0  0  0  0  0  0  0  0  0  0  0  0
   11.5614  -19.5293   25.2900 O   0  0  0  0  0  0  0  0  0  0  0  0
  2  1  1  1
  2  3  1  0
  4  5  1  1
  4  2  1  0
  4  6  1  0
  6 11  1  0
  7  6  2  0
  9  8  1  0
 10  9  1  6
 11 10  1  0
 12 20  1  0
 12 10  1  0
 13 12  2  0
 14 15  1  0
 15 16  2  0
 15 17  1  0
 17 18  1  0
 19 18  1  6
 19 20  1  0
 19 21  1  0
 21 23  1  0
 22 21  2  0
M  END
$$$$
