VSQ.pdb
     RDKit          3D

 23 22  0  0  1  0  0  0  0  0999 V2000
    7.8600  -16.9037   18.5488 C   0  0  0  0  0  0  0  0  0  0  0  0
    8.3143  -18.3312   18.7099 C   0  0  2  0  0  0  0  0  0  0  0  0
    7.2801  -19.2745   18.1546 C   0  0  0  0  0  0  0  0  0  0  0  0
    8.6752  -18.6613   20.1382 C   0  0  2  0  0  0  0  0  0  0  0  0
    7.4022  -18.6967   20.8756 N   0  0  0  0  0  0  0  0  0  0  0  0
    9.4936  -17.5968   20.7686 C   0  0  0  0  0  0  0  0  0  0  0  0
   10.6182  -17.3481   20.2684 O   0  0  0  0  0  0  0  0  0  0  0  0
    8.4132  -15.4008   24.2681 O   0  0  0  0  0  0  0  0  0  0  0  0
    9.1268  -14.8383   23.2308 C   0  0  0  0  0  0  0  0  0  0  0  0
    9.9570  -15.8848   22.5570 C   0  0  2  0  0  0  0  0  0  0  0  0
    9.0978  -16.8352   21.9001 N   0  0  0  0  0  0  0  0  0  0  0  0
   10.9131  -16.5405   23.4869 C   0  0  0  0  0  0  0  0  0  0  0  0
   10.5894  -17.6255   24.0380 O   0  0  0  0  0  0  0  0  0  0  0  0
   13.9130  -19.8150   20.9004 N   0  0  0  0  0  0  0  0  0  0  0  0
   14.5488  -19.9662   22.1640 C   0  0  0  0  0  0  0  0  0  0  0  0
   15.2521  -20.9784   22.3202 O   0  0  0  0  0  0  0  0  0  0  0  0
   14.3908  -18.9832   23.2425 C   0  0  0  0  0  0  0  0  0  0  0  0
   13.5981  -17.7632   22.8815 C   0  0  0  0  0  0  0  0  0  0  0  0
   13.3853  -16.8040   23.9993 C   0  0  2  0  0  0  0  0  0  0  0  0
   12.1859  -15.9950   23.7850 N   0  0  0  0  0  0  0  0  0  0  0  0
   14.5518  -15.9505   24.3067 C   0  0  0  0  0  0  0  0  0  0  0  0
   14.6753  -14.8772   23.6298 O   0  0  0  0  0  0  0  0  0  0  0  0
   15.5064  -16.1936   25.2404 O   0  0  0  0  0  0  0  0  0  0  0  0
  2  1  1  1
  2  3  1  0
  4  5  1  1
  4  2  1  0
  4  6  1  0
  6 11  1  0
  7  6  2  0
  9  8  1  0
 10  9  1  1
 11 10  1  0
 12 20  1  0
 12 10  1  0
 13 12  2  0
 14 15  1  0
 15 16  2  0
 15 17  1  0
 17 18  1  0
 19 18  1  6
 19 20  1  0
 19 21  1  0
 21 23  1  0
 22 21  2  0
M  END
$$$$
