VSQ.pdb
     RDKit          3D

 23 22  0  0  1  0  0  0  0  0999 V2000
    7.6619  -12.3605   26.6671 C   0  0  0  0  0  0  0  0  0  0  0  0
    6.6757  -12.0825   25.5624 C   0  0  2  0  0  0  0  0  0  0  0  0
    5.7107  -11.0054   25.9824 C   0  0  0  0  0  0  0  0  0  0  0  0
    5.9658  -13.3315   25.0985 C   0  0  2  0  0  0  0  0  0  0  0  0
    5.3612  -13.9203   26.3041 N   0  0  0  0  0  0  0  0  0  0  0  0
    6.9084  -14.3455   24.5660 C   0  0  0  0  0  0  0  0  0  0  0  0
    7.4248  -15.1505   25.3797 O   0  0  0  0  0  0  0  0  0  0  0  0
    9.2901  -16.2251   20.7720 O   0  0  0  0  0  0  0  0  0  0  0  0
    8.3808  -15.2988   21.2374 C   0  0  0  0  0  0  0  0  0  0  0  0
    8.2684  -15.3985   22.7260 C   0  0  2  0  0  0  0  0  0  0  0  0
    7.2713  -14.4738   23.1990 N   0  0  0  0  0  0  0  0  0  0  0  0
    9.5749  -15.2147   23.4102 C   0  0  0  0  0  0  0  0  0  0  0  0
    9.9600  -14.0510   23.6986 O   0  0  0  0  0  0  0  0  0  0  0  0
   10.9268  -14.1747   28.3325 N   0  0  0  0  0  0  0  0  0  0  0  0
   10.7043  -15.5728   28.1935 C   0  0  0  0  0  0  0  0  0  0  0  0
   10.3476  -16.1878   29.2124 O   0  0  0  0  0  0  0  0  0  0  0  0
   10.8842  -16.2708   26.9148 C   0  0  0  0  0  0  0  0  0  0  0  0
   11.4196  -15.4265   25.7979 C   0  0  0  0  0  0  0  0  0  0  0  0
   11.6540  -16.1556   24.5218 C   0  0  2  0  0  0  0  0  0  0  0  0
   10.4161  -16.3005   23.7567 N   0  0  0  0  0  0  0  0  0  0  0  0
   12.3376  -17.4568   24.6744 C   0  0  0  0  0  0  0  0  0  0  0  0
   13.5256  -17.4334   25.1363 O   0  0  0  0  0  0  0  0  0  0  0  0
   11.8263  -18.6775   24.3733 O   0  0  0  0  0  0  0  0  0  0  0  0
  2  1  1  1
  2  3  1  0
  4  5  1  1
  4  2  1  0
  4  6  1  0
  6 11  1  0
  7  6  2  0
  9  8  1  0
 10  9  1  6
 11 10  1  0
 12 20  1  0
 12 10  1  0
 13 12  2  0
 14 15  1  0
 15 16  2  0
 15 17  1  0
 17 18  1  0
 19 18  1  1
 19 20  1  0
 19 21  1  0
 21 23  1  0
 22 21  2  0
M  END
$$$$
