VSQ.pdb
     RDKit          3D

 23 22  0  0  1  0  0  0  0  0999 V2000
    7.5263  -13.2465   21.4369 C   0  0  0  0  0  0  0  0  0  0  0  0
    8.5017  -13.2649   20.2887 C   0  0  2  0  0  0  0  0  0  0  0  0
    8.1490  -12.1977   19.2864 C   0  0  0  0  0  0  0  0  0  0  0  0
    8.6120  -14.6287   19.6507 C   0  0  2  0  0  0  0  0  0  0  0  0
    7.3292  -14.8564   18.9665 N   0  0  0  0  0  0  0  0  0  0  0  0
    8.7452  -15.7086   20.6589 C   0  0  0  0  0  0  0  0  0  0  0  0
    7.7363  -15.9931   21.3502 O   0  0  0  0  0  0  0  0  0  0  0  0
   12.2670  -18.0214   21.3969 O   0  0  0  0  0  0  0  0  0  0  0  0
   10.9857  -18.4843   21.6105 C   0  0  0  0  0  0  0  0  0  0  0  0
   10.0945  -17.3509   22.0102 C   0  0  2  0  0  0  0  0  0  0  0  0
    9.9338  -16.4473   20.9009 N   0  0  0  0  0  0  0  0  0  0  0  0
   10.5689  -16.6572   23.2360 C   0  0  0  0  0  0  0  0  0  0  0  0
   11.2167  -15.5832   23.1235 O   0  0  0  0  0  0  0  0  0  0  0  0
    9.4574  -12.9590   29.1027 N   0  0  0  0  0  0  0  0  0  0  0  0
    9.1736  -13.8854   28.0612 C   0  0  0  0  0  0  0  0  0  0  0  0
    7.9960  -13.9452   27.6696 O   0  0  0  0  0  0  0  0  0  0  0  0
   10.2105  -14.7380   27.4677 C   0  0  0  0  0  0  0  0  0  0  0  0
    9.7804  -15.5194   26.2630 C   0  0  0  0  0  0  0  0  0  0  0  0
   10.7860  -16.4944   25.7599 C   0  0  2  0  0  0  0  0  0  0  0  0
   10.3232  -17.1542   24.5396 N   0  0  0  0  0  0  0  0  0  0  0  0
   11.2347  -17.4853   26.7601 C   0  0  0  0  0  0  0  0  0  0  0  0
   11.8511  -17.0353   27.7813 O   0  0  0  0  0  0  0  0  0  0  0  0
   11.0549  -18.8293   26.7019 O   0  0  0  0  0  0  0  0  0  0  0  0
  2  1  1  1
  2  3  1  0
  4  5  1  1
  4  2  1  0
  4  6  1  0
  6 11  1  0
  7  6  2  0
  9  8  1  0
 10  9  1  6
 11 10  1  0
 12 20  1  0
 12 10  1  0
 13 12  2  0
 14 15  1  0
 15 16  2  0
 15 17  1  0
 17 18  1  0
 19 18  1  1
 19 20  1  0
 19 21  1  0
 21 23  1  0
 22 21  2  0
M  END
$$$$
