VSQ.pdb
     RDKit          3D

 23 22  0  0  1  0  0  0  0  0999 V2000
    7.9438  -12.1349   20.1538 C   0  0  0  0  0  0  0  0  0  0  0  0
    8.6477  -13.0598   19.1950 C   0  0  2  0  0  0  0  0  0  0  0  0
    7.7423  -14.1995   18.8085 C   0  0  0  0  0  0  0  0  0  0  0  0
    9.9725  -13.5446   19.7327 C   0  0  2  0  0  0  0  0  0  0  0  0
   10.6246  -14.2490   18.6173 N   0  0  0  0  0  0  0  0  0  0  0  0
    9.8045  -14.5434   20.8164 C   0  0  0  0  0  0  0  0  0  0  0  0
    9.2504  -14.1683   21.8790 O   0  0  0  0  0  0  0  0  0  0  0  0
   11.7087  -18.2825   21.0597 O   0  0  0  0  0  0  0  0  0  0  0  0
   10.3498  -18.2309   21.2886 C   0  0  0  0  0  0  0  0  0  0  0  0
    9.9659  -16.8681   21.7723 C   0  0  2  0  0  0  0  0  0  0  0  0
   10.2254  -15.8977   20.7408 N   0  0  0  0  0  0  0  0  0  0  0  0
   10.6236  -16.5125   23.0567 C   0  0  0  0  0  0  0  0  0  0  0  0
   11.6354  -15.7630   23.0430 O   0  0  0  0  0  0  0  0  0  0  0  0
   10.5009  -13.1177   29.1356 N   0  0  0  0  0  0  0  0  0  0  0  0
    9.8561  -14.0432   28.2688 C   0  0  0  0  0  0  0  0  0  0  0  0
    8.6331  -13.8986   28.1042 O   0  0  0  0  0  0  0  0  0  0  0  0
   10.5859  -15.1235   27.5945 C   0  0  0  0  0  0  0  0  0  0  0  0
   10.0196  -15.5466   26.2726 C   0  0  0  0  0  0  0  0  0  0  0  0
   10.7760  -16.6301   25.5879 C   0  0  2  0  0  0  0  0  0  0  0  0
   10.1595  -16.9833   24.3095 N   0  0  0  0  0  0  0  0  0  0  0  0
   11.0089  -17.8332   26.4137 C   0  0  0  0  0  0  0  0  0  0  0  0
   10.2242  -18.8207   26.2282 O   0  0  0  0  0  0  0  0  0  0  0  0
   11.9773  -17.9939   27.3509 O   0  0  0  0  0  0  0  0  0  0  0  0
  2  1  1  1
  2  3  1  0
  4  5  1  6
  4  2  1  0
  4  6  1  0
  6 11  1  0
  7  6  2  0
  9  8  1  0
 10  9  1  6
 11 10  1  0
 12 20  1  0
 12 10  1  0
 13 12  2  0
 14 15  1  0
 15 16  2  0
 15 17  1  0
 17 18  1  0
 19 18  1  1
 19 20  1  0
 19 21  1  0
 21 23  1  0
 22 21  2  0
M  END
$$$$
