CAW.pdb
     RDKit          3D

 26 27  0  0  1  0  0  0  0  0999 V2000
    5.9837  -19.6607   20.8043 N   0  0  0  0  0  0  0  0  0  0  0  0
    6.0242  -18.5070   21.6763 C   0  0  1  0  0  0  0  0  0  0  0  0
    6.1392  -18.8971   23.1159 C   0  0  0  0  0  0  0  0  0  0  0  0
    4.7370  -19.8303   23.7380 S   0  0  0  0  0  0  0  0  0  0  0  0
    7.0998  -17.5607   21.2616 C   0  0  0  0  0  0  0  0  0  0  0  0
    8.1689  -18.0728   20.8352 O   0  0  0  0  0  0  0  0  0  0  0  0
    7.4053  -13.9334   20.5959 C   0  0  0  0  0  0  0  0  0  0  0  0
    7.9835  -15.2482   20.9797 C   0  0  2  0  0  0  0  0  0  0  0  0
    6.9204  -16.1548   21.3460 N   0  0  0  0  0  0  0  0  0  0  0  0
    9.0360  -15.1773   22.0168 C   0  0  0  0  0  0  0  0  0  0  0  0
   10.0749  -14.5061   21.7531 O   0  0  0  0  0  0  0  0  0  0  0  0
    8.9649  -15.7990   23.2689 N   0  0  0  0  0  0  0  0  0  0  0  0
   10.0409  -15.7732   24.2562 C   0  0  1  0  0  0  0  0  0  0  0  0
    9.6843  -14.9108   25.4089 C   0  0  0  0  0  0  0  0  0  0  0  0
    8.2765  -14.7514   25.7291 C   0  0  0  0  0  0  0  0  0  0  0  0
    7.3262  -15.7783   25.7383 C   0  0  0  0  0  0  0  0  0  0  0  0
    6.1513  -15.2228   26.0524 N   0  0  0  0  0  0  0  0  0  0  0  0
    6.2961  -13.9015   26.2451 C   0  0  0  0  0  0  0  0  0  0  0  0
    5.4209  -12.8874   26.5939 C   0  0  0  0  0  0  0  0  0  0  0  0
    5.8006  -11.5787   26.7556 C   0  0  0  0  0  0  0  0  0  0  0  0
    7.1280  -11.2583   26.5592 C   0  0  0  0  0  0  0  0  0  0  0  0
    8.0211  -12.2386   26.2123 C   0  0  0  0  0  0  0  0  0  0  0  0
    7.6255  -13.5584   26.0510 C   0  0  0  0  0  0  0  0  0  0  0  0
   10.5578  -17.0793   24.5881 C   0  0  0  0  0  0  0  0  0  0  0  0
   11.7907  -17.1563   25.2659 O   0  0  0  0  0  0  0  0  0  0  0  0
    9.9552  -18.1314   24.2975 O   0  0  0  0  0  0  0  0  0  0  0  0
  2  1  1  6
  2  3  1  0
  4  3  1  0
  5  6  2  0
  5  2  1  0
  8  7  1  1
  8  9  1  0
  8 10  1  0
  9  5  1  0
 10 11  2  0
 12 10  1  0
 12 13  1  0
 13 14  1  1
 15 16  2  0
 15 14  1  0
 17 16  1  0
 18 23  2  0
 18 17  1  0
 19 18  1  0
 20 19  2  0
 20 21  1  0
 21 22  2  0
 22 23  1  0
 23 15  1  0
 24 25  1  0
 24 13  1  0
 26 24  2  0
M  END
$$$$
