CAW.pdb
     RDKit          3D

 26 27  0  0  1  0  0  0  0  0999 V2000
    6.5952  -19.9916   20.4328 N   0  0  0  0  0  0  0  0  0  0  0  0
    6.2589  -18.7947   21.1727 C   0  0  1  0  0  0  0  0  0  0  0  0
    5.9808  -19.0867   22.6133 C   0  0  0  0  0  0  0  0  0  0  0  0
    5.7349  -20.8281   22.9752 S   0  0  0  0  0  0  0  0  0  0  0  0
    7.3079  -17.7483   21.0026 C   0  0  0  0  0  0  0  0  0  0  0  0
    8.4820  -18.1544   20.7936 O   0  0  0  0  0  0  0  0  0  0  0  0
    7.3940  -14.0500   20.6194 C   0  0  0  0  0  0  0  0  0  0  0  0
    8.0199  -15.3616   20.9327 C   0  0  2  0  0  0  0  0  0  0  0  0
    6.9915  -16.3660   21.0738 N   0  0  0  0  0  0  0  0  0  0  0  0
    8.9408  -15.3420   22.0903 C   0  0  0  0  0  0  0  0  0  0  0  0
    9.9417  -14.5712   22.0305 O   0  0  0  0  0  0  0  0  0  0  0  0
    8.7842  -16.1145   23.2470 N   0  0  0  0  0  0  0  0  0  0  0  0
    9.6864  -16.0599   24.3943 C   0  0  1  0  0  0  0  0  0  0  0  0
    9.4748  -14.8190   25.1785 C   0  0  0  0  0  0  0  0  0  0  0  0
    8.1185  -14.4938   25.5840 C   0  0  0  0  0  0  0  0  0  0  0  0
    7.0309  -15.3736   25.5550 C   0  0  0  0  0  0  0  0  0  0  0  0
    5.9618  -14.6899   25.9761 N   0  0  0  0  0  0  0  0  0  0  0  0
    6.3034  -13.4254   26.2732 C   0  0  0  0  0  0  0  0  0  0  0  0
    5.5983  -12.3350   26.7523 C   0  0  0  0  0  0  0  0  0  0  0  0
    6.1691  -11.1130   27.0053 C   0  0  0  0  0  0  0  0  0  0  0  0
    7.5201  -10.9654   26.7681 C   0  0  0  0  0  0  0  0  0  0  0  0
    8.2479  -12.0252   26.2927 C   0  0  0  0  0  0  0  0  0  0  0  0
    7.6597  -13.2559   26.0401 C   0  0  0  0  0  0  0  0  0  0  0  0
    9.7306  -17.2834   25.1588 C   0  0  0  0  0  0  0  0  0  0  0  0
   10.7662  -17.4446   26.1005 O   0  0  0  0  0  0  0  0  0  0  0  0
    8.8908  -18.1936   25.0145 O   0  0  0  0  0  0  0  0  0  0  0  0
  2  1  1  6
  2  3  1  0
  4  3  1  0
  5  6  2  0
  5  2  1  0
  8  7  1  1
  8  9  1  0
  8 10  1  0
  9  5  1  0
 10 11  2  0
 12 10  1  0
 12 13  1  0
 13 14  1  1
 15 16  2  0
 15 14  1  0
 17 16  1  0
 18 23  2  0
 18 17  1  0
 19 18  1  0
 20 19  2  0
 20 21  1  0
 21 22  2  0
 22 23  1  0
 23 15  1  0
 24 25  1  0
 24 13  1  0
 26 24  2  0
M  END
$$$$
