CAW.pdb
     RDKit          3D

 26 27  0  0  1  0  0  0  0  0999 V2000
    6.8770  -15.1790   19.0312 N   0  0  0  0  0  0  0  0  0  0  0  0
    7.8238  -14.6770   20.0031 C   0  0  1  0  0  0  0  0  0  0  0  0
    7.3877  -13.3703   20.5863 C   0  0  0  0  0  0  0  0  0  0  0  0
    8.4878  -12.7272   21.8513 S   0  0  0  0  0  0  0  0  0  0  0  0
    8.1032  -15.6975   21.0542 C   0  0  0  0  0  0  0  0  0  0  0  0
    7.1101  -16.3228   21.5123 O   0  0  0  0  0  0  0  0  0  0  0  0
   10.6111  -17.9950   21.8666 C   0  0  0  0  0  0  0  0  0  0  0  0
    9.6935  -16.9924   22.4693 C   0  0  2  0  0  0  0  0  0  0  0  0
    9.4246  -15.9462   21.5105 N   0  0  0  0  0  0  0  0  0  0  0  0
   10.1434  -16.4520   23.7708 C   0  0  0  0  0  0  0  0  0  0  0  0
   11.1121  -15.6392   23.7650 O   0  0  0  0  0  0  0  0  0  0  0  0
    9.5739  -16.7751   25.0081 N   0  0  0  0  0  0  0  0  0  0  0  0
   10.1031  -16.3260   26.2931 C   0  0  1  0  0  0  0  0  0  0  0  0
    9.0059  -15.9582   27.2207 C   0  0  0  0  0  0  0  0  0  0  0  0
    7.8527  -15.2677   26.6701 C   0  0  0  0  0  0  0  0  0  0  0  0
    6.7185  -15.8859   26.1322 C   0  0  0  0  0  0  0  0  0  0  0  0
    5.9045  -14.9130   25.7099 N   0  0  0  0  0  0  0  0  0  0  0  0
    6.4521  -13.7098   25.9475 C   0  0  0  0  0  0  0  0  0  0  0  0
    6.0311  -12.4101   25.7251 C   0  0  0  0  0  0  0  0  0  0  0  0
    6.7651  -11.3041   26.0729 C   0  0  0  0  0  0  0  0  0  0  0  0
    7.9896  -11.5006   26.6771 C   0  0  0  0  0  0  0  0  0  0  0  0
    8.4369  -12.7750   26.9112 C   0  0  0  0  0  0  0  0  0  0  0  0
    7.6863  -13.8858   26.5546 C   0  0  0  0  0  0  0  0  0  0  0  0
   11.1198  -17.1930   26.8390 C   0  0  0  0  0  0  0  0  0  0  0  0
   11.9138  -16.7067   27.8965 O   0  0  0  0  0  0  0  0  0  0  0  0
   11.3167  -18.3469   26.4096 O   0  0  0  0  0  0  0  0  0  0  0  0
  2  1  1  6
  2  3  1  0
  4  3  1  0
  5  6  2  0
  5  2  1  0
  8  7  1  6
  8  9  1  0
  8 10  1  0
  9  5  1  0
 10 11  2  0
 12 10  1  0
 12 13  1  0
 13 14  1  1
 15 16  2  0
 15 14  1  0
 17 16  1  0
 18 23  2  0
 18 17  1  0
 19 18  1  0
 20 19  2  0
 20 21  1  0
 21 22  2  0
 22 23  1  0
 23 15  1  0
 24 25  1  0
 24 13  1  0
 26 24  2  0
M  END
$$$$
