CAW.pdb
     RDKit          3D

 26 27  0  0  1  0  0  0  0  0999 V2000
    6.8260  -14.4166   17.9477 N   0  0  0  0  0  0  0  0  0  0  0  0
    8.0239  -14.2548   18.7426 C   0  0  1  0  0  0  0  0  0  0  0  0
    8.0992  -12.8998   19.3722 C   0  0  0  0  0  0  0  0  0  0  0  0
    9.4927  -12.6830   20.4835 S   0  0  0  0  0  0  0  0  0  0  0  0
    8.1516  -15.3501   19.7468 C   0  0  0  0  0  0  0  0  0  0  0  0
    7.1357  -15.5910   20.4517 O   0  0  0  0  0  0  0  0  0  0  0  0
   10.3493  -18.1776   20.4901 C   0  0  0  0  0  0  0  0  0  0  0  0
    9.5227  -17.0368   20.9647 C   0  0  2  0  0  0  0  0  0  0  0  0
    9.3603  -16.0801   19.8948 N   0  0  0  0  0  0  0  0  0  0  0  0
   10.0085  -16.4021   22.2095 C   0  0  0  0  0  0  0  0  0  0  0  0
   10.7997  -15.4218   22.0979 O   0  0  0  0  0  0  0  0  0  0  0  0
    9.6554  -16.8078   23.5019 N   0  0  0  0  0  0  0  0  0  0  0  0
   10.1541  -16.1770   24.7211 C   0  0  1  0  0  0  0  0  0  0  0  0
    9.6738  -14.7781   24.8307 C   0  0  0  0  0  0  0  0  0  0  0  0
    8.2968  -14.5619   25.2388 C   0  0  0  0  0  0  0  0  0  0  0  0
    7.2678  -15.5061   25.1517 C   0  0  0  0  0  0  0  0  0  0  0  0
    6.1544  -14.9152   25.5974 N   0  0  0  0  0  0  0  0  0  0  0  0
    6.4123  -13.6493   25.9648 C   0  0  0  0  0  0  0  0  0  0  0  0
    5.6356  -12.6332   26.4939 C   0  0  0  0  0  0  0  0  0  0  0  0
    6.1254  -11.3927   26.8173 C   0  0  0  0  0  0  0  0  0  0  0  0
    7.4658  -11.1472   26.6024 C   0  0  0  0  0  0  0  0  0  0  0  0
    8.2632  -12.1316   26.0790 C   0  0  0  0  0  0  0  0  0  0  0  0
    7.7567  -13.3819   25.7552 C   0  0  0  0  0  0  0  0  0  0  0  0
    9.9932  -16.9884   25.9039 C   0  0  0  0  0  0  0  0  0  0  0  0
    9.2272  -18.1668   25.8054 O   0  0  0  0  0  0  0  0  0  0  0  0
   10.5046  -16.6835   26.9994 O   0  0  0  0  0  0  0  0  0  0  0  0
  2  1  1  1
  2  3  1  0
  4  3  1  0
  5  6  2  0
  5  2  1  0
  8  7  1  6
  8  9  1  0
  8 10  1  0
  9  5  1  0
 10 11  2  0
 12 10  1  0
 12 13  1  0
 13 14  1  1
 15 16  2  0
 15 14  1  0
 17 16  1  0
 18 23  2  0
 18 17  1  0
 19 18  1  0
 20 19  2  0
 20 21  1  0
 21 22  2  0
 22 23  1  0
 23 15  1  0
 24 25  1  0
 24 13  1  0
 26 24  2  0
M  END
$$$$
