CAW.pdb
     RDKit          3D

 26 27  0  0  1  0  0  0  0  0999 V2000
    7.7336  -12.9937   18.6134 N   0  0  0  0  0  0  0  0  0  0  0  0
    8.5059  -14.2162   18.6599 C   0  0  1  0  0  0  0  0  0  0  0  0
    9.9492  -13.9789   18.3466 C   0  0  0  0  0  0  0  0  0  0  0  0
   10.7972  -12.9363   19.5373 S   0  0  0  0  0  0  0  0  0  0  0  0
    8.3204  -14.9167   19.9635 C   0  0  0  0  0  0  0  0  0  0  0  0
    8.1153  -14.1892   20.9713 O   0  0  0  0  0  0  0  0  0  0  0  0
    7.9969  -18.4641   21.0790 C   0  0  0  0  0  0  0  0  0  0  0  0
    8.1385  -17.0029   21.3136 C   0  0  2  0  0  0  0  0  0  0  0  0
    8.3737  -16.3325   20.0560 N   0  0  0  0  0  0  0  0  0  0  0  0
    9.1455  -16.6394   22.3345 C   0  0  0  0  0  0  0  0  0  0  0  0
   10.3176  -16.3809   21.9363 O   0  0  0  0  0  0  0  0  0  0  0  0
    8.8945  -16.5605   23.7094 N   0  0  0  0  0  0  0  0  0  0  0  0
    9.9229  -16.3043   24.7143 C   0  0  1  0  0  0  0  0  0  0  0  0
    9.6369  -15.0554   25.4614 C   0  0  0  0  0  0  0  0  0  0  0  0
    8.2490  -14.7366   25.7472 C   0  0  0  0  0  0  0  0  0  0  0  0
    7.2082  -15.6663   25.8489 C   0  0  0  0  0  0  0  0  0  0  0  0
    6.0886  -14.9769   26.0912 N   0  0  0  0  0  0  0  0  0  0  0  0
    6.3537  -13.6616   26.1512 C   0  0  0  0  0  0  0  0  0  0  0  0
    5.5746  -12.5418   26.3853 C   0  0  0  0  0  0  0  0  0  0  0  0
    6.0726  -11.2635   26.4184 C   0  0  0  0  0  0  0  0  0  0  0  0
    7.4243  -11.0871   26.2064 C   0  0  0  0  0  0  0  0  0  0  0  0
    8.2244  -12.1749   25.9709 C   0  0  0  0  0  0  0  0  0  0  0  0
    7.7095  -13.4627   25.9391 C   0  0  0  0  0  0  0  0  0  0  0  0
   10.2478  -17.4559   25.5214 C   0  0  0  0  0  0  0  0  0  0  0  0
   11.4672  -17.4532   26.2274 O   0  0  0  0  0  0  0  0  0  0  0  0
    9.4924  -18.4435   25.6134 O   0  0  0  0  0  0  0  0  0  0  0  0
  2  1  1  1
  2  3  1  0
  4  3  1  0
  5  6  2  0
  5  2  1  0
  8  7  1  6
  8  9  1  0
  8 10  1  0
  9  5  1  0
 10 11  2  0
 12 10  1  0
 12 13  1  0
 13 14  1  1
 15 16  2  0
 15 14  1  0
 17 16  1  0
 18 23  2  0
 18 17  1  0
 19 18  1  0
 20 19  2  0
 20 21  1  0
 21 22  2  0
 22 23  1  0
 23 15  1  0
 24 25  1  0
 24 13  1  0
 26 24  2  0
M  END
$$$$
