CAW.pdb
     RDKit          3D

 26 27  0  0  1  0  0  0  0  0999 V2000
    6.8527  -20.0364   20.4627 N   0  0  0  0  0  0  0  0  0  0  0  0
    6.3013  -18.8778   21.1309 C   0  0  1  0  0  0  0  0  0  0  0  0
    5.9369  -19.1716   22.5517 C   0  0  0  0  0  0  0  0  0  0  0  0
    5.4887  -20.8835   22.8557 S   0  0  0  0  0  0  0  0  0  0  0  0
    7.2181  -17.7070   21.0152 C   0  0  0  0  0  0  0  0  0  0  0  0
    8.3791  -17.9393   20.5851 O   0  0  0  0  0  0  0  0  0  0  0  0
    6.8949  -14.0257   21.0784 C   0  0  0  0  0  0  0  0  0  0  0  0
    7.6890  -15.2713   21.2466 C   0  0  2  0  0  0  0  0  0  0  0  0
    6.7962  -16.3996   21.3738 N   0  0  0  0  0  0  0  0  0  0  0  0
    8.6836  -15.2228   22.3406 C   0  0  0  0  0  0  0  0  0  0  0  0
    9.5978  -14.3524   22.2640 O   0  0  0  0  0  0  0  0  0  0  0  0
    8.6856  -16.0705   23.4545 N   0  0  0  0  0  0  0  0  0  0  0  0
    9.7042  -16.0422   24.5008 C   0  0  1  0  0  0  0  0  0  0  0  0
    9.0828  -15.9992   25.8468 C   0  0  0  0  0  0  0  0  0  0  0  0
    7.8813  -15.2008   26.0159 C   0  0  0  0  0  0  0  0  0  0  0  0
    6.5700  -15.6808   25.9265 C   0  0  0  0  0  0  0  0  0  0  0  0
    5.7563  -14.6366   26.1133 N   0  0  0  0  0  0  0  0  0  0  0  0
    6.4713  -13.5181   26.3178 C   0  0  0  0  0  0  0  0  0  0  0  0
    6.1292  -12.2008   26.5700 C   0  0  0  0  0  0  0  0  0  0  0  0
    7.0490  -11.2020   26.7685 C   0  0  0  0  0  0  0  0  0  0  0  0
    8.3876  -11.5310   26.7131 C   0  0  0  0  0  0  0  0  0  0  0  0
    8.7608  -12.8263   26.4646 C   0  0  0  0  0  0  0  0  0  0  0  0
    7.8218  -13.8278   26.2648 C   0  0  0  0  0  0  0  0  0  0  0  0
   10.7474  -17.0240   24.3243 C   0  0  0  0  0  0  0  0  0  0  0  0
   11.8389  -17.0051   25.2150 O   0  0  0  0  0  0  0  0  0  0  0  0
   10.7148  -17.8798   23.4181 O   0  0  0  0  0  0  0  0  0  0  0  0
  2  1  1  1
  2  3  1  0
  4  3  1  0
  5  6  2  0
  5  2  1  0
  8  7  1  1
  8  9  1  0
  8 10  1  0
  9  5  1  0
 10 11  2  0
 12 10  1  0
 12 13  1  0
 13 14  1  1
 15 16  2  0
 15 14  1  0
 17 16  1  0
 18 23  2  0
 18 17  1  0
 19 18  1  0
 20 19  2  0
 20 21  1  0
 21 22  2  0
 22 23  1  0
 23 15  1  0
 24 25  1  0
 24 13  1  0
 26 24  2  0
M  END
$$$$
