CAW.pdb
     RDKit          3D

 26 27  0  0  1  0  0  0  0  0999 V2000
    7.1196  -14.6895   18.3034 N   0  0  0  0  0  0  0  0  0  0  0  0
    7.9880  -14.2819   19.3863 C   0  0  1  0  0  0  0  0  0  0  0  0
    7.5537  -12.9861   19.9947 C   0  0  0  0  0  0  0  0  0  0  0  0
    8.5294  -12.4779   21.4138 S   0  0  0  0  0  0  0  0  0  0  0  0
    8.1196  -15.3652   20.4030 C   0  0  0  0  0  0  0  0  0  0  0  0
    7.0498  -15.8951   20.8052 O   0  0  0  0  0  0  0  0  0  0  0  0
   10.3142  -17.9393   21.3202 C   0  0  0  0  0  0  0  0  0  0  0  0
    9.5053  -16.8220   21.8747 C   0  0  2  0  0  0  0  0  0  0  0  0
    9.3900  -15.7733   20.8881 N   0  0  0  0  0  0  0  0  0  0  0  0
    9.9787  -16.3091   23.1789 C   0  0  0  0  0  0  0  0  0  0  0  0
   10.8896  -15.4319   23.1686 O   0  0  0  0  0  0  0  0  0  0  0  0
    9.4910  -16.7243   24.4236 N   0  0  0  0  0  0  0  0  0  0  0  0
   10.0306  -16.2741   25.7040 C   0  0  1  0  0  0  0  0  0  0  0  0
    8.9526  -16.1205   26.7109 C   0  0  0  0  0  0  0  0  0  0  0  0
    7.7550  -15.3974   26.3201 C   0  0  0  0  0  0  0  0  0  0  0  0
    6.5819  -15.9788   25.8267 C   0  0  0  0  0  0  0  0  0  0  0  0
    5.7321  -14.9817   25.5596 N   0  0  0  0  0  0  0  0  0  0  0  0
    6.2937  -13.7978   25.8544 C   0  0  0  0  0  0  0  0  0  0  0  0
    5.8513  -12.4883   25.7816 C   0  0  0  0  0  0  0  0  0  0  0  0
    6.6082  -11.4087   26.1619 C   0  0  0  0  0  0  0  0  0  0  0  0
    7.8797  -11.6437   26.6428 C   0  0  0  0  0  0  0  0  0  0  0  0
    8.3491  -12.9287   26.7274 C   0  0  0  0  0  0  0  0  0  0  0  0
    7.5750  -14.0125   26.3393 C   0  0  0  0  0  0  0  0  0  0  0  0
   11.1919  -17.0130   26.1383 C   0  0  0  0  0  0  0  0  0  0  0  0
   11.5495  -18.1739   25.4243 O   0  0  0  0  0  0  0  0  0  0  0  0
   11.8822  -16.6615   27.1153 O   0  0  0  0  0  0  0  0  0  0  0  0
  2  1  1  6
  2  3  1  0
  4  3  1  0
  5  6  2  0
  5  2  1  0
  8  7  1  6
  8  9  1  0
  8 10  1  0
  9  5  1  0
 10 11  2  0
 12 10  1  0
 12 13  1  0
 13 14  1  1
 15 16  2  0
 15 14  1  0
 17 16  1  0
 18 23  2  0
 18 17  1  0
 19 18  1  0
 20 19  2  0
 20 21  1  0
 21 22  2  0
 22 23  1  0
 23 15  1  0
 24 25  1  0
 24 13  1  0
 26 24  2  0
M  END
$$$$
