CAW.pdb
     RDKit          3D

 26 27  0  0  1  0  0  0  0  0999 V2000
    7.7496  -14.5242   17.7596 N   0  0  0  0  0  0  0  0  0  0  0  0
    8.3359  -14.1478   19.0274 C   0  0  1  0  0  0  0  0  0  0  0  0
    7.7511  -12.8779   19.5597 C   0  0  0  0  0  0  0  0  0  0  0  0
    8.3452  -12.4236   21.1921 S   0  0  0  0  0  0  0  0  0  0  0  0
    8.2455  -15.2651   20.0112 C   0  0  0  0  0  0  0  0  0  0  0  0
    7.1482  -15.8814   20.0664 O   0  0  0  0  0  0  0  0  0  0  0  0
    9.8173  -17.9330   21.1812 C   0  0  0  0  0  0  0  0  0  0  0  0
    9.2483  -16.6993   21.7848 C   0  0  2  0  0  0  0  0  0  0  0  0
    9.3451  -15.6108   20.8403 N   0  0  0  0  0  0  0  0  0  0  0  0
    9.8149  -16.3431   23.1040 C   0  0  0  0  0  0  0  0  0  0  0  0
   10.7890  -15.5368   23.1257 O   0  0  0  0  0  0  0  0  0  0  0  0
    9.3505  -16.8337   24.3301 N   0  0  0  0  0  0  0  0  0  0  0  0
    9.9658  -16.5269   25.6186 C   0  0  1  0  0  0  0  0  0  0  0  0
    8.9343  -16.2604   26.6504 C   0  0  0  0  0  0  0  0  0  0  0  0
    7.7827  -15.4611   26.2701 C   0  0  0  0  0  0  0  0  0  0  0  0
    6.5982  -15.9587   25.7158 C   0  0  0  0  0  0  0  0  0  0  0  0
    5.8030  -14.9094   25.4828 N   0  0  0  0  0  0  0  0  0  0  0  0
    6.4100  -13.7712   25.8568 C   0  0  0  0  0  0  0  0  0  0  0  0
    6.0305  -12.4402   25.8453 C   0  0  0  0  0  0  0  0  0  0  0  0
    6.8254  -11.4198   26.3038 C   0  0  0  0  0  0  0  0  0  0  0  0
    8.0707  -11.7405   26.8030 C   0  0  0  0  0  0  0  0  0  0  0  0
    8.4781  -13.0491   26.8282 C   0  0  0  0  0  0  0  0  0  0  0  0
    7.6660  -14.0723   26.3613 C   0  0  0  0  0  0  0  0  0  0  0  0
   11.0086  -17.4491   26.0000 C   0  0  0  0  0  0  0  0  0  0  0  0
   11.8055  -17.1301   27.1174 O   0  0  0  0  0  0  0  0  0  0  0  0
   11.2256  -18.5083   25.3790 O   0  0  0  0  0  0  0  0  0  0  0  0
  2  1  1  6
  2  3  1  0
  4  3  1  0
  5  6  2  0
  5  2  1  0
  8  7  1  6
  8  9  1  0
  8 10  1  0
  9  5  1  0
 10 11  2  0
 12 10  1  0
 12 13  1  0
 13 14  1  1
 15 16  2  0
 15 14  1  0
 17 16  1  0
 18 23  2  0
 18 17  1  0
 19 18  1  0
 20 19  2  0
 20 21  1  0
 21 22  2  0
 22 23  1  0
 23 15  1  0
 24 25  1  0
 24 13  1  0
 26 24  2  0
M  END
$$$$
