CAW.pdb
     RDKit          3D

 26 27  0  0  1  0  0  0  0  0999 V2000
    6.8390  -19.4886   19.5859 N   0  0  0  0  0  0  0  0  0  0  0  0
    6.6876  -18.7301   20.8084 C   0  0  1  0  0  0  0  0  0  0  0  0
    6.8739  -19.5830   22.0232 C   0  0  0  0  0  0  0  0  0  0  0  0
    6.5423  -18.7372   23.5720 S   0  0  0  0  0  0  0  0  0  0  0  0
    7.5853  -17.5391   20.8135 C   0  0  0  0  0  0  0  0  0  0  0  0
    8.7857  -17.7354   20.4854 O   0  0  0  0  0  0  0  0  0  0  0  0
    7.1738  -13.8621   21.0479 C   0  0  0  0  0  0  0  0  0  0  0  0
    7.9814  -15.1047   21.1669 C   0  0  2  0  0  0  0  0  0  0  0  0
    7.1041  -16.2521   21.1713 N   0  0  0  0  0  0  0  0  0  0  0  0
    8.9218  -15.1191   22.3088 C   0  0  0  0  0  0  0  0  0  0  0  0
    9.8890  -14.3048   22.2823 O   0  0  0  0  0  0  0  0  0  0  0  0
    8.8181  -15.9686   23.4165 N   0  0  0  0  0  0  0  0  0  0  0  0
    9.7610  -15.9756   24.5318 C   0  0  1  0  0  0  0  0  0  0  0  0
    9.0471  -16.0103   25.8314 C   0  0  0  0  0  0  0  0  0  0  0  0
    7.8239  -15.2371   25.9562 C   0  0  0  0  0  0  0  0  0  0  0  0
    6.5264  -15.7569   25.8925 C   0  0  0  0  0  0  0  0  0  0  0  0
    5.6842  -14.7266   26.0218 N   0  0  0  0  0  0  0  0  0  0  0  0
    6.3680  -13.5795   26.1654 C   0  0  0  0  0  0  0  0  0  0  0  0
    5.9897  -12.2603   26.3454 C   0  0  0  0  0  0  0  0  0  0  0  0
    6.8816  -11.2274   26.4897 C   0  0  0  0  0  0  0  0  0  0  0  0
    8.2287  -11.5223   26.4528 C   0  0  0  0  0  0  0  0  0  0  0  0
    8.6376  -12.8185   26.2754 C   0  0  0  0  0  0  0  0  0  0  0  0
    7.7266  -13.8546   26.1300 C   0  0  0  0  0  0  0  0  0  0  0  0
   10.8336  -16.9296   24.3813 C   0  0  0  0  0  0  0  0  0  0  0  0
   11.8428  -16.9592   25.3640 O   0  0  0  0  0  0  0  0  0  0  0  0
   10.8958  -17.7206   23.4196 O   0  0  0  0  0  0  0  0  0  0  0  0
  2  1  1  6
  2  3  1  0
  4  3  1  0
  5  6  2  0
  5  2  1  0
  8  7  1  1
  8  9  1  0
  8 10  1  0
  9  5  1  0
 10 11  2  0
 12 10  1  0
 12 13  1  0
 13 14  1  1
 15 16  2  0
 15 14  1  0
 17 16  1  0
 18 23  2  0
 18 17  1  0
 19 18  1  0
 20 19  2  0
 20 21  1  0
 21 22  2  0
 22 23  1  0
 23 15  1  0
 24 25  1  0
 24 13  1  0
 26 24  2  0
M  END
$$$$
