CAW.pdb
     RDKit          3D

 26 27  0  0  1  0  0  0  0  0999 V2000
    6.1441  -14.4128   20.3771 N   0  0  0  0  0  0  0  0  0  0  0  0
    7.5459  -14.7653   20.3165 C   0  0  1  0  0  0  0  0  0  0  0  0
    8.4220  -13.5586   20.1976 C   0  0  0  0  0  0  0  0  0  0  0  0
    8.2894  -12.4163   21.5766 S   0  0  0  0  0  0  0  0  0  0  0  0
    7.9306  -15.6290   21.4700 C   0  0  0  0  0  0  0  0  0  0  0  0
    7.2309  -15.5235   22.5123 O   0  0  0  0  0  0  0  0  0  0  0  0
   10.2153  -18.5240   21.9588 C   0  0  0  0  0  0  0  0  0  0  0  0
    9.3061  -17.4578   22.4556 C   0  0  2  0  0  0  0  0  0  0  0  0
    9.0311  -16.5225   21.3899 N   0  0  0  0  0  0  0  0  0  0  0  0
    9.7697  -16.7790   23.6856 C   0  0  0  0  0  0  0  0  0  0  0  0
   10.4699  -15.7345   23.5507 O   0  0  0  0  0  0  0  0  0  0  0  0
    9.4890  -17.2091   24.9878 N   0  0  0  0  0  0  0  0  0  0  0  0
   10.1471  -16.6840   26.1812 C   0  0  1  0  0  0  0  0  0  0  0  0
    9.1547  -16.1387   27.1392 C   0  0  0  0  0  0  0  0  0  0  0  0
    7.9838  -15.4706   26.5987 C   0  0  0  0  0  0  0  0  0  0  0  0
    6.8712  -16.1098   26.0407 C   0  0  0  0  0  0  0  0  0  0  0  0
    6.0301  -15.1522   25.6368 N   0  0  0  0  0  0  0  0  0  0  0  0
    6.5401  -13.9390   25.9051 C   0  0  0  0  0  0  0  0  0  0  0  0
    6.0811  -12.6477   25.7108 C   0  0  0  0  0  0  0  0  0  0  0  0
    6.7799  -11.5285   26.0880 C   0  0  0  0  0  0  0  0  0  0  0  0
    8.0070  -11.7023   26.6938 C   0  0  0  0  0  0  0  0  0  0  0  0
    8.4914  -12.9677   26.9006 C   0  0  0  0  0  0  0  0  0  0  0  0
    7.7762  -14.0920   26.5144 C   0  0  0  0  0  0  0  0  0  0  0  0
   11.1336  -17.5760   26.7420 C   0  0  0  0  0  0  0  0  0  0  0  0
   11.2536  -18.8680   26.1929 O   0  0  0  0  0  0  0  0  0  0  0  0
   11.8757  -17.2440   27.6873 O   0  0  0  0  0  0  0  0  0  0  0  0
  2  1  1  1
  2  3  1  0
  4  3  1  0
  5  6  2  0
  5  2  1  0
  8  7  1  6
  8  9  1  0
  8 10  1  0
  9  5  1  0
 10 11  2  0
 12 10  1  0
 12 13  1  0
 13 14  1  1
 15 16  2  0
 15 14  1  0
 17 16  1  0
 18 23  2  0
 18 17  1  0
 19 18  1  0
 20 19  2  0
 20 21  1  0
 21 22  2  0
 22 23  1  0
 23 15  1  0
 24 25  1  0
 24 13  1  0
 26 24  2  0
M  END
$$$$
