DQM.pdb
     RDKit          3D

 26 25  0  0  1  0  0  0  0  0999 V2000
    7.7894  -18.4020   19.9750 N   0  0  0  0  0  0  0  0  0  0  0  0
    7.8767  -18.3583   21.4043 C   0  0  1  0  0  0  0  0  0  0  0  0
    7.3605  -19.6659   21.9797 C   0  0  0  0  0  0  0  0  0  0  0  0
    6.1822  -20.1588   21.2279 C   0  0  0  0  0  0  0  0  0  0  0  0
    5.2299  -19.4372   20.8428 O   0  0  0  0  0  0  0  0  0  0  0  0
    9.2013  -18.0164   21.9235 C   0  0  0  0  0  0  0  0  0  0  0  0
    9.8304  -18.8682   22.5879 O   0  0  0  0  0  0  0  0  0  0  0  0
    6.1216  -21.5081   20.9261 O   0  0  0  0  0  0  0  0  0  0  0  0
   14.0261  -14.1553   20.0627 N   0  0  0  0  0  0  0  0  0  0  0  0
   13.0562  -14.9082   19.3569 C   0  0  0  0  0  0  0  0  0  0  0  0
   12.8653  -14.7491   18.1429 O   0  0  0  0  0  0  0  0  0  0  0  0
   12.2484  -15.9135   20.0925 C   0  0  0  0  0  0  0  0  0  0  0  0
   11.9205  -15.4378   21.4954 C   0  0  0  0  0  0  0  0  0  0  0  0
   11.0884  -16.3713   22.2748 C   0  0  2  0  0  0  0  0  0  0  0  0
    9.8530  -16.7751   21.7364 N   0  0  0  0  0  0  0  0  0  0  0  0
   10.9487  -15.8250   23.6605 C   0  0  0  0  0  0  0  0  0  0  0  0
   11.9622  -15.4367   24.3179 O   0  0  0  0  0  0  0  0  0  0  0  0
    6.3248  -12.1441   25.3412 C   0  0  0  0  0  0  0  0  0  0  0  0
    6.6078  -12.7381   27.0299 S   0  0  0  0  0  0  0  0  0  0  0  0
    8.0947  -13.7732   27.1194 C   0  0  0  0  0  0  0  0  0  0  0  0
    8.3855  -14.2928   25.7375 C   0  0  0  0  0  0  0  0  0  0  0  0
    9.6261  -15.1587   25.6744 C   0  0  2  0  0  0  0  0  0  0  0  0
    9.6980  -15.7032   24.3279 N   0  0  0  0  0  0  0  0  0  0  0  0
    9.3767  -16.2782   26.6556 C   0  0  0  0  0  0  0  0  0  0  0  0
    8.9924  -17.4154   26.2823 O   0  0  0  0  0  0  0  0  0  0  0  0
    9.5663  -16.0846   28.0164 O   0  0  0  0  0  0  0  0  0  0  0  0
  2  1  1  6
  2  3  1  0
  4  3  1  0
  4  8  1  0
  5  4  2  0
  6  2  1  0
  7  6  2  0
  9 10  1  0
 10 12  1  0
 11 10  2  0
 12 13  1  0
 14 13  1  6
 14 15  1  0
 15  6  1  0
 16 23  1  0
 16 14  1  0
 17 16  2  0
 18 19  1  0
 19 20  1  0
 21 20  1  0
 22 21  1  6
 22 23  1  0
 24 22  1  0
 24 26  1  0
 25 24  2  0
M  END
$$$$
