DQM.pdb
     RDKit          3D

 26 25  0  0  1  0  0  0  0  0999 V2000
    8.5414  -19.1286   20.6291 N   0  0  0  0  0  0  0  0  0  0  0  0
    9.8296  -18.7649   20.1186 C   0  0  1  0  0  0  0  0  0  0  0  0
    9.9125  -19.1407   18.6491 C   0  0  0  0  0  0  0  0  0  0  0  0
    9.2502  -20.4402   18.3861 C   0  0  0  0  0  0  0  0  0  0  0  0
    8.1743  -20.5764   17.7538 O   0  0  0  0  0  0  0  0  0  0  0  0
   10.2042  -17.3694   20.3491 C   0  0  0  0  0  0  0  0  0  0  0  0
   11.3861  -17.0171   20.1440 O   0  0  0  0  0  0  0  0  0  0  0  0
    9.8551  -21.5875   18.8686 O   0  0  0  0  0  0  0  0  0  0  0  0
    7.6529  -12.0013   18.9462 N   0  0  0  0  0  0  0  0  0  0  0  0
    7.6043  -13.2973   18.3770 C   0  0  0  0  0  0  0  0  0  0  0  0
    6.9501  -13.5340   17.3516 O   0  0  0  0  0  0  0  0  0  0  0  0
    8.3575  -14.3991   19.0274 C   0  0  0  0  0  0  0  0  0  0  0  0
    8.9700  -13.9484   20.3402 C   0  0  0  0  0  0  0  0  0  0  0  0
    9.6494  -15.0177   21.0928 C   0  0  2  0  0  0  0  0  0  0  0  0
    9.3262  -16.3541   20.7951 N   0  0  0  0  0  0  0  0  0  0  0  0
    9.5170  -14.7166   22.5522 C   0  0  0  0  0  0  0  0  0  0  0  0
    9.6297  -13.5310   22.9903 O   0  0  0  0  0  0  0  0  0  0  0  0
    6.4090  -12.0257   28.1212 C   0  0  0  0  0  0  0  0  0  0  0  0
    6.7842  -12.5397   26.4242 S   0  0  0  0  0  0  0  0  0  0  0  0
    7.2348  -14.2955   26.3563 C   0  0  0  0  0  0  0  0  0  0  0  0
    7.7002  -14.6040   24.9589 C   0  0  0  0  0  0  0  0  0  0  0  0
    9.0197  -15.3460   24.9198 C   0  0  2  0  0  0  0  0  0  0  0  0
    9.2607  -15.7142   23.5338 N   0  0  0  0  0  0  0  0  0  0  0  0
    8.7956  -16.5939   25.7387 C   0  0  0  0  0  0  0  0  0  0  0  0
    8.7587  -17.7353   25.2135 O   0  0  0  0  0  0  0  0  0  0  0  0
    8.6213  -16.5189   27.1132 O   0  0  0  0  0  0  0  0  0  0  0  0
  2  1  1  6
  2  3  1  0
  4  3  1  0
  4  8  1  0
  5  4  2  0
  6  2  1  0
  7  6  2  0
  9 10  1  0
 10 12  1  0
 11 10  2  0
 12 13  1  0
 14 13  1  6
 14 15  1  0
 15  6  1  0
 16 23  1  0
 16 14  1  0
 17 16  2  0
 18 19  1  0
 19 20  1  0
 21 20  1  0
 22 21  1  6
 22 23  1  0
 24 22  1  0
 24 26  1  0
 25 24  2  0
M  END
$$$$
