DQM.pdb
     RDKit          3D

 26 25  0  0  1  0  0  0  0  0999 V2000
    8.4716  -17.7532   17.8301 N   0  0  0  0  0  0  0  0  0  0  0  0
    9.0778  -17.7147   19.1275 C   0  0  1  0  0  0  0  0  0  0  0  0
   10.2607  -16.7622   19.1018 C   0  0  0  0  0  0  0  0  0  0  0  0
   11.5179  -17.4525   19.4754 C   0  0  0  0  0  0  0  0  0  0  0  0
   11.6039  -18.6726   19.7578 O   0  0  0  0  0  0  0  0  0  0  0  0
    8.1551  -17.4127   20.2222 C   0  0  0  0  0  0  0  0  0  0  0  0
    6.9573  -17.1723   19.9567 O   0  0  0  0  0  0  0  0  0  0  0  0
   12.6820  -16.7053   19.5178 O   0  0  0  0  0  0  0  0  0  0  0  0
    6.0491  -20.8466   24.2369 N   0  0  0  0  0  0  0  0  0  0  0  0
    7.3538  -20.5118   24.6748 C   0  0  0  0  0  0  0  0  0  0  0  0
    7.9592  -21.2034   25.5059 O   0  0  0  0  0  0  0  0  0  0  0  0
    8.0111  -19.3006   24.1224 C   0  0  0  0  0  0  0  0  0  0  0  0
    7.0602  -18.5094   23.2439 C   0  0  0  0  0  0  0  0  0  0  0  0
    7.6328  -17.2690   22.6916 C   0  0  2  0  0  0  0  0  0  0  0  0
    8.5047  -17.3668   21.5920 N   0  0  0  0  0  0  0  0  0  0  0  0
    8.2318  -16.4900   23.8195 C   0  0  0  0  0  0  0  0  0  0  0  0
    9.3889  -16.7625   24.2634 O   0  0  0  0  0  0  0  0  0  0  0  0
    5.5097  -11.1061   26.1854 C   0  0  0  0  0  0  0  0  0  0  0  0
    6.4761  -11.6152   27.6316 S   0  0  0  0  0  0  0  0  0  0  0  0
    7.7391  -12.8359   27.1787 C   0  0  0  0  0  0  0  0  0  0  0  0
    7.2518  -13.5839   25.9673 C   0  0  0  0  0  0  0  0  0  0  0  0
    8.2553  -14.5899   25.4438 C   0  0  2  0  0  0  0  0  0  0  0  0
    7.5637  -15.4110   24.4628 N   0  0  0  0  0  0  0  0  0  0  0  0
    8.6241  -15.4375   26.6370 C   0  0  0  0  0  0  0  0  0  0  0  0
    9.4797  -15.0635   27.4784 O   0  0  0  0  0  0  0  0  0  0  0  0
    8.0227  -16.6706   26.8445 O   0  0  0  0  0  0  0  0  0  0  0  0
  2  1  1  6
  2  3  1  0
  4  3  1  0
  4  8  1  0
  5  4  2  0
  6  2  1  0
  7  6  2  0
  9 10  1  0
 10 12  1  0
 11 10  2  0
 12 13  1  0
 14 13  1  1
 14 15  1  0
 15  6  1  0
 16 23  1  0
 16 14  1  0
 17 16  2  0
 18 19  1  0
 19 20  1  0
 21 20  1  0
 22 21  1  1
 22 23  1  0
 24 22  1  0
 24 26  1  0
 25 24  2  0
M  END
$$$$
