DQM.pdb
     RDKit          3D

 26 25  0  0  1  0  0  0  0  0999 V2000
   12.1742  -15.9054   17.9298 N   0  0  0  0  0  0  0  0  0  0  0  0
   12.3870  -15.6110   19.3156 C   0  0  1  0  0  0  0  0  0  0  0  0
   12.8896  -14.1844   19.4552 C   0  0  0  0  0  0  0  0  0  0  0  0
   14.2820  -14.0522   18.9650 C   0  0  0  0  0  0  0  0  0  0  0  0
   15.0102  -15.0146   18.6199 O   0  0  0  0  0  0  0  0  0  0  0  0
   11.2341  -15.8725   20.1778 C   0  0  0  0  0  0  0  0  0  0  0  0
   10.1539  -15.2903   19.9388 O   0  0  0  0  0  0  0  0  0  0  0  0
   14.8231  -12.7813   18.8795 O   0  0  0  0  0  0  0  0  0  0  0  0
   10.9144  -21.5431   21.2111 N   0  0  0  0  0  0  0  0  0  0  0  0
    9.7653  -20.8322   21.6352 C   0  0  0  0  0  0  0  0  0  0  0  0
    8.8722  -21.3756   22.3005 O   0  0  0  0  0  0  0  0  0  0  0  0
    9.6293  -19.3990   21.2723 C   0  0  0  0  0  0  0  0  0  0  0  0
    9.9300  -18.4994   22.4564 C   0  0  0  0  0  0  0  0  0  0  0  0
   10.1362  -17.0829   22.1067 C   0  0  2  0  0  0  0  0  0  0  0  0
   11.2304  -16.7486   21.2882 N   0  0  0  0  0  0  0  0  0  0  0  0
   10.1116  -16.2828   23.3706 C   0  0  0  0  0  0  0  0  0  0  0  0
   11.1828  -16.0014   23.9899 O   0  0  0  0  0  0  0  0  0  0  0  0
    6.3710  -10.6986   26.4726 C   0  0  0  0  0  0  0  0  0  0  0  0
    6.0250  -12.4776   26.4737 S   0  0  0  0  0  0  0  0  0  0  0  0
    7.5584  -13.4429   26.5590 C   0  0  0  0  0  0  0  0  0  0  0  0
    7.6605  -14.2684   25.3050 C   0  0  0  0  0  0  0  0  0  0  0  0
    8.9491  -15.0585   25.2141 C   0  0  2  0  0  0  0  0  0  0  0  0
    8.9130  -15.7899   23.9578 N   0  0  0  0  0  0  0  0  0  0  0  0
    8.8961  -16.0343   26.3644 C   0  0  0  0  0  0  0  0  0  0  0  0
    8.5672  -17.2365   26.2010 O   0  0  0  0  0  0  0  0  0  0  0  0
    9.2126  -15.6297   27.6534 O   0  0  0  0  0  0  0  0  0  0  0  0
  2  1  1  6
  2  3  1  0
  4  3  1  0
  4  8  1  0
  5  4  2  0
  6  2  1  0
  7  6  2  0
  9 10  1  0
 10 12  1  0
 11 10  2  0
 12 13  1  0
 14 13  1  1
 14 15  1  0
 15  6  1  0
 16 23  1  0
 16 14  1  0
 17 16  2  0
 18 19  1  0
 19 20  1  0
 21 20  1  0
 22 21  1  6
 22 23  1  0
 24 22  1  0
 24 26  1  0
 25 24  2  0
M  END
$$$$
