DQM.pdb
     RDKit          3D

 26 25  0  0  1  0  0  0  0  0999 V2000
    7.5426  -18.7079   18.6877 N   0  0  0  0  0  0  0  0  0  0  0  0
    8.5515  -18.4952   19.6823 C   0  0  1  0  0  0  0  0  0  0  0  0
    9.5736  -17.5018   19.1573 C   0  0  0  0  0  0  0  0  0  0  0  0
   10.3403  -18.0658   18.0212 C   0  0  0  0  0  0  0  0  0  0  0  0
   10.8026  -19.2322   17.9828 O   0  0  0  0  0  0  0  0  0  0  0  0
    8.0386  -18.1099   20.9975 C   0  0  0  0  0  0  0  0  0  0  0  0
    7.2789  -17.1209   21.0860 O   0  0  0  0  0  0  0  0  0  0  0  0
   10.5657  -17.2547   16.9227 O   0  0  0  0  0  0  0  0  0  0  0  0
    7.9267  -21.4735   26.4407 N   0  0  0  0  0  0  0  0  0  0  0  0
    7.3786  -20.2323   26.8469 C   0  0  0  0  0  0  0  0  0  0  0  0
    6.9685  -20.0483   28.0016 O   0  0  0  0  0  0  0  0  0  0  0  0
    7.2944  -19.1245   25.8620 C   0  0  0  0  0  0  0  0  0  0  0  0
    7.8678  -19.5360   24.5190 C   0  0  0  0  0  0  0  0  0  0  0  0
    7.8140  -18.4851   23.4874 C   0  0  2  0  0  0  0  0  0  0  0  0
    8.3322  -18.7732   22.2117 N   0  0  0  0  0  0  0  0  0  0  0  0
    8.3986  -17.2351   24.0650 C   0  0  0  0  0  0  0  0  0  0  0  0
    9.6505  -17.0285   24.0501 O   0  0  0  0  0  0  0  0  0  0  0  0
    6.6149  -10.0848   27.0847 C   0  0  0  0  0  0  0  0  0  0  0  0
    6.1356  -11.7495   26.5518 S   0  0  0  0  0  0  0  0  0  0  0  0
    7.5811  -12.7094   26.0233 C   0  0  0  0  0  0  0  0  0  0  0  0
    7.1029  -14.0634   25.5733 C   0  0  0  0  0  0  0  0  0  0  0  0
    8.2209  -14.9566   25.0780 C   0  0  2  0  0  0  0  0  0  0  0  0
    7.6122  -16.2094   24.6599 N   0  0  0  0  0  0  0  0  0  0  0  0
    9.0947  -15.2014   26.2841 C   0  0  0  0  0  0  0  0  0  0  0  0
    8.9765  -16.2337   26.9915 O   0  0  0  0  0  0  0  0  0  0  0  0
   10.0674  -14.2834   26.6537 O   0  0  0  0  0  0  0  0  0  0  0  0
  2  1  1  6
  2  3  1  0
  4  3  1  0
  4  8  1  0
  5  4  2  0
  6  2  1  0
  7  6  2  0
  9 10  1  0
 10 12  1  0
 11 10  2  0
 12 13  1  0
 14 13  1  1
 14 15  1  0
 15  6  1  0
 16 23  1  0
 16 14  1  0
 17 16  2  0
 18 19  1  0
 19 20  1  0
 21 20  1  0
 22 21  1  1
 22 23  1  0
 24 22  1  0
 24 26  1  0
 25 24  2  0
M  END
$$$$
