DQM.pdb
     RDKit          3D

 26 25  0  0  1  0  0  0  0  0999 V2000
   10.6812  -17.0138   19.2664 N   0  0  0  0  0  0  0  0  0  0  0  0
   11.2947  -16.8685   20.5528 C   0  0  1  0  0  0  0  0  0  0  0  0
   12.5179  -15.9765   20.4287 C   0  0  0  0  0  0  0  0  0  0  0  0
   13.5498  -16.5930   19.5617 C   0  0  0  0  0  0  0  0  0  0  0  0
   14.0060  -16.0707   18.5154 O   0  0  0  0  0  0  0  0  0  0  0  0
   10.3912  -16.4151   21.6108 C   0  0  0  0  0  0  0  0  0  0  0  0
   10.0156  -15.2228   21.6175 O   0  0  0  0  0  0  0  0  0  0  0  0
   14.0496  -17.8311   19.9258 O   0  0  0  0  0  0  0  0  0  0  0  0
    5.4190  -19.4539   23.7330 N   0  0  0  0  0  0  0  0  0  0  0  0
    6.7493  -19.9258   23.8496 C   0  0  0  0  0  0  0  0  0  0  0  0
    7.0093  -21.0167   24.3768 O   0  0  0  0  0  0  0  0  0  0  0  0
    7.8593  -19.0903   23.3260 C   0  0  0  0  0  0  0  0  0  0  0  0
    7.7346  -17.6522   23.7931 C   0  0  0  0  0  0  0  0  0  0  0  0
    8.9681  -16.8584   23.6526 C   0  0  2  0  0  0  0  0  0  0  0  0
    9.8900  -17.2260   22.6557 N   0  0  0  0  0  0  0  0  0  0  0  0
    9.6079  -16.7495   25.0005 C   0  0  0  0  0  0  0  0  0  0  0  0
    9.7793  -17.7736   25.7301 O   0  0  0  0  0  0  0  0  0  0  0  0
    6.1916  -11.1519   26.1176 C   0  0  0  0  0  0  0  0  0  0  0  0
    6.5060  -12.8077   26.7840 S   0  0  0  0  0  0  0  0  0  0  0  0
    8.2080  -13.3368   26.4473 C   0  0  0  0  0  0  0  0  0  0  0  0
    8.4037  -14.6970   27.0605 C   0  0  0  0  0  0  0  0  0  0  0  0
    9.8273  -15.2015   26.9511 C   0  0  2  0  0  0  0  0  0  0  0  0
   10.0609  -15.5182   25.5511 N   0  0  0  0  0  0  0  0  0  0  0  0
    9.8598  -16.4721   27.7651 C   0  0  0  0  0  0  0  0  0  0  0  0
    9.8742  -16.4556   29.0219 O   0  0  0  0  0  0  0  0  0  0  0  0
    9.8748  -17.7127   27.1438 O   0  0  0  0  0  0  0  0  0  0  0  0
  2  1  1  6
  2  3  1  0
  4  3  1  0
  4  8  1  0
  5  4  2  0
  6  2  1  0
  7  6  2  0
  9 10  1  0
 10 12  1  0
 11 10  2  0
 12 13  1  0
 14 13  1  1
 14 15  1  0
 15  6  1  0
 16 23  1  0
 16 14  1  0
 17 16  2  0
 18 19  1  0
 19 20  1  0
 21 20  1  0
 22 21  1  6
 22 23  1  0
 24 22  1  0
 24 26  1  0
 25 24  2  0
M  END
$$$$
