DQM.pdb
     RDKit          3D

 26 25  0  0  1  0  0  0  0  0999 V2000
   10.1914  -18.6033   19.1807 N   0  0  0  0  0  0  0  0  0  0  0  0
    9.1553  -18.1292   20.0493 C   0  0  1  0  0  0  0  0  0  0  0  0
    9.0245  -19.0689   21.2355 C   0  0  0  0  0  0  0  0  0  0  0  0
    8.5799  -20.4171   20.8098 C   0  0  0  0  0  0  0  0  0  0  0  0
    9.3333  -21.2947   20.3219 O   0  0  0  0  0  0  0  0  0  0  0  0
    9.3024  -16.7351   20.4684 C   0  0  0  0  0  0  0  0  0  0  0  0
   10.4082  -16.3461   20.9029 O   0  0  0  0  0  0  0  0  0  0  0  0
    7.2417  -20.7371   20.9580 O   0  0  0  0  0  0  0  0  0  0  0  0
    7.3060  -14.6282   17.7710 N   0  0  0  0  0  0  0  0  0  0  0  0
    7.9788  -13.4269   18.1027 C   0  0  0  0  0  0  0  0  0  0  0  0
    8.9542  -13.0258   17.4522 O   0  0  0  0  0  0  0  0  0  0  0  0
    7.5012  -12.6291   19.2602 C   0  0  0  0  0  0  0  0  0  0  0  0
    7.2543  -13.5085   20.4717 C   0  0  0  0  0  0  0  0  0  0  0  0
    8.3714  -14.4092   20.8067 C   0  0  2  0  0  0  0  0  0  0  0  0
    8.2787  -15.7601   20.4253 N   0  0  0  0  0  0  0  0  0  0  0  0
    8.6744  -14.2534   22.2634 C   0  0  0  0  0  0  0  0  0  0  0  0
    9.1314  -13.1636   22.7256 O   0  0  0  0  0  0  0  0  0  0  0  0
    6.8809  -11.4365   28.1979 C   0  0  0  0  0  0  0  0  0  0  0  0
    6.8819  -11.9974   26.4745 S   0  0  0  0  0  0  0  0  0  0  0  0
    7.0924  -13.7961   26.3713 C   0  0  0  0  0  0  0  0  0  0  0  0
    7.2412  -14.1659   24.9203 C   0  0  0  0  0  0  0  0  0  0  0  0
    8.4737  -15.0002   24.6407 C   0  0  2  0  0  0  0  0  0  0  0  0
    8.4769  -15.2917   23.2160 N   0  0  0  0  0  0  0  0  0  0  0  0
    8.2682  -16.2799   25.4142 C   0  0  0  0  0  0  0  0  0  0  0  0
    8.0130  -17.3690   24.8407 O   0  0  0  0  0  0  0  0  0  0  0  0
    8.3559  -16.2940   26.7988 O   0  0  0  0  0  0  0  0  0  0  0  0
  2  1  1  1
  2  3  1  0
  4  3  1  0
  4  8  1  0
  5  4  2  0
  6  2  1  0
  7  6  2  0
  9 10  1  0
 10 12  1  0
 11 10  2  0
 12 13  1  0
 14 13  1  1
 14 15  1  0
 15  6  1  0
 16 23  1  0
 16 14  1  0
 17 16  2  0
 18 19  1  0
 19 20  1  0
 21 20  1  0
 22 21  1  6
 22 23  1  0
 24 22  1  0
 24 26  1  0
 25 24  2  0
M  END
$$$$
