DQM.pdb
     RDKit          3D

 26 25  0  0  1  0  0  0  0  0999 V2000
    7.8141  -18.3291   17.9656 N   0  0  0  0  0  0  0  0  0  0  0  0
    8.5812  -17.7758   19.0416 C   0  0  1  0  0  0  0  0  0  0  0  0
    9.4088  -16.6125   18.5228 C   0  0  0  0  0  0  0  0  0  0  0  0
   10.4511  -17.0720   17.5745 C   0  0  0  0  0  0  0  0  0  0  0  0
   10.6380  -18.2691   17.2465 O   0  0  0  0  0  0  0  0  0  0  0  0
    7.7982  -17.4078   20.2216 C   0  0  0  0  0  0  0  0  0  0  0  0
    7.3022  -16.2620   20.2869 O   0  0  0  0  0  0  0  0  0  0  0  0
   11.2794  -16.1193   17.0075 O   0  0  0  0  0  0  0  0  0  0  0  0
    3.3564  -18.3437   22.8585 N   0  0  0  0  0  0  0  0  0  0  0  0
    3.7696  -19.3807   21.9868 C   0  0  0  0  0  0  0  0  0  0  0  0
    2.9986  -19.8760   21.1527 O   0  0  0  0  0  0  0  0  0  0  0  0
    5.1629  -19.8857   22.0764 C   0  0  0  0  0  0  0  0  0  0  0  0
    5.9818  -19.0724   23.0612 C   0  0  0  0  0  0  0  0  0  0  0  0
    6.7483  -17.9716   22.4511 C   0  0  2  0  0  0  0  0  0  0  0  0
    7.5440  -18.2541   21.3259 N   0  0  0  0  0  0  0  0  0  0  0  0
    7.5230  -17.2880   23.5330 C   0  0  0  0  0  0  0  0  0  0  0  0
    8.7403  -17.5738   23.7492 O   0  0  0  0  0  0  0  0  0  0  0  0
    7.0279  -11.1707   25.5033 C   0  0  0  0  0  0  0  0  0  0  0  0
    6.9410  -12.0251   27.0993 S   0  0  0  0  0  0  0  0  0  0  0  0
    7.6598  -13.6871   26.9923 C   0  0  0  0  0  0  0  0  0  0  0  0
    6.9998  -14.4081   25.8482 C   0  0  0  0  0  0  0  0  0  0  0  0
    7.7899  -15.6049   25.3620 C   0  0  2  0  0  0  0  0  0  0  0  0
    6.9649  -16.2900   24.3798 N   0  0  0  0  0  0  0  0  0  0  0  0
    7.9601  -16.4856   26.5760 C   0  0  0  0  0  0  0  0  0  0  0  0
    7.2007  -17.4618   26.8002 O   0  0  0  0  0  0  0  0  0  0  0  0
    8.9725  -16.2419   27.4931 O   0  0  0  0  0  0  0  0  0  0  0  0
  2  1  1  6
  2  3  1  0
  4  3  1  0
  4  8  1  0
  5  4  2  0
  6  2  1  0
  7  6  2  0
  9 10  1  0
 10 12  1  0
 11 10  2  0
 12 13  1  0
 14 13  1  1
 14 15  1  0
 15  6  1  0
 16 23  1  0
 16 14  1  0
 17 16  2  0
 18 19  1  0
 19 20  1  0
 21 20  1  0
 22 21  1  1
 22 23  1  0
 24 22  1  0
 24 26  1  0
 25 24  2  0
M  END
$$$$
