DQM.pdb
     RDKit          3D

 26 25  0  0  1  0  0  0  0  0999 V2000
    9.7585  -12.8275   18.5030 N   0  0  0  0  0  0  0  0  0  0  0  0
    8.3862  -13.1891   18.6989 C   0  0  1  0  0  0  0  0  0  0  0  0
    7.7520  -13.5028   17.3548 C   0  0  0  0  0  0  0  0  0  0  0  0
    8.4844  -14.5821   16.6510 C   0  0  0  0  0  0  0  0  0  0  0  0
    8.1654  -15.0451   15.5287 O   0  0  0  0  0  0  0  0  0  0  0  0
    8.1718  -14.2629   19.6696 C   0  0  0  0  0  0  0  0  0  0  0  0
    7.0019  -14.6089   19.9424 O   0  0  0  0  0  0  0  0  0  0  0  0
    9.5990  -15.1213   17.2691 O   0  0  0  0  0  0  0  0  0  0  0  0
   10.8160  -19.6637   18.7981 N   0  0  0  0  0  0  0  0  0  0  0  0
   10.2043  -19.3259   20.0300 C   0  0  0  0  0  0  0  0  0  0  0  0
   10.3541  -20.0223   21.0439 O   0  0  0  0  0  0  0  0  0  0  0  0
    9.3623  -18.1054   20.1062 C   0  0  0  0  0  0  0  0  0  0  0  0
    9.8166  -17.1913   21.2287 C   0  0  0  0  0  0  0  0  0  0  0  0
    9.0436  -15.9423   21.3460 C   0  0  2  0  0  0  0  0  0  0  0  0
    9.1967  -14.9647   20.3461 N   0  0  0  0  0  0  0  0  0  0  0  0
    9.2627  -15.3861   22.7174 C   0  0  0  0  0  0  0  0  0  0  0  0
   10.3510  -14.8113   23.0261 O   0  0  0  0  0  0  0  0  0  0  0  0
    6.1894  -10.9007   28.1297 C   0  0  0  0  0  0  0  0  0  0  0  0
    6.0800  -11.9397   26.6487 S   0  0  0  0  0  0  0  0  0  0  0  0
    7.4694  -13.1025   26.5604 C   0  0  0  0  0  0  0  0  0  0  0  0
    7.3837  -13.8332   25.2478 C   0  0  0  0  0  0  0  0  0  0  0  0
    8.5199  -14.8110   25.0340 C   0  0  2  0  0  0  0  0  0  0  0  0
    8.2894  -15.4589   23.7527 N   0  0  0  0  0  0  0  0  0  0  0  0
    8.3808  -15.8266   26.1419 C   0  0  0  0  0  0  0  0  0  0  0  0
    7.8603  -16.9542   25.9479 O   0  0  0  0  0  0  0  0  0  0  0  0
    8.8286  -15.5436   27.4243 O   0  0  0  0  0  0  0  0  0  0  0  0
  2  1  1  6
  2  3  1  0
  4  3  1  0
  4  8  1  0
  5  4  2  0
  6  2  1  0
  7  6  2  0
  9 10  1  0
 10 12  1  0
 11 10  2  0
 12 13  1  0
 14 13  1  6
 14 15  1  0
 15  6  1  0
 16 23  1  0
 16 14  1  0
 17 16  2  0
 18 19  1  0
 19 20  1  0
 21 20  1  0
 22 21  1  1
 22 23  1  0
 24 22  1  0
 24 26  1  0
 25 24  2  0
M  END
$$$$
