DQM.pdb
     RDKit          3D

 26 25  0  0  1  0  0  0  0  0999 V2000
    8.0361  -18.2919   19.0020 N   0  0  0  0  0  0  0  0  0  0  0  0
    9.3225  -18.3119   19.6324 C   0  0  1  0  0  0  0  0  0  0  0  0
   10.3303  -18.9588   18.6981 C   0  0  0  0  0  0  0  0  0  0  0  0
   11.3805  -19.6816   19.4538 C   0  0  0  0  0  0  0  0  0  0  0  0
   11.9001  -19.2722   20.5207 O   0  0  0  0  0  0  0  0  0  0  0  0
    9.7827  -17.0108   20.1186 C   0  0  0  0  0  0  0  0  0  0  0  0
   10.5014  -16.3061   19.3770 O   0  0  0  0  0  0  0  0  0  0  0  0
   11.8238  -20.8935   18.9535 O   0  0  0  0  0  0  0  0  0  0  0  0
    8.4723  -12.0267   19.3224 N   0  0  0  0  0  0  0  0  0  0  0  0
    7.9537  -13.3058   19.0052 C   0  0  0  0  0  0  0  0  0  0  0  0
    7.2213  -13.4859   18.0220 O   0  0  0  0  0  0  0  0  0  0  0  0
    8.2978  -14.4592   19.8744 C   0  0  0  0  0  0  0  0  0  0  0  0
    9.1771  -14.0322   21.0346 C   0  0  0  0  0  0  0  0  0  0  0  0
    9.7223  -15.1485   21.8272 C   0  0  2  0  0  0  0  0  0  0  0  0
    9.4799  -16.4623   21.3867 N   0  0  0  0  0  0  0  0  0  0  0  0
    9.3185  -14.9478   23.2536 C   0  0  0  0  0  0  0  0  0  0  0  0
    9.2320  -13.7847   23.7536 O   0  0  0  0  0  0  0  0  0  0  0  0
    6.3781  -11.2134   26.5873 C   0  0  0  0  0  0  0  0  0  0  0  0
    6.4924  -13.0188   26.6988 S   0  0  0  0  0  0  0  0  0  0  0  0
    7.0114  -13.7410   25.1179 C   0  0  0  0  0  0  0  0  0  0  0  0
    7.0701  -15.2354   25.2845 C   0  0  0  0  0  0  0  0  0  0  0  0
    8.4789  -15.7609   25.4634 C   0  0  2  0  0  0  0  0  0  0  0  0
    9.0086  -16.0215   24.1344 N   0  0  0  0  0  0  0  0  0  0  0  0
    8.3225  -17.0657   26.2058 C   0  0  0  0  0  0  0  0  0  0  0  0
    8.1341  -18.1535   25.6047 O   0  0  0  0  0  0  0  0  0  0  0  0
    8.3828  -17.1055   27.5914 O   0  0  0  0  0  0  0  0  0  0  0  0
  2  1  1  6
  2  3  1  0
  4  3  1  0
  4  8  1  0
  5  4  2  0
  6  2  1  0
  7  6  2  0
  9 10  1  0
 10 12  1  0
 11 10  2  0
 12 13  1  0
 14 13  1  6
 14 15  1  0
 15  6  1  0
 16 23  1  0
 16 14  1  0
 17 16  2  0
 18 19  1  0
 19 20  1  0
 21 20  1  0
 22 21  1  6
 22 23  1  0
 24 22  1  0
 24 26  1  0
 25 24  2  0
M  END
$$$$
