DQM.pdb
     RDKit          3D

 26 25  0  0  1  0  0  0  0  0999 V2000
    7.5142  -18.1781   19.1144 N   0  0  0  0  0  0  0  0  0  0  0  0
    7.3127  -17.8689   20.4987 C   0  0  1  0  0  0  0  0  0  0  0  0
    6.5177  -18.9858   21.1528 C   0  0  0  0  0  0  0  0  0  0  0  0
    5.4498  -19.4857   20.2550 C   0  0  0  0  0  0  0  0  0  0  0  0
    5.5478  -19.5640   19.0060 O   0  0  0  0  0  0  0  0  0  0  0  0
    8.5371  -17.5620   21.2387 C   0  0  0  0  0  0  0  0  0  0  0  0
    9.0266  -18.4339   21.9891 O   0  0  0  0  0  0  0  0  0  0  0  0
    4.2587  -19.8964   20.8275 O   0  0  0  0  0  0  0  0  0  0  0  0
   13.3603  -13.8174   19.7520 N   0  0  0  0  0  0  0  0  0  0  0  0
   13.1303  -15.1344   19.2847 C   0  0  0  0  0  0  0  0  0  0  0  0
   13.7274  -15.5890   18.2986 O   0  0  0  0  0  0  0  0  0  0  0  0
   12.1482  -15.9908   19.9963 C   0  0  0  0  0  0  0  0  0  0  0  0
   11.4464  -15.2236   21.1012 C   0  0  0  0  0  0  0  0  0  0  0  0
   10.4368  -16.0050   21.8371 C   0  0  2  0  0  0  0  0  0  0  0  0
    9.2370  -16.3343   21.1804 N   0  0  0  0  0  0  0  0  0  0  0  0
   10.1948  -15.3328   23.1514 C   0  0  0  0  0  0  0  0  0  0  0  0
   10.1747  -14.0676   23.2474 O   0  0  0  0  0  0  0  0  0  0  0  0
    6.0889  -12.2646   27.5444 C   0  0  0  0  0  0  0  0  0  0  0  0
    7.0754  -12.9774   26.2015 S   0  0  0  0  0  0  0  0  0  0  0  0
    6.9391  -14.7860   26.1775 C   0  0  0  0  0  0  0  0  0  0  0  0
    7.8189  -15.3056   25.0728 C   0  0  0  0  0  0  0  0  0  0  0  0
    9.2744  -15.4215   25.4740 C   0  0  2  0  0  0  0  0  0  0  0  0
    9.9745  -16.0459   24.3628 N   0  0  0  0  0  0  0  0  0  0  0  0
    9.2841  -16.3542   26.6606 C   0  0  0  0  0  0  0  0  0  0  0  0
    9.3884  -17.5996   26.5258 O   0  0  0  0  0  0  0  0  0  0  0  0
    9.1769  -15.8598   27.9527 O   0  0  0  0  0  0  0  0  0  0  0  0
  2  1  1  6
  2  3  1  0
  4  3  1  0
  4  8  1  0
  5  4  2  0
  6  2  1  0
  7  6  2  0
  9 10  1  0
 10 12  1  0
 11 10  2  0
 12 13  1  0
 14 13  1  6
 14 15  1  0
 15  6  1  0
 16 23  1  0
 16 14  1  0
 17 16  2  0
 18 19  1  0
 19 20  1  0
 21 20  1  0
 22 21  1  6
 22 23  1  0
 24 22  1  0
 24 26  1  0
 25 24  2  0
M  END
$$$$
