DQM.pdb
     RDKit          3D

 26 25  0  0  1  0  0  0  0  0999 V2000
    8.6582  -18.4593   20.0461 N   0  0  0  0  0  0  0  0  0  0  0  0
    9.9909  -17.9617   19.8770 C   0  0  1  0  0  0  0  0  0  0  0  0
   10.3307  -17.9272   18.3969 C   0  0  0  0  0  0  0  0  0  0  0  0
   10.5879  -19.2884   17.8702 C   0  0  0  0  0  0  0  0  0  0  0  0
   10.4993  -20.3425   18.5461 O   0  0  0  0  0  0  0  0  0  0  0  0
   10.2486  -16.6770   20.5283 C   0  0  0  0  0  0  0  0  0  0  0  0
   11.4250  -16.3700   20.8194 O   0  0  0  0  0  0  0  0  0  0  0  0
   10.9515  -19.4130   16.5407 O   0  0  0  0  0  0  0  0  0  0  0  0
    8.1105  -12.3847   18.2589 N   0  0  0  0  0  0  0  0  0  0  0  0
    7.4447  -13.5384   18.7400 C   0  0  0  0  0  0  0  0  0  0  0  0
    6.9305  -14.3621   17.9701 O   0  0  0  0  0  0  0  0  0  0  0  0
    7.3619  -13.7648   20.2050 C   0  0  0  0  0  0  0  0  0  0  0  0
    8.6369  -13.3300   20.9030 C   0  0  0  0  0  0  0  0  0  0  0  0
    9.4627  -14.4411   21.4080 C   0  0  2  0  0  0  0  0  0  0  0  0
    9.2601  -15.7240   20.8678 N   0  0  0  0  0  0  0  0  0  0  0  0
    9.3835  -14.4386   22.9019 C   0  0  0  0  0  0  0  0  0  0  0  0
    9.6665  -13.3990   23.5722 O   0  0  0  0  0  0  0  0  0  0  0  0
    6.9293  -11.6652   27.1275 C   0  0  0  0  0  0  0  0  0  0  0  0
    8.3414  -12.6703   27.6574 S   0  0  0  0  0  0  0  0  0  0  0  0
    8.1542  -14.3944   27.1258 C   0  0  0  0  0  0  0  0  0  0  0  0
    8.2539  -14.4332   25.6248 C   0  0  0  0  0  0  0  0  0  0  0  0
    9.1106  -15.5722   25.1131 C   0  0  2  0  0  0  0  0  0  0  0  0
    8.9940  -15.5755   23.6636 N   0  0  0  0  0  0  0  0  0  0  0  0
    8.4774  -16.8240   25.6702 C   0  0  0  0  0  0  0  0  0  0  0  0
    8.4059  -17.0384   26.9067 O   0  0  0  0  0  0  0  0  0  0  0  0
    7.9481  -17.7883   24.8245 O   0  0  0  0  0  0  0  0  0  0  0  0
  2  1  1  6
  2  3  1  0
  4  3  1  0
  4  8  1  0
  5  4  2  0
  6  2  1  0
  7  6  2  0
  9 10  1  0
 10 12  1  0
 11 10  2  0
 12 13  1  0
 14 13  1  6
 14 15  1  0
 15  6  1  0
 16 23  1  0
 16 14  1  0
 17 16  2  0
 18 19  1  0
 19 20  1  0
 21 20  1  0
 22 21  1  1
 22 23  1  0
 24 22  1  0
 24 26  1  0
 25 24  2  0
M  END
$$$$
