DQM.pdb
     RDKit          3D

 26 25  0  0  1  0  0  0  0  0999 V2000
   10.0730  -19.4266   19.9165 N   0  0  0  0  0  0  0  0  0  0  0  0
   10.4675  -18.3901   20.8234 C   0  0  1  0  0  0  0  0  0  0  0  0
   10.8638  -17.1548   20.0334 C   0  0  0  0  0  0  0  0  0  0  0  0
   12.1506  -17.3560   19.3262 C   0  0  0  0  0  0  0  0  0  0  0  0
   12.3362  -17.1278   18.1058 O   0  0  0  0  0  0  0  0  0  0  0  0
    9.4844  -18.0836   21.8629 C   0  0  0  0  0  0  0  0  0  0  0  0
    8.4582  -17.4392   21.5556 O   0  0  0  0  0  0  0  0  0  0  0  0
   13.2268  -17.8285   20.0568 O   0  0  0  0  0  0  0  0  0  0  0  0
    6.3611  -21.6855   25.3036 N   0  0  0  0  0  0  0  0  0  0  0  0
    6.8000  -21.6461   23.9577 C   0  0  0  0  0  0  0  0  0  0  0  0
    6.5174  -22.5461   23.1540 O   0  0  0  0  0  0  0  0  0  0  0  0
    7.6197  -20.4959   23.4999 C   0  0  0  0  0  0  0  0  0  0  0  0
    7.8219  -19.4853   24.6132 C   0  0  0  0  0  0  0  0  0  0  0  0
    8.6217  -18.3090   24.2284 C   0  0  2  0  0  0  0  0  0  0  0  0
    9.5926  -18.4607   23.2218 N   0  0  0  0  0  0  0  0  0  0  0  0
    9.1892  -17.7042   25.4735 C   0  0  0  0  0  0  0  0  0  0  0  0
    9.0858  -18.2908   26.5939 O   0  0  0  0  0  0  0  0  0  0  0  0
    8.9919  -11.4660   27.3508 C   0  0  0  0  0  0  0  0  0  0  0  0
    7.7161  -12.4426   26.5122 S   0  0  0  0  0  0  0  0  0  0  0  0
    7.5530  -14.0871   27.2603 C   0  0  0  0  0  0  0  0  0  0  0  0
    8.0676  -15.1011   26.2747 C   0  0  0  0  0  0  0  0  0  0  0  0
    9.5299  -15.4394   26.4754 C   0  0  2  0  0  0  0  0  0  0  0  0
    9.8711  -16.4555   25.4927 N   0  0  0  0  0  0  0  0  0  0  0  0
    9.6114  -16.0336   27.8605 C   0  0  0  0  0  0  0  0  0  0  0  0
    9.1240  -17.1607   28.1295 O   0  0  0  0  0  0  0  0  0  0  0  0
   10.2343  -15.3460   28.8921 O   0  0  0  0  0  0  0  0  0  0  0  0
  2  1  1  6
  2  3  1  0
  4  3  1  0
  4  8  1  0
  5  4  2  0
  6  2  1  0
  7  6  2  0
  9 10  1  0
 10 12  1  0
 11 10  2  0
 12 13  1  0
 14 13  1  1
 14 15  1  0
 15  6  1  0
 16 23  1  0
 16 14  1  0
 17 16  2  0
 18 19  1  0
 19 20  1  0
 21 20  1  0
 22 21  1  6
 22 23  1  0
 24 22  1  0
 24 26  1  0
 25 24  2  0
M  END
$$$$
