QSY.pdb
     RDKit          3D

 28 28  0  0  1  0  0  0  0  0999 V2000
    5.9809  -18.7105   25.2831 N   0  0  0  0  0  0  0  0  0  0  0  0
    6.2983  -19.6767   24.3019 C   0  0  0  0  0  0  0  0  0  0  0  0
    7.1988  -20.5326   24.4397 O   0  0  0  0  0  0  0  0  0  0  0  0
    5.5089  -19.6676   23.0323 C   0  0  0  0  0  0  0  0  0  0  0  0
    5.2233  -18.2488   22.6630 C   0  0  0  0  0  0  0  0  0  0  0  0
    5.8261  -17.9362   21.2948 C   0  0  2  0  0  0  0  0  0  0  0  0
    5.8192  -19.2566   20.6131 N   0  0  0  0  0  0  0  0  0  0  0  0
    7.2212  -17.5042   21.3631 C   0  0  0  0  0  0  0  0  0  0  0  0
    7.9664  -17.6452   20.3446 O   0  0  0  0  0  0  0  0  0  0  0  0
    7.4144  -14.1251   22.1188 O   0  0  0  0  0  0  0  0  0  0  0  0
    8.4025  -14.8395   21.4451 C   0  0  0  0  0  0  0  0  0  0  0  0
    8.9449  -15.9655   22.3256 C   0  0  2  0  0  0  0  0  0  0  0  0
    7.8620  -16.9128   22.4972 N   0  0  0  0  0  0  0  0  0  0  0  0
    9.5363  -15.4580   23.5540 C   0  0  0  0  0  0  0  0  0  0  0  0
    9.4330  -14.2096   23.7658 O   0  0  0  0  0  0  0  0  0  0  0  0
    5.5500  -11.4188   26.0307 O   0  0  0  0  0  0  0  0  0  0  0  0
    6.2500  -12.6170   26.0805 C   0  0  0  0  0  0  0  0  0  0  0  0
    5.7361  -13.7877   25.5704 C   0  0  0  0  0  0  0  0  0  0  0  0
    6.4754  -14.9525   25.6462 C   0  0  0  0  0  0  0  0  0  0  0  0
    7.7301  -15.0250   26.2151 C   0  0  0  0  0  0  0  0  0  0  0  0
    8.5431  -16.2511   26.3236 C   0  0  0  0  0  0  0  0  0  0  0  0
    9.9631  -15.9689   25.9867 C   0  0  2  0  0  0  0  0  0  0  0  0
   10.2187  -16.1952   24.5515 N   0  0  0  0  0  0  0  0  0  0  0  0
   10.8666  -16.8522   26.7346 C   0  0  0  0  0  0  0  0  0  0  0  0
   11.5411  -17.7291   26.0974 O   0  0  0  0  0  0  0  0  0  0  0  0
    8.2247  -13.8166   26.7247 C   0  0  0  0  0  0  0  0  0  0  0  0
    7.4990  -12.6479   26.6559 C   0  0  0  0  0  0  0  0  0  0  0  0
   11.0458  -16.8015   28.1036 O   0  0  0  0  0  0  0  0  0  0  0  0
  2  1  1  0
  3  2  2  0
  4  2  1  0
  5  6  1  0
  5  4  1  0
  6  8  1  0
  6  7  1  6
  8  9  2  0
 10 11  1  0
 12 11  1  1
 13 12  1  0
 13  8  1  0
 14 12  1  0
 14 15  2  0
 16 17  1  0
 17 27  2  0
 17 18  1  0
 18 19  2  0
 19 20  1  0
 20 21  1  0
 22 21  1  6
 22 23  1  0
 22 24  1  0
 23 14  1  0
 24 28  1  0
 25 24  2  0
 26 20  2  0
 27 26  1  0
M  END
$$$$
