QSY.pdb
     RDKit          3D

 28 28  0  0  1  0  0  0  0  0999 V2000
    6.9883  -12.7946   20.0362 N   0  0  0  0  0  0  0  0  0  0  0  0
    7.8964  -13.1964   19.0307 C   0  0  0  0  0  0  0  0  0  0  0  0
    8.0773  -12.5627   17.9686 O   0  0  0  0  0  0  0  0  0  0  0  0
    8.6795  -14.4495   19.2578 C   0  0  0  0  0  0  0  0  0  0  0  0
    8.3175  -14.9970   20.5994 C   0  0  0  0  0  0  0  0  0  0  0  0
    9.0506  -16.3155   20.8381 C   0  0  2  0  0  0  0  0  0  0  0  0
    8.2883  -17.2814   20.0049 N   0  0  0  0  0  0  0  0  0  0  0  0
    8.9587  -16.7859   22.2194 C   0  0  0  0  0  0  0  0  0  0  0  0
    7.8241  -17.1004   22.6950 O   0  0  0  0  0  0  0  0  0  0  0  0
   11.8124  -18.7219   24.2175 O   0  0  0  0  0  0  0  0  0  0  0  0
   10.4729  -18.7744   24.5965 C   0  0  0  0  0  0  0  0  0  0  0  0
    9.8298  -17.3918   24.4864 C   0  0  2  0  0  0  0  0  0  0  0  0
   10.0531  -16.9401   23.1278 N   0  0  0  0  0  0  0  0  0  0  0  0
   10.2930  -16.4922   25.5317 C   0  0  0  0  0  0  0  0  0  0  0  0
   11.3596  -15.8432   25.2971 O   0  0  0  0  0  0  0  0  0  0  0  0
    6.3355  -11.6642   24.5152 O   0  0  0  0  0  0  0  0  0  0  0  0
    7.1026  -12.3274   25.4638 C   0  0  0  0  0  0  0  0  0  0  0  0
    8.4307  -12.0301   25.6703 C   0  0  0  0  0  0  0  0  0  0  0  0
    9.1481  -12.7212   26.6278 C   0  0  0  0  0  0  0  0  0  0  0  0
    8.6090  -13.7183   27.4141 C   0  0  0  0  0  0  0  0  0  0  0  0
    9.3459  -14.4841   28.4371 C   0  0  0  0  0  0  0  0  0  0  0  0
   10.3375  -15.3895   27.7996 C   0  0  2  0  0  0  0  0  0  0  0  0
    9.6918  -16.2502   26.7903 N   0  0  0  0  0  0  0  0  0  0  0  0
   10.9573  -16.2743   28.7941 C   0  0  0  0  0  0  0  0  0  0  0  0
   11.6314  -15.7568   29.7468 O   0  0  0  0  0  0  0  0  0  0  0  0
    7.2554  -13.9966   27.1795 C   0  0  0  0  0  0  0  0  0  0  0  0
    6.5279  -13.3158   26.2285 C   0  0  0  0  0  0  0  0  0  0  0  0
   10.8605  -17.6523   28.7757 O   0  0  0  0  0  0  0  0  0  0  0  0
  2  1  1  0
  3  2  2  0
  4  2  1  0
  5  6  1  0
  5  4  1  0
  6  8  1  0
  6  7  1  6
  8  9  2  0
 10 11  1  0
 12 11  1  6
 13 12  1  0
 13  8  1  0
 14 12  1  0
 14 15  2  0
 16 17  1  0
 17 27  2  0
 17 18  1  0
 18 19  2  0
 19 20  1  0
 20 21  1  0
 22 21  1  1
 22 23  1  0
 22 24  1  0
 23 14  1  0
 24 28  1  0
 25 24  2  0
 26 20  2  0
 27 26  1  0
M  END
$$$$
