QSY.pdb
     RDKit          3D

 28 28  0  0  1  0  0  0  0  0999 V2000
    6.8024  -16.2682   14.8168 N   0  0  0  0  0  0  0  0  0  0  0  0
    6.9494  -14.9722   15.3606 C   0  0  0  0  0  0  0  0  0  0  0  0
    6.3202  -13.9737   14.9488 O   0  0  0  0  0  0  0  0  0  0  0  0
    7.9125  -14.7944   16.4902 C   0  0  0  0  0  0  0  0  0  0  0  0
    7.7440  -13.4172   17.0431 C   0  0  0  0  0  0  0  0  0  0  0  0
    8.7101  -13.2021   18.2065 C   0  0  2  0  0  0  0  0  0  0  0  0
   10.0235  -13.5926   17.6314 N   0  0  0  0  0  0  0  0  0  0  0  0
    8.4620  -14.0961   19.3364 C   0  0  0  0  0  0  0  0  0  0  0  0
    7.5362  -13.8162   20.1593 O   0  0  0  0  0  0  0  0  0  0  0  0
   10.6167  -17.6377   20.2878 O   0  0  0  0  0  0  0  0  0  0  0  0
    9.2319  -17.5540   20.4146 C   0  0  0  0  0  0  0  0  0  0  0  0
    8.8104  -16.1255   20.7597 C   0  0  2  0  0  0  0  0  0  0  0  0
    9.1754  -15.3022   19.6245 N   0  0  0  0  0  0  0  0  0  0  0  0
    9.3429  -15.6969   22.0437 C   0  0  0  0  0  0  0  0  0  0  0  0
   10.4114  -15.0099   22.0197 O   0  0  0  0  0  0  0  0  0  0  0  0
   11.1557  -14.3603   30.5955 O   0  0  0  0  0  0  0  0  0  0  0  0
   10.5124  -14.5815   29.3850 C   0  0  0  0  0  0  0  0  0  0  0  0
   10.1366  -15.8404   28.9742 C   0  0  0  0  0  0  0  0  0  0  0  0
    9.4988  -16.0044   27.7595 C   0  0  0  0  0  0  0  0  0  0  0  0
    9.2043  -14.9622   26.9048 C   0  0  0  0  0  0  0  0  0  0  0  0
    8.5353  -15.1003   25.5974 C   0  0  0  0  0  0  0  0  0  0  0  0
    9.5065  -15.5233   24.5547 C   0  0  2  0  0  0  0  0  0  0  0  0
    8.8082  -15.9550   23.3289 N   0  0  0  0  0  0  0  0  0  0  0  0
   10.3146  -16.6583   25.0182 C   0  0  0  0  0  0  0  0  0  0  0  0
   11.5100  -16.4456   25.4127 O   0  0  0  0  0  0  0  0  0  0  0  0
    9.5996  -13.6941   27.3521 C   0  0  0  0  0  0  0  0  0  0  0  0
   10.2360  -13.5156   28.5605 C   0  0  0  0  0  0  0  0  0  0  0  0
    9.8668  -17.9645   25.0620 O   0  0  0  0  0  0  0  0  0  0  0  0
  2  1  1  0
  3  2  2  0
  4  2  1  0
  5  6  1  0
  5  4  1  0
  6  8  1  0
  6  7  1  6
  8  9  2  0
 10 11  1  0
 12 11  1  6
 13 12  1  0
 13  8  1  0
 14 12  1  0
 14 15  2  0
 16 17  1  0
 17 27  2  0
 17 18  1  0
 18 19  2  0
 19 20  1  0
 20 21  1  0
 22 21  1  1
 22 23  1  0
 22 24  1  0
 23 14  1  0
 24 28  1  0
 25 24  2  0
 26 20  2  0
 27 26  1  0
M  END
$$$$
