QSY.pdb
     RDKit          3D

 28 28  0  0  1  0  0  0  0  0999 V2000
    9.5182  -12.5667   19.7939 N   0  0  0  0  0  0  0  0  0  0  0  0
   10.5439  -13.2723   19.1253 C   0  0  0  0  0  0  0  0  0  0  0  0
   11.3382  -12.7401   18.3202 O   0  0  0  0  0  0  0  0  0  0  0  0
   10.6793  -14.7353   19.4017 C   0  0  0  0  0  0  0  0  0  0  0  0
    9.8040  -15.0805   20.5617 C   0  0  0  0  0  0  0  0  0  0  0  0
    9.8722  -16.5814   20.8362 C   0  0  2  0  0  0  0  0  0  0  0  0
    8.8655  -17.1424   19.8980 N   0  0  0  0  0  0  0  0  0  0  0  0
    9.4389  -16.9426   22.1850 C   0  0  0  0  0  0  0  0  0  0  0  0
    8.2013  -16.9162   22.4685 O   0  0  0  0  0  0  0  0  0  0  0  0
   11.3835  -19.3535   24.7506 O   0  0  0  0  0  0  0  0  0  0  0  0
   10.0252  -19.0738   24.8827 C   0  0  0  0  0  0  0  0  0  0  0  0
    9.7490  -17.6009   24.5800 C   0  0  2  0  0  0  0  0  0  0  0  0
   10.2920  -17.3421   23.2617 N   0  0  0  0  0  0  0  0  0  0  0  0
   10.2302  -16.7286   25.6400 C   0  0  0  0  0  0  0  0  0  0  0  0
   11.3833  -16.2190   25.4827 O   0  0  0  0  0  0  0  0  0  0  0  0
    6.9076  -11.4251   24.4892 O   0  0  0  0  0  0  0  0  0  0  0  0
    7.4571  -12.2223   25.4846 C   0  0  0  0  0  0  0  0  0  0  0  0
    6.6782  -12.9749   26.3341 C   0  0  0  0  0  0  0  0  0  0  0  0
    7.2769  -13.7512   27.3078 C   0  0  0  0  0  0  0  0  0  0  0  0
    8.6420  -13.8256   27.4927 C   0  0  0  0  0  0  0  0  0  0  0  0
    9.3154  -14.6337   28.5269 C   0  0  0  0  0  0  0  0  0  0  0  0
   10.2408  -15.6157   27.9034 C   0  0  2  0  0  0  0  0  0  0  0  0
    9.5614  -16.3754   26.8367 N   0  0  0  0  0  0  0  0  0  0  0  0
   10.7202  -16.5885   28.8933 C   0  0  0  0  0  0  0  0  0  0  0  0
   10.4421  -17.8239   28.7307 O   0  0  0  0  0  0  0  0  0  0  0  0
    9.4065  -13.0481   26.6120 C   0  0  0  0  0  0  0  0  0  0  0  0
    8.8234  -12.2698   25.6366 C   0  0  0  0  0  0  0  0  0  0  0  0
   11.4668  -16.2590   30.0081 O   0  0  0  0  0  0  0  0  0  0  0  0
  2  1  1  0
  3  2  2  0
  4  2  1  0
  5  6  1  0
  5  4  1  0
  6  8  1  0
  6  7  1  6
  8  9  2  0
 10 11  1  0
 12 11  1  1
 13 12  1  0
 13  8  1  0
 14 12  1  0
 14 15  2  0
 16 17  1  0
 17 27  2  0
 17 18  1  0
 18 19  2  0
 19 20  1  0
 20 21  1  0
 22 21  1  1
 22 23  1  0
 22 24  1  0
 23 14  1  0
 24 28  1  0
 25 24  2  0
 26 20  2  0
 27 26  1  0
M  END
$$$$
