QSY.pdb
     RDKit          3D

 28 28  0  0  1  0  0  0  0  0999 V2000
   11.1930  -29.6271   25.5252 N   0  0  0  0  0  0  0  0  0  0  0  0
   10.0101  -29.2103   24.8740 C   0  0  0  0  0  0  0  0  0  0  0  0
    9.3658  -29.9312   24.0817 O   0  0  0  0  0  0  0  0  0  0  0  0
    9.5087  -27.8299   25.1536 C   0  0  0  0  0  0  0  0  0  0  0  0
   10.4760  -27.1513   26.0673 C   0  0  0  0  0  0  0  0  0  0  0  0
   10.0474  -25.7032   26.2955 C   0  0  2  0  0  0  0  0  0  0  0  0
    9.8690  -25.1822   24.9153 N   0  0  0  0  0  0  0  0  0  0  0  0
   11.0843  -24.8860   26.9238 C   0  0  0  0  0  0  0  0  0  0  0  0
   11.8073  -25.3925   27.8367 O   0  0  0  0  0  0  0  0  0  0  0  0
   11.8714  -20.8809   26.0046 O   0  0  0  0  0  0  0  0  0  0  0  0
   12.9314  -21.7263   26.3242 C   0  0  0  0  0  0  0  0  0  0  0  0
   12.4689  -22.8305   27.2750 C   0  0  2  0  0  0  0  0  0  0  0  0
   11.3870  -23.5244   26.6060 N   0  0  0  0  0  0  0  0  0  0  0  0
   12.1598  -22.3133   28.5991 C   0  0  0  0  0  0  0  0  0  0  0  0
   10.9743  -21.8979   28.7890 O   0  0  0  0  0  0  0  0  0  0  0  0
    9.6792  -27.3926   31.1561 O   0  0  0  0  0  0  0  0  0  0  0  0
   10.4713  -26.2716   31.3656 C   0  0  0  0  0  0  0  0  0  0  0  0
   11.8107  -26.2510   31.0484 C   0  0  0  0  0  0  0  0  0  0  0  0
   12.5531  -25.1085   31.2776 C   0  0  0  0  0  0  0  0  0  0  0  0
   12.0288  -23.9529   31.8189 C   0  0  0  0  0  0  0  0  0  0  0  0
   12.7920  -22.7195   32.0877 C   0  0  0  0  0  0  0  0  0  0  0  0
   12.5576  -21.7154   31.0169 C   0  0  2  0  0  0  0  0  0  0  0  0
   13.0292  -22.2173   29.7123 N   0  0  0  0  0  0  0  0  0  0  0  0
   13.2862  -20.4711   31.2942 C   0  0  0  0  0  0  0  0  0  0  0  0
   13.1229  -19.8977   32.4231 O   0  0  0  0  0  0  0  0  0  0  0  0
   10.6633  -24.0064   32.1305 C   0  0  0  0  0  0  0  0  0  0  0  0
    9.9108  -25.1382   31.9073 C   0  0  0  0  0  0  0  0  0  0  0  0
   14.1545  -19.8650   30.4069 O   0  0  0  0  0  0  0  0  0  0  0  0
  2  1  1  0
  3  2  2  0
  4  2  1  0
  5  6  1  0
  5  4  1  0
  6  8  1  0
  6  7  1  6
  8  9  2  0
 10 11  1  0
 12 11  1  6
 13 12  1  0
 13  8  1  0
 14 12  1  0
 14 15  2  0
 16 17  1  0
 17 27  2  0
 17 18  1  0
 18 19  2  0
 19 20  1  0
 20 21  1  0
 22 21  1  1
 22 23  1  0
 22 24  1  0
 23 14  1  0
 24 28  1  0
 25 24  2  0
 26 20  2  0
 27 26  1  0
M  END
$$$$
