QSY.pdb
     RDKit          3D

 28 28  0  0  1  0  0  0  0  0999 V2000
   11.5582  -19.4864   15.6551 N   0  0  0  0  0  0  0  0  0  0  0  0
   11.1195  -19.8089   16.9591 C   0  0  0  0  0  0  0  0  0  0  0  0
   10.4386  -20.8217   17.2292 O   0  0  0  0  0  0  0  0  0  0  0  0
   11.4947  -18.8824   18.0709 C   0  0  0  0  0  0  0  0  0  0  0  0
   10.2540  -18.2204   18.5741 C   0  0  0  0  0  0  0  0  0  0  0  0
   10.2463  -18.2225   20.1015 C   0  0  2  0  0  0  0  0  0  0  0  0
    9.1118  -19.1236   20.4323 N   0  0  0  0  0  0  0  0  0  0  0  0
    9.9305  -16.9173   20.6795 C   0  0  0  0  0  0  0  0  0  0  0  0
   10.8182  -16.0093   20.6872 O   0  0  0  0  0  0  0  0  0  0  0  0
    6.2013  -15.7855   22.2482 O   0  0  0  0  0  0  0  0  0  0  0  0
    7.0293  -14.8511   21.6300 C   0  0  0  0  0  0  0  0  0  0  0  0
    8.4991  -15.2190   21.8337 C   0  0  2  0  0  0  0  0  0  0  0  0
    8.6783  -16.5361   21.2569 N   0  0  0  0  0  0  0  0  0  0  0  0
    8.9062  -15.0811   23.2235 C   0  0  0  0  0  0  0  0  0  0  0  0
    9.0042  -13.8982   23.6766 O   0  0  0  0  0  0  0  0  0  0  0  0
    6.1536  -10.6057   26.3728 O   0  0  0  0  0  0  0  0  0  0  0  0
    6.7940  -11.8373   26.4086 C   0  0  0  0  0  0  0  0  0  0  0  0
    8.1481  -11.9530   26.6275 C   0  0  0  0  0  0  0  0  0  0  0  0
    8.7349  -13.2037   26.6532 C   0  0  0  0  0  0  0  0  0  0  0  0
    8.0363  -14.3789   26.4688 C   0  0  0  0  0  0  0  0  0  0  0  0
    8.6299  -15.7293   26.4788 C   0  0  0  0  0  0  0  0  0  0  0  0
    9.7337  -15.8231   25.4876 C   0  0  2  0  0  0  0  0  0  0  0  0
    9.2083  -16.1163   24.1406 N   0  0  0  0  0  0  0  0  0  0  0  0
   10.6640  -16.9040   25.8371 C   0  0  0  0  0  0  0  0  0  0  0  0
   11.2413  -16.8787   26.9755 O   0  0  0  0  0  0  0  0  0  0  0  0
    6.6605  -14.2267   26.2485 C   0  0  0  0  0  0  0  0  0  0  0  0
    6.0620  -12.9865   26.2204 C   0  0  0  0  0  0  0  0  0  0  0  0
   10.9642  -17.9687   25.0094 O   0  0  0  0  0  0  0  0  0  0  0  0
  2  1  1  0
  3  2  2  0
  4  2  1  0
  5  6  1  0
  5  4  1  0
  6  8  1  0
  6  7  1  6
  8  9  2  0
 10 11  1  0
 12 11  1  1
 13 12  1  0
 13  8  1  0
 14 12  1  0
 14 15  2  0
 16 17  1  0
 17 27  2  0
 17 18  1  0
 18 19  2  0
 19 20  1  0
 20 21  1  0
 22 21  1  1
 22 23  1  0
 22 24  1  0
 23 14  1  0
 24 28  1  0
 25 24  2  0
 26 20  2  0
 27 26  1  0
M  END
$$$$
