QSY.pdb
     RDKit          3D

 28 28  0  0  1  0  0  0  0  0999 V2000
    8.8548  -19.3529   13.3586 N   0  0  0  0  0  0  0  0  0  0  0  0
   10.2330  -19.5395   13.6090 C   0  0  0  0  0  0  0  0  0  0  0  0
   10.6776  -20.2560   14.5317 O   0  0  0  0  0  0  0  0  0  0  0  0
   11.2058  -18.8380   12.7165 C   0  0  0  0  0  0  0  0  0  0  0  0
   12.0861  -17.9761   13.5610 C   0  0  0  0  0  0  0  0  0  0  0  0
   11.5820  -16.5346   13.5350 C   0  0  2  0  0  0  0  0  0  0  0  0
   12.6675  -15.8099   12.8244 N   0  0  0  0  0  0  0  0  0  0  0  0
   11.4754  -15.9357   14.8645 C   0  0  0  0  0  0  0  0  0  0  0  0
   12.5323  -15.5873   15.4762 O   0  0  0  0  0  0  0  0  0  0  0  0
    8.0332  -15.8732   17.3107 O   0  0  0  0  0  0  0  0  0  0  0  0
    8.8505  -14.7462   17.2587 C   0  0  0  0  0  0  0  0  0  0  0  0
   10.2880  -15.1413   16.9199 C   0  0  2  0  0  0  0  0  0  0  0  0
   10.2605  -15.6862   15.5775 N   0  0  0  0  0  0  0  0  0  0  0  0
   10.8682  -16.0049   17.9366 C   0  0  0  0  0  0  0  0  0  0  0  0
   11.1070  -17.2062   17.5990 O   0  0  0  0  0  0  0  0  0  0  0  0
   16.7784  -13.0352   18.4256 O   0  0  0  0  0  0  0  0  0  0  0  0
   15.8823  -14.0429   18.7568 C   0  0  0  0  0  0  0  0  0  0  0  0
   15.6865  -14.4512   20.0568 C   0  0  0  0  0  0  0  0  0  0  0  0
   14.7820  -15.4592   20.3309 C   0  0  0  0  0  0  0  0  0  0  0  0
   14.0401  -16.1035   19.3627 C   0  0  0  0  0  0  0  0  0  0  0  0
   13.0745  -17.1896   19.6163 C   0  0  0  0  0  0  0  0  0  0  0  0
   11.8134  -16.6462   20.1854 C   0  0  2  0  0  0  0  0  0  0  0  0
   11.2027  -15.6642   19.2694 N   0  0  0  0  0  0  0  0  0  0  0  0
   12.0643  -15.9577   21.4578 C   0  0  0  0  0  0  0  0  0  0  0  0
   12.6669  -16.5855   22.3919 O   0  0  0  0  0  0  0  0  0  0  0  0
   14.2624  -15.6646   18.0503 C   0  0  0  0  0  0  0  0  0  0  0  0
   15.1607  -14.6609   17.7622 C   0  0  0  0  0  0  0  0  0  0  0  0
   11.6913  -14.6541   21.7225 O   0  0  0  0  0  0  0  0  0  0  0  0
  2  1  1  0
  3  2  2  0
  4  2  1  0
  5  6  1  0
  5  4  1  0
  6  8  1  0
  6  7  1  6
  8  9  2  0
 10 11  1  0
 12 11  1  1
 13 12  1  0
 13  8  1  0
 14 12  1  0
 14 15  2  0
 16 17  1  0
 17 27  2  0
 17 18  1  0
 18 19  2  0
 19 20  1  0
 20 21  1  0
 22 21  1  6
 22 23  1  0
 22 24  1  0
 23 14  1  0
 24 28  1  0
 25 24  2  0
 26 20  2  0
 27 26  1  0
M  END
$$$$
