QSY.pdb
     RDKit          3D

 28 28  0  0  1  0  0  0  0  0999 V2000
    8.0554  -18.5793   16.6651 N   0  0  0  0  0  0  0  0  0  0  0  0
    9.4397  -18.6222   16.9461 C   0  0  0  0  0  0  0  0  0  0  0  0
   10.3267  -18.4664   16.0792 O   0  0  0  0  0  0  0  0  0  0  0  0
    9.8575  -18.8680   18.3603 C   0  0  0  0  0  0  0  0  0  0  0  0
   11.0102  -17.9720   18.6756 C   0  0  0  0  0  0  0  0  0  0  0  0
   10.8964  -17.4639   20.1115 C   0  0  2  0  0  0  0  0  0  0  0  0
   10.1791  -18.5660   20.8038 N   0  0  0  0  0  0  0  0  0  0  0  0
   10.0598  -16.2715   20.2379 C   0  0  0  0  0  0  0  0  0  0  0  0
   10.4458  -15.1824   19.7113 O   0  0  0  0  0  0  0  0  0  0  0  0
    6.2144  -15.9660   21.6702 O   0  0  0  0  0  0  0  0  0  0  0  0
    6.9175  -14.8026   21.3655 C   0  0  0  0  0  0  0  0  0  0  0  0
    8.4118  -14.9957   21.6242 C   0  0  2  0  0  0  0  0  0  0  0  0
    8.8013  -16.1973   20.9142 N   0  0  0  0  0  0  0  0  0  0  0  0
    8.7244  -14.9761   23.0447 C   0  0  0  0  0  0  0  0  0  0  0  0
    8.2849  -13.9898   23.7141 O   0  0  0  0  0  0  0  0  0  0  0  0
    6.0851  -10.9157   27.1133 O   0  0  0  0  0  0  0  0  0  0  0  0
    6.5495  -12.1826   26.7854 C   0  0  0  0  0  0  0  0  0  0  0  0
    5.7147  -13.1692   26.3114 C   0  0  0  0  0  0  0  0  0  0  0  0
    6.2295  -14.4131   26.0002 C   0  0  0  0  0  0  0  0  0  0  0  0
    7.5618  -14.7440   26.1362 C   0  0  0  0  0  0  0  0  0  0  0  0
    8.1446  -16.0629   25.8247 C   0  0  0  0  0  0  0  0  0  0  0  0
    9.5081  -15.9105   25.2526 C   0  0  2  0  0  0  0  0  0  0  0  0
    9.4659  -15.9336   23.7781 N   0  0  0  0  0  0  0  0  0  0  0  0
   10.3837  -17.0087   25.6805 C   0  0  0  0  0  0  0  0  0  0  0  0
   10.6548  -17.9416   24.8521 O   0  0  0  0  0  0  0  0  0  0  0  0
    8.3848  -13.7181   26.6206 C   0  0  0  0  0  0  0  0  0  0  0  0
    7.8856  -12.4734   26.9347 C   0  0  0  0  0  0  0  0  0  0  0  0
   10.9489  -17.1072   26.9373 O   0  0  0  0  0  0  0  0  0  0  0  0
  2  1  1  0
  3  2  2  0
  4  2  1  0
  5  6  1  0
  5  4  1  0
  6  8  1  0
  6  7  1  1
  8  9  2  0
 10 11  1  0
 12 11  1  1
 13 12  1  0
 13  8  1  0
 14 12  1  0
 14 15  2  0
 16 17  1  0
 17 27  2  0
 17 18  1  0
 18 19  2  0
 19 20  1  0
 20 21  1  0
 22 21  1  1
 22 23  1  0
 22 24  1  0
 23 14  1  0
 24 28  1  0
 25 24  2  0
 26 20  2  0
 27 26  1  0
M  END
$$$$
