QSY.pdb
     RDKit          3D

 28 28  0  0  1  0  0  0  0  0999 V2000
   12.5395  -19.8299   16.0749 N   0  0  0  0  0  0  0  0  0  0  0  0
   12.4758  -19.9796   17.4786 C   0  0  0  0  0  0  0  0  0  0  0  0
   13.4734  -19.9054   18.2282 O   0  0  0  0  0  0  0  0  0  0  0  0
   11.1380  -20.2408   18.0927 C   0  0  0  0  0  0  0  0  0  0  0  0
   10.8723  -19.1845   19.1147 C   0  0  0  0  0  0  0  0  0  0  0  0
    9.5548  -18.4779   18.8020 C   0  0  2  0  0  0  0  0  0  0  0  0
    9.8852  -17.6616   17.6049 N   0  0  0  0  0  0  0  0  0  0  0  0
    9.1375  -17.5443   19.8468 C   0  0  0  0  0  0  0  0  0  0  0  0
    9.8101  -16.4843   20.0385 O   0  0  0  0  0  0  0  0  0  0  0  0
    5.9952  -18.1397   22.5976 O   0  0  0  0  0  0  0  0  0  0  0  0
    6.1977  -16.8819   22.0342 C   0  0  0  0  0  0  0  0  0  0  0  0
    7.6724  -16.6821   21.6840 C   0  0  2  0  0  0  0  0  0  0  0  0
    8.0061  -17.7000   20.7083 N   0  0  0  0  0  0  0  0  0  0  0  0
    8.5131  -16.6497   22.8707 C   0  0  0  0  0  0  0  0  0  0  0  0
    9.2694  -17.6521   23.0640 O   0  0  0  0  0  0  0  0  0  0  0  0
    5.1203  -11.4114   26.6799 O   0  0  0  0  0  0  0  0  0  0  0  0
    6.2693  -12.1535   26.4407 C   0  0  0  0  0  0  0  0  0  0  0  0
    6.8689  -12.9120   27.4205 C   0  0  0  0  0  0  0  0  0  0  0  0
    8.0116  -13.6318   27.1285 C   0  0  0  0  0  0  0  0  0  0  0  0
    8.6107  -13.6426   25.8858 C   0  0  0  0  0  0  0  0  0  0  0  0
    9.8352  -14.3891   25.5405 C   0  0  0  0  0  0  0  0  0  0  0  0
    9.4951  -15.7337   25.0058 C   0  0  2  0  0  0  0  0  0  0  0  0
    8.5913  -15.6253   23.8448 N   0  0  0  0  0  0  0  0  0  0  0  0
    8.8073  -16.5440   26.0189 C   0  0  0  0  0  0  0  0  0  0  0  0
    7.5739  -16.8276   25.8505 O   0  0  0  0  0  0  0  0  0  0  0  0
    7.9759  -12.8608   24.9109 C   0  0  0  0  0  0  0  0  0  0  0  0
    6.8364  -12.1383   25.1876 C   0  0  0  0  0  0  0  0  0  0  0  0
    9.4092  -17.0338   27.1619 O   0  0  0  0  0  0  0  0  0  0  0  0
  2  1  1  0
  3  2  2  0
  4  2  1  0
  5  6  1  0
  5  4  1  0
  6  8  1  0
  6  7  1  6
  8  9  2  0
 10 11  1  0
 12 11  1  1
 13 12  1  0
 13  8  1  0
 14 12  1  0
 14 15  2  0
 16 17  1  0
 17 27  2  0
 17 18  1  0
 18 19  2  0
 19 20  1  0
 20 21  1  0
 22 21  1  1
 22 23  1  0
 22 24  1  0
 23 14  1  0
 24 28  1  0
 25 24  2  0
 26 20  2  0
 27 26  1  0
M  END
$$$$
