QSY.pdb
     RDKit          3D

 28 28  0  0  1  0  0  0  0  0999 V2000
   14.5215  -18.1539   16.6526 N   0  0  0  0  0  0  0  0  0  0  0  0
   13.9747  -19.4518   16.5374 C   0  0  0  0  0  0  0  0  0  0  0  0
   14.4258  -20.3267   15.7670 O   0  0  0  0  0  0  0  0  0  0  0  0
   12.7918  -19.7888   17.3873 C   0  0  0  0  0  0  0  0  0  0  0  0
   12.4304  -18.5847   18.1937 C   0  0  0  0  0  0  0  0  0  0  0  0
   11.6185  -19.0032   19.4179 C   0  0  2  0  0  0  0  0  0  0  0  0
   10.5655  -19.8791   18.8415 N   0  0  0  0  0  0  0  0  0  0  0  0
   10.9308  -17.8867   20.0645 C   0  0  0  0  0  0  0  0  0  0  0  0
   11.6112  -16.9118   20.5110 O   0  0  0  0  0  0  0  0  0  0  0  0
    6.8402  -17.7867   21.1007 O   0  0  0  0  0  0  0  0  0  0  0  0
    7.4697  -16.6176   20.6791 C   0  0  0  0  0  0  0  0  0  0  0  0
    8.9618  -16.6631   21.0086 C   0  0  2  0  0  0  0  0  0  0  0  0
    9.5177  -17.7672   20.2525 N   0  0  0  0  0  0  0  0  0  0  0  0
    9.2007  -16.7007   22.4431 C   0  0  0  0  0  0  0  0  0  0  0  0
    9.3690  -17.8464   22.9655 O   0  0  0  0  0  0  0  0  0  0  0  0
   11.0952  -15.4502   30.9034 O   0  0  0  0  0  0  0  0  0  0  0  0
   10.7277  -15.1939   29.5891 C   0  0  0  0  0  0  0  0  0  0  0  0
    9.6126  -14.4519   29.2714 C   0  0  0  0  0  0  0  0  0  0  0  0
    9.2924  -14.2269   27.9462 C   0  0  0  0  0  0  0  0  0  0  0  0
   10.0353  -14.7093   26.8886 C   0  0  0  0  0  0  0  0  0  0  0  0
    9.7185  -14.4988   25.4633 C   0  0  0  0  0  0  0  0  0  0  0  0
    9.4864  -15.7990   24.7812 C   0  0  2  0  0  0  0  0  0  0  0  0
    9.2697  -15.6035   23.3351 N   0  0  0  0  0  0  0  0  0  0  0  0
    8.2922  -16.4666   25.3142 C   0  0  0  0  0  0  0  0  0  0  0  0
    7.1436  -16.1192   24.8784 O   0  0  0  0  0  0  0  0  0  0  0  0
   11.1636  -15.4602   27.2456 C   0  0  0  0  0  0  0  0  0  0  0  0
   11.4951  -15.6924   28.5621 C   0  0  0  0  0  0  0  0  0  0  0  0
    8.3210  -17.4644   26.2694 O   0  0  0  0  0  0  0  0  0  0  0  0
  2  1  1  0
  3  2  2  0
  4  2  1  0
  5  6  1  0
  5  4  1  0
  6  8  1  0
  6  7  1  6
  8  9  2  0
 10 11  1  0
 12 11  1  1
 13 12  1  0
 13  8  1  0
 14 12  1  0
 14 15  2  0
 16 17  1  0
 17 27  2  0
 17 18  1  0
 18 19  2  0
 19 20  1  0
 20 21  1  0
 22 21  1  1
 22 23  1  0
 22 24  1  0
 23 14  1  0
 24 28  1  0
 25 24  2  0
 26 20  2  0
 27 26  1  0
M  END
$$$$
