QSY.pdb
     RDKit          3D

 28 28  0  0  1  0  0  0  0  0999 V2000
    4.0414  -22.7976   23.2612 N   0  0  0  0  0  0  0  0  0  0  0  0
    3.2118  -21.6935   22.9616 C   0  0  0  0  0  0  0  0  0  0  0  0
    2.0385  -21.8028   22.5450 O   0  0  0  0  0  0  0  0  0  0  0  0
    3.7766  -20.3231   23.1566 C   0  0  0  0  0  0  0  0  0  0  0  0
    5.0555  -20.2252   22.3913 C   0  0  0  0  0  0  0  0  0  0  0  0
    4.8764  -19.2905   21.1966 C   0  0  2  0  0  0  0  0  0  0  0  0
    4.9508  -20.2118   20.0329 N   0  0  0  0  0  0  0  0  0  0  0  0
    5.9689  -18.3307   21.0450 C   0  0  0  0  0  0  0  0  0  0  0  0
    7.0534  -18.7040   20.4999 O   0  0  0  0  0  0  0  0  0  0  0  0
    5.5847  -14.2903   20.9673 O   0  0  0  0  0  0  0  0  0  0  0  0
    6.6778  -14.9468   20.4062 C   0  0  0  0  0  0  0  0  0  0  0  0
    7.1116  -16.1171   21.2890 C   0  0  2  0  0  0  0  0  0  0  0  0
    5.9457  -16.9610   21.4572 N   0  0  0  0  0  0  0  0  0  0  0  0
    7.7427  -15.6652   22.5193 C   0  0  0  0  0  0  0  0  0  0  0  0
    7.0919  -14.8319   23.2238 O   0  0  0  0  0  0  0  0  0  0  0  0
   10.6702  -14.0925   30.3985 O   0  0  0  0  0  0  0  0  0  0  0  0
   10.1572  -14.5543   29.1936 C   0  0  0  0  0  0  0  0  0  0  0  0
   10.1810  -15.8870   28.8498 C   0  0  0  0  0  0  0  0  0  0  0  0
    9.6565  -16.2927   27.6376 C   0  0  0  0  0  0  0  0  0  0  0  0
    9.0944  -15.4283   26.7211 C   0  0  0  0  0  0  0  0  0  0  0  0
    8.5353  -15.8232   25.4143 C   0  0  0  0  0  0  0  0  0  0  0  0
    9.5012  -15.5327   24.3225 C   0  0  2  0  0  0  0  0  0  0  0  0
    9.0063  -16.0466   23.0312 N   0  0  0  0  0  0  0  0  0  0  0  0
   10.7954  -16.1767   24.5802 C   0  0  0  0  0  0  0  0  0  0  0  0
   10.8917  -17.4434   24.4533 O   0  0  0  0  0  0  0  0  0  0  0  0
    9.0854  -14.0793   27.1011 C   0  0  0  0  0  0  0  0  0  0  0  0
    9.6045  -13.6604   28.3062 C   0  0  0  0  0  0  0  0  0  0  0  0
   11.9396  -15.4989   24.9548 O   0  0  0  0  0  0  0  0  0  0  0  0
  2  1  1  0
  3  2  2  0
  4  2  1  0
  5  6  1  0
  5  4  1  0
  6  8  1  0
  6  7  1  6
  8  9  2  0
 10 11  1  0
 12 11  1  1
 13 12  1  0
 13  8  1  0
 14 12  1  0
 14 15  2  0
 16 17  1  0
 17 27  2  0
 17 18  1  0
 18 19  2  0
 19 20  1  0
 20 21  1  0
 22 21  1  1
 22 23  1  0
 22 24  1  0
 23 14  1  0
 24 28  1  0
 25 24  2  0
 26 20  2  0
 27 26  1  0
M  END
$$$$
