QSY.pdb
     RDKit          3D

 28 28  0  0  1  0  0  0  0  0999 V2000
   15.4205  -15.5613   15.3570 N   0  0  0  0  0  0  0  0  0  0  0  0
   14.5345  -15.5182   16.4570 C   0  0  0  0  0  0  0  0  0  0  0  0
   14.5835  -14.6461   17.3511 O   0  0  0  0  0  0  0  0  0  0  0  0
   13.4836  -16.5777   16.5486 C   0  0  0  0  0  0  0  0  0  0  0  0
   12.3872  -16.2405   15.5920 C   0  0  0  0  0  0  0  0  0  0  0  0
   11.2661  -17.2720   15.7014 C   0  0  2  0  0  0  0  0  0  0  0  0
   10.2389  -16.7555   14.7598 N   0  0  0  0  0  0  0  0  0  0  0  0
   10.6440  -17.3111   17.0239 C   0  0  0  0  0  0  0  0  0  0  0  0
    9.9096  -16.3437   17.3947 O   0  0  0  0  0  0  0  0  0  0  0  0
   11.2334  -20.3217   19.8447 O   0  0  0  0  0  0  0  0  0  0  0  0
    9.9624  -19.7612   19.7395 C   0  0  0  0  0  0  0  0  0  0  0  0
   10.0515  -18.3203   19.2367 C   0  0  2  0  0  0  0  0  0  0  0  0
   10.7752  -18.3654   17.9821 N   0  0  0  0  0  0  0  0  0  0  0  0
   10.5978  -17.4255   20.2452 C   0  0  0  0  0  0  0  0  0  0  0  0
   11.8058  -17.0620   20.0941 O   0  0  0  0  0  0  0  0  0  0  0  0
    7.7102  -12.6076   17.6611 O   0  0  0  0  0  0  0  0  0  0  0  0
    8.1518  -13.1520   18.8598 C   0  0  0  0  0  0  0  0  0  0  0  0
    7.3027  -13.8038   19.7253 C   0  0  0  0  0  0  0  0  0  0  0  0
    7.7948  -14.3272   20.9057 C   0  0  0  0  0  0  0  0  0  0  0  0
    9.1174  -14.2383   21.2876 C   0  0  0  0  0  0  0  0  0  0  0  0
    9.6759  -14.7746   22.5433 C   0  0  0  0  0  0  0  0  0  0  0  0
   10.5876  -15.9153   22.2653 C   0  0  2  0  0  0  0  0  0  0  0  0
    9.9387  -16.9055   21.3851 N   0  0  0  0  0  0  0  0  0  0  0  0
   10.9545  -16.6096   23.5060 C   0  0  0  0  0  0  0  0  0  0  0  0
   10.4865  -17.7776   23.7221 O   0  0  0  0  0  0  0  0  0  0  0  0
    9.9553  -13.5693   20.3849 C   0  0  0  0  0  0  0  0  0  0  0  0
    9.4788  -13.0428   19.2047 C   0  0  0  0  0  0  0  0  0  0  0  0
   11.7874  -16.0827   24.4741 O   0  0  0  0  0  0  0  0  0  0  0  0
  2  1  1  0
  3  2  2  0
  4  2  1  0
  5  6  1  0
  5  4  1  0
  6  8  1  0
  6  7  1  6
  8  9  2  0
 10 11  1  0
 12 11  1  1
 13 12  1  0
 13  8  1  0
 14 12  1  0
 14 15  2  0
 16 17  1  0
 17 27  2  0
 17 18  1  0
 18 19  2  0
 19 20  1  0
 20 21  1  0
 22 21  1  1
 22 23  1  0
 22 24  1  0
 23 14  1  0
 24 28  1  0
 25 24  2  0
 26 20  2  0
 27 26  1  0
M  END
$$$$
