IGY.pdb
     RDKit          3D

 25 25  0  0  1  0  0  0  0  0999 V2000
    8.2393  -12.1278   21.5253 C   0  0  0  0  0  0  0  0  0  0  0  0
    8.3544  -13.5501   22.0313 C   0  0  0  0  0  0  0  0  0  0  0  0
    7.9455  -14.5155   20.9408 C   0  0  2  0  0  0  0  0  0  0  0  0
    6.5215  -14.2879   20.5251 C   0  0  0  0  0  0  0  0  0  0  0  0
    8.1485  -15.9375   21.4611 C   0  0  2  0  0  0  0  0  0  0  0  0
    7.2474  -16.1744   22.5538 N   0  0  0  0  0  0  0  0  0  0  0  0
    9.5744  -16.1251   21.8671 C   0  0  0  0  0  0  0  0  0  0  0  0
   10.4809  -15.8707   21.0365 O   0  0  0  0  0  0  0  0  0  0  0  0
    9.9350  -16.5785   23.1527 N   0  0  0  0  0  0  0  0  0  0  0  0
   11.3160  -16.8235   23.5072 C   0  0  0  0  0  0  0  0  0  0  0  0
   11.6008  -16.4444   24.9094 C   0  0  0  0  0  0  0  0  0  0  0  0
   12.7433  -16.6650   25.3698 O   0  0  0  0  0  0  0  0  0  0  0  0
    5.3913  -12.6833   25.8068 O   0  0  0  0  0  0  0  0  0  0  0  0
    6.6652  -13.0483   26.2464 C   0  0  0  0  0  0  0  0  0  0  0  0
    7.7435  -12.9091   25.4092 C   0  0  0  0  0  0  0  0  0  0  0  0
    9.0157  -13.2740   25.8489 C   0  0  0  0  0  0  0  0  0  0  0  0
    9.2237  -13.7762   27.1149 C   0  0  0  0  0  0  0  0  0  0  0  0
   10.5840  -14.1426   27.5208 C   0  0  0  0  0  0  0  0  0  0  0  0
   10.9753  -15.5435   27.1063 C   0  0  2  0  0  0  0  0  0  0  0  0
   10.6358  -15.8428   25.7518 N   0  0  0  0  0  0  0  0  0  0  0  0
   10.2541  -16.4766   27.9980 C   0  0  0  0  0  0  0  0  0  0  0  0
   10.4777  -16.3992   29.3583 O   0  0  0  0  0  0  0  0  0  0  0  0
    8.1198  -13.9023   27.9277 C   0  0  0  0  0  0  0  0  0  0  0  0
    6.8475  -13.5461   27.5112 C   0  0  0  0  0  0  0  0  0  0  0  0
    9.4398  -17.3471   27.5916 O   0  0  0  0  0  0  0  0  0  0  0  0
  2  1  1  0
  2  3  1  0
  3  4  1  1
  5  3  1  0
  5  6  1  1
  7  5  1  0
  7  9  1  0
  8  7  2  0
 10  9  1  0
 11 10  1  0
 12 11  2  0
 13 14  1  0
 14 24  2  0
 14 15  1  0
 15 16  2  0
 16 17  1  0
 17 18  1  0
 19 18  1  1
 19 20  1  0
 20 11  1  0
 21 22  1  0
 21 19  1  0
 23 17  2  0
 24 23  1  0
 25 21  2  0
M  END
$$$$
