IGY.pdb
     RDKit          3D

 25 25  0  0  1  0  0  0  0  0999 V2000
    7.8081  -11.7852   19.5764 C   0  0  0  0  0  0  0  0  0  0  0  0
    7.8839  -13.2753   19.3196 C   0  0  0  0  0  0  0  0  0  0  0  0
    7.9615  -14.0177   20.6354 C   0  0  2  0  0  0  0  0  0  0  0  0
    9.2198  -13.6715   21.3765 C   0  0  0  0  0  0  0  0  0  0  0  0
    7.8866  -15.5155   20.3438 C   0  0  2  0  0  0  0  0  0  0  0  0
    6.7083  -15.7882   19.5697 N   0  0  0  0  0  0  0  0  0  0  0  0
    7.8954  -16.2784   21.6287 C   0  0  0  0  0  0  0  0  0  0  0  0
    6.8551  -16.2967   22.3314 O   0  0  0  0  0  0  0  0  0  0  0  0
    9.0341  -16.9785   22.0778 N   0  0  0  0  0  0  0  0  0  0  0  0
    9.0155  -17.7412   23.3070 C   0  0  0  0  0  0  0  0  0  0  0  0
    9.5459  -16.9615   24.4478 C   0  0  0  0  0  0  0  0  0  0  0  0
   10.4916  -16.1679   24.2434 O   0  0  0  0  0  0  0  0  0  0  0  0
    5.9193  -11.4514   25.2908 O   0  0  0  0  0  0  0  0  0  0  0  0
    6.6294  -12.4858   25.9033 C   0  0  0  0  0  0  0  0  0  0  0  0
    6.0380  -13.7117   26.0775 C   0  0  0  0  0  0  0  0  0  0  0  0
    6.7478  -14.7445   26.6894 C   0  0  0  0  0  0  0  0  0  0  0  0
    8.0414  -14.5675   27.1293 C   0  0  0  0  0  0  0  0  0  0  0  0
    8.7370  -15.6904   27.7653 C   0  0  0  0  0  0  0  0  0  0  0  0
    9.6904  -16.4076   26.8355 C   0  0  2  0  0  0  0  0  0  0  0  0
    9.0289  -17.0752   25.7603 N   0  0  0  0  0  0  0  0  0  0  0  0
   10.4157  -17.4085   27.6466 C   0  0  0  0  0  0  0  0  0  0  0  0
   11.2141  -16.9683   28.6836 O   0  0  0  0  0  0  0  0  0  0  0  0
    8.6032  -13.3253   26.9383 C   0  0  0  0  0  0  0  0  0  0  0  0
    7.9162  -12.2856   26.3331 C   0  0  0  0  0  0  0  0  0  0  0  0
   10.3513  -18.6507   27.4500 O   0  0  0  0  0  0  0  0  0  0  0  0
  2  1  1  0
  2  3  1  0
  3  4  1  6
  5  3  1  0
  5  6  1  1
  7  5  1  0
  7  9  1  0
  8  7  2  0
 10  9  1  0
 11 10  1  0
 12 11  2  0
 13 14  1  0
 14 24  2  0
 14 15  1  0
 15 16  2  0
 16 17  1  0
 17 18  1  0
 19 18  1  1
 19 20  1  0
 20 11  1  0
 21 22  1  0
 21 19  1  0
 23 17  2  0
 24 23  1  0
 25 21  2  0
M  END
$$$$
