IGY.pdb
     RDKit          3D

 25 25  0  0  1  0  0  0  0  0999 V2000
    6.5055  -12.4677   26.9301 C   0  0  0  0  0  0  0  0  0  0  0  0
    6.3830  -13.3802   25.7282 C   0  0  0  0  0  0  0  0  0  0  0  0
    7.7563  -13.8474   25.2989 C   0  0  2  0  0  0  0  0  0  0  0  0
    8.6395  -12.6832   24.9568 C   0  0  0  0  0  0  0  0  0  0  0  0
    7.5899  -14.7843   24.1036 C   0  0  2  0  0  0  0  0  0  0  0  0
    6.6447  -15.8127   24.4368 N   0  0  0  0  0  0  0  0  0  0  0  0
    8.9182  -15.3536   23.7230 C   0  0  0  0  0  0  0  0  0  0  0  0
    9.8159  -14.5784   23.3111 O   0  0  0  0  0  0  0  0  0  0  0  0
    9.1963  -16.7332   23.8114 N   0  0  0  0  0  0  0  0  0  0  0  0
   10.5121  -17.2586   23.5189 C   0  0  0  0  0  0  0  0  0  0  0  0
   11.2825  -17.5338   24.7524 C   0  0  0  0  0  0  0  0  0  0  0  0
   12.5204  -17.6934   24.6630 O   0  0  0  0  0  0  0  0  0  0  0  0
    8.6657  -12.0903   27.7281 O   0  0  0  0  0  0  0  0  0  0  0  0
    9.2272  -13.3551   27.9138 C   0  0  0  0  0  0  0  0  0  0  0  0
    8.5675  -14.4695   27.4603 C   0  0  0  0  0  0  0  0  0  0  0  0
    9.1288  -15.7326   27.6461 C   0  0  0  0  0  0  0  0  0  0  0  0
   10.3414  -15.8958   28.2796 C   0  0  0  0  0  0  0  0  0  0  0  0
   10.8813  -17.2486   28.4459 C   0  0  0  0  0  0  0  0  0  0  0  0
   11.5002  -17.8053   27.1831 C   0  0  2  0  0  0  0  0  0  0  0  0
   10.6786  -17.6241   26.0292 N   0  0  0  0  0  0  0  0  0  0  0  0
   11.7048  -19.2529   27.4026 C   0  0  0  0  0  0  0  0  0  0  0  0
   12.5849  -19.6559   28.3874 O   0  0  0  0  0  0  0  0  0  0  0  0
   10.9752  -14.7564   28.7216 C   0  0  0  0  0  0  0  0  0  0  0  0
   10.4356  -13.4925   28.5475 C   0  0  0  0  0  0  0  0  0  0  0  0
   11.1212  -20.1521   26.7416 O   0  0  0  0  0  0  0  0  0  0  0  0
  2  1  1  0
  2  3  1  0
  3  4  1  6
  5  3  1  0
  5  6  1  1
  7  5  1  0
  7  9  1  0
  8  7  2  0
 10  9  1  0
 11 10  1  0
 12 11  2  0
 13 14  1  0
 14 24  2  0
 14 15  1  0
 15 16  2  0
 16 17  1  0
 17 18  1  0
 19 18  1  1
 19 20  1  0
 20 11  1  0
 21 22  1  0
 21 19  1  0
 23 17  2  0
 24 23  1  0
 25 21  2  0
M  END
$$$$
