IGY.pdb
     RDKit          3D

 25 25  0  0  1  0  0  0  0  0999 V2000
    8.1569  -12.1876   27.2573 C   0  0  0  0  0  0  0  0  0  0  0  0
    7.4973  -13.5232   26.9866 C   0  0  0  0  0  0  0  0  0  0  0  0
    7.1982  -13.6558   25.5096 C   0  0  2  0  0  0  0  0  0  0  0  0
    6.1823  -12.6416   25.0718 C   0  0  0  0  0  0  0  0  0  0  0  0
    6.7068  -15.0785   25.2476 C   0  0  2  0  0  0  0  0  0  0  0  0
    6.6265  -15.7880   26.4935 N   0  0  0  0  0  0  0  0  0  0  0  0
    7.6229  -15.7563   24.2810 C   0  0  0  0  0  0  0  0  0  0  0  0
    7.7319  -17.0064   24.3218 O   0  0  0  0  0  0  0  0  0  0  0  0
    8.3692  -15.0376   23.3244 N   0  0  0  0  0  0  0  0  0  0  0  0
    9.1614  -15.7143   22.3208 C   0  0  0  0  0  0  0  0  0  0  0  0
   10.4709  -16.1515   22.8547 C   0  0  0  0  0  0  0  0  0  0  0  0
   11.3285  -16.5889   22.0553 O   0  0  0  0  0  0  0  0  0  0  0  0
    9.3053  -15.3827   30.3084 O   0  0  0  0  0  0  0  0  0  0  0  0
   10.1105  -15.3573   29.1680 C   0  0  0  0  0  0  0  0  0  0  0  0
   11.0446  -16.3424   28.9683 C   0  0  0  0  0  0  0  0  0  0  0  0
   11.8485  -16.3165   27.8291 C   0  0  0  0  0  0  0  0  0  0  0  0
   11.7306  -15.3182   26.8868 C   0  0  0  0  0  0  0  0  0  0  0  0
   12.6036  -15.3438   25.7094 C   0  0  0  0  0  0  0  0  0  0  0  0
   12.1439  -16.3147   24.6446 C   0  0  2  0  0  0  0  0  0  0  0  0
   10.7945  -16.0958   24.2314 N   0  0  0  0  0  0  0  0  0  0  0  0
   12.2543  -17.6723   25.2195 C   0  0  0  0  0  0  0  0  0  0  0  0
   13.4939  -18.1176   25.6338 O   0  0  0  0  0  0  0  0  0  0  0  0
   10.7836  -14.3465   27.1194 C   0  0  0  0  0  0  0  0  0  0  0  0
    9.9747  -14.3531   28.2440 C   0  0  0  0  0  0  0  0  0  0  0  0
   11.2792  -18.4574   25.3570 O   0  0  0  0  0  0  0  0  0  0  0  0
  2  1  1  0
  2  3  1  0
  3  4  1  1
  5  3  1  0
  5  6  1  1
  7  5  1  0
  7  9  1  0
  8  7  2  0
 10  9  1  0
 11 10  1  0
 12 11  2  0
 13 14  1  0
 14 24  2  0
 14 15  1  0
 15 16  2  0
 16 17  1  0
 17 18  1  0
 19 18  1  1
 19 20  1  0
 20 11  1  0
 21 22  1  0
 21 19  1  0
 23 17  2  0
 24 23  1  0
 25 21  2  0
M  END
$$$$
