IGY.pdb
     RDKit          3D

 25 25  0  0  1  0  0  0  0  0999 V2000
    7.9892  -12.3240   22.2966 C   0  0  0  0  0  0  0  0  0  0  0  0
    8.2578  -13.8062   22.4481 C   0  0  0  0  0  0  0  0  0  0  0  0
    7.9202  -14.5214   21.1586 C   0  0  2  0  0  0  0  0  0  0  0  0
    6.4507  -14.4390   20.8648 C   0  0  0  0  0  0  0  0  0  0  0  0
    8.3777  -15.9737   21.2841 C   0  0  2  0  0  0  0  0  0  0  0  0
    7.4680  -16.6839   22.1385 N   0  0  0  0  0  0  0  0  0  0  0  0
    9.7772  -16.0160   21.8063 C   0  0  0  0  0  0  0  0  0  0  0  0
   10.6875  -15.4521   21.1507 O   0  0  0  0  0  0  0  0  0  0  0  0
   10.1089  -16.6688   23.0115 N   0  0  0  0  0  0  0  0  0  0  0  0
   11.4371  -16.5795   23.5778 C   0  0  0  0  0  0  0  0  0  0  0  0
   11.4005  -16.4577   25.0525 C   0  0  0  0  0  0  0  0  0  0  0  0
   12.4671  -16.2161   25.6607 O   0  0  0  0  0  0  0  0  0  0  0  0
    6.5872  -11.6176   25.0916 O   0  0  0  0  0  0  0  0  0  0  0  0
    7.1490  -12.7126   25.7512 C   0  0  0  0  0  0  0  0  0  0  0  0
    8.1829  -12.5229   26.6331 C   0  0  0  0  0  0  0  0  0  0  0  0
    8.7436  -13.6169   27.2916 C   0  0  0  0  0  0  0  0  0  0  0  0
    8.2837  -14.8983   27.0797 C   0  0  0  0  0  0  0  0  0  0  0  0
    8.9128  -16.0089   27.8009 C   0  0  0  0  0  0  0  0  0  0  0  0
   10.2475  -16.4199   27.2201 C   0  0  2  0  0  0  0  0  0  0  0  0
   10.2102  -16.6029   25.8043 N   0  0  0  0  0  0  0  0  0  0  0  0
   10.6222  -17.6996   27.8585 C   0  0  0  0  0  0  0  0  0  0  0  0
   10.8032  -17.7293   29.2271 O   0  0  0  0  0  0  0  0  0  0  0  0
    7.2456  -15.0516   26.1886 C   0  0  0  0  0  0  0  0  0  0  0  0
    6.6742  -13.9789   25.5238 C   0  0  0  0  0  0  0  0  0  0  0  0
   10.7886  -18.7764   27.2270 O   0  0  0  0  0  0  0  0  0  0  0  0
  2  1  1  0
  2  3  1  0
  3  4  1  1
  5  3  1  0
  5  6  1  1
  7  5  1  0
  7  9  1  0
  8  7  2  0
 10  9  1  0
 11 10  1  0
 12 11  2  0
 13 14  1  0
 14 24  2  0
 14 15  1  0
 15 16  2  0
 16 17  1  0
 17 18  1  0
 19 18  1  1
 19 20  1  0
 20 11  1  0
 21 22  1  0
 21 19  1  0
 23 17  2  0
 24 23  1  0
 25 21  2  0
M  END
$$$$
