IGY.pdb
     RDKit          3D

 25 25  0  0  1  0  0  0  0  0999 V2000
    7.4062  -12.3470   21.7383 C   0  0  0  0  0  0  0  0  0  0  0  0
    7.8473  -13.7666   22.0256 C   0  0  0  0  0  0  0  0  0  0  0  0
    7.7172  -14.6058   20.7737 C   0  0  2  0  0  0  0  0  0  0  0  0
    6.2894  -14.6745   20.3165 C   0  0  0  0  0  0  0  0  0  0  0  0
    8.2689  -15.9987   21.0731 C   0  0  2  0  0  0  0  0  0  0  0  0
    7.3903  -16.6681   21.9907 N   0  0  0  0  0  0  0  0  0  0  0  0
    9.6560  -15.8833   21.6169 C   0  0  0  0  0  0  0  0  0  0  0  0
   10.5518  -15.3810   20.8947 O   0  0  0  0  0  0  0  0  0  0  0  0
    9.9917  -16.3202   22.9150 N   0  0  0  0  0  0  0  0  0  0  0  0
   11.3138  -16.1112   23.4637 C   0  0  0  0  0  0  0  0  0  0  0  0
   11.3036  -16.1170   24.9439 C   0  0  0  0  0  0  0  0  0  0  0  0
   12.3833  -15.9410   25.5515 O   0  0  0  0  0  0  0  0  0  0  0  0
    6.4805  -11.2859   25.9054 O   0  0  0  0  0  0  0  0  0  0  0  0
    7.0894  -12.4473   26.3849 C   0  0  0  0  0  0  0  0  0  0  0  0
    6.6136  -13.6764   26.0032 C   0  0  0  0  0  0  0  0  0  0  0  0
    7.2222  -14.8361   26.4825 C   0  0  0  0  0  0  0  0  0  0  0  0
    8.3005  -14.7826   27.3386 C   0  0  0  0  0  0  0  0  0  0  0  0
    8.8986  -16.0356   27.8093 C   0  0  0  0  0  0  0  0  0  0  0  0
   10.2063  -16.3682   27.1260 C   0  0  2  0  0  0  0  0  0  0  0  0
   10.1244  -16.3131   25.7014 N   0  0  0  0  0  0  0  0  0  0  0  0
   10.5699  -17.7426   27.5319 C   0  0  0  0  0  0  0  0  0  0  0  0
   10.6406  -18.7230   26.5621 O   0  0  0  0  0  0  0  0  0  0  0  0
    8.7512  -13.5333   27.7005 C   0  0  0  0  0  0  0  0  0  0  0  0
    8.1616  -12.3688   27.2363 C   0  0  0  0  0  0  0  0  0  0  0  0
   10.8221  -18.0801   28.7187 O   0  0  0  0  0  0  0  0  0  0  0  0
  2  1  1  0
  2  3  1  0
  3  4  1  1
  5  3  1  0
  5  6  1  1
  7  5  1  0
  7  9  1  0
  8  7  2  0
 10  9  1  0
 11 10  1  0
 12 11  2  0
 13 14  1  0
 14 24  2  0
 14 15  1  0
 15 16  2  0
 16 17  1  0
 17 18  1  0
 19 18  1  1
 19 20  1  0
 20 11  1  0
 21 22  1  0
 21 19  1  0
 23 17  2  0
 24 23  1  0
 25 21  2  0
M  END
$$$$
