IGY.pdb
     RDKit          3D

 25 25  0  0  1  0  0  0  0  0999 V2000
    7.4024  -12.1425   22.2292 C   0  0  0  0  0  0  0  0  0  0  0  0
    7.4774  -13.5966   21.8144 C   0  0  0  0  0  0  0  0  0  0  0  0
    8.5571  -13.7754   20.7700 C   0  0  2  0  0  0  0  0  0  0  0  0
    8.2325  -13.0077   19.5219 C   0  0  0  0  0  0  0  0  0  0  0  0
    8.6976  -15.2687   20.4791 C   0  0  2  0  0  0  0  0  0  0  0  0
    7.4231  -15.7940   20.0766 N   0  0  0  0  0  0  0  0  0  0  0  0
    9.2294  -15.9680   21.6879 C   0  0  0  0  0  0  0  0  0  0  0  0
   10.3677  -15.6580   22.1174 O   0  0  0  0  0  0  0  0  0  0  0  0
    8.4943  -16.9648   22.3621 N   0  0  0  0  0  0  0  0  0  0  0  0
    9.0681  -17.7152   23.4577 C   0  0  0  0  0  0  0  0  0  0  0  0
    9.1342  -16.9135   24.7002 C   0  0  0  0  0  0  0  0  0  0  0  0
    8.1152  -16.2839   25.0623 O   0  0  0  0  0  0  0  0  0  0  0  0
    6.0449  -11.3408   26.1542 O   0  0  0  0  0  0  0  0  0  0  0  0
    6.7484  -12.5097   26.4514 C   0  0  0  0  0  0  0  0  0  0  0  0
    6.1745  -13.7328   26.2117 C   0  0  0  0  0  0  0  0  0  0  0  0
    6.8776  -14.9000   26.5088 C   0  0  0  0  0  0  0  0  0  0  0  0
    8.1472  -14.8600   27.0425 C   0  0  0  0  0  0  0  0  0  0  0  0
    8.8369  -16.1203   27.3342 C   0  0  0  0  0  0  0  0  0  0  0  0
   10.2380  -16.1807   26.7675 C   0  0  2  0  0  0  0  0  0  0  0  0
   10.3011  -16.8287   25.4965 N   0  0  0  0  0  0  0  0  0  0  0  0
   11.0633  -16.9381   27.7325 C   0  0  0  0  0  0  0  0  0  0  0  0
   11.6770  -18.1007   27.3103 O   0  0  0  0  0  0  0  0  0  0  0  0
    8.6919  -13.6163   27.2699 C   0  0  0  0  0  0  0  0  0  0  0  0
    8.0112  -12.4445   26.9822 C   0  0  0  0  0  0  0  0  0  0  0  0
   11.2444  -16.5867   28.9282 O   0  0  0  0  0  0  0  0  0  0  0  0
  2  1  1  0
  2  3  1  0
  3  4  1  6
  5  3  1  0
  5  6  1  1
  7  5  1  0
  7  9  1  0
  8  7  2  0
 10  9  1  0
 11 10  1  0
 12 11  2  0
 13 14  1  0
 14 24  2  0
 14 15  1  0
 15 16  2  0
 16 17  1  0
 17 18  1  0
 19 18  1  1
 19 20  1  0
 20 11  1  0
 21 22  1  0
 21 19  1  0
 23 17  2  0
 24 23  1  0
 25 21  2  0
M  END
$$$$
