IGY.pdb
     RDKit          3D

 25 25  0  0  1  0  0  0  0  0999 V2000
    7.0664  -12.5259   18.7874 C   0  0  0  0  0  0  0  0  0  0  0  0
    6.8905  -13.8329   19.5310 C   0  0  0  0  0  0  0  0  0  0  0  0
    8.0864  -14.0777   20.4246 C   0  0  2  0  0  0  0  0  0  0  0  0
    9.3550  -14.1335   19.6246 C   0  0  0  0  0  0  0  0  0  0  0  0
    7.8552  -15.3824   21.1851 C   0  0  2  0  0  0  0  0  0  0  0  0
    6.4939  -15.4299   21.6397 N   0  0  0  0  0  0  0  0  0  0  0  0
    8.8229  -15.4807   22.3196 C   0  0  0  0  0  0  0  0  0  0  0  0
    8.7328  -14.6624   23.2675 O   0  0  0  0  0  0  0  0  0  0  0  0
    9.8341  -16.4627   22.3602 N   0  0  0  0  0  0  0  0  0  0  0  0
   10.9621  -16.3484   23.2588 C   0  0  0  0  0  0  0  0  0  0  0  0
   10.5435  -16.3965   24.6778 C   0  0  0  0  0  0  0  0  0  0  0  0
   11.3441  -15.9974   25.5528 O   0  0  0  0  0  0  0  0  0  0  0  0
    6.7729  -11.0437   26.0381 O   0  0  0  0  0  0  0  0  0  0  0  0
    6.9722  -12.4129   26.2259 C   0  0  0  0  0  0  0  0  0  0  0  0
    7.5662  -12.8659   27.3769 C   0  0  0  0  0  0  0  0  0  0  0  0
    7.7650  -14.2335   27.5639 C   0  0  0  0  0  0  0  0  0  0  0  0
    7.3776  -15.1541   26.6148 C   0  0  0  0  0  0  0  0  0  0  0  0
    7.6128  -16.5790   26.8673 C   0  0  0  0  0  0  0  0  0  0  0  0
    9.0022  -17.0340   26.4797 C   0  0  2  0  0  0  0  0  0  0  0  0
    9.2760  -16.8748   25.0872 N   0  0  0  0  0  0  0  0  0  0  0  0
    9.1008  -18.4678   26.8262 C   0  0  0  0  0  0  0  0  0  0  0  0
    9.0225  -18.8353   28.1549 O   0  0  0  0  0  0  0  0  0  0  0  0
    6.7851  -14.6644   25.4727 C   0  0  0  0  0  0  0  0  0  0  0  0
    6.5781  -13.3102   25.2667 C   0  0  0  0  0  0  0  0  0  0  0  0
    9.2535  -19.3858   25.9776 O   0  0  0  0  0  0  0  0  0  0  0  0
  2  1  1  0
  2  3  1  0
  3  4  1  6
  5  3  1  0
  5  6  1  1
  7  5  1  0
  7  9  1  0
  8  7  2  0
 10  9  1  0
 11 10  1  0
 12 11  2  0
 13 14  1  0
 14 24  2  0
 14 15  1  0
 15 16  2  0
 16 17  1  0
 17 18  1  0
 19 18  1  6
 19 20  1  0
 20 11  1  0
 21 22  1  0
 21 19  1  0
 23 17  2  0
 24 23  1  0
 25 21  2  0
M  END
$$$$
