IGY.pdb
     RDKit          3D

 25 25  0  0  1  0  0  0  0  0999 V2000
    7.5441  -19.8597   16.8542 C   0  0  0  0  0  0  0  0  0  0  0  0
    7.3508  -19.5987   18.3329 C   0  0  0  0  0  0  0  0  0  0  0  0
    8.3393  -18.5536   18.8011 C   0  0  2  0  0  0  0  0  0  0  0  0
    9.7479  -18.9634   18.4845 C   0  0  0  0  0  0  0  0  0  0  0  0
    8.1468  -18.3533   20.3034 C   0  0  2  0  0  0  0  0  0  0  0  0
    6.7681  -18.0506   20.5673 N   0  0  0  0  0  0  0  0  0  0  0  0
    9.0552  -17.2693   20.7860 C   0  0  0  0  0  0  0  0  0  0  0  0
   10.2929  -17.4791   20.8089 O   0  0  0  0  0  0  0  0  0  0  0  0
    8.5676  -16.0181   21.2167 N   0  0  0  0  0  0  0  0  0  0  0  0
    9.4640  -14.9530   21.6101 C   0  0  0  0  0  0  0  0  0  0  0  0
    9.8637  -15.0654   23.0308 C   0  0  0  0  0  0  0  0  0  0  0  0
   10.6721  -14.2301   23.4940 O   0  0  0  0  0  0  0  0  0  0  0  0
    5.7409  -10.9558   25.7558 O   0  0  0  0  0  0  0  0  0  0  0  0
    6.3813  -12.1938   25.8388 C   0  0  0  0  0  0  0  0  0  0  0  0
    7.5577  -12.3098   26.5356 C   0  0  0  0  0  0  0  0  0  0  0  0
    8.1969  -13.5465   26.6182 C   0  0  0  0  0  0  0  0  0  0  0  0
    7.6749  -14.6689   26.0131 C   0  0  0  0  0  0  0  0  0  0  0  0
    8.3919  -15.9418   26.1346 C   0  0  0  0  0  0  0  0  0  0  0  0
    9.6435  -16.0068   25.2879 C   0  0  2  0  0  0  0  0  0  0  0  0
    9.3702  -16.0777   23.8880 N   0  0  0  0  0  0  0  0  0  0  0  0
   10.3789  -17.2232   25.6943 C   0  0  0  0  0  0  0  0  0  0  0  0
   10.6062  -18.2061   24.7515 O   0  0  0  0  0  0  0  0  0  0  0  0
    6.4937  -14.5160   25.3228 C   0  0  0  0  0  0  0  0  0  0  0  0
    5.8423  -13.2970   25.2281 C   0  0  0  0  0  0  0  0  0  0  0  0
   10.8162  -17.4226   26.8584 O   0  0  0  0  0  0  0  0  0  0  0  0
  2  1  1  0
  2  3  1  0
  3  4  1  1
  5  3  1  0
  5  6  1  6
  7  5  1  0
  7  9  1  0
  8  7  2  0
 10  9  1  0
 11 10  1  0
 12 11  2  0
 13 14  1  0
 14 24  2  0
 14 15  1  0
 15 16  2  0
 16 17  1  0
 17 18  1  0
 19 18  1  1
 19 20  1  0
 20 11  1  0
 21 22  1  0
 21 19  1  0
 23 17  2  0
 24 23  1  0
 25 21  2  0
M  END
$$$$
