VHM.pdb
     RDKit          3D

 26 26  0  0  1  0  0  0  0  0999 V2000
   21.8442  -20.4569  -15.8503 C   0  0  0  0  0  0  0  0  0  0  0  0
   22.3241  -20.5510  -17.2669 C   0  0  1  0  0  0  0  0  0  0  0  0
   21.2252  -20.1982  -18.2570 C   0  0  0  0  0  0  0  0  0  0  0  0
   23.5320  -19.6946  -17.4808 C   0  0  2  0  0  0  0  0  0  0  0  0
   24.0327  -19.8898  -18.8633 N   0  0  0  0  0  0  0  0  0  0  0  0
   24.6617  -20.0143  -16.5798 C   0  0  0  0  0  0  0  0  0  0  0  0
   25.3145  -21.1033  -16.7858 O   0  0  0  0  0  0  0  0  0  0  0  0
   25.1103  -19.2371  -15.5007 N   0  0  0  0  0  0  0  0  0  0  0  0
   26.2572  -19.6979  -14.6693 C   0  0  1  0  0  0  0  0  0  0  0  0
   27.2792  -18.6274  -14.8413 C   0  0  0  0  0  0  0  0  0  0  0  0
   28.0666  -18.6365  -16.0651 C   0  0  0  0  0  0  0  0  0  0  0  0
   28.0757  -19.5359  -17.1029 C   0  0  0  0  0  0  0  0  0  0  0  0
   28.9833  -19.1839  -18.0363 N   0  0  0  0  0  0  0  0  0  0  0  0
   29.5555  -18.0521  -17.5879 C   0  0  0  0  0  0  0  0  0  0  0  0
   29.0166  -17.7199  -16.4173 N   0  0  0  0  0  0  0  0  0  0  0  0
   25.7324  -19.9072  -13.3234 C   0  0  0  0  0  0  0  0  0  0  0  0
   24.9718  -19.0618  -12.7933 O   0  0  0  0  0  0  0  0  0  0  0  0
   27.1722  -19.9265   -6.0544 C   0  0  0  0  0  0  0  0  0  0  0  0
   27.5264  -19.8247   -7.7977 S   0  0  0  0  0  0  0  0  0  0  0  0
   26.3138  -20.5987   -8.8408 C   0  0  0  0  0  0  0  0  0  0  0  0
   26.6020  -20.6295  -10.2969 C   0  0  0  0  0  0  0  0  0  0  0  0
   25.5601  -21.2161  -11.1906 C   0  0  2  0  0  0  0  0  0  0  0  0
   26.0375  -21.0499  -12.5598 N   0  0  0  0  0  0  0  0  0  0  0  0
   24.2440  -20.6400  -10.9300 C   0  0  0  0  0  0  0  0  0  0  0  0
   23.6959  -19.6227  -11.6676 O   0  0  0  0  0  0  0  0  0  0  0  0
   23.5494  -21.0836   -9.9822 O   0  0  0  0  0  0  0  0  0  0  0  0
  2  4  1  0
  2  1  1  1
  3  2  1  0
  4  6  1  0
  4  5  1  6
  6  7  2  0
  8  9  1  0
  8  6  1  0
  9 16  1  0
 10 11  1  0
  9 10  1  1
 11 15  1  0
 12 11  2  0
 12 13  1  0
 13 14  1  0
 15 14  2  0
 16 17  2  0
 18 19  1  0
 19 20  1  0
 20 21  1  0
 22 21  1  1
 22 24  1  0
 23 22  1  0
 23 16  1  0
 24 26  2  0
 24 25  1  0
M  END
$$$$
