VHM.pdb
     RDKit          3D

 26 26  0  0  1  0  0  0  0  0999 V2000
   28.7550  -18.9733  -14.0020 C   0  0  0  0  0  0  0  0  0  0  0  0
   27.8026  -18.4236  -15.0202 C   0  0  1  0  0  0  0  0  0  0  0  0
   28.4565  -18.2895  -16.3865 C   0  0  0  0  0  0  0  0  0  0  0  0
   26.5637  -19.2583  -15.0996 C   0  0  2  0  0  0  0  0  0  0  0  0
   25.6222  -18.6471  -16.0692 N   0  0  0  0  0  0  0  0  0  0  0  0
   25.8301  -19.3672  -13.8189 C   0  0  0  0  0  0  0  0  0  0  0  0
   25.3008  -18.3022  -13.3287 O   0  0  0  0  0  0  0  0  0  0  0  0
   25.6423  -20.5359  -13.0649 N   0  0  0  0  0  0  0  0  0  0  0  0
   24.8910  -20.4875  -11.7796 C   0  0  1  0  0  0  0  0  0  0  0  0
   23.7704  -21.4485  -11.9816 C   0  0  0  0  0  0  0  0  0  0  0  0
   22.5676  -20.9547  -12.6353 C   0  0  0  0  0  0  0  0  0  0  0  0
   22.2349  -19.6815  -13.0280 C   0  0  0  0  0  0  0  0  0  0  0  0
   21.0026  -19.6536  -13.5752 N   0  0  0  0  0  0  0  0  0  0  0  0
   20.5487  -20.9190  -13.5297 C   0  0  0  0  0  0  0  0  0  0  0  0
   21.4723  -21.6985  -12.9728 N   0  0  0  0  0  0  0  0  0  0  0  0
   25.8537  -20.7991  -10.7277 C   0  0  0  0  0  0  0  0  0  0  0  0
   26.6140  -21.7922  -10.8283 O   0  0  0  0  0  0  0  0  0  0  0  0
   29.0210  -19.0732   -3.6709 C   0  0  0  0  0  0  0  0  0  0  0  0
   28.3586  -18.5643   -5.2448 S   0  0  0  0  0  0  0  0  0  0  0  0
   27.5242  -19.8512   -6.1423 C   0  0  0  0  0  0  0  0  0  0  0  0
   27.1081  -19.5389   -7.5328 C   0  0  0  0  0  0  0  0  0  0  0  0
   26.3643  -20.5955   -8.2803 C   0  0  2  0  0  0  0  0  0  0  0  0
   25.9873  -20.0158   -9.5656 N   0  0  0  0  0  0  0  0  0  0  0  0
   25.2489  -21.1211   -7.4983 C   0  0  0  0  0  0  0  0  0  0  0  0
   23.9724  -20.6251   -7.5595 O   0  0  0  0  0  0  0  0  0  0  0  0
   25.4397  -22.0856   -6.7166 O   0  0  0  0  0  0  0  0  0  0  0  0
  2  4  1  0
  2  1  1  1
  3  2  1  0
  4  6  1  0
  4  5  1  6
  6  7  2  0
  8  9  1  0
  8  6  1  0
  9 16  1  0
 10 11  1  0
  9 10  1  6
 11 15  1  0
 12 11  2  0
 12 13  1  0
 13 14  1  0
 15 14  2  0
 16 17  2  0
 18 19  1  0
 19 20  1  0
 20 21  1  0
 22 21  1  1
 22 24  1  0
 23 22  1  0
 23 16  1  0
 24 26  2  0
 24 25  1  0
M  END
$$$$
