VHM.pdb
     RDKit          3D

 26 26  0  0  1  0  0  0  0  0999 V2000
   28.0363  -18.3653  -16.3305 C   0  0  0  0  0  0  0  0  0  0  0  0
   28.0442  -19.4117  -15.2577 C   0  0  1  0  0  0  0  0  0  0  0  0
   28.4657  -18.8363  -13.9147 C   0  0  0  0  0  0  0  0  0  0  0  0
   26.7120  -20.0849  -15.1569 C   0  0  2  0  0  0  0  0  0  0  0  0
   25.8017  -19.5270  -16.1865 N   0  0  0  0  0  0  0  0  0  0  0  0
   26.0374  -19.8889  -13.8544 C   0  0  0  0  0  0  0  0  0  0  0  0
   25.5274  -18.7354  -13.6011 O   0  0  0  0  0  0  0  0  0  0  0  0
   25.8876  -20.8497  -12.8425 N   0  0  0  0  0  0  0  0  0  0  0  0
   25.1649  -20.5096  -11.5852 C   0  0  1  0  0  0  0  0  0  0  0  0
   23.8962  -21.2853  -11.6783 C   0  0  0  0  0  0  0  0  0  0  0  0
   22.8488  -20.7644  -12.5440 C   0  0  0  0  0  0  0  0  0  0  0  0
   22.4151  -21.2059  -13.7700 C   0  0  0  0  0  0  0  0  0  0  0  0
   21.4333  -20.4136  -14.2467 N   0  0  0  0  0  0  0  0  0  0  0  0
   21.2418  -19.4611  -13.3164 C   0  0  0  0  0  0  0  0  0  0  0  0
   22.0788  -19.6620  -12.3015 N   0  0  0  0  0  0  0  0  0  0  0  0
   26.0687  -20.8410  -10.4880 C   0  0  0  0  0  0  0  0  0  0  0  0
   26.5921  -21.9787  -10.4101 O   0  0  0  0  0  0  0  0  0  0  0  0
   29.1439  -19.4413   -3.5358 C   0  0  0  0  0  0  0  0  0  0  0  0
   28.9759  -19.1520   -5.2859 S   0  0  0  0  0  0  0  0  0  0  0  0
   27.3094  -19.2613   -5.8927 C   0  0  0  0  0  0  0  0  0  0  0  0
   27.1189  -19.1331   -7.3595 C   0  0  0  0  0  0  0  0  0  0  0  0
   26.6203  -20.3329   -8.0943 C   0  0  2  0  0  0  0  0  0  0  0  0
   26.4045  -19.9200   -9.4775 N   0  0  0  0  0  0  0  0  0  0  0  0
   25.4499  -20.9132   -7.4420 C   0  0  0  0  0  0  0  0  0  0  0  0
   24.1678  -20.4689   -7.6373 O   0  0  0  0  0  0  0  0  0  0  0  0
   25.5954  -21.8786   -6.6518 O   0  0  0  0  0  0  0  0  0  0  0  0
  2  4  1  0
  2  1  1  6
  3  2  1  0
  4  6  1  0
  4  5  1  6
  6  7  2  0
  8  9  1  0
  8  6  1  0
  9 16  1  0
 10 11  1  0
  9 10  1  1
 11 15  1  0
 12 11  2  0
 12 13  1  0
 13 14  1  0
 15 14  2  0
 16 17  2  0
 18 19  1  0
 19 20  1  0
 20 21  1  0
 22 21  1  1
 22 24  1  0
 23 22  1  0
 23 16  1  0
 24 26  2  0
 24 25  1  0
M  END
$$$$
