VHM.pdb
     RDKit          3D

 26 26  0  0  1  0  0  0  0  0999 V2000
   29.0284  -18.4302  -16.3438 C   0  0  0  0  0  0  0  0  0  0  0  0
   28.1532  -18.4022  -15.1277 C   0  0  1  0  0  0  0  0  0  0  0  0
   27.4387  -17.0680  -14.9803 C   0  0  0  0  0  0  0  0  0  0  0  0
   27.1748  -19.5338  -15.1462 C   0  0  2  0  0  0  0  0  0  0  0  0
   26.2686  -19.3793  -16.3102 N   0  0  0  0  0  0  0  0  0  0  0  0
   26.3075  -19.5972  -13.9488 C   0  0  0  0  0  0  0  0  0  0  0  0
   25.6206  -18.5545  -13.6395 O   0  0  0  0  0  0  0  0  0  0  0  0
   26.1472  -20.6998  -13.0955 N   0  0  0  0  0  0  0  0  0  0  0  0
   25.2546  -20.6057  -11.9067 C   0  0  1  0  0  0  0  0  0  0  0  0
   24.1928  -21.6165  -12.1731 C   0  0  0  0  0  0  0  0  0  0  0  0
   23.1754  -21.2827  -13.1585 C   0  0  0  0  0  0  0  0  0  0  0  0
   23.0608  -20.1821  -13.9719 C   0  0  0  0  0  0  0  0  0  0  0  0
   21.9428  -20.2534  -14.7228 N   0  0  0  0  0  0  0  0  0  0  0  0
   21.3422  -21.4083  -14.3838 C   0  0  0  0  0  0  0  0  0  0  0  0
   22.0679  -22.0260  -13.4549 N   0  0  0  0  0  0  0  0  0  0  0  0
   26.1013  -20.8219  -10.7376 C   0  0  0  0  0  0  0  0  0  0  0  0
   27.0218  -21.6744  -10.7617 O   0  0  0  0  0  0  0  0  0  0  0  0
   29.1795  -18.9895   -3.7835 C   0  0  0  0  0  0  0  0  0  0  0  0
   28.5848  -18.5683   -5.4095 S   0  0  0  0  0  0  0  0  0  0  0  0
   27.6303  -19.8439   -6.1966 C   0  0  0  0  0  0  0  0  0  0  0  0
   27.1875  -19.5880   -7.5904 C   0  0  0  0  0  0  0  0  0  0  0  0
   26.3530  -20.6360   -8.2488 C   0  0  2  0  0  0  0  0  0  0  0  0
   25.9423  -20.0968   -9.5414 N   0  0  0  0  0  0  0  0  0  0  0  0
   25.2527  -21.0635   -7.3895 C   0  0  0  0  0  0  0  0  0  0  0  0
   25.4194  -21.7937   -6.2413 O   0  0  0  0  0  0  0  0  0  0  0  0
   24.0731  -20.7571   -7.6937 O   0  0  0  0  0  0  0  0  0  0  0  0
  2  4  1  0
  2  1  1  6
  3  2  1  0
  4  6  1  0
  4  5  1  6
  6  7  2  0
  8  9  1  0
  8  6  1  0
  9 16  1  0
 10 11  1  0
  9 10  1  6
 11 15  1  0
 12 11  2  0
 12 13  1  0
 13 14  1  0
 15 14  2  0
 16 17  2  0
 18 19  1  0
 19 20  1  0
 20 21  1  0
 22 21  1  1
 22 24  1  0
 23 22  1  0
 23 16  1  0
 24 26  2  0
 24 25  1  0
M  END
$$$$
