VHM.pdb
     RDKit          3D

 26 26  0  0  1  0  0  0  0  0999 V2000
   26.4692  -15.2916  -14.8663 C   0  0  0  0  0  0  0  0  0  0  0  0
   26.1913  -16.5765  -14.1468 C   0  0  1  0  0  0  0  0  0  0  0  0
   24.7147  -16.7276  -13.8166 C   0  0  0  0  0  0  0  0  0  0  0  0
   26.6861  -17.7485  -14.9339 C   0  0  2  0  0  0  0  0  0  0  0  0
   25.8862  -17.8776  -16.1762 N   0  0  0  0  0  0  0  0  0  0  0  0
   26.5656  -19.0419  -14.2248 C   0  0  0  0  0  0  0  0  0  0  0  0
   25.4732  -19.7082  -14.3565 O   0  0  0  0  0  0  0  0  0  0  0  0
   27.5393  -19.6357  -13.4069 N   0  0  0  0  0  0  0  0  0  0  0  0
   27.2827  -20.9599  -12.7746 C   0  0  1  0  0  0  0  0  0  0  0  0
   28.3778  -21.8255  -13.2957 C   0  0  0  0  0  0  0  0  0  0  0  0
   28.3220  -22.2141  -14.6969 C   0  0  0  0  0  0  0  0  0  0  0  0
   27.3523  -21.9796  -15.6408 C   0  0  0  0  0  0  0  0  0  0  0  0
   27.6832  -22.5431  -16.8205 N   0  0  0  0  0  0  0  0  0  0  0  0
   28.8724  -23.1405  -16.6247 C   0  0  0  0  0  0  0  0  0  0  0  0
   29.2591  -22.9500  -15.3657 N   0  0  0  0  0  0  0  0  0  0  0  0
   27.2456  -20.7282  -11.3340 C   0  0  0  0  0  0  0  0  0  0  0  0
   28.2570  -20.2999  -10.7273 O   0  0  0  0  0  0  0  0  0  0  0  0
   28.1433  -19.5754   -4.7734 C   0  0  0  0  0  0  0  0  0  0  0  0
   27.9459  -20.0494   -6.4797 S   0  0  0  0  0  0  0  0  0  0  0  0
   26.7671  -19.0731   -7.3824 C   0  0  0  0  0  0  0  0  0  0  0  0
   26.5502  -19.4301   -8.8071 C   0  0  0  0  0  0  0  0  0  0  0  0
   26.0988  -20.8214   -9.1051 C   0  0  2  0  0  0  0  0  0  0  0  0
   26.0942  -20.9607  -10.5579 N   0  0  0  0  0  0  0  0  0  0  0  0
   24.8235  -21.1211   -8.4602 C   0  0  0  0  0  0  0  0  0  0  0  0
   23.6228  -21.1549   -9.1209 O   0  0  0  0  0  0  0  0  0  0  0  0
   24.7941  -21.3685   -7.2291 O   0  0  0  0  0  0  0  0  0  0  0  0
  2  4  1  0
  2  1  1  6
  3  2  1  0
  4  6  1  0
  4  5  1  6
  6  7  2  0
  8  9  1  0
  8  6  1  0
  9 16  1  0
 10 11  1  0
  9 10  1  1
 11 15  1  0
 12 11  2  0
 12 13  1  0
 13 14  1  0
 15 14  2  0
 16 17  2  0
 18 19  1  0
 19 20  1  0
 20 21  1  0
 22 21  1  6
 22 24  1  0
 23 22  1  0
 23 16  1  0
 24 26  2  0
 24 25  1  0
M  END
$$$$
