VHM.pdb
     RDKit          3D

 26 26  0  0  1  0  0  0  0  0999 V2000
   19.7049  -19.0170  -15.2346 C   0  0  0  0  0  0  0  0  0  0  0  0
   19.9080  -19.7391  -13.9372 C   0  0  1  0  0  0  0  0  0  0  0  0
   19.1937  -21.0814  -13.9235 C   0  0  0  0  0  0  0  0  0  0  0  0
   21.3646  -19.9051  -13.6394 C   0  0  2  0  0  0  0  0  0  0  0  0
   22.0138  -20.6322  -14.7574 N   0  0  0  0  0  0  0  0  0  0  0  0
   21.6415  -20.6900  -12.4157 C   0  0  0  0  0  0  0  0  0  0  0  0
   21.5973  -21.9732  -12.4933 O   0  0  0  0  0  0  0  0  0  0  0  0
   21.9580  -20.1729  -11.1500 N   0  0  0  0  0  0  0  0  0  0  0  0
   22.2145  -21.0921  -10.0062 C   0  0  1  0  0  0  0  0  0  0  0  0
   23.3674  -20.4700   -9.2963 C   0  0  0  0  0  0  0  0  0  0  0  0
   24.6729  -20.5446   -9.9350 C   0  0  0  0  0  0  0  0  0  0  0  0
   25.0362  -21.0908  -11.1415 C   0  0  0  0  0  0  0  0  0  0  0  0
   26.3644  -20.9717  -11.3428 N   0  0  0  0  0  0  0  0  0  0  0  0
   26.8489  -20.3450  -10.2556 C   0  0  0  0  0  0  0  0  0  0  0  0
   25.8505  -20.0876   -9.4142 N   0  0  0  0  0  0  0  0  0  0  0  0
   20.9577  -21.1959   -9.2712 C   0  0  0  0  0  0  0  0  0  0  0  0
   20.0433  -20.3539   -9.4429 O   0  0  0  0  0  0  0  0  0  0  0  0
   16.8030  -23.1263  -12.1483 C   0  0  0  0  0  0  0  0  0  0  0  0
   16.7170  -24.3237  -10.8316 S   0  0  0  0  0  0  0  0  0  0  0  0
   17.4053  -23.7714   -9.2893 C   0  0  0  0  0  0  0  0  0  0  0  0
   18.7919  -23.2419   -9.3240 C   0  0  0  0  0  0  0  0  0  0  0  0
   19.3455  -22.6837   -8.0551 C   0  0  2  0  0  0  0  0  0  0  0  0
   20.7007  -22.2295   -8.3506 N   0  0  0  0  0  0  0  0  0  0  0  0
   19.2501  -23.6447   -6.9600 C   0  0  0  0  0  0  0  0  0  0  0  0
   18.1014  -23.8835   -6.2510 O   0  0  0  0  0  0  0  0  0  0  0  0
   20.2635  -24.3079   -6.6268 O   0  0  0  0  0  0  0  0  0  0  0  0
  2  4  1  0
  2  1  1  6
  3  2  1  0
  4  6  1  0
  4  5  1  6
  6  7  2  0
  8  9  1  0
  8  6  1  0
  9 16  1  0
 10 11  1  0
  9 10  1  1
 11 15  1  0
 12 11  2  0
 12 13  1  0
 13 14  1  0
 15 14  2  0
 16 17  2  0
 18 19  1  0
 19 20  1  0
 20 21  1  0
 22 21  1  6
 22 24  1  0
 23 22  1  0
 23 16  1  0
 24 26  2  0
 24 25  1  0
M  END
$$$$
