SSQ.pdb
     RDKit          3D

 22 21  0  0  1  0  0  0  0  0999 V2000
   18.4720  -13.5870  -15.5934 O   0  0  0  0  0  0  0  0  0  0  0  0
   18.9802  -13.4444  -16.8828 C   0  0  0  0  0  0  0  0  0  0  0  0
   19.0601  -11.9747  -17.2785 C   0  0  2  0  0  0  0  0  0  0  0  0
   19.5268  -11.8060  -18.6214 N   0  0  0  0  0  0  0  0  0  0  0  0
   19.9209  -11.2338  -16.3097 C   0  0  0  0  0  0  0  0  0  0  0  0
   19.5665  -11.0137  -15.1298 O   0  0  0  0  0  0  0  0  0  0  0  0
   23.4710   -9.4719  -17.7133 O   0  0  0  0  0  0  0  0  0  0  0  0
   23.4101   -9.9713  -16.4224 C   0  0  0  0  0  0  0  0  0  0  0  0
   22.0023   -9.9666  -15.8639 C   0  0  2  0  0  0  0  0  0  0  0  0
   21.1793  -10.7679  -16.7489 N   0  0  0  0  0  0  0  0  0  0  0  0
   21.5155   -8.5461  -15.9901 C   0  0  0  0  0  0  0  0  0  0  0  0
   20.9242   -8.2041  -17.0456 O   0  0  0  0  0  0  0  0  0  0  0  0
   17.4519   -4.0086  -16.9476 N   0  0  0  0  0  0  0  0  0  0  0  0
   17.8285   -5.1250  -16.1504 C   0  0  0  0  0  0  0  0  0  0  0  0
   17.1589   -6.1687  -16.2717 O   0  0  0  0  0  0  0  0  0  0  0  0
   18.9820   -5.0440  -15.2066 C   0  0  0  0  0  0  0  0  0  0  0  0
   19.6756   -6.3676  -15.2067 C   0  0  0  0  0  0  0  0  0  0  0  0
   21.1738   -6.2504  -15.1625 C   0  0  2  0  0  0  0  0  0  0  0  0
   21.6931   -7.5917  -14.9833 N   0  0  0  0  0  0  0  0  0  0  0  0
   21.7030   -5.3918  -14.1084 C   0  0  0  0  0  0  0  0  0  0  0  0
   22.2772   -5.7969  -13.0652 O   0  0  0  0  0  0  0  0  0  0  0  0
   21.5833   -4.0157  -14.2289 O   0  0  0  0  0  0  0  0  0  0  0  0
  2  1  1  0
  3  2  1  0
  3  4  1  6
  5  3  1  0
  5 10  1  0
  6  5  2  0
  9  8  1  6
  8  7  1  0
  9 10  1  0
  9 11  1  0
 11 19  1  0
 11 12  2  0
 14 16  1  0
 14 13  1  0
 15 14  2  0
 18 17  1  1
 17 16  1  0
 18 20  1  0
 19 18  1  0
 20 22  1  0
 21 20  2  0
M  END
$$$$
