SSQ.pdb
     RDKit          3D

 22 21  0  0  1  0  0  0  0  0999 V2000
   16.3394  -10.6222  -17.8795 O   0  0  0  0  0  0  0  0  0  0  0  0
   17.2503  -10.0562  -16.9902 C   0  0  0  0  0  0  0  0  0  0  0  0
   18.2562  -11.0936  -16.5053 C   0  0  2  0  0  0  0  0  0  0  0  0
   17.6162  -12.1998  -15.8601 N   0  0  0  0  0  0  0  0  0  0  0  0
   19.2577  -10.4484  -15.6056 C   0  0  0  0  0  0  0  0  0  0  0  0
   18.9653  -10.0428  -14.4583 O   0  0  0  0  0  0  0  0  0  0  0  0
   22.9547   -9.7142  -17.2359 O   0  0  0  0  0  0  0  0  0  0  0  0
   22.9180   -9.8393  -15.8566 C   0  0  0  0  0  0  0  0  0  0  0  0
   21.5452   -9.5538  -15.2840 C   0  0  2  0  0  0  0  0  0  0  0  0
   20.5806  -10.2941  -16.0740 N   0  0  0  0  0  0  0  0  0  0  0  0
   21.2871   -8.0925  -15.5458 C   0  0  0  0  0  0  0  0  0  0  0  0
   20.6325   -7.7710  -16.5699 O   0  0  0  0  0  0  0  0  0  0  0  0
   17.2398   -5.4098  -14.8173 N   0  0  0  0  0  0  0  0  0  0  0  0
   17.9577   -4.1860  -14.9205 C   0  0  0  0  0  0  0  0  0  0  0  0
   17.2992   -3.1290  -14.8784 O   0  0  0  0  0  0  0  0  0  0  0  0
   19.4425   -4.1740  -15.0733 C   0  0  0  0  0  0  0  0  0  0  0  0
   19.9282   -5.5851  -14.9987 C   0  0  0  0  0  0  0  0  0  0  0  0
   21.4277   -5.6952  -14.9938 C   0  0  2  0  0  0  0  0  0  0  0  0
   21.7446   -7.0783  -14.6984 N   0  0  0  0  0  0  0  0  0  0  0  0
   22.1146   -4.8357  -14.0357 C   0  0  0  0  0  0  0  0  0  0  0  0
   22.5936   -5.2157  -12.9365 O   0  0  0  0  0  0  0  0  0  0  0  0
   22.2720   -3.4884  -14.3225 O   0  0  0  0  0  0  0  0  0  0  0  0
  2  1  1  0
  3  2  1  0
  3  4  1  1
  5  3  1  0
  5 10  1  0
  6  5  2  0
  9  8  1  6
  8  7  1  0
  9 10  1  0
  9 11  1  0
 11 19  1  0
 11 12  2  0
 14 16  1  0
 14 13  1  0
 15 14  2  0
 18 17  1  1
 17 16  1  0
 18 20  1  0
 19 18  1  0
 20 22  1  0
 21 20  2  0
M  END
$$$$
