SSQ.pdb
     RDKit          3D

 22 21  0  0  1  0  0  0  0  0999 V2000
   17.2570  -14.0130  -19.9470 O   0  0  0  0  0  0  0  0  0  0  0  0
   17.8612  -13.4501  -18.8249 C   0  0  0  0  0  0  0  0  0  0  0  0
   19.3764  -13.6032  -18.8864 C   0  0  2  0  0  0  0  0  0  0  0  0
   19.7790  -14.9759  -18.8297 N   0  0  0  0  0  0  0  0  0  0  0  0
   20.0122  -12.8076  -17.7950 C   0  0  0  0  0  0  0  0  0  0  0  0
   19.9738  -13.1637  -16.5958 O   0  0  0  0  0  0  0  0  0  0  0  0
   23.0798   -9.1938  -16.8553 O   0  0  0  0  0  0  0  0  0  0  0  0
   22.3982   -9.9923  -17.7593 C   0  0  0  0  0  0  0  0  0  0  0  0
   21.3085  -10.8136  -17.1020 C   0  0  2  0  0  0  0  0  0  0  0  0
   20.6792  -11.6110  -18.1367 N   0  0  0  0  0  0  0  0  0  0  0  0
   20.2750   -9.8229  -16.6320 C   0  0  0  0  0  0  0  0  0  0  0  0
   19.4630   -9.3565  -17.4710 O   0  0  0  0  0  0  0  0  0  0  0  0
   17.6854   -9.6618  -11.1973 N   0  0  0  0  0  0  0  0  0  0  0  0
   17.0971   -8.4953  -11.7601 C   0  0  0  0  0  0  0  0  0  0  0  0
   16.1929   -7.9373  -11.1092 O   0  0  0  0  0  0  0  0  0  0  0  0
   17.5491   -7.9642  -13.0799 C   0  0  0  0  0  0  0  0  0  0  0  0
   18.5784   -8.8984  -13.6283 C   0  0  0  0  0  0  0  0  0  0  0  0
   19.1738   -8.4270  -14.9259 C   0  0  2  0  0  0  0  0  0  0  0  0
   20.1801   -9.3999  -15.3022 N   0  0  0  0  0  0  0  0  0  0  0  0
   19.7844   -7.1025  -14.8890 C   0  0  0  0  0  0  0  0  0  0  0  0
   21.0134   -6.8761  -14.7461 O   0  0  0  0  0  0  0  0  0  0  0  0
   18.9808   -5.9801  -15.0182 O   0  0  0  0  0  0  0  0  0  0  0  0
  2  1  1  0
  3  2  1  0
  3  4  1  1
  5  3  1  0
  5 10  1  0
  6  5  2  0
  9  8  1  6
  8  7  1  0
  9 10  1  0
  9 11  1  0
 11 19  1  0
 11 12  2  0
 14 16  1  0
 14 13  1  0
 15 14  2  0
 18 17  1  1
 17 16  1  0
 18 20  1  0
 19 18  1  0
 20 22  1  0
 21 20  2  0
M  END
$$$$
