SSQ.pdb
     RDKit          3D

 22 21  0  0  1  0  0  0  0  0999 V2000
   19.4504  -12.1374  -20.0062 O   0  0  0  0  0  0  0  0  0  0  0  0
   19.5587  -11.5307  -18.7567 C   0  0  0  0  0  0  0  0  0  0  0  0
   20.3972  -12.3799  -17.8085 C   0  0  2  0  0  0  0  0  0  0  0  0
   19.8050  -13.6615  -17.5714 N   0  0  0  0  0  0  0  0  0  0  0  0
   20.6213  -11.6427  -16.5299 C   0  0  0  0  0  0  0  0  0  0  0  0
   19.7920  -11.6580  -15.5927 O   0  0  0  0  0  0  0  0  0  0  0  0
   24.3445  -10.9835  -15.4929 O   0  0  0  0  0  0  0  0  0  0  0  0
   23.3470  -10.8112  -14.5470 C   0  0  0  0  0  0  0  0  0  0  0  0
   22.0863  -10.2125  -15.1352 C   0  0  2  0  0  0  0  0  0  0  0  0
   21.8151  -10.9038  -16.3807 N   0  0  0  0  0  0  0  0  0  0  0  0
   22.4366   -8.7924  -15.4972 C   0  0  0  0  0  0  0  0  0  0  0  0
   22.9105   -8.5616  -16.6386 O   0  0  0  0  0  0  0  0  0  0  0  0
   20.0630   -5.5201  -18.2955 N   0  0  0  0  0  0  0  0  0  0  0  0
   20.8484   -4.4422  -17.8006 C   0  0  0  0  0  0  0  0  0  0  0  0
   20.7177   -3.3345  -18.3560 O   0  0  0  0  0  0  0  0  0  0  0  0
   21.7912   -4.6358  -16.6596 C   0  0  0  0  0  0  0  0  0  0  0  0
   21.6875   -6.0564  -16.2078 C   0  0  0  0  0  0  0  0  0  0  0  0
   22.5867   -6.3746  -15.0455 C   0  0  2  0  0  0  0  0  0  0  0  0
   22.2571   -7.7197  -14.6178 N   0  0  0  0  0  0  0  0  0  0  0  0
   22.4758   -5.4730  -13.9040 C   0  0  0  0  0  0  0  0  0  0  0  0
   22.9167   -4.2955  -13.8665 O   0  0  0  0  0  0  0  0  0  0  0  0
   21.8416   -5.9108  -12.7515 O   0  0  0  0  0  0  0  0  0  0  0  0
  2  1  1  0
  3  2  1  0
  3  4  1  1
  5  3  1  0
  5 10  1  0
  6  5  2  0
  9  8  1  6
  8  7  1  0
  9 10  1  0
  9 11  1  0
 11 19  1  0
 11 12  2  0
 14 16  1  0
 14 13  1  0
 15 14  2  0
 18 17  1  6
 17 16  1  0
 18 20  1  0
 19 18  1  0
 20 22  1  0
 21 20  2  0
M  END
$$$$
