SSQ.pdb
     RDKit          3D

 22 21  0  0  1  0  0  0  0  0999 V2000
   28.6448  -22.2373  -16.9025 O   0  0  0  0  0  0  0  0  0  0  0  0
   27.7121  -21.4203  -16.2672 C   0  0  0  0  0  0  0  0  0  0  0  0
   27.4477  -20.1589  -17.0809 C   0  0  2  0  0  0  0  0  0  0  0  0
   28.6419  -19.3985  -17.2938 N   0  0  0  0  0  0  0  0  0  0  0  0
   26.3944  -19.3366  -16.4155 C   0  0  0  0  0  0  0  0  0  0  0  0
   26.6654  -18.4643  -15.5599 O   0  0  0  0  0  0  0  0  0  0  0  0
   22.7127  -19.3399  -18.1037 O   0  0  0  0  0  0  0  0  0  0  0  0
   23.0509  -18.3210  -17.2280 C   0  0  0  0  0  0  0  0  0  0  0  0
   23.9960  -18.7821  -16.1380 C   0  0  2  0  0  0  0  0  0  0  0  0
   25.0457  -19.5574  -16.7701 N   0  0  0  0  0  0  0  0  0  0  0  0
   23.2042  -19.7409  -15.2868 C   0  0  0  0  0  0  0  0  0  0  0  0
   23.1323  -20.9443  -15.6437 O   0  0  0  0  0  0  0  0  0  0  0  0
   21.8838  -20.4403   -8.5545 N   0  0  0  0  0  0  0  0  0  0  0  0
   21.0544  -19.9903   -9.6190 C   0  0  0  0  0  0  0  0  0  0  0  0
   20.3126  -19.0145   -9.3955 O   0  0  0  0  0  0  0  0  0  0  0  0
   21.0758  -20.6645  -10.9506 C   0  0  0  0  0  0  0  0  0  0  0  0
   21.8309  -19.7924  -11.9003 C   0  0  0  0  0  0  0  0  0  0  0  0
   21.8790  -20.3430  -13.2985 C   0  0  2  0  0  0  0  0  0  0  0  0
   22.5456  -19.3495  -14.1166 N   0  0  0  0  0  0  0  0  0  0  0  0
   20.5836  -20.6553  -13.8924 C   0  0  0  0  0  0  0  0  0  0  0  0
   19.8664  -19.8439  -14.5322 O   0  0  0  0  0  0  0  0  0  0  0  0
   20.0680  -21.9359  -13.7634 O   0  0  0  0  0  0  0  0  0  0  0  0
  2  1  1  0
  3  2  1  0
  3  4  1  1
  5  3  1  0
  5 10  1  0
  6  5  2  0
  9  8  1  6
  8  7  1  0
  9 10  1  0
  9 11  1  0
 11 19  1  0
 11 12  2  0
 14 16  1  0
 14 13  1  0
 15 14  2  0
 18 17  1  1
 17 16  1  0
 18 20  1  0
 19 18  1  0
 20 22  1  0
 21 20  2  0
M  END
$$$$
