SSQ.pdb
     RDKit          3D

 22 21  0  0  1  0  0  0  0  0999 V2000
   13.4550  -20.0578    2.3921 O   0  0  0  0  0  0  0  0  0  0  0  0
   14.0342  -21.1870    2.9670 C   0  0  0  0  0  0  0  0  0  0  0  0
   15.1766  -21.7128    2.1058 C   0  0  2  0  0  0  0  0  0  0  0  0
   14.7040  -22.2960    0.8867 N   0  0  0  0  0  0  0  0  0  0  0  0
   15.9966  -22.6847    2.8879 C   0  0  0  0  0  0  0  0  0  0  0  0
   15.6999  -23.8976    2.9719 O   0  0  0  0  0  0  0  0  0  0  0  0
   19.9400  -23.2340    2.8360 O   0  0  0  0  0  0  0  0  0  0  0  0
   19.4365  -22.7200    4.0200 C   0  0  0  0  0  0  0  0  0  0  0  0
   18.0020  -23.1367    4.2702 C   0  0  2  0  0  0  0  0  0  0  0  0
   17.1473  -22.2098    3.5540 N   0  0  0  0  0  0  0  0  0  0  0  0
   17.7570  -22.9033    5.7386 C   0  0  0  0  0  0  0  0  0  0  0  0
   17.4342  -21.7492    6.1189 O   0  0  0  0  0  0  0  0  0  0  0  0
   13.7805  -24.2302    8.8746 N   0  0  0  0  0  0  0  0  0  0  0  0
   14.6010  -24.1706   10.0352 C   0  0  0  0  0  0  0  0  0  0  0  0
   14.0358  -23.9742   11.1281 O   0  0  0  0  0  0  0  0  0  0  0  0
   16.0813  -24.3377    9.9419 C   0  0  0  0  0  0  0  0  0  0  0  0
   16.4421  -24.4828    8.4991 C   0  0  0  0  0  0  0  0  0  0  0  0
   17.6052  -23.6221    8.0906 C   0  0  2  0  0  0  0  0  0  0  0  0
   17.8734  -23.9154    6.6968 N   0  0  0  0  0  0  0  0  0  0  0  0
   18.8287  -23.8179    8.8608 C   0  0  0  0  0  0  0  0  0  0  0  0
   18.9469  -23.6121   10.0960 O   0  0  0  0  0  0  0  0  0  0  0  0
   19.9725  -24.2650    8.2172 O   0  0  0  0  0  0  0  0  0  0  0  0
  2  1  1  0
  3  2  1  0
  3  4  1  6
  5  3  1  0
  5 10  1  0
  6  5  2  0
  9  8  1  1
  8  7  1  0
  9 10  1  0
  9 11  1  0
 11 19  1  0
 11 12  2  0
 14 16  1  0
 14 13  1  0
 15 14  2  0
 18 17  1  1
 17 16  1  0
 18 20  1  0
 19 18  1  0
 20 22  1  0
 21 20  2  0
M  END
$$$$
