SSQ.pdb
     RDKit          3D

 22 21  0  0  1  0  0  0  0  0999 V2000
   25.7761  -36.1548  -11.0932 O   0  0  0  0  0  0  0  0  0  0  0  0
   24.6881  -35.4533  -11.6083 C   0  0  0  0  0  0  0  0  0  0  0  0
   25.0236  -33.9768  -11.7824 C   0  0  2  0  0  0  0  0  0  0  0  0
   26.0208  -33.7689  -12.7884 N   0  0  0  0  0  0  0  0  0  0  0  0
   25.4452  -33.3939  -10.4744 C   0  0  0  0  0  0  0  0  0  0  0  0
   26.5960  -32.9413  -10.2817 O   0  0  0  0  0  0  0  0  0  0  0  0
   23.8111  -31.9486   -6.1373 O   0  0  0  0  0  0  0  0  0  0  0  0
   23.5852  -32.5242   -7.3771 C   0  0  0  0  0  0  0  0  0  0  0  0
   24.8659  -32.7546   -8.1522 C   0  0  2  0  0  0  0  0  0  0  0  0
   24.5053  -33.3558   -9.4216 N   0  0  0  0  0  0  0  0  0  0  0  0
   25.6298  -33.7999   -7.3812 C   0  0  0  0  0  0  0  0  0  0  0  0
   25.2950  -35.0052   -7.5072 O   0  0  0  0  0  0  0  0  0  0  0  0
   29.3372  -33.1090   -2.9005 N   0  0  0  0  0  0  0  0  0  0  0  0
   29.7981  -34.4055   -3.2612 C   0  0  0  0  0  0  0  0  0  0  0  0
   30.4235  -35.0527   -2.3994 O   0  0  0  0  0  0  0  0  0  0  0  0
   29.5400  -34.9646   -4.6210 C   0  0  0  0  0  0  0  0  0  0  0  0
   28.7054  -33.9818   -5.3762 C   0  0  0  0  0  0  0  0  0  0  0  0
   27.3833  -34.5449   -5.8185 C   0  0  2  0  0  0  0  0  0  0  0  0
   26.6955  -33.4867   -6.5312 N   0  0  0  0  0  0  0  0  0  0  0  0
   26.5219  -35.0335   -4.7472 C   0  0  0  0  0  0  0  0  0  0  0  0
   26.4151  -36.2367   -4.3966 O   0  0  0  0  0  0  0  0  0  0  0  0
   25.7445  -34.1323   -4.0360 O   0  0  0  0  0  0  0  0  0  0  0  0
  2  1  1  0
  3  2  1  0
  3  4  1  6
  5  3  1  0
  5 10  1  0
  6  5  2  0
  9  8  1  1
  8  7  1  0
  9 10  1  0
  9 11  1  0
 11 19  1  0
 11 12  2  0
 14 16  1  0
 14 13  1  0
 15 14  2  0
 18 17  1  1
 17 16  1  0
 18 20  1  0
 19 18  1  0
 20 22  1  0
 21 20  2  0
M  END
$$$$
