SSQ.pdb
     RDKit          3D

 22 21  0  0  1  0  0  0  0  0999 V2000
   18.3790  -13.0134  -18.2341 O   0  0  0  0  0  0  0  0  0  0  0  0
   19.7281  -12.9826  -18.5801 C   0  0  0  0  0  0  0  0  0  0  0  0
   20.6075  -13.3037  -17.3773 C   0  0  2  0  0  0  0  0  0  0  0  0
   20.3362  -14.6057  -16.8475 N   0  0  0  0  0  0  0  0  0  0  0  0
   20.4439  -12.2499  -16.3326 C   0  0  0  0  0  0  0  0  0  0  0  0
   19.5829  -12.3303  -15.4279 O   0  0  0  0  0  0  0  0  0  0  0  0
   22.5299   -8.3590  -14.3553 O   0  0  0  0  0  0  0  0  0  0  0  0
   22.5067   -9.3519  -15.3213 C   0  0  0  0  0  0  0  0  0  0  0  0
   21.1905  -10.1005  -15.3530 C   0  0  2  0  0  0  0  0  0  0  0  0
   21.2958  -11.1247  -16.3741 N   0  0  0  0  0  0  0  0  0  0  0  0
   20.1660   -9.1088  -15.8403 C   0  0  0  0  0  0  0  0  0  0  0  0
   20.0704   -8.9006  -17.0765 O   0  0  0  0  0  0  0  0  0  0  0  0
   14.5770   -8.7448  -14.1924 N   0  0  0  0  0  0  0  0  0  0  0  0
   14.6105   -7.5519  -14.9665 C   0  0  0  0  0  0  0  0  0  0  0  0
   13.5213   -7.0045  -15.2247 O   0  0  0  0  0  0  0  0  0  0  0  0
   15.9031   -6.9818  -15.4484 C   0  0  0  0  0  0  0  0  0  0  0  0
   16.9996   -7.9149  -15.0488 C   0  0  0  0  0  0  0  0  0  0  0  0
   18.3568   -7.4676  -15.5161 C   0  0  2  0  0  0  0  0  0  0  0  0
   19.3166   -8.4100  -14.9763 N   0  0  0  0  0  0  0  0  0  0  0  0
   18.7416   -6.1178  -15.1179 C   0  0  0  0  0  0  0  0  0  0  0  0
   19.5577   -5.8383  -14.2025 O   0  0  0  0  0  0  0  0  0  0  0  0
   18.1862   -5.0311  -15.7759 O   0  0  0  0  0  0  0  0  0  0  0  0
  2  1  1  0
  3  2  1  0
  3  4  1  1
  5  3  1  0
  5 10  1  0
  6  5  2  0
  9  8  1  6
  8  7  1  0
  9 10  1  0
  9 11  1  0
 11 19  1  0
 11 12  2  0
 14 16  1  0
 14 13  1  0
 15 14  2  0
 18 17  1  1
 17 16  1  0
 18 20  1  0
 19 18  1  0
 20 22  1  0
 21 20  2  0
M  END
$$$$
