NEQ.pdb
     RDKit          3D

 27 26  0  0  1  0  0  0  0  0999 V2000
   20.0095  -14.6121  -18.9104 N   0  0  0  0  0  0  0  0  0  0  0  0
   21.3629  -14.3841  -18.5516 C   0  0  0  0  0  0  0  0  0  0  0  0
   22.1095  -15.3671  -18.3932 O   0  0  0  0  0  0  0  0  0  0  0  0
   21.8009  -12.9666  -18.3876 C   0  0  0  0  0  0  0  0  0  0  0  0
   20.6283  -12.0161  -18.5117 C   0  0  2  0  0  0  0  0  0  0  0  0
   20.1701  -12.0609  -19.8854 N   0  0  0  0  0  0  0  0  0  0  0  0
   21.1113  -10.6682  -18.1989 C   0  0  0  0  0  0  0  0  0  0  0  0
   21.5263  -10.4156  -17.0361 O   0  0  0  0  0  0  0  0  0  0  0  0
   21.1363   -9.6077  -19.1606 N   0  0  0  0  0  0  0  0  0  0  0  0
   21.6580   -8.3410  -18.7795 C   0  0  1  0  0  0  0  0  0  0  0  0
   21.7881   -7.4518  -19.9926 C   0  0  0  0  0  0  0  0  0  0  0  0
   22.8980   -7.8955  -20.9123 C   0  0  0  0  0  0  0  0  0  0  0  0
   22.8689   -7.0035  -22.0995 C   0  0  0  0  0  0  0  0  0  0  0  0
   22.7585   -7.4347  -23.2767 O   0  0  0  0  0  0  0  0  0  0  0  0
   20.8244   -7.6610  -17.7466 C   0  0  0  0  0  0  0  0  0  0  0  0
   19.5725   -7.7421  -17.8177 O   0  0  0  0  0  0  0  0  0  0  0  0
   22.9666   -5.6121  -21.9371 O   0  0  0  0  0  0  0  0  0  0  0  0
   18.5090   -9.8818  -13.5161 N   0  0  0  0  0  0  0  0  0  0  0  0
   18.5241   -8.5615  -13.0057 C   0  0  0  0  0  0  0  0  0  0  0  0
   17.8799   -8.3650  -11.9143 O   0  0  0  0  0  0  0  0  0  0  0  0
   19.2198   -7.4266  -13.6255 C   0  0  0  0  0  0  0  0  0  0  0  0
   19.8903   -7.6749  -14.9241 C   0  0  0  0  0  0  0  0  0  0  0  0
   20.5840   -6.5092  -15.4958 C   0  0  2  0  0  0  0  0  0  0  0  0
   21.3731   -6.9218  -16.6796 N   0  0  0  0  0  0  0  0  0  0  0  0
   21.4666   -5.7241  -14.6717 C   0  0  0  0  0  0  0  0  0  0  0  0
   22.8731   -5.8488  -14.6928 O   0  0  0  0  0  0  0  0  0  0  0  0
   21.0403   -4.8660  -13.8697 O   0  0  0  0  0  0  0  0  0  0  0  0
  2  3  2  0
  2  1  1  0
  4  2  1  0
  5  4  1  0
  5  6  1  6
  7  8  2  0
  7  5  1  0
  9  7  1  0
 10 11  1  6
 10  9  1  0
 11 12  1  0
 12 13  1  0
 13 17  1  0
 14 13  2  0
 15 24  1  0
 15 10  1  0
 16 15  2  0
 19 18  1  0
 20 19  2  0
 21 19  1  0
 22 21  1  0
 23 22  1  1
 23 24  1  0
 25 26  1  0
 25 23  1  0
 27 25  2  0
M  END
$$$$
