NEQ.pdb
     RDKit          3D

 27 26  0  0  1  0  0  0  0  0999 V2000
   15.1506  -13.8336  -16.0569 N   0  0  0  0  0  0  0  0  0  0  0  0
   15.2426  -13.9014  -14.6429 C   0  0  0  0  0  0  0  0  0  0  0  0
   14.5664  -14.7573  -14.0437 O   0  0  0  0  0  0  0  0  0  0  0  0
   16.1532  -12.9314  -13.9663 C   0  0  0  0  0  0  0  0  0  0  0  0
   16.7923  -11.9933  -14.9690 C   0  0  2  0  0  0  0  0  0  0  0  0
   17.7903  -12.7465  -15.7008 N   0  0  0  0  0  0  0  0  0  0  0  0
   17.4429  -10.9149  -14.2195 C   0  0  0  0  0  0  0  0  0  0  0  0
   17.3317  -10.8811  -12.9646 O   0  0  0  0  0  0  0  0  0  0  0  0
   18.2097   -9.8824  -14.8489 N   0  0  0  0  0  0  0  0  0  0  0  0
   18.6931   -8.8022  -14.0605 C   0  0  1  0  0  0  0  0  0  0  0  0
   19.7341   -8.0275  -14.8320 C   0  0  0  0  0  0  0  0  0  0  0  0
   20.2889   -6.8688  -14.0418 C   0  0  0  0  0  0  0  0  0  0  0  0
   21.2968   -6.1939  -14.8989 C   0  0  0  0  0  0  0  0  0  0  0  0
   22.1561   -6.8232  -15.5695 O   0  0  0  0  0  0  0  0  0  0  0  0
   17.6077   -7.8800  -13.6182 C   0  0  0  0  0  0  0  0  0  0  0  0
   16.7155   -7.5450  -14.4372 O   0  0  0  0  0  0  0  0  0  0  0  0
   21.3202   -4.7927  -14.9879 O   0  0  0  0  0  0  0  0  0  0  0  0
   14.7894   -7.4813   -7.8941 N   0  0  0  0  0  0  0  0  0  0  0  0
   14.4381   -6.3126   -8.6112 C   0  0  0  0  0  0  0  0  0  0  0  0
   13.6161   -5.5152   -8.0338 O   0  0  0  0  0  0  0  0  0  0  0  0
   14.9468   -5.9556   -9.9415 C   0  0  0  0  0  0  0  0  0  0  0  0
   15.9595   -6.8577  -10.5401 C   0  0  0  0  0  0  0  0  0  0  0  0
   16.4391   -6.4534  -11.8719 C   0  0  2  0  0  0  0  0  0  0  0  0
   17.5275   -7.3565  -12.3122 N   0  0  0  0  0  0  0  0  0  0  0  0
   16.9127   -5.1102  -12.0868 C   0  0  0  0  0  0  0  0  0  0  0  0
   18.2544   -4.7143  -11.8946 O   0  0  0  0  0  0  0  0  0  0  0  0
   16.1559   -4.1902  -12.4638 O   0  0  0  0  0  0  0  0  0  0  0  0
  2  3  2  0
  2  1  1  0
  4  2  1  0
  5  4  1  0
  5  6  1  1
  7  8  2  0
  7  5  1  0
  9  7  1  0
 10 11  1  6
 10  9  1  0
 11 12  1  0
 12 13  1  0
 13 17  1  0
 14 13  2  0
 15 24  1  0
 15 10  1  0
 16 15  2  0
 19 18  1  0
 20 19  2  0
 21 19  1  0
 22 21  1  0
 23 22  1  1
 23 24  1  0
 25 26  1  0
 25 23  1  0
 27 25  2  0
M  END
$$$$
