NEQ.pdb
     RDKit          3D

 27 26  0  0  1  0  0  0  0  0999 V2000
   26.1505  -16.9603  -16.0034 N   0  0  0  0  0  0  0  0  0  0  0  0
   27.1931  -16.3142  -15.2906 C   0  0  0  0  0  0  0  0  0  0  0  0
   28.0985  -17.0124  -14.7992 O   0  0  0  0  0  0  0  0  0  0  0  0
   27.1301  -14.8271  -15.1788 C   0  0  0  0  0  0  0  0  0  0  0  0
   25.8897  -14.2818  -15.8556 C   0  0  2  0  0  0  0  0  0  0  0  0
   26.0048  -14.5593  -17.2729 N   0  0  0  0  0  0  0  0  0  0  0  0
   25.8640  -12.8324  -15.6396 C   0  0  0  0  0  0  0  0  0  0  0  0
   25.7184  -12.3851  -14.4704 O   0  0  0  0  0  0  0  0  0  0  0  0
   25.9978  -11.8843  -16.7042 N   0  0  0  0  0  0  0  0  0  0  0  0
   25.8913  -10.4968  -16.4118 C   0  0  1  0  0  0  0  0  0  0  0  0
   26.9142   -9.7230  -17.2080 C   0  0  0  0  0  0  0  0  0  0  0  0
   28.3146  -10.2435  -17.0017 C   0  0  0  0  0  0  0  0  0  0  0  0
   29.2132   -9.4477  -17.8763 C   0  0  0  0  0  0  0  0  0  0  0  0
   29.8286   -9.9426  -18.8563 O   0  0  0  0  0  0  0  0  0  0  0  0
   24.5292   -9.9532  -16.6829 C   0  0  0  0  0  0  0  0  0  0  0  0
   23.8326  -10.4690  -17.5926 O   0  0  0  0  0  0  0  0  0  0  0  0
   29.4075   -8.0795  -17.6271 O   0  0  0  0  0  0  0  0  0  0  0  0
   19.8056  -11.9039  -15.2630 N   0  0  0  0  0  0  0  0  0  0  0  0
   19.3646  -10.5852  -15.5281 C   0  0  0  0  0  0  0  0  0  0  0  0
   18.0953  -10.4064  -15.5701 O   0  0  0  0  0  0  0  0  0  0  0  0
   20.2449   -9.4305  -15.7467 C   0  0  0  0  0  0  0  0  0  0  0  0
   21.7049   -9.6870  -15.7490 C   0  0  0  0  0  0  0  0  0  0  0  0
   22.5400   -8.5104  -16.0410 C   0  0  2  0  0  0  0  0  0  0  0  0
   23.9732   -8.8766  -15.9632 N   0  0  0  0  0  0  0  0  0  0  0  0
   22.3841   -7.3087  -15.2624 C   0  0  0  0  0  0  0  0  0  0  0  0
   21.3546   -6.3663  -15.4770 O   0  0  0  0  0  0  0  0  0  0  0  0
   23.1619   -7.0145  -14.3299 O   0  0  0  0  0  0  0  0  0  0  0  0
  2  3  2  0
  2  1  1  0
  4  2  1  0
  5  4  1  0
  5  6  1  6
  7  8  2  0
  7  5  1  0
  9  7  1  0
 10 11  1  6
 10  9  1  0
 11 12  1  0
 12 13  1  0
 13 17  1  0
 14 13  2  0
 15 24  1  0
 15 10  1  0
 16 15  2  0
 19 18  1  0
 20 19  2  0
 21 19  1  0
 22 21  1  0
 23 22  1  1
 23 24  1  0
 25 26  1  0
 25 23  1  0
 27 25  2  0
M  END
$$$$
