NEQ.pdb
     RDKit          3D

 27 26  0  0  1  0  0  0  0  0999 V2000
   18.9142  -12.7614  -18.2235 N   0  0  0  0  0  0  0  0  0  0  0  0
   17.7309  -11.9838  -18.3117 C   0  0  0  0  0  0  0  0  0  0  0  0
   17.0230  -12.0922  -19.3295 O   0  0  0  0  0  0  0  0  0  0  0  0
   17.4150  -11.0810  -17.1658 C   0  0  0  0  0  0  0  0  0  0  0  0
   18.5098  -11.1242  -16.1201 C   0  0  2  0  0  0  0  0  0  0  0  0
   18.2321  -12.2406  -15.2394 N   0  0  0  0  0  0  0  0  0  0  0  0
   18.4506   -9.8726  -15.3599 C   0  0  0  0  0  0  0  0  0  0  0  0
   17.5363   -9.7106  -14.5078 O   0  0  0  0  0  0  0  0  0  0  0  0
   19.3919   -8.8085  -15.5380 N   0  0  0  0  0  0  0  0  0  0  0  0
   19.2419   -7.6178  -14.7752 C   0  0  1  0  0  0  0  0  0  0  0  0
   20.5898   -6.9749  -14.5541 C   0  0  0  0  0  0  0  0  0  0  0  0
   20.4923   -5.6986  -13.7565 C   0  0  0  0  0  0  0  0  0  0  0  0
   21.8764   -5.1988  -13.5549 C   0  0  0  0  0  0  0  0  0  0  0  0
   22.6291   -5.6200  -12.6384 O   0  0  0  0  0  0  0  0  0  0  0  0
   18.3172   -6.6369  -15.4130 C   0  0  0  0  0  0  0  0  0  0  0  0
   18.4089   -6.4201  -16.6473 O   0  0  0  0  0  0  0  0  0  0  0  0
   22.3998   -4.2127  -14.4067 O   0  0  0  0  0  0  0  0  0  0  0  0
   11.4525   -3.9266  -15.4288 N   0  0  0  0  0  0  0  0  0  0  0  0
   12.5682   -4.7462  -15.1332 C   0  0  0  0  0  0  0  0  0  0  0  0
   12.3203   -5.8500  -14.5291 O   0  0  0  0  0  0  0  0  0  0  0  0
   13.9609   -4.4272  -15.4716 C   0  0  0  0  0  0  0  0  0  0  0  0
   14.9987   -5.3908  -15.0334 C   0  0  0  0  0  0  0  0  0  0  0  0
   16.3823   -4.9932  -15.3405 C   0  0  2  0  0  0  0  0  0  0  0  0
   17.3317   -5.9296  -14.6955 N   0  0  0  0  0  0  0  0  0  0  0  0
   16.8363   -3.6654  -15.0157 C   0  0  0  0  0  0  0  0  0  0  0  0
   16.6640   -2.5507  -15.8653 O   0  0  0  0  0  0  0  0  0  0  0  0
   17.4224   -3.4064  -13.9432 O   0  0  0  0  0  0  0  0  0  0  0  0
  2  3  2  0
  2  1  1  0
  4  2  1  0
  5  4  1  0
  5  6  1  1
  7  8  2  0
  7  5  1  0
  9  7  1  0
 10 11  1  6
 10  9  1  0
 11 12  1  0
 12 13  1  0
 13 17  1  0
 14 13  2  0
 15 24  1  0
 15 10  1  0
 16 15  2  0
 19 18  1  0
 20 19  2  0
 21 19  1  0
 22 21  1  0
 23 22  1  1
 23 24  1  0
 25 26  1  0
 25 23  1  0
 27 25  2  0
M  END
$$$$
