NEQ.pdb
     RDKit          3D

 27 26  0  0  1  0  0  0  0  0999 V2000
   27.6061  -16.3801  -18.6699 N   0  0  0  0  0  0  0  0  0  0  0  0
   28.0437  -16.4396  -17.3217 C   0  0  0  0  0  0  0  0  0  0  0  0
   29.1549  -15.9579  -17.0356 O   0  0  0  0  0  0  0  0  0  0  0  0
   27.1310  -17.0826  -16.3310 C   0  0  0  0  0  0  0  0  0  0  0  0
   27.7439  -18.3472  -15.7660 C   0  0  2  0  0  0  0  0  0  0  0  0
   27.9452  -19.2673  -16.8668 N   0  0  0  0  0  0  0  0  0  0  0  0
   26.7873  -18.9207  -14.8153 C   0  0  0  0  0  0  0  0  0  0  0  0
   26.4202  -18.2382  -13.8214 O   0  0  0  0  0  0  0  0  0  0  0  0
   26.2401  -20.2359  -14.9595 N   0  0  0  0  0  0  0  0  0  0  0  0
   25.4364  -20.7688  -13.9144 C   0  0  1  0  0  0  0  0  0  0  0  0
   24.8954  -22.1190  -14.3185 C   0  0  0  0  0  0  0  0  0  0  0  0
   24.0527  -22.7462  -13.2363 C   0  0  0  0  0  0  0  0  0  0  0  0
   23.6942  -24.1129  -13.6942 C   0  0  0  0  0  0  0  0  0  0  0  0
   24.3259  -25.1415  -13.3380 O   0  0  0  0  0  0  0  0  0  0  0  0
   26.1744  -20.8902  -12.6241 C   0  0  0  0  0  0  0  0  0  0  0  0
   27.2602  -21.5221  -12.5954 O   0  0  0  0  0  0  0  0  0  0  0  0
   22.6077  -24.3016  -14.5636 O   0  0  0  0  0  0  0  0  0  0  0  0
   27.2743  -17.9026   -7.4592 N   0  0  0  0  0  0  0  0  0  0  0  0
   27.7919  -19.2054   -7.2632 C   0  0  0  0  0  0  0  0  0  0  0  0
   28.2720  -19.4591   -6.1013 O   0  0  0  0  0  0  0  0  0  0  0  0
   27.8090  -20.2666   -8.2779 C   0  0  0  0  0  0  0  0  0  0  0  0
   27.2791  -19.9248   -9.6195 C   0  0  0  0  0  0  0  0  0  0  0  0
   26.1768  -20.7812  -10.0866 C   0  0  2  0  0  0  0  0  0  0  0  0
   25.7130  -20.3261  -11.4178 N   0  0  0  0  0  0  0  0  0  0  0  0
   24.9965  -20.9376   -9.2760 C   0  0  0  0  0  0  0  0  0  0  0  0
   23.7208  -20.4635   -9.6528 O   0  0  0  0  0  0  0  0  0  0  0  0
   25.0224  -21.5127   -8.1671 O   0  0  0  0  0  0  0  0  0  0  0  0
  2  3  2  0
  2  1  1  0
  4  2  1  0
  5  4  1  0
  5  6  1  6
  7  8  2  0
  7  5  1  0
  9  7  1  0
 10 11  1  6
 10  9  1  0
 11 12  1  0
 12 13  1  0
 13 17  1  0
 14 13  2  0
 15 24  1  0
 15 10  1  0
 16 15  2  0
 19 18  1  0
 20 19  2  0
 21 19  1  0
 22 21  1  0
 23 22  1  1
 23 24  1  0
 25 26  1  0
 25 23  1  0
 27 25  2  0
M  END
$$$$
