NEQ.pdb
     RDKit          3D

 27 26  0  0  1  0  0  0  0  0999 V2000
   21.8911  -13.0259  -17.7431 N   0  0  0  0  0  0  0  0  0  0  0  0
   21.0066  -12.5277  -18.7340 C   0  0  0  0  0  0  0  0  0  0  0  0
   21.1035  -12.9693  -19.8935 O   0  0  0  0  0  0  0  0  0  0  0  0
   20.0117  -11.4982  -18.3119 C   0  0  0  0  0  0  0  0  0  0  0  0
   20.1930  -11.1305  -16.8539 C   0  0  2  0  0  0  0  0  0  0  0  0
   19.8882  -12.3058  -16.0635 N   0  0  0  0  0  0  0  0  0  0  0  0
   19.2362  -10.0657  -16.5398 C   0  0  0  0  0  0  0  0  0  0  0  0
   19.3348   -8.9545  -17.1261 O   0  0  0  0  0  0  0  0  0  0  0  0
   18.1795  -10.2252  -15.5868 N   0  0  0  0  0  0  0  0  0  0  0  0
   17.2508   -9.1646  -15.4005 C   0  0  1  0  0  0  0  0  0  0  0  0
   15.9732   -9.6988  -14.7993 C   0  0  0  0  0  0  0  0  0  0  0  0
   15.2311  -10.6091  -15.7455 C   0  0  0  0  0  0  0  0  0  0  0  0
   14.0797  -11.1763  -14.9984 C   0  0  0  0  0  0  0  0  0  0  0  0
   12.8890  -10.8266  -15.2078 O   0  0  0  0  0  0  0  0  0  0  0  0
   17.7896   -8.0704  -14.5420 C   0  0  0  0  0  0  0  0  0  0  0  0
   18.5066   -8.3635  -13.5526 O   0  0  0  0  0  0  0  0  0  0  0  0
   14.2934  -12.1480  -14.0074 O   0  0  0  0  0  0  0  0  0  0  0  0
   22.7046   -6.2310  -14.6193 N   0  0  0  0  0  0  0  0  0  0  0  0
   22.1297   -5.0884  -14.0131 C   0  0  0  0  0  0  0  0  0  0  0  0
   22.9478   -4.2041  -13.5732 O   0  0  0  0  0  0  0  0  0  0  0  0
   20.6887   -4.8491  -13.8638 C   0  0  0  0  0  0  0  0  0  0  0  0
   19.7757   -5.9181  -14.3341 C   0  0  0  0  0  0  0  0  0  0  0  0
   18.3422   -5.6169  -14.1880 C   0  0  2  0  0  0  0  0  0  0  0  0
   17.5342   -6.7058  -14.7843 N   0  0  0  0  0  0  0  0  0  0  0  0
   17.8112   -4.3837  -14.7095 C   0  0  0  0  0  0  0  0  0  0  0  0
   17.1194   -4.2874  -15.9367 O   0  0  0  0  0  0  0  0  0  0  0  0
   17.9290   -3.2987  -14.1012 O   0  0  0  0  0  0  0  0  0  0  0  0
  2  3  2  0
  2  1  1  0
  4  2  1  0
  5  4  1  0
  5  6  1  1
  7  8  2  0
  7  5  1  0
  9  7  1  0
 10 11  1  1
 10  9  1  0
 11 12  1  0
 12 13  1  0
 13 17  1  0
 14 13  2  0
 15 24  1  0
 15 10  1  0
 16 15  2  0
 19 18  1  0
 20 19  2  0
 21 19  1  0
 22 21  1  0
 23 22  1  6
 23 24  1  0
 25 26  1  0
 25 23  1  0
 27 25  2  0
M  END
$$$$
