NIG.pdb
     RDKit          3D

 21 20  0  0  1  0  0  0  0  0999 V2000
   17.3354   -9.5609  -20.2588 N   0  0  0  0  0  0  0  0  0  0  0  0
   17.6546   -8.3492  -19.6034 C   0  0  0  0  0  0  0  0  0  0  0  0
   17.3171   -7.2444  -20.0987 O   0  0  0  0  0  0  0  0  0  0  0  0
   18.3858   -8.3611  -18.3328 C   0  0  0  0  0  0  0  0  0  0  0  0
   18.7653   -9.7346  -17.8769 C   0  0  2  0  0  0  0  0  0  0  0  0
   17.6802  -10.6500  -17.7903 N   0  0  0  0  0  0  0  0  0  0  0  0
   19.4220   -9.5723  -16.5206 C   0  0  0  0  0  0  0  0  0  0  0  0
   18.6892   -9.9386  -15.5804 O   0  0  0  0  0  0  0  0  0  0  0  0
   23.7417  -12.0013  -15.2631 C   0  0  0  0  0  0  0  0  0  0  0  0
   22.4316  -11.1968  -15.2266 C   0  0  0  0  0  0  0  0  0  0  0  0
   22.7155   -9.7102  -15.1324 C   0  0  2  0  0  0  0  0  0  0  0  0
   23.5207   -9.4498  -13.8810 C   0  0  0  0  0  0  0  0  0  0  0  0
   21.4773   -8.8764  -15.1533 C   0  0  2  0  0  0  0  0  0  0  0  0
   20.7070   -9.0651  -16.3807 N   0  0  0  0  0  0  0  0  0  0  0  0
   21.6375   -7.4660  -14.8504 C   0  0  0  0  0  0  0  0  0  0  0  0
   22.0191   -7.1640  -13.6482 O   0  0  0  0  0  0  0  0  0  0  0  0
   21.4401   -6.3495  -15.6895 N   0  0  0  0  0  0  0  0  0  0  0  0
   21.7798   -5.0132  -15.1939 C   0  0  0  0  0  0  0  0  0  0  0  0
   20.5694   -4.3023  -14.7301 C   0  0  0  0  0  0  0  0  0  0  0  0
   20.5467   -2.9878  -14.3112 O   0  0  0  0  0  0  0  0  0  0  0  0
   19.4930   -4.9469  -14.7203 O   0  0  0  0  0  0  0  0  0  0  0  0
  2  3  2  0
  2  1  1  0
  4  2  1  0
  5  4  1  0
  5  6  1  1
  7 14  1  0
  7  5  1  0
  8  7  2  0
  9 10  1  0
 10 11  1  0
 11 12  1  1
 11 13  1  0
 13 14  1  6
 15 13  1  0
 15 17  1  0
 16 15  2  0
 18 17  1  0
 18 19  1  0
 19 20  1  0
 21 19  2  0
M  END
$$$$
