NIG.pdb
     RDKit          3D

 21 20  0  0  1  0  0  0  0  0999 V2000
   19.1590  -22.5961  -14.1372 N   0  0  0  0  0  0  0  0  0  0  0  0
   20.3502  -22.7595  -14.8815 C   0  0  0  0  0  0  0  0  0  0  0  0
   20.4051  -23.5813  -15.8309 O   0  0  0  0  0  0  0  0  0  0  0  0
   21.5435  -21.9718  -14.5577 C   0  0  0  0  0  0  0  0  0  0  0  0
   21.4197  -21.2005  -13.2817 C   0  0  2  0  0  0  0  0  0  0  0  0
   20.3948  -20.2144  -13.2837 N   0  0  0  0  0  0  0  0  0  0  0  0
   22.7680  -20.5528  -13.0372 C   0  0  0  0  0  0  0  0  0  0  0  0
   22.7910  -19.3469  -13.3541 O   0  0  0  0  0  0  0  0  0  0  0  0
   24.8810  -20.6690   -8.3523 C   0  0  0  0  0  0  0  0  0  0  0  0
   24.5901  -20.2701   -9.8087 C   0  0  0  0  0  0  0  0  0  0  0  0
   25.5313  -20.9831  -10.7602 C   0  0  2  0  0  0  0  0  0  0  0  0
   26.9431  -20.5271  -10.4762 C   0  0  0  0  0  0  0  0  0  0  0  0
   25.1810  -20.7722  -12.1961 C   0  0  2  0  0  0  0  0  0  0  0  0
   23.8412  -21.2616  -12.5137 N   0  0  0  0  0  0  0  0  0  0  0  0
   26.1488  -21.2301  -13.1759 C   0  0  0  0  0  0  0  0  0  0  0  0
   26.2893  -22.5128  -13.3064 O   0  0  0  0  0  0  0  0  0  0  0  0
   26.9746  -20.4705  -14.0306 N   0  0  0  0  0  0  0  0  0  0  0  0
   27.8698  -21.1626  -14.9614 C   0  0  0  0  0  0  0  0  0  0  0  0
   27.4768  -20.8983  -16.3618 C   0  0  0  0  0  0  0  0  0  0  0  0
   28.2987  -20.3242  -17.3098 O   0  0  0  0  0  0  0  0  0  0  0  0
   26.3133  -21.2217  -16.7027 O   0  0  0  0  0  0  0  0  0  0  0  0
  2  3  2  0
  2  1  1  0
  4  2  1  0
  5  4  1  0
  5  6  1  6
  7 14  1  0
  7  5  1  0
  8  7  2  0
  9 10  1  0
 10 11  1  0
 11 12  1  6
 11 13  1  0
 13 14  1  6
 15 13  1  0
 15 17  1  0
 16 15  2  0
 18 17  1  0
 18 19  1  0
 19 20  1  0
 21 19  2  0
M  END
$$$$
