NIG.pdb
     RDKit          3D

 21 20  0  0  1  0  0  0  0  0999 V2000
   18.6909  -12.3729  -19.2835 N   0  0  0  0  0  0  0  0  0  0  0  0
   18.6350  -11.0851  -18.7017 C   0  0  0  0  0  0  0  0  0  0  0  0
   17.8552  -10.2102  -19.1556 O   0  0  0  0  0  0  0  0  0  0  0  0
   19.4873  -10.7484  -17.5574 C   0  0  0  0  0  0  0  0  0  0  0  0
   20.4164  -11.8522  -17.1616 C   0  0  2  0  0  0  0  0  0  0  0  0
   19.7708  -13.0616  -16.7829 N   0  0  0  0  0  0  0  0  0  0  0  0
   21.2501  -11.3223  -16.0121 C   0  0  0  0  0  0  0  0  0  0  0  0
   20.7298  -11.5333  -14.8986 O   0  0  0  0  0  0  0  0  0  0  0  0
   26.6284  -12.0194  -15.9111 C   0  0  0  0  0  0  0  0  0  0  0  0
   25.1820  -11.8025  -15.4358 C   0  0  0  0  0  0  0  0  0  0  0  0
   24.7938  -10.3405  -15.5430 C   0  0  2  0  0  0  0  0  0  0  0  0
   25.6966   -9.5329  -14.6404 C   0  0  0  0  0  0  0  0  0  0  0  0
   23.3572  -10.0923  -15.2215 C   0  0  2  0  0  0  0  0  0  0  0  0
   22.4612  -10.6750  -16.2180 N   0  0  0  0  0  0  0  0  0  0  0  0
   22.9845   -8.7214  -14.9241 C   0  0  0  0  0  0  0  0  0  0  0  0
   23.4842   -8.1981  -13.8477 O   0  0  0  0  0  0  0  0  0  0  0  0
   22.1445   -7.8520  -15.6506 N   0  0  0  0  0  0  0  0  0  0  0  0
   21.9352   -6.4862  -15.1631 C   0  0  0  0  0  0  0  0  0  0  0  0
   22.8064   -5.5330  -15.8827 C   0  0  0  0  0  0  0  0  0  0  0  0
   23.6974   -5.8842  -16.8759 O   0  0  0  0  0  0  0  0  0  0  0  0
   22.7227   -4.3230  -15.5611 O   0  0  0  0  0  0  0  0  0  0  0  0
  2  3  2  0
  2  1  1  0
  4  2  1  0
  5  4  1  0
  5  6  1  1
  7 14  1  0
  7  5  1  0
  8  7  2  0
  9 10  1  0
 10 11  1  0
 11 12  1  1
 11 13  1  0
 13 14  1  6
 15 13  1  0
 15 17  1  0
 16 15  2  0
 18 17  1  0
 18 19  1  0
 19 20  1  0
 21 19  2  0
M  END
$$$$
