NIG.pdb
     RDKit          3D

 21 20  0  0  1  0  0  0  0  0999 V2000
   21.3862  -17.7230  -17.8510 N   0  0  0  0  0  0  0  0  0  0  0  0
   21.0550  -18.4454  -16.6813 C   0  0  0  0  0  0  0  0  0  0  0  0
   19.9261  -18.3134  -16.1447 O   0  0  0  0  0  0  0  0  0  0  0  0
   22.0245  -19.3619  -16.0737 C   0  0  0  0  0  0  0  0  0  0  0  0
   23.3297  -19.4172  -16.8029 C   0  0  2  0  0  0  0  0  0  0  0  0
   23.2702  -20.0506  -18.0749 N   0  0  0  0  0  0  0  0  0  0  0  0
   24.2982  -20.1520  -15.8976 C   0  0  0  0  0  0  0  0  0  0  0  0
   24.3777  -21.3687  -16.1589 O   0  0  0  0  0  0  0  0  0  0  0  0
   27.9006  -17.9211  -16.0475 C   0  0  0  0  0  0  0  0  0  0  0  0
   27.8949  -19.3416  -15.4586 C   0  0  0  0  0  0  0  0  0  0  0  0
   27.3047  -19.3427  -14.0618 C   0  0  2  0  0  0  0  0  0  0  0  0
   28.3128  -19.9445  -13.1112 C   0  0  0  0  0  0  0  0  0  0  0  0
   25.9987  -20.0613  -13.9797 C   0  0  2  0  0  0  0  0  0  0  0  0
   25.0044  -19.5029  -14.8936 N   0  0  0  0  0  0  0  0  0  0  0  0
   25.4404  -20.2471  -12.6529 C   0  0  0  0  0  0  0  0  0  0  0  0
   24.7824  -19.2497  -12.1487 O   0  0  0  0  0  0  0  0  0  0  0  0
   25.5043  -21.3784  -11.8130 N   0  0  0  0  0  0  0  0  0  0  0  0
   24.8326  -21.3419  -10.5114 C   0  0  0  0  0  0  0  0  0  0  0  0
   25.6994  -20.7150   -9.4911 C   0  0  0  0  0  0  0  0  0  0  0  0
   25.3201  -20.4675   -8.1877 O   0  0  0  0  0  0  0  0  0  0  0  0
   26.8585  -20.3889   -9.8439 O   0  0  0  0  0  0  0  0  0  0  0  0
  2  3  2  0
  2  1  1  0
  4  2  1  0
  5  4  1  0
  5  6  1  6
  7 14  1  0
  7  5  1  0
  8  7  2  0
  9 10  1  0
 10 11  1  0
 11 12  1  1
 11 13  1  0
 13 14  1  6
 15 13  1  0
 15 17  1  0
 16 15  2  0
 18 17  1  0
 18 19  1  0
 19 20  1  0
 21 19  2  0
M  END
$$$$
