NIG.pdb
     RDKit          3D

 21 20  0  0  1  0  0  0  0  0999 V2000
   28.4984  -21.5814  -17.3578 N   0  0  0  0  0  0  0  0  0  0  0  0
   27.3146  -20.8094  -17.3061 C   0  0  0  0  0  0  0  0  0  0  0  0
   27.1357  -19.8563  -18.1057 O   0  0  0  0  0  0  0  0  0  0  0  0
   26.2743  -21.1084  -16.3173 C   0  0  0  0  0  0  0  0  0  0  0  0
   26.6350  -22.2287  -15.3937 C   0  0  2  0  0  0  0  0  0  0  0  0
   26.7115  -23.5060  -16.0147 N   0  0  0  0  0  0  0  0  0  0  0  0
   25.5851  -22.2408  -14.3005 C   0  0  0  0  0  0  0  0  0  0  0  0
   24.7490  -23.1551  -14.4418 O   0  0  0  0  0  0  0  0  0  0  0  0
   27.6229  -20.8185  -10.0707 C   0  0  0  0  0  0  0  0  0  0  0  0
   26.3456  -21.6059  -10.4076 C   0  0  0  0  0  0  0  0  0  0  0  0
   25.2616  -20.6784  -10.9218 C   0  0  2  0  0  0  0  0  0  0  0  0
   24.2326  -20.4863   -9.8327 C   0  0  0  0  0  0  0  0  0  0  0  0
   24.6226  -21.1672  -12.1795 C   0  0  2  0  0  0  0  0  0  0  0  0
   25.5880  -21.3139  -13.2667 N   0  0  0  0  0  0  0  0  0  0  0  0
   23.4387  -20.4565  -12.6265 C   0  0  0  0  0  0  0  0  0  0  0  0
   23.6263  -19.3161  -13.2148 O   0  0  0  0  0  0  0  0  0  0  0  0
   22.0835  -20.8325  -12.5182 N   0  0  0  0  0  0  0  0  0  0  0  0
   21.0490  -19.9403  -13.0479 C   0  0  0  0  0  0  0  0  0  0  0  0
   20.4910  -20.4741  -14.3085 C   0  0  0  0  0  0  0  0  0  0  0  0
   19.4286  -19.9179  -14.9909 O   0  0  0  0  0  0  0  0  0  0  0  0
   21.0270  -21.5046  -14.7830 O   0  0  0  0  0  0  0  0  0  0  0  0
  2  3  2  0
  2  1  1  0
  4  2  1  0
  5  4  1  0
  5  6  1  6
  7 14  1  0
  7  5  1  0
  8  7  2  0
  9 10  1  0
 10 11  1  0
 11 12  1  1
 11 13  1  0
 13 14  1  6
 15 13  1  0
 15 17  1  0
 16 15  2  0
 18 17  1  0
 18 19  1  0
 19 20  1  0
 21 19  2  0
M  END
$$$$
