NIG.pdb
     RDKit          3D

 21 20  0  0  1  0  0  0  0  0999 V2000
   28.6515  -34.0500   -5.9477 N   0  0  0  0  0  0  0  0  0  0  0  0
   29.0261  -34.1604   -4.5886 C   0  0  0  0  0  0  0  0  0  0  0  0
   28.5391  -33.3880   -3.7248 O   0  0  0  0  0  0  0  0  0  0  0  0
   29.9905  -35.1793   -4.1633 C   0  0  0  0  0  0  0  0  0  0  0  0
   31.3883  -34.9038   -4.6201 C   0  0  2  0  0  0  0  0  0  0  0  0
   31.8083  -35.6764   -5.7380 N   0  0  0  0  0  0  0  0  0  0  0  0
   32.2904  -35.1704   -3.4316 C   0  0  0  0  0  0  0  0  0  0  0  0
   32.5472  -36.3812   -3.2801 O   0  0  0  0  0  0  0  0  0  0  0  0
   35.9155  -31.2664   -2.3546 C   0  0  0  0  0  0  0  0  0  0  0  0
   35.2778  -32.6575   -2.5068 C   0  0  0  0  0  0  0  0  0  0  0  0
   34.4703  -33.0169   -1.2746 C   0  0  2  0  0  0  0  0  0  0  0  0
   35.4147  -33.1726   -0.1058 C   0  0  0  0  0  0  0  0  0  0  0  0
   33.6405  -34.2444   -1.4573 C   0  0  2  0  0  0  0  0  0  0  0  0
   32.7610  -34.1465   -2.6202 N   0  0  0  0  0  0  0  0  0  0  0  0
   32.9143  -34.7181   -0.2934 C   0  0  0  0  0  0  0  0  0  0  0  0
   31.7932  -34.1258   -0.0204 O   0  0  0  0  0  0  0  0  0  0  0  0
   33.2514  -35.7538    0.6028 N   0  0  0  0  0  0  0  0  0  0  0  0
   32.3840  -36.0138    1.7547 C   0  0  0  0  0  0  0  0  0  0  0  0
   32.7748  -35.1732    2.9062 C   0  0  0  0  0  0  0  0  0  0  0  0
   32.1592  -35.2027    4.1407 O   0  0  0  0  0  0  0  0  0  0  0  0
   33.7337  -34.3812    2.7400 O   0  0  0  0  0  0  0  0  0  0  0  0
  2  3  2  0
  2  1  1  0
  4  2  1  0
  5  4  1  0
  5  6  1  6
  7 14  1  0
  7  5  1  0
  8  7  2  0
  9 10  1  0
 10 11  1  0
 11 12  1  1
 11 13  1  0
 13 14  1  6
 15 13  1  0
 15 17  1  0
 16 15  2  0
 18 17  1  0
 18 19  1  0
 19 20  1  0
 21 19  2  0
M  END
$$$$
