NIG.pdb
     RDKit          3D

 21 20  0  0  1  0  0  0  0  0999 V2000
   26.6258  -18.5998  -15.8671 N   0  0  0  0  0  0  0  0  0  0  0  0
   25.2981  -18.7538  -15.4052 C   0  0  0  0  0  0  0  0  0  0  0  0
   24.3485  -18.1590  -15.9746 O   0  0  0  0  0  0  0  0  0  0  0  0
   25.0064  -19.6113  -14.2525 C   0  0  0  0  0  0  0  0  0  0  0  0
   26.2296  -20.2004  -13.6239 C   0  0  2  0  0  0  0  0  0  0  0  0
   26.9649  -21.0772  -14.4684 N   0  0  0  0  0  0  0  0  0  0  0  0
   25.7644  -20.9370  -12.3836 C   0  0  0  0  0  0  0  0  0  0  0  0
   25.4340  -22.1168  -12.6160 O   0  0  0  0  0  0  0  0  0  0  0  0
   26.6179  -20.4272   -6.2558 C   0  0  0  0  0  0  0  0  0  0  0  0
   25.7589  -21.0102   -7.3904 C   0  0  0  0  0  0  0  0  0  0  0  0
   26.0973  -20.3522   -8.7141 C   0  0  2  0  0  0  0  0  0  0  0  0
   25.8821  -18.8627   -8.5828 C   0  0  0  0  0  0  0  0  0  0  0  0
   25.3148  -20.9056   -9.8587 C   0  0  2  0  0  0  0  0  0  0  0  0
   25.7245  -20.3273  -11.1367 N   0  0  0  0  0  0  0  0  0  0  0  0
   23.8698  -20.8984   -9.7229 C   0  0  0  0  0  0  0  0  0  0  0  0
   23.2611  -19.7850   -9.9913 O   0  0  0  0  0  0  0  0  0  0  0  0
   23.0087  -21.9473   -9.3386 N   0  0  0  0  0  0  0  0  0  0  0  0
   21.5712  -21.6878   -9.2255 C   0  0  0  0  0  0  0  0  0  0  0  0
   21.0455  -22.1970   -7.9410 C   0  0  0  0  0  0  0  0  0  0  0  0
   19.7335  -22.0784   -7.5308 O   0  0  0  0  0  0  0  0  0  0  0  0
   21.8560  -22.7757   -7.1777 O   0  0  0  0  0  0  0  0  0  0  0  0
  2  3  2  0
  2  1  1  0
  4  2  1  0
  5  4  1  0
  5  6  1  6
  7 14  1  0
  7  5  1  0
  8  7  2  0
  9 10  1  0
 10 11  1  0
 11 12  1  1
 11 13  1  0
 13 14  1  6
 15 13  1  0
 15 17  1  0
 16 15  2  0
 18 17  1  0
 18 19  1  0
 19 20  1  0
 21 19  2  0
M  END
$$$$
