NKD.pdb
     RDKit          3D

 26 25  0  0  1  0  0  0  0  0999 V2000
   29.5308  -21.0482  -18.0048 N   0  0  0  0  0  0  0  0  0  0  0  0
   28.2914  -20.4705  -18.3683 C   0  0  0  0  0  0  0  0  0  0  0  0
   28.2582  -19.5948  -19.2992 O   0  0  0  0  0  0  0  0  0  0  0  0
   27.0588  -20.8835  -17.6746 C   0  0  0  0  0  0  0  0  0  0  0  0
   27.4337  -21.8738  -16.5874 C   0  0  2  0  0  0  0  0  0  0  0  0
   27.7464  -23.1498  -17.2079 N   0  0  0  0  0  0  0  0  0  0  0  0
   26.2925  -22.0131  -15.6643 C   0  0  0  0  0  0  0  0  0  0  0  0
   25.2645  -22.6104  -16.0469 O   0  0  0  0  0  0  0  0  0  0  0  0
   26.3835  -21.4700  -14.3648 N   0  0  0  0  0  0  0  0  0  0  0  0
   25.3149  -21.5674  -13.4060 C   0  0  1  0  0  0  0  0  0  0  0  0
   25.7797  -21.1241  -12.0585 C   0  0  0  0  0  0  0  0  0  0  0  0
   24.7305  -21.1964  -11.0039 C   0  0  0  0  0  0  0  0  0  0  0  0
   25.2872  -20.8475   -9.6605 C   0  0  0  0  0  0  0  0  0  0  0  0
   24.2333  -20.8384   -8.5738 C   0  0  0  0  0  0  0  0  0  0  0  0
   24.8580  -20.3730   -7.3432 N   0  0  0  0  0  0  0  0  0  0  0  0
   24.1303  -20.7486  -13.8204 C   0  0  0  0  0  0  0  0  0  0  0  0
   24.3287  -19.5327  -14.0560 O   0  0  0  0  0  0  0  0  0  0  0  0
   22.8487  -21.3047  -13.9442 N   0  0  0  0  0  0  0  0  0  0  0  0
   21.7103  -20.5398  -14.4031 C   0  0  1  0  0  0  0  0  0  0  0  0
   21.1408  -21.1237  -15.6830 C   0  0  0  0  0  0  0  0  0  0  0  0
   19.9706  -20.3606  -16.1456 C   0  0  0  0  0  0  0  0  0  0  0  0
   19.8931  -19.1195  -16.2103 O   0  0  0  0  0  0  0  0  0  0  0  0
   20.6124  -20.5875  -13.3722 C   0  0  0  0  0  0  0  0  0  0  0  0
   19.6296  -19.6123  -13.2965 O   0  0  0  0  0  0  0  0  0  0  0  0
   18.8398  -21.1040  -16.5505 O   0  0  0  0  0  0  0  0  0  0  0  0
   20.5756  -21.5339  -12.5477 O   0  0  0  0  0  0  0  0  0  0  0  0
  2  3  2  0
  2  1  1  0
  4  2  1  0
  5  4  1  0
  5  7  1  0
  5  6  1  6
  7  8  2  0
  9  7  1  0
  9 10  1  0
 10 11  1  1
 11 12  1  0
 13 12  1  0
 14 15  1  0
 14 13  1  0
 16 10  1  0
 16 17  2  0
 18 16  1  0
 19 18  1  0
 20 21  1  0
 19 20  1  6
 21 22  2  0
 23 19  1  0
 24 23  1  0
 25 21  1  0
 26 23  2  0
M  END
$$$$
