NKD.pdb
     RDKit          3D

 26 25  0  0  1  0  0  0  0  0999 V2000
   27.7682  -12.6716  -16.3934 N   0  0  0  0  0  0  0  0  0  0  0  0
   27.9344  -11.2802  -16.1983 C   0  0  0  0  0  0  0  0  0  0  0  0
   29.1015  -10.8167  -15.9584 O   0  0  0  0  0  0  0  0  0  0  0  0
   26.7665  -10.3849  -16.2747 C   0  0  0  0  0  0  0  0  0  0  0  0
   25.5372  -11.2293  -16.5557 C   0  0  2  0  0  0  0  0  0  0  0  0
   25.6906  -11.8558  -17.8575 N   0  0  0  0  0  0  0  0  0  0  0  0
   24.3513  -10.3535  -16.5394 C   0  0  0  0  0  0  0  0  0  0  0  0
   24.1343   -9.5980  -17.5100 O   0  0  0  0  0  0  0  0  0  0  0  0
   23.4824  -10.3860  -15.4277 N   0  0  0  0  0  0  0  0  0  0  0  0
   22.2247   -9.6873  -15.4046 C   0  0  1  0  0  0  0  0  0  0  0  0
   21.2126  -10.4585  -14.6240 C   0  0  0  0  0  0  0  0  0  0  0  0
   19.8651   -9.8250  -14.5905 C   0  0  0  0  0  0  0  0  0  0  0  0
   18.8868  -10.5870  -15.4264 C   0  0  0  0  0  0  0  0  0  0  0  0
   17.5431   -9.8977  -15.5307 C   0  0  0  0  0  0  0  0  0  0  0  0
   16.6270  -10.7966  -16.2192 N   0  0  0  0  0  0  0  0  0  0  0  0
   22.3698   -8.3164  -14.8174 C   0  0  0  0  0  0  0  0  0  0  0  0
   23.0337   -8.2143  -13.7581 O   0  0  0  0  0  0  0  0  0  0  0  0
   21.7940   -7.1862  -15.4162 N   0  0  0  0  0  0  0  0  0  0  0  0
   21.8682   -5.8693  -14.8231 C   0  0  1  0  0  0  0  0  0  0  0  0
   22.3685   -4.8465  -15.8266 C   0  0  0  0  0  0  0  0  0  0  0  0
   22.3789   -3.4921  -15.2510 C   0  0  0  0  0  0  0  0  0  0  0  0
   22.6493   -3.2080  -14.0693 O   0  0  0  0  0  0  0  0  0  0  0  0
   20.4951   -5.4247  -14.3904 C   0  0  0  0  0  0  0  0  0  0  0  0
   20.3021   -4.5650  -13.3196 O   0  0  0  0  0  0  0  0  0  0  0  0
   22.0536   -2.4250  -16.1175 O   0  0  0  0  0  0  0  0  0  0  0  0
   19.4843   -5.8399  -15.0091 O   0  0  0  0  0  0  0  0  0  0  0  0
  2  3  2  0
  2  1  1  0
  4  2  1  0
  5  4  1  0
  5  7  1  0
  5  6  1  6
  7  8  2  0
  9  7  1  0
  9 10  1  0
 10 11  1  1
 11 12  1  0
 13 12  1  0
 14 15  1  0
 14 13  1  0
 16 10  1  0
 16 17  2  0
 18 16  1  0
 19 18  1  0
 20 21  1  0
 19 20  1  6
 21 22  2  0
 23 19  1  0
 24 23  1  0
 25 21  1  0
 26 23  2  0
M  END
$$$$
