NKD.pdb
     RDKit          3D

 26 25  0  0  1  0  0  0  0  0999 V2000
   28.8742  -10.0788  -15.8328 N   0  0  0  0  0  0  0  0  0  0  0  0
   28.5359  -10.3149  -17.1862 C   0  0  0  0  0  0  0  0  0  0  0  0
   29.4573  -10.6234  -18.0170 O   0  0  0  0  0  0  0  0  0  0  0  0
   27.1322  -10.2045  -17.6207 C   0  0  0  0  0  0  0  0  0  0  0  0
   26.2904   -9.8211  -16.4176 C   0  0  2  0  0  0  0  0  0  0  0  0
   26.2416  -10.9504  -15.5049 N   0  0  0  0  0  0  0  0  0  0  0  0
   24.9355   -9.4731  -16.8833 C   0  0  0  0  0  0  0  0  0  0  0  0
   24.7984   -8.6270  -17.7917 O   0  0  0  0  0  0  0  0  0  0  0  0
   23.8184  -10.1037  -16.2947 N   0  0  0  0  0  0  0  0  0  0  0  0
   22.4655   -9.8138  -16.6901 C   0  0  1  0  0  0  0  0  0  0  0  0
   21.5928  -11.0067  -16.4811 C   0  0  0  0  0  0  0  0  0  0  0  0
   21.7083  -12.0345  -17.5528 C   0  0  0  0  0  0  0  0  0  0  0  0
   20.7250  -13.1427  -17.3494 C   0  0  0  0  0  0  0  0  0  0  0  0
   20.7768  -14.1814  -18.4494 C   0  0  0  0  0  0  0  0  0  0  0  0
   19.7700  -15.1938  -18.1620 N   0  0  0  0  0  0  0  0  0  0  0  0
   21.9097   -8.6487  -15.9292 C   0  0  0  0  0  0  0  0  0  0  0  0
   22.2592   -8.5281  -14.7306 O   0  0  0  0  0  0  0  0  0  0  0  0
   21.0355   -7.7240  -16.5192 N   0  0  0  0  0  0  0  0  0  0  0  0
   20.4882   -6.5991  -15.7936 C   0  0  1  0  0  0  0  0  0  0  0  0
   20.3469   -5.3856  -16.6942 C   0  0  0  0  0  0  0  0  0  0  0  0
   19.7884   -4.2376  -15.9622 C   0  0  0  0  0  0  0  0  0  0  0  0
   19.2877   -3.2215  -16.4791 O   0  0  0  0  0  0  0  0  0  0  0  0
   19.1082   -6.9363  -15.2915 C   0  0  0  0  0  0  0  0  0  0  0  0
   18.2952   -7.8582  -15.9333 O   0  0  0  0  0  0  0  0  0  0  0  0
   19.8252   -4.2976  -14.5514 O   0  0  0  0  0  0  0  0  0  0  0  0
   18.6668   -6.3701  -14.2611 O   0  0  0  0  0  0  0  0  0  0  0  0
  2  3  2  0
  2  1  1  0
  4  2  1  0
  5  4  1  0
  5  7  1  0
  5  6  1  1
  7  8  2  0
  9  7  1  0
  9 10  1  0
 10 11  1  1
 11 12  1  0
 13 12  1  0
 14 15  1  0
 14 13  1  0
 16 10  1  0
 16 17  2  0
 18 16  1  0
 19 18  1  0
 20 21  1  0
 19 20  1  6
 21 22  2  0
 23 19  1  0
 24 23  1  0
 25 21  1  0
 26 23  2  0
M  END
$$$$
