NKD.pdb
     RDKit          3D

 26 25  0  0  1  0  0  0  0  0999 V2000
   26.7844  -12.6498  -15.1617 N   0  0  0  0  0  0  0  0  0  0  0  0
   25.8626  -12.7375  -16.2314 C   0  0  0  0  0  0  0  0  0  0  0  0
   25.4223  -11.6639  -16.7680 O   0  0  0  0  0  0  0  0  0  0  0  0
   25.4235  -14.0588  -16.7139 C   0  0  0  0  0  0  0  0  0  0  0  0
   26.0633  -15.1214  -15.8394 C   0  0  2  0  0  0  0  0  0  0  0  0
   27.4858  -15.1695  -16.1310 N   0  0  0  0  0  0  0  0  0  0  0  0
   25.4298  -16.4192  -16.1367 C   0  0  0  0  0  0  0  0  0  0  0  0
   24.5717  -16.4890  -17.0414 O   0  0  0  0  0  0  0  0  0  0  0  0
   25.8061  -17.5589  -15.3941 N   0  0  0  0  0  0  0  0  0  0  0  0
   25.2681  -18.8678  -15.6549 C   0  0  1  0  0  0  0  0  0  0  0  0
   26.2502  -19.9232  -15.2678 C   0  0  0  0  0  0  0  0  0  0  0  0
   26.6092  -20.8500  -16.3770 C   0  0  0  0  0  0  0  0  0  0  0  0
   27.4662  -21.9739  -15.8885 C   0  0  0  0  0  0  0  0  0  0  0  0
   27.9779  -22.8514  -17.0110 C   0  0  0  0  0  0  0  0  0  0  0  0
   28.9568  -23.7739  -16.4523 N   0  0  0  0  0  0  0  0  0  0  0  0
   23.9816  -19.0883  -14.9189 C   0  0  0  0  0  0  0  0  0  0  0  0
   23.9180  -18.6691  -13.7384 O   0  0  0  0  0  0  0  0  0  0  0  0
   22.8867  -19.7338  -15.5122 N   0  0  0  0  0  0  0  0  0  0  0  0
   21.6418  -19.9564  -14.8106 C   0  0  1  0  0  0  0  0  0  0  0  0
   20.6172  -18.8951  -15.1675 C   0  0  0  0  0  0  0  0  0  0  0  0
   19.3234  -19.1601  -14.5183 C   0  0  0  0  0  0  0  0  0  0  0  0
   18.2953  -19.5691  -15.0894 O   0  0  0  0  0  0  0  0  0  0  0  0
   21.0570  -21.2849  -15.2147 C   0  0  0  0  0  0  0  0  0  0  0  0
   21.4808  -21.9627  -16.3477 O   0  0  0  0  0  0  0  0  0  0  0  0
   19.2454  -18.9296  -13.1268 O   0  0  0  0  0  0  0  0  0  0  0  0
   20.1547  -21.8052  -14.5133 O   0  0  0  0  0  0  0  0  0  0  0  0
  2  3  2  0
  2  1  1  0
  4  2  1  0
  5  4  1  0
  5  7  1  0
  5  6  1  6
  7  8  2  0
  9  7  1  0
  9 10  1  0
 10 11  1  1
 11 12  1  0
 13 12  1  0
 14 15  1  0
 14 13  1  0
 16 10  1  0
 16 17  2  0
 18 16  1  0
 19 18  1  0
 20 21  1  0
 19 20  1  6
 21 22  2  0
 23 19  1  0
 24 23  1  0
 25 21  1  0
 26 23  2  0
M  END
$$$$
