NKD.pdb
     RDKit          3D

 26 25  0  0  1  0  0  0  0  0999 V2000
   22.5050   -7.5744  -13.0087 N   0  0  0  0  0  0  0  0  0  0  0  0
   21.4592   -8.4485  -12.6290 C   0  0  0  0  0  0  0  0  0  0  0  0
   21.6771   -9.7078  -12.5957 O   0  0  0  0  0  0  0  0  0  0  0  0
   20.1376   -7.9004  -12.2765 C   0  0  0  0  0  0  0  0  0  0  0  0
   19.0764   -8.8791  -12.7445 C   0  0  2  0  0  0  0  0  0  0  0  0
   19.0617   -8.8901  -14.1972 N   0  0  0  0  0  0  0  0  0  0  0  0
   17.7701   -8.4440  -12.2170 C   0  0  0  0  0  0  0  0  0  0  0  0
   17.2161   -7.4375  -12.7069 O   0  0  0  0  0  0  0  0  0  0  0  0
   17.1692   -9.1741  -11.1692 N   0  0  0  0  0  0  0  0  0  0  0  0
   15.8644   -8.8578  -10.6514 C   0  0  1  0  0  0  0  0  0  0  0  0
   15.1583  -10.1001  -10.2194 C   0  0  0  0  0  0  0  0  0  0  0  0
   13.7497   -9.8760   -9.7906 C   0  0  0  0  0  0  0  0  0  0  0  0
   13.0478  -11.1717   -9.5363 C   0  0  0  0  0  0  0  0  0  0  0  0
   11.5702  -10.9933   -9.2598 C   0  0  0  0  0  0  0  0  0  0  0  0
   10.9871  -12.3120   -9.0537 N   0  0  0  0  0  0  0  0  0  0  0  0
   15.9483   -7.9042   -9.4986 C   0  0  0  0  0  0  0  0  0  0  0  0
   16.7591   -8.1826   -8.5829 O   0  0  0  0  0  0  0  0  0  0  0  0
   15.1606   -6.7455   -9.4332 N   0  0  0  0  0  0  0  0  0  0  0  0
   15.2087   -5.8351   -8.3105 C   0  0  1  0  0  0  0  0  0  0  0  0
   15.5702   -4.4317   -8.7614 C   0  0  0  0  0  0  0  0  0  0  0  0
   15.4975   -3.4752   -7.6453 C   0  0  0  0  0  0  0  0  0  0  0  0
   14.6133   -2.6134   -7.4848 O   0  0  0  0  0  0  0  0  0  0  0  0
   13.8519   -5.7517   -7.6606 C   0  0  0  0  0  0  0  0  0  0  0  0
   12.7382   -6.3806   -8.1963 O   0  0  0  0  0  0  0  0  0  0  0  0
   16.5210   -3.5445   -6.6742 O   0  0  0  0  0  0  0  0  0  0  0  0
   13.7106   -5.0932   -6.6007 O   0  0  0  0  0  0  0  0  0  0  0  0
  2  3  2  0
  2  1  1  0
  4  2  1  0
  5  4  1  0
  5  7  1  0
  5  6  1  6
  7  8  2  0
  9  7  1  0
  9 10  1  0
 10 11  1  1
 11 12  1  0
 13 12  1  0
 14 15  1  0
 14 13  1  0
 16 10  1  0
 16 17  2  0
 18 16  1  0
 19 18  1  0
 20 21  1  0
 19 20  1  6
 21 22  2  0
 23 19  1  0
 24 23  1  0
 25 21  1  0
 26 23  2  0
M  END
$$$$
