NKD.pdb
     RDKit          3D

 26 25  0  0  1  0  0  0  0  0999 V2000
   21.4087   -9.3272  -12.3442 N   0  0  0  0  0  0  0  0  0  0  0  0
   21.2724   -7.9225  -12.2442 C   0  0  0  0  0  0  0  0  0  0  0  0
   22.3114   -7.1842  -12.3442 O   0  0  0  0  0  0  0  0  0  0  0  0
   19.9411   -7.3289  -12.0283 C   0  0  0  0  0  0  0  0  0  0  0  0
   18.9119   -8.4435  -12.0632 C   0  0  2  0  0  0  0  0  0  0  0  0
   18.8549   -8.9823  -13.4113 N   0  0  0  0  0  0  0  0  0  0  0  0
   17.6033   -7.8878  -11.6723 C   0  0  0  0  0  0  0  0  0  0  0  0
   16.9157   -7.2838  -12.5222 O   0  0  0  0  0  0  0  0  0  0  0  0
   17.1514   -8.0499  -10.3451 N   0  0  0  0  0  0  0  0  0  0  0  0
   15.8262   -7.6784   -9.9253 C   0  0  1  0  0  0  0  0  0  0  0  0
   15.1805   -8.7990   -9.1799 C   0  0  0  0  0  0  0  0  0  0  0  0
   14.1640   -9.5450   -9.9725 C   0  0  0  0  0  0  0  0  0  0  0  0
   13.5662  -10.6599   -9.1752 C   0  0  0  0  0  0  0  0  0  0  0  0
   12.5922  -11.4969   -9.9767 C   0  0  0  0  0  0  0  0  0  0  0  0
   13.3244  -12.1145  -11.0739 N   0  0  0  0  0  0  0  0  0  0  0  0
   15.8474   -6.4522   -9.0643 C   0  0  0  0  0  0  0  0  0  0  0  0
   16.6690   -6.4319   -8.1167 O   0  0  0  0  0  0  0  0  0  0  0  0
   14.9914   -5.3656   -9.2965 N   0  0  0  0  0  0  0  0  0  0  0  0
   14.9774   -4.1924   -8.4510 C   0  0  1  0  0  0  0  0  0  0  0  0
   14.5568   -2.9614   -9.2329 C   0  0  0  0  0  0  0  0  0  0  0  0
   15.6790   -2.4114  -10.0101 C   0  0  0  0  0  0  0  0  0  0  0  0
   15.5889   -1.5493  -10.9040 O   0  0  0  0  0  0  0  0  0  0  0  0
   13.9733   -4.3725   -7.3421 C   0  0  0  0  0  0  0  0  0  0  0  0
   13.1436   -5.4814   -7.2720 O   0  0  0  0  0  0  0  0  0  0  0  0
   16.9680   -2.9068   -9.7130 O   0  0  0  0  0  0  0  0  0  0  0  0
   13.8725   -3.4970   -6.4475 O   0  0  0  0  0  0  0  0  0  0  0  0
  2  3  2  0
  2  1  1  0
  4  2  1  0
  5  4  1  0
  5  7  1  0
  5  6  1  6
  7  8  2  0
  9  7  1  0
  9 10  1  0
 10 11  1  1
 11 12  1  0
 13 12  1  0
 14 15  1  0
 14 13  1  0
 16 10  1  0
 16 17  2  0
 18 16  1  0
 19 18  1  0
 20 21  1  0
 19 20  1  6
 21 22  2  0
 23 19  1  0
 24 23  1  0
 25 21  1  0
 26 23  2  0
M  END
$$$$
