NKD.pdb
     RDKit          3D

 26 25  0  0  1  0  0  0  0  0999 V2000
   14.0903  -11.0142  -16.7028 N   0  0  0  0  0  0  0  0  0  0  0  0
   14.2513   -9.9180  -15.8229 C   0  0  0  0  0  0  0  0  0  0  0  0
   13.2761   -9.1111  -15.6432 O   0  0  0  0  0  0  0  0  0  0  0  0
   15.5344   -9.7203  -15.1257 C   0  0  0  0  0  0  0  0  0  0  0  0
   16.5178  -10.7575  -15.6357 C   0  0  2  0  0  0  0  0  0  0  0  0
   16.2797  -12.0083  -14.9360 N   0  0  0  0  0  0  0  0  0  0  0  0
   17.8868  -10.2736  -15.3795 C   0  0  0  0  0  0  0  0  0  0  0  0
   18.3224  -10.2594  -14.2090 O   0  0  0  0  0  0  0  0  0  0  0  0
   18.6801   -9.8366  -16.4619 N   0  0  0  0  0  0  0  0  0  0  0  0
   20.0731   -9.5051  -16.3194 C   0  0  1  0  0  0  0  0  0  0  0  0
   20.8309   -9.8937  -17.5454 C   0  0  0  0  0  0  0  0  0  0  0  0
   21.1657  -11.3432  -17.6144 C   0  0  0  0  0  0  0  0  0  0  0  0
   21.8523  -11.6806  -18.8993 C   0  0  0  0  0  0  0  0  0  0  0  0
   22.1881  -13.1521  -19.0156 C   0  0  0  0  0  0  0  0  0  0  0  0
   22.7523  -13.3831  -20.3383 N   0  0  0  0  0  0  0  0  0  0  0  0
   20.2644   -8.0424  -16.0564 C   0  0  0  0  0  0  0  0  0  0  0  0
   19.5216   -7.2464  -16.6793 O   0  0  0  0  0  0  0  0  0  0  0  0
   21.2285   -7.5690  -15.1542 N   0  0  0  0  0  0  0  0  0  0  0  0
   21.4734   -6.1588  -14.9471 C   0  0  1  0  0  0  0  0  0  0  0  0
   21.7946   -5.8688  -13.4924 C   0  0  0  0  0  0  0  0  0  0  0  0
   21.9939   -4.4286  -13.2648 C   0  0  0  0  0  0  0  0  0  0  0  0
   23.0743   -3.8194  -13.3741 O   0  0  0  0  0  0  0  0  0  0  0  0
   22.6674   -5.7224  -15.7559 C   0  0  0  0  0  0  0  0  0  0  0  0
   22.7660   -4.4492  -16.2966 O   0  0  0  0  0  0  0  0  0  0  0  0
   20.8588   -3.6757  -12.8905 O   0  0  0  0  0  0  0  0  0  0  0  0
   23.6096   -6.5280  -15.9564 O   0  0  0  0  0  0  0  0  0  0  0  0
  2  3  2  0
  2  1  1  0
  4  2  1  0
  5  4  1  0
  5  7  1  0
  5  6  1  1
  7  8  2  0
  9  7  1  0
  9 10  1  0
 10 11  1  6
 11 12  1  0
 13 12  1  0
 14 15  1  0
 14 13  1  0
 16 10  1  0
 16 17  2  0
 18 16  1  0
 19 18  1  0
 20 21  1  0
 19 20  1  1
 21 22  2  0
 23 19  1  0
 24 23  1  0
 25 21  1  0
 26 23  2  0
M  END
$$$$
