ARC.pdb
     RDKit          3D

 23 22  0  0  1  0  0  0  0  0999 V2000
   16.5383  -21.5881  -15.6047 C   0  0  0  0  0  0  0  0  0  0  0  0
   17.6038  -22.2576  -14.7472 C   0  0  2  0  0  0  0  0  0  0  0  0
   16.9403  -22.7012  -13.5362 N   0  0  0  0  0  0  0  0  0  0  0  0
   18.7158  -21.3184  -14.4452 C   0  0  0  0  0  0  0  0  0  0  0  0
   18.5380  -20.2583  -13.7938 O   0  0  0  0  0  0  0  0  0  0  0  0
   27.1661  -20.9843  -12.4896 N   0  0  0  0  0  0  0  0  0  0  0  0
   26.1224  -21.1644  -11.5617 C   0  0  0  0  0  0  0  0  0  0  0  0
   26.3677  -20.8799  -10.3250 N   0  0  0  0  0  0  0  0  0  0  0  0
   24.8571  -21.6408  -11.9863 N   0  0  0  0  0  0  0  0  0  0  0  0
   24.6106  -21.7408  -13.3922 C   0  0  0  0  0  0  0  0  0  0  0  0
   23.5512  -20.7693  -13.8701 C   0  0  0  0  0  0  0  0  0  0  0  0
   22.2978  -21.5579  -14.1149 C   0  0  0  0  0  0  0  0  0  0  0  0
   21.1583  -20.7166  -14.6209 C   0  0  2  0  0  0  0  0  0  0  0  0
   20.0465  -21.5753  -14.8822 N   0  0  0  0  0  0  0  0  0  0  0  0
   21.5097  -19.8299  -15.7230 C   0  0  0  0  0  0  0  0  0  0  0  0
   21.6152  -20.3169  -16.8727 O   0  0  0  0  0  0  0  0  0  0  0  0
   25.6821  -20.9734   -9.5670 N   0  0  0  0  0  0  0  0  0  0  0  0
   21.7322  -18.4465  -15.5272 C   0  0  2  0  0  0  0  0  0  0  0  0
   22.1487  -17.5527  -16.5859 C   0  0  0  0  0  0  0  0  0  0  0  0
   22.0258  -16.0972  -16.1896 S   0  0  0  0  0  0  0  0  0  0  0  0
   21.2759  -15.2298  -17.6221 C   0  0  0  0  0  0  0  0  0  0  0  0
   23.5295  -17.8649  -17.0501 O   0  0  0  0  0  0  0  0  0  0  0  0
   24.4710  -18.0915  -16.2497 O   0  0  0  0  0  0  0  0  0  0  0  0
  2  1  1  6
  2  3  1  0
  4 14  1  0
  4  2  1  0
  5  4  2  0
  6  7  1  0
  7  9  1  0
  7  8  2  0
  9 10  1  0
 10 11  1  0
 11 12  1  0
 13 12  1  6
 13 15  1  0
 13 14  1  0
 15 17  1  0
 16 15  2  0
 17 18  1  0
 18 21  1  0
 19 20  1  0
 18 19  1  1
 21 22  2  0
 21 23  1  0
M  END
$$$$
