ARC.pdb
     RDKit          3D

 23 22  0  0  1  0  0  0  0  0999 V2000
   28.3872  -20.1013  -18.0607 C   0  0  0  0  0  0  0  0  0  0  0  0
   28.6920  -21.2718  -17.1354 C   0  0  2  0  0  0  0  0  0  0  0  0
   29.1197  -22.3678  -17.9835 N   0  0  0  0  0  0  0  0  0  0  0  0
   27.4989  -21.6415  -16.3294 C   0  0  0  0  0  0  0  0  0  0  0  0
   26.5633  -22.3370  -16.7992 O   0  0  0  0  0  0  0  0  0  0  0  0
   23.3731  -19.7321  -10.4904 N   0  0  0  0  0  0  0  0  0  0  0  0
   23.5806  -20.7142   -9.5029 C   0  0  0  0  0  0  0  0  0  0  0  0
   22.6253  -20.9215   -8.6574 N   0  0  0  0  0  0  0  0  0  0  0  0
   24.7978  -21.4382   -9.4536 N   0  0  0  0  0  0  0  0  0  0  0  0
   25.7987  -21.1433  -10.4327 C   0  0  0  0  0  0  0  0  0  0  0  0
   25.3226  -21.3944  -11.8487 C   0  0  0  0  0  0  0  0  0  0  0  0
   26.4862  -21.1452  -12.7634 C   0  0  0  0  0  0  0  0  0  0  0  0
   26.1543  -21.3583  -14.2149 C   0  0  2  0  0  0  0  0  0  0  0  0
   27.3563  -21.2231  -14.9757 N   0  0  0  0  0  0  0  0  0  0  0  0
   25.0383  -20.5560  -14.6999 C   0  0  0  0  0  0  0  0  0  0  0  0
   25.1815  -19.3133  -14.7726 O   0  0  0  0  0  0  0  0  0  0  0  0
   22.6615  -21.6246   -7.9106 N   0  0  0  0  0  0  0  0  0  0  0  0
   23.8097  -21.1414  -15.0863 C   0  0  2  0  0  0  0  0  0  0  0  0
   22.7009  -20.3794  -15.6186 C   0  0  0  0  0  0  0  0  0  0  0  0
   22.3997  -20.7342  -17.0588 S   0  0  0  0  0  0  0  0  0  0  0  0
   22.1892  -22.5562  -17.1122 C   0  0  0  0  0  0  0  0  0  0  0  0
   21.4856  -20.5204  -14.7686 O   0  0  0  0  0  0  0  0  0  0  0  0
   21.4461  -21.2916  -13.7777 O   0  0  0  0  0  0  0  0  0  0  0  0
  2  1  1  6
  2  3  1  0
  4 14  1  0
  4  2  1  0
  5  4  2  0
  6  7  1  0
  7  9  1  0
  7  8  2  0
  9 10  1  0
 10 11  1  0
 11 12  1  0
 13 12  1  1
 13 15  1  0
 13 14  1  0
 15 17  1  0
 16 15  2  0
 17 18  1  0
 18 21  1  0
 19 20  1  0
 18 19  1  1
 21 22  2  0
 21 23  1  0
M  END
$$$$
