ARC.pdb
     RDKit          3D

 23 22  0  0  1  0  0  0  0  0999 V2000
   19.7857  -18.5632  -12.2368 C   0  0  0  0  0  0  0  0  0  0  0  0
   19.9296  -19.5810  -13.3604 C   0  0  2  0  0  0  0  0  0  0  0  0
   18.8286  -20.5140  -13.2157 N   0  0  0  0  0  0  0  0  0  0  0  0
   21.2427  -20.2743  -13.2895 C   0  0  0  0  0  0  0  0  0  0  0  0
   21.5481  -21.0331  -12.3352 O   0  0  0  0  0  0  0  0  0  0  0  0
   28.2945  -20.9034  -15.2908 N   0  0  0  0  0  0  0  0  0  0  0  0
   28.2576  -21.7543  -16.4121 C   0  0  0  0  0  0  0  0  0  0  0  0
   29.1841  -22.6499  -16.5124 N   0  0  0  0  0  0  0  0  0  0  0  0
   27.2352  -21.6190  -17.3840 N   0  0  0  0  0  0  0  0  0  0  0  0
   26.0999  -20.8102  -17.0612 C   0  0  0  0  0  0  0  0  0  0  0  0
   25.5686  -21.0785  -15.6682 C   0  0  0  0  0  0  0  0  0  0  0  0
   24.1735  -20.5284  -15.6070 C   0  0  0  0  0  0  0  0  0  0  0  0
   23.5410  -20.6683  -14.2496 C   0  0  2  0  0  0  0  0  0  0  0  0
   22.2261  -20.1117  -14.3064 N   0  0  0  0  0  0  0  0  0  0  0  0
   24.3606  -20.1723  -13.1511 C   0  0  0  0  0  0  0  0  0  0  0  0
   24.4307  -18.9347  -12.9680 O   0  0  0  0  0  0  0  0  0  0  0  0
   29.2451  -23.3303  -17.2783 N   0  0  0  0  0  0  0  0  0  0  0  0
   25.0716  -21.0464  -12.2956 C   0  0  2  0  0  0  0  0  0  0  0  0
   26.0150  -20.5873  -11.2993 C   0  0  0  0  0  0  0  0  0  0  0  0
   25.8316  -21.2872   -9.9699 S   0  0  0  0  0  0  0  0  0  0  0  0
   27.2167  -20.7393   -8.8984 C   0  0  0  0  0  0  0  0  0  0  0  0
   27.4194  -20.7142  -11.7801 O   0  0  0  0  0  0  0  0  0  0  0  0
   27.9032  -21.8112  -12.1555 O   0  0  0  0  0  0  0  0  0  0  0  0
  2  1  1  1
  2  3  1  0
  4 14  1  0
  4  2  1  0
  5  4  2  0
  6  7  1  0
  7  9  1  0
  7  8  2  0
  9 10  1  0
 10 11  1  0
 11 12  1  0
 13 12  1  6
 13 15  1  0
 13 14  1  0
 15 17  1  0
 16 15  2  0
 17 18  1  0
 18 21  1  0
 19 20  1  0
 18 19  1  1
 21 22  2  0
 21 23  1  0
M  END
$$$$
