ARC.pdb
     RDKit          3D

 23 22  0  0  1  0  0  0  0  0999 V2000
   28.6392  -21.4802  -19.0518 C   0  0  0  0  0  0  0  0  0  0  0  0
   28.8110  -22.1161  -17.6788 C   0  0  2  0  0  0  0  0  0  0  0  0
   29.1232  -23.5139  -17.9074 N   0  0  0  0  0  0  0  0  0  0  0  0
   27.5804  -21.9607  -16.8594 C   0  0  0  0  0  0  0  0  0  0  0  0
   26.4820  -22.4688  -17.1987 O   0  0  0  0  0  0  0  0  0  0  0  0
   26.0751  -21.5776   -9.0863 N   0  0  0  0  0  0  0  0  0  0  0  0
   25.0689  -20.6476   -9.4110 C   0  0  0  0  0  0  0  0  0  0  0  0
   23.8876  -20.8540   -8.9290 N   0  0  0  0  0  0  0  0  0  0  0  0
   25.3594  -19.5331  -10.2367 N   0  0  0  0  0  0  0  0  0  0  0  0
   26.3488  -19.6896  -11.2583 C   0  0  0  0  0  0  0  0  0  0  0  0
   25.7524  -20.0859  -12.5932 C   0  0  0  0  0  0  0  0  0  0  0  0
   26.8895  -20.4608  -13.4984 C   0  0  0  0  0  0  0  0  0  0  0  0
   26.4355  -21.0254  -14.8165 C   0  0  2  0  0  0  0  0  0  0  0  0
   27.5856  -21.2236  -15.6411 N   0  0  0  0  0  0  0  0  0  0  0  0
   25.3580  -20.2768  -15.4513 C   0  0  0  0  0  0  0  0  0  0  0  0
   25.6366  -19.2000  -16.0286 O   0  0  0  0  0  0  0  0  0  0  0  0
   23.0850  -20.2349   -9.0902 N   0  0  0  0  0  0  0  0  0  0  0  0
   24.0189  -20.7326  -15.4313 C   0  0  2  0  0  0  0  0  0  0  0  0
   22.9177  -19.9835  -15.9967 C   0  0  0  0  0  0  0  0  0  0  0  0
   22.4564  -20.5530  -17.3209 S   0  0  0  0  0  0  0  0  0  0  0  0
   22.0833  -22.3246  -17.0232 C   0  0  0  0  0  0  0  0  0  0  0  0
   21.7830  -19.8761  -15.0373 O   0  0  0  0  0  0  0  0  0  0  0  0
   21.7906  -20.4545  -13.9221 O   0  0  0  0  0  0  0  0  0  0  0  0
  2  1  1  6
  2  3  1  0
  4 14  1  0
  4  2  1  0
  5  4  2  0
  6  7  1  0
  7  9  1  0
  7  8  2  0
  9 10  1  0
 10 11  1  0
 11 12  1  0
 13 12  1  1
 13 15  1  0
 13 14  1  0
 15 17  1  0
 16 15  2  0
 17 18  1  0
 18 21  1  0
 19 20  1  0
 18 19  1  1
 21 22  2  0
 21 23  1  0
M  END
$$$$
