ARC.pdb
     RDKit          3D

 23 22  0  0  1  0  0  0  0  0999 V2000
   21.3463   -7.6007  -12.1663 C   0  0  0  0  0  0  0  0  0  0  0  0
   20.2230   -8.3371  -12.8839 C   0  0  2  0  0  0  0  0  0  0  0  0
   20.3624   -8.0289  -14.2943 N   0  0  0  0  0  0  0  0  0  0  0  0
   18.8935   -7.9211  -12.3651 C   0  0  0  0  0  0  0  0  0  0  0  0
   18.3959   -6.7965  -12.6249 O   0  0  0  0  0  0  0  0  0  0  0  0
   12.2906  -13.0928  -10.3721 N   0  0  0  0  0  0  0  0  0  0  0  0
   11.7486  -11.8594   -9.9624 C   0  0  0  0  0  0  0  0  0  0  0  0
   10.5011  -11.8383   -9.6251 N   0  0  0  0  0  0  0  0  0  0  0  0
   12.5561  -10.6954   -9.9277 N   0  0  0  0  0  0  0  0  0  0  0  0
   13.9082  -10.7979  -10.3844 C   0  0  0  0  0  0  0  0  0  0  0  0
   14.6347   -9.4689  -10.3621 C   0  0  0  0  0  0  0  0  0  0  0  0
   16.0127   -9.7022  -10.9093 C   0  0  0  0  0  0  0  0  0  0  0  0
   16.8288   -8.4432  -11.0147 C   0  0  2  0  0  0  0  0  0  0  0  0
   18.1127   -8.7822  -11.5426 N   0  0  0  0  0  0  0  0  0  0  0  0
   16.8678   -7.6489   -9.7933 C   0  0  0  0  0  0  0  0  0  0  0  0
   17.5490   -8.0676   -8.8285 O   0  0  0  0  0  0  0  0  0  0  0  0
    9.9998  -10.9926   -9.3305 N   0  0  0  0  0  0  0  0  0  0  0  0
   16.1620   -6.4287   -9.6727 C   0  0  2  0  0  0  0  0  0  0  0  0
   16.1229   -5.6525   -8.4523 C   0  0  0  0  0  0  0  0  0  0  0  0
   17.0480   -4.4558   -8.5036 S   0  0  0  0  0  0  0  0  0  0  0  0
   16.5674   -3.4905   -9.9882 C   0  0  0  0  0  0  0  0  0  0  0  0
   14.7321   -5.2383   -8.1151 O   0  0  0  0  0  0  0  0  0  0  0  0
   13.7728   -5.3999   -8.9099 O   0  0  0  0  0  0  0  0  0  0  0  0
  2  1  1  1
  2  3  1  0
  4 14  1  0
  4  2  1  0
  5  4  2  0
  6  7  1  0
  7  9  1  0
  7  8  2  0
  9 10  1  0
 10 11  1  0
 11 12  1  0
 13 12  1  1
 13 15  1  0
 13 14  1  0
 15 17  1  0
 16 15  2  0
 17 18  1  0
 18 21  1  0
 19 20  1  0
 18 19  1  6
 21 22  2  0
 21 23  1  0
M  END
$$$$
