ARC.pdb
     RDKit          3D

 23 22  0  0  1  0  0  0  0  0999 V2000
   25.2778  -32.0858   -3.7306 C   0  0  0  0  0  0  0  0  0  0  0  0
   25.5569  -33.2119   -4.7170 C   0  0  2  0  0  0  0  0  0  0  0  0
   24.2973  -33.9004   -4.9245 N   0  0  0  0  0  0  0  0  0  0  0  0
   26.6008  -34.1332   -4.1962 C   0  0  0  0  0  0  0  0  0  0  0  0
   26.3251  -35.0958   -3.4365 O   0  0  0  0  0  0  0  0  0  0  0  0
   33.9920  -35.2368   -2.7362 N   0  0  0  0  0  0  0  0  0  0  0  0
   34.3967  -35.9602   -3.8745 C   0  0  0  0  0  0  0  0  0  0  0  0
   35.3544  -36.8158   -3.7286 N   0  0  0  0  0  0  0  0  0  0  0  0
   33.7659  -35.7446   -5.1250 N   0  0  0  0  0  0  0  0  0  0  0  0
   32.6561  -34.8428   -5.1747 C   0  0  0  0  0  0  0  0  0  0  0  0
   31.4163  -35.4052   -4.5104 C   0  0  0  0  0  0  0  0  0  0  0  0
   30.2908  -34.4496   -4.7803 C   0  0  0  0  0  0  0  0  0  0  0  0
   29.0284  -34.7976   -4.0403 C   0  0  2  0  0  0  0  0  0  0  0  0
   27.9742  -33.9693   -4.5347 N   0  0  0  0  0  0  0  0  0  0  0  0
   29.1646  -34.8013   -2.5891 C   0  0  0  0  0  0  0  0  0  0  0  0
   29.4330  -33.7228   -2.0105 O   0  0  0  0  0  0  0  0  0  0  0  0
   35.7784  -37.3410   -4.5016 N   0  0  0  0  0  0  0  0  0  0  0  0
   29.0025  -35.9818   -1.8265 C   0  0  1  0  0  0  0  0  0  0  0  0
   29.1960  -36.0330   -0.3936 C   0  0  0  0  0  0  0  0  0  0  0  0
   27.9659  -36.5308    0.3341 S   0  0  0  0  0  0  0  0  0  0  0  0
   27.0431  -35.0401    0.8753 C   0  0  0  0  0  0  0  0  0  0  0  0
   30.3933  -36.8436   -0.0347 O   0  0  0  0  0  0  0  0  0  0  0  0
   30.7911  -36.9637    1.1509 O   0  0  0  0  0  0  0  0  0  0  0  0
  2  1  1  1
  2  3  1  0
  4 14  1  0
  4  2  1  0
  5  4  2  0
  6  7  1  0
  7  9  1  0
  7  8  2  0
  9 10  1  0
 10 11  1  0
 11 12  1  0
 13 12  1  6
 13 15  1  0
 13 14  1  0
 15 17  1  0
 16 15  2  0
 17 18  1  0
 18 21  1  0
 19 20  1  0
 18 19  1  1
 21 22  2  0
 21 23  1  0
M  END
$$$$
