ARC.pdb
     RDKit          3D

 23 22  0  0  1  0  0  0  0  0999 V2000
   28.4527  -12.2131  -15.6089 C   0  0  0  0  0  0  0  0  0  0  0  0
   27.3887  -13.2043  -16.0610 C   0  0  2  0  0  0  0  0  0  0  0  0
   27.9690  -13.9637  -17.1520 N   0  0  0  0  0  0  0  0  0  0  0  0
   26.1493  -12.5021  -16.4861 C   0  0  0  0  0  0  0  0  0  0  0  0
   26.1159  -11.7569  -17.4977 O   0  0  0  0  0  0  0  0  0  0  0  0
   18.7490  -16.2349  -16.2807 N   0  0  0  0  0  0  0  0  0  0  0  0
   18.9497  -15.7141  -17.5735 C   0  0  0  0  0  0  0  0  0  0  0  0
   18.1821  -16.1493  -18.5180 N   0  0  0  0  0  0  0  0  0  0  0  0
   19.9605  -14.7497  -17.8112 N   0  0  0  0  0  0  0  0  0  0  0  0
   20.7535  -14.3158  -16.7021 C   0  0  0  0  0  0  0  0  0  0  0  0
   21.8427  -13.3442  -17.1075 C   0  0  0  0  0  0  0  0  0  0  0  0
   22.5731  -12.9435  -15.8590 C   0  0  0  0  0  0  0  0  0  0  0  0
   23.7078  -11.9905  -16.1170 C   0  0  2  0  0  0  0  0  0  0  0  0
   24.9303  -12.6402  -15.7631 N   0  0  0  0  0  0  0  0  0  0  0  0
   23.5305  -10.6710  -15.5236 C   0  0  0  0  0  0  0  0  0  0  0  0
   23.9689  -10.4712  -14.3669 O   0  0  0  0  0  0  0  0  0  0  0  0
   18.2241  -15.8213  -19.4895 N   0  0  0  0  0  0  0  0  0  0  0  0
   22.8817   -9.6216  -16.2158 C   0  0  2  0  0  0  0  0  0  0  0  0
   22.5889   -8.3380  -15.6159 C   0  0  0  0  0  0  0  0  0  0  0  0
   22.8368   -7.1891  -16.5695 S   0  0  0  0  0  0  0  0  0  0  0  0
   22.3407   -5.6612  -15.6828 C   0  0  0  0  0  0  0  0  0  0  0  0
   21.2012   -8.2935  -15.0756 O   0  0  0  0  0  0  0  0  0  0  0  0
   20.8211   -7.4020  -14.2761 O   0  0  0  0  0  0  0  0  0  0  0  0
  2  1  1  6
  2  3  1  0
  4 14  1  0
  4  2  1  0
  5  4  2  0
  6  7  1  0
  7  9  1  0
  7  8  2  0
  9 10  1  0
 10 11  1  0
 11 12  1  0
 13 12  1  1
 13 15  1  0
 13 14  1  0
 15 17  1  0
 16 15  2  0
 17 18  1  0
 18 21  1  0
 19 20  1  0
 18 19  1  6
 21 22  2  0
 21 23  1  0
M  END
$$$$
