RDI.pdb
     RDKit          3D

 28 27  0  0  1  0  0  0  0  0999 V2000
   16.1357  -16.0279  -15.1544 N   0  0  0  0  0  0  0  0  0  0  0  0
   16.3147  -14.6383  -15.3890 C   0  0  0  0  0  0  0  0  0  0  0  0
   15.5469  -13.8381  -14.7757 N   0  0  0  0  0  0  0  0  0  0  0  0
   17.2946  -14.1297  -16.2481 N   0  0  0  0  0  0  0  0  0  0  0  0
   18.2730  -14.8411  -16.9956 C   0  0  0  0  0  0  0  0  0  0  0  0
   19.1183  -14.0464  -17.9153 C   0  0  0  0  0  0  0  0  0  0  0  0
   18.5777  -13.5826  -19.2059 C   0  0  0  0  0  0  0  0  0  0  0  0
   19.5742  -12.9624  -20.1507 C   0  0  2  0  0  0  0  0  0  0  0  0
   20.6431  -13.8262  -20.4770 N   0  0  0  0  0  0  0  0  0  0  0  0
   19.9951  -11.6392  -19.5801 C   0  0  0  0  0  0  0  0  0  0  0  0
   21.1702  -11.5510  -19.1025 O   0  0  0  0  0  0  0  0  0  0  0  0
   15.5032  -12.8300  -14.9618 N   0  0  0  0  0  0  0  0  0  0  0  0
   19.2009  -10.4875  -19.5269 C   0  0  2  0  0  0  0  0  0  0  0  0
   19.6795   -9.2102  -19.0266 C   0  0  0  0  0  0  0  0  0  0  0  0
   18.7713   -8.0658  -19.3057 C   0  0  0  0  0  0  0  0  0  0  0  0
   19.3272   -6.7501  -18.9226 O   0  0  0  0  0  0  0  0  0  0  0  0
   20.4770   -6.6915  -18.4275 C   0  0  0  0  0  0  0  0  0  0  0  0
   19.9198   -9.3831  -17.5461 O   0  0  0  0  0  0  0  0  0  0  0  0
   19.0590   -9.9438  -16.8254 O   0  0  0  0  0  0  0  0  0  0  0  0
   18.5929   -5.5652  -19.1026 C   0  0  0  0  0  0  0  0  0  0  0  0
   23.9058  -10.9658  -13.3708 C   0  0  0  0  0  0  0  0  0  0  0  0
   22.7542  -10.0451  -13.7157 C   0  0  2  0  0  0  0  0  0  0  0  0
   22.6415   -9.8323  -15.2137 C   0  0  0  0  0  0  0  0  0  0  0  0
   23.9270   -9.3587  -15.8166 C   0  0  2  0  0  0  0  0  0  0  0  0
   21.4625   -8.9939  -15.5656 N   0  0  0  0  0  0  0  0  0  0  0  0
   21.1128   -8.9206  -16.9396 C   0  0  0  0  0  0  0  0  0  0  0  0
   21.4825   -7.7003  -14.8269 O   0  0  0  0  0  0  0  0  0  0  0  0
   21.1381   -7.6555  -13.5018 O   0  0  0  0  0  0  0  0  0  0  0  0
  2  3  2  0
  2  1  1  0
  4  2  1  0
  5  4  1  0
  6  5  1  0
  7  6  1  0
  8  7  1  0
  8  9  1  1
 10 11  2  0
 10  8  1  0
 12 10  1  0
 13 12  1  0
 13 14  1  6
 15 16  2  0
 15 14  1  0
 17 13  1  0
 18 17  2  0
 19 15  1  0
 20 21  1  0
 21 22  1  0
 22 24  1  0
 22 23  1  6
 24 26  1  0
 24 25  1  1
 25 17  1  0
 26 27  1  0
 28 26  2  0
M  END
$$$$
