RDI.pdb
     RDKit          3D

 28 27  0  0  1  0  0  0  0  0999 V2000
   14.3487  -13.2476  -18.7674 N   0  0  0  0  0  0  0  0  0  0  0  0
   14.0463  -13.4210  -17.3903 C   0  0  0  0  0  0  0  0  0  0  0  0
   13.4431  -14.4834  -17.0533 N   0  0  0  0  0  0  0  0  0  0  0  0
   14.3913  -12.4849  -16.4097 N   0  0  0  0  0  0  0  0  0  0  0  0
   15.4934  -11.5864  -16.3914 C   0  0  0  0  0  0  0  0  0  0  0  0
   16.8288  -12.1733  -16.1382 C   0  0  0  0  0  0  0  0  0  0  0  0
   18.0284  -11.3166  -16.1410 C   0  0  0  0  0  0  0  0  0  0  0  0
   18.2712  -10.5304  -17.4032 C   0  0  2  0  0  0  0  0  0  0  0  0
   18.4746  -11.3479  -18.5370 N   0  0  0  0  0  0  0  0  0  0  0  0
   19.3769   -9.5508  -17.1356 C   0  0  0  0  0  0  0  0  0  0  0  0
   19.9089   -9.5644  -15.9808 O   0  0  0  0  0  0  0  0  0  0  0  0
   13.3059  -14.7806  -16.0809 N   0  0  0  0  0  0  0  0  0  0  0  0
   19.8751   -8.6172  -18.0523 C   0  0  1  0  0  0  0  0  0  0  0  0
   21.0469   -7.7967  -17.7990 C   0  0  0  0  0  0  0  0  0  0  0  0
   21.5262   -7.0342  -18.9828 C   0  0  0  0  0  0  0  0  0  0  0  0
   21.9493   -7.8860  -20.1152 O   0  0  0  0  0  0  0  0  0  0  0  0
   22.8164   -8.7708  -19.9258 C   0  0  0  0  0  0  0  0  0  0  0  0
   20.6992   -6.8814  -16.6497 O   0  0  0  0  0  0  0  0  0  0  0  0
   19.5821   -6.3112  -16.6090 O   0  0  0  0  0  0  0  0  0  0  0  0
   21.3990   -7.7236  -21.3983 C   0  0  0  0  0  0  0  0  0  0  0  0
   21.1020   -8.6480  -11.8049 C   0  0  0  0  0  0  0  0  0  0  0  0
   20.9145   -7.9371  -13.1287 C   0  0  2  0  0  0  0  0  0  0  0  0
   21.5637   -6.5658  -13.1206 C   0  0  0  0  0  0  0  0  0  0  0  0
   21.1426   -5.7470  -11.9406 C   0  0  2  0  0  0  0  0  0  0  0  0
   21.4040   -5.8711  -14.4278 N   0  0  0  0  0  0  0  0  0  0  0  0
   21.6178   -6.6460  -15.5981 C   0  0  0  0  0  0  0  0  0  0  0  0
   22.0502   -4.5289  -14.4063 O   0  0  0  0  0  0  0  0  0  0  0  0
   23.2470   -4.3278  -15.0416 O   0  0  0  0  0  0  0  0  0  0  0  0
  2  3  2  0
  2  1  1  0
  4  2  1  0
  5  4  1  0
  6  5  1  0
  7  6  1  0
  8  7  1  0
  8  9  1  6
 10 11  2  0
 10  8  1  0
 12 10  1  0
 13 12  1  0
 13 14  1  1
 15 16  2  0
 15 14  1  0
 17 13  1  0
 18 17  2  0
 19 15  1  0
 20 21  1  0
 21 22  1  0
 22 24  1  0
 22 23  1  6
 24 26  1  0
 24 25  1  6
 25 17  1  0
 26 27  1  0
 28 26  2  0
M  END
$$$$
