RDI.pdb
     RDKit          3D

 28 27  0  0  1  0  0  0  0  0999 V2000
   28.7208  -17.9246  -17.5409 N   0  0  0  0  0  0  0  0  0  0  0  0
   28.9210  -19.3131  -17.7650 C   0  0  0  0  0  0  0  0  0  0  0  0
   29.6757  -19.6474  -18.7266 N   0  0  0  0  0  0  0  0  0  0  0  0
   28.3349  -20.3060  -16.9728 N   0  0  0  0  0  0  0  0  0  0  0  0
   27.1664  -20.2211  -16.1668 C   0  0  0  0  0  0  0  0  0  0  0  0
   26.2748  -19.0632  -16.4037 C   0  0  0  0  0  0  0  0  0  0  0  0
   25.0369  -18.9071  -15.6186 C   0  0  0  0  0  0  0  0  0  0  0  0
   24.4516  -20.1762  -15.0556 C   0  0  2  0  0  0  0  0  0  0  0  0
   24.3125  -21.1997  -16.0193 N   0  0  0  0  0  0  0  0  0  0  0  0
   23.1831  -19.8237  -14.3344 C   0  0  0  0  0  0  0  0  0  0  0  0
   23.2346  -18.8867  -13.4763 O   0  0  0  0  0  0  0  0  0  0  0  0
   29.8121  -20.6154  -19.0382 N   0  0  0  0  0  0  0  0  0  0  0  0
   21.9413  -20.4414  -14.5249 C   0  0  1  0  0  0  0  0  0  0  0  0
   20.7426  -20.0659  -13.7951 C   0  0  0  0  0  0  0  0  0  0  0  0
   19.5743  -19.7508  -14.6602 C   0  0  0  0  0  0  0  0  0  0  0  0
   18.4063  -19.2218  -13.9234 O   0  0  0  0  0  0  0  0  0  0  0  0
   17.8392  -19.9463  -13.0725 C   0  0  0  0  0  0  0  0  0  0  0  0
   20.4406  -21.1955  -12.8401 O   0  0  0  0  0  0  0  0  0  0  0  0
   20.5256  -22.3880  -13.2215 O   0  0  0  0  0  0  0  0  0  0  0  0
   17.9201  -17.9240  -14.1579 C   0  0  0  0  0  0  0  0  0  0  0  0
   22.5124  -21.0010   -7.9217 C   0  0  0  0  0  0  0  0  0  0  0  0
   21.9009  -21.3104   -9.2720 C   0  0  2  0  0  0  0  0  0  0  0  0
   20.4249  -21.6404   -9.1518 C   0  0  0  0  0  0  0  0  0  0  0  0
   20.1654  -22.7161   -8.1439 C   0  0  2  0  0  0  0  0  0  0  0  0
   19.8053  -21.8944  -10.4816 N   0  0  0  0  0  0  0  0  0  0  0  0
   20.0572  -20.9391  -11.5013 C   0  0  0  0  0  0  0  0  0  0  0  0
   18.3910  -22.3406  -10.3399 O   0  0  0  0  0  0  0  0  0  0  0  0
   18.1059  -23.5951   -9.8692 O   0  0  0  0  0  0  0  0  0  0  0  0
  2  3  2  0
  2  1  1  0
  4  2  1  0
  5  4  1  0
  6  5  1  0
  7  6  1  0
  8  7  1  0
  8  9  1  6
 10 11  2  0
 10  8  1  0
 12 10  1  0
 13 12  1  0
 13 14  1  1
 15 16  2  0
 15 14  1  0
 17 13  1  0
 18 17  2  0
 19 15  1  0
 20 21  1  0
 21 22  1  0
 22 24  1  0
 22 23  1  1
 24 26  1  0
 24 25  1  6
 25 17  1  0
 26 27  1  0
 28 26  2  0
M  END
$$$$
