RDI.pdb
     RDKit          3D

 28 27  0  0  1  0  0  0  0  0999 V2000
   22.0796  -20.6713   -7.9042 N   0  0  0  0  0  0  0  0  0  0  0  0
   23.1733  -21.3925   -7.3548 C   0  0  0  0  0  0  0  0  0  0  0  0
   22.9061  -22.3921   -6.6230 N   0  0  0  0  0  0  0  0  0  0  0  0
   24.5089  -21.0526   -7.5947 N   0  0  0  0  0  0  0  0  0  0  0  0
   25.1341  -20.7373   -8.8323 C   0  0  0  0  0  0  0  0  0  0  0  0
   24.9858  -21.7245   -9.9256 C   0  0  0  0  0  0  0  0  0  0  0  0
   25.5187  -21.4305  -11.2682 C   0  0  0  0  0  0  0  0  0  0  0  0
   25.3386  -20.0146  -11.7508 C   0  0  2  0  0  0  0  0  0  0  0  0
   24.4664  -19.2568  -10.9382 N   0  0  0  0  0  0  0  0  0  0  0  0
   24.9538  -20.0628  -13.2011 C   0  0  0  0  0  0  0  0  0  0  0  0
   25.7069  -20.7181  -13.9886 O   0  0  0  0  0  0  0  0  0  0  0  0
   23.6157  -22.9580   -6.1445 N   0  0  0  0  0  0  0  0  0  0  0  0
   23.8317  -19.4441  -13.7652 C   0  0  1  0  0  0  0  0  0  0  0  0
   23.5381  -19.4673  -15.1878 C   0  0  0  0  0  0  0  0  0  0  0  0
   22.0929  -19.6066  -15.5110 C   0  0  0  0  0  0  0  0  0  0  0  0
   21.4972  -20.8837  -15.0625 O   0  0  0  0  0  0  0  0  0  0  0  0
   22.1975  -21.9230  -15.0718 C   0  0  0  0  0  0  0  0  0  0  0  0
   24.1214  -18.2046  -15.7750 O   0  0  0  0  0  0  0  0  0  0  0  0
   23.8029  -17.0833  -15.3102 O   0  0  0  0  0  0  0  0  0  0  0  0
   20.1629  -20.9552  -14.6264 C   0  0  0  0  0  0  0  0  0  0  0  0
   29.3254  -17.7518  -16.6968 C   0  0  0  0  0  0  0  0  0  0  0  0
   27.8338  -17.6321  -16.4657 C   0  0  2  0  0  0  0  0  0  0  0  0
   27.1072  -17.2100  -17.7290 C   0  0  0  0  0  0  0  0  0  0  0  0
   27.6862  -15.9657  -18.3262 C   0  0  2  0  0  0  0  0  0  0  0  0
   25.6331  -17.1553  -17.5266 N   0  0  0  0  0  0  0  0  0  0  0  0
   25.0351  -18.2544  -16.8557 C   0  0  0  0  0  0  0  0  0  0  0  0
   24.9381  -16.6850  -18.7575 O   0  0  0  0  0  0  0  0  0  0  0  0
   24.5959  -17.5751  -19.7410 O   0  0  0  0  0  0  0  0  0  0  0  0
  2  3  2  0
  2  1  1  0
  4  2  1  0
  5  4  1  0
  6  5  1  0
  7  6  1  0
  8  7  1  0
  8  9  1  1
 10 11  2  0
 10  8  1  0
 12 10  1  0
 13 12  1  0
 13 14  1  6
 15 16  2  0
 15 14  1  0
 17 13  1  0
 18 17  2  0
 19 15  1  0
 20 21  1  0
 21 22  1  0
 22 24  1  0
 22 23  1  6
 24 26  1  0
 24 25  1  1
 25 17  1  0
 26 27  1  0
 28 26  2  0
M  END
$$$$
