RDI.pdb
     RDKit          3D

 28 27  0  0  1  0  0  0  0  0999 V2000
   20.8734  -20.6050  -17.3105 N   0  0  0  0  0  0  0  0  0  0  0  0
   19.6212  -20.8776  -16.6974 C   0  0  0  0  0  0  0  0  0  0  0  0
   18.6181  -21.0267  -17.4573 N   0  0  0  0  0  0  0  0  0  0  0  0
   19.4592  -20.9947  -15.3128 N   0  0  0  0  0  0  0  0  0  0  0  0
   20.4224  -20.7871  -14.2875 C   0  0  0  0  0  0  0  0  0  0  0  0
   21.8399  -21.0186  -14.6466 C   0  0  0  0  0  0  0  0  0  0  0  0
   22.7268  -21.7566  -13.7291 C   0  0  0  0  0  0  0  0  0  0  0  0
   22.8139  -21.2179  -12.3247 C   0  0  2  0  0  0  0  0  0  0  0  0
   22.3416  -19.8918  -12.2075 N   0  0  0  0  0  0  0  0  0  0  0  0
   24.2173  -21.4246  -11.8333 C   0  0  0  0  0  0  0  0  0  0  0  0
   24.6566  -22.6171  -11.7910 O   0  0  0  0  0  0  0  0  0  0  0  0
   17.6747  -21.2525  -17.1233 N   0  0  0  0  0  0  0  0  0  0  0  0
   25.0890  -20.4125  -11.4141 C   0  0  1  0  0  0  0  0  0  0  0  0
   26.4174  -20.6711  -10.8860 C   0  0  0  0  0  0  0  0  0  0  0  0
   27.4501  -19.6947  -11.3251 C   0  0  0  0  0  0  0  0  0  0  0  0
   27.9327  -19.9107  -12.7062 O   0  0  0  0  0  0  0  0  0  0  0  0
   28.2407  -18.9202  -13.4095 C   0  0  0  0  0  0  0  0  0  0  0  0
   26.2900  -20.7093   -9.3821 O   0  0  0  0  0  0  0  0  0  0  0  0
   25.2305  -20.3316   -8.8259 O   0  0  0  0  0  0  0  0  0  0  0  0
   28.0530  -21.2032  -13.2452 C   0  0  0  0  0  0  0  0  0  0  0  0
   30.2110  -21.4899   -4.5058 C   0  0  0  0  0  0  0  0  0  0  0  0
   28.8186  -21.3796   -5.0906 C   0  0  2  0  0  0  0  0  0  0  0  0
   28.8594  -21.2277   -6.5996 C   0  0  0  0  0  0  0  0  0  0  0  0
   29.8856  -20.2315   -7.0409 C   0  0  2  0  0  0  0  0  0  0  0  0
   27.5036  -20.9927   -7.1682 N   0  0  0  0  0  0  0  0  0  0  0  0
   27.3545  -21.1688   -8.5691 C   0  0  0  0  0  0  0  0  0  0  0  0
   26.8853  -19.7644   -6.5951 O   0  0  0  0  0  0  0  0  0  0  0  0
   26.1574  -19.8329   -5.4366 O   0  0  0  0  0  0  0  0  0  0  0  0
  2  3  2  0
  2  1  1  0
  4  2  1  0
  5  4  1  0
  6  5  1  0
  7  6  1  0
  8  7  1  0
  8  9  1  6
 10 11  2  0
 10  8  1  0
 12 10  1  0
 13 12  1  0
 13 14  1  6
 15 16  2  0
 15 14  1  0
 17 13  1  0
 18 17  2  0
 19 15  1  0
 20 21  1  0
 21 22  1  0
 22 24  1  0
 22 23  1  6
 24 26  1  0
 24 25  1  1
 25 17  1  0
 26 27  1  0
 28 26  2  0
M  END
$$$$
