RDI.pdb
     RDKit          3D

 28 27  0  0  1  0  0  0  0  0999 V2000
   26.1286  -25.9150  -18.0641 N   0  0  0  0  0  0  0  0  0  0  0  0
   27.1278  -25.7658  -17.0654 C   0  0  0  0  0  0  0  0  0  0  0  0
   28.1989  -26.4283  -17.2063 N   0  0  0  0  0  0  0  0  0  0  0  0
   26.9800  -24.9237  -15.9582 N   0  0  0  0  0  0  0  0  0  0  0  0
   25.8195  -24.2252  -15.5252 C   0  0  0  0  0  0  0  0  0  0  0  0
   24.9690  -23.6263  -16.5787 C   0  0  0  0  0  0  0  0  0  0  0  0
   23.7014  -22.9640  -16.2216 C   0  0  0  0  0  0  0  0  0  0  0  0
   23.7651  -22.0064  -15.0600 C   0  0  2  0  0  0  0  0  0  0  0  0
   24.7513  -22.3507  -14.1090 N   0  0  0  0  0  0  0  0  0  0  0  0
   22.3806  -21.8645  -14.4975 C   0  0  0  0  0  0  0  0  0  0  0  0
   21.8947  -22.8589  -13.8714 O   0  0  0  0  0  0  0  0  0  0  0  0
   28.9574  -26.4450  -16.5156 N   0  0  0  0  0  0  0  0  0  0  0  0
   21.5727  -20.7261  -14.6041 C   0  0  1  0  0  0  0  0  0  0  0  0
   20.2919  -20.5904  -13.9320 C   0  0  0  0  0  0  0  0  0  0  0  0
   20.1214  -19.3095  -13.1954 C   0  0  0  0  0  0  0  0  0  0  0  0
   20.3891  -19.4104  -11.7445 O   0  0  0  0  0  0  0  0  0  0  0  0
   20.6948  -20.5223  -11.2538 C   0  0  0  0  0  0  0  0  0  0  0  0
   19.2247  -20.7749  -14.9840 O   0  0  0  0  0  0  0  0  0  0  0  0
   19.3110  -20.1803  -16.0857 O   0  0  0  0  0  0  0  0  0  0  0  0
   20.3079  -18.2855  -10.9057 C   0  0  0  0  0  0  0  0  0  0  0  0
   17.9150  -24.1348  -18.0085 C   0  0  0  0  0  0  0  0  0  0  0  0
   17.9508  -23.9609  -16.5047 C   0  0  1  0  0  0  0  0  0  0  0  0
   16.7127  -23.2451  -15.9979 C   0  0  0  0  0  0  0  0  0  0  0  0
   15.5499  -23.3976  -16.9278 C   0  0  2  0  0  0  0  0  0  0  0  0
   17.0054  -21.8348  -15.6205 N   0  0  0  0  0  0  0  0  0  0  0  0
   18.1094  -21.6167  -14.7549 C   0  0  0  0  0  0  0  0  0  0  0  0
   15.7555  -21.0977  -15.2831 O   0  0  0  0  0  0  0  0  0  0  0  0
   14.8982  -20.7003  -16.2749 O   0  0  0  0  0  0  0  0  0  0  0  0
  2  3  2  0
  2  1  1  0
  4  2  1  0
  5  4  1  0
  6  5  1  0
  7  6  1  0
  8  7  1  0
  8  9  1  1
 10 11  2  0
 10  8  1  0
 12 10  1  0
 13 12  1  0
 13 14  1  6
 15 16  2  0
 15 14  1  0
 17 13  1  0
 18 17  2  0
 19 15  1  0
 20 21  1  0
 21 22  1  0
 22 24  1  0
 22 23  1  1
 24 26  1  0
 24 25  1  6
 25 17  1  0
 26 27  1  0
 28 26  2  0
M  END
$$$$
