RDI.pdb
     RDKit          3D

 28 27  0  0  1  0  0  0  0  0999 V2000
   22.5360  -19.7948   -9.5865 N   0  0  0  0  0  0  0  0  0  0  0  0
   23.0951  -20.9732   -9.0234 C   0  0  0  0  0  0  0  0  0  0  0  0
   22.6777  -21.3305   -7.8814 N   0  0  0  0  0  0  0  0  0  0  0  0
   24.0638  -21.7444   -9.6744 N   0  0  0  0  0  0  0  0  0  0  0  0
   24.5451  -21.6218  -11.0068 C   0  0  0  0  0  0  0  0  0  0  0  0
   25.8560  -20.9572  -11.1846 C   0  0  0  0  0  0  0  0  0  0  0  0
   26.3253  -20.5905  -12.5330 C   0  0  0  0  0  0  0  0  0  0  0  0
   25.9123  -21.5173  -13.6469 C   0  0  2  0  0  0  0  0  0  0  0  0
   27.0086  -22.0984  -14.3220 N   0  0  0  0  0  0  0  0  0  0  0  0
   24.9544  -20.7784  -14.5358 C   0  0  0  0  0  0  0  0  0  0  0  0
   25.4465  -20.0418  -15.4481 O   0  0  0  0  0  0  0  0  0  0  0  0
   23.0349  -22.1450   -7.3698 N   0  0  0  0  0  0  0  0  0  0  0  0
   23.5582  -20.8294  -14.4463 C   0  0  1  0  0  0  0  0  0  0  0  0
   22.6735  -20.1301  -15.3622 C   0  0  0  0  0  0  0  0  0  0  0  0
   21.2464  -20.5377  -15.2638 C   0  0  0  0  0  0  0  0  0  0  0  0
   20.5622  -20.0420  -14.0501 O   0  0  0  0  0  0  0  0  0  0  0  0
   20.1296  -18.8660  -14.0278 C   0  0  0  0  0  0  0  0  0  0  0  0
   22.8511  -18.6540  -15.0998 O   0  0  0  0  0  0  0  0  0  0  0  0
   22.6340  -18.1826  -13.9572 O   0  0  0  0  0  0  0  0  0  0  0  0
   20.3873  -20.8624  -12.9223 C   0  0  0  0  0  0  0  0  0  0  0  0
   26.6656  -14.2050  -15.4332 C   0  0  0  0  0  0  0  0  0  0  0  0
   25.2012  -14.5560  -15.5915 C   0  0  2  0  0  0  0  0  0  0  0  0
   25.0124  -16.0300  -15.8974 C   0  0  0  0  0  0  0  0  0  0  0  0
   25.8407  -16.4774  -17.0610 C   0  0  2  0  0  0  0  0  0  0  0  0
   23.5722  -16.3921  -16.0044 N   0  0  0  0  0  0  0  0  0  0  0  0
   23.2637  -17.7724  -16.1283 C   0  0  0  0  0  0  0  0  0  0  0  0
   22.8550  -15.4767  -16.9356 O   0  0  0  0  0  0  0  0  0  0  0  0
   22.2776  -15.9657  -18.0776 O   0  0  0  0  0  0  0  0  0  0  0  0
  2  3  2  0
  2  1  1  0
  4  2  1  0
  5  4  1  0
  6  5  1  0
  7  6  1  0
  8  7  1  0
  8  9  1  6
 10 11  2  0
 10  8  1  0
 12 10  1  0
 13 12  1  0
 13 14  1  6
 15 16  2  0
 15 14  1  0
 17 13  1  0
 18 17  2  0
 19 15  1  0
 20 21  1  0
 21 22  1  0
 22 24  1  0
 22 23  1  1
 24 26  1  0
 24 25  1  6
 25 17  1  0
 26 27  1  0
 28 26  2  0
M  END
$$$$
