RDI.pdb
     RDKit          3D

 28 27  0  0  1  0  0  0  0  0999 V2000
   28.3559  -18.2541  -20.8213 N   0  0  0  0  0  0  0  0  0  0  0  0
   27.6113  -19.4086  -21.1829 C   0  0  0  0  0  0  0  0  0  0  0  0
   27.1399  -19.4560  -22.3583 N   0  0  0  0  0  0  0  0  0  0  0  0
   27.3913  -20.4790  -20.3095 N   0  0  0  0  0  0  0  0  0  0  0  0
   27.7965  -20.6131  -18.9531 C   0  0  0  0  0  0  0  0  0  0  0  0
   28.2537  -19.3827  -18.2682 C   0  0  0  0  0  0  0  0  0  0  0  0
   27.6674  -18.9929  -16.9732 C   0  0  0  0  0  0  0  0  0  0  0  0
   27.9132  -19.9414  -15.8286 C   0  0  2  0  0  0  0  0  0  0  0  0
   28.1001  -21.2783  -16.2447 N   0  0  0  0  0  0  0  0  0  0  0  0
   26.8159  -19.7503  -14.8221 C   0  0  0  0  0  0  0  0  0  0  0  0
   26.6036  -18.5700  -14.3994 O   0  0  0  0  0  0  0  0  0  0  0  0
   26.5817  -20.2368  -22.7207 N   0  0  0  0  0  0  0  0  0  0  0  0
   26.0020  -20.7651  -14.3046 C   0  0  1  0  0  0  0  0  0  0  0  0
   24.9048  -20.5175  -13.3852 C   0  0  0  0  0  0  0  0  0  0  0  0
   23.5880  -21.0255  -13.8546 C   0  0  0  0  0  0  0  0  0  0  0  0
   22.4713  -20.7494  -12.9253 O   0  0  0  0  0  0  0  0  0  0  0  0
   22.6782  -20.0415  -11.9120 C   0  0  0  0  0  0  0  0  0  0  0  0
   25.2978  -21.1276  -12.0613 O   0  0  0  0  0  0  0  0  0  0  0  0
   25.5789  -22.3482  -11.9843 O   0  0  0  0  0  0  0  0  0  0  0  0
   21.1837  -21.2641  -13.1554 C   0  0  0  0  0  0  0  0  0  0  0  0
   28.3189  -20.0469   -6.9045 C   0  0  0  0  0  0  0  0  0  0  0  0
   27.1826  -20.7722   -7.5942 C   0  0  2  0  0  0  0  0  0  0  0  0
   26.7248  -20.0336   -8.8380 C   0  0  0  0  0  0  0  0  0  0  0  0
   26.3667  -18.6090   -8.5509 C   0  0  2  0  0  0  0  0  0  0  0  0
   25.6706  -20.7870   -9.5714 N   0  0  0  0  0  0  0  0  0  0  0  0
   25.3587  -20.3436  -10.8836 C   0  0  0  0  0  0  0  0  0  0  0  0
   24.5077  -21.0828   -8.6884 O   0  0  0  0  0  0  0  0  0  0  0  0
   23.2793  -20.5399   -8.9582 O   0  0  0  0  0  0  0  0  0  0  0  0
  2  3  2  0
  2  1  1  0
  4  2  1  0
  5  4  1  0
  6  5  1  0
  7  6  1  0
  8  7  1  0
  8  9  1  6
 10 11  2  0
 10  8  1  0
 12 10  1  0
 13 12  1  0
 13 14  1  1
 15 16  2  0
 15 14  1  0
 17 13  1  0
 18 17  2  0
 19 15  1  0
 20 21  1  0
 21 22  1  0
 22 24  1  0
 22 23  1  6
 24 26  1  0
 24 25  1  1
 25 17  1  0
 26 27  1  0
 28 26  2  0
M  END
$$$$
