RDI.pdb
     RDKit          3D

 28 27  0  0  1  0  0  0  0  0999 V2000
   20.7596  -22.9470   -7.8310 N   0  0  0  0  0  0  0  0  0  0  0  0
   20.7800  -22.0178   -8.9054 C   0  0  0  0  0  0  0  0  0  0  0  0
   19.6712  -21.5293   -9.2771 N   0  0  0  0  0  0  0  0  0  0  0  0
   21.9569  -21.6224   -9.5499 N   0  0  0  0  0  0  0  0  0  0  0  0
   23.2921  -21.6690   -9.0628 C   0  0  0  0  0  0  0  0  0  0  0  0
   24.0094  -20.3783   -8.9569 C   0  0  0  0  0  0  0  0  0  0  0  0
   24.8186  -19.8842  -10.0856 C   0  0  0  0  0  0  0  0  0  0  0  0
   25.7739  -20.8781  -10.6937 C   0  0  2  0  0  0  0  0  0  0  0  0
   27.0183  -20.9324  -10.0276 N   0  0  0  0  0  0  0  0  0  0  0  0
   25.8671  -20.5937  -12.1648 C   0  0  0  0  0  0  0  0  0  0  0  0
   26.5667  -19.5960  -12.5284 O   0  0  0  0  0  0  0  0  0  0  0  0
   19.5674  -20.8739  -10.0597 N   0  0  0  0  0  0  0  0  0  0  0  0
   25.2461  -21.3352  -13.1770 C   0  0  2  0  0  0  0  0  0  0  0  0
   25.4447  -21.0763  -14.5926 C   0  0  0  0  0  0  0  0  0  0  0  0
   25.9604  -22.2413  -15.3602 C   0  0  0  0  0  0  0  0  0  0  0  0
   26.2763  -21.9381  -16.7727 O   0  0  0  0  0  0  0  0  0  0  0  0
   26.0974  -20.7752  -17.2045 C   0  0  0  0  0  0  0  0  0  0  0  0
   24.1231  -20.5905  -15.1376 O   0  0  0  0  0  0  0  0  0  0  0  0
   23.0499  -21.1265  -14.7690 O   0  0  0  0  0  0  0  0  0  0  0  0
   26.7730  -22.9266  -17.6397 C   0  0  0  0  0  0  0  0  0  0  0  0
   20.6586  -16.7693  -16.3878 C   0  0  0  0  0  0  0  0  0  0  0  0
   21.5606  -17.0996  -17.5583 C   0  0  2  0  0  0  0  0  0  0  0  0
   22.9238  -17.5764  -17.0928 C   0  0  0  0  0  0  0  0  0  0  0  0
   24.0106  -17.2091  -18.0541 C   0  0  2  0  0  0  0  0  0  0  0  0
   22.9073  -19.0175  -16.7192 N   0  0  0  0  0  0  0  0  0  0  0  0
   24.0628  -19.5267  -16.0702 C   0  0  0  0  0  0  0  0  0  0  0  0
   22.3565  -19.8532  -17.8227 O   0  0  0  0  0  0  0  0  0  0  0  0
   23.1978  -20.4449  -18.7276 O   0  0  0  0  0  0  0  0  0  0  0  0
  2  3  2  0
  2  1  1  0
  4  2  1  0
  5  4  1  0
  6  5  1  0
  7  6  1  0
  8  7  1  0
  8  9  1  1
 10 11  2  0
 10  8  1  0
 12 10  1  0
 13 12  1  0
 13 14  1  6
 15 16  2  0
 15 14  1  0
 17 13  1  0
 18 17  2  0
 19 15  1  0
 20 21  1  0
 21 22  1  0
 22 24  1  0
 22 23  1  1
 24 26  1  0
 24 25  1  6
 25 17  1  0
 26 27  1  0
 28 26  2  0
M  END
$$$$
