RDI.pdb
     RDKit          3D

 28 27  0  0  1  0  0  0  0  0999 V2000
   28.9082  -28.3031  -15.8065 N   0  0  0  0  0  0  0  0  0  0  0  0
   27.6696  -28.6863  -16.3870 C   0  0  0  0  0  0  0  0  0  0  0  0
   27.1756  -29.7975  -16.0303 N   0  0  0  0  0  0  0  0  0  0  0  0
   26.9832  -27.8934  -17.3128 N   0  0  0  0  0  0  0  0  0  0  0  0
   27.3561  -26.6282  -17.8441 C   0  0  0  0  0  0  0  0  0  0  0  0
   28.0373  -25.6915  -16.9219 C   0  0  0  0  0  0  0  0  0  0  0  0
   27.2601  -24.6775  -16.1866 C   0  0  0  0  0  0  0  0  0  0  0  0
   26.0303  -24.1584  -16.8855 C   0  0  2  0  0  0  0  0  0  0  0  0
   26.2212  -23.9566  -18.2705 N   0  0  0  0  0  0  0  0  0  0  0  0
   25.5481  -22.9475  -16.1406 C   0  0  0  0  0  0  0  0  0  0  0  0
   26.4214  -22.2225  -15.5674 O   0  0  0  0  0  0  0  0  0  0  0  0
   26.2688  -30.1518  -16.3542 N   0  0  0  0  0  0  0  0  0  0  0  0
   24.2124  -22.5455  -16.0207 C   0  0  1  0  0  0  0  0  0  0  0  0
   23.8107  -21.2680  -15.4574 C   0  0  0  0  0  0  0  0  0  0  0  0
   23.0900  -20.3805  -16.4089 C   0  0  0  0  0  0  0  0  0  0  0  0
   22.5720  -19.1379  -15.7969 O   0  0  0  0  0  0  0  0  0  0  0  0
   23.3139  -18.4748  -15.0350 C   0  0  0  0  0  0  0  0  0  0  0  0
   22.9758  -21.5718  -14.2368 O   0  0  0  0  0  0  0  0  0  0  0  0
   22.0477  -22.4143  -14.2972 O   0  0  0  0  0  0  0  0  0  0  0  0
   21.2658  -18.6860  -16.0524 C   0  0  0  0  0  0  0  0  0  0  0  0
   22.9464  -20.5485   -8.0687 C   0  0  0  0  0  0  0  0  0  0  0  0
   22.1949  -20.8126   -9.3565 C   0  0  2  0  0  0  0  0  0  0  0  0
   23.0368  -20.4717  -10.5718 C   0  0  0  0  0  0  0  0  0  0  0  0
   23.4077  -19.0223  -10.6153 C   0  0  2  0  0  0  0  0  0  0  0  0
   22.4214  -20.9772  -11.8298 N   0  0  0  0  0  0  0  0  0  0  0  0
   23.2177  -20.9188  -13.0038 C   0  0  0  0  0  0  0  0  0  0  0  0
   21.0161  -20.5029  -11.9698 O   0  0  0  0  0  0  0  0  0  0  0  0
   20.6672  -19.6693  -12.9994 O   0  0  0  0  0  0  0  0  0  0  0  0
  2  3  2  0
  2  1  1  0
  4  2  1  0
  5  4  1  0
  6  5  1  0
  7  6  1  0
  8  7  1  0
  8  9  1  6
 10 11  2  0
 10  8  1  0
 12 10  1  0
 13 12  1  0
 13 14  1  1
 15 16  2  0
 15 14  1  0
 17 13  1  0
 18 17  2  0
 19 15  1  0
 20 21  1  0
 21 22  1  0
 22 24  1  0
 22 23  1  6
 24 26  1  0
 24 25  1  6
 25 17  1  0
 26 27  1  0
 28 26  2  0
M  END
$$$$
