FES.pdb
     RDKit          3D

 27 27  0  0  1  0  0  0  0  0999 V2000
   25.4391  -11.1318  -18.5511 N   0  0  0  0  0  0  0  0  0  0  0  0
   24.9428  -10.7526  -17.2739 C   0  0  1  0  0  0  0  0  0  0  0  0
   25.9573  -10.5661  -16.2125 C   0  0  0  0  0  0  0  0  0  0  0  0
   26.8442  -11.7127  -15.9532 C   0  0  0  0  0  0  0  0  0  0  0  0
   26.3404  -12.7576  -15.2063 C   0  0  0  0  0  0  0  0  0  0  0  0
   27.0999  -13.8733  -14.9019 C   0  0  0  0  0  0  0  0  0  0  0  0
   28.3991  -13.8866  -15.3886 C   0  0  0  0  0  0  0  0  0  0  0  0
   28.9011  -12.8420  -16.1345 C   0  0  0  0  0  0  0  0  0  0  0  0
   28.1283  -11.7292  -16.4322 C   0  0  0  0  0  0  0  0  0  0  0  0
   24.0685   -9.5256  -17.3446 C   0  0  0  0  0  0  0  0  0  0  0  0
   24.3481   -8.6250  -18.1560 O   0  0  0  0  0  0  0  0  0  0  0  0
   22.9390   -9.3892  -16.4997 N   0  0  0  0  0  0  0  0  0  0  0  0
   22.0080   -8.3264  -16.4632 C   0  0  1  0  0  0  0  0  0  0  0  0
   20.5774   -8.7428  -16.4272 C   0  0  0  0  0  0  0  0  0  0  0  0
   19.5546   -7.6869  -16.4961 C   0  0  0  0  0  0  0  0  0  0  0  0
   18.1781   -8.1811  -16.5372 C   0  0  0  0  0  0  0  0  0  0  0  0
   17.8563   -9.3844  -16.4227 O   0  0  0  0  0  0  0  0  0  0  0  0
   22.2867   -7.2690  -15.4346 C   0  0  0  0  0  0  0  0  0  0  0  0
   22.7035   -7.4391  -14.2901 O   0  0  0  0  0  0  0  0  0  0  0  0
   17.0996   -7.2830  -16.7164 O   0  0  0  0  0  0  0  0  0  0  0  0
   23.3340   -2.5733  -14.9208 O   0  0  0  0  0  0  0  0  0  0  0  0
   22.9314   -3.6306  -15.7237 C   0  0  0  0  0  0  0  0  0  0  0  0
   22.4247   -4.8101  -14.9025 C   0  0  2  0  0  0  0  0  0  0  0  0
   22.0559   -5.8913  -15.7930 N   0  0  0  0  0  0  0  0  0  0  0  0
   21.1908   -4.3452  -14.2238 C   0  0  0  0  0  0  0  0  0  0  0  0
   21.2240   -3.8399  -12.9347 O   0  0  0  0  0  0  0  0  0  0  0  0
   20.0745   -4.3943  -14.7955 O   0  0  0  0  0  0  0  0  0  0  0  0
  2  1  1  6
  3  2  1  0
  4  9  2  0
  4  3  1  0
  5  4  1  0
  6  7  1  0
  6  5  2  0
  7  8  2  0
  8  9  1  0
 10 12  1  0
 10  2  1  0
 11 10  2  0
 13 12  1  0
 13 14  1  1
 14 15  1  0
 15 16  1  0
 16 17  2  0
 18 19  2  0
 18 13  1  0
 20 16  1  0
 22 21  1  0
 23 22  1  6
 23 24  1  0
 24 18  1  0
 25 23  1  0
 26 25  1  0
 27 25  2  0
M  END
$$$$
