FES.pdb
     RDKit          3D

 27 27  0  0  1  0  0  0  0  0999 V2000
   28.0360  -22.0612   -9.9910 N   0  0  0  0  0  0  0  0  0  0  0  0
   26.9349  -21.2090   -9.7037 C   0  0  1  0  0  0  0  0  0  0  0  0
   27.2729  -19.8607   -9.1953 C   0  0  0  0  0  0  0  0  0  0  0  0
   27.7191  -19.7881   -7.7939 C   0  0  0  0  0  0  0  0  0  0  0  0
   26.9073  -19.1268   -6.8954 C   0  0  0  0  0  0  0  0  0  0  0  0
   27.2456  -18.9975   -5.5601 C   0  0  0  0  0  0  0  0  0  0  0  0
   28.4480  -19.5696   -5.1703 C   0  0  0  0  0  0  0  0  0  0  0  0
   29.2581  -20.2299   -6.0689 C   0  0  0  0  0  0  0  0  0  0  0  0
   28.9064  -20.3519   -7.4051 C   0  0  0  0  0  0  0  0  0  0  0  0
   25.9975  -21.0749  -10.8778 C   0  0  0  0  0  0  0  0  0  0  0  0
   26.4580  -21.1209  -12.0326 O   0  0  0  0  0  0  0  0  0  0  0  0
   24.6057  -20.8972  -10.6791 N   0  0  0  0  0  0  0  0  0  0  0  0
   23.5969  -20.7911  -11.6634 C   0  0  1  0  0  0  0  0  0  0  0  0
   22.2201  -20.5773  -11.1342 C   0  0  0  0  0  0  0  0  0  0  0  0
   21.1051  -20.6047  -12.0944 C   0  0  0  0  0  0  0  0  0  0  0  0
   20.2388  -21.7783  -11.9805 C   0  0  0  0  0  0  0  0  0  0  0  0
   19.9392  -22.3325  -10.8999 O   0  0  0  0  0  0  0  0  0  0  0  0
   23.8967  -19.8385  -12.7842 C   0  0  0  0  0  0  0  0  0  0  0  0
   24.1822  -18.6461  -12.6879 O   0  0  0  0  0  0  0  0  0  0  0  0
   19.6751  -22.3672  -13.1369 O   0  0  0  0  0  0  0  0  0  0  0  0
   25.2966  -21.3435  -16.2174 O   0  0  0  0  0  0  0  0  0  0  0  0
   25.3219  -19.9687  -16.0334 C   0  0  0  0  0  0  0  0  0  0  0  0
   24.1005  -19.4726  -15.2688 C   0  0  2  0  0  0  0  0  0  0  0  0
   23.8589  -20.3414  -14.1353 N   0  0  0  0  0  0  0  0  0  0  0  0
   22.9484  -19.6071  -16.1927 C   0  0  0  0  0  0  0  0  0  0  0  0
   21.8682  -20.4175  -15.8846 O   0  0  0  0  0  0  0  0  0  0  0  0
   22.9137  -18.9906  -17.2854 O   0  0  0  0  0  0  0  0  0  0  0  0
  2  1  1  6
  3  2  1  0
  4  9  2  0
  4  3  1  0
  5  4  1  0
  6  7  1  0
  6  5  2  0
  7  8  2  0
  8  9  1  0
 10 12  1  0
 10  2  1  0
 11 10  2  0
 13 12  1  0
 13 14  1  1
 14 15  1  0
 15 16  1  0
 16 17  2  0
 18 19  2  0
 18 13  1  0
 20 16  1  0
 22 21  1  0
 23 22  1  6
 23 24  1  0
 24 18  1  0
 25 23  1  0
 26 25  1  0
 27 25  2  0
M  END
$$$$
