FES.pdb
     RDKit          3D

 27 27  0  0  1  0  0  0  0  0999 V2000
   27.8566  -11.9649  -19.4093 N   0  0  0  0  0  0  0  0  0  0  0  0
   27.0783  -10.9641  -18.7658 C   0  0  1  0  0  0  0  0  0  0  0  0
   27.7789  -10.1537  -17.7445 C   0  0  0  0  0  0  0  0  0  0  0  0
   28.8574  -10.8313  -17.0056 C   0  0  0  0  0  0  0  0  0  0  0  0
   28.5090  -11.8818  -16.1818 C   0  0  0  0  0  0  0  0  0  0  0  0
   29.4496  -12.5738  -15.4397 C   0  0  0  0  0  0  0  0  0  0  0  0
   30.7661  -12.1549  -15.5677 C   0  0  0  0  0  0  0  0  0  0  0  0
   31.1127  -11.1053  -16.3910 C   0  0  0  0  0  0  0  0  0  0  0  0
   30.1590  -10.4202  -17.1294 C   0  0  0  0  0  0  0  0  0  0  0  0
   26.4065  -10.0431  -19.7535 C   0  0  0  0  0  0  0  0  0  0  0  0
   26.7593  -10.0679  -20.9462 O   0  0  0  0  0  0  0  0  0  0  0  0
   25.3839   -9.1543  -19.3379 N   0  0  0  0  0  0  0  0  0  0  0  0
   24.6045   -8.2935  -20.1436 C   0  0  1  0  0  0  0  0  0  0  0  0
   23.3741   -8.9093  -20.7168 C   0  0  0  0  0  0  0  0  0  0  0  0
   23.2577  -10.3757  -20.6728 C   0  0  0  0  0  0  0  0  0  0  0  0
   22.0207  -10.9010  -21.2513 C   0  0  0  0  0  0  0  0  0  0  0  0
   21.9688  -11.6167  -22.2759 O   0  0  0  0  0  0  0  0  0  0  0  0
   24.3038   -6.9525  -19.5394 C   0  0  0  0  0  0  0  0  0  0  0  0
   24.0390   -6.7117  -18.3627 O   0  0  0  0  0  0  0  0  0  0  0  0
   20.7713  -10.6117  -20.6538 O   0  0  0  0  0  0  0  0  0  0  0  0
   25.6736   -3.2988  -21.2553 O   0  0  0  0  0  0  0  0  0  0  0  0
   24.3211   -3.4415  -20.9814 C   0  0  0  0  0  0  0  0  0  0  0  0
   24.0662   -4.4679  -19.8841 C   0  0  2  0  0  0  0  0  0  0  0  0
   24.3218   -5.7965  -20.4014 N   0  0  0  0  0  0  0  0  0  0  0  0
   22.6215   -4.3812  -19.5607 C   0  0  0  0  0  0  0  0  0  0  0  0
   22.1295   -3.3992  -18.7169 O   0  0  0  0  0  0  0  0  0  0  0  0
   21.7960   -5.1955  -20.0412 O   0  0  0  0  0  0  0  0  0  0  0  0
  2  1  1  6
  3  2  1  0
  4  9  2  0
  4  3  1  0
  5  4  1  0
  6  7  1  0
  6  5  2  0
  7  8  2  0
  8  9  1  0
 10 12  1  0
 10  2  1  0
 11 10  2  0
 13 12  1  0
 13 14  1  1
 14 15  1  0
 15 16  1  0
 16 17  2  0
 18 19  2  0
 18 13  1  0
 20 16  1  0
 22 21  1  0
 23 22  1  6
 23 24  1  0
 24 18  1  0
 25 23  1  0
 26 25  1  0
 27 25  2  0
M  END
$$$$
