FES.pdb
     RDKit          3D

 27 27  0  0  1  0  0  0  0  0999 V2000
   18.1112  -15.4525  -17.0010 N   0  0  0  0  0  0  0  0  0  0  0  0
   18.5594  -14.4487  -16.0995 C   0  0  1  0  0  0  0  0  0  0  0  0
   20.0254  -14.3369  -15.9289 C   0  0  0  0  0  0  0  0  0  0  0  0
   20.7378  -15.5831  -15.6008 C   0  0  0  0  0  0  0  0  0  0  0  0
   20.6621  -16.0427  -14.3021 C   0  0  0  0  0  0  0  0  0  0  0  0
   21.3053  -17.1980  -13.8953 C   0  0  0  0  0  0  0  0  0  0  0  0
   22.0330  -17.8729  -14.8649 C   0  0  0  0  0  0  0  0  0  0  0  0
   22.1079  -17.4127  -16.1619 C   0  0  0  0  0  0  0  0  0  0  0  0
   21.4579  -16.2524  -16.5559 C   0  0  0  0  0  0  0  0  0  0  0  0
   17.9946  -13.0906  -16.4336 C   0  0  0  0  0  0  0  0  0  0  0  0
   18.0755  -12.6682  -17.6010 O   0  0  0  0  0  0  0  0  0  0  0  0
   17.3774  -12.2955  -15.4361 N   0  0  0  0  0  0  0  0  0  0  0  0
   16.8017  -11.0131  -15.5841 C   0  0  1  0  0  0  0  0  0  0  0  0
   15.5395  -10.7971  -14.8214 C   0  0  0  0  0  0  0  0  0  0  0  0
   14.3792  -11.6344  -15.1657 C   0  0  0  0  0  0  0  0  0  0  0  0
   13.6865  -11.2325  -16.3902 C   0  0  0  0  0  0  0  0  0  0  0  0
   13.5393  -11.9673  -17.3917 O   0  0  0  0  0  0  0  0  0  0  0  0
   17.7481   -9.8632  -15.3952 C   0  0  0  0  0  0  0  0  0  0  0  0
   18.5948   -9.7368  -14.5122 O   0  0  0  0  0  0  0  0  0  0  0  0
   13.1267   -9.9381  -16.5044 O   0  0  0  0  0  0  0  0  0  0  0  0
   19.8717   -6.1276  -17.6226 O   0  0  0  0  0  0  0  0  0  0  0  0
   18.9789   -7.1892  -17.6461 C   0  0  0  0  0  0  0  0  0  0  0  0
   18.6028   -7.6498  -16.2430 C   0  0  2  0  0  0  0  0  0  0  0  0
   17.6899   -8.7706  -16.3347 N   0  0  0  0  0  0  0  0  0  0  0  0
   17.8699   -6.5225  -15.6174 C   0  0  0  0  0  0  0  0  0  0  0  0
   18.4536   -5.7401  -14.6347 O   0  0  0  0  0  0  0  0  0  0  0  0
   16.6954   -6.2396  -15.9580 O   0  0  0  0  0  0  0  0  0  0  0  0
  2  1  1  6
  3  2  1  0
  4  9  2  0
  4  3  1  0
  5  4  1  0
  6  7  1  0
  6  5  2  0
  7  8  2  0
  8  9  1  0
 10 12  1  0
 10  2  1  0
 11 10  2  0
 13 12  1  0
 13 14  1  1
 14 15  1  0
 15 16  1  0
 16 17  2  0
 18 19  2  0
 18 13  1  0
 20 16  1  0
 22 21  1  0
 23 22  1  6
 23 24  1  0
 24 18  1  0
 25 23  1  0
 26 25  1  0
 27 25  2  0
M  END
$$$$
