FES.pdb
     RDKit          3D

 27 27  0  0  1  0  0  0  0  0999 V2000
   23.6628   -9.2980  -17.8108 N   0  0  0  0  0  0  0  0  0  0  0  0
   23.3634   -8.7068  -16.5529 C   0  0  1  0  0  0  0  0  0  0  0  0
   24.5239   -8.2356  -15.7644 C   0  0  0  0  0  0  0  0  0  0  0  0
   25.6256   -9.1973  -15.5922 C   0  0  0  0  0  0  0  0  0  0  0  0
   26.8150   -8.9332  -16.2399 C   0  0  0  0  0  0  0  0  0  0  0  0
   27.9036   -9.7819  -16.1472 C   0  0  0  0  0  0  0  0  0  0  0  0
   27.7365  -10.9164  -15.3661 C   0  0  0  0  0  0  0  0  0  0  0  0
   26.5478  -11.1791  -14.7198 C   0  0  0  0  0  0  0  0  0  0  0  0
   25.4641  -10.3192  -14.8217 C   0  0  0  0  0  0  0  0  0  0  0  0
   22.3599   -7.5874  -16.6747 C   0  0  0  0  0  0  0  0  0  0  0  0
   22.4813   -6.7585  -17.5944 O   0  0  0  0  0  0  0  0  0  0  0  0
   21.2869   -7.4710  -15.7563 N   0  0  0  0  0  0  0  0  0  0  0  0
   20.2951   -6.4653  -15.7060 C   0  0  1  0  0  0  0  0  0  0  0  0
   18.9859   -6.8990  -15.1410 C   0  0  0  0  0  0  0  0  0  0  0  0
   18.0487   -7.5933  -16.0385 C   0  0  0  0  0  0  0  0  0  0  0  0
   17.2279   -8.6122  -15.3836 C   0  0  0  0  0  0  0  0  0  0  0  0
   16.2681   -8.3627  -14.6212 O   0  0  0  0  0  0  0  0  0  0  0  0
   20.7366   -5.1633  -15.1031 C   0  0  0  0  0  0  0  0  0  0  0  0
   21.7299   -4.9683  -14.4046 O   0  0  0  0  0  0  0  0  0  0  0  0
   17.4924   -9.9866  -15.5903 O   0  0  0  0  0  0  0  0  0  0  0  0
   22.0871   -1.0493  -15.7020 O   0  0  0  0  0  0  0  0  0  0  0  0
   21.6142   -2.3350  -15.9213 C   0  0  0  0  0  0  0  0  0  0  0  0
   20.4224   -2.6644  -15.0305 C   0  0  2  0  0  0  0  0  0  0  0  0
   19.9355   -3.9901  -15.3517 N   0  0  0  0  0  0  0  0  0  0  0  0
   19.3573   -1.6955  -15.3853 C   0  0  0  0  0  0  0  0  0  0  0  0
   19.1752   -0.5278  -14.6629 O   0  0  0  0  0  0  0  0  0  0  0  0
   18.5848   -1.9015  -16.3529 O   0  0  0  0  0  0  0  0  0  0  0  0
  2  1  1  6
  3  2  1  0
  4  9  2  0
  4  3  1  0
  5  4  1  0
  6  7  1  0
  6  5  2  0
  7  8  2  0
  8  9  1  0
 10 12  1  0
 10  2  1  0
 11 10  2  0
 13 12  1  0
 13 14  1  1
 14 15  1  0
 15 16  1  0
 16 17  2  0
 18 19  2  0
 18 13  1  0
 20 16  1  0
 22 21  1  0
 23 22  1  6
 23 24  1  0
 24 18  1  0
 25 23  1  0
 26 25  1  0
 27 25  2  0
M  END
$$$$
