FES.pdb
     RDKit          3D

 27 27  0  0  1  0  0  0  0  0999 V2000
   15.4499  -14.2111    5.8214 N   0  0  0  0  0  0  0  0  0  0  0  0
   16.3830  -15.1941    5.3918 C   0  0  1  0  0  0  0  0  0  0  0  0
   17.7790  -15.0065    5.8464 C   0  0  0  0  0  0  0  0  0  0  0  0
   18.4612  -13.7936    5.3650 C   0  0  0  0  0  0  0  0  0  0  0  0
   19.2202  -13.0819    6.2712 C   0  0  0  0  0  0  0  0  0  0  0  0
   19.8902  -11.9247    5.9164 C   0  0  0  0  0  0  0  0  0  0  0  0
   19.7588  -11.5157    4.5971 C   0  0  0  0  0  0  0  0  0  0  0  0
   19.0003  -12.2276    3.6929 C   0  0  0  0  0  0  0  0  0  0  0  0
   18.3336  -13.3865    4.0626 C   0  0  0  0  0  0  0  0  0  0  0  0
   15.9342  -16.5927    5.7345 C   0  0  0  0  0  0  0  0  0  0  0  0
   15.1115  -16.7602    6.6525 O   0  0  0  0  0  0  0  0  0  0  0  0
   16.4386  -17.7112    5.0254 N   0  0  0  0  0  0  0  0  0  0  0  0
   16.1568  -19.0780    5.2500 C   0  0  1  0  0  0  0  0  0  0  0  0
   15.5481  -19.7942    4.0934 C   0  0  0  0  0  0  0  0  0  0  0  0
   15.8196  -19.2721    2.7444 C   0  0  0  0  0  0  0  0  0  0  0  0
   16.1892  -20.2938    1.7645 C   0  0  0  0  0  0  0  0  0  0  0  0
   15.4585  -21.2547    1.4365 O   0  0  0  0  0  0  0  0  0  0  0  0
   17.2841  -19.8729    5.8425 C   0  0  0  0  0  0  0  0  0  0  0  0
   18.4864  -19.7302    5.6259 O   0  0  0  0  0  0  0  0  0  0  0  0
   17.4444  -20.2413    1.1139 O   0  0  0  0  0  0  0  0  0  0  0  0
   16.7311  -21.3851    9.4175 O   0  0  0  0  0  0  0  0  0  0  0  0
   18.0120  -21.4696    8.8912 C   0  0  0  0  0  0  0  0  0  0  0  0
   17.9960  -21.7297    7.3897 C   0  0  2  0  0  0  0  0  0  0  0  0
   16.9608  -20.9248    6.7745 N   0  0  0  0  0  0  0  0  0  0  0  0
   17.6203  -23.1540    7.2181 C   0  0  0  0  0  0  0  0  0  0  0  0
   16.4523  -23.5181    6.5689 O   0  0  0  0  0  0  0  0  0  0  0  0
   18.3489  -24.0775    7.6558 O   0  0  0  0  0  0  0  0  0  0  0  0
  2  1  1  1
  3  2  1  0
  4  9  2  0
  4  3  1  0
  5  4  1  0
  6  7  1  0
  6  5  2  0
  7  8  2  0
  8  9  1  0
 10 12  1  0
 10  2  1  0
 11 10  2  0
 13 12  1  0
 13 14  1  6
 14 15  1  0
 15 16  1  0
 16 17  2  0
 18 19  2  0
 18 13  1  0
 20 16  1  0
 22 21  1  0
 23 22  1  1
 23 24  1  0
 24 18  1  0
 25 23  1  0
 26 25  1  0
 27 25  2  0
M  END
$$$$
