FES.pdb
     RDKit          3D

 27 27  0  0  1  0  0  0  0  0999 V2000
   24.8775  -10.4807  -18.4363 N   0  0  0  0  0  0  0  0  0  0  0  0
   24.4744   -9.8165  -17.2457 C   0  0  1  0  0  0  0  0  0  0  0  0
   25.5541   -9.1738  -16.4635 C   0  0  0  0  0  0  0  0  0  0  0  0
   26.7449   -9.9990  -16.2003 C   0  0  0  0  0  0  0  0  0  0  0  0
   26.6231  -11.0298  -15.2913 C   0  0  0  0  0  0  0  0  0  0  0  0
   27.6876  -11.8532  -14.9707 C   0  0  0  0  0  0  0  0  0  0  0  0
   28.8883  -11.5876  -15.6133 C   0  0  0  0  0  0  0  0  0  0  0  0
   29.0086  -10.5575  -16.5211 C   0  0  0  0  0  0  0  0  0  0  0  0
   27.9327   -9.7394  -16.8330 C   0  0  0  0  0  0  0  0  0  0  0  0
   23.3795   -8.8103  -17.4982 C   0  0  0  0  0  0  0  0  0  0  0  0
   23.2898   -8.2767  -18.6184 O   0  0  0  0  0  0  0  0  0  0  0  0
   22.4581   -8.4683  -16.4773 N   0  0  0  0  0  0  0  0  0  0  0  0
   21.3005   -7.6650  -16.5889 C   0  0  1  0  0  0  0  0  0  0  0  0
   20.0592   -8.2665  -16.0242 C   0  0  0  0  0  0  0  0  0  0  0  0
   18.7982   -7.5288  -16.2021 C   0  0  0  0  0  0  0  0  0  0  0  0
   17.6221   -8.2010  -15.6494 C   0  0  0  0  0  0  0  0  0  0  0  0
   16.9641   -7.7823  -14.6714 O   0  0  0  0  0  0  0  0  0  0  0  0
   21.4642   -6.2434  -16.1353 C   0  0  0  0  0  0  0  0  0  0  0  0
   21.9191   -5.8554  -15.0605 O   0  0  0  0  0  0  0  0  0  0  0  0
   17.1534   -9.4083  -16.2191 O   0  0  0  0  0  0  0  0  0  0  0  0
   20.5532   -3.2586  -18.9401 O   0  0  0  0  0  0  0  0  0  0  0  0
   21.4988   -2.9929  -17.9603 C   0  0  0  0  0  0  0  0  0  0  0  0
   21.2451   -3.7953  -16.6898 C   0  0  2  0  0  0  0  0  0  0  0  0
   21.0580   -5.1900  -17.0327 N   0  0  0  0  0  0  0  0  0  0  0  0
   19.9668   -3.2942  -16.1294 C   0  0  0  0  0  0  0  0  0  0  0  0
   19.8913   -2.0670  -15.4917 O   0  0  0  0  0  0  0  0  0  0  0  0
   18.9100   -3.9660  -16.2144 O   0  0  0  0  0  0  0  0  0  0  0  0
  2  1  1  6
  3  2  1  0
  4  9  2  0
  4  3  1  0
  5  4  1  0
  6  7  1  0
  6  5  2  0
  7  8  2  0
  8  9  1  0
 10 12  1  0
 10  2  1  0
 11 10  2  0
 13 12  1  0
 13 14  1  1
 14 15  1  0
 15 16  1  0
 16 17  2  0
 18 19  2  0
 18 13  1  0
 20 16  1  0
 22 21  1  0
 23 22  1  6
 23 24  1  0
 24 18  1  0
 25 23  1  0
 26 25  1  0
 27 25  2  0
M  END
$$$$
