FES.pdb
     RDKit          3D

 27 27  0  0  1  0  0  0  0  0999 V2000
   28.7269  -21.0665   -8.9282 N   0  0  0  0  0  0  0  0  0  0  0  0
   27.3212  -20.8535   -8.9289 C   0  0  1  0  0  0  0  0  0  0  0  0
   26.8310  -19.7534   -8.0686 C   0  0  0  0  0  0  0  0  0  0  0  0
   27.3229  -19.7458   -6.6807 C   0  0  0  0  0  0  0  0  0  0  0  0
   26.7430  -20.6253   -5.7896 C   0  0  0  0  0  0  0  0  0  0  0  0
   27.1304  -20.6855   -4.4628 C   0  0  0  0  0  0  0  0  0  0  0  0
   28.1361  -19.8124   -4.0736 C   0  0  0  0  0  0  0  0  0  0  0  0
   28.7144  -18.9343   -4.9648 C   0  0  0  0  0  0  0  0  0  0  0  0
   28.3160  -18.8846   -6.2925 C   0  0  0  0  0  0  0  0  0  0  0  0
   26.7736  -20.6738  -10.3227 C   0  0  0  0  0  0  0  0  0  0  0  0
   27.2997  -19.8392  -11.0805 O   0  0  0  0  0  0  0  0  0  0  0  0
   25.6712  -21.4415  -10.7742 N   0  0  0  0  0  0  0  0  0  0  0  0
   25.1043  -21.4648  -12.0688 C   0  0  1  0  0  0  0  0  0  0  0  0
   25.0727  -22.8057  -12.7187 C   0  0  0  0  0  0  0  0  0  0  0  0
   24.6080  -22.8803  -14.1132 C   0  0  0  0  0  0  0  0  0  0  0  0
   24.7098  -24.2108  -14.7134 C   0  0  0  0  0  0  0  0  0  0  0  0
   25.1943  -25.2099  -14.1374 O   0  0  0  0  0  0  0  0  0  0  0  0
   23.7782  -20.7731  -12.1972 C   0  0  0  0  0  0  0  0  0  0  0  0
   22.8586  -20.7746  -11.3805 O   0  0  0  0  0  0  0  0  0  0  0  0
   24.2456  -24.4400  -16.0301 O   0  0  0  0  0  0  0  0  0  0  0  0
   22.8213  -19.3661  -15.8850 O   0  0  0  0  0  0  0  0  0  0  0  0
   22.3206  -18.5318  -14.8961 C   0  0  0  0  0  0  0  0  0  0  0  0
   22.3255  -19.2019  -13.5275 C   0  0  2  0  0  0  0  0  0  0  0  0
   23.5197  -20.0106  -13.3937 N   0  0  0  0  0  0  0  0  0  0  0  0
   21.1582  -20.1163  -13.5077 C   0  0  0  0  0  0  0  0  0  0  0  0
   21.3097  -21.4825  -13.6784 O   0  0  0  0  0  0  0  0  0  0  0  0
   19.9931  -19.6823  -13.3355 O   0  0  0  0  0  0  0  0  0  0  0  0
  2  1  1  6
  3  2  1  0
  4  9  2  0
  4  3  1  0
  5  4  1  0
  6  7  1  0
  6  5  2  0
  7  8  2  0
  8  9  1  0
 10 12  1  0
 10  2  1  0
 11 10  2  0
 13 12  1  0
 13 14  1  1
 14 15  1  0
 15 16  1  0
 16 17  2  0
 18 19  2  0
 18 13  1  0
 20 16  1  0
 22 21  1  0
 23 22  1  6
 23 24  1  0
 24 18  1  0
 25 23  1  0
 26 25  1  0
 27 25  2  0
M  END
$$$$
