FES.pdb
     RDKit          3D

 27 27  0  0  1  0  0  0  0  0999 V2000
   23.2897  -25.5242  -16.9880 N   0  0  0  0  0  0  0  0  0  0  0  0
   23.4267  -26.1815  -15.7347 C   0  0  1  0  0  0  0  0  0  0  0  0
   24.5283  -25.7049  -14.8688 C   0  0  0  0  0  0  0  0  0  0  0  0
   25.8758  -25.7247  -15.4622 C   0  0  0  0  0  0  0  0  0  0  0  0
   26.4849  -26.9513  -15.6303 C   0  0  0  0  0  0  0  0  0  0  0  0
   27.7533  -27.0714  -16.1696 C   0  0  0  0  0  0  0  0  0  0  0  0
   28.3830  -25.8900  -16.5341 C   0  0  0  0  0  0  0  0  0  0  0  0
   27.7734  -24.6654  -16.3655 C   0  0  0  0  0  0  0  0  0  0  0  0
   26.5011  -24.5597  -15.8232 C   0  0  0  0  0  0  0  0  0  0  0  0
   22.1405  -26.1782  -14.9469 C   0  0  0  0  0  0  0  0  0  0  0  0
   21.4720  -25.1313  -14.8774 O   0  0  0  0  0  0  0  0  0  0  0  0
   21.6896  -27.3490  -14.2881 N   0  0  0  0  0  0  0  0  0  0  0  0
   20.5522  -27.4942  -13.4616 C   0  0  1  0  0  0  0  0  0  0  0  0
   20.1961  -28.9009  -13.1211 C   0  0  0  0  0  0  0  0  0  0  0  0
   18.9782  -29.1260  -12.3262 C   0  0  0  0  0  0  0  0  0  0  0  0
   18.7343  -30.5260  -11.9781 C   0  0  0  0  0  0  0  0  0  0  0  0
   19.5146  -31.4663  -12.2460 O   0  0  0  0  0  0  0  0  0  0  0  0
   20.5370  -26.6240  -12.2384 C   0  0  0  0  0  0  0  0  0  0  0  0
   21.4512  -26.4622  -11.4319 O   0  0  0  0  0  0  0  0  0  0  0  0
   17.5539  -30.8986  -11.2929 O   0  0  0  0  0  0  0  0  0  0  0  0
   18.2507  -23.2480  -12.1924 O   0  0  0  0  0  0  0  0  0  0  0  0
   19.3195  -23.5268  -11.3529 C   0  0  0  0  0  0  0  0  0  0  0  0
   19.2766  -24.9577  -10.8302 C   0  0  2  0  0  0  0  0  0  0  0  0
   19.3376  -25.8781  -11.9469 N   0  0  0  0  0  0  0  0  0  0  0  0
   17.9535  -25.1242  -10.1815 C   0  0  0  0  0  0  0  0  0  0  0  0
   17.6036  -24.3917   -9.0592 O   0  0  0  0  0  0  0  0  0  0  0  0
   17.1060  -25.9352  -10.6282 O   0  0  0  0  0  0  0  0  0  0  0  0
  2  1  1  6
  3  2  1  0
  4  9  2  0
  4  3  1  0
  5  4  1  0
  6  7  1  0
  6  5  2  0
  7  8  2  0
  8  9  1  0
 10 12  1  0
 10  2  1  0
 11 10  2  0
 13 12  1  0
 13 14  1  1
 14 15  1  0
 15 16  1  0
 16 17  2  0
 18 19  2  0
 18 13  1  0
 20 16  1  0
 22 21  1  0
 23 22  1  6
 23 24  1  0
 24 18  1  0
 25 23  1  0
 26 25  1  0
 27 25  2  0
M  END
$$$$
