PVR.pdb
     RDKit          3D

 26 26  0  0  1  0  0  0  0  0999 V2000
   26.6412  -15.0827  -21.8355 N   0  0  0  0  0  0  0  0  0  0  0  0
   27.0505  -14.3847  -23.0165 C   0  0  0  0  0  0  0  0  0  0  0  0
   26.8806  -12.9027  -22.7625 C   0  0  0  0  0  0  0  0  0  0  0  0
   26.1193  -12.8471  -21.4803 C   0  0  0  0  0  0  0  0  0  0  0  0
   26.6090  -14.1205  -20.7744 C   0  0  1  0  0  0  0  0  0  0  0  0
   25.6511  -14.4821  -19.6831 C   0  0  0  0  0  0  0  0  0  0  0  0
   24.5250  -14.9883  -19.8975 O   0  0  0  0  0  0  0  0  0  0  0  0
   25.2625  -15.1449  -14.8415 C   0  0  0  0  0  0  0  0  0  0  0  0
   26.1646  -14.8431  -16.0175 C   0  0  1  0  0  0  0  0  0  0  0  0
   26.9781  -16.0730  -16.3132 C   0  0  0  0  0  0  0  0  0  0  0  0
   25.2556  -14.4823  -17.1892 C   0  0  2  0  0  0  0  0  0  0  0  0
   26.0364  -14.2403  -18.3646 N   0  0  0  0  0  0  0  0  0  0  0  0
   24.3641  -13.3581  -16.8399 C   0  0  0  0  0  0  0  0  0  0  0  0
   24.9060  -12.2301  -16.6386 O   0  0  0  0  0  0  0  0  0  0  0  0
   16.1521  -13.2135  -17.2545 N   0  0  0  0  0  0  0  0  0  0  0  0
   16.8224  -13.9172  -18.3031 C   0  0  0  0  0  0  0  0  0  0  0  0
   16.1606  -14.6765  -19.1020 N   0  0  0  0  0  0  0  0  0  0  0  0
   18.2150  -13.8050  -18.5071 N   0  0  0  0  0  0  0  0  0  0  0  0
   19.0813  -12.9091  -17.7974 C   0  0  0  0  0  0  0  0  0  0  0  0
   20.4970  -12.8721  -18.2654 C   0  0  0  0  0  0  0  0  0  0  0  0
   21.3834  -11.8389  -17.6433 C   0  0  0  0  0  0  0  0  0  0  0  0
   22.0667  -12.3444  -16.4260 C   0  0  2  0  0  0  0  0  0  0  0  0
   22.9593  -13.4658  -16.7161 N   0  0  0  0  0  0  0  0  0  0  0  0
   21.0681  -12.7378  -15.3993 C   0  0  0  0  0  0  0  0  0  0  0  0
   21.0339  -14.0585  -14.9900 O   0  0  0  0  0  0  0  0  0  0  0  0
   20.2684  -11.9405  -14.8950 O   0  0  0  0  0  0  0  0  0  0  0  0
  1  5  1  0
  1  2  1  0
  2  3  1  0
  4  3  1  0
  5  4  1  0
  6  7  2  0
  5  6  1  1
  9 11  1  0
  9  8  1  1
 10  9  1  0
 11 12  1  6
 12  6  1  0
 13 11  1  0
 14 13  2  0
 16 17  2  0
 16 15  1  0
 18 16  1  0
 19 18  1  0
 20 19  1  0
 20 21  1  0
 22 21  1  6
 22 23  1  0
 23 13  1  0
 24 25  1  0
 24 22  1  0
 26 24  2  0
M  END
$$$$
