PVR.pdb
     RDKit          3D

 26 26  0  0  1  0  0  0  0  0999 V2000
   27.4229  -20.1596  -17.0048 N   0  0  0  0  0  0  0  0  0  0  0  0
   28.4915  -19.8622  -17.9099 C   0  0  0  0  0  0  0  0  0  0  0  0
   29.4327  -21.0471  -17.9227 C   0  0  0  0  0  0  0  0  0  0  0  0
   28.9557  -21.8917  -16.7887 C   0  0  0  0  0  0  0  0  0  0  0  0
   27.4529  -21.5738  -16.7769 C   0  0  1  0  0  0  0  0  0  0  0  0
   26.8732  -21.9677  -15.4548 C   0  0  0  0  0  0  0  0  0  0  0  0
   26.8744  -23.1458  -15.0279 O   0  0  0  0  0  0  0  0  0  0  0  0
   25.8424  -20.4627  -11.0093 C   0  0  0  0  0  0  0  0  0  0  0  0
   26.4200  -20.1690  -12.3761 C   0  0  1  0  0  0  0  0  0  0  0  0
   27.9058  -20.3942  -12.3164 C   0  0  0  0  0  0  0  0  0  0  0  0
   25.7502  -21.1308  -13.3537 C   0  0  2  0  0  0  0  0  0  0  0  0
   26.3042  -20.9696  -14.6640 N   0  0  0  0  0  0  0  0  0  0  0  0
   24.2815  -20.9818  -13.3193 C   0  0  0  0  0  0  0  0  0  0  0  0
   23.7918  -19.9441  -13.8577 O   0  0  0  0  0  0  0  0  0  0  0  0
   17.2825  -25.8273   -9.8874 N   0  0  0  0  0  0  0  0  0  0  0  0
   16.8931  -25.0468  -11.0202 C   0  0  0  0  0  0  0  0  0  0  0  0
   15.7400  -25.2188  -11.5620 N   0  0  0  0  0  0  0  0  0  0  0  0
   17.7410  -24.0656  -11.5787 N   0  0  0  0  0  0  0  0  0  0  0  0
   19.0519  -23.7396  -11.0969 C   0  0  0  0  0  0  0  0  0  0  0  0
   19.8054  -22.7352  -11.9019 C   0  0  0  0  0  0  0  0  0  0  0  0
   21.2980  -22.8455  -11.8869 C   0  0  0  0  0  0  0  0  0  0  0  0
   21.9497  -21.7525  -12.6517 C   0  0  2  0  0  0  0  0  0  0  0  0
   23.4009  -21.9163  -12.7262 N   0  0  0  0  0  0  0  0  0  0  0  0
   21.6136  -20.4341  -12.0559 C   0  0  0  0  0  0  0  0  0  0  0  0
   20.5795  -19.7061  -12.6157 O   0  0  0  0  0  0  0  0  0  0  0  0
   22.2144  -19.9593  -11.0847 O   0  0  0  0  0  0  0  0  0  0  0  0
  1  5  1  0
  1  2  1  0
  2  3  1  0
  4  3  1  0
  5  4  1  0
  6  7  2  0
  5  6  1  1
  9 11  1  0
  9  8  1  1
 10  9  1  0
 11 12  1  6
 12  6  1  0
 13 11  1  0
 14 13  2  0
 16 17  2  0
 16 15  1  0
 18 16  1  0
 19 18  1  0
 20 19  1  0
 20 21  1  0
 22 21  1  1
 22 23  1  0
 23 13  1  0
 24 25  1  0
 24 22  1  0
 26 24  2  0
M  END
$$$$
