PVR.pdb
     RDKit          3D

 26 26  0  0  1  0  0  0  0  0999 V2000
   24.2738  -14.3656  -14.8615 N   0  0  0  0  0  0  0  0  0  0  0  0
   23.8253  -13.0124  -14.7317 C   0  0  0  0  0  0  0  0  0  0  0  0
   22.5397  -12.8717  -15.5174 C   0  0  0  0  0  0  0  0  0  0  0  0
   22.4522  -14.1475  -16.2865 C   0  0  0  0  0  0  0  0  0  0  0  0
   23.1593  -15.1287  -15.3395 C   0  0  1  0  0  0  0  0  0  0  0  0
   23.5678  -16.3485  -16.1040 C   0  0  0  0  0  0  0  0  0  0  0  0
   23.0379  -16.6896  -17.1870 O   0  0  0  0  0  0  0  0  0  0  0  0
   26.4646  -19.0191  -18.1825 C   0  0  0  0  0  0  0  0  0  0  0  0
   25.7143  -17.8351  -17.6138 C   0  0  1  0  0  0  0  0  0  0  0  0
   24.5608  -17.5268  -18.5283 C   0  0  0  0  0  0  0  0  0  0  0  0
   25.2298  -18.2456  -16.2259 C   0  0  2  0  0  0  0  0  0  0  0  0
   24.5885  -17.1410  -15.5792 N   0  0  0  0  0  0  0  0  0  0  0  0
   26.3309  -18.8267  -15.4320 C   0  0  0  0  0  0  0  0  0  0  0  0
   27.3783  -18.1263  -15.2947 O   0  0  0  0  0  0  0  0  0  0  0  0
   24.3580  -20.3375   -8.8351 N   0  0  0  0  0  0  0  0  0  0  0  0
   23.3474  -20.7385   -9.7635 C   0  0  0  0  0  0  0  0  0  0  0  0
   22.1355  -20.3348   -9.6187 N   0  0  0  0  0  0  0  0  0  0  0  0
   23.6335  -21.5754  -10.8641 N   0  0  0  0  0  0  0  0  0  0  0  0
   24.9495  -21.9532  -11.2908 C   0  0  0  0  0  0  0  0  0  0  0  0
   25.5515  -21.1041  -12.3591 C   0  0  0  0  0  0  0  0  0  0  0  0
   26.8345  -21.5885  -12.9588 C   0  0  0  0  0  0  0  0  0  0  0  0
   27.3538  -20.6630  -13.9971 C   0  0  2  0  0  0  0  0  0  0  0  0
   26.2865  -20.1038  -14.8257 N   0  0  0  0  0  0  0  0  0  0  0  0
   28.3550  -21.3533  -14.8498 C   0  0  0  0  0  0  0  0  0  0  0  0
   29.6733  -21.3684  -14.4318 O   0  0  0  0  0  0  0  0  0  0  0  0
   28.0643  -21.9139  -15.9132 O   0  0  0  0  0  0  0  0  0  0  0  0
  1  5  1  0
  1  2  1  0
  2  3  1  0
  4  3  1  0
  5  4  1  0
  6  7  2  0
  5  6  1  6
  9 11  1  0
  9  8  1  6
 10  9  1  0
 11 12  1  1
 12  6  1  0
 13 11  1  0
 14 13  2  0
 16 17  2  0
 16 15  1  0
 18 16  1  0
 19 18  1  0
 20 19  1  0
 20 21  1  0
 22 21  1  1
 22 23  1  0
 23 13  1  0
 24 25  1  0
 24 22  1  0
 26 24  2  0
M  END
$$$$
