PVR.pdb
     RDKit          3D

 26 26  0  0  1  0  0  0  0  0999 V2000
   45.0607  -13.5023  -13.5834 N   0  0  0  0  0  0  0  0  0  0  0  0
   45.6402  -13.7215  -14.8739 C   0  0  0  0  0  0  0  0  0  0  0  0
   44.6031  -14.4042  -15.7389 C   0  0  0  0  0  0  0  0  0  0  0  0
   43.5244  -14.7727  -14.7760 C   0  0  0  0  0  0  0  0  0  0  0  0
   43.6436  -13.6506  -13.7337 C   0  0  1  0  0  0  0  0  0  0  0  0
   42.9604  -14.0722  -12.4709 C   0  0  0  0  0  0  0  0  0  0  0  0
   41.7152  -14.0707  -12.3302 O   0  0  0  0  0  0  0  0  0  0  0  0
   43.5407  -16.6342   -8.3730 C   0  0  0  0  0  0  0  0  0  0  0  0
   44.0866  -16.1980   -9.7146 C   0  0  1  0  0  0  0  0  0  0  0  0
   43.8934  -17.3266  -10.6897 C   0  0  0  0  0  0  0  0  0  0  0  0
   43.2956  -14.9611  -10.1313 C   0  0  2  0  0  0  0  0  0  0  0  0
   43.7545  -14.4852  -11.4012 N   0  0  0  0  0  0  0  0  0  0  0  0
   43.3313  -13.9300   -9.0748 C   0  0  0  0  0  0  0  0  0  0  0  0
   42.7371  -14.1946   -7.9869 O   0  0  0  0  0  0  0  0  0  0  0  0
   47.2071  -15.2978   -7.3607 N   0  0  0  0  0  0  0  0  0  0  0  0
   47.8320  -14.8355   -6.1608 C   0  0  0  0  0  0  0  0  0  0  0  0
   48.3683  -15.6712   -5.3442 N   0  0  0  0  0  0  0  0  0  0  0  0
   47.8918  -13.4641   -5.8300 N   0  0  0  0  0  0  0  0  0  0  0  0
   47.3701  -12.3993   -6.6367 C   0  0  0  0  0  0  0  0  0  0  0  0
   45.8933  -12.4100   -6.8452 C   0  0  0  0  0  0  0  0  0  0  0  0
   45.3259  -11.3107   -7.6878 C   0  0  0  0  0  0  0  0  0  0  0  0
   43.9646  -11.6307   -8.1865 C   0  0  2  0  0  0  0  0  0  0  0  0
   43.9793  -12.6796   -9.2053 N   0  0  0  0  0  0  0  0  0  0  0  0
   43.3097  -10.4089   -8.7196 C   0  0  0  0  0  0  0  0  0  0  0  0
   43.0820   -9.3556   -7.8526 O   0  0  0  0  0  0  0  0  0  0  0  0
   42.9601  -10.2906   -9.8999 O   0  0  0  0  0  0  0  0  0  0  0  0
  1  5  1  0
  1  2  1  0
  2  3  1  0
  4  3  1  0
  5  4  1  0
  6  7  2  0
  5  6  1  1
  9 11  1  0
  9  8  1  1
 10  9  1  0
 11 12  1  6
 12  6  1  0
 13 11  1  0
 14 13  2  0
 16 17  2  0
 16 15  1  0
 18 16  1  0
 19 18  1  0
 20 19  1  0
 20 21  1  0
 22 21  1  6
 22 23  1  0
 23 13  1  0
 24 25  1  0
 24 22  1  0
 26 24  2  0
M  END
$$$$
