PVR.pdb
     RDKit          3D

 26 26  0  0  1  0  0  0  0  0999 V2000
   27.4935  -19.1454  -15.3775 N   0  0  0  0  0  0  0  0  0  0  0  0
   28.7146  -18.7395  -16.0049 C   0  0  0  0  0  0  0  0  0  0  0  0
   29.5385  -19.9819  -16.2649 C   0  0  0  0  0  0  0  0  0  0  0  0
   28.8148  -21.0510  -15.5164 C   0  0  0  0  0  0  0  0  0  0  0  0
   27.3629  -20.5554  -15.5956 C   0  0  1  0  0  0  0  0  0  0  0  0
   26.5476  -21.2391  -14.5435 C   0  0  0  0  0  0  0  0  0  0  0  0
   26.2550  -22.4568  -14.5848 O   0  0  0  0  0  0  0  0  0  0  0  0
   24.8375  -20.8021   -9.9812 C   0  0  0  0  0  0  0  0  0  0  0  0
   25.7373  -20.2721  -11.0754 C   0  0  1  0  0  0  0  0  0  0  0  0
   27.1563  -20.6346  -10.7333 C   0  0  0  0  0  0  0  0  0  0  0  0
   25.2907  -20.9375  -12.3743 C   0  0  2  0  0  0  0  0  0  0  0  0
   26.0932  -20.4774  -13.4671 N   0  0  0  0  0  0  0  0  0  0  0  0
   23.8428  -20.7487  -12.5944 C   0  0  0  0  0  0  0  0  0  0  0  0
   23.4185  -19.5565  -12.6668 O   0  0  0  0  0  0  0  0  0  0  0  0
   16.4363  -23.2413  -11.5750 N   0  0  0  0  0  0  0  0  0  0  0  0
   16.1276  -23.3963  -12.9623 C   0  0  0  0  0  0  0  0  0  0  0  0
   14.9277  -23.2120  -13.3852 N   0  0  0  0  0  0  0  0  0  0  0  0
   17.1120  -23.7457  -13.9124 N   0  0  0  0  0  0  0  0  0  0  0  0
   18.5002  -23.9556  -13.6201 C   0  0  0  0  0  0  0  0  0  0  0  0
   19.3085  -22.7215  -13.4001 C   0  0  0  0  0  0  0  0  0  0  0  0
   20.7733  -22.9121  -13.1587 C   0  0  0  0  0  0  0  0  0  0  0  0
   21.4773  -21.6248  -12.9318 C   0  0  2  0  0  0  0  0  0  0  0  0
   22.9134  -21.8069  -12.7249 N   0  0  0  0  0  0  0  0  0  0  0  0
   20.8809  -20.9071  -11.7763 C   0  0  0  0  0  0  0  0  0  0  0  0
   20.0278  -19.8487  -12.0312 O   0  0  0  0  0  0  0  0  0  0  0  0
   21.1114  -21.2121  -10.6001 O   0  0  0  0  0  0  0  0  0  0  0  0
  1  5  1  0
  1  2  1  0
  2  3  1  0
  4  3  1  0
  5  4  1  0
  6  7  2  0
  5  6  1  1
  9 11  1  0
  9  8  1  1
 10  9  1  0
 11 12  1  6
 12  6  1  0
 13 11  1  0
 14 13  2  0
 16 17  2  0
 16 15  1  0
 18 16  1  0
 19 18  1  0
 20 19  1  0
 20 21  1  0
 22 21  1  1
 22 23  1  0
 23 13  1  0
 24 25  1  0
 24 22  1  0
 26 24  2  0
M  END
$$$$
