PVR.pdb
     RDKit          3D

 26 26  0  0  1  0  0  0  0  0999 V2000
   19.5623  -11.9118  -17.9147 N   0  0  0  0  0  0  0  0  0  0  0  0
   19.0583  -12.9987  -18.6981 C   0  0  0  0  0  0  0  0  0  0  0  0
   18.7461  -14.1430  -17.7584 C   0  0  0  0  0  0  0  0  0  0  0  0
   19.3457  -13.7115  -16.4619 C   0  0  0  0  0  0  0  0  0  0  0  0
   19.2118  -12.1839  -16.5523 C   0  0  1  0  0  0  0  0  0  0  0  0
   20.1411  -11.5455  -15.5684 C   0  0  0  0  0  0  0  0  0  0  0  0
   20.0552  -11.7189  -14.3304 O   0  0  0  0  0  0  0  0  0  0  0  0
   24.3777   -9.1138  -15.1516 C   0  0  0  0  0  0  0  0  0  0  0  0
   23.4726  -10.0236  -15.9523 C   0  0  1  0  0  0  0  0  0  0  0  0
   24.0526  -11.4107  -15.9191 C   0  0  0  0  0  0  0  0  0  0  0  0
   22.1004   -9.9780  -15.2858 C   0  0  2  0  0  0  0  0  0  0  0  0
   21.1497  -10.7171  -16.0601 N   0  0  0  0  0  0  0  0  0  0  0  0
   21.6845   -8.5851  -15.0267 C   0  0  0  0  0  0  0  0  0  0  0  0
   21.3690   -7.8785  -16.0306 O   0  0  0  0  0  0  0  0  0  0  0  0
   15.8789   -5.3197   -9.1046 N   0  0  0  0  0  0  0  0  0  0  0  0
   16.1716   -4.3432  -10.1069 C   0  0  0  0  0  0  0  0  0  0  0  0
   15.4977   -3.2500  -10.1650 N   0  0  0  0  0  0  0  0  0  0  0  0
   17.2003   -4.5313  -11.0556 N   0  0  0  0  0  0  0  0  0  0  0  0
   17.9981   -5.7165  -11.1807 C   0  0  0  0  0  0  0  0  0  0  0  0
   19.0860   -5.6591  -12.1994 C   0  0  0  0  0  0  0  0  0  0  0  0
   19.8484   -6.9245  -12.4399 C   0  0  0  0  0  0  0  0  0  0  0  0
   20.9343   -6.7452  -13.4363 C   0  0  2  0  0  0  0  0  0  0  0  0
   21.6208   -8.0001  -13.7405 N   0  0  0  0  0  0  0  0  0  0  0  0
   21.9094   -5.7310  -12.9603 C   0  0  0  0  0  0  0  0  0  0  0  0
   21.6480   -4.3978  -13.2194 O   0  0  0  0  0  0  0  0  0  0  0  0
   22.9412   -6.0235  -12.3444 O   0  0  0  0  0  0  0  0  0  0  0  0
  1  5  1  0
  1  2  1  0
  2  3  1  0
  4  3  1  0
  5  4  1  0
  6  7  2  0
  5  6  1  1
  9 11  1  0
  9  8  1  1
 10  9  1  0
 11 12  1  6
 12  6  1  0
 13 11  1  0
 14 13  2  0
 16 17  2  0
 16 15  1  0
 18 16  1  0
 19 18  1  0
 20 19  1  0
 20 21  1  0
 22 21  1  1
 22 23  1  0
 23 13  1  0
 24 25  1  0
 24 22  1  0
 26 24  2  0
M  END
$$$$
