SDA.pdb
     RDKit          3D

 20 19  0  0  1  0  0  0  0  0999 V2000
    7.7855  -11.9143   20.4156 O   0  0  0  0  0  0  0  0  0  0  0  0
    8.7460  -12.8043   19.9856 C   0  0  0  0  0  0  0  0  0  0  0  0
    8.2102  -14.2078   19.7970 C   0  0  2  0  0  0  0  0  0  0  0  0
    6.9661  -14.1418   19.0988 N   0  0  0  0  0  0  0  0  0  0  0  0
    7.9960  -14.7759   21.1509 C   0  0  0  0  0  0  0  0  0  0  0  0
    6.8141  -14.8301   21.5860 O   0  0  0  0  0  0  0  0  0  0  0  0
    9.1110  -15.2242   21.8814 N   0  0  0  0  0  0  0  0  0  0  0  0
    8.8924  -15.8597   23.1940 C   0  0  1  0  0  0  0  0  0  0  0  0
    9.8139  -17.0138   23.2361 C   0  0  0  0  0  0  0  0  0  0  0  0
    9.9081  -17.7887   24.4557 C   0  0  0  0  0  0  0  0  0  0  0  0
   10.3515  -17.4744   25.5670 O   0  0  0  0  0  0  0  0  0  0  0  0
    9.0846  -14.8612   24.2678 C   0  0  0  0  0  0  0  0  0  0  0  0
   10.1850  -14.2732   24.3492 O   0  0  0  0  0  0  0  0  0  0  0  0
    9.4179  -19.1134   24.3683 O   0  0  0  0  0  0  0  0  0  0  0  0
    7.0587  -12.8445   26.5379 C   0  0  0  0  0  0  0  0  0  0  0  0
    8.3706  -13.5680   26.2442 C   0  0  2  0  0  0  0  0  0  0  0  0
    8.0921  -14.5303   25.2131 N   0  0  0  0  0  0  0  0  0  0  0  0
    8.9392  -14.1609   27.4611 C   0  0  0  0  0  0  0  0  0  0  0  0
    9.0625  -15.3949   27.6729 O   0  0  0  0  0  0  0  0  0  0  0  0
    9.3769  -13.3019   28.4599 O   0  0  0  0  0  0  0  0  0  0  0  0
  2  1  1  0
  3  5  1  0
  3  2  1  0
  3  4  1  1
  5  6  2  0
  7  8  1  0
  7  5  1  0
  9 10  1  0
  8  9  1  1
 10 14  1  0
 11 10  2  0
 12 13  2  0
 12  8  1  0
 16 15  1  1
 16 17  1  0
 16 18  1  0
 17 12  1  0
 18 20  1  0
 19 18  2  0
M  END
$$$$
