SDA.pdb
     RDKit          3D

 20 19  0  0  1  0  0  0  0  0999 V2000
    8.1582  -14.2068   16.6183 O   0  0  0  0  0  0  0  0  0  0  0  0
    7.4542  -14.0953   17.7980 C   0  0  0  0  0  0  0  0  0  0  0  0
    8.2482  -13.4263   18.9000 C   0  0  2  0  0  0  0  0  0  0  0  0
    8.8087  -12.2119   18.3991 N   0  0  0  0  0  0  0  0  0  0  0  0
    9.3357  -14.3613   19.2801 C   0  0  0  0  0  0  0  0  0  0  0  0
    9.0093  -15.5054   19.6967 O   0  0  0  0  0  0  0  0  0  0  0  0
   10.6700  -13.9331   19.1597 N   0  0  0  0  0  0  0  0  0  0  0  0
   11.7531  -14.9019   19.4101 C   0  0  1  0  0  0  0  0  0  0  0  0
   12.9397  -14.3611   18.7157 C   0  0  0  0  0  0  0  0  0  0  0  0
   14.1005  -15.2107   18.5505 C   0  0  0  0  0  0  0  0  0  0  0  0
   14.7971  -15.7816   19.3986 O   0  0  0  0  0  0  0  0  0  0  0  0
   11.9132  -15.1028   20.8665 C   0  0  0  0  0  0  0  0  0  0  0  0
   12.6467  -14.3152   21.5029 O   0  0  0  0  0  0  0  0  0  0  0  0
   14.5058  -15.4250   17.2116 O   0  0  0  0  0  0  0  0  0  0  0  0
   10.2360  -16.6377   23.6645 C   0  0  0  0  0  0  0  0  0  0  0  0
   11.5654  -16.3220   22.9834 C   0  0  2  0  0  0  0  0  0  0  0  0
   11.2825  -16.1386   21.5859 N   0  0  0  0  0  0  0  0  0  0  0  0
   12.5635  -17.3658   23.2472 C   0  0  0  0  0  0  0  0  0  0  0  0
   13.0973  -17.5880   24.3646 O   0  0  0  0  0  0  0  0  0  0  0  0
   12.9543  -18.1745   22.1887 O   0  0  0  0  0  0  0  0  0  0  0  0
  2  1  1  0
  3  5  1  0
  3  2  1  0
  3  4  1  6
  5  6  2  0
  7  8  1  0
  7  5  1  0
  9 10  1  0
  8  9  1  1
 10 14  1  0
 11 10  2  0
 12 13  2  0
 12  8  1  0
 16 15  1  1
 16 17  1  0
 16 18  1  0
 17 12  1  0
 18 20  1  0
 19 18  2  0
M  END
$$$$
