SDA.pdb
     RDKit          3D

 20 19  0  0  1  0  0  0  0  0999 V2000
    7.6052  -12.3021   20.7112 O   0  0  0  0  0  0  0  0  0  0  0  0
    8.4379  -12.5579   19.6430 C   0  0  0  0  0  0  0  0  0  0  0  0
    8.1556  -13.8884   18.9780 C   0  0  2  0  0  0  0  0  0  0  0  0
    6.7771  -13.9415   18.6085 N   0  0  0  0  0  0  0  0  0  0  0  0
    8.4476  -14.9442   19.9788 C   0  0  0  0  0  0  0  0  0  0  0  0
    7.4736  -15.4632   20.5878 O   0  0  0  0  0  0  0  0  0  0  0  0
    9.7860  -15.3151   20.2011 N   0  0  0  0  0  0  0  0  0  0  0  0
   10.0758  -16.3778   21.1814 C   0  0  1  0  0  0  0  0  0  0  0  0
   11.4020  -16.9121   20.8092 C   0  0  0  0  0  0  0  0  0  0  0  0
   11.9608  -17.9989   21.5858 C   0  0  0  0  0  0  0  0  0  0  0  0
   11.4049  -18.8079   22.3388 O   0  0  0  0  0  0  0  0  0  0  0  0
    9.9801  -15.8295   22.5516 C   0  0  0  0  0  0  0  0  0  0  0  0
   10.7604  -14.9114   22.8854 O   0  0  0  0  0  0  0  0  0  0  0  0
   13.3611  -18.1664   21.4690 O   0  0  0  0  0  0  0  0  0  0  0  0
    7.6840  -15.2460   25.1583 C   0  0  0  0  0  0  0  0  0  0  0  0
    9.0872  -15.7630   24.8509 C   0  0  2  0  0  0  0  0  0  0  0  0
    9.0532  -16.2847   23.5117 N   0  0  0  0  0  0  0  0  0  0  0  0
    9.5276  -16.7436   25.8508 C   0  0  0  0  0  0  0  0  0  0  0  0
    9.8304  -17.9396   25.6042 O   0  0  0  0  0  0  0  0  0  0  0  0
    9.6201  -16.3284   27.1724 O   0  0  0  0  0  0  0  0  0  0  0  0
  2  1  1  0
  3  5  1  0
  3  2  1  0
  3  4  1  1
  5  6  2  0
  7  8  1  0
  7  5  1  0
  9 10  1  0
  8  9  1  6
 10 14  1  0
 11 10  2  0
 12 13  2  0
 12  8  1  0
 16 15  1  1
 16 17  1  0
 16 18  1  0
 17 12  1  0
 18 20  1  0
 19 18  2  0
M  END
$$$$
