SDA.pdb
     RDKit          3D

 20 19  0  0  1  0  0  0  0  0999 V2000
    8.8112  -12.2835   19.0473 O   0  0  0  0  0  0  0  0  0  0  0  0
    8.5632  -12.8235   20.2909 C   0  0  0  0  0  0  0  0  0  0  0  0
    7.9657  -14.2131   20.2242 C   0  0  2  0  0  0  0  0  0  0  0  0
    6.6318  -14.1232   19.7220 N   0  0  0  0  0  0  0  0  0  0  0  0
    7.9452  -14.7434   21.6098 C   0  0  0  0  0  0  0  0  0  0  0  0
    6.8694  -14.6491   22.2602 O   0  0  0  0  0  0  0  0  0  0  0  0
    9.1163  -15.3224   22.1308 N   0  0  0  0  0  0  0  0  0  0  0  0
    9.0431  -16.0409   23.4164 C   0  0  1  0  0  0  0  0  0  0  0  0
    9.9734  -17.1816   23.2886 C   0  0  0  0  0  0  0  0  0  0  0  0
   10.2152  -18.0191   24.4448 C   0  0  0  0  0  0  0  0  0  0  0  0
    9.4606  -18.3317   25.3739 O   0  0  0  0  0  0  0  0  0  0  0  0
    9.3397  -15.1079   24.5248 C   0  0  0  0  0  0  0  0  0  0  0  0
   10.4376  -14.5098   24.5270 O   0  0  0  0  0  0  0  0  0  0  0  0
   11.5165  -18.5687   24.5302 O   0  0  0  0  0  0  0  0  0  0  0  0
    7.6469  -13.0589   26.9331 C   0  0  0  0  0  0  0  0  0  0  0  0
    8.8390  -13.9719   26.6572 C   0  0  2  0  0  0  0  0  0  0  0  0
    8.4500  -14.8508   25.5881 N   0  0  0  0  0  0  0  0  0  0  0  0
    9.2644  -14.6788   27.8716 C   0  0  0  0  0  0  0  0  0  0  0  0
    9.2465  -15.9276   28.0235 O   0  0  0  0  0  0  0  0  0  0  0  0
    9.7231  -13.9193   28.9394 O   0  0  0  0  0  0  0  0  0  0  0  0
  2  1  1  0
  3  5  1  0
  3  2  1  0
  3  4  1  1
  5  6  2  0
  7  8  1  0
  7  5  1  0
  9 10  1  0
  8  9  1  6
 10 14  1  0
 11 10  2  0
 12 13  2  0
 12  8  1  0
 16 15  1  1
 16 17  1  0
 16 18  1  0
 17 12  1  0
 18 20  1  0
 19 18  2  0
M  END
$$$$
