CYG.pdb
     RDKit          3D

 23 23  0  0  1  0  0  0  0  0999 V2000
    4.7480  -18.6507   23.0311 N   0  0  0  0  0  0  0  0  0  0  0  0
    5.9864  -18.7868   23.7284 C   0  0  1  0  0  0  0  0  0  0  0  0
    6.7048  -20.0412   23.2926 C   0  0  0  0  0  0  0  0  0  0  0  0
    6.5717  -21.3324   24.5322 S   0  0  0  0  0  0  0  0  0  0  0  0
    6.8825  -17.6261   23.5813 C   0  0  0  0  0  0  0  0  0  0  0  0
    6.9515  -17.0706   22.4555 O   0  0  0  0  0  0  0  0  0  0  0  0
    5.1525  -10.7752   26.6989 O   0  0  0  0  0  0  0  0  0  0  0  0
    5.9530  -11.8725   26.4183 C   0  0  0  0  0  0  0  0  0  0  0  0
    6.8739  -12.2375   27.3707 C   0  0  0  0  0  0  0  0  0  0  0  0
    7.7046  -13.3338   27.1399 C   0  0  0  0  0  0  0  0  0  0  0  0
    7.6287  -14.0674   25.9758 C   0  0  0  0  0  0  0  0  0  0  0  0
    8.5296  -15.1845   25.7631 C   0  0  0  0  0  0  0  0  0  0  0  0
    8.4845  -15.8711   24.4287 C   0  0  2  0  0  0  0  0  0  0  0  0
    7.6741  -17.0920   24.6259 N   0  0  0  0  0  0  0  0  0  0  0  0
    9.8469  -16.3233   24.0815 C   0  0  0  0  0  0  0  0  0  0  0  0
   10.7520  -15.4545   23.8449 O   0  0  0  0  0  0  0  0  0  0  0  0
    6.6952  -13.6784   25.0374 C   0  0  0  0  0  0  0  0  0  0  0  0
    5.8634  -12.5848   25.2627 C   0  0  0  0  0  0  0  0  0  0  0  0
   10.2578  -17.6728   23.9863 N   0  0  0  0  0  0  0  0  0  0  0  0
   11.6188  -17.9949   23.6004 C   0  0  0  0  0  0  0  0  0  0  0  0
   12.4993  -18.1907   24.7592 C   0  0  0  0  0  0  0  0  0  0  0  0
   12.0087  -18.0834   25.9037 O   0  0  0  0  0  0  0  0  0  0  0  0
   13.8395  -18.4869   24.5790 O   0  0  0  0  0  0  0  0  0  0  0  0
  2  5  1  0
  2  1  1  6
  3  2  1  0
  4  3  1  0
  5  6  2  0
  8  7  1  0
  8 18  2  0
  9  8  1  0
 10  9  2  0
 10 11  1  0
 11 17  2  0
 12 11  1  0
 13 12  1  1
 14 13  1  0
 14  5  1  0
 15 19  1  0
 15 13  1  0
 16 15  2  0
 17 18  1  0
 20 21  1  0
 20 19  1  0
 21 23  1  0
 22 21  2  0
M  END
$$$$
