CYG.pdb
     RDKit          3D

 23 23  0  0  1  0  0  0  0  0999 V2000
    8.0922  -12.7624   17.8359 N   0  0  0  0  0  0  0  0  0  0  0  0
    7.7535  -13.8953   18.6360 C   0  0  1  0  0  0  0  0  0  0  0  0
    8.2783  -15.1637   18.0076 C   0  0  0  0  0  0  0  0  0  0  0  0
    7.0783  -15.8767   16.8792 S   0  0  0  0  0  0  0  0  0  0  0  0
    8.2240  -13.8013   20.0295 C   0  0  0  0  0  0  0  0  0  0  0  0
    9.3838  -13.3610   20.2341 O   0  0  0  0  0  0  0  0  0  0  0  0
    7.6085  -12.7555   28.8610 O   0  0  0  0  0  0  0  0  0  0  0  0
    7.3521  -12.9848   27.5175 C   0  0  0  0  0  0  0  0  0  0  0  0
    8.2972  -12.5571   26.6163 C   0  0  0  0  0  0  0  0  0  0  0  0
    8.0897  -12.7623   25.2524 C   0  0  0  0  0  0  0  0  0  0  0  0
    6.9561  -13.3862   24.7782 C   0  0  0  0  0  0  0  0  0  0  0  0
    6.7661  -13.5561   23.3500 C   0  0  0  0  0  0  0  0  0  0  0  0
    7.9573  -13.9649   22.5328 C   0  0  2  0  0  0  0  0  0  0  0  0
    7.4556  -14.1746   21.1578 N   0  0  0  0  0  0  0  0  0  0  0  0
    8.4325  -15.2789   23.0110 C   0  0  0  0  0  0  0  0  0  0  0  0
    7.5941  -16.2305   23.1582 O   0  0  0  0  0  0  0  0  0  0  0  0
    6.0244  -13.8050   25.7054 C   0  0  0  0  0  0  0  0  0  0  0  0
    6.2264  -13.6027   27.0680 C   0  0  0  0  0  0  0  0  0  0  0  0
    9.7737  -15.5938   23.3288 N   0  0  0  0  0  0  0  0  0  0  0  0
   10.1239  -16.9312   23.7688 C   0  0  0  0  0  0  0  0  0  0  0  0
   11.5446  -17.0527   24.1197 C   0  0  0  0  0  0  0  0  0  0  0  0
   11.8943  -17.9911   24.8674 O   0  0  0  0  0  0  0  0  0  0  0  0
   12.4677  -16.1450   23.6296 O   0  0  0  0  0  0  0  0  0  0  0  0
  2  5  1  0
  2  1  1  6
  3  2  1  0
  4  3  1  0
  5  6  2  0
  8  7  1  0
  8 18  2  0
  9  8  1  0
 10  9  2  0
 10 11  1  0
 11 17  2  0
 12 11  1  0
 13 12  1  1
 14 13  1  0
 14  5  1  0
 15 19  1  0
 15 13  1  0
 16 15  2  0
 17 18  1  0
 20 21  1  0
 20 19  1  0
 21 23  1  0
 22 21  2  0
M  END
$$$$
