CYG.pdb
     RDKit          3D

 23 23  0  0  1  0  0  0  0  0999 V2000
    8.0049  -13.1253   17.6421 N   0  0  0  0  0  0  0  0  0  0  0  0
    7.8926  -14.2107   18.5628 C   0  0  1  0  0  0  0  0  0  0  0  0
    8.6634  -15.4096   18.0651 C   0  0  0  0  0  0  0  0  0  0  0  0
    8.4340  -16.8256   19.1440 S   0  0  0  0  0  0  0  0  0  0  0  0
    8.3251  -13.8768   19.9315 C   0  0  0  0  0  0  0  0  0  0  0  0
    9.2717  -13.0610   20.0705 O   0  0  0  0  0  0  0  0  0  0  0  0
    6.9468  -12.1395   28.5750 O   0  0  0  0  0  0  0  0  0  0  0  0
    6.9149  -12.6332   27.2794 C   0  0  0  0  0  0  0  0  0  0  0  0
    6.9570  -11.7159   26.2571 C   0  0  0  0  0  0  0  0  0  0  0  0
    6.9276  -12.1580   24.9346 C   0  0  0  0  0  0  0  0  0  0  0  0
    6.8571  -13.4979   24.6204 C   0  0  0  0  0  0  0  0  0  0  0  0
    6.8013  -13.9147   23.2319 C   0  0  0  0  0  0  0  0  0  0  0  0
    8.0775  -13.8779   22.4421 C   0  0  2  0  0  0  0  0  0  0  0  0
    7.7449  -14.4144   21.1050 N   0  0  0  0  0  0  0  0  0  0  0  0
    9.0372  -14.8237   23.0468 C   0  0  0  0  0  0  0  0  0  0  0  0
    9.4982  -14.5854   24.2133 O   0  0  0  0  0  0  0  0  0  0  0  0
    6.8161  -14.3962   25.6666 C   0  0  0  0  0  0  0  0  0  0  0  0
    6.8451  -13.9604   26.9886 C   0  0  0  0  0  0  0  0  0  0  0  0
    9.5069  -16.0095   22.4364 N   0  0  0  0  0  0  0  0  0  0  0  0
   10.3947  -16.8996   23.1605 C   0  0  0  0  0  0  0  0  0  0  0  0
   10.8718  -18.0134   22.3308 C   0  0  0  0  0  0  0  0  0  0  0  0
   10.4126  -18.1329   21.1746 O   0  0  0  0  0  0  0  0  0  0  0  0
   11.8081  -18.9050   22.8255 O   0  0  0  0  0  0  0  0  0  0  0  0
  2  5  1  0
  2  1  1  6
  3  2  1  0
  4  3  1  0
  5  6  2  0
  8  7  1  0
  8 18  2  0
  9  8  1  0
 10  9  2  0
 10 11  1  0
 11 17  2  0
 12 11  1  0
 13 12  1  1
 14 13  1  0
 14  5  1  0
 15 19  1  0
 15 13  1  0
 16 15  2  0
 17 18  1  0
 20 21  1  0
 20 19  1  0
 21 23  1  0
 22 21  2  0
M  END
$$$$
