CYG.pdb
     RDKit          3D

 23 23  0  0  1  0  0  0  0  0999 V2000
    7.0787  -12.7449   19.2483 N   0  0  0  0  0  0  0  0  0  0  0  0
    7.2093  -13.9180   20.0516 C   0  0  1  0  0  0  0  0  0  0  0  0
    7.7470  -15.0652   19.2305 C   0  0  0  0  0  0  0  0  0  0  0  0
    7.8425  -16.5724   20.2006 S   0  0  0  0  0  0  0  0  0  0  0  0
    8.0485  -13.7291   21.2483 C   0  0  0  0  0  0  0  0  0  0  0  0
    8.9895  -12.8975   21.1859 O   0  0  0  0  0  0  0  0  0  0  0  0
   10.6598  -14.4813   29.8069 O   0  0  0  0  0  0  0  0  0  0  0  0
   10.0288  -14.5728   28.5753 C   0  0  0  0  0  0  0  0  0  0  0  0
    9.4509  -13.4288   28.0797 C   0  0  0  0  0  0  0  0  0  0  0  0
    8.8030  -13.4646   26.8451 C   0  0  0  0  0  0  0  0  0  0  0  0
    8.7247  -14.6223   26.1017 C   0  0  0  0  0  0  0  0  0  0  0  0
    8.0182  -14.6236   24.8346 C   0  0  0  0  0  0  0  0  0  0  0  0
    8.7884  -14.2296   23.6076 C   0  0  2  0  0  0  0  0  0  0  0  0
    7.8663  -14.4231   22.4681 N   0  0  0  0  0  0  0  0  0  0  0  0
    9.8979  -15.1855   23.4165 C   0  0  0  0  0  0  0  0  0  0  0  0
   10.9908  -15.0091   24.0526 O   0  0  0  0  0  0  0  0  0  0  0  0
    9.3137  -15.7554   26.6236 C   0  0  0  0  0  0  0  0  0  0  0  0
    9.9617  -15.7253   27.8555 C   0  0  0  0  0  0  0  0  0  0  0  0
    9.8615  -16.3171   22.5696 N   0  0  0  0  0  0  0  0  0  0  0  0
   11.0318  -17.1639   22.4339 C   0  0  0  0  0  0  0  0  0  0  0  0
   11.1555  -18.1305   23.5324 C   0  0  0  0  0  0  0  0  0  0  0  0
   10.2863  -18.1246   24.4305 O   0  0  0  0  0  0  0  0  0  0  0  0
   12.2130  -19.0234   23.5646 O   0  0  0  0  0  0  0  0  0  0  0  0
  2  5  1  0
  2  1  1  6
  3  2  1  0
  4  3  1  0
  5  6  2  0
  8  7  1  0
  8 18  2  0
  9  8  1  0
 10  9  2  0
 10 11  1  0
 11 17  2  0
 12 11  1  0
 13 12  1  1
 14 13  1  0
 14  5  1  0
 15 19  1  0
 15 13  1  0
 16 15  2  0
 17 18  1  0
 20 21  1  0
 20 19  1  0
 21 23  1  0
 22 21  2  0
M  END
$$$$
