CYG.pdb
     RDKit          3D

 23 23  0  0  1  0  0  0  0  0999 V2000
   10.0822  -16.9245   18.7363 N   0  0  0  0  0  0  0  0  0  0  0  0
    9.0115  -17.0137   19.6766 C   0  0  1  0  0  0  0  0  0  0  0  0
    8.8234  -18.4410   20.1316 C   0  0  0  0  0  0  0  0  0  0  0  0
   10.1494  -18.9561   21.2261 S   0  0  0  0  0  0  0  0  0  0  0  0
    9.1758  -16.1372   20.8499 C   0  0  0  0  0  0  0  0  0  0  0  0
   10.2385  -15.4724   20.9477 O   0  0  0  0  0  0  0  0  0  0  0  0
    6.4219  -11.0675   27.7105 O   0  0  0  0  0  0  0  0  0  0  0  0
    6.5361  -11.9993   26.6896 C   0  0  0  0  0  0  0  0  0  0  0  0
    7.1321  -11.5828   25.5236 C   0  0  0  0  0  0  0  0  0  0  0  0
    7.2726  -12.4794   24.4645 C   0  0  0  0  0  0  0  0  0  0  0  0
    6.8279  -13.7807   24.5536 C   0  0  0  0  0  0  0  0  0  0  0  0
    6.9689  -14.6740   23.4192 C   0  0  0  0  0  0  0  0  0  0  0  0
    8.3577  -14.9567   22.9239 C   0  0  2  0  0  0  0  0  0  0  0  0
    8.2145  -15.9923   21.8783 N   0  0  0  0  0  0  0  0  0  0  0  0
    9.1361  -15.5706   24.0186 C   0  0  0  0  0  0  0  0  0  0  0  0
    9.4803  -14.8545   25.0180 O   0  0  0  0  0  0  0  0  0  0  0  0
    6.2337  -14.1713   25.7358 C   0  0  0  0  0  0  0  0  0  0  0  0
    6.0909  -13.2804   26.7961 C   0  0  0  0  0  0  0  0  0  0  0  0
    9.5470  -16.9226   24.0673 N   0  0  0  0  0  0  0  0  0  0  0  0
   10.2196  -17.4380   25.2450 C   0  0  0  0  0  0  0  0  0  0  0  0
   11.6814  -17.4286   25.1057 C   0  0  0  0  0  0  0  0  0  0  0  0
   12.1731  -17.0421   24.0236 O   0  0  0  0  0  0  0  0  0  0  0  0
   12.4880  -17.8397   26.1529 O   0  0  0  0  0  0  0  0  0  0  0  0
  2  5  1  0
  2  1  1  6
  3  2  1  0
  4  3  1  0
  5  6  2  0
  8  7  1  0
  8 18  2  0
  9  8  1  0
 10  9  2  0
 10 11  1  0
 11 17  2  0
 12 11  1  0
 13 12  1  1
 14 13  1  0
 14  5  1  0
 15 19  1  0
 15 13  1  0
 16 15  2  0
 17 18  1  0
 20 21  1  0
 20 19  1  0
 21 23  1  0
 22 21  2  0
M  END
$$$$
