CYG.pdb
     RDKit          3D

 23 23  0  0  1  0  0  0  0  0999 V2000
    7.9614  -12.7519   19.7063 N   0  0  0  0  0  0  0  0  0  0  0  0
    7.7078  -13.9631   20.4183 C   0  0  1  0  0  0  0  0  0  0  0  0
    7.8001  -15.1516   19.4920 C   0  0  0  0  0  0  0  0  0  0  0  0
    7.4506  -16.6832   20.3602 S   0  0  0  0  0  0  0  0  0  0  0  0
    8.5944  -14.1683   21.5775 C   0  0  0  0  0  0  0  0  0  0  0  0
    9.7075  -13.5836   21.5820 O   0  0  0  0  0  0  0  0  0  0  0  0
    5.8485  -10.6066   27.1701 O   0  0  0  0  0  0  0  0  0  0  0  0
    6.3919  -11.7574   26.6190 C   0  0  0  0  0  0  0  0  0  0  0  0
    7.6217  -12.1561   27.0849 C   0  0  0  0  0  0  0  0  0  0  0  0
    8.2143  -13.3066   26.5650 C   0  0  0  0  0  0  0  0  0  0  0  0
    7.5982  -14.0614   25.5904 C   0  0  0  0  0  0  0  0  0  0  0  0
    8.2608  -15.2366   25.0569 C   0  0  0  0  0  0  0  0  0  0  0  0
    9.1634  -15.0493   23.8720 C   0  0  2  0  0  0  0  0  0  0  0  0
    8.2766  -14.9823   22.6908 N   0  0  0  0  0  0  0  0  0  0  0  0
    9.9894  -16.2626   23.7083 C   0  0  0  0  0  0  0  0  0  0  0  0
   10.8219  -16.5795   24.6229 O   0  0  0  0  0  0  0  0  0  0  0  0
    6.3644  -13.6377   25.1415 C   0  0  0  0  0  0  0  0  0  0  0  0
    5.7683  -12.4899   25.6570 C   0  0  0  0  0  0  0  0  0  0  0  0
    9.9413  -17.1372   22.5984 N   0  0  0  0  0  0  0  0  0  0  0  0
   10.7972  -18.3079   22.5552 C   0  0  0  0  0  0  0  0  0  0  0  0
   12.0323  -18.0725   21.7966 C   0  0  0  0  0  0  0  0  0  0  0  0
   12.9542  -17.4315   22.3453 O   0  0  0  0  0  0  0  0  0  0  0  0
   12.1637  -18.5527   20.5049 O   0  0  0  0  0  0  0  0  0  0  0  0
  2  5  1  0
  2  1  1  6
  3  2  1  0
  4  3  1  0
  5  6  2  0
  8  7  1  0
  8 18  2  0
  9  8  1  0
 10  9  2  0
 10 11  1  0
 11 17  2  0
 12 11  1  0
 13 12  1  1
 14 13  1  0
 14  5  1  0
 15 19  1  0
 15 13  1  0
 16 15  2  0
 17 18  1  0
 20 21  1  0
 20 19  1  0
 21 23  1  0
 22 21  2  0
M  END
$$$$
