CYG.pdb
     RDKit          3D

 23 23  0  0  1  0  0  0  0  0999 V2000
    7.8089  -14.1245   19.3665 N   0  0  0  0  0  0  0  0  0  0  0  0
    7.7707  -15.2047   20.2993 C   0  0  1  0  0  0  0  0  0  0  0  0
    8.2880  -16.4725   19.6634 C   0  0  0  0  0  0  0  0  0  0  0  0
    7.0585  -17.7789   19.7204 S   0  0  0  0  0  0  0  0  0  0  0  0
    8.5087  -14.9394   21.5471 C   0  0  0  0  0  0  0  0  0  0  0  0
    9.5295  -14.2079   21.4868 O   0  0  0  0  0  0  0  0  0  0  0  0
    6.0176  -10.2934   27.5261 O   0  0  0  0  0  0  0  0  0  0  0  0
    6.5053  -11.4412   26.9195 C   0  0  0  0  0  0  0  0  0  0  0  0
    5.6759  -12.5365   26.8903 C   0  0  0  0  0  0  0  0  0  0  0  0
    6.1163  -13.7171   26.2924 C   0  0  0  0  0  0  0  0  0  0  0  0
    7.3683  -13.8184   25.7256 C   0  0  0  0  0  0  0  0  0  0  0  0
    7.7982  -15.0731   25.1375 C   0  0  0  0  0  0  0  0  0  0  0  0
    8.8298  -15.0142   24.0483 C   0  0  2  0  0  0  0  0  0  0  0  0
    8.1448  -15.4544   22.8141 N   0  0  0  0  0  0  0  0  0  0  0  0
    9.8747  -16.0193   24.3296 C   0  0  0  0  0  0  0  0  0  0  0  0
   10.5680  -15.9175   25.3967 O   0  0  0  0  0  0  0  0  0  0  0  0
    8.1795  -12.7034   25.7693 C   0  0  0  0  0  0  0  0  0  0  0  0
    7.7450  -11.5224   26.3650 C   0  0  0  0  0  0  0  0  0  0  0  0
   10.1878  -17.1223   23.5022 N   0  0  0  0  0  0  0  0  0  0  0  0
   11.2460  -18.0399   23.8805 C   0  0  0  0  0  0  0  0  0  0  0  0
   11.4526  -19.0994   22.8849 C   0  0  0  0  0  0  0  0  0  0  0  0
   10.9215  -20.2133   23.0830 O   0  0  0  0  0  0  0  0  0  0  0  0
   12.2189  -18.8615   21.7568 O   0  0  0  0  0  0  0  0  0  0  0  0
  2  5  1  0
  2  1  1  6
  3  2  1  0
  4  3  1  0
  5  6  2  0
  8  7  1  0
  8 18  2  0
  9  8  1  0
 10  9  2  0
 10 11  1  0
 11 17  2  0
 12 11  1  0
 13 12  1  1
 14 13  1  0
 14  5  1  0
 15 19  1  0
 15 13  1  0
 16 15  2  0
 17 18  1  0
 20 21  1  0
 20 19  1  0
 21 23  1  0
 22 21  2  0
M  END
$$$$
