CYG.pdb
     RDKit          3D

 23 23  0  0  1  0  0  0  0  0999 V2000
    6.6889  -15.9907   20.9858 N   0  0  0  0  0  0  0  0  0  0  0  0
    8.0273  -15.5942   20.6861 C   0  0  1  0  0  0  0  0  0  0  0  0
    8.0334  -14.4600   19.6897 C   0  0  0  0  0  0  0  0  0  0  0  0
    7.7781  -15.0603   18.0175 S   0  0  0  0  0  0  0  0  0  0  0  0
    8.8152  -15.2156   21.8726 C   0  0  0  0  0  0  0  0  0  0  0  0
    9.5032  -14.1647   21.8155 O   0  0  0  0  0  0  0  0  0  0  0  0
    5.4834  -11.0767   26.7849 O   0  0  0  0  0  0  0  0  0  0  0  0
    6.1835  -12.2257   26.4485 C   0  0  0  0  0  0  0  0  0  0  0  0
    7.5523  -12.1282   26.3764 C   0  0  0  0  0  0  0  0  0  0  0  0
    8.3055  -13.2534   26.0422 C   0  0  0  0  0  0  0  0  0  0  0  0
    7.7130  -14.4697   25.7801 C   0  0  0  0  0  0  0  0  0  0  0  0
    8.5307  -15.6093   25.4095 C   0  0  0  0  0  0  0  0  0  0  0  0
    9.5120  -15.4270   24.2881 C   0  0  2  0  0  0  0  0  0  0  0  0
    8.8502  -15.9578   23.0771 N   0  0  0  0  0  0  0  0  0  0  0  0
   10.6841  -16.2899   24.5381 C   0  0  0  0  0  0  0  0  0  0  0  0
   11.4153  -16.0692   25.5612 O   0  0  0  0  0  0  0  0  0  0  0  0
    6.3374  -14.5385   25.8598 C   0  0  0  0  0  0  0  0  0  0  0  0
    5.5807  -13.4183   26.1930 C   0  0  0  0  0  0  0  0  0  0  0  0
   11.0844  -17.3758   23.7259 N   0  0  0  0  0  0  0  0  0  0  0  0
   12.2872  -18.1212   24.0463 C   0  0  0  0  0  0  0  0  0  0  0  0
   12.4560  -19.3066   23.1963 C   0  0  0  0  0  0  0  0  0  0  0  0
   13.4320  -20.0575   23.4100 O   0  0  0  0  0  0  0  0  0  0  0  0
   11.5509  -19.5784   22.1846 O   0  0  0  0  0  0  0  0  0  0  0  0
  2  5  1  0
  2  1  1  1
  3  2  1  0
  4  3  1  0
  5  6  2  0
  8  7  1  0
  8 18  2  0
  9  8  1  0
 10  9  2  0
 10 11  1  0
 11 17  2  0
 12 11  1  0
 13 12  1  1
 14 13  1  0
 14  5  1  0
 15 19  1  0
 15 13  1  0
 16 15  2  0
 17 18  1  0
 20 21  1  0
 20 19  1  0
 21 23  1  0
 22 21  2  0
M  END
$$$$
