EDG.pdb
     RDKit          3D

 22 21  0  0  1  0  0  0  0  0999 V2000
   18.2235  -12.8167  -15.9758 N   0  0  0  0  0  0  0  0  0  0  0  0
   17.5778  -11.5331  -15.8869 C   0  0  1  0  0  0  0  0  0  0  0  0
   16.2525  -11.7456  -15.2160 C   0  0  0  0  0  0  0  0  0  0  0  0
   15.4535  -12.7895  -15.9646 C   0  0  0  0  0  0  0  0  0  0  0  0
   14.5968  -13.5808  -15.0456 C   0  0  0  0  0  0  0  0  0  0  0  0
   13.6231  -13.1133  -14.4316 O   0  0  0  0  0  0  0  0  0  0  0  0
   18.4143  -10.5341  -15.1712 C   0  0  0  0  0  0  0  0  0  0  0  0
   19.2475  -10.9300  -14.2945 O   0  0  0  0  0  0  0  0  0  0  0  0
   14.9060  -14.9162  -14.8655 O   0  0  0  0  0  0  0  0  0  0  0  0
   18.3459   -9.1525  -15.4015 N   0  0  0  0  0  0  0  0  0  0  0  0
   19.2819   -8.1836  -14.7147 C   0  0  1  0  0  0  0  0  0  0  0  0
   20.6314   -8.6973  -15.0812 C   0  0  0  0  0  0  0  0  0  0  0  0
   21.7838   -7.9581  -14.6286 C   0  0  0  0  0  0  0  0  0  0  0  0
   22.1110   -7.7634  -13.4693 O   0  0  0  0  0  0  0  0  0  0  0  0
   18.9205   -6.8427  -15.1451 C   0  0  0  0  0  0  0  0  0  0  0  0
   19.6932   -5.8806  -14.7707 O   0  0  0  0  0  0  0  0  0  0  0  0
   22.6241   -7.4001  -15.6298 O   0  0  0  0  0  0  0  0  0  0  0  0
   17.8199   -6.4732  -15.9343 N   0  0  0  0  0  0  0  0  0  0  0  0
   17.5680   -5.0834  -16.3205 C   0  0  0  0  0  0  0  0  0  0  0  0
   16.9884   -4.3769  -15.1518 C   0  0  0  0  0  0  0  0  0  0  0  0
   16.8232   -4.9612  -14.0444 O   0  0  0  0  0  0  0  0  0  0  0  0
   16.6023   -3.0531  -15.2141 O   0  0  0  0  0  0  0  0  0  0  0  0
  2  1  1  1
  2  7  1  0
  3  2  1  0
  4  3  1  0
  5  4  1  0
  5  6  2  0
  7  8  2  0
  9  5  1  0
 10  7  1  0
 10 11  1  0
 11 15  1  0
 12 13  1  0
 11 12  1  6
 13 14  2  0
 13 17  1  0
 15 18  1  0
 15 16  2  0
 18 19  1  0
 19 20  1  0
 20 22  1  0
 21 20  2  0
M  END
$$$$
