EDG.pdb
     RDKit          3D

 22 21  0  0  1  0  0  0  0  0999 V2000
   18.4228   -2.2546  -18.6485 N   0  0  0  0  0  0  0  0  0  0  0  0
   17.9580   -2.9888  -17.5008 C   0  0  1  0  0  0  0  0  0  0  0  0
   16.6028   -3.5364  -17.8400 C   0  0  0  0  0  0  0  0  0  0  0  0
   16.0876   -4.3881  -16.7008 C   0  0  0  0  0  0  0  0  0  0  0  0
   14.7593   -4.9720  -17.0161 C   0  0  0  0  0  0  0  0  0  0  0  0
   14.5924   -6.1339  -17.4236 O   0  0  0  0  0  0  0  0  0  0  0  0
   18.9093   -4.0576  -17.0973 C   0  0  0  0  0  0  0  0  0  0  0  0
   19.4242   -4.8051  -17.9893 O   0  0  0  0  0  0  0  0  0  0  0  0
   13.6458   -4.1708  -16.8450 O   0  0  0  0  0  0  0  0  0  0  0  0
   19.2865   -4.3042  -15.7694 N   0  0  0  0  0  0  0  0  0  0  0  0
   20.2593   -5.4045  -15.4093 C   0  0  1  0  0  0  0  0  0  0  0  0
   21.2042   -4.7305  -14.4755 C   0  0  0  0  0  0  0  0  0  0  0  0
   22.2200   -5.5343  -13.8421 C   0  0  0  0  0  0  0  0  0  0  0  0
   22.8256   -5.2630  -12.8180 O   0  0  0  0  0  0  0  0  0  0  0  0
   19.4859   -6.5283  -14.9065 C   0  0  0  0  0  0  0  0  0  0  0  0
   18.6172   -6.2755  -13.9876 O   0  0  0  0  0  0  0  0  0  0  0  0
   22.5505   -6.7657  -14.4701 O   0  0  0  0  0  0  0  0  0  0  0  0
   19.5731   -7.8684  -15.3154 N   0  0  0  0  0  0  0  0  0  0  0  0
   18.8007   -8.9328  -14.6716 C   0  0  0  0  0  0  0  0  0  0  0  0
   19.1518  -10.2180  -15.3243 C   0  0  0  0  0  0  0  0  0  0  0  0
   18.7028  -11.3182  -14.8966 O   0  0  0  0  0  0  0  0  0  0  0  0
   19.9820  -10.2770  -16.4255 O   0  0  0  0  0  0  0  0  0  0  0  0
  2  1  1  6
  2  7  1  0
  3  2  1  0
  4  3  1  0
  5  4  1  0
  5  6  2  0
  7  8  2  0
  9  5  1  0
 10  7  1  0
 10 11  1  0
 11 15  1  0
 12 13  1  0
 11 12  1  1
 13 14  2  0
 13 17  1  0
 15 18  1  0
 15 16  2  0
 18 19  1  0
 19 20  1  0
 20 22  1  0
 21 20  2  0
M  END
$$$$
