EDG.pdb
     RDKit          3D

 22 21  0  0  1  0  0  0  0  0999 V2000
   20.7571  -11.4184  -16.6096 N   0  0  0  0  0  0  0  0  0  0  0  0
   19.4463  -10.8364  -16.4862 C   0  0  1  0  0  0  0  0  0  0  0  0
   18.6515  -11.7170  -15.5672 C   0  0  0  0  0  0  0  0  0  0  0  0
   18.8788  -13.1711  -15.9171 C   0  0  0  0  0  0  0  0  0  0  0  0
   18.0562  -14.0696  -15.0682 C   0  0  0  0  0  0  0  0  0  0  0  0
   18.1138  -15.3099  -15.1134 O   0  0  0  0  0  0  0  0  0  0  0  0
   19.5010   -9.4304  -16.0064 C   0  0  0  0  0  0  0  0  0  0  0  0
   18.4162   -8.8064  -15.7751 O   0  0  0  0  0  0  0  0  0  0  0  0
   17.1750  -13.4861  -14.1769 O   0  0  0  0  0  0  0  0  0  0  0  0
   20.6948   -8.7281  -15.7865 N   0  0  0  0  0  0  0  0  0  0  0  0
   20.7010   -7.3271  -15.2176 C   0  0  1  0  0  0  0  0  0  0  0  0
   21.8472   -7.3518  -14.2662 C   0  0  0  0  0  0  0  0  0  0  0  0
   22.1749   -6.1334  -13.5683 C   0  0  0  0  0  0  0  0  0  0  0  0
   22.8312   -5.2017  -14.0047 O   0  0  0  0  0  0  0  0  0  0  0  0
   20.7597   -6.3988  -16.3350 C   0  0  0  0  0  0  0  0  0  0  0  0
   21.6493   -6.6288  -17.2398 O   0  0  0  0  0  0  0  0  0  0  0  0
   21.6860   -6.0010  -12.2404 O   0  0  0  0  0  0  0  0  0  0  0  0
   19.9468   -5.2741  -16.5466 N   0  0  0  0  0  0  0  0  0  0  0  0
   20.1473   -4.3681  -17.6794 C   0  0  0  0  0  0  0  0  0  0  0  0
   20.8653   -3.1662  -17.1883 C   0  0  0  0  0  0  0  0  0  0  0  0
   21.7218   -3.2427  -16.2634 O   0  0  0  0  0  0  0  0  0  0  0  0
   20.6354   -1.9106  -17.7135 O   0  0  0  0  0  0  0  0  0  0  0  0
  2  1  1  1
  2  7  1  0
  3  2  1  0
  4  3  1  0
  5  4  1  0
  5  6  2  0
  7  8  2  0
  9  5  1  0
 10  7  1  0
 10 11  1  0
 11 15  1  0
 12 13  1  0
 11 12  1  1
 13 14  2  0
 13 17  1  0
 15 18  1  0
 15 16  2  0
 18 19  1  0
 19 20  1  0
 20 22  1  0
 21 20  2  0
M  END
$$$$
