EDG.pdb
     RDKit          3D

 22 21  0  0  1  0  0  0  0  0999 V2000
   14.6235  -22.4813   -2.5941 N   0  0  0  0  0  0  0  0  0  0  0  0
   13.9990  -22.6384   -1.3066 C   0  0  1  0  0  0  0  0  0  0  0  0
   13.7793  -24.1074   -1.0932 C   0  0  0  0  0  0  0  0  0  0  0  0
   14.8376  -24.9020   -1.8260 C   0  0  0  0  0  0  0  0  0  0  0  0
   15.5171  -25.8649   -0.9228 C   0  0  0  0  0  0  0  0  0  0  0  0
   15.2954  -25.9453    0.2971 O   0  0  0  0  0  0  0  0  0  0  0  0
   14.8041  -22.0281   -0.2159 C   0  0  0  0  0  0  0  0  0  0  0  0
   15.9237  -21.4898   -0.4919 O   0  0  0  0  0  0  0  0  0  0  0  0
   16.4515  -26.7197   -1.4772 O   0  0  0  0  0  0  0  0  0  0  0  0
   14.4044  -22.0049    1.1281 N   0  0  0  0  0  0  0  0  0  0  0  0
   15.1752  -21.2321    2.1746 C   0  0  1  0  0  0  0  0  0  0  0  0
   14.1064  -20.7348    3.0854 C   0  0  0  0  0  0  0  0  0  0  0  0
   13.7872  -19.3290    3.0516 C   0  0  0  0  0  0  0  0  0  0  0  0
   14.5017  -18.4330    2.6324 O   0  0  0  0  0  0  0  0  0  0  0  0
   16.1834  -22.1230    2.7256 C   0  0  0  0  0  0  0  0  0  0  0  0
   15.9410  -23.3882    2.6656 O   0  0  0  0  0  0  0  0  0  0  0  0
   12.5146  -18.9459    3.5552 O   0  0  0  0  0  0  0  0  0  0  0  0
   17.4047  -21.7602    3.3151 N   0  0  0  0  0  0  0  0  0  0  0  0
   18.3604  -22.7551    3.8061 C   0  0  0  0  0  0  0  0  0  0  0  0
   17.9013  -23.2184    5.1387 C   0  0  0  0  0  0  0  0  0  0  0  0
   16.8061  -22.8268    5.6308 O   0  0  0  0  0  0  0  0  0  0  0  0
   18.6427  -24.0956    5.9042 O   0  0  0  0  0  0  0  0  0  0  0  0
  2  1  1  6
  2  7  1  0
  3  2  1  0
  4  3  1  0
  5  4  1  0
  5  6  2  0
  7  8  2  0
  9  5  1  0
 10  7  1  0
 10 11  1  0
 11 15  1  0
 12 13  1  0
 11 12  1  1
 13 14  2  0
 13 17  1  0
 15 18  1  0
 15 16  2  0
 18 19  1  0
 19 20  1  0
 20 22  1  0
 21 20  2  0
M  END
$$$$
