EDG.pdb
     RDKit          3D

 22 21  0  0  1  0  0  0  0  0999 V2000
   18.1108  -10.0906  -17.4424 N   0  0  0  0  0  0  0  0  0  0  0  0
   17.3560   -9.6992  -16.2807 C   0  0  1  0  0  0  0  0  0  0  0  0
   17.3852  -10.8516  -15.3202 C   0  0  0  0  0  0  0  0  0  0  0  0
   16.6988  -12.0535  -15.9309 C   0  0  0  0  0  0  0  0  0  0  0  0
   16.7260  -13.2200  -15.0127 C   0  0  0  0  0  0  0  0  0  0  0  0
   17.2996  -13.2208  -13.9105 O   0  0  0  0  0  0  0  0  0  0  0  0
   17.8768   -8.4477  -15.6704 C   0  0  0  0  0  0  0  0  0  0  0  0
   17.3708   -8.0260  -14.5815 O   0  0  0  0  0  0  0  0  0  0  0  0
   16.0734  -14.3711  -15.4131 O   0  0  0  0  0  0  0  0  0  0  0  0
   18.9120   -7.6820  -16.2261 N   0  0  0  0  0  0  0  0  0  0  0  0
   19.4505   -6.4499  -15.5344 C   0  0  1  0  0  0  0  0  0  0  0  0
   20.9131   -6.7195  -15.4501 C   0  0  0  0  0  0  0  0  0  0  0  0
   21.3665   -7.7079  -14.5030 C   0  0  0  0  0  0  0  0  0  0  0  0
   21.2061   -7.6806  -13.2936 O   0  0  0  0  0  0  0  0  0  0  0  0
   19.0114   -5.2911  -16.2948 C   0  0  0  0  0  0  0  0  0  0  0  0
   19.1793   -5.3329  -17.5727 O   0  0  0  0  0  0  0  0  0  0  0  0
   22.0697   -8.8262  -15.0271 O   0  0  0  0  0  0  0  0  0  0  0  0
   18.4142   -4.1241  -15.7930 N   0  0  0  0  0  0  0  0  0  0  0  0
   17.9448   -3.0487  -16.6690 C   0  0  0  0  0  0  0  0  0  0  0  0
   19.0622   -2.0929  -16.8666 C   0  0  0  0  0  0  0  0  0  0  0  0
   20.2094   -2.3123  -16.3862 O   0  0  0  0  0  0  0  0  0  0  0  0
   18.9064   -0.9221  -17.5810 O   0  0  0  0  0  0  0  0  0  0  0  0
  2  1  1  6
  2  7  1  0
  3  2  1  0
  4  3  1  0
  5  4  1  0
  5  6  2  0
  7  8  2  0
  9  5  1  0
 10  7  1  0
 10 11  1  0
 11 15  1  0
 12 13  1  0
 11 12  1  6
 13 14  2  0
 13 17  1  0
 15 18  1  0
 15 16  2  0
 18 19  1  0
 19 20  1  0
 20 22  1  0
 21 20  2  0
M  END
$$$$
