EDG.pdb
     RDKit          3D

 22 21  0  0  1  0  0  0  0  0999 V2000
   22.7516  -11.3728  -16.4088 N   0  0  0  0  0  0  0  0  0  0  0  0
   23.9861  -10.7892  -16.8646 C   0  0  1  0  0  0  0  0  0  0  0  0
   24.4099  -11.5424  -18.0913 C   0  0  0  0  0  0  0  0  0  0  0  0
   24.5518  -13.0145  -17.7728 C   0  0  0  0  0  0  0  0  0  0  0  0
   24.8883  -13.8030  -18.9851 C   0  0  0  0  0  0  0  0  0  0  0  0
   24.0421  -14.3429  -19.7173 O   0  0  0  0  0  0  0  0  0  0  0  0
   23.8548   -9.3306  -17.1203 C   0  0  0  0  0  0  0  0  0  0  0  0
   24.8685   -8.6723  -17.5185 O   0  0  0  0  0  0  0  0  0  0  0  0
   26.2241  -13.9422  -19.3134 O   0  0  0  0  0  0  0  0  0  0  0  0
   22.6618   -8.6137  -16.9482 N   0  0  0  0  0  0  0  0  0  0  0  0
   22.5345   -7.1671  -17.3695 C   0  0  1  0  0  0  0  0  0  0  0  0
   21.3060   -7.1655  -18.2123 C   0  0  0  0  0  0  0  0  0  0  0  0
   21.3867   -7.7484  -19.5287 C   0  0  0  0  0  0  0  0  0  0  0  0
   22.3415   -7.6978  -20.2869 O   0  0  0  0  0  0  0  0  0  0  0  0
   22.5372   -6.3556  -16.1630 C   0  0  0  0  0  0  0  0  0  0  0  0
   22.1621   -6.9305  -15.0713 O   0  0  0  0  0  0  0  0  0  0  0  0
   20.2425   -8.4529  -19.9917 O   0  0  0  0  0  0  0  0  0  0  0  0
   22.9110   -5.0074  -16.0487 N   0  0  0  0  0  0  0  0  0  0  0  0
   22.8488   -4.2854  -14.7764 C   0  0  0  0  0  0  0  0  0  0  0  0
   21.4262   -3.9778  -14.4888 C   0  0  0  0  0  0  0  0  0  0  0  0
   20.5014   -4.3552  -15.2617 O   0  0  0  0  0  0  0  0  0  0  0  0
   21.0426   -3.2678  -13.3689 O   0  0  0  0  0  0  0  0  0  0  0  0
  2  1  1  6
  2  7  1  0
  3  2  1  0
  4  3  1  0
  5  4  1  0
  5  6  2  0
  7  8  2  0
  9  5  1  0
 10  7  1  0
 10 11  1  0
 11 15  1  0
 12 13  1  0
 11 12  1  1
 13 14  2  0
 13 17  1  0
 15 18  1  0
 15 16  2  0
 18 19  1  0
 19 20  1  0
 20 22  1  0
 21 20  2  0
M  END
$$$$
