EDG.pdb
     RDKit          3D

 22 21  0  0  1  0  0  0  0  0999 V2000
   21.1458  -11.3363  -16.9772 N   0  0  0  0  0  0  0  0  0  0  0  0
   21.2933  -10.2831  -17.9473 C   0  0  1  0  0  0  0  0  0  0  0  0
   20.8914  -10.8440  -19.2798 C   0  0  0  0  0  0  0  0  0  0  0  0
   21.6343  -12.1350  -19.5445 C   0  0  0  0  0  0  0  0  0  0  0  0
   21.1812  -12.7741  -20.8058 C   0  0  0  0  0  0  0  0  0  0  0  0
   20.2810  -12.3167  -21.5297 O   0  0  0  0  0  0  0  0  0  0  0  0
   20.5045   -9.0756  -17.5868 C   0  0  0  0  0  0  0  0  0  0  0  0
   20.5444   -8.0540  -18.3447 O   0  0  0  0  0  0  0  0  0  0  0  0
   21.8008  -13.9479  -21.1925 O   0  0  0  0  0  0  0  0  0  0  0  0
   19.7009   -8.9833  -16.4412 N   0  0  0  0  0  0  0  0  0  0  0  0
   18.9466   -7.7185  -16.0977 C   0  0  1  0  0  0  0  0  0  0  0  0
   17.6041   -8.2227  -15.6944 C   0  0  0  0  0  0  0  0  0  0  0  0
   16.6698   -8.5703  -16.7363 C   0  0  0  0  0  0  0  0  0  0  0  0
   16.4212   -7.9155  -17.7356 O   0  0  0  0  0  0  0  0  0  0  0  0
   19.7299   -6.9936  -15.1103 C   0  0  0  0  0  0  0  0  0  0  0  0
   19.1770   -5.9623  -14.5685 O   0  0  0  0  0  0  0  0  0  0  0  0
   15.9677   -9.7971  -16.5879 O   0  0  0  0  0  0  0  0  0  0  0  0
   21.0286   -7.2947  -14.6708 N   0  0  0  0  0  0  0  0  0  0  0  0
   21.7286   -6.4716  -13.6825 C   0  0  0  0  0  0  0  0  0  0  0  0
   22.2719   -5.2783  -14.3767 C   0  0  0  0  0  0  0  0  0  0  0  0
   22.0936   -5.0979  -15.6139 O   0  0  0  0  0  0  0  0  0  0  0  0
   22.9958   -4.3101  -13.7103 O   0  0  0  0  0  0  0  0  0  0  0  0
  2  1  1  1
  2  7  1  0
  3  2  1  0
  4  3  1  0
  5  4  1  0
  5  6  2  0
  7  8  2  0
  9  5  1  0
 10  7  1  0
 10 11  1  0
 11 15  1  0
 12 13  1  0
 11 12  1  1
 13 14  2  0
 13 17  1  0
 15 18  1  0
 15 16  2  0
 18 19  1  0
 19 20  1  0
 20 22  1  0
 21 20  2  0
M  END
$$$$
