EDG.pdb
     RDKit          3D

 22 21  0  0  1  0  0  0  0  0999 V2000
   18.4481  -11.8266  -15.0966 N   0  0  0  0  0  0  0  0  0  0  0  0
   19.2309  -10.9737  -15.9523 C   0  0  1  0  0  0  0  0  0  0  0  0
   18.5683  -10.9628  -17.2986 C   0  0  0  0  0  0  0  0  0  0  0  0
   18.9038  -12.2310  -18.0521 C   0  0  0  0  0  0  0  0  0  0  0  0
   20.1561  -12.0825  -18.8359 C   0  0  0  0  0  0  0  0  0  0  0  0
   21.2541  -12.5434  -18.4812 O   0  0  0  0  0  0  0  0  0  0  0  0
   19.3824   -9.6053  -15.3914 C   0  0  0  0  0  0  0  0  0  0  0  0
   18.4527   -9.1188  -14.6713 O   0  0  0  0  0  0  0  0  0  0  0  0
   20.0910  -11.3887  -20.0299 O   0  0  0  0  0  0  0  0  0  0  0  0
   20.5064   -8.7949  -15.6071 N   0  0  0  0  0  0  0  0  0  0  0  0
   20.5629   -7.3653  -15.1176 C   0  0  1  0  0  0  0  0  0  0  0  0
   21.6051   -7.4113  -14.0542 C   0  0  0  0  0  0  0  0  0  0  0  0
   21.9295   -6.1843  -13.3697 C   0  0  0  0  0  0  0  0  0  0  0  0
   22.8811   -5.4556  -13.5992 O   0  0  0  0  0  0  0  0  0  0  0  0
   20.8008   -6.5141  -16.2720 C   0  0  0  0  0  0  0  0  0  0  0  0
   21.6762   -6.9204  -17.1272 O   0  0  0  0  0  0  0  0  0  0  0  0
   21.0559   -5.7805  -12.3240 O   0  0  0  0  0  0  0  0  0  0  0  0
   20.1759   -5.2924  -16.5679 N   0  0  0  0  0  0  0  0  0  0  0  0
   20.6328   -4.4254  -17.6559 C   0  0  0  0  0  0  0  0  0  0  0  0
   19.6909   -4.5751  -18.7924 C   0  0  0  0  0  0  0  0  0  0  0  0
   18.7704   -5.4398  -18.7755 O   0  0  0  0  0  0  0  0  0  0  0  0
   19.7715   -3.7823  -19.9194 O   0  0  0  0  0  0  0  0  0  0  0  0
  2  1  1  1
  2  7  1  0
  3  2  1  0
  4  3  1  0
  5  4  1  0
  5  6  2  0
  7  8  2  0
  9  5  1  0
 10  7  1  0
 10 11  1  0
 11 15  1  0
 12 13  1  0
 11 12  1  1
 13 14  2  0
 13 17  1  0
 15 18  1  0
 15 16  2  0
 18 19  1  0
 19 20  1  0
 20 22  1  0
 21 20  2  0
M  END
$$$$
