NFQ.pdb
     RDKit          3D

 29 29  0  0  1  0  0  0  0  0999 V2000
   12.3841  -17.4675   18.0206 N   0  0  0  0  0  0  0  0  0  0  0  0
   11.0354  -17.0710   18.1535 C   0  0  0  0  0  0  0  0  0  0  0  0
   10.1882  -17.5208   17.3549 O   0  0  0  0  0  0  0  0  0  0  0  0
   10.6358  -16.1483   19.2092 C   0  0  0  0  0  0  0  0  0  0  0  0
   10.1444  -16.8247   20.4561 C   0  0  2  0  0  0  0  0  0  0  0  0
    8.8748  -17.4583   20.1593 N   0  0  0  0  0  0  0  0  0  0  0  0
   10.0082  -15.9244   21.6013 C   0  0  0  0  0  0  0  0  0  0  0  0
   11.0198  -15.2978   22.0184 O   0  0  0  0  0  0  0  0  0  0  0  0
    8.7922  -15.6931   22.3011 N   0  0  0  0  0  0  0  0  0  0  0  0
    8.6631  -14.9825   23.5374 C   0  0  1  0  0  0  0  0  0  0  0  0
    7.2483  -14.5096   23.7678 C   0  0  0  0  0  0  0  0  0  0  0  0
    7.0561  -13.7400   24.9967 C   0  0  0  0  0  0  0  0  0  0  0  0
    7.6126  -12.4699   25.1196 C   0  0  0  0  0  0  0  0  0  0  0  0
    7.4326  -11.7453   26.2796 C   0  0  0  0  0  0  0  0  0  0  0  0
    6.7103  -12.2289   27.3509 C   0  0  0  0  0  0  0  0  0  0  0  0
    6.1589  -13.4871   27.2295 C   0  0  0  0  0  0  0  0  0  0  0  0
    6.3412  -14.2233   26.0522 C   0  0  0  0  0  0  0  0  0  0  0  0
    9.0852  -15.7537   24.7240 C   0  0  0  0  0  0  0  0  0  0  0  0
    8.3416  -16.7097   25.0635 O   0  0  0  0  0  0  0  0  0  0  0  0
   14.4124  -18.1375   23.9531 N   0  0  0  0  0  0  0  0  0  0  0  0
   14.0743  -16.9284   24.5736 C   0  0  0  0  0  0  0  0  0  0  0  0
   14.9951  -16.1311   24.9125 O   0  0  0  0  0  0  0  0  0  0  0  0
   12.6903  -16.5565   24.8358 C   0  0  0  0  0  0  0  0  0  0  0  0
   12.1770  -16.7270   26.2118 C   0  0  0  0  0  0  0  0  0  0  0  0
   10.7527  -16.4297   26.4957 C   0  0  2  0  0  0  0  0  0  0  0  0
   10.2353  -15.4937   25.4781 N   0  0  0  0  0  0  0  0  0  0  0  0
   10.4563  -15.9684   27.8198 C   0  0  0  0  0  0  0  0  0  0  0  0
    9.9575  -14.8304   28.1033 O   0  0  0  0  0  0  0  0  0  0  0  0
   10.6949  -16.7745   28.9409 O   0  0  0  0  0  0  0  0  0  0  0  0
  1  2  1  0
  2  3  2  0
  4  5  1  0
  4  2  1  0
  5  6  1  6
  7  8  2  0
  7  5  1  0
  9  7  1  0
 10  9  1  0
 11 12  1  0
 10 11  1  1
 12 17  2  0
 12 13  1  0
 13 14  2  0
 14 15  1  0
 16 15  2  0
 17 16  1  0
 18 19  2  0
 18 10  1  0
 21 20  1  0
 22 21  2  0
 23 21  1  0
 25 24  1  1
 24 23  1  0
 25 26  1  0
 26 18  1  0
 27 25  1  0
 28 27  2  0
 29 27  1  0
M  END
$$$$
