NFQ.pdb
     RDKit          3D

 29 29  0  0  1  0  0  0  0  0999 V2000
    9.2649  -20.5723   18.8184 N   0  0  0  0  0  0  0  0  0  0  0  0
    8.5782  -19.3779   19.1275 C   0  0  0  0  0  0  0  0  0  0  0  0
    7.6441  -19.0050   18.3883 O   0  0  0  0  0  0  0  0  0  0  0  0
    8.9540  -18.5889   20.2946 C   0  0  0  0  0  0  0  0  0  0  0  0
    9.0257  -17.1121   20.0347 C   0  0  2  0  0  0  0  0  0  0  0  0
   10.0944  -16.8688   19.0859 N   0  0  0  0  0  0  0  0  0  0  0  0
    9.2244  -16.3094   21.2416 C   0  0  0  0  0  0  0  0  0  0  0  0
   10.3542  -16.3047   21.8014 O   0  0  0  0  0  0  0  0  0  0  0  0
    8.2171  -15.5120   21.8508 N   0  0  0  0  0  0  0  0  0  0  0  0
    8.3028  -14.9039   23.1443 C   0  0  1  0  0  0  0  0  0  0  0  0
    7.1837  -13.9179   23.3762 C   0  0  0  0  0  0  0  0  0  0  0  0
    7.1876  -13.2924   24.6983 C   0  0  0  0  0  0  0  0  0  0  0  0
    6.2142  -13.6314   25.6341 C   0  0  0  0  0  0  0  0  0  0  0  0
    6.2172  -13.0396   26.8803 C   0  0  0  0  0  0  0  0  0  0  0  0
    7.1605  -12.1052   27.2547 C   0  0  0  0  0  0  0  0  0  0  0  0
    8.1248  -11.7692   26.3279 C   0  0  0  0  0  0  0  0  0  0  0  0
    8.1225  -12.3694   25.0626 C   0  0  0  0  0  0  0  0  0  0  0  0
    8.3030  -15.8658   24.2648 C   0  0  0  0  0  0  0  0  0  0  0  0
    7.2554  -16.5446   24.4195 O   0  0  0  0  0  0  0  0  0  0  0  0
   11.5435  -20.9617   25.0803 N   0  0  0  0  0  0  0  0  0  0  0  0
   11.4949  -19.7253   24.4244 C   0  0  0  0  0  0  0  0  0  0  0  0
   11.7500  -19.6736   23.1872 O   0  0  0  0  0  0  0  0  0  0  0  0
   11.1521  -18.4941   25.1238 C   0  0  0  0  0  0  0  0  0  0  0  0
    9.7934  -18.3784   25.6951 C   0  0  0  0  0  0  0  0  0  0  0  0
    9.3400  -17.0709   26.2266 C   0  0  2  0  0  0  0  0  0  0  0  0
    9.3716  -16.0653   25.1462 N   0  0  0  0  0  0  0  0  0  0  0  0
   10.0196  -16.5949   27.3951 C   0  0  0  0  0  0  0  0  0  0  0  0
   10.1692  -17.2560   28.4744 O   0  0  0  0  0  0  0  0  0  0  0  0
   10.6001  -15.3200   27.4297 O   0  0  0  0  0  0  0  0  0  0  0  0
  1  2  1  0
  2  3  2  0
  4  5  1  0
  4  2  1  0
  5  6  1  6
  7  8  2  0
  7  5  1  0
  9  7  1  0
 10  9  1  0
 11 12  1  0
 10 11  1  1
 12 17  2  0
 12 13  1  0
 13 14  2  0
 14 15  1  0
 16 15  2  0
 17 16  1  0
 18 19  2  0
 18 10  1  0
 21 20  1  0
 22 21  2  0
 23 21  1  0
 25 24  1  6
 24 23  1  0
 25 26  1  0
 26 18  1  0
 27 25  1  0
 28 27  2  0
 29 27  1  0
M  END
$$$$
