NFQ.pdb
     RDKit          3D

 29 29  0  0  1  0  0  0  0  0999 V2000
   10.4527  -16.3967   16.8715 N   0  0  0  0  0  0  0  0  0  0  0  0
   10.9036  -17.1130   18.0017 C   0  0  0  0  0  0  0  0  0  0  0  0
   11.1587  -18.3296   17.8883 O   0  0  0  0  0  0  0  0  0  0  0  0
   11.0697  -16.4420   19.2854 C   0  0  0  0  0  0  0  0  0  0  0  0
   10.1390  -16.9343   20.3555 C   0  0  2  0  0  0  0  0  0  0  0  0
    8.8260  -17.1149   19.7681 N   0  0  0  0  0  0  0  0  0  0  0  0
   10.0586  -16.0517   21.5196 C   0  0  0  0  0  0  0  0  0  0  0  0
   11.1212  -15.6057   22.0313 O   0  0  0  0  0  0  0  0  0  0  0  0
    8.8440  -15.6455   22.1372 N   0  0  0  0  0  0  0  0  0  0  0  0
    8.7316  -14.9835   23.4018 C   0  0  1  0  0  0  0  0  0  0  0  0
    7.4021  -14.2852   23.5535 C   0  0  0  0  0  0  0  0  0  0  0  0
    7.2341  -13.5627   24.8141 C   0  0  0  0  0  0  0  0  0  0  0  0
    7.9354  -12.3817   25.0410 C   0  0  0  0  0  0  0  0  0  0  0  0
    7.7782  -11.7017   26.2310 C   0  0  0  0  0  0  0  0  0  0  0  0
    6.9394  -12.1450   27.2325 C   0  0  0  0  0  0  0  0  0  0  0  0
    6.2445  -13.3148   27.0081 C   0  0  0  0  0  0  0  0  0  0  0  0
    6.4036  -14.0058   25.8004 C   0  0  0  0  0  0  0  0  0  0  0  0
    8.9158  -15.8721   24.5669 C   0  0  0  0  0  0  0  0  0  0  0  0
    8.1546  -16.8711   24.6345 O   0  0  0  0  0  0  0  0  0  0  0  0
   13.8307  -17.8531   24.5656 N   0  0  0  0  0  0  0  0  0  0  0  0
   12.9798  -18.8654   25.0267 C   0  0  0  0  0  0  0  0  0  0  0  0
   13.1930  -20.0595   24.6703 O   0  0  0  0  0  0  0  0  0  0  0  0
   11.8572  -18.5855   25.9121 C   0  0  0  0  0  0  0  0  0  0  0  0
   11.6126  -17.1787   26.2955 C   0  0  0  0  0  0  0  0  0  0  0  0
   10.2233  -16.7284   26.5501 C   0  0  2  0  0  0  0  0  0  0  0  0
    9.8632  -15.6770   25.5785 N   0  0  0  0  0  0  0  0  0  0  0  0
    9.9300  -16.3150   27.8906 C   0  0  0  0  0  0  0  0  0  0  0  0
    9.7550  -15.1085   28.2623 O   0  0  0  0  0  0  0  0  0  0  0  0
    9.7995  -17.2488   28.9273 O   0  0  0  0  0  0  0  0  0  0  0  0
  1  2  1  0
  2  3  2  0
  4  5  1  0
  4  2  1  0
  5  6  1  6
  7  8  2  0
  7  5  1  0
  9  7  1  0
 10  9  1  0
 11 12  1  0
 10 11  1  1
 12 17  2  0
 12 13  1  0
 13 14  2  0
 14 15  1  0
 16 15  2  0
 17 16  1  0
 18 19  2  0
 18 10  1  0
 21 20  1  0
 22 21  2  0
 23 21  1  0
 25 24  1  1
 24 23  1  0
 25 26  1  0
 26 18  1  0
 27 25  1  0
 28 27  2  0
 29 27  1  0
M  END
$$$$
