NFQ.pdb
     RDKit          3D

 29 29  0  0  1  0  0  0  0  0999 V2000
    6.6550  -18.8353   18.4789 N   0  0  0  0  0  0  0  0  0  0  0  0
    7.6958  -19.0970   19.3966 C   0  0  0  0  0  0  0  0  0  0  0  0
    8.6207  -19.8661   19.0635 O   0  0  0  0  0  0  0  0  0  0  0  0
    7.6917  -18.4779   20.7166 C   0  0  0  0  0  0  0  0  0  0  0  0
    8.7553  -17.4352   20.9040 C   0  0  2  0  0  0  0  0  0  0  0  0
   10.0487  -18.0762   20.7713 N   0  0  0  0  0  0  0  0  0  0  0  0
    8.6677  -16.7257   22.1805 C   0  0  0  0  0  0  0  0  0  0  0  0
    8.4060  -17.3730   23.2305 O   0  0  0  0  0  0  0  0  0  0  0  0
    8.8594  -15.3254   22.3360 N   0  0  0  0  0  0  0  0  0  0  0  0
    8.7077  -14.5929   23.5569 C   0  0  1  0  0  0  0  0  0  0  0  0
    7.2813  -14.1484   23.7712 C   0  0  0  0  0  0  0  0  0  0  0  0
    7.0676  -13.3473   24.9761 C   0  0  0  0  0  0  0  0  0  0  0  0
    6.1426  -13.7571   25.9323 C   0  0  0  0  0  0  0  0  0  0  0  0
    5.9400  -13.0001   27.0677 C   0  0  0  0  0  0  0  0  0  0  0  0
    6.6258  -11.8276   27.3086 C   0  0  0  0  0  0  0  0  0  0  0  0
    7.5422  -11.4212   26.3616 C   0  0  0  0  0  0  0  0  0  0  0  0
    7.7484  -12.1891   25.2087 C   0  0  0  0  0  0  0  0  0  0  0  0
    9.1418  -15.3296   24.7609 C   0  0  0  0  0  0  0  0  0  0  0  0
   10.0182  -14.7735   25.4714 O   0  0  0  0  0  0  0  0  0  0  0  0
    7.3768  -21.2529   26.5164 N   0  0  0  0  0  0  0  0  0  0  0  0
    6.6895  -20.2584   25.8095 C   0  0  0  0  0  0  0  0  0  0  0  0
    5.6407  -20.5668   25.1744 O   0  0  0  0  0  0  0  0  0  0  0  0
    7.1428  -18.8740   25.7884 C   0  0  0  0  0  0  0  0  0  0  0  0
    8.3709  -18.5368   26.5395 C   0  0  0  0  0  0  0  0  0  0  0  0
    8.8898  -17.1489   26.4938 C   0  0  2  0  0  0  0  0  0  0  0  0
    8.6504  -16.5801   25.1528 N   0  0  0  0  0  0  0  0  0  0  0  0
   10.2548  -16.9723   26.8934 C   0  0  0  0  0  0  0  0  0  0  0  0
   10.7173  -17.2328   28.0520 O   0  0  0  0  0  0  0  0  0  0  0  0
   11.2181  -16.4904   25.9970 O   0  0  0  0  0  0  0  0  0  0  0  0
  1  2  1  0
  2  3  2  0
  4  5  1  0
  4  2  1  0
  5  6  1  1
  7  8  2  0
  7  5  1  0
  9  7  1  0
 10  9  1  0
 11 12  1  0
 10 11  1  1
 12 17  2  0
 12 13  1  0
 13 14  2  0
 14 15  1  0
 16 15  2  0
 17 16  1  0
 18 19  2  0
 18 10  1  0
 21 20  1  0
 22 21  2  0
 23 21  1  0
 25 24  1  6
 24 23  1  0
 25 26  1  0
 26 18  1  0
 27 25  1  0
 28 27  2  0
 29 27  1  0
M  END
$$$$
