NFQ.pdb
     RDKit          3D

 29 29  0  0  1  0  0  0  0  0999 V2000
   12.2312  -17.5013   17.5741 N   0  0  0  0  0  0  0  0  0  0  0  0
   11.0931  -17.0419   18.2722 C   0  0  0  0  0  0  0  0  0  0  0  0
    9.9674  -17.1642   17.7469 O   0  0  0  0  0  0  0  0  0  0  0  0
   11.2290  -16.4321   19.5895 C   0  0  0  0  0  0  0  0  0  0  0  0
   10.2786  -16.9786   20.6151 C   0  0  2  0  0  0  0  0  0  0  0  0
    8.9670  -17.0870   20.0073 N   0  0  0  0  0  0  0  0  0  0  0  0
   10.2078  -16.1800   21.8389 C   0  0  0  0  0  0  0  0  0  0  0  0
   11.2562  -15.9875   22.5126 O   0  0  0  0  0  0  0  0  0  0  0  0
    9.0180  -15.5871   22.3435 N   0  0  0  0  0  0  0  0  0  0  0  0
    8.8812  -14.9421   23.6144 C   0  0  1  0  0  0  0  0  0  0  0  0
    7.6732  -14.0381   23.6578 C   0  0  0  0  0  0  0  0  0  0  0  0
    7.4823  -13.3376   24.9276 C   0  0  0  0  0  0  0  0  0  0  0  0
    6.4634  -13.7259   25.7931 C   0  0  0  0  0  0  0  0  0  0  0  0
    6.2825  -13.0636   26.9896 C   0  0  0  0  0  0  0  0  0  0  0  0
    7.0812  -12.0091   27.3810 C   0  0  0  0  0  0  0  0  0  0  0  0
    8.0906  -11.6241   26.5239 C   0  0  0  0  0  0  0  0  0  0  0  0
    8.2749  -12.2959   25.3090 C   0  0  0  0  0  0  0  0  0  0  0  0
    8.7958  -15.8729   24.7577 C   0  0  0  0  0  0  0  0  0  0  0  0
    7.7529  -16.5720   24.8333 O   0  0  0  0  0  0  0  0  0  0  0  0
   11.5370  -20.6480   25.0887 N   0  0  0  0  0  0  0  0  0  0  0  0
   12.3249  -19.5193   25.3464 C   0  0  0  0  0  0  0  0  0  0  0  0
   13.5538  -19.5450   25.0505 O   0  0  0  0  0  0  0  0  0  0  0  0
   11.7698  -18.3104   25.9407 C   0  0  0  0  0  0  0  0  0  0  0  0
   10.3332  -18.3082   26.2900 C   0  0  0  0  0  0  0  0  0  0  0  0
    9.7112  -17.0590   26.7903 C   0  0  2  0  0  0  0  0  0  0  0  0
    9.7804  -16.0229   25.7410 N   0  0  0  0  0  0  0  0  0  0  0  0
   10.2089  -16.5630   28.0394 C   0  0  0  0  0  0  0  0  0  0  0  0
   10.6818  -15.3943   28.2261 O   0  0  0  0  0  0  0  0  0  0  0  0
   10.2001  -17.3586   29.1929 O   0  0  0  0  0  0  0  0  0  0  0  0
  1  2  1  0
  2  3  2  0
  4  5  1  0
  4  2  1  0
  5  6  1  6
  7  8  2  0
  7  5  1  0
  9  7  1  0
 10  9  1  0
 11 12  1  0
 10 11  1  6
 12 17  2  0
 12 13  1  0
 13 14  2  0
 14 15  1  0
 16 15  2  0
 17 16  1  0
 18 19  2  0
 18 10  1  0
 21 20  1  0
 22 21  2  0
 23 21  1  0
 25 24  1  6
 24 23  1  0
 25 26  1  0
 26 18  1  0
 27 25  1  0
 28 27  2  0
 29 27  1  0
M  END
$$$$
