PQC.pdb
     RDKit          3D

 23 23  0  0  1  0  0  0  0  0999 V2000
   21.8125  -13.1982  -15.2415 N   0  0  0  0  0  0  0  0  0  0  0  0
   22.3563  -14.5304  -15.0503 C   0  0  0  0  0  0  0  0  0  0  0  0
   23.5112  -14.6656  -15.9959 C   0  0  0  0  0  0  0  0  0  0  0  0
   23.6465  -13.2952  -16.6278 C   0  0  0  0  0  0  0  0  0  0  0  0
   22.9499  -12.4138  -15.6435 C   0  0  1  0  0  0  0  0  0  0  0  0
   22.5830  -11.0852  -16.1590 C   0  0  0  0  0  0  0  0  0  0  0  0
   23.4405  -10.2747  -16.6238 O   0  0  0  0  0  0  0  0  0  0  0  0
   17.1300   -9.6458  -18.7726 N   0  0  0  0  0  0  0  0  0  0  0  0
   18.3114   -9.8144  -19.5212 C   0  0  0  0  0  0  0  0  0  0  0  0
   18.2351  -10.0338  -20.7615 O   0  0  0  0  0  0  0  0  0  0  0  0
   19.6665   -9.7368  -18.8645 C   0  0  0  0  0  0  0  0  0  0  0  0
   19.4749   -9.5174  -17.4036 C   0  0  0  0  0  0  0  0  0  0  0  0
   20.7601   -9.3902  -16.6261 C   0  0  2  0  0  0  0  0  0  0  0  0
   21.2206  -10.6804  -16.1426 N   0  0  0  0  0  0  0  0  0  0  0  0
   20.6760   -8.4354  -15.5161 C   0  0  0  0  0  0  0  0  0  0  0  0
   20.2626   -8.6841  -14.3716 O   0  0  0  0  0  0  0  0  0  0  0  0
   21.1020   -7.0724  -15.7282 N   0  0  0  0  0  0  0  0  0  0  0  0
   21.2317   -6.1522  -14.6215 C   0  0  1  0  0  0  0  0  0  0  0  0
   22.3559   -6.5439  -13.6873 C   0  0  0  0  0  0  0  0  0  0  0  0
   22.6971   -5.2368  -12.4986 S   0  0  0  0  0  0  0  0  0  0  0  0
   21.4928   -4.7867  -15.1223 C   0  0  0  0  0  0  0  0  0  0  0  0
   22.1541   -4.6446  -16.1729 O   0  0  0  0  0  0  0  0  0  0  0  0
   21.0342   -3.6562  -14.4741 O   0  0  0  0  0  0  0  0  0  0  0  0
  1  2  1  0
  2  3  1  0
  4  3  1  0
  5  4  1  0
  5  1  1  0
  6  7  2  0
  5  6  1  6
  8  9  1  0
  9 10  2  0
  9 11  1  0
 11 12  1  0
 13 12  1  1
 13 15  1  0
 13 14  1  0
 14  6  1  0
 15 17  1  0
 16 15  2  0
 17 18  1  0
 18 21  1  0
 18 19  1  1
 20 19  1  0
 21 22  2  0
 21 23  1  0
M  END
$$$$
