PQC.pdb
     RDKit          3D

 23 23  0  0  1  0  0  0  0  0999 V2000
   18.8630  -12.4388  -15.4781 N   0  0  0  0  0  0  0  0  0  0  0  0
   18.8362  -13.8771  -15.6716 C   0  0  0  0  0  0  0  0  0  0  0  0
   18.8225  -14.1140  -17.1515 C   0  0  0  0  0  0  0  0  0  0  0  0
   18.9659  -12.7330  -17.7580 C   0  0  0  0  0  0  0  0  0  0  0  0
   19.5606  -11.9461  -16.6364 C   0  0  1  0  0  0  0  0  0  0  0  0
   19.4653  -10.4857  -16.7909 C   0  0  0  0  0  0  0  0  0  0  0  0
   20.0656   -9.8584  -17.7153 O   0  0  0  0  0  0  0  0  0  0  0  0
   14.2963   -7.8185  -16.3204 N   0  0  0  0  0  0  0  0  0  0  0  0
   15.0820   -6.8796  -17.0174 C   0  0  0  0  0  0  0  0  0  0  0  0
   14.5180   -6.0040  -17.7298 O   0  0  0  0  0  0  0  0  0  0  0  0
   16.5869   -6.9037  -16.9262 C   0  0  0  0  0  0  0  0  0  0  0  0
   16.9877   -7.9647  -15.9605 C   0  0  0  0  0  0  0  0  0  0  0  0
   18.4561   -8.3043  -15.9929 C   0  0  2  0  0  0  0  0  0  0  0  0
   18.6748   -9.7359  -15.8782 N   0  0  0  0  0  0  0  0  0  0  0  0
   19.2403   -7.5907  -14.9797 C   0  0  0  0  0  0  0  0  0  0  0  0
   19.3994   -7.9445  -13.7998 O   0  0  0  0  0  0  0  0  0  0  0  0
   19.9048   -6.3616  -15.3430 N   0  0  0  0  0  0  0  0  0  0  0  0
   20.6015   -5.5714  -14.3538 C   0  0  1  0  0  0  0  0  0  0  0  0
   22.1026   -5.7361  -14.4512 C   0  0  0  0  0  0  0  0  0  0  0  0
   22.9565   -4.5072  -13.4518 S   0  0  0  0  0  0  0  0  0  0  0  0
   20.2750   -4.1402  -14.5231 C   0  0  0  0  0  0  0  0  0  0  0  0
   20.1054   -3.6915  -15.6768 O   0  0  0  0  0  0  0  0  0  0  0  0
   20.1493   -3.2744  -13.4539 O   0  0  0  0  0  0  0  0  0  0  0  0
  1  2  1  0
  2  3  1  0
  4  3  1  0
  5  4  1  0
  5  1  1  0
  6  7  2  0
  5  6  1  6
  8  9  1  0
  9 10  2  0
  9 11  1  0
 11 12  1  0
 13 12  1  1
 13 15  1  0
 13 14  1  0
 14  6  1  0
 15 17  1  0
 16 15  2  0
 17 18  1  0
 18 21  1  0
 18 19  1  6
 20 19  1  0
 21 22  2  0
 21 23  1  0
M  END
$$$$
