PQC.pdb
     RDKit          3D

 23 23  0  0  1  0  0  0  0  0999 V2000
   27.9077  -20.3344  -17.0287 N   0  0  0  0  0  0  0  0  0  0  0  0
   28.6383  -19.2736  -17.6980 C   0  0  0  0  0  0  0  0  0  0  0  0
   28.2027  -17.9851  -17.0685 C   0  0  0  0  0  0  0  0  0  0  0  0
   27.2863  -18.4060  -15.9378 C   0  0  0  0  0  0  0  0  0  0  0  0
   27.6934  -19.8234  -15.7006 C   0  0  1  0  0  0  0  0  0  0  0  0
   26.7295  -20.6188  -14.9236 C   0  0  0  0  0  0  0  0  0  0  0  0
   25.9779  -21.4894  -15.4580 O   0  0  0  0  0  0  0  0  0  0  0  0
   26.2119  -20.2712   -8.6140 N   0  0  0  0  0  0  0  0  0  0  0  0
   24.9859  -20.8759   -8.9540 C   0  0  0  0  0  0  0  0  0  0  0  0
   24.2099  -21.2652   -8.0383 O   0  0  0  0  0  0  0  0  0  0  0  0
   24.5851  -21.0656  -10.3952 C   0  0  0  0  0  0  0  0  0  0  0  0
   25.6890  -20.5712  -11.2646 C   0  0  0  0  0  0  0  0  0  0  0  0
   25.4653  -20.8050  -12.7370 C   0  0  2  0  0  0  0  0  0  0  0  0
   26.6249  -20.4158  -13.5208 N   0  0  0  0  0  0  0  0  0  0  0  0
   24.2617  -20.1458  -13.2540 C   0  0  0  0  0  0  0  0  0  0  0  0
   24.1338  -18.9294  -13.4706 O   0  0  0  0  0  0  0  0  0  0  0  0
   23.0965  -20.9443  -13.5524 N   0  0  0  0  0  0  0  0  0  0  0  0
   21.8993  -20.3418  -14.0926 C   0  0  1  0  0  0  0  0  0  0  0  0
   21.6661  -20.7381  -15.5343 C   0  0  0  0  0  0  0  0  0  0  0  0
   21.7660  -22.5228  -15.7411 S   0  0  0  0  0  0  0  0  0  0  0  0
   20.7214  -20.7483  -13.2983 C   0  0  0  0  0  0  0  0  0  0  0  0
   20.8685  -21.5909  -12.3875 O   0  0  0  0  0  0  0  0  0  0  0  0
   19.4593  -20.2332  -13.5224 O   0  0  0  0  0  0  0  0  0  0  0  0
  1  2  1  0
  2  3  1  0
  4  3  1  0
  5  4  1  0
  5  1  1  0
  6  7  2  0
  5  6  1  6
  8  9  1  0
  9 10  2  0
  9 11  1  0
 11 12  1  0
 13 12  1  1
 13 15  1  0
 13 14  1  0
 14  6  1  0
 15 17  1  0
 16 15  2  0
 17 18  1  0
 18 21  1  0
 18 19  1  6
 20 19  1  0
 21 22  2  0
 21 23  1  0
M  END
$$$$
