PQC.pdb
     RDKit          3D

 23 23  0  0  1  0  0  0  0  0999 V2000
   26.8313  -21.7776  -15.5458 N   0  0  0  0  0  0  0  0  0  0  0  0
   27.3396  -21.8924  -16.9005 C   0  0  0  0  0  0  0  0  0  0  0  0
   27.7173  -20.5099  -17.3391 C   0  0  0  0  0  0  0  0  0  0  0  0
   27.5024  -19.6502  -16.1102 C   0  0  0  0  0  0  0  0  0  0  0  0
   27.5434  -20.6513  -15.0025 C   0  0  1  0  0  0  0  0  0  0  0  0
   26.9883  -20.1781  -13.7245 C   0  0  0  0  0  0  0  0  0  0  0  0
   27.3880  -19.1146  -13.1608 O   0  0  0  0  0  0  0  0  0  0  0  0
   21.0431  -21.0688  -12.6433 N   0  0  0  0  0  0  0  0  0  0  0  0
   21.6384  -20.0250  -13.3785 C   0  0  0  0  0  0  0  0  0  0  0  0
   20.9295  -19.3319  -14.1590 O   0  0  0  0  0  0  0  0  0  0  0  0
   23.1097  -19.7220  -13.2480 C   0  0  0  0  0  0  0  0  0  0  0  0
   23.6936  -20.6325  -12.2239 C   0  0  0  0  0  0  0  0  0  0  0  0
   25.1668  -20.4235  -11.9820 C   0  0  2  0  0  0  0  0  0  0  0  0
   25.9652  -20.9295  -13.0852 N   0  0  0  0  0  0  0  0  0  0  0  0
   25.6350  -20.9956  -10.7155 C   0  0  0  0  0  0  0  0  0  0  0  0
   25.9905  -22.1720  -10.5353 O   0  0  0  0  0  0  0  0  0  0  0  0
   25.7053  -20.1512   -9.5466 N   0  0  0  0  0  0  0  0  0  0  0  0
   25.9922  -20.7060   -8.2435 C   0  0  1  0  0  0  0  0  0  0  0  0
   26.7557  -19.7349   -7.3694 C   0  0  0  0  0  0  0  0  0  0  0  0
   28.4607  -19.5685   -7.9199 S   0  0  0  0  0  0  0  0  0  0  0  0
   24.7353  -21.0673   -7.5557 C   0  0  0  0  0  0  0  0  0  0  0  0
   23.6465  -20.7584   -8.0852 O   0  0  0  0  0  0  0  0  0  0  0  0
   24.7143  -21.7352   -6.3466 O   0  0  0  0  0  0  0  0  0  0  0  0
  1  2  1  0
  2  3  1  0
  4  3  1  0
  5  4  1  0
  5  1  1  0
  6  7  2  0
  5  6  1  1
  8  9  1  0
  9 10  2  0
  9 11  1  0
 11 12  1  0
 13 12  1  6
 13 15  1  0
 13 14  1  0
 14  6  1  0
 15 17  1  0
 16 15  2  0
 17 18  1  0
 18 21  1  0
 18 19  1  1
 20 19  1  0
 21 22  2  0
 21 23  1  0
M  END
$$$$
