PQC.pdb
     RDKit          3D

 23 23  0  0  1  0  0  0  0  0999 V2000
   18.3909  -11.6743  -15.4904 N   0  0  0  0  0  0  0  0  0  0  0  0
   17.7467  -12.1849  -16.6867 C   0  0  0  0  0  0  0  0  0  0  0  0
   16.3464  -11.6507  -16.6851 C   0  0  0  0  0  0  0  0  0  0  0  0
   16.2957  -10.7229  -15.4883 C   0  0  0  0  0  0  0  0  0  0  0  0
   17.7384  -10.4132  -15.2565 C   0  0  1  0  0  0  0  0  0  0  0  0
   18.0406   -9.8423  -13.9343 C   0  0  0  0  0  0  0  0  0  0  0  0
   18.0870  -10.5489  -12.8822 O   0  0  0  0  0  0  0  0  0  0  0  0
   21.2848   -4.5948  -13.0911 N   0  0  0  0  0  0  0  0  0  0  0  0
   21.6140   -5.8086  -13.7258 C   0  0  0  0  0  0  0  0  0  0  0  0
   22.6524   -5.8750  -14.4396 O   0  0  0  0  0  0  0  0  0  0  0  0
   20.7453   -7.0307  -13.5660 C   0  0  0  0  0  0  0  0  0  0  0  0
   19.5725   -6.6731  -12.7202 C   0  0  0  0  0  0  0  0  0  0  0  0
   18.5716   -7.7878  -12.5519 C   0  0  2  0  0  0  0  0  0  0  0  0
   18.2922   -8.4485  -13.8151 N   0  0  0  0  0  0  0  0  0  0  0  0
   17.3207   -7.3555  -11.9203 C   0  0  0  0  0  0  0  0  0  0  0  0
   16.3128   -6.9365  -12.5129 O   0  0  0  0  0  0  0  0  0  0  0  0
   17.2063   -7.4049  -10.4820 N   0  0  0  0  0  0  0  0  0  0  0  0
   16.0799   -6.8055   -9.8037 C   0  0  1  0  0  0  0  0  0  0  0  0
   15.2097   -7.8413   -9.1255 C   0  0  0  0  0  0  0  0  0  0  0  0
   13.8564   -7.0653   -8.2286 S   0  0  0  0  0  0  0  0  0  0  0  0
   16.5513   -5.8478   -8.7819 C   0  0  0  0  0  0  0  0  0  0  0  0
   17.5765   -6.1233   -8.1229 O   0  0  0  0  0  0  0  0  0  0  0  0
   15.9026   -4.6556   -8.5242 O   0  0  0  0  0  0  0  0  0  0  0  0
  1  2  1  0
  2  3  1  0
  4  3  1  0
  5  4  1  0
  5  1  1  0
  6  7  2  0
  5  6  1  1
  8  9  1  0
  9 10  2  0
  9 11  1  0
 11 12  1  0
 13 12  1  6
 13 15  1  0
 13 14  1  0
 14  6  1  0
 15 17  1  0
 16 15  2  0
 17 18  1  0
 18 21  1  0
 18 19  1  1
 20 19  1  0
 21 22  2  0
 21 23  1  0
M  END
$$$$
