PQC.pdb
     RDKit          3D

 23 23  0  0  1  0  0  0  0  0999 V2000
   22.9226  -11.7367  -15.0687 N   0  0  0  0  0  0  0  0  0  0  0  0
   23.4544  -12.9602  -15.6407 C   0  0  0  0  0  0  0  0  0  0  0  0
   22.7740  -13.1508  -16.9625 C   0  0  0  0  0  0  0  0  0  0  0  0
   21.9314  -11.9040  -17.1386 C   0  0  0  0  0  0  0  0  0  0  0  0
   22.5918  -10.9330  -16.2156 C   0  0  1  0  0  0  0  0  0  0  0  0
   21.7791   -9.7530  -15.8797 C   0  0  0  0  0  0  0  0  0  0  0  0
   21.4797   -8.8665  -16.7358 O   0  0  0  0  0  0  0  0  0  0  0  0
   17.8769   -9.4427  -10.9066 N   0  0  0  0  0  0  0  0  0  0  0  0
   17.5357  -10.0055  -12.1522 C   0  0  0  0  0  0  0  0  0  0  0  0
   16.5114  -10.7366  -12.2440 O   0  0  0  0  0  0  0  0  0  0  0  0
   18.3748   -9.7483  -13.3783 C   0  0  0  0  0  0  0  0  0  0  0  0
   19.5452   -8.9141  -12.9870 C   0  0  0  0  0  0  0  0  0  0  0  0
   20.4238   -8.5052  -14.1417 C   0  0  2  0  0  0  0  0  0  0  0  0
   21.3043   -9.5861  -14.5504 N   0  0  0  0  0  0  0  0  0  0  0  0
   21.2030   -7.2912  -13.8779 C   0  0  0  0  0  0  0  0  0  0  0  0
   22.2549   -7.2298  -13.2203 O   0  0  0  0  0  0  0  0  0  0  0  0
   20.7429   -6.0313  -14.4119 N   0  0  0  0  0  0  0  0  0  0  0  0
   21.5005   -4.8170  -14.2125 C   0  0  1  0  0  0  0  0  0  0  0  0
   22.5387   -4.6123  -15.2943 C   0  0  0  0  0  0  0  0  0  0  0  0
   23.4025   -3.0488  -15.0773 S   0  0  0  0  0  0  0  0  0  0  0  0
   20.5964   -3.6482  -14.2033 C   0  0  0  0  0  0  0  0  0  0  0  0
   19.6292   -3.6263  -14.9940 O   0  0  0  0  0  0  0  0  0  0  0  0
   20.7773   -2.5744  -13.3531 O   0  0  0  0  0  0  0  0  0  0  0  0
  1  2  1  0
  2  3  1  0
  4  3  1  0
  5  4  1  0
  5  1  1  0
  6  7  2  0
  5  6  1  1
  8  9  1  0
  9 10  2  0
  9 11  1  0
 11 12  1  0
 13 12  1  1
 13 15  1  0
 13 14  1  0
 14  6  1  0
 15 17  1  0
 16 15  2  0
 17 18  1  0
 18 21  1  0
 18 19  1  6
 20 19  1  0
 21 22  2  0
 21 23  1  0
M  END
$$$$
