PQC.pdb
     RDKit          3D

 23 23  0  0  1  0  0  0  0  0999 V2000
   29.7643  -20.3842  -11.5019 N   0  0  0  0  0  0  0  0  0  0  0  0
   31.2001  -20.5856  -11.4325 C   0  0  0  0  0  0  0  0  0  0  0  0
   31.5050  -21.8070  -12.2460 C   0  0  0  0  0  0  0  0  0  0  0  0
   30.1764  -22.1930  -12.8634 C   0  0  0  0  0  0  0  0  0  0  0  0
   29.4009  -20.9186  -12.7877 C   0  0  1  0  0  0  0  0  0  0  0  0
   27.9475  -21.0715  -12.9605 C   0  0  0  0  0  0  0  0  0  0  0  0
   27.4372  -21.6082  -13.9900 O   0  0  0  0  0  0  0  0  0  0  0  0
   24.0556  -20.7237   -8.0433 N   0  0  0  0  0  0  0  0  0  0  0  0
   23.1261  -20.9041   -9.0863 C   0  0  0  0  0  0  0  0  0  0  0  0
   21.9001  -21.0225   -8.8125 O   0  0  0  0  0  0  0  0  0  0  0  0
   23.5724  -20.9579  -10.5256 C   0  0  0  0  0  0  0  0  0  0  0  0
   25.0481  -20.7601  -10.5735 C   0  0  0  0  0  0  0  0  0  0  0  0
   25.6335  -20.8249  -11.9611 C   0  0  2  0  0  0  0  0  0  0  0  0
   27.0695  -20.6054  -11.9446 N   0  0  0  0  0  0  0  0  0  0  0  0
   24.9926  -19.9047  -12.9061 C   0  0  0  0  0  0  0  0  0  0  0  0
   25.1903  -18.6806  -12.9780 O   0  0  0  0  0  0  0  0  0  0  0  0
   24.0393  -20.4256  -13.8570 N   0  0  0  0  0  0  0  0  0  0  0  0
   23.3300  -19.5462  -14.7580 C   0  0  1  0  0  0  0  0  0  0  0  0
   23.8437  -19.6544  -16.1773 C   0  0  0  0  0  0  0  0  0  0  0  0
   22.8182  -18.7071  -17.3126 S   0  0  0  0  0  0  0  0  0  0  0  0
   21.8881  -19.8695  -14.7555 C   0  0  0  0  0  0  0  0  0  0  0  0
   21.0604  -18.9405  -14.8688 O   0  0  0  0  0  0  0  0  0  0  0  0
   21.4157  -21.1619  -14.6326 O   0  0  0  0  0  0  0  0  0  0  0  0
  1  2  1  0
  2  3  1  0
  4  3  1  0
  5  4  1  0
  5  1  1  0
  6  7  2  0
  5  6  1  1
  8  9  1  0
  9 10  2  0
  9 11  1  0
 11 12  1  0
 13 12  1  1
 13 15  1  0
 13 14  1  0
 14  6  1  0
 15 17  1  0
 16 15  2  0
 17 18  1  0
 18 21  1  0
 18 19  1  6
 20 19  1  0
 21 22  2  0
 21 23  1  0
M  END
$$$$
