PQC.pdb
     RDKit          3D

 23 23  0  0  1  0  0  0  0  0999 V2000
   21.1816  -12.3316  -18.4708 N   0  0  0  0  0  0  0  0  0  0  0  0
   20.6124  -13.4283  -19.2324 C   0  0  0  0  0  0  0  0  0  0  0  0
   20.1524  -14.4517  -18.2387 C   0  0  0  0  0  0  0  0  0  0  0  0
   20.3895  -13.8039  -16.8897 C   0  0  0  0  0  0  0  0  0  0  0  0
   20.4479  -12.3514  -17.2330 C   0  0  1  0  0  0  0  0  0  0  0  0
   21.0441  -11.4969  -16.1938 C   0  0  0  0  0  0  0  0  0  0  0  0
   20.5890  -11.4454  -15.0111 O   0  0  0  0  0  0  0  0  0  0  0  0
   26.8749  -10.5824  -14.8403 N   0  0  0  0  0  0  0  0  0  0  0  0
   26.5638  -10.0047  -16.0869 C   0  0  0  0  0  0  0  0  0  0  0  0
   27.4968   -9.6885  -16.8754 O   0  0  0  0  0  0  0  0  0  0  0  0
   25.1333   -9.7579  -16.4948 C   0  0  0  0  0  0  0  0  0  0  0  0
   24.2457  -10.1062  -15.3504 C   0  0  0  0  0  0  0  0  0  0  0  0
   22.7927   -9.7728  -15.5741 C   0  0  2  0  0  0  0  0  0  0  0  0
   22.1727  -10.6934  -16.5113 N   0  0  0  0  0  0  0  0  0  0  0  0
   22.5736   -8.3885  -16.0059 C   0  0  0  0  0  0  0  0  0  0  0  0
   22.6515   -7.9687  -17.1723 O   0  0  0  0  0  0  0  0  0  0  0  0
   22.2344   -7.3903  -15.0196 N   0  0  0  0  0  0  0  0  0  0  0  0
   21.9323   -6.0318  -15.4086 C   0  0  1  0  0  0  0  0  0  0  0  0
   20.4521   -5.7312  -15.3156 C   0  0  0  0  0  0  0  0  0  0  0  0
   20.1239   -3.9875  -15.6149 S   0  0  0  0  0  0  0  0  0  0  0  0
   22.6591   -5.0803  -14.5426 C   0  0  0  0  0  0  0  0  0  0  0  0
   22.7189   -5.3050  -13.3150 O   0  0  0  0  0  0  0  0  0  0  0  0
   23.2776   -3.9479  -15.0364 O   0  0  0  0  0  0  0  0  0  0  0  0
  1  2  1  0
  2  3  1  0
  4  3  1  0
  5  4  1  0
  5  1  1  0
  6  7  2  0
  5  6  1  1
  8  9  1  0
  9 10  2  0
  9 11  1  0
 11 12  1  0
 13 12  1  6
 13 15  1  0
 13 14  1  0
 14  6  1  0
 15 17  1  0
 16 15  2  0
 17 18  1  0
 18 21  1  0
 18 19  1  1
 20 19  1  0
 21 22  2  0
 21 23  1  0
M  END
$$$$
