PQS.pdb
     RDKit          3D

 23 23  0  0  1  0  0  0  0  0999 V2000
   28.0790  -19.4373  -16.5798 N   0  0  0  0  0  0  0  0  0  0  0  0
   28.7366  -18.2647  -17.1005 C   0  0  0  0  0  0  0  0  0  0  0  0
   28.1864  -17.0726  -16.3885 C   0  0  0  0  0  0  0  0  0  0  0  0
   27.0139  -17.6385  -15.6144 C   0  0  0  0  0  0  0  0  0  0  0  0
   27.4596  -19.0487  -15.3404 C   0  0  1  0  0  0  0  0  0  0  0  0
   26.3077  -19.9361  -14.9967 C   0  0  0  0  0  0  0  0  0  0  0  0
   25.8647  -20.7571  -15.8382 O   0  0  0  0  0  0  0  0  0  0  0  0
   25.5009  -21.6164   -8.7328 N   0  0  0  0  0  0  0  0  0  0  0  0
   24.9979  -20.5881   -9.5523 C   0  0  0  0  0  0  0  0  0  0  0  0
   24.1602  -19.7682   -9.1058 O   0  0  0  0  0  0  0  0  0  0  0  0
   25.4282  -20.4213  -10.9748 C   0  0  0  0  0  0  0  0  0  0  0  0
   24.3932  -20.9407  -11.8989 C   0  0  0  0  0  0  0  0  0  0  0  0
   24.5264  -20.6225  -13.3370 C   0  0  2  0  0  0  0  0  0  0  0  0
   25.6905  -19.8738  -13.7208 N   0  0  0  0  0  0  0  0  0  0  0  0
   23.2767  -20.2246  -14.0250 C   0  0  0  0  0  0  0  0  0  0  0  0
   23.0556  -19.0070  -14.1898 O   0  0  0  0  0  0  0  0  0  0  0  0
   21.9400  -21.8914  -17.1074 O   0  0  0  0  0  0  0  0  0  0  0  0
   20.8150  -21.8037  -16.2890 C   0  0  0  0  0  0  0  0  0  0  0  0
   21.1344  -20.7834  -15.2182 C   0  0  2  0  0  0  0  0  0  0  0  0
   22.3511  -21.1721  -14.4828 N   0  0  0  0  0  0  0  0  0  0  0  0
   20.0099  -20.8131  -14.2355 C   0  0  0  0  0  0  0  0  0  0  0  0
   18.7201  -20.4377  -14.5860 O   0  0  0  0  0  0  0  0  0  0  0  0
   20.1748  -21.1810  -13.0367 O   0  0  0  0  0  0  0  0  0  0  0  0
  1  2  1  0
  2  3  1  0
  4  3  1  0
  5  4  1  0
  5  1  1  0
  5  6  1  6
  6  7  2  0
  9  8  1  0
  9 11  1  0
 10  9  2  0
 11 12  1  0
 13 12  1  1
 13 15  1  0
 13 14  1  0
 14  6  1  0
 15 16  2  0
 15 20  1  0
 17 18  1  0
 19 18  1  6
 19 21  1  0
 20 19  1  0
 21 23  2  0
 21 22  1  0
M  END
$$$$
