PQS.pdb
     RDKit          3D

 23 23  0  0  1  0  0  0  0  0999 V2000
   15.9577  -11.0616  -13.0925 N   0  0  0  0  0  0  0  0  0  0  0  0
   14.9171  -11.9390  -13.5677 C   0  0  0  0  0  0  0  0  0  0  0  0
   14.2696  -11.2904  -14.7472 C   0  0  0  0  0  0  0  0  0  0  0  0
   14.8575   -9.8945  -14.7445 C   0  0  0  0  0  0  0  0  0  0  0  0
   16.2200  -10.1200  -14.1487 C   0  0  1  0  0  0  0  0  0  0  0  0
   16.8112   -8.8521  -13.6240 C   0  0  0  0  0  0  0  0  0  0  0  0
   17.2257   -7.9689  -14.4154 O   0  0  0  0  0  0  0  0  0  0  0  0
   15.6046   -6.2509   -7.9650 N   0  0  0  0  0  0  0  0  0  0  0  0
   14.7588   -6.3645   -9.0847 C   0  0  0  0  0  0  0  0  0  0  0  0
   13.5317   -6.1246   -8.9846 O   0  0  0  0  0  0  0  0  0  0  0  0
   15.2696   -6.7704  -10.4304 C   0  0  0  0  0  0  0  0  0  0  0  0
   16.7390   -6.9564  -10.3979 C   0  0  0  0  0  0  0  0  0  0  0  0
   17.4082   -7.4019  -11.6393 C   0  0  2  0  0  0  0  0  0  0  0  0
   16.9181   -8.6163  -12.2291 N   0  0  0  0  0  0  0  0  0  0  0  0
   18.8810   -7.2485  -11.6653 C   0  0  0  0  0  0  0  0  0  0  0  0
   19.5526   -7.8513  -10.8025 O   0  0  0  0  0  0  0  0  0  0  0  0
   20.6232   -6.8219  -14.9513 O   0  0  0  0  0  0  0  0  0  0  0  0
   21.5107   -7.0908  -13.9106 C   0  0  0  0  0  0  0  0  0  0  0  0
   20.9930   -6.3522  -12.6956 C   0  0  2  0  0  0  0  0  0  0  0  0
   19.5243   -6.4500  -12.6205 N   0  0  0  0  0  0  0  0  0  0  0  0
   21.3185   -4.9074  -12.8897 C   0  0  0  0  0  0  0  0  0  0  0  0
   22.6278   -4.4457  -12.8972 O   0  0  0  0  0  0  0  0  0  0  0  0
   20.4204   -4.0328  -13.0568 O   0  0  0  0  0  0  0  0  0  0  0  0
  1  2  1  0
  2  3  1  0
  4  3  1  0
  5  4  1  0
  5  1  1  0
  5  6  1  1
  6  7  2  0
  9  8  1  0
  9 11  1  0
 10  9  2  0
 11 12  1  0
 13 12  1  1
 13 15  1  0
 13 14  1  0
 14  6  1  0
 15 16  2  0
 15 20  1  0
 17 18  1  0
 19 18  1  6
 19 21  1  0
 20 19  1  0
 21 23  2  0
 21 22  1  0
M  END
$$$$
