PQS.pdb
     RDKit          3D

 23 23  0  0  1  0  0  0  0  0999 V2000
   27.2493  -19.4996  -15.7638 N   0  0  0  0  0  0  0  0  0  0  0  0
   28.5576  -19.2456  -16.3136 C   0  0  0  0  0  0  0  0  0  0  0  0
   29.3381  -20.5177  -16.2535 C   0  0  0  0  0  0  0  0  0  0  0  0
   28.4615  -21.4262  -15.4167 C   0  0  0  0  0  0  0  0  0  0  0  0
   27.0797  -20.9285  -15.7410 C   0  0  1  0  0  0  0  0  0  0  0  0
   26.0836  -21.3500  -14.7103 C   0  0  0  0  0  0  0  0  0  0  0  0
   25.7290  -22.5521  -14.6232 O   0  0  0  0  0  0  0  0  0  0  0  0
   23.8824  -21.3177   -7.8835 N   0  0  0  0  0  0  0  0  0  0  0  0
   24.5846  -20.9704   -9.0533 C   0  0  0  0  0  0  0  0  0  0  0  0
   25.8296  -20.8200   -9.0294 O   0  0  0  0  0  0  0  0  0  0  0  0
   23.8952  -20.7659  -10.3646 C   0  0  0  0  0  0  0  0  0  0  0  0
   24.8719  -20.4056  -11.4186 C   0  0  0  0  0  0  0  0  0  0  0  0
   24.5239  -20.7190  -12.8214 C   0  0  2  0  0  0  0  0  0  0  0  0
   25.5179  -20.4098  -13.8109 N   0  0  0  0  0  0  0  0  0  0  0  0
   23.1316  -20.4112  -13.2216 C   0  0  0  0  0  0  0  0  0  0  0  0
   22.8199  -19.2158  -13.4024 O   0  0  0  0  0  0  0  0  0  0  0  0
   20.4493  -23.3882  -13.4347 O   0  0  0  0  0  0  0  0  0  0  0  0
   20.1362  -22.3914  -14.3575 C   0  0  0  0  0  0  0  0  0  0  0  0
   20.8105  -21.1253  -13.8758 C   0  0  2  0  0  0  0  0  0  0  0  0
   22.1723  -21.4182  -13.3941 N   0  0  0  0  0  0  0  0  0  0  0  0
   20.0334  -20.6362  -12.6977 C   0  0  0  0  0  0  0  0  0  0  0  0
   18.7181  -20.2076  -12.8139 O   0  0  0  0  0  0  0  0  0  0  0  0
   20.5327  -20.5876  -11.5367 O   0  0  0  0  0  0  0  0  0  0  0  0
  1  2  1  0
  2  3  1  0
  4  3  1  0
  5  4  1  0
  5  1  1  0
  5  6  1  1
  6  7  2  0
  9  8  1  0
  9 11  1  0
 10  9  2  0
 11 12  1  0
 13 12  1  1
 13 15  1  0
 13 14  1  0
 14  6  1  0
 15 16  2  0
 15 20  1  0
 17 18  1  0
 19 18  1  1
 19 21  1  0
 20 19  1  0
 21 23  2  0
 21 22  1  0
M  END
$$$$
