PQS.pdb
     RDKit          3D

 23 23  0  0  1  0  0  0  0  0999 V2000
   28.3247  -21.8633  -17.1398 N   0  0  0  0  0  0  0  0  0  0  0  0
   28.9374  -21.2687  -18.3014 C   0  0  0  0  0  0  0  0  0  0  0  0
   28.7234  -19.7921  -18.2311 C   0  0  0  0  0  0  0  0  0  0  0  0
   27.7477  -19.6349  -17.0833 C   0  0  0  0  0  0  0  0  0  0  0  0
   28.1018  -20.7982  -16.1981 C   0  0  1  0  0  0  0  0  0  0  0  0
   26.9978  -21.1250  -15.2459 C   0  0  0  0  0  0  0  0  0  0  0  0
   26.1360  -21.9891  -15.5443 O   0  0  0  0  0  0  0  0  0  0  0  0
   26.2412  -21.6989   -9.6319 N   0  0  0  0  0  0  0  0  0  0  0  0
   24.9916  -21.0715   -9.7967 C   0  0  0  0  0  0  0  0  0  0  0  0
   24.0267  -21.3654   -9.0512 O   0  0  0  0  0  0  0  0  0  0  0  0
   24.7523  -20.0388  -10.8516 C   0  0  0  0  0  0  0  0  0  0  0  0
   25.9062  -19.9594  -11.7774 C   0  0  0  0  0  0  0  0  0  0  0  0
   25.7382  -20.5056  -13.1415 C   0  0  2  0  0  0  0  0  0  0  0  0
   26.8963  -20.4722  -13.9904 N   0  0  0  0  0  0  0  0  0  0  0  0
   24.4634  -20.1684  -13.8156 C   0  0  0  0  0  0  0  0  0  0  0  0
   24.3334  -19.0221  -14.2931 O   0  0  0  0  0  0  0  0  0  0  0  0
   20.6127  -21.5336  -16.2075 O   0  0  0  0  0  0  0  0  0  0  0  0
   21.7811  -21.9215  -15.5537 C   0  0  0  0  0  0  0  0  0  0  0  0
   22.1667  -20.7801  -14.6382 C   0  0  2  0  0  0  0  0  0  0  0  0
   23.4162  -21.0936  -13.9222 N   0  0  0  0  0  0  0  0  0  0  0  0
   21.0951  -20.6670  -13.6039 C   0  0  0  0  0  0  0  0  0  0  0  0
   21.3364  -20.9437  -12.2651 O   0  0  0  0  0  0  0  0  0  0  0  0
   19.9157  -20.3143  -13.8941 O   0  0  0  0  0  0  0  0  0  0  0  0
  1  2  1  0
  2  3  1  0
  4  3  1  0
  5  4  1  0
  5  1  1  0
  5  6  1  1
  6  7  2  0
  9  8  1  0
  9 11  1  0
 10  9  2  0
 11 12  1  0
 13 12  1  1
 13 15  1  0
 13 14  1  0
 14  6  1  0
 15 16  2  0
 15 20  1  0
 17 18  1  0
 19 18  1  6
 19 21  1  0
 20 19  1  0
 21 23  2  0
 21 22  1  0
M  END
$$$$
