PQS.pdb
     RDKit          3D

 23 23  0  0  1  0  0  0  0  0999 V2000
   17.8183  -11.2650  -17.2256 N   0  0  0  0  0  0  0  0  0  0  0  0
   17.3243  -12.5811  -17.5454 C   0  0  0  0  0  0  0  0  0  0  0  0
   18.1038  -13.5734  -16.7461 C   0  0  0  0  0  0  0  0  0  0  0  0
   19.2185  -12.7410  -16.1473 C   0  0  0  0  0  0  0  0  0  0  0  0
   18.5717  -11.3905  -16.0059 C   0  0  1  0  0  0  0  0  0  0  0  0
   19.5867  -10.3025  -15.8693 C   0  0  0  0  0  0  0  0  0  0  0  0
   20.3350  -10.2542  -14.8613 O   0  0  0  0  0  0  0  0  0  0  0  0
   22.3621   -7.2818  -20.6306 N   0  0  0  0  0  0  0  0  0  0  0  0
   22.7956   -6.5196  -19.5291 C   0  0  0  0  0  0  0  0  0  0  0  0
   23.6182   -5.5853  -19.6836 O   0  0  0  0  0  0  0  0  0  0  0  0
   22.3068   -6.7789  -18.1397 C   0  0  0  0  0  0  0  0  0  0  0  0
   21.2991   -7.8649  -18.1338 C   0  0  0  0  0  0  0  0  0  0  0  0
   20.7020   -8.2483  -16.8362 C   0  0  2  0  0  0  0  0  0  0  0  0
   19.7292   -9.3045  -16.8675 N   0  0  0  0  0  0  0  0  0  0  0  0
   20.3746   -7.1283  -15.9242 C   0  0  0  0  0  0  0  0  0  0  0  0
   19.3594   -6.4444  -16.1700 O   0  0  0  0  0  0  0  0  0  0  0  0
   21.5158   -7.0949  -12.1512 O   0  0  0  0  0  0  0  0  0  0  0  0
   20.4931   -6.2271  -12.5305 C   0  0  0  0  0  0  0  0  0  0  0  0
   20.8518   -5.7065  -13.9053 C   0  0  2  0  0  0  0  0  0  0  0  0
   21.1710   -6.8236  -14.8120 N   0  0  0  0  0  0  0  0  0  0  0  0
   22.1018   -4.9024  -13.7567 C   0  0  0  0  0  0  0  0  0  0  0  0
   22.1397   -3.7399  -12.9988 O   0  0  0  0  0  0  0  0  0  0  0  0
   23.1870   -5.2387  -14.3124 O   0  0  0  0  0  0  0  0  0  0  0  0
  1  2  1  0
  2  3  1  0
  4  3  1  0
  5  4  1  0
  5  1  1  0
  5  6  1  6
  6  7  2  0
  9  8  1  0
  9 11  1  0
 10  9  2  0
 11 12  1  0
 13 12  1  6
 13 15  1  0
 13 14  1  0
 14  6  1  0
 15 16  2  0
 15 20  1  0
 17 18  1  0
 19 18  1  1
 19 21  1  0
 20 19  1  0
 21 23  2  0
 21 22  1  0
M  END
$$$$
