ETP.pdb
     RDKit          3D

 24 24  0  0  1  0  0  0  0  0999 V2000
   12.0256  -16.4265   20.4359 N   0  0  0  0  0  0  0  0  0  0  0  0
   11.2403  -16.8542   21.5446 C   0  0  1  0  0  0  0  0  0  0  0  0
   11.9578  -17.6167   22.6013 C   0  0  0  0  0  0  0  0  0  0  0  0
   13.3546  -17.2090   22.9135 C   0  0  0  0  0  0  0  0  0  0  0  0
   14.0686  -17.9870   23.9266 C   0  0  0  0  0  0  0  0  0  0  0  0
   13.6152  -18.2547   25.0536 O   0  0  0  0  0  0  0  0  0  0  0  0
   10.4050  -15.7548   22.1413 C   0  0  0  0  0  0  0  0  0  0  0  0
   10.9086  -14.6261   22.3687 O   0  0  0  0  0  0  0  0  0  0  0  0
   15.3641  -18.4966   23.6682 O   0  0  0  0  0  0  0  0  0  0  0  0
    6.8743  -14.6840   20.9635 C   0  0  0  0  0  0  0  0  0  0  0  0
    6.8191  -14.8918   22.4596 C   0  0  1  0  0  0  0  0  0  0  0  0
    6.2919  -16.1738   22.6443 O   0  0  0  0  0  0  0  0  0  0  0  0
    8.2467  -14.8296   22.9887 C   0  0  2  0  0  0  0  0  0  0  0  0
    9.0322  -15.9179   22.4760 N   0  0  0  0  0  0  0  0  0  0  0  0
    8.2697  -14.6387   24.4353 C   0  0  0  0  0  0  0  0  0  0  0  0
    8.9604  -15.4737   25.1455 O   0  0  0  0  0  0  0  0  0  0  0  0
    7.6237  -13.6382   25.2010 N   0  0  0  0  0  0  0  0  0  0  0  0
    6.7683  -12.6097   24.6898 C   0  0  0  0  0  0  0  0  0  0  0  0
    6.1075  -11.9690   25.9142 C   0  0  0  0  0  0  0  0  0  0  0  0
    7.1269  -12.2057   27.0163 C   0  0  0  0  0  0  0  0  0  0  0  0
    7.7459  -13.5106   26.6388 C   0  0  1  0  0  0  0  0  0  0  0  0
    7.1113  -14.6618   27.3324 C   0  0  0  0  0  0  0  0  0  0  0  0
    6.2349  -15.4765   26.6497 O   0  0  0  0  0  0  0  0  0  0  0  0
    7.3697  -14.8919   28.5279 O   0  0  0  0  0  0  0  0  0  0  0  0
  2  1  1  6
  3  2  1  0
  3  4  1  0
  4  5  1  0
  5  6  2  0
  5  9  1  0
  7  2  1  0
  7  8  2  0
 11 10  1  6
 11 13  1  0
 12 11  1  0
 13 14  1  1
 13 15  1  0
 14  7  1  0
 15 17  1  0
 16 15  2  0
 17 21  1  0
 17 18  1  0
 18 19  1  0
 20 21  1  0
 20 19  1  0
 21 22  1  1
 22 24  2  0
 22 23  1  0
M  END
$$$$
