ETP.pdb
     RDKit          3D

 24 24  0  0  1  0  0  0  0  0999 V2000
   11.1039  -16.7232   19.5786 N   0  0  0  0  0  0  0  0  0  0  0  0
   10.9896  -16.7785   20.9972 C   0  0  1  0  0  0  0  0  0  0  0  0
   12.2640  -16.9114   21.7531 C   0  0  0  0  0  0  0  0  0  0  0  0
   13.1912  -18.0030   21.3491 C   0  0  0  0  0  0  0  0  0  0  0  0
   14.5058  -18.0368   21.9911 C   0  0  0  0  0  0  0  0  0  0  0  0
   15.5605  -17.6601   21.4498 O   0  0  0  0  0  0  0  0  0  0  0  0
   10.1319  -15.6828   21.5682 C   0  0  0  0  0  0  0  0  0  0  0  0
   10.3682  -14.4804   21.2898 O   0  0  0  0  0  0  0  0  0  0  0  0
   14.6534  -18.5188   23.3143 O   0  0  0  0  0  0  0  0  0  0  0  0
    6.6721  -14.8092   21.1527 C   0  0  0  0  0  0  0  0  0  0  0  0
    6.7939  -14.9813   22.6493 C   0  0  1  0  0  0  0  0  0  0  0  0
    6.3379  -16.2753   22.9197 O   0  0  0  0  0  0  0  0  0  0  0  0
    8.2690  -14.8579   23.0110 C   0  0  2  0  0  0  0  0  0  0  0  0
    9.0308  -15.9307   22.4339 N   0  0  0  0  0  0  0  0  0  0  0  0
    8.4485  -14.6319   24.4415 C   0  0  0  0  0  0  0  0  0  0  0  0
    9.2433  -15.4273   25.0853 O   0  0  0  0  0  0  0  0  0  0  0  0
    7.8590  -13.6345   25.2555 N   0  0  0  0  0  0  0  0  0  0  0  0
    6.9546  -12.6157   24.8141 C   0  0  0  0  0  0  0  0  0  0  0  0
    6.3918  -11.9766   26.0874 C   0  0  0  0  0  0  0  0  0  0  0  0
    7.5014  -12.2001   27.1016 C   0  0  0  0  0  0  0  0  0  0  0  0
    8.0991  -13.5007   26.6777 C   0  0  1  0  0  0  0  0  0  0  0  0
    7.5350  -14.6551   27.4249 C   0  0  0  0  0  0  0  0  0  0  0  0
    7.9839  -14.9354   28.6968 O   0  0  0  0  0  0  0  0  0  0  0  0
    6.6580  -15.3688   26.9047 O   0  0  0  0  0  0  0  0  0  0  0  0
  2  1  1  6
  3  2  1  0
  3  4  1  0
  4  5  1  0
  5  6  2  0
  5  9  1  0
  7  2  1  0
  7  8  2  0
 11 10  1  6
 11 13  1  0
 12 11  1  0
 13 14  1  1
 13 15  1  0
 14  7  1  0
 15 17  1  0
 16 15  2  0
 17 21  1  0
 17 18  1  0
 18 19  1  0
 20 21  1  0
 20 19  1  0
 21 22  1  1
 22 24  2  0
 22 23  1  0
M  END
$$$$
