ETP.pdb
     RDKit          3D

 24 24  0  0  1  0  0  0  0  0999 V2000
   11.8720  -16.7432   20.1336 N   0  0  0  0  0  0  0  0  0  0  0  0
   11.0974  -17.1210   21.2676 C   0  0  1  0  0  0  0  0  0  0  0  0
   11.7945  -17.9413   22.2942 C   0  0  0  0  0  0  0  0  0  0  0  0
   12.8466  -17.2738   23.1080 C   0  0  0  0  0  0  0  0  0  0  0  0
   13.5667  -18.0991   24.0784 C   0  0  0  0  0  0  0  0  0  0  0  0
   14.5975  -18.7460   23.8208 O   0  0  0  0  0  0  0  0  0  0  0  0
   10.3660  -15.9684   21.8992 C   0  0  0  0  0  0  0  0  0  0  0  0
   10.9573  -14.8800   22.1113 O   0  0  0  0  0  0  0  0  0  0  0  0
   13.1111  -18.2097   25.4145 O   0  0  0  0  0  0  0  0  0  0  0  0
    6.9395  -14.5725   20.8799 C   0  0  0  0  0  0  0  0  0  0  0  0
    6.8897  -14.8115   22.3715 C   0  0  1  0  0  0  0  0  0  0  0  0
    6.2361  -16.0366   22.5367 O   0  0  0  0  0  0  0  0  0  0  0  0
    8.3252  -14.9100   22.8729 C   0  0  2  0  0  0  0  0  0  0  0  0
    8.9985  -16.0350   22.2849 N   0  0  0  0  0  0  0  0  0  0  0  0
    8.3890  -14.8041   24.3269 C   0  0  0  0  0  0  0  0  0  0  0  0
    9.0380  -15.7206   24.9731 O   0  0  0  0  0  0  0  0  0  0  0  0
    7.8244  -13.8100   25.1622 N   0  0  0  0  0  0  0  0  0  0  0  0
    7.1098  -12.6494   24.7227 C   0  0  0  0  0  0  0  0  0  0  0  0
    6.4712  -12.0510   25.9798 C   0  0  0  0  0  0  0  0  0  0  0  0
    7.4102  -12.5000   27.0874 C   0  0  0  0  0  0  0  0  0  0  0  0
    7.8979  -13.8272   26.6088 C   0  0  1  0  0  0  0  0  0  0  0  0
    7.1116  -14.9569   27.1695 C   0  0  0  0  0  0  0  0  0  0  0  0
    7.4084  -15.4446   28.4233 O   0  0  0  0  0  0  0  0  0  0  0  0
    6.1857  -15.4632   26.5096 O   0  0  0  0  0  0  0  0  0  0  0  0
  2  1  1  6
  3  2  1  0
  3  4  1  0
  4  5  1  0
  5  6  2  0
  5  9  1  0
  7  2  1  0
  7  8  2  0
 11 10  1  6
 11 13  1  0
 12 11  1  0
 13 14  1  1
 13 15  1  0
 14  7  1  0
 15 17  1  0
 16 15  2  0
 17 21  1  0
 17 18  1  0
 18 19  1  0
 20 21  1  0
 20 19  1  0
 21 22  1  1
 22 24  2  0
 22 23  1  0
M  END
$$$$
