ETP.pdb
     RDKit          3D

 24 24  0  0  1  0  0  0  0  0999 V2000
   11.7109  -17.1315   20.1596 N   0  0  0  0  0  0  0  0  0  0  0  0
   10.7876  -17.3573   21.2204 C   0  0  1  0  0  0  0  0  0  0  0  0
   11.2721  -18.2059   22.3421 C   0  0  0  0  0  0  0  0  0  0  0  0
   12.7410  -18.2651   22.5733 C   0  0  0  0  0  0  0  0  0  0  0  0
   13.2138  -19.1250   23.6589 C   0  0  0  0  0  0  0  0  0  0  0  0
   13.7154  -20.2512   23.4937 O   0  0  0  0  0  0  0  0  0  0  0  0
   10.1487  -16.0953   21.7317 C   0  0  0  0  0  0  0  0  0  0  0  0
   10.7999  -15.0210   21.7634 O   0  0  0  0  0  0  0  0  0  0  0  0
   13.1220  -18.7047   25.0079 O   0  0  0  0  0  0  0  0  0  0  0  0
    6.8200  -14.3702   20.8943 C   0  0  0  0  0  0  0  0  0  0  0  0
    6.8241  -14.6287   22.3834 C   0  0  1  0  0  0  0  0  0  0  0  0
    6.0785  -15.7974   22.5666 O   0  0  0  0  0  0  0  0  0  0  0  0
    8.2693  -14.8552   22.8101 C   0  0  2  0  0  0  0  0  0  0  0  0
    8.8060  -16.0391   22.1978 N   0  0  0  0  0  0  0  0  0  0  0  0
    8.4190  -14.7497   24.2579 C   0  0  0  0  0  0  0  0  0  0  0  0
    9.0021  -15.7256   24.8793 O   0  0  0  0  0  0  0  0  0  0  0  0
    8.0045  -13.6983   25.1109 N   0  0  0  0  0  0  0  0  0  0  0  0
    7.3708  -12.4819   24.6989 C   0  0  0  0  0  0  0  0  0  0  0  0
    6.8750  -11.8129   25.9846 C   0  0  0  0  0  0  0  0  0  0  0  0
    7.8412  -12.3337   27.0358 C   0  0  0  0  0  0  0  0  0  0  0  0
    8.1729  -13.7056   26.5496 C   0  0  1  0  0  0  0  0  0  0  0  0
    7.3262  -14.7516   27.1805 C   0  0  0  0  0  0  0  0  0  0  0  0
    6.3460  -15.3787   26.4430 O   0  0  0  0  0  0  0  0  0  0  0  0
    7.5007  -15.0628   28.3729 O   0  0  0  0  0  0  0  0  0  0  0  0
  2  1  1  6
  3  2  1  0
  3  4  1  0
  4  5  1  0
  5  6  2  0
  5  9  1  0
  7  2  1  0
  7  8  2  0
 11 10  1  6
 11 13  1  0
 12 11  1  0
 13 14  1  1
 13 15  1  0
 14  7  1  0
 15 17  1  0
 16 15  2  0
 17 21  1  0
 17 18  1  0
 18 19  1  0
 20 21  1  0
 20 19  1  0
 21 22  1  1
 22 24  2  0
 22 23  1  0
M  END
$$$$
