ETP.pdb
     RDKit          3D

 24 24  0  0  1  0  0  0  0  0999 V2000
   13.6605  -14.6466   18.7011 N   0  0  0  0  0  0  0  0  0  0  0  0
   12.4667  -15.4015   18.8843 C   0  0  1  0  0  0  0  0  0  0  0  0
   12.6433  -16.8568   19.1372 C   0  0  0  0  0  0  0  0  0  0  0  0
   13.8604  -17.2816   19.8809 C   0  0  0  0  0  0  0  0  0  0  0  0
   14.0399  -18.7161   20.1076 C   0  0  0  0  0  0  0  0  0  0  0  0
   14.7535  -19.4533   19.4042 O   0  0  0  0  0  0  0  0  0  0  0  0
   11.5221  -14.7883   19.8812 C   0  0  0  0  0  0  0  0  0  0  0  0
   11.9665  -14.1542   20.8710 O   0  0  0  0  0  0  0  0  0  0  0  0
   13.3856  -19.3671   21.1814 O   0  0  0  0  0  0  0  0  0  0  0  0
    8.1610  -12.9040   18.9525 C   0  0  0  0  0  0  0  0  0  0  0  0
    7.8952  -13.8972   20.0602 C   0  0  1  0  0  0  0  0  0  0  0  0
    7.3614  -15.0281   19.4344 O   0  0  0  0  0  0  0  0  0  0  0  0
    9.2319  -14.2371   20.7081 C   0  0  2  0  0  0  0  0  0  0  0  0
   10.1073  -14.8841   19.7703 N   0  0  0  0  0  0  0  0  0  0  0  0
    9.0458  -14.9082   21.9905 C   0  0  0  0  0  0  0  0  0  0  0  0
    9.4075  -16.1489   22.0829 O   0  0  0  0  0  0  0  0  0  0  0  0
    8.5084  -14.3809   23.1896 N   0  0  0  0  0  0  0  0  0  0  0  0
    8.0589  -13.0359   23.3892 C   0  0  0  0  0  0  0  0  0  0  0  0
    7.3205  -13.0370   24.7313 C   0  0  0  0  0  0  0  0  0  0  0  0
    7.9866  -14.1749   25.4873 C   0  0  0  0  0  0  0  0  0  0  0  0
    8.3403  -15.1447   24.4089 C   0  0  1  0  0  0  0  0  0  0  0  0
    7.3114  -16.2034   24.2376 C   0  0  0  0  0  0  0  0  0  0  0  0
    7.1343  -17.1541   25.2188 O   0  0  0  0  0  0  0  0  0  0  0  0
    6.6092  -16.2332   23.2104 O   0  0  0  0  0  0  0  0  0  0  0  0
  2  1  1  1
  3  2  1  0
  3  4  1  0
  4  5  1  0
  5  6  2  0
  5  9  1  0
  7  2  1  0
  7  8  2  0
 11 10  1  6
 11 13  1  0
 12 11  1  0
 13 14  1  6
 13 15  1  0
 14  7  1  0
 15 17  1  0
 16 15  2  0
 17 21  1  0
 17 18  1  0
 18 19  1  0
 20 21  1  0
 20 19  1  0
 21 22  1  6
 22 24  2  0
 22 23  1  0
M  END
$$$$
