ETP.pdb
     RDKit          3D

 24 24  0  0  1  0  0  0  0  0999 V2000
   11.4129  -17.2027   21.5429 N   0  0  0  0  0  0  0  0  0  0  0  0
   10.9147  -16.1750   20.6919 C   0  0  1  0  0  0  0  0  0  0  0  0
   10.6082  -16.5738   19.2919 C   0  0  0  0  0  0  0  0  0  0  0  0
    9.9271  -17.8805   19.0839 C   0  0  0  0  0  0  0  0  0  0  0  0
    9.6424  -18.2750   17.7037 C   0  0  0  0  0  0  0  0  0  0  0  0
    8.4983  -18.4250   17.2391 O   0  0  0  0  0  0  0  0  0  0  0  0
    9.7758  -15.4013   21.2973 C   0  0  0  0  0  0  0  0  0  0  0  0
    8.9226  -14.8456   20.5609 O   0  0  0  0  0  0  0  0  0  0  0  0
   10.6948  -18.5162   16.7878 O   0  0  0  0  0  0  0  0  0  0  0  0
    7.1747  -15.0409   21.1924 C   0  0  0  0  0  0  0  0  0  0  0  0
    7.1578  -15.2271   22.6922 C   0  0  1  0  0  0  0  0  0  0  0  0
    7.1578  -16.6096   22.9018 O   0  0  0  0  0  0  0  0  0  0  0  0
    8.4352  -14.6112   23.2496 C   0  0  2  0  0  0  0  0  0  0  0  0
    9.5972  -15.2539   22.7007 N   0  0  0  0  0  0  0  0  0  0  0  0
    8.3817  -14.5008   24.7037 C   0  0  0  0  0  0  0  0  0  0  0  0
    9.0932  -15.3296   25.4007 O   0  0  0  0  0  0  0  0  0  0  0  0
    7.6387  -13.5873   25.4899 N   0  0  0  0  0  0  0  0  0  0  0  0
    6.6577  -12.6641   25.0039 C   0  0  0  0  0  0  0  0  0  0  0  0
    5.9519  -12.1120   26.2463 C   0  0  0  0  0  0  0  0  0  0  0  0
    7.0150  -12.2326   27.3257 C   0  0  0  0  0  0  0  0  0  0  0  0
    7.7752  -13.4536   26.9259 C   0  0  1  0  0  0  0  0  0  0  0  0
    7.2951  -14.6750   27.6234 C   0  0  0  0  0  0  0  0  0  0  0  0
    7.8020  -15.0027   28.8618 O   0  0  0  0  0  0  0  0  0  0  0  0
    6.4363  -15.4024   27.0919 O   0  0  0  0  0  0  0  0  0  0  0  0
  2  1  1  1
  3  2  1  0
  3  4  1  0
  4  5  1  0
  5  6  2  0
  5  9  1  0
  7  2  1  0
  7  8  2  0
 11 10  1  6
 11 13  1  0
 12 11  1  0
 13 14  1  1
 13 15  1  0
 14  7  1  0
 15 17  1  0
 16 15  2  0
 17 21  1  0
 17 18  1  0
 18 19  1  0
 20 21  1  0
 20 19  1  0
 21 22  1  1
 22 24  2  0
 22 23  1  0
M  END
$$$$
