ETP.pdb
     RDKit          3D

 24 24  0  0  1  0  0  0  0  0999 V2000
   10.9206  -16.7788   19.5945 N   0  0  0  0  0  0  0  0  0  0  0  0
   11.1348  -16.5825   20.9889 C   0  0  1  0  0  0  0  0  0  0  0  0
   12.5449  -16.3687   21.4120 C   0  0  0  0  0  0  0  0  0  0  0  0
   12.8026  -16.1642   22.8634 C   0  0  0  0  0  0  0  0  0  0  0  0
   14.0826  -16.6397   23.3896 C   0  0  0  0  0  0  0  0  0  0  0  0
   15.1914  -16.3458   22.9083 O   0  0  0  0  0  0  0  0  0  0  0  0
   10.2250  -15.5470   21.5906 C   0  0  0  0  0  0  0  0  0  0  0  0
   10.3384  -14.3374   21.2692 O   0  0  0  0  0  0  0  0  0  0  0  0
   14.1295  -17.4928   24.5187 O   0  0  0  0  0  0  0  0  0  0  0  0
    6.7537  -15.0896   21.2359 C   0  0  0  0  0  0  0  0  0  0  0  0
    6.8897  -15.1304   22.7406 C   0  0  1  0  0  0  0  0  0  0  0  0
    6.5494  -16.4337   23.1161 O   0  0  0  0  0  0  0  0  0  0  0  0
    8.3480  -14.8492   23.0815 C   0  0  2  0  0  0  0  0  0  0  0  0
    9.2078  -15.8617   22.5338 N   0  0  0  0  0  0  0  0  0  0  0  0
    8.5151  -14.5557   24.5013 C   0  0  0  0  0  0  0  0  0  0  0  0
    9.4462  -15.1863   25.1447 O   0  0  0  0  0  0  0  0  0  0  0  0
    7.7809  -13.6500   25.3047 N   0  0  0  0  0  0  0  0  0  0  0  0
    6.6955  -12.8257   24.8650 C   0  0  0  0  0  0  0  0  0  0  0  0
    6.0657  -12.2506   26.1374 C   0  0  0  0  0  0  0  0  0  0  0  0
    7.2274  -12.2349   27.1172 C   0  0  0  0  0  0  0  0  0  0  0  0
    8.0357  -13.4229   26.7125 C   0  0  1  0  0  0  0  0  0  0  0  0
    7.7107  -14.6309   27.5150 C   0  0  0  0  0  0  0  0  0  0  0  0
    8.2457  -14.7824   28.7754 O   0  0  0  0  0  0  0  0  0  0  0  0
    6.9563  -15.5057   27.0516 O   0  0  0  0  0  0  0  0  0  0  0  0
  2  1  1  6
  3  2  1  0
  3  4  1  0
  4  5  1  0
  5  6  2  0
  5  9  1  0
  7  2  1  0
  7  8  2  0
 11 10  1  6
 11 13  1  0
 12 11  1  0
 13 14  1  1
 13 15  1  0
 14  7  1  0
 15 17  1  0
 16 15  2  0
 17 21  1  0
 17 18  1  0
 18 19  1  0
 20 21  1  0
 20 19  1  0
 21 22  1  1
 22 24  2  0
 22 23  1  0
M  END
$$$$
