ETP.pdb
     RDKit          3D

 24 24  0  0  1  0  0  0  0  0999 V2000
   11.6593  -16.9007   19.9263 N   0  0  0  0  0  0  0  0  0  0  0  0
   10.9867  -17.1760   21.1512 C   0  0  1  0  0  0  0  0  0  0  0  0
   11.7898  -17.8577   22.2016 C   0  0  0  0  0  0  0  0  0  0  0  0
   13.2637  -17.6531   22.1797 C   0  0  0  0  0  0  0  0  0  0  0  0
   14.0505  -18.3409   23.2042 C   0  0  0  0  0  0  0  0  0  0  0  0
   14.4412  -19.5185   23.1154 O   0  0  0  0  0  0  0  0  0  0  0  0
   10.2601  -15.9844   21.7119 C   0  0  0  0  0  0  0  0  0  0  0  0
   10.7594  -14.8347   21.6204 O   0  0  0  0  0  0  0  0  0  0  0  0
   14.4236  -17.6768   24.3978 O   0  0  0  0  0  0  0  0  0  0  0  0
    6.8445  -14.7650   20.9234 C   0  0  0  0  0  0  0  0  0  0  0  0
    6.8653  -14.8984   22.4288 C   0  0  1  0  0  0  0  0  0  0  0  0
    6.2593  -16.1273   22.7081 O   0  0  0  0  0  0  0  0  0  0  0  0
    8.3231  -14.9188   22.8717 C   0  0  2  0  0  0  0  0  0  0  0  0
    8.9985  -16.0800   22.3619 N   0  0  0  0  0  0  0  0  0  0  0  0
    8.4467  -14.6744   24.3051 C   0  0  0  0  0  0  0  0  0  0  0  0
    9.1512  -15.5081   25.0032 O   0  0  0  0  0  0  0  0  0  0  0  0
    7.8884  -13.6212   25.0693 N   0  0  0  0  0  0  0  0  0  0  0  0
    7.1603  -12.5018   24.5521 C   0  0  0  0  0  0  0  0  0  0  0  0
    6.5368  -11.8108   25.7687 C   0  0  0  0  0  0  0  0  0  0  0  0
    7.4948  -12.1678   26.8933 C   0  0  0  0  0  0  0  0  0  0  0  0
    7.9835  -13.5258   26.5116 C   0  0  1  0  0  0  0  0  0  0  0  0
    7.2125  -14.6125   27.1702 C   0  0  0  0  0  0  0  0  0  0  0  0
    7.4778  -14.9460   28.4802 O   0  0  0  0  0  0  0  0  0  0  0  0
    6.3278  -15.2216   26.5414 O   0  0  0  0  0  0  0  0  0  0  0  0
  2  1  1  6
  3  2  1  0
  3  4  1  0
  4  5  1  0
  5  6  2  0
  5  9  1  0
  7  2  1  0
  7  8  2  0
 11 10  1  6
 11 13  1  0
 12 11  1  0
 13 14  1  1
 13 15  1  0
 14  7  1  0
 15 17  1  0
 16 15  2  0
 17 21  1  0
 17 18  1  0
 18 19  1  0
 20 21  1  0
 20 19  1  0
 21 22  1  1
 22 24  2  0
 22 23  1  0
M  END
$$$$
