ETP.pdb
     RDKit          3D

 24 24  0  0  1  0  0  0  0  0999 V2000
   11.2563  -19.1424   16.5748 N   0  0  0  0  0  0  0  0  0  0  0  0
   11.1297  -17.8716   15.9442 C   0  0  1  0  0  0  0  0  0  0  0  0
   10.9285  -17.8880   14.4703 C   0  0  0  0  0  0  0  0  0  0  0  0
   10.8144  -16.5754   13.7784 C   0  0  0  0  0  0  0  0  0  0  0  0
   10.6623  -16.5967   12.3231 C   0  0  0  0  0  0  0  0  0  0  0  0
    9.8291  -17.2920   11.7151 O   0  0  0  0  0  0  0  0  0  0  0  0
   10.1320  -16.9699   16.6179 C   0  0  0  0  0  0  0  0  0  0  0  0
    9.9992  -15.7775   16.2441 O   0  0  0  0  0  0  0  0  0  0  0  0
   11.4874  -15.7956   11.4970 O   0  0  0  0  0  0  0  0  0  0  0  0
    6.5371  -17.8761   17.4809 C   0  0  0  0  0  0  0  0  0  0  0  0
    7.0975  -17.2265   18.7252 C   0  0  1  0  0  0  0  0  0  0  0  0
    7.3878  -18.2763   19.6021 O   0  0  0  0  0  0  0  0  0  0  0  0
    8.3785  -16.5010   18.3319 C   0  0  2  0  0  0  0  0  0  0  0  0
    9.2996  -17.3971   17.6892 N   0  0  0  0  0  0  0  0  0  0  0  0
    8.9068  -15.7152   19.4424 C   0  0  0  0  0  0  0  0  0  0  0  0
    9.8974  -16.2085   20.1162 O   0  0  0  0  0  0  0  0  0  0  0  0
    8.4781  -14.4478   19.9056 N   0  0  0  0  0  0  0  0  0  0  0  0
    7.4760  -13.6253   19.2972 C   0  0  0  0  0  0  0  0  0  0  0  0
    7.1791  -12.5125   20.3071 C   0  0  0  0  0  0  0  0  0  0  0  0
    8.4830  -12.3941   21.0788 C   0  0  0  0  0  0  0  0  0  0  0  0
    9.0096  -13.7910   21.0823 C   0  0  1  0  0  0  0  0  0  0  0  0
    8.6446  -14.5323   22.3177 C   0  0  0  0  0  0  0  0  0  0  0  0
    9.3021  -14.2650   23.4984 O   0  0  0  0  0  0  0  0  0  0  0  0
    7.7465  -15.3935   22.2884 O   0  0  0  0  0  0  0  0  0  0  0  0
  2  1  1  1
  3  2  1  0
  3  4  1  0
  4  5  1  0
  5  6  2  0
  5  9  1  0
  7  2  1  0
  7  8  2  0
 11 10  1  6
 11 13  1  0
 12 11  1  0
 13 14  1  1
 13 15  1  0
 14  7  1  0
 15 17  1  0
 16 15  2  0
 17 21  1  0
 17 18  1  0
 18 19  1  0
 20 21  1  0
 20 19  1  0
 21 22  1  1
 22 24  2  0
 22 23  1  0
M  END
$$$$
