LMF.pdb
     RDKit          3D

 28 28  0  0  1  0  0  0  0  0999 V2000
    9.1022  -13.2967   19.4597 C   0  0  0  0  0  0  0  0  0  0  0  0
    7.7234  -13.8196   19.1304 C   0  0  2  0  0  0  0  0  0  0  0  0
    6.8756  -12.6121   18.7589 C   0  0  0  0  0  0  0  0  0  0  0  0
    7.0531  -14.4875   20.3046 C   0  0  0  0  0  0  0  0  0  0  0  0
    7.9093  -15.5584   20.9315 C   0  0  2  0  0  0  0  0  0  0  0  0
    7.8997  -16.7851   20.1965 N   0  0  0  0  0  0  0  0  0  0  0  0
    7.5520  -15.8271   22.3355 C   0  0  0  0  0  0  0  0  0  0  0  0
    7.1884  -14.8913   23.0733 O   0  0  0  0  0  0  0  0  0  0  0  0
    5.2968  -22.1035   22.0340 C   0  0  0  0  0  0  0  0  0  0  0  0
    6.0055  -21.3293   23.4885 S   0  0  0  0  0  0  0  0  0  0  0  0
    6.2848  -19.5717   23.2809 C   0  0  0  0  0  0  0  0  0  0  0  0
    6.9191  -18.8800   24.4234 C   0  0  0  0  0  0  0  0  0  0  0  0
    7.2198  -17.4160   24.2573 C   0  0  2  0  0  0  0  0  0  0  0  0
    7.6014  -17.1366   22.9107 N   0  0  0  0  0  0  0  0  0  0  0  0
    8.2243  -16.9542   25.2490 C   0  0  0  0  0  0  0  0  0  0  0  0
    9.4364  -17.0154   24.9287 O   0  0  0  0  0  0  0  0  0  0  0  0
    7.8761  -16.4563   26.5196 N   0  0  0  0  0  0  0  0  0  0  0  0
    8.8816  -16.0196   27.4514 C   0  0  1  0  0  0  0  0  0  0  0  0
    8.4020  -14.8065   28.2298 C   0  0  0  0  0  0  0  0  0  0  0  0
    7.9753  -13.7019   27.3497 C   0  0  0  0  0  0  0  0  0  0  0  0
    6.6392  -13.4394   27.1396 C   0  0  0  0  0  0  0  0  0  0  0  0
    6.2769  -12.3952   26.3076 C   0  0  0  0  0  0  0  0  0  0  0  0
    7.2391  -11.6366   25.7043 C   0  0  0  0  0  0  0  0  0  0  0  0
    8.5791  -11.8796   25.8990 C   0  0  0  0  0  0  0  0  0  0  0  0
    8.9342  -12.9277   26.7340 C   0  0  0  0  0  0  0  0  0  0  0  0
    9.2213  -17.1361   28.3484 C   0  0  0  0  0  0  0  0  0  0  0  0
   10.1396  -17.0161   29.1812 O   0  0  0  0  0  0  0  0  0  0  0  0
    8.5253  -18.3238   28.2735 O   0  0  0  0  0  0  0  0  0  0  0  0
  2  1  1  1
  2  3  1  0
  4  2  1  0
  5  6  1  6
  5  4  1  0
  7  5  1  0
  8  7  2  0
  9 10  1  0
 10 11  1  0
 11 12  1  0
 13 12  1  6
 13 14  1  0
 14  7  1  0
 15 13  1  0
 15 16  2  0
 17 18  1  0
 17 15  1  0
 18 19  1  1
 20 19  1  0
 21 20  2  0
 22 21  1  0
 23 24  1  0
 23 22  2  0
 24 25  2  0
 25 20  1  0
 26 28  1  0
 26 18  1  0
 27 26  2  0
M  END
$$$$
