LMF.pdb
     RDKit          3D

 28 28  0  0  1  0  0  0  0  0999 V2000
    9.4880  -13.0582   18.6374 C   0  0  0  0  0  0  0  0  0  0  0  0
    7.9995  -13.2972   18.5358 C   0  0  2  0  0  0  0  0  0  0  0  0
    7.3613  -11.9514   18.2252 C   0  0  0  0  0  0  0  0  0  0  0  0
    7.3943  -13.7873   19.8272 C   0  0  0  0  0  0  0  0  0  0  0  0
    8.0239  -15.0670   20.3160 C   0  0  2  0  0  0  0  0  0  0  0  0
    7.7810  -16.1778   19.4489 N   0  0  0  0  0  0  0  0  0  0  0  0
    7.6142  -15.4184   21.6870 C   0  0  0  0  0  0  0  0  0  0  0  0
    7.6488  -14.5559   22.5854 O   0  0  0  0  0  0  0  0  0  0  0  0
    2.4811  -19.8576   21.2879 C   0  0  0  0  0  0  0  0  0  0  0  0
    3.8482  -19.8902   22.4486 S   0  0  0  0  0  0  0  0  0  0  0  0
    4.7964  -18.3699   22.4573 C   0  0  0  0  0  0  0  0  0  0  0  0
    5.9608  -18.3412   23.3680 C   0  0  0  0  0  0  0  0  0  0  0  0
    6.7913  -17.0876   23.3796 C   0  0  2  0  0  0  0  0  0  0  0  0
    7.1681  -16.7287   22.0506 N   0  0  0  0  0  0  0  0  0  0  0  0
    7.9547  -17.2180   24.2935 C   0  0  0  0  0  0  0  0  0  0  0  0
    9.0244  -17.6736   23.8206 O   0  0  0  0  0  0  0  0  0  0  0  0
    7.9069  -16.8555   25.6536 N   0  0  0  0  0  0  0  0  0  0  0  0
    9.0703  -16.9560   26.4942 C   0  0  1  0  0  0  0  0  0  0  0  0
    9.6099  -15.5767   26.8317 C   0  0  0  0  0  0  0  0  0  0  0  0
    8.5379  -14.6027   27.1122 C   0  0  0  0  0  0  0  0  0  0  0  0
    8.4238  -14.0124   28.3519 C   0  0  0  0  0  0  0  0  0  0  0  0
    7.4056  -13.1035   28.5781 C   0  0  0  0  0  0  0  0  0  0  0  0
    6.5265  -12.7993   27.5781 C   0  0  0  0  0  0  0  0  0  0  0  0
    6.6204  -13.3757   26.3326 C   0  0  0  0  0  0  0  0  0  0  0  0
    7.6433  -14.2855   26.1136 C   0  0  0  0  0  0  0  0  0  0  0  0
    8.7205  -17.7103   27.7087 C   0  0  0  0  0  0  0  0  0  0  0  0
    7.5464  -18.0766   27.9047 O   0  0  0  0  0  0  0  0  0  0  0  0
    9.6904  -18.0174   28.6392 O   0  0  0  0  0  0  0  0  0  0  0  0
  2  1  1  1
  2  3  1  0
  4  2  1  0
  5  6  1  6
  5  4  1  0
  7  5  1  0
  8  7  2  0
  9 10  1  0
 10 11  1  0
 11 12  1  0
 13 12  1  6
 13 14  1  0
 14  7  1  0
 15 13  1  0
 15 16  2  0
 17 18  1  0
 17 15  1  0
 18 19  1  1
 20 19  1  0
 21 20  2  0
 22 21  1  0
 23 24  1  0
 23 22  2  0
 24 25  2  0
 25 20  1  0
 26 28  1  0
 26 18  1  0
 27 26  2  0
M  END
$$$$
