LMF.pdb
     RDKit          3D

 28 28  0  0  1  0  0  0  0  0999 V2000
    8.6428  -14.4791   16.9911 C   0  0  0  0  0  0  0  0  0  0  0  0
    7.5299  -13.9495   17.8651 C   0  0  2  0  0  0  0  0  0  0  0  0
    7.0991  -12.6192   17.2655 C   0  0  0  0  0  0  0  0  0  0  0  0
    7.9746  -13.6749   19.2797 C   0  0  0  0  0  0  0  0  0  0  0  0
    8.3845  -14.9261   20.0140 C   0  0  2  0  0  0  0  0  0  0  0  0
    7.3958  -15.9577   19.9584 N   0  0  0  0  0  0  0  0  0  0  0  0
    8.7467  -14.6716   21.4193 C   0  0  0  0  0  0  0  0  0  0  0  0
    9.5942  -13.8005   21.6938 O   0  0  0  0  0  0  0  0  0  0  0  0
    6.8563  -11.4440   26.1862 C   0  0  0  0  0  0  0  0  0  0  0  0
    7.9476  -12.8396   26.4663 S   0  0  0  0  0  0  0  0  0  0  0  0
    7.2062  -14.4091   26.0216 C   0  0  0  0  0  0  0  0  0  0  0  0
    7.1302  -14.6993   24.5738 C   0  0  0  0  0  0  0  0  0  0  0  0
    8.4124  -15.0695   23.8807 C   0  0  2  0  0  0  0  0  0  0  0  0
    8.1633  -15.3884   22.5120 N   0  0  0  0  0  0  0  0  0  0  0  0
    9.1254  -16.1527   24.6047 C   0  0  0  0  0  0  0  0  0  0  0  0
    8.5493  -17.2622   24.7161 O   0  0  0  0  0  0  0  0  0  0  0  0
   10.4070  -15.9872   25.1649 N   0  0  0  0  0  0  0  0  0  0  0  0
   11.0713  -17.0694   25.8413 C   0  0  1  0  0  0  0  0  0  0  0  0
   10.4080  -17.3556   27.1776 C   0  0  0  0  0  0  0  0  0  0  0  0
   10.1166  -16.1263   27.9395 C   0  0  0  0  0  0  0  0  0  0  0  0
   11.1241  -15.4255   28.5658 C   0  0  0  0  0  0  0  0  0  0  0  0
   10.8127  -14.2770   29.2713 C   0  0  0  0  0  0  0  0  0  0  0  0
    9.5180  -13.8480   29.3417 C   0  0  0  0  0  0  0  0  0  0  0  0
    8.4955  -14.5308   28.7247 C   0  0  0  0  0  0  0  0  0  0  0  0
    8.8153  -15.6809   28.0197 C   0  0  0  0  0  0  0  0  0  0  0  0
   11.0636  -18.2559   24.9703 C   0  0  0  0  0  0  0  0  0  0  0  0
   10.3918  -18.2613   23.9216 O   0  0  0  0  0  0  0  0  0  0  0  0
   11.8004  -19.3709   25.3088 O   0  0  0  0  0  0  0  0  0  0  0  0
  2  1  1  6
  2  3  1  0
  4  2  1  0
  5  6  1  1
  5  4  1  0
  7  5  1  0
  8  7  2  0
  9 10  1  0
 10 11  1  0
 11 12  1  0
 13 12  1  1
 13 14  1  0
 14  7  1  0
 15 13  1  0
 15 16  2  0
 17 18  1  0
 17 15  1  0
 18 19  1  1
 20 19  1  0
 21 20  2  0
 22 21  1  0
 23 24  1  0
 23 22  2  0
 24 25  2  0
 25 20  1  0
 26 28  1  0
 26 18  1  0
 27 26  2  0
M  END
$$$$
