LMF.pdb
     RDKit          3D

 28 28  0  0  1  0  0  0  0  0999 V2000
    7.2061  -20.6590   20.1138 C   0  0  0  0  0  0  0  0  0  0  0  0
    8.4427  -19.9993   19.5496 C   0  0  2  0  0  0  0  0  0  0  0  0
    9.4402  -21.1123   19.2650 C   0  0  0  0  0  0  0  0  0  0  0  0
    9.0996  -19.0536   20.5234 C   0  0  0  0  0  0  0  0  0  0  0  0
    8.8879  -17.6056   20.1610 C   0  0  2  0  0  0  0  0  0  0  0  0
    9.5330  -17.2335   18.9403 N   0  0  0  0  0  0  0  0  0  0  0  0
    9.2996  -16.6819   21.2326 C   0  0  0  0  0  0  0  0  0  0  0  0
   10.4828  -16.2975   21.3000 O   0  0  0  0  0  0  0  0  0  0  0  0
    6.5011  -11.2875   25.5028 C   0  0  0  0  0  0  0  0  0  0  0  0
    6.4565  -13.0466   25.8505 S   0  0  0  0  0  0  0  0  0  0  0  0
    7.8701  -13.9275   25.1900 C   0  0  0  0  0  0  0  0  0  0  0  0
    7.6205  -14.7261   23.9710 C   0  0  0  0  0  0  0  0  0  0  0  0
    8.8035  -15.4146   23.3483 C   0  0  2  0  0  0  0  0  0  0  0  0
    8.3915  -16.1910   22.2238 N   0  0  0  0  0  0  0  0  0  0  0  0
    9.5574  -16.2083   24.3520 C   0  0  0  0  0  0  0  0  0  0  0  0
    9.0169  -17.2462   24.8058 O   0  0  0  0  0  0  0  0  0  0  0  0
   10.8395  -15.8476   24.8101 N   0  0  0  0  0  0  0  0  0  0  0  0
   11.5602  -16.6758   25.7400 C   0  0  1  0  0  0  0  0  0  0  0  0
   10.7262  -16.9403   26.9818 C   0  0  0  0  0  0  0  0  0  0  0  0
   10.3995  -15.7041   27.7179 C   0  0  0  0  0  0  0  0  0  0  0  0
   11.3930  -14.8494   28.1432 C   0  0  0  0  0  0  0  0  0  0  0  0
   11.0484  -13.6994   28.8307 C   0  0  0  0  0  0  0  0  0  0  0  0
    9.7352  -13.4207   29.0816 C   0  0  0  0  0  0  0  0  0  0  0  0
    8.7261  -14.2588   28.6670 C   0  0  0  0  0  0  0  0  0  0  0  0
    9.0792  -15.4092   27.9787 C   0  0  0  0  0  0  0  0  0  0  0  0
   11.9418  -17.9293   25.0697 C   0  0  0  0  0  0  0  0  0  0  0  0
   12.6532  -18.7654   25.6581 O   0  0  0  0  0  0  0  0  0  0  0  0
   11.5146  -18.1879   23.7846 O   0  0  0  0  0  0  0  0  0  0  0  0
  2  1  1  1
  2  3  1  0
  4  2  1  0
  5  6  1  6
  5  4  1  0
  7  5  1  0
  8  7  2  0
  9 10  1  0
 10 11  1  0
 11 12  1  0
 13 12  1  1
 13 14  1  0
 14  7  1  0
 15 13  1  0
 15 16  2  0
 17 18  1  0
 17 15  1  0
 18 19  1  1
 20 19  1  0
 21 20  2  0
 22 21  1  0
 23 24  1  0
 23 22  2  0
 24 25  2  0
 25 20  1  0
 26 28  1  0
 26 18  1  0
 27 26  2  0
M  END
$$$$
