LMF.pdb
     RDKit          3D

 28 28  0  0  1  0  0  0  0  0999 V2000
   10.4853  -19.7799   16.8215 C   0  0  0  0  0  0  0  0  0  0  0  0
   10.0134  -19.7591   18.2567 C   0  0  2  0  0  0  0  0  0  0  0  0
    8.5378  -20.1292   18.2367 C   0  0  0  0  0  0  0  0  0  0  0  0
   10.1196  -18.3945   18.8898 C   0  0  0  0  0  0  0  0  0  0  0  0
    9.8129  -18.4124   20.3657 C   0  0  2  0  0  0  0  0  0  0  0  0
    8.5309  -18.9708   20.6648 N   0  0  0  0  0  0  0  0  0  0  0  0
    9.9238  -17.0819   20.9889 C   0  0  0  0  0  0  0  0  0  0  0  0
   11.0046  -16.4637   20.9439 O   0  0  0  0  0  0  0  0  0  0  0  0
    7.4010  -12.1873   18.4914 C   0  0  0  0  0  0  0  0  0  0  0  0
    8.1667  -12.8124   19.9881 S   0  0  0  0  0  0  0  0  0  0  0  0
    7.1695  -14.0448   20.8233 C   0  0  0  0  0  0  0  0  0  0  0  0
    7.6215  -14.4307   22.1771 C   0  0  0  0  0  0  0  0  0  0  0  0
    8.9298  -15.1650   22.2797 C   0  0  2  0  0  0  0  0  0  0  0  0
    8.8305  -16.4464   21.6591 N   0  0  0  0  0  0  0  0  0  0  0  0
    9.3987  -15.2406   23.6868 C   0  0  0  0  0  0  0  0  0  0  0  0
   10.2571  -14.4065   24.0651 O   0  0  0  0  0  0  0  0  0  0  0  0
    8.9250  -16.1992   24.6035 N   0  0  0  0  0  0  0  0  0  0  0  0
    9.2660  -16.1295   25.9995 C   0  0  1  0  0  0  0  0  0  0  0  0
    8.0236  -15.9097   26.8456 C   0  0  0  0  0  0  0  0  0  0  0  0
    7.4546  -14.5591   26.6753 C   0  0  0  0  0  0  0  0  0  0  0  0
    8.1406  -13.4427   27.1012 C   0  0  0  0  0  0  0  0  0  0  0  0
    7.5754  -12.1924   26.9247 C   0  0  0  0  0  0  0  0  0  0  0  0
    6.3500  -12.0736   26.3335 C   0  0  0  0  0  0  0  0  0  0  0  0
    5.6464  -13.1736   25.9003 C   0  0  0  0  0  0  0  0  0  0  0  0
    6.2193  -14.4230   26.0807 C   0  0  0  0  0  0  0  0  0  0  0  0
    9.9685  -17.3645   26.3837 C   0  0  0  0  0  0  0  0  0  0  0  0
   10.3226  -17.5448   27.5641 O   0  0  0  0  0  0  0  0  0  0  0  0
   10.2401  -18.3317   25.4395 O   0  0  0  0  0  0  0  0  0  0  0  0
  2  1  1  6
  2  3  1  0
  4  2  1  0
  5  6  1  6
  5  4  1  0
  7  5  1  0
  8  7  2  0
  9 10  1  0
 10 11  1  0
 11 12  1  0
 13 12  1  1
 13 14  1  0
 14  7  1  0
 15 13  1  0
 15 16  2  0
 17 18  1  0
 17 15  1  0
 18 19  1  1
 20 19  1  0
 21 20  2  0
 22 21  1  0
 23 24  1  0
 23 22  2  0
 24 25  2  0
 25 20  1  0
 26 28  1  0
 26 18  1  0
 27 26  2  0
M  END
$$$$
