LMF.pdb
     RDKit          3D

 28 28  0  0  1  0  0  0  0  0999 V2000
    7.6479  -20.6188   19.7047 C   0  0  0  0  0  0  0  0  0  0  0  0
    9.0550  -20.0870   19.5628 C   0  0  2  0  0  0  0  0  0  0  0  0
    9.9908  -21.2717   19.7513 C   0  0  0  0  0  0  0  0  0  0  0  0
    9.4078  -19.0708   20.6197 C   0  0  0  0  0  0  0  0  0  0  0  0
    8.4933  -17.8724   20.6030 C   0  0  2  0  0  0  0  0  0  0  0  0
    8.1588  -17.4413   19.2812 N   0  0  0  0  0  0  0  0  0  0  0  0
    9.0299  -16.7330   21.3675 C   0  0  0  0  0  0  0  0  0  0  0  0
   10.2113  -16.3745   21.2001 O   0  0  0  0  0  0  0  0  0  0  0  0
    5.8675  -12.5351   26.3629 C   0  0  0  0  0  0  0  0  0  0  0  0
    6.7763  -11.8209   24.9912 S   0  0  0  0  0  0  0  0  0  0  0  0
    8.1074  -12.8704   24.4104 C   0  0  0  0  0  0  0  0  0  0  0  0
    7.7037  -14.0200   23.5730 C   0  0  0  0  0  0  0  0  0  0  0  0
    8.7871  -14.9725   23.1481 C   0  0  2  0  0  0  0  0  0  0  0  0
    8.2482  -15.9984   22.3149 N   0  0  0  0  0  0  0  0  0  0  0  0
    9.5253  -15.5095   24.3196 C   0  0  0  0  0  0  0  0  0  0  0  0
    9.0071  -15.3697   25.4542 O   0  0  0  0  0  0  0  0  0  0  0  0
   10.7689  -16.1615   24.2103 N   0  0  0  0  0  0  0  0  0  0  0  0
   11.8340  -15.8983   25.1411 C   0  0  1  0  0  0  0  0  0  0  0  0
   11.5762  -16.5986   26.4643 C   0  0  0  0  0  0  0  0  0  0  0  0
   10.6603  -15.8398   27.3372 C   0  0  0  0  0  0  0  0  0  0  0  0
   11.0277  -14.6183   27.8582 C   0  0  0  0  0  0  0  0  0  0  0  0
   10.1423  -13.9356   28.6729 C   0  0  0  0  0  0  0  0  0  0  0  0
    8.9184  -14.4729   28.9534 C   0  0  0  0  0  0  0  0  0  0  0  0
    8.5295  -15.6905   28.4450 C   0  0  0  0  0  0  0  0  0  0  0  0
    9.4221  -16.3686   27.6294 C   0  0  0  0  0  0  0  0  0  0  0  0
   13.1093  -16.3263   24.5439 C   0  0  0  0  0  0  0  0  0  0  0  0
   14.1889  -16.0384   25.0942 O   0  0  0  0  0  0  0  0  0  0  0  0
   13.1187  -17.0494   23.3701 O   0  0  0  0  0  0  0  0  0  0  0  0
  2  1  1  1
  2  3  1  0
  4  2  1  0
  5  6  1  6
  5  4  1  0
  7  5  1  0
  8  7  2  0
  9 10  1  0
 10 11  1  0
 11 12  1  0
 13 12  1  1
 13 14  1  0
 14  7  1  0
 15 13  1  0
 15 16  2  0
 17 18  1  0
 17 15  1  0
 18 19  1  1
 20 19  1  0
 21 20  2  0
 22 21  1  0
 23 24  1  0
 23 22  2  0
 24 25  2  0
 25 20  1  0
 26 28  1  0
 26 18  1  0
 27 26  2  0
M  END
$$$$
