LMF.pdb
     RDKit          3D

 28 28  0  0  1  0  0  0  0  0999 V2000
    9.8296  -13.4221   19.2479 C   0  0  0  0  0  0  0  0  0  0  0  0
    8.4114  -13.3740   18.7291 C   0  0  2  0  0  0  0  0  0  0  0  0
    7.9257  -11.9445   18.9174 C   0  0  0  0  0  0  0  0  0  0  0  0
    7.4731  -14.2665   19.5019 C   0  0  0  0  0  0  0  0  0  0  0  0
    7.8954  -15.7135   19.4790 C   0  0  2  0  0  0  0  0  0  0  0  0
    7.3985  -16.4242   18.3419 N   0  0  0  0  0  0  0  0  0  0  0  0
    7.5246  -16.4369   20.7078 C   0  0  0  0  0  0  0  0  0  0  0  0
    6.3707  -16.8884   20.8379 O   0  0  0  0  0  0  0  0  0  0  0  0
    6.3232  -22.4421   24.4588 C   0  0  0  0  0  0  0  0  0  0  0  0
    6.7439  -21.3666   23.0864 S   0  0  0  0  0  0  0  0  0  0  0  0
    7.2699  -19.7357   23.6100 C   0  0  0  0  0  0  0  0  0  0  0  0
    7.6501  -18.8024   22.5281 C   0  0  0  0  0  0  0  0  0  0  0  0
    8.1250  -17.4356   22.9373 C   0  0  2  0  0  0  0  0  0  0  0  0
    8.4407  -16.6537   21.7857 N   0  0  0  0  0  0  0  0  0  0  0  0
    9.2503  -17.5205   23.9028 C   0  0  0  0  0  0  0  0  0  0  0  0
   10.4054  -17.6958   23.4439 O   0  0  0  0  0  0  0  0  0  0  0  0
    9.0760  -17.4138   25.2963 N   0  0  0  0  0  0  0  0  0  0  0  0
    8.8310  -16.1418   25.9226 C   0  0  1  0  0  0  0  0  0  0  0  0
    7.6399  -15.4488   25.2833 C   0  0  0  0  0  0  0  0  0  0  0  0
    7.3451  -14.1430   25.9034 C   0  0  0  0  0  0  0  0  0  0  0  0
    7.6256  -12.9662   25.2439 C   0  0  0  0  0  0  0  0  0  0  0  0
    7.3353  -11.7605   25.8570 C   0  0  0  0  0  0  0  0  0  0  0  0
    6.7764  -11.7446   27.1031 C   0  0  0  0  0  0  0  0  0  0  0  0
    6.4875  -12.9063   27.7809 C   0  0  0  0  0  0  0  0  0  0  0  0
    6.7813  -14.1105   27.1601 C   0  0  0  0  0  0  0  0  0  0  0  0
    8.6239  -16.3495   27.3649 C   0  0  0  0  0  0  0  0  0  0  0  0
    7.7427  -17.1326   27.7669 O   0  0  0  0  0  0  0  0  0  0  0  0
    9.4041  -15.6786   28.2825 O   0  0  0  0  0  0  0  0  0  0  0  0
  2  1  1  1
  2  3  1  0
  4  2  1  0
  5  6  1  6
  5  4  1  0
  7  5  1  0
  8  7  2  0
  9 10  1  0
 10 11  1  0
 11 12  1  0
 13 12  1  6
 13 14  1  0
 14  7  1  0
 15 13  1  0
 15 16  2  0
 17 18  1  0
 17 15  1  0
 18 19  1  6
 20 19  1  0
 21 20  2  0
 22 21  1  0
 23 24  1  0
 23 22  2  0
 24 25  2  0
 25 20  1  0
 26 28  1  0
 26 18  1  0
 27 26  2  0
M  END
$$$$
