CGC.pdb
     RDKit          3D

 17 16  0  0  1  0  0  0  0  0999 V2000
   15.7555   -9.3075   -9.5543 N   0  0  0  0  0  0  0  0  0  0  0  0
   15.3339  -10.2413  -10.5942 C   0  0  1  0  0  0  0  0  0  0  0  0
   13.8506   -9.9963  -10.8863 C   0  0  0  0  0  0  0  0  0  0  0  0
   12.7748  -10.5699   -9.5713 S   0  0  0  0  0  0  0  0  0  0  0  0
   16.0892   -9.9428  -11.8227 C   0  0  0  0  0  0  0  0  0  0  0  0
   15.9152  -10.6788  -12.8352 O   0  0  0  0  0  0  0  0  0  0  0  0
   17.0108   -8.8774  -11.9646 N   0  0  0  0  0  0  0  0  0  0  0  0
   17.6060   -8.6116  -13.2560 C   0  0  0  0  0  0  0  0  0  0  0  0
   18.5499   -7.4605  -13.1579 C   0  0  0  0  0  0  0  0  0  0  0  0
   18.5648   -6.6816  -12.1711 O   0  0  0  0  0  0  0  0  0  0  0  0
   19.4899   -7.1804  -14.1818 N   0  0  0  0  0  0  0  0  0  0  0  0
   20.5121   -6.1977  -14.0363 C   0  0  1  0  0  0  0  0  0  0  0  0
   21.4828   -6.7322  -12.9738 C   0  0  0  0  0  0  0  0  0  0  0  0
   22.7538   -5.5466  -12.5564 S   0  0  0  0  0  0  0  0  0  0  0  0
   21.1938   -5.8234  -15.2636 C   0  0  0  0  0  0  0  0  0  0  0  0
   21.3935   -6.6318  -16.1953 O   0  0  0  0  0  0  0  0  0  0  0  0
   21.6496   -4.5313  -15.4350 O   0  0  0  0  0  0  0  0  0  0  0  0
  2  3  1  0
  2  1  1  1
  3  4  1  0
  5  7  1  0
  5  2  1  0
  6  5  2  0
  8  7  1  0
  9 11  1  0
  9  8  1  0
 10  9  2  0
 12 11  1  0
 12 15  1  0
 12 13  1  1
 14 13  1  0
 15 17  1  0
 16 15  2  0
M  END
$$$$
