CGC.pdb
     RDKit          3D

 17 16  0  0  1  0  0  0  0  0999 V2000
   24.5127  -19.9287  -11.3799 N   0  0  0  0  0  0  0  0  0  0  0  0
   24.6324  -21.3668  -11.6011 C   0  0  1  0  0  0  0  0  0  0  0  0
   23.4035  -21.8352  -12.3862 C   0  0  0  0  0  0  0  0  0  0  0  0
   21.8598  -21.2621  -11.6762 S   0  0  0  0  0  0  0  0  0  0  0  0
   25.8200  -21.6126  -12.4365 C   0  0  0  0  0  0  0  0  0  0  0  0
   26.1643  -22.8071  -12.6640 O   0  0  0  0  0  0  0  0  0  0  0  0
   26.6216  -20.6004  -13.0174 N   0  0  0  0  0  0  0  0  0  0  0  0
   27.8166  -20.9631  -13.7475 C   0  0  0  0  0  0  0  0  0  0  0  0
   27.5606  -20.8945  -15.2156 C   0  0  0  0  0  0  0  0  0  0  0  0
   28.4632  -21.0914  -16.0684 O   0  0  0  0  0  0  0  0  0  0  0  0
   26.2736  -20.6008  -15.7331 N   0  0  0  0  0  0  0  0  0  0  0  0
   26.0231  -20.4557  -17.1287 C   0  0  1  0  0  0  0  0  0  0  0  0
   24.5180  -20.6839  -17.3276 C   0  0  0  0  0  0  0  0  0  0  0  0
   23.9901  -22.2876  -16.7407 S   0  0  0  0  0  0  0  0  0  0  0  0
   26.4702  -19.2031  -17.7137 C   0  0  0  0  0  0  0  0  0  0  0  0
   26.4475  -18.1223  -17.0870 O   0  0  0  0  0  0  0  0  0  0  0  0
   26.9435  -19.1756  -19.0105 O   0  0  0  0  0  0  0  0  0  0  0  0
  2  3  1  0
  2  1  1  6
  3  4  1  0
  5  7  1  0
  5  2  1  0
  6  5  2  0
  8  7  1  0
  9 11  1  0
  9  8  1  0
 10  9  2  0
 12 11  1  0
 12 15  1  0
 12 13  1  1
 14 13  1  0
 15 17  1  0
 16 15  2  0
M  END
$$$$
