CGC.pdb
     RDKit          3D

 17 16  0  0  1  0  0  0  0  0999 V2000
   25.9515  -18.9912  -16.2940 N   0  0  0  0  0  0  0  0  0  0  0  0
   24.7158  -18.9011  -15.5218 C   0  0  1  0  0  0  0  0  0  0  0  0
   24.0079  -20.2576  -15.5896 C   0  0  0  0  0  0  0  0  0  0  0  0
   23.5936  -20.7474  -17.2641 S   0  0  0  0  0  0  0  0  0  0  0  0
   25.0636  -18.6455  -14.1139 C   0  0  0  0  0  0  0  0  0  0  0  0
   24.1327  -18.5818  -13.2615 O   0  0  0  0  0  0  0  0  0  0  0  0
   26.3811  -18.4631  -13.6283 N   0  0  0  0  0  0  0  0  0  0  0  0
   26.5908  -18.0976  -12.2445 C   0  0  0  0  0  0  0  0  0  0  0  0
   26.4953  -19.3063  -11.3753 C   0  0  0  0  0  0  0  0  0  0  0  0
   26.5374  -20.4751  -11.8368 O   0  0  0  0  0  0  0  0  0  0  0  0
   26.3507  -19.2012   -9.9687 N   0  0  0  0  0  0  0  0  0  0  0  0
   26.2192  -20.3417   -9.1240 C   0  0  1  0  0  0  0  0  0  0  0  0
   26.4602  -19.8518   -7.6891 C   0  0  0  0  0  0  0  0  0  0  0  0
   27.9323  -18.8471   -7.5521 S   0  0  0  0  0  0  0  0  0  0  0  0
   24.9682  -21.0695   -9.2525 C   0  0  0  0  0  0  0  0  0  0  0  0
   23.9731  -20.5974   -9.8426 O   0  0  0  0  0  0  0  0  0  0  0  0
   24.8451  -22.3338   -8.7114 O   0  0  0  0  0  0  0  0  0  0  0  0
  2  3  1  0
  2  1  1  6
  3  4  1  0
  5  7  1  0
  5  2  1  0
  6  5  2  0
  8  7  1  0
  9 11  1  0
  9  8  1  0
 10  9  2  0
 12 11  1  0
 12 15  1  0
 12 13  1  1
 14 13  1  0
 15 17  1  0
 16 15  2  0
M  END
$$$$
