CGC.pdb
     RDKit          3D

 17 16  0  0  1  0  0  0  0  0999 V2000
   19.0351  -15.0955  -17.0233 N   0  0  0  0  0  0  0  0  0  0  0  0
   20.2526  -14.5823  -17.6441 C   0  0  1  0  0  0  0  0  0  0  0  0
   20.3922  -15.2232  -19.0281 C   0  0  0  0  0  0  0  0  0  0  0  0
   20.7964  -16.9687  -18.9530 S   0  0  0  0  0  0  0  0  0  0  0  0
   20.1021  -13.1298  -17.8346 C   0  0  0  0  0  0  0  0  0  0  0  0
   18.9443  -12.6601  -18.0242 O   0  0  0  0  0  0  0  0  0  0  0  0
   21.1691  -12.1992  -17.8210 N   0  0  0  0  0  0  0  0  0  0  0  0
   20.9005  -10.7971  -18.0545 C   0  0  0  0  0  0  0  0  0  0  0  0
   20.7879  -10.0737  -16.7546 C   0  0  0  0  0  0  0  0  0  0  0  0
   19.7933  -10.1996  -15.9957 O   0  0  0  0  0  0  0  0  0  0  0  0
   21.8058   -9.1972  -16.3007 N   0  0  0  0  0  0  0  0  0  0  0  0
   21.7390   -8.5309  -15.0425 C   0  0  1  0  0  0  0  0  0  0  0  0
   23.0701   -8.8098  -14.3301 C   0  0  0  0  0  0  0  0  0  0  0  0
   23.3203  -10.5514  -14.0149 S   0  0  0  0  0  0  0  0  0  0  0  0
   21.4379   -7.1108  -15.1063 C   0  0  0  0  0  0  0  0  0  0  0  0
   21.6355   -6.4270  -16.1333 O   0  0  0  0  0  0  0  0  0  0  0  0
   20.9123   -6.4653  -14.0046 O   0  0  0  0  0  0  0  0  0  0  0  0
  2  3  1  0
  2  1  1  6
  3  4  1  0
  5  7  1  0
  5  2  1  0
  6  5  2  0
  8  7  1  0
  9 11  1  0
  9  8  1  0
 10  9  2  0
 12 11  1  0
 12 15  1  0
 12 13  1  6
 14 13  1  0
 15 17  1  0
 16 15  2  0
M  END
$$$$
