CGC.pdb
     RDKit          3D

 17 16  0  0  1  0  0  0  0  0999 V2000
   26.4585  -19.6680  -10.4267 N   0  0  0  0  0  0  0  0  0  0  0  0
   25.9985  -20.9824  -10.8648 C   0  0  1  0  0  0  0  0  0  0  0  0
   24.5733  -21.1900  -10.3438 C   0  0  0  0  0  0  0  0  0  0  0  0
   24.4176  -20.8703   -8.5863 S   0  0  0  0  0  0  0  0  0  0  0  0
   25.9447  -20.9907  -12.3365 C   0  0  0  0  0  0  0  0  0  0  0  0
   25.6646  -22.0724  -12.9267 O   0  0  0  0  0  0  0  0  0  0  0  0
   26.1847  -19.8636  -13.1592 N   0  0  0  0  0  0  0  0  0  0  0  0
   26.0175  -19.9732  -14.5918 C   0  0  0  0  0  0  0  0  0  0  0  0
   25.2996  -18.7754  -15.1169 C   0  0  0  0  0  0  0  0  0  0  0  0
   24.0660  -18.6001  -14.9491 O   0  0  0  0  0  0  0  0  0  0  0  0
   25.9763  -17.7608  -15.8402 N   0  0  0  0  0  0  0  0  0  0  0  0
   25.3050  -16.6228  -16.3748 C   0  0  1  0  0  0  0  0  0  0  0  0
   26.2747  -15.4404  -16.2379 C   0  0  0  0  0  0  0  0  0  0  0  0
   26.7772  -15.1660  -14.5446 S   0  0  0  0  0  0  0  0  0  0  0  0
   24.8116  -16.7732  -17.7332 C   0  0  0  0  0  0  0  0  0  0  0  0
   24.0221  -15.9579  -18.2560 O   0  0  0  0  0  0  0  0  0  0  0  0
   25.2135  -17.8491  -18.4996 O   0  0  0  0  0  0  0  0  0  0  0  0
  2  3  1  0
  2  1  1  6
  3  4  1  0
  5  7  1  0
  5  2  1  0
  6  5  2  0
  8  7  1  0
  9 11  1  0
  9  8  1  0
 10  9  2  0
 12 11  1  0
 12 15  1  0
 12 13  1  6
 14 13  1  0
 15 17  1  0
 16 15  2  0
M  END
$$$$
