CGC.pdb
     RDKit          3D

 17 16  0  0  1  0  0  0  0  0999 V2000
   26.0717  -33.5782   -8.5299 N   0  0  0  0  0  0  0  0  0  0  0  0
   25.9112  -32.1890   -8.1109 C   0  0  1  0  0  0  0  0  0  0  0  0
   24.4432  -31.7968   -8.3023 C   0  0  0  0  0  0  0  0  0  0  0  0
   23.5162  -33.0002   -9.2552 S   0  0  0  0  0  0  0  0  0  0  0  0
   26.2171  -32.0976   -6.6732 C   0  0  0  0  0  0  0  0  0  0  0  0
   26.0535  -30.9895   -6.0880 O   0  0  0  0  0  0  0  0  0  0  0  0
   26.6873  -33.1708   -5.8783 N   0  0  0  0  0  0  0  0  0  0  0  0
   26.8534  -32.9879   -4.4530 C   0  0  0  0  0  0  0  0  0  0  0  0
   27.2806  -34.2689   -3.8186 C   0  0  0  0  0  0  0  0  0  0  0  0
   27.4344  -35.3296   -4.4758 O   0  0  0  0  0  0  0  0  0  0  0  0
   27.5386  -34.3598   -2.4273 N   0  0  0  0  0  0  0  0  0  0  0  0
   28.1560  -35.4998   -1.8349 C   0  0  1  0  0  0  0  0  0  0  0  0
   29.4976  -35.6931   -2.5559 C   0  0  0  0  0  0  0  0  0  0  0  0
   30.1757  -37.3275   -2.3032 S   0  0  0  0  0  0  0  0  0  0  0  0
   28.3121  -35.4424   -0.3915 C   0  0  0  0  0  0  0  0  0  0  0  0
   28.2479  -34.3719    0.2498 O   0  0  0  0  0  0  0  0  0  0  0  0
   28.5412  -36.5999    0.3257 O   0  0  0  0  0  0  0  0  0  0  0  0
  2  3  1  0
  2  1  1  1
  3  4  1  0
  5  7  1  0
  5  2  1  0
  6  5  2  0
  8  7  1  0
  9 11  1  0
  9  8  1  0
 10  9  2  0
 12 11  1  0
 12 15  1  0
 12 13  1  6
 14 13  1  0
 15 17  1  0
 16 15  2  0
M  END
$$$$
