CGC.pdb
     RDKit          3D

 17 16  0  0  1  0  0  0  0  0999 V2000
   26.6618  -20.2872  -12.6093 N   0  0  0  0  0  0  0  0  0  0  0  0
   25.8039  -21.4400  -12.3519 C   0  0  1  0  0  0  0  0  0  0  0  0
   25.8428  -21.7412  -10.8507 C   0  0  0  0  0  0  0  0  0  0  0  0
   27.3477  -21.1687  -10.0613 S   0  0  0  0  0  0  0  0  0  0  0  0
   24.4199  -21.0786  -12.7021 C   0  0  0  0  0  0  0  0  0  0  0  0
   23.5751  -22.0038  -12.8674 O   0  0  0  0  0  0  0  0  0  0  0  0
   23.9498  -19.7537  -12.8705 N   0  0  0  0  0  0  0  0  0  0  0  0
   23.1997  -19.4046  -14.0571 C   0  0  0  0  0  0  0  0  0  0  0  0
   24.1321  -19.0948  -15.1798 C   0  0  0  0  0  0  0  0  0  0  0  0
   23.9293  -19.4923  -16.3552 O   0  0  0  0  0  0  0  0  0  0  0  0
   25.3080  -18.3281  -14.9798 N   0  0  0  0  0  0  0  0  0  0  0  0
   26.2702  -18.1172  -16.0100 C   0  0  1  0  0  0  0  0  0  0  0  0
   27.2338  -17.0398  -15.4928 C   0  0  0  0  0  0  0  0  0  0  0  0
   28.6580  -16.8357  -16.5534 S   0  0  0  0  0  0  0  0  0  0  0  0
   26.9698  -19.3084  -16.4606 C   0  0  0  0  0  0  0  0  0  0  0  0
   27.2255  -20.2662  -15.6999 O   0  0  0  0  0  0  0  0  0  0  0  0
   27.3800  -19.4138  -17.7748 O   0  0  0  0  0  0  0  0  0  0  0  0
  2  3  1  0
  2  1  1  1
  3  4  1  0
  5  7  1  0
  5  2  1  0
  6  5  2  0
  8  7  1  0
  9 11  1  0
  9  8  1  0
 10  9  2  0
 12 11  1  0
 12 15  1  0
 12 13  1  1
 14 13  1  0
 15 17  1  0
 16 15  2  0
M  END
$$$$
