CGC.pdb
     RDKit          3D

 17 16  0  0  1  0  0  0  0  0999 V2000
   21.1774  -10.1296  -17.0203 N   0  0  0  0  0  0  0  0  0  0  0  0
   19.8316  -10.0254  -17.5764 C   0  0  1  0  0  0  0  0  0  0  0  0
   18.8408  -10.5599  -16.5380 C   0  0  0  0  0  0  0  0  0  0  0  0
   19.2681  -12.1959  -15.9408 S   0  0  0  0  0  0  0  0  0  0  0  0
   19.5274   -8.6015  -17.7968 C   0  0  0  0  0  0  0  0  0  0  0  0
   18.4163   -8.2920  -18.3134 O   0  0  0  0  0  0  0  0  0  0  0  0
   20.3943   -7.5309  -17.4696 N   0  0  0  0  0  0  0  0  0  0  0  0
   19.9227   -6.1678  -17.5784 C   0  0  0  0  0  0  0  0  0  0  0  0
   20.0541   -5.4738  -16.2643 C   0  0  0  0  0  0  0  0  0  0  0  0
   19.8071   -4.2496  -16.1195 O   0  0  0  0  0  0  0  0  0  0  0  0
   20.4686   -6.1639  -15.0971 N   0  0  0  0  0  0  0  0  0  0  0  0
   20.6701   -5.5065  -13.8485 C   0  0  1  0  0  0  0  0  0  0  0  0
   19.9765   -6.3691  -12.7847 C   0  0  0  0  0  0  0  0  0  0  0  0
   20.7427   -7.9741  -12.6056 S   0  0  0  0  0  0  0  0  0  0  0  0
   22.0550   -5.2260  -13.5100 C   0  0  0  0  0  0  0  0  0  0  0  0
   22.3846   -4.6443  -12.4544 O   0  0  0  0  0  0  0  0  0  0  0  0
   23.0672   -5.6053  -14.3690 O   0  0  0  0  0  0  0  0  0  0  0  0
  2  3  1  0
  2  1  1  1
  3  4  1  0
  5  7  1  0
  5  2  1  0
  6  5  2  0
  8  7  1  0
  9 11  1  0
  9  8  1  0
 10  9  2  0
 12 11  1  0
 12 15  1  0
 12 13  1  1
 14 13  1  0
 15 17  1  0
 16 15  2  0
M  END
$$$$
