VNL.pdb
     RDKit          3D

 24 23  0  0  1  0  0  0  0  0999 V2000
   25.8216  -19.1780  -14.9363 C   0  0  0  0  0  0  0  0  0  0  0  0
   27.2810  -19.4068  -14.6187 C   0  0  2  0  0  0  0  0  0  0  0  0
   28.0347  -19.7343  -15.8704 C   0  0  0  0  0  0  0  0  0  0  0  0
   27.4386  -20.5020  -13.5787 C   0  0  2  0  0  0  0  0  0  0  0  0
   26.8622  -21.7363  -14.0553 N   0  0  0  0  0  0  0  0  0  0  0  0
   26.7900  -20.0450  -12.3455 C   0  0  0  0  0  0  0  0  0  0  0  0
   27.0787  -18.9177  -11.8684 O   0  0  0  0  0  0  0  0  0  0  0  0
   23.5042  -19.4617  -12.4302 N   0  0  0  0  0  0  0  0  0  0  0  0
   22.9699  -20.2153  -11.3572 C   0  0  0  0  0  0  0  0  0  0  0  0
   21.7362  -20.4409  -11.3395 O   0  0  0  0  0  0  0  0  0  0  0  0
   23.8134  -20.7360  -10.2731 C   0  0  0  0  0  0  0  0  0  0  0  0
   25.2538  -20.3366  -10.4055 C   0  0  2  0  0  0  0  0  0  0  0  0
   25.8218  -20.8160  -11.6254 N   0  0  0  0  0  0  0  0  0  0  0  0
   25.9917  -20.8276   -9.2037 C   0  0  0  0  0  0  0  0  0  0  0  0
   26.4336  -22.0039   -9.1670 O   0  0  0  0  0  0  0  0  0  0  0  0
   29.4305  -20.5614   -5.7858 C   0  0  0  0  0  0  0  0  0  0  0  0
   28.6748  -19.2669   -6.1297 C   0  0  2  0  0  0  0  0  0  0  0  0
   29.2827  -18.2042   -5.2602 C   0  0  0  0  0  0  0  0  0  0  0  0
   27.2399  -19.5379   -5.8807 C   0  0  0  0  0  0  0  0  0  0  0  0
   26.5957  -20.5609   -6.7562 C   0  0  2  0  0  0  0  0  0  0  0  0
   26.2283  -20.0113   -8.0643 N   0  0  0  0  0  0  0  0  0  0  0  0
   25.4992  -21.3102   -6.1475 C   0  0  0  0  0  0  0  0  0  0  0  0
   25.7649  -22.2304   -5.1598 O   0  0  0  0  0  0  0  0  0  0  0  0
   24.3218  -21.1310   -6.5072 O   0  0  0  0  0  0  0  0  0  0  0  0
  2  1  1  6
  2  3  1  0
  4  2  1  0
  4  5  1  6
  6  7  2  0
  6  4  1  0
  9 11  1  0
  9  8  1  0
 10  9  2  0
 12 11  1  1
 12 14  1  0
 12 13  1  0
 13  6  1  0
 14 21  1  0
 15 14  2  0
 17 16  1  1
 18 17  1  0
 19 17  1  0
 20 19  1  1
 20 22  1  0
 21 20  1  0
 22 24  2  0
 22 23  1  0
M  END
$$$$
