VNL.pdb
     RDKit          3D

 24 23  0  0  1  0  0  0  0  0999 V2000
   16.8088  -13.5592  -20.8791 C   0  0  0  0  0  0  0  0  0  0  0  0
   17.3327  -14.4420  -19.7704 C   0  0  2  0  0  0  0  0  0  0  0  0
   16.4486  -15.6391  -19.6048 C   0  0  0  0  0  0  0  0  0  0  0  0
   17.4509  -13.6613  -18.4733 C   0  0  2  0  0  0  0  0  0  0  0  0
   16.1466  -13.2511  -18.0112 N   0  0  0  0  0  0  0  0  0  0  0  0
   18.3216  -12.5081  -18.7227 C   0  0  0  0  0  0  0  0  0  0  0  0
   19.5163  -12.6909  -19.0705 O   0  0  0  0  0  0  0  0  0  0  0  0
   20.0635   -7.6200  -20.6263 N   0  0  0  0  0  0  0  0  0  0  0  0
   19.1702   -7.7673  -19.5377 C   0  0  0  0  0  0  0  0  0  0  0  0
   19.1758   -6.8954  -18.6360 O   0  0  0  0  0  0  0  0  0  0  0  0
   18.2447   -8.9036  -19.4358 C   0  0  0  0  0  0  0  0  0  0  0  0
   18.8236  -10.0678  -18.6866 C   0  0  2  0  0  0  0  0  0  0  0  0
   17.8933  -11.1477  -18.5940 N   0  0  0  0  0  0  0  0  0  0  0  0
   19.2735   -9.5889  -17.3456 C   0  0  0  0  0  0  0  0  0  0  0  0
   18.4353   -9.3793  -16.4325 O   0  0  0  0  0  0  0  0  0  0  0  0
   24.1105  -10.3771  -13.7972 C   0  0  0  0  0  0  0  0  0  0  0  0
   22.8905   -9.4566  -13.9685 C   0  0  2  0  0  0  0  0  0  0  0  0
   22.0320   -9.6992  -12.7606 C   0  0  0  0  0  0  0  0  0  0  0  0
   22.2691   -9.8175  -15.2639 C   0  0  0  0  0  0  0  0  0  0  0  0
   21.1001   -8.9937  -15.6918 C   0  0  2  0  0  0  0  0  0  0  0  0
   20.6403   -9.3500  -17.0371 N   0  0  0  0  0  0  0  0  0  0  0  0
   21.2533   -7.5501  -15.5278 C   0  0  0  0  0  0  0  0  0  0  0  0
   21.9429   -6.8238  -16.4713 O   0  0  0  0  0  0  0  0  0  0  0  0
   20.7690   -6.9608  -14.5451 O   0  0  0  0  0  0  0  0  0  0  0  0
  2  1  1  6
  2  3  1  0
  4  2  1  0
  4  5  1  6
  6  7  2  0
  6  4  1  0
  9 11  1  0
  9  8  1  0
 10  9  2  0
 12 11  1  1
 12 14  1  0
 12 13  1  0
 13  6  1  0
 14 21  1  0
 15 14  2  0
 17 16  1  1
 18 17  1  0
 19 17  1  0
 20 19  1  6
 20 22  1  0
 21 20  1  0
 22 24  2  0
 22 23  1  0
M  END
$$$$
