VNL.pdb
     RDKit          3D

 24 23  0  0  1  0  0  0  0  0999 V2000
   15.1126  -13.0114  -18.8634 C   0  0  0  0  0  0  0  0  0  0  0  0
   16.1844  -13.9586  -18.3766 C   0  0  2  0  0  0  0  0  0  0  0  0
   15.6288  -15.3434  -18.2514 C   0  0  0  0  0  0  0  0  0  0  0  0
   16.7674  -13.4781  -17.0594 C   0  0  2  0  0  0  0  0  0  0  0  0
   15.7882  -13.5880  -16.0049 N   0  0  0  0  0  0  0  0  0  0  0  0
   17.2074  -12.0915  -17.2440 C   0  0  0  0  0  0  0  0  0  0  0  0
   18.0512  -11.8172  -18.1353 O   0  0  0  0  0  0  0  0  0  0  0  0
   13.8716   -8.3721  -17.2217 N   0  0  0  0  0  0  0  0  0  0  0  0
   15.2519   -8.5627  -17.4728 C   0  0  0  0  0  0  0  0  0  0  0  0
   15.6335   -8.6826  -18.6616 O   0  0  0  0  0  0  0  0  0  0  0  0
   16.2413   -8.6235  -16.3886 C   0  0  0  0  0  0  0  0  0  0  0  0
   17.2802   -9.6856  -16.5999 C   0  0  2  0  0  0  0  0  0  0  0  0
   16.7288  -10.9955  -16.4564 N   0  0  0  0  0  0  0  0  0  0  0  0
   18.4079   -9.4370  -15.6531 C   0  0  0  0  0  0  0  0  0  0  0  0
   18.2264   -9.5264  -14.4124 O   0  0  0  0  0  0  0  0  0  0  0  0
   24.1407  -10.6466  -14.8401 C   0  0  0  0  0  0  0  0  0  0  0  0
   23.0695   -9.6460  -14.3751 C   0  0  2  0  0  0  0  0  0  0  0  0
   22.8325   -9.9567  -12.9251 C   0  0  0  0  0  0  0  0  0  0  0  0
   21.8974   -9.8421  -15.2595 C   0  0  0  0  0  0  0  0  0  0  0  0
   20.8172   -8.8161  -15.1676 C   0  0  2  0  0  0  0  0  0  0  0  0
   19.7154   -9.0943  -16.0932 N   0  0  0  0  0  0  0  0  0  0  0  0
   21.2608   -7.4262  -15.2434 C   0  0  0  0  0  0  0  0  0  0  0  0
   21.7416   -6.7992  -14.1170 O   0  0  0  0  0  0  0  0  0  0  0  0
   21.2122   -6.7944  -16.3140 O   0  0  0  0  0  0  0  0  0  0  0  0
  2  1  1  1
  2  3  1  0
  4  2  1  0
  4  5  1  1
  6  7  2  0
  6  4  1  0
  9 11  1  0
  9  8  1  0
 10  9  2  0
 12 11  1  1
 12 14  1  0
 12 13  1  0
 13  6  1  0
 14 21  1  0
 15 14  2  0
 17 16  1  6
 18 17  1  0
 19 17  1  0
 20 19  1  6
 20 22  1  0
 21 20  1  0
 22 24  2  0
 22 23  1  0
M  END
$$$$
