VNL.pdb
     RDKit          3D

 24 23  0  0  1  0  0  0  0  0999 V2000
   24.5002  -13.6568  -16.4032 C   0  0  0  0  0  0  0  0  0  0  0  0
   24.6334  -15.1018  -15.9820 C   0  0  2  0  0  0  0  0  0  0  0  0
   25.1865  -15.1838  -14.5929 C   0  0  0  0  0  0  0  0  0  0  0  0
   25.4988  -15.8699  -16.9653 C   0  0  2  0  0  0  0  0  0  0  0  0
   24.9276  -15.8146  -18.2896 N   0  0  0  0  0  0  0  0  0  0  0  0
   25.6077  -17.2503  -16.4825 C   0  0  0  0  0  0  0  0  0  0  0  0
   24.7575  -18.1058  -16.8388 O   0  0  0  0  0  0  0  0  0  0  0  0
   28.0501  -21.9199  -15.7178 N   0  0  0  0  0  0  0  0  0  0  0  0
   28.2926  -20.9371  -14.7278 C   0  0  0  0  0  0  0  0  0  0  0  0
   28.6346  -21.3136  -13.5812 O   0  0  0  0  0  0  0  0  0  0  0  0
   28.1559  -19.5008  -15.0038 C   0  0  0  0  0  0  0  0  0  0  0  0
   26.7321  -19.0752  -15.2122 C   0  0  2  0  0  0  0  0  0  0  0  0
   26.6458  -17.7053  -15.6073 N   0  0  0  0  0  0  0  0  0  0  0  0
   25.9684  -19.3544  -13.9596 C   0  0  0  0  0  0  0  0  0  0  0  0
   26.0074  -18.5447  -12.9988 O   0  0  0  0  0  0  0  0  0  0  0  0
   25.7025  -22.2119  -10.3386 C   0  0  0  0  0  0  0  0  0  0  0  0
   26.1788  -20.8196  -10.7854 C   0  0  2  0  0  0  0  0  0  0  0  0
   26.7374  -20.1714   -9.5514 C   0  0  0  0  0  0  0  0  0  0  0  0
   25.0014  -20.1403  -11.3740 C   0  0  0  0  0  0  0  0  0  0  0  0
   24.3963  -20.7839  -12.5773 C   0  0  2  0  0  0  0  0  0  0  0  0
   25.1758  -20.5222  -13.7905 N   0  0  0  0  0  0  0  0  0  0  0  0
   22.9707  -20.5334  -12.7755 C   0  0  0  0  0  0  0  0  0  0  0  0
   22.0422  -21.3336  -12.1506 O   0  0  0  0  0  0  0  0  0  0  0  0
   22.5773  -19.6041  -13.5031 O   0  0  0  0  0  0  0  0  0  0  0  0
  2  1  1  6
  2  3  1  0
  4  2  1  0
  4  5  1  6
  6  7  2  0
  6  4  1  0
  9 11  1  0
  9  8  1  0
 10  9  2  0
 12 11  1  1
 12 14  1  0
 12 13  1  0
 13  6  1  0
 14 21  1  0
 15 14  2  0
 17 16  1  1
 18 17  1  0
 19 17  1  0
 20 19  1  1
 20 22  1  0
 21 20  1  0
 22 24  2  0
 22 23  1  0
M  END
$$$$
