VNL.pdb
     RDKit          3D

 24 23  0  0  1  0  0  0  0  0999 V2000
   27.1437  -24.0340  -18.5817 C   0  0  0  0  0  0  0  0  0  0  0  0
   26.0321  -23.8238  -17.5800 C   0  0  2  0  0  0  0  0  0  0  0  0
   25.4056  -22.4788  -17.7815 C   0  0  0  0  0  0  0  0  0  0  0  0
   26.5509  -23.9825  -16.1617 C   0  0  2  0  0  0  0  0  0  0  0  0
   27.0053  -25.3342  -15.9395 N   0  0  0  0  0  0  0  0  0  0  0  0
   25.4648  -23.6214  -15.2448 C   0  0  0  0  0  0  0  0  0  0  0  0
   24.4912  -24.4025  -15.0912 O   0  0  0  0  0  0  0  0  0  0  0  0
   22.5806  -21.6434  -11.4542 N   0  0  0  0  0  0  0  0  0  0  0  0
   23.8107  -20.9425  -11.4692 C   0  0  0  0  0  0  0  0  0  0  0  0
   24.0725  -20.1715  -10.5151 O   0  0  0  0  0  0  0  0  0  0  0  0
   24.7809  -21.0919  -12.5621 C   0  0  0  0  0  0  0  0  0  0  0  0
   24.3813  -22.1349  -13.5643 C   0  0  2  0  0  0  0  0  0  0  0  0
   25.4351  -22.4050  -14.4900 N   0  0  0  0  0  0  0  0  0  0  0  0
   23.1308  -21.6817  -14.2433 C   0  0  0  0  0  0  0  0  0  0  0  0
   23.1086  -20.5930  -14.8715 O   0  0  0  0  0  0  0  0  0  0  0  0
   20.8754  -22.4718  -17.7792 C   0  0  0  0  0  0  0  0  0  0  0  0
   20.7430  -23.5981  -16.7405 C   0  0  2  0  0  0  0  0  0  0  0  0
   20.0590  -24.7266  -17.4573 C   0  0  0  0  0  0  0  0  0  0  0  0
   19.9898  -23.0311  -15.5979 C   0  0  0  0  0  0  0  0  0  0  0  0
   20.6771  -21.9625  -14.8143 C   0  0  2  0  0  0  0  0  0  0  0  0
   21.9278  -22.4383  -14.2165 N   0  0  0  0  0  0  0  0  0  0  0  0
   19.8412  -21.2536  -13.8484 C   0  0  0  0  0  0  0  0  0  0  0  0
   20.0004  -21.4900  -12.5024 O   0  0  0  0  0  0  0  0  0  0  0  0
   18.9824  -20.4346  -14.2219 O   0  0  0  0  0  0  0  0  0  0  0  0
  2  1  1  6
  2  3  1  0
  4  2  1  0
  4  5  1  1
  6  7  2  0
  6  4  1  0
  9 11  1  0
  9  8  1  0
 10  9  2  0
 12 11  1  1
 12 14  1  0
 12 13  1  0
 13  6  1  0
 14 21  1  0
 15 14  2  0
 17 16  1  6
 18 17  1  0
 19 17  1  0
 20 19  1  1
 20 22  1  0
 21 20  1  0
 22 24  2  0
 22 23  1  0
M  END
$$$$
