VNL.pdb
     RDKit          3D

 24 23  0  0  1  0  0  0  0  0999 V2000
   29.8322  -19.8639  -16.8455 C   0  0  0  0  0  0  0  0  0  0  0  0
   28.5726  -20.6868  -16.7060 C   0  0  2  0  0  0  0  0  0  0  0  0
   28.2913  -21.4172  -17.9825 C   0  0  0  0  0  0  0  0  0  0  0  0
   27.4002  -19.8095  -16.3038 C   0  0  2  0  0  0  0  0  0  0  0  0
   27.8574  -18.4856  -15.9556 N   0  0  0  0  0  0  0  0  0  0  0  0
   26.7209  -20.4587  -15.1779 C   0  0  0  0  0  0  0  0  0  0  0  0
   26.1663  -21.5753  -15.3426 O   0  0  0  0  0  0  0  0  0  0  0  0
   25.8728  -21.8227   -9.6557 N   0  0  0  0  0  0  0  0  0  0  0  0
   25.4936  -20.6799  -10.4005 C   0  0  0  0  0  0  0  0  0  0  0  0
   24.4036  -20.1220  -10.1283 O   0  0  0  0  0  0  0  0  0  0  0  0
   26.3342  -20.1338  -11.4744 C   0  0  0  0  0  0  0  0  0  0  0  0
   25.8445  -20.4960  -12.8458 C   0  0  2  0  0  0  0  0  0  0  0  0
   26.6430  -19.8925  -13.8650 N   0  0  0  0  0  0  0  0  0  0  0  0
   24.4053  -20.1116  -12.9494 C   0  0  0  0  0  0  0  0  0  0  0  0
   24.0766  -18.9016  -13.0409 O   0  0  0  0  0  0  0  0  0  0  0  0
   20.7344  -20.9698  -17.0040 C   0  0  0  0  0  0  0  0  0  0  0  0
   20.7048  -20.3617  -15.5918 C   0  0  2  0  0  0  0  0  0  0  0  0
   20.4517  -18.8950  -15.7917 C   0  0  0  0  0  0  0  0  0  0  0  0
   22.0035  -20.6952  -14.9622 C   0  0  0  0  0  0  0  0  0  0  0  0
   22.0165  -20.7800  -13.4720 C   0  0  2  0  0  0  0  0  0  0  0  0
   23.3552  -21.0696  -12.9501 N   0  0  0  0  0  0  0  0  0  0  0  0
   20.9977  -21.6446  -12.8815 C   0  0  0  0  0  0  0  0  0  0  0  0
   21.1858  -23.0074  -12.8600 O   0  0  0  0  0  0  0  0  0  0  0  0
   19.9563  -21.1694  -12.3943 O   0  0  0  0  0  0  0  0  0  0  0  0
  2  1  1  6
  2  3  1  0
  4  2  1  0
  4  5  1  1
  6  7  2  0
  6  4  1  0
  9 11  1  0
  9  8  1  0
 10  9  2  0
 12 11  1  1
 12 14  1  0
 12 13  1  0
 13  6  1  0
 14 21  1  0
 15 14  2  0
 17 16  1  6
 18 17  1  0
 19 17  1  0
 20 19  1  6
 20 22  1  0
 21 20  1  0
 22 24  2  0
 22 23  1  0
M  END
$$$$
