VNL.pdb
     RDKit          3D

 24 23  0  0  1  0  0  0  0  0999 V2000
   27.0897  -19.2922  -19.6424 C   0  0  0  0  0  0  0  0  0  0  0  0
   28.1028  -18.7022  -18.6891 C   0  0  2  0  0  0  0  0  0  0  0  0
   29.4867  -18.8873  -19.2299 C   0  0  0  0  0  0  0  0  0  0  0  0
   27.9639  -19.3199  -17.3088 C   0  0  2  0  0  0  0  0  0  0  0  0
   28.3084  -20.7209  -17.3465 N   0  0  0  0  0  0  0  0  0  0  0  0
   26.5813  -19.1166  -16.8644 C   0  0  0  0  0  0  0  0  0  0  0  0
   26.1374  -17.9490  -16.7180 O   0  0  0  0  0  0  0  0  0  0  0  0
   22.6699  -17.7844  -16.9028 N   0  0  0  0  0  0  0  0  0  0  0  0
   22.5164  -19.0219  -17.5735 C   0  0  0  0  0  0  0  0  0  0  0  0
   21.6388  -19.1154  -18.4647 O   0  0  0  0  0  0  0  0  0  0  0  0
   23.3494  -20.1897  -17.2570 C   0  0  0  0  0  0  0  0  0  0  0  0
   24.3346  -19.9279  -16.1557 C   0  0  2  0  0  0  0  0  0  0  0  0
   25.6746  -20.1870  -16.5772 N   0  0  0  0  0  0  0  0  0  0  0  0
   23.9438  -20.7461  -14.9692 C   0  0  0  0  0  0  0  0  0  0  0  0
   24.1979  -21.9768  -14.9355 O   0  0  0  0  0  0  0  0  0  0  0  0
   25.4047  -22.2063  -11.6008 C   0  0  0  0  0  0  0  0  0  0  0  0
   25.1080  -20.7024  -11.4772 C   0  0  2  0  0  0  0  0  0  0  0  0
   25.8180  -20.2543  -10.2322 C   0  0  0  0  0  0  0  0  0  0  0  0
   23.6334  -20.5652  -11.4436 C   0  0  0  0  0  0  0  0  0  0  0  0
   22.8991  -20.9884  -12.6723 C   0  0  2  0  0  0  0  0  0  0  0  0
   23.2798  -20.1910  -13.8416 N   0  0  0  0  0  0  0  0  0  0  0  0
   21.4492  -21.1004  -12.5321 C   0  0  0  0  0  0  0  0  0  0  0  0
   20.9077  -22.1719  -11.8601 O   0  0  0  0  0  0  0  0  0  0  0  0
   20.6895  -20.2398  -13.0118 O   0  0  0  0  0  0  0  0  0  0  0  0
  2  1  1  6
  2  3  1  0
  4  2  1  0
  4  5  1  6
  6  7  2  0
  6  4  1  0
  9 11  1  0
  9  8  1  0
 10  9  2  0
 12 11  1  6
 12 14  1  0
 12 13  1  0
 13  6  1  0
 14 21  1  0
 15 14  2  0
 17 16  1  1
 18 17  1  0
 19 17  1  0
 20 19  1  1
 20 22  1  0
 21 20  1  0
 22 24  2  0
 22 23  1  0
M  END
$$$$
