VNL.pdb
     RDKit          3D

 24 23  0  0  1  0  0  0  0  0999 V2000
   27.1547  -16.3890  -14.2266 C   0  0  0  0  0  0  0  0  0  0  0  0
   25.9033  -16.3475  -15.0725 C   0  0  2  0  0  0  0  0  0  0  0  0
   24.7078  -16.0853  -14.2099 C   0  0  0  0  0  0  0  0  0  0  0  0
   25.7434  -17.6375  -15.8576 C   0  0  2  0  0  0  0  0  0  0  0  0
   24.6016  -17.5544  -16.7364 N   0  0  0  0  0  0  0  0  0  0  0  0
   25.6032  -18.7337  -14.8937 C   0  0  0  0  0  0  0  0  0  0  0  0
   24.4761  -18.9892  -14.3978 O   0  0  0  0  0  0  0  0  0  0  0  0
   28.3339  -22.2740  -16.4039 N   0  0  0  0  0  0  0  0  0  0  0  0
   27.2488  -22.2605  -15.4945 C   0  0  0  0  0  0  0  0  0  0  0  0
   26.1188  -22.6182  -15.9050 O   0  0  0  0  0  0  0  0  0  0  0  0
   27.4082  -21.8426  -14.0953 C   0  0  0  0  0  0  0  0  0  0  0  0
   26.4675  -20.7425  -13.6996 C   0  0  2  0  0  0  0  0  0  0  0  0
   26.6930  -19.5578  -14.4652 N   0  0  0  0  0  0  0  0  0  0  0  0
   26.6093  -20.5059  -12.2319 C   0  0  0  0  0  0  0  0  0  0  0  0
   27.6874  -20.0621  -11.7619 O   0  0  0  0  0  0  0  0  0  0  0  0
   27.2300  -18.1689   -7.5762 C   0  0  0  0  0  0  0  0  0  0  0  0
   26.8101  -19.6120   -7.9022 C   0  0  2  0  0  0  0  0  0  0  0  0
   27.9427  -20.4763   -7.4275 C   0  0  0  0  0  0  0  0  0  0  0  0
   26.5536  -19.6570   -9.3604 C   0  0  0  0  0  0  0  0  0  0  0  0
   25.7707  -20.8252   -9.8611 C   0  0  2  0  0  0  0  0  0  0  0  0
   25.5585  -20.7636  -11.3100 N   0  0  0  0  0  0  0  0  0  0  0  0
   24.5351  -21.1123   -9.1365 C   0  0  0  0  0  0  0  0  0  0  0  0
   24.5934  -21.6093   -7.8548 O   0  0  0  0  0  0  0  0  0  0  0  0
   23.4237  -20.9146   -9.6593 O   0  0  0  0  0  0  0  0  0  0  0  0
  2  1  1  1
  2  3  1  0
  4  2  1  0
  4  5  1  6
  6  7  2  0
  6  4  1  0
  9 11  1  0
  9  8  1  0
 10  9  2  0
 12 11  1  6
 12 14  1  0
 12 13  1  0
 13  6  1  0
 14 21  1  0
 15 14  2  0
 17 16  1  6
 18 17  1  0
 19 17  1  0
 20 19  1  1
 20 22  1  0
 21 20  1  0
 22 24  2  0
 22 23  1  0
M  END
$$$$
