VNL.pdb
     RDKit          3D

 24 23  0  0  1  0  0  0  0  0999 V2000
   32.3049  -35.6280   -5.6071 C   0  0  0  0  0  0  0  0  0  0  0  0
   31.0705  -34.8580   -6.0153 C   0  0  2  0  0  0  0  0  0  0  0  0
   31.2975  -33.3890   -5.8347 C   0  0  0  0  0  0  0  0  0  0  0  0
   29.8598  -35.3287   -5.2288 C   0  0  2  0  0  0  0  0  0  0  0  0
   28.6802  -34.6052   -5.6384 N   0  0  0  0  0  0  0  0  0  0  0  0
   30.1465  -35.1301   -3.8044 C   0  0  0  0  0  0  0  0  0  0  0  0
   29.7947  -34.0631   -3.2392 O   0  0  0  0  0  0  0  0  0  0  0  0
   28.3564  -36.4838    0.7433 N   0  0  0  0  0  0  0  0  0  0  0  0
   28.9042  -36.6523   -0.5514 C   0  0  0  0  0  0  0  0  0  0  0  0
   28.1394  -36.5638   -1.5416 O   0  0  0  0  0  0  0  0  0  0  0  0
   30.3316  -36.9257   -0.7654 C   0  0  0  0  0  0  0  0  0  0  0  0
   31.0141  -35.8744   -1.5905 C   0  0  2  0  0  0  0  0  0  0  0  0
   30.8193  -36.0953   -2.9882 N   0  0  0  0  0  0  0  0  0  0  0  0
   32.4594  -35.8456   -1.2158 C   0  0  0  0  0  0  0  0  0  0  0  0
   33.2410  -36.7373   -1.6330 O   0  0  0  0  0  0  0  0  0  0  0  0
   36.3264  -33.2030   -1.6497 C   0  0  0  0  0  0  0  0  0  0  0  0
   35.1479  -32.5877   -0.8768 C   0  0  2  0  0  0  0  0  0  0  0  0
   35.5646  -31.1792   -0.5644 C   0  0  0  0  0  0  0  0  0  0  0  0
   34.9211  -33.4526    0.3042 C   0  0  0  0  0  0  0  0  0  0  0  0
   34.4201  -34.8319    0.0308 C   0  0  2  0  0  0  0  0  0  0  0  0
   33.0154  -34.8330   -0.3875 N   0  0  0  0  0  0  0  0  0  0  0  0
   34.6823  -35.8162    1.0779 C   0  0  0  0  0  0  0  0  0  0  0  0
   35.9719  -36.2299    1.3205 O   0  0  0  0  0  0  0  0  0  0  0  0
   33.7559  -36.2907    1.7594 O   0  0  0  0  0  0  0  0  0  0  0  0
  2  1  1  1
  2  3  1  0
  4  2  1  0
  4  5  1  6
  6  7  2  0
  6  4  1  0
  9 11  1  0
  9  8  1  0
 10  9  2  0
 12 11  1  1
 12 14  1  0
 12 13  1  0
 13  6  1  0
 14 21  1  0
 15 14  2  0
 17 16  1  6
 18 17  1  0
 19 17  1  0
 20 19  1  1
 20 22  1  0
 21 20  1  0
 22 24  2  0
 22 23  1  0
M  END
$$$$
