CKH.pdb
     RDKit          3D

 26 26  0  0  1  0  0  0  0  0999 V2000
    8.2159  -14.0868   16.8788 N   0  0  0  0  0  0  0  0  0  0  0  0
    8.9158  -13.9774   18.1408 C   0  0  1  0  0  0  0  0  0  0  0  0
    8.8314  -12.5581   18.6725 C   0  0  0  0  0  0  0  0  0  0  0  0
    9.7053  -12.4647   20.2558 S   0  0  0  0  0  0  0  0  0  0  0  0
    8.3906  -14.9396   19.1404 C   0  0  0  0  0  0  0  0  0  0  0  0
    7.1576  -15.1092   19.2242 O   0  0  0  0  0  0  0  0  0  0  0  0
    9.2322  -15.6643   19.9936 N   0  0  0  0  0  0  0  0  0  0  0  0
    8.7876  -16.5998   21.0053 C   0  0  1  0  0  0  0  0  0  0  0  0
    8.8638  -18.0072   20.5517 C   0  0  0  0  0  0  0  0  0  0  0  0
    8.4743  -19.0075   21.5890 C   0  0  0  0  0  0  0  0  0  0  0  0
    8.6653  -20.4443   21.0597 C   0  0  0  0  0  0  0  0  0  0  0  0
    8.2747  -21.4503   22.0997 C   0  0  0  0  0  0  0  0  0  0  0  0
    8.5163  -22.8025   21.5723 N   0  0  0  0  0  0  0  0  0  0  0  0
    9.4606  -16.2648   22.2618 C   0  0  0  0  0  0  0  0  0  0  0  0
   10.7167  -16.3256   22.4504 O   0  0  0  0  0  0  0  0  0  0  0  0
    8.7045  -15.8369   23.3779 N   0  0  0  0  0  0  0  0  0  0  0  0
    9.3448  -15.5302   24.6354 C   0  0  1  0  0  0  0  0  0  0  0  0
    8.3258  -15.0852   25.6642 C   0  0  0  0  0  0  0  0  0  0  0  0
    8.9469  -14.7643   26.9621 C   0  0  0  0  0  0  0  0  0  0  0  0
   10.0281  -13.9427   27.1833 C   0  0  0  0  0  0  0  0  0  0  0  0
   10.2664  -13.9286   28.5257 N   0  0  0  0  0  0  0  0  0  0  0  0
    9.3667  -14.7138   29.1277 C   0  0  0  0  0  0  0  0  0  0  0  0
    8.5755  -15.2143   28.1852 N   0  0  0  0  0  0  0  0  0  0  0  0
   10.1373  -16.6675   25.1509 C   0  0  0  0  0  0  0  0  0  0  0  0
    9.6464  -17.9546   25.1959 O   0  0  0  0  0  0  0  0  0  0  0  0
   11.3038  -16.4561   25.5647 O   0  0  0  0  0  0  0  0  0  0  0  0
  2  1  1  6
  2  5  1  0
  3  2  1  0
  4  3  1  0
  5  6  2  0
  7  5  1  0
  7  8  1  0
  8 14  1  0
  8  9  1  6
 10  9  1  0
 11 10  1  0
 12 11  1  0
 13 12  1  0
 14 15  2  0
 16 17  1  0
 16 14  1  0
 17 24  1  0
 17 18  1  1
 19 23  1  0
 19 18  1  0
 20 19  2  0
 21 20  1  0
 21 22  1  0
 22 23  2  0
 24 26  2  0
 24 25  1  0
M  END
$$$$
