CKH.pdb
     RDKit          3D

 26 26  0  0  1  0  0  0  0  0999 V2000
    8.1321  -14.7028   17.6723 N   0  0  0  0  0  0  0  0  0  0  0  0
    8.7063  -13.9917   18.7944 C   0  0  1  0  0  0  0  0  0  0  0  0
    7.9667  -12.6872   19.0298 C   0  0  0  0  0  0  0  0  0  0  0  0
    6.2217  -13.0449   19.3556 S   0  0  0  0  0  0  0  0  0  0  0  0
    8.7030  -14.8210   20.0245 C   0  0  0  0  0  0  0  0  0  0  0  0
    9.1909  -14.3492   21.0711 O   0  0  0  0  0  0  0  0  0  0  0  0
    8.1704  -16.1161   20.0507 N   0  0  0  0  0  0  0  0  0  0  0  0
    8.2105  -17.0105   21.1886 C   0  0  1  0  0  0  0  0  0  0  0  0
    7.1152  -18.0067   21.1682 C   0  0  0  0  0  0  0  0  0  0  0  0
    5.7459  -17.4123   21.1728 C   0  0  0  0  0  0  0  0  0  0  0  0
    4.6728  -18.5144   21.0505 C   0  0  0  0  0  0  0  0  0  0  0  0
    3.2963  -17.9226   21.0874 C   0  0  0  0  0  0  0  0  0  0  0  0
    2.3066  -19.0051   20.9721 N   0  0  0  0  0  0  0  0  0  0  0  0
    9.5766  -17.5214   21.3177 C   0  0  0  0  0  0  0  0  0  0  0  0
   10.1487  -18.2832   20.4753 O   0  0  0  0  0  0  0  0  0  0  0  0
   10.3600  -17.1719   22.4423 N   0  0  0  0  0  0  0  0  0  0  0  0
   11.7728  -16.9045   22.3092 C   0  0  1  0  0  0  0  0  0  0  0  0
   12.0195  -15.8019   21.3002 C   0  0  0  0  0  0  0  0  0  0  0  0
   13.4522  -15.4831   21.1613 C   0  0  0  0  0  0  0  0  0  0  0  0
   14.3799  -15.3781   22.1718 C   0  0  0  0  0  0  0  0  0  0  0  0
   15.5784  -15.0693   21.5996 N   0  0  0  0  0  0  0  0  0  0  0  0
   15.4103  -14.9831   20.2757 C   0  0  0  0  0  0  0  0  0  0  0  0
   14.1316  -15.2323   20.0158 N   0  0  0  0  0  0  0  0  0  0  0  0
   12.4026  -16.5702   23.6050 C   0  0  0  0  0  0  0  0  0  0  0  0
   11.6955  -16.5372   24.7875 O   0  0  0  0  0  0  0  0  0  0  0  0
   13.6297  -16.3054   23.6327 O   0  0  0  0  0  0  0  0  0  0  0  0
  2  1  1  6
  2  5  1  0
  3  2  1  0
  4  3  1  0
  5  6  2  0
  7  5  1  0
  7  8  1  0
  8 14  1  0
  8  9  1  6
 10  9  1  0
 11 10  1  0
 12 11  1  0
 13 12  1  0
 14 15  2  0
 16 17  1  0
 16 14  1  0
 17 24  1  0
 17 18  1  6
 19 23  1  0
 19 18  1  0
 20 19  2  0
 21 20  1  0
 21 22  1  0
 22 23  2  0
 24 26  2  0
 24 25  1  0
M  END
$$$$
