CKH.pdb
     RDKit          3D

 26 26  0  0  1  0  0  0  0  0999 V2000
    7.4089  -14.0605   18.3644 N   0  0  0  0  0  0  0  0  0  0  0  0
    8.3621  -13.9685   19.4495 C   0  0  1  0  0  0  0  0  0  0  0  0
    8.4063  -12.5537   19.9978 C   0  0  0  0  0  0  0  0  0  0  0  0
    9.1477  -11.4603   18.7591 S   0  0  0  0  0  0  0  0  0  0  0  0
    8.0522  -14.9360   20.5306 C   0  0  0  0  0  0  0  0  0  0  0  0
    6.8593  -15.1418   20.8319 O   0  0  0  0  0  0  0  0  0  0  0  0
    9.0537  -15.6265   21.2247 N   0  0  0  0  0  0  0  0  0  0  0  0
    8.8218  -16.6523   22.2199 C   0  0  1  0  0  0  0  0  0  0  0  0
    9.2957  -17.9856   21.7838 C   0  0  0  0  0  0  0  0  0  0  0  0
    8.4852  -18.5965   20.6891 C   0  0  0  0  0  0  0  0  0  0  0  0
    8.9672  -20.0314   20.3896 C   0  0  0  0  0  0  0  0  0  0  0  0
    8.1666  -20.6401   19.2784 C   0  0  0  0  0  0  0  0  0  0  0  0
    8.7373  -21.9535   18.9410 N   0  0  0  0  0  0  0  0  0  0  0  0
    9.3124  -16.1564   23.5072 C   0  0  0  0  0  0  0  0  0  0  0  0
   10.3539  -15.4429   23.6603 O   0  0  0  0  0  0  0  0  0  0  0  0
    8.6138  -16.4648   24.6977 N   0  0  0  0  0  0  0  0  0  0  0  0
    9.0529  -15.9467   25.9721 C   0  0  1  0  0  0  0  0  0  0  0  0
    7.8710  -15.5017   26.8086 C   0  0  0  0  0  0  0  0  0  0  0  0
    7.2588  -14.2629   26.2948 C   0  0  0  0  0  0  0  0  0  0  0  0
    7.6793  -13.5142   25.2199 C   0  0  0  0  0  0  0  0  0  0  0  0
    6.8286  -12.4557   25.0977 N   0  0  0  0  0  0  0  0  0  0  0  0
    5.9054  -12.5358   26.0619 C   0  0  0  0  0  0  0  0  0  0  0  0
    6.1669  -13.6229   26.7793 N   0  0  0  0  0  0  0  0  0  0  0  0
    9.8764  -16.9226   26.7183 C   0  0  0  0  0  0  0  0  0  0  0  0
   10.4633  -16.6263   27.9296 O   0  0  0  0  0  0  0  0  0  0  0  0
   10.0500  -18.0673   26.2322 O   0  0  0  0  0  0  0  0  0  0  0  0
  2  1  1  6
  2  5  1  0
  3  2  1  0
  4  3  1  0
  5  6  2  0
  7  5  1  0
  7  8  1  0
  8 14  1  0
  8  9  1  6
 10  9  1  0
 11 10  1  0
 12 11  1  0
 13 12  1  0
 14 15  2  0
 16 17  1  0
 16 14  1  0
 17 24  1  0
 17 18  1  1
 19 23  1  0
 19 18  1  0
 20 19  2  0
 21 20  1  0
 21 22  1  0
 22 23  2  0
 24 26  2  0
 24 25  1  0
M  END
$$$$
