CKH.pdb
     RDKit          3D

 26 26  0  0  1  0  0  0  0  0999 V2000
    6.6483  -14.9702   18.8703 N   0  0  0  0  0  0  0  0  0  0  0  0
    7.5964  -14.6938   19.9283 C   0  0  1  0  0  0  0  0  0  0  0  0
    7.7625  -13.1963   20.1132 C   0  0  0  0  0  0  0  0  0  0  0  0
    8.5420  -12.4988   18.6349 S   0  0  0  0  0  0  0  0  0  0  0  0
    7.1914  -15.3337   21.2039 C   0  0  0  0  0  0  0  0  0  0  0  0
    6.0610  -15.0868   21.6702 O   0  0  0  0  0  0  0  0  0  0  0  0
    8.0352  -16.2062   21.9028 N   0  0  0  0  0  0  0  0  0  0  0  0
    7.6639  -16.9565   23.0841 C   0  0  1  0  0  0  0  0  0  0  0  0
    7.6598  -18.4188   22.8514 C   0  0  0  0  0  0  0  0  0  0  0  0
    6.6834  -18.8722   21.8172 C   0  0  0  0  0  0  0  0  0  0  0  0
    6.7923  -20.3953   21.5953 C   0  0  0  0  0  0  0  0  0  0  0  0
    5.8495  -20.8447   20.5205 C   0  0  0  0  0  0  0  0  0  0  0  0
    6.0728  -22.2745   20.2548 N   0  0  0  0  0  0  0  0  0  0  0  0
    8.4615  -16.4604   24.2074 C   0  0  0  0  0  0  0  0  0  0  0  0
    9.6849  -16.1213   24.1343 O   0  0  0  0  0  0  0  0  0  0  0  0
    7.8762  -16.3299   25.4883 N   0  0  0  0  0  0  0  0  0  0  0  0
    8.6558  -15.8845   26.6193 C   0  0  1  0  0  0  0  0  0  0  0  0
    7.8291  -14.9979   27.5277 C   0  0  0  0  0  0  0  0  0  0  0  0
    7.4494  -13.7311   26.8761 C   0  0  0  0  0  0  0  0  0  0  0  0
    7.8883  -13.2602   25.6602 C   0  0  0  0  0  0  0  0  0  0  0  0
    7.2870  -12.0557   25.4441 N   0  0  0  0  0  0  0  0  0  0  0  0
    6.4977  -11.7787   26.4875 C   0  0  0  0  0  0  0  0  0  0  0  0
    6.5977  -12.7875   27.3460 N   0  0  0  0  0  0  0  0  0  0  0  0
    9.2297  -17.0143   27.3820 C   0  0  0  0  0  0  0  0  0  0  0  0
   10.1202  -16.8341   28.4184 O   0  0  0  0  0  0  0  0  0  0  0  0
    8.8949  -18.1851   27.0760 O   0  0  0  0  0  0  0  0  0  0  0  0
  2  1  1  6
  2  5  1  0
  3  2  1  0
  4  3  1  0
  5  6  2  0
  7  5  1  0
  7  8  1  0
  8 14  1  0
  8  9  1  6
 10  9  1  0
 11 10  1  0
 12 11  1  0
 13 12  1  0
 14 15  2  0
 16 17  1  0
 16 14  1  0
 17 24  1  0
 17 18  1  1
 19 23  1  0
 19 18  1  0
 20 19  2  0
 21 20  1  0
 21 22  1  0
 22 23  2  0
 24 26  2  0
 24 25  1  0
M  END
$$$$
