CKH.pdb
     RDKit          3D

 26 26  0  0  1  0  0  0  0  0999 V2000
    6.1857  -20.4942   22.1508 N   0  0  0  0  0  0  0  0  0  0  0  0
    5.7047  -19.1769   22.5084 C   0  0  1  0  0  0  0  0  0  0  0  0
    5.3775  -19.1161   23.9894 C   0  0  0  0  0  0  0  0  0  0  0  0
    6.7527  -19.8249   24.9305 S   0  0  0  0  0  0  0  0  0  0  0  0
    6.6845  -18.1228   22.1483 C   0  0  0  0  0  0  0  0  0  0  0  0
    7.8583  -18.4544   21.8871 O   0  0  0  0  0  0  0  0  0  0  0  0
    6.3363  -16.7673   22.0917 N   0  0  0  0  0  0  0  0  0  0  0  0
    7.2138  -15.6989   21.6619 C   0  0  1  0  0  0  0  0  0  0  0  0
    6.4714  -14.5179   21.1653 C   0  0  0  0  0  0  0  0  0  0  0  0
    7.3384  -13.4416   20.6010 C   0  0  0  0  0  0  0  0  0  0  0  0
    7.7157  -13.7563   19.1383 C   0  0  0  0  0  0  0  0  0  0  0  0
    8.5468  -12.6542   18.5547 C   0  0  0  0  0  0  0  0  0  0  0  0
    8.9349  -13.0216   17.1839 N   0  0  0  0  0  0  0  0  0  0  0  0
    8.2040  -15.4715   22.7163 C   0  0  0  0  0  0  0  0  0  0  0  0
    7.9258  -15.2603   23.9390 O   0  0  0  0  0  0  0  0  0  0  0  0
    9.5837  -15.4772   22.4052 N   0  0  0  0  0  0  0  0  0  0  0  0
   10.5527  -16.0067   23.3357 C   0  0  1  0  0  0  0  0  0  0  0  0
   10.3054  -17.4792   23.5912 C   0  0  0  0  0  0  0  0  0  0  0  0
   11.3016  -18.0612   24.5090 C   0  0  0  0  0  0  0  0  0  0  0  0
   12.3058  -17.3953   25.1731 C   0  0  0  0  0  0  0  0  0  0  0  0
   12.9903  -18.3143   25.9120 N   0  0  0  0  0  0  0  0  0  0  0  0
   12.4361  -19.5160   25.7193 C   0  0  0  0  0  0  0  0  0  0  0  0
   11.4218  -19.3603   24.8758 N   0  0  0  0  0  0  0  0  0  0  0  0
   11.9426  -15.7871   22.8803 C   0  0  0  0  0  0  0  0  0  0  0  0
   13.0298  -15.9394   23.7137 O   0  0  0  0  0  0  0  0  0  0  0  0
   12.1441  -15.4485   21.6881 O   0  0  0  0  0  0  0  0  0  0  0  0
  2  1  1  1
  2  5  1  0
  3  2  1  0
  4  3  1  0
  5  6  2  0
  7  5  1  0
  7  8  1  0
  8 14  1  0
  8  9  1  1
 10  9  1  0
 11 10  1  0
 12 11  1  0
 13 12  1  0
 14 15  2  0
 16 17  1  0
 16 14  1  0
 17 24  1  0
 17 18  1  6
 19 23  1  0
 19 18  1  0
 20 19  2  0
 21 20  1  0
 21 22  1  0
 22 23  2  0
 24 26  2  0
 24 25  1  0
M  END
$$$$
