CKH.pdb
     RDKit          3D

 26 26  0  0  1  0  0  0  0  0999 V2000
    7.1890  -12.9020   18.4580 N   0  0  0  0  0  0  0  0  0  0  0  0
    8.0419  -14.0041   18.0676 C   0  0  1  0  0  0  0  0  0  0  0  0
    9.3930  -13.4905   17.6041 C   0  0  0  0  0  0  0  0  0  0  0  0
   10.2069  -12.6373   18.9785 S   0  0  0  0  0  0  0  0  0  0  0  0
    8.2077  -14.9821   19.1708 C   0  0  0  0  0  0  0  0  0  0  0  0
    8.0948  -14.5872   20.3487 O   0  0  0  0  0  0  0  0  0  0  0  0
    8.4867  -16.3341   18.9347 N   0  0  0  0  0  0  0  0  0  0  0  0
    8.6989  -17.3327   19.9615 C   0  0  1  0  0  0  0  0  0  0  0  0
    8.1216  -18.6484   19.6036 C   0  0  0  0  0  0  0  0  0  0  0  0
    6.8920  -18.5695   18.7609 C   0  0  0  0  0  0  0  0  0  0  0  0
    6.4292  -19.9796   18.3385 C   0  0  0  0  0  0  0  0  0  0  0  0
    5.1530  -19.9082   17.5560 C   0  0  0  0  0  0  0  0  0  0  0  0
    4.7704  -21.2662   17.1390 N   0  0  0  0  0  0  0  0  0  0  0  0
   10.1134  -17.3035   20.3390 C   0  0  0  0  0  0  0  0  0  0  0  0
   11.0673  -17.7230   19.6102 O   0  0  0  0  0  0  0  0  0  0  0  0
   10.5004  -16.7805   21.5948 N   0  0  0  0  0  0  0  0  0  0  0  0
   11.8621  -16.8985   22.0608 C   0  0  1  0  0  0  0  0  0  0  0  0
   12.5712  -15.5615   21.9964 C   0  0  0  0  0  0  0  0  0  0  0  0
   12.9650  -15.2045   20.6213 C   0  0  0  0  0  0  0  0  0  0  0  0
   12.7192  -15.9247   19.4751 C   0  0  0  0  0  0  0  0  0  0  0  0
   13.2562  -15.2319   18.4307 N   0  0  0  0  0  0  0  0  0  0  0  0
   13.8200  -14.1152   18.9034 C   0  0  0  0  0  0  0  0  0  0  0  0
   13.6431  -14.1019   20.2200 N   0  0  0  0  0  0  0  0  0  0  0  0
   11.9384  -17.4590   23.4274 C   0  0  0  0  0  0  0  0  0  0  0  0
   13.1360  -17.7458   24.0464 O   0  0  0  0  0  0  0  0  0  0  0  0
   10.8722  -17.6839   24.0513 O   0  0  0  0  0  0  0  0  0  0  0  0
  2  1  1  1
  2  5  1  0
  3  2  1  0
  4  3  1  0
  5  6  2  0
  7  5  1  0
  7  8  1  0
  8 14  1  0
  8  9  1  6
 10  9  1  0
 11 10  1  0
 12 11  1  0
 13 12  1  0
 14 15  2  0
 16 17  1  0
 16 14  1  0
 17 24  1  0
 17 18  1  1
 19 23  1  0
 19 18  1  0
 20 19  2  0
 21 20  1  0
 21 22  1  0
 22 23  2  0
 24 26  2  0
 24 25  1  0
M  END
$$$$
