CKH.pdb
     RDKit          3D

 26 26  0  0  1  0  0  0  0  0999 V2000
    8.0431  -18.5436   18.6805 N   0  0  0  0  0  0  0  0  0  0  0  0
    9.0935  -19.3616   19.2480 C   0  0  1  0  0  0  0  0  0  0  0  0
   10.4557  -18.8504   18.8153 C   0  0  0  0  0  0  0  0  0  0  0  0
   10.6458  -19.1045   17.0324 S   0  0  0  0  0  0  0  0  0  0  0  0
    9.0036  -19.4143   20.7279 C   0  0  0  0  0  0  0  0  0  0  0  0
    8.7497  -18.3660   21.3543 O   0  0  0  0  0  0  0  0  0  0  0  0
    9.1943  -20.6017   21.4459 N   0  0  0  0  0  0  0  0  0  0  0  0
    9.1443  -20.7204   22.8880 C   0  0  1  0  0  0  0  0  0  0  0  0
    8.4549  -21.9526   23.3339 C   0  0  0  0  0  0  0  0  0  0  0  0
    8.0418  -22.8601   22.2230 C   0  0  0  0  0  0  0  0  0  0  0  0
    8.7052  -24.2450   22.3752 C   0  0  0  0  0  0  0  0  0  0  0  0
    8.3035  -25.1531   21.2526 C   0  0  0  0  0  0  0  0  0  0  0  0
    8.9586  -26.4579   21.4345 N   0  0  0  0  0  0  0  0  0  0  0  0
   10.4908  -20.4810   23.4110 C   0  0  0  0  0  0  0  0  0  0  0  0
   11.5316  -20.3348   22.6951 O   0  0  0  0  0  0  0  0  0  0  0  0
   10.7038  -20.3976   24.8068 N   0  0  0  0  0  0  0  0  0  0  0  0
   11.2383  -19.1974   25.4061 C   0  0  1  0  0  0  0  0  0  0  0  0
   10.3547  -18.0048   25.1033 C   0  0  0  0  0  0  0  0  0  0  0  0
   10.8585  -17.2113   23.9675 C   0  0  0  0  0  0  0  0  0  0  0  0
   12.0202  -17.4203   23.2606 C   0  0  0  0  0  0  0  0  0  0  0  0
   12.0955  -16.4570   22.2986 N   0  0  0  0  0  0  0  0  0  0  0  0
   11.0190  -15.6697   22.3970 C   0  0  0  0  0  0  0  0  0  0  0  0
   10.2779  -16.1258   23.4008 N   0  0  0  0  0  0  0  0  0  0  0  0
   11.4320  -19.3401   26.8654 C   0  0  0  0  0  0  0  0  0  0  0  0
   12.3913  -18.6347   27.5594 O   0  0  0  0  0  0  0  0  0  0  0  0
   10.6955  -20.1344   27.5004 O   0  0  0  0  0  0  0  0  0  0  0  0
  2  1  1  1
  2  5  1  0
  3  2  1  0
  4  3  1  0
  5  6  2  0
  7  5  1  0
  7  8  1  0
  8 14  1  0
  8  9  1  6
 10  9  1  0
 11 10  1  0
 12 11  1  0
 13 12  1  0
 14 15  2  0
 16 17  1  0
 16 14  1  0
 17 24  1  0
 17 18  1  1
 19 23  1  0
 19 18  1  0
 20 19  2  0
 21 20  1  0
 21 22  1  0
 22 23  2  0
 24 26  2  0
 24 25  1  0
M  END
$$$$
