CKH.pdb
     RDKit          3D

 26 26  0  0  1  0  0  0  0  0999 V2000
    9.3405  -16.4841   18.7666 N   0  0  0  0  0  0  0  0  0  0  0  0
    8.2655  -16.4153   19.7330 C   0  0  1  0  0  0  0  0  0  0  0  0
    7.6091  -17.7745   19.8935 C   0  0  0  0  0  0  0  0  0  0  0  0
    8.8614  -18.9825   20.3958 S   0  0  0  0  0  0  0  0  0  0  0  0
    8.7425  -15.9098   21.0437 C   0  0  0  0  0  0  0  0  0  0  0  0
    9.9506  -16.0264   21.3315 O   0  0  0  0  0  0  0  0  0  0  0  0
    7.8822  -15.3060   21.9693 N   0  0  0  0  0  0  0  0  0  0  0  0
    8.2815  -14.7792   23.2575 C   0  0  1  0  0  0  0  0  0  0  0  0
    7.2599  -13.8848   23.8480 C   0  0  0  0  0  0  0  0  0  0  0  0
    7.6111  -13.3625   25.2016 C   0  0  0  0  0  0  0  0  0  0  0  0
    6.4650  -12.4972   25.7662 C   0  0  0  0  0  0  0  0  0  0  0  0
    6.7833  -12.0342   27.1557 C   0  0  0  0  0  0  0  0  0  0  0  0
    5.6128  -11.3335   27.7068 N   0  0  0  0  0  0  0  0  0  0  0  0
    8.7485  -15.8963   24.0808 C   0  0  0  0  0  0  0  0  0  0  0  0
    8.0771  -16.9487   24.3235 O   0  0  0  0  0  0  0  0  0  0  0  0
   10.0324  -15.8517   24.6724 N   0  0  0  0  0  0  0  0  0  0  0  0
   10.5134  -16.9430   25.4867 C   0  0  1  0  0  0  0  0  0  0  0  0
   12.0059  -17.1309   25.3084 C   0  0  0  0  0  0  0  0  0  0  0  0
   12.3426  -17.7053   23.9931 C   0  0  0  0  0  0  0  0  0  0  0  0
   11.4637  -18.1615   23.0380 C   0  0  0  0  0  0  0  0  0  0  0  0
   12.1999  -18.6071   21.9805 N   0  0  0  0  0  0  0  0  0  0  0  0
   13.4965  -18.4372   22.2606 C   0  0  0  0  0  0  0  0  0  0  0  0
   13.5786  -17.8952   23.4706 N   0  0  0  0  0  0  0  0  0  0  0  0
   10.1822  -16.7613   26.9167 C   0  0  0  0  0  0  0  0  0  0  0  0
    9.5508  -15.6334   27.3950 O   0  0  0  0  0  0  0  0  0  0  0  0
   10.4868  -17.6681   27.7300 O   0  0  0  0  0  0  0  0  0  0  0  0
  2  1  1  6
  2  5  1  0
  3  2  1  0
  4  3  1  0
  5  6  2  0
  7  5  1  0
  7  8  1  0
  8 14  1  0
  8  9  1  1
 10  9  1  0
 11 10  1  0
 12 11  1  0
 13 12  1  0
 14 15  2  0
 16 17  1  0
 16 14  1  0
 17 24  1  0
 17 18  1  1
 19 23  1  0
 19 18  1  0
 20 19  2  0
 21 20  1  0
 21 22  1  0
 22 23  2  0
 24 26  2  0
 24 25  1  0
M  END
$$$$
