CPQ.pdb
     RDKit          3D

 23 23  0  0  1  0  0  0  0  0999 V2000
   22.9368  -12.3642  -18.0919 N   0  0  0  0  0  0  0  0  0  0  0  0
   22.8497  -12.0160  -16.6662 C   0  0  1  0  0  0  0  0  0  0  0  0
   24.3043  -11.9442  -16.2180 C   0  0  0  0  0  0  0  0  0  0  0  0
   25.0645  -13.5616  -16.0545 S   0  0  0  0  0  0  0  0  0  0  0  0
   22.1988  -10.6992  -16.6115 C   0  0  0  0  0  0  0  0  0  0  0  0
   22.6476   -9.7365  -17.2800 O   0  0  0  0  0  0  0  0  0  0  0  0
   21.0561  -10.4910  -15.8073 N   0  0  0  0  0  0  0  0  0  0  0  0
   20.2558  -11.5528  -15.2288 C   0  0  0  0  0  0  0  0  0  0  0  0
   19.8830  -10.9363  -13.8804 C   0  0  0  0  0  0  0  0  0  0  0  0
   19.4532   -9.5488  -14.3747 C   0  0  0  0  0  0  0  0  0  0  0  0
   20.4458   -9.2068  -15.4650 C   0  0  1  0  0  0  0  0  0  0  0  0
   21.5245   -8.3258  -14.8880 C   0  0  0  0  0  0  0  0  0  0  0  0
   22.6608   -8.7415  -14.5758 O   0  0  0  0  0  0  0  0  0  0  0  0
   25.0433   -5.9600  -18.1317 N   0  0  0  0  0  0  0  0  0  0  0  0
   25.1711   -5.0302  -17.0753 C   0  0  0  0  0  0  0  0  0  0  0  0
   26.0881   -4.1841  -17.1674 O   0  0  0  0  0  0  0  0  0  0  0  0
   24.2980   -5.0116  -15.9001 C   0  0  0  0  0  0  0  0  0  0  0  0
   23.2513   -6.0522  -15.8271 C   0  0  0  0  0  0  0  0  0  0  0  0
   22.3563   -5.9399  -14.6486 C   0  0  2  0  0  0  0  0  0  0  0  0
   21.2980   -6.9403  -14.6619 N   0  0  0  0  0  0  0  0  0  0  0  0
   21.7961   -4.5876  -14.4175 C   0  0  0  0  0  0  0  0  0  0  0  0
   20.7380   -4.2687  -14.9986 O   0  0  0  0  0  0  0  0  0  0  0  0
   22.4027   -3.6789  -13.5858 O   0  0  0  0  0  0  0  0  0  0  0  0
  2  1  1  6
  2  5  1  0
  2  3  1  0
  3  4  1  0
  5  6  2  0
  7  5  1  0
  7 11  1  0
  8  7  1  0
  9  8  1  0
  9 10  1  0
 10 11  1  0
 11 12  1  1
 12 13  2  0
 12 20  1  0
 15 14  1  0
 15 16  2  0
 17 18  1  0
 17 15  1  0
 19 18  1  6
 20 19  1  0
 21 19  1  0
 21 23  1  0
 22 21  2  0
M  END
$$$$
