CPQ.pdb
     RDKit          3D

 23 23  0  0  1  0  0  0  0  0999 V2000
   23.6039  -21.7304  -14.3998 N   0  0  0  0  0  0  0  0  0  0  0  0
   22.2107  -21.2899  -14.2366 C   0  0  1  0  0  0  0  0  0  0  0  0
   21.4224  -22.2268  -15.1437 C   0  0  0  0  0  0  0  0  0  0  0  0
   19.6473  -22.0024  -15.0045 S   0  0  0  0  0  0  0  0  0  0  0  0
   21.8835  -21.5032  -12.8195 C   0  0  0  0  0  0  0  0  0  0  0  0
   22.0682  -22.6225  -12.2827 O   0  0  0  0  0  0  0  0  0  0  0  0
   21.3561  -20.4541  -12.0341 N   0  0  0  0  0  0  0  0  0  0  0  0
   21.2472  -19.0762  -12.4724 C   0  0  0  0  0  0  0  0  0  0  0  0
   19.9264  -18.6658  -11.8212 C   0  0  0  0  0  0  0  0  0  0  0  0
   20.1812  -19.2255  -10.4155 C   0  0  0  0  0  0  0  0  0  0  0  0
   20.8897  -20.5422  -10.6507 C   0  0  1  0  0  0  0  0  0  0  0  0
   19.8825  -21.6615  -10.5769 C   0  0  0  0  0  0  0  0  0  0  0  0
   19.1362  -21.9815  -11.5268 O   0  0  0  0  0  0  0  0  0  0  0  0
   18.9311  -25.7741   -5.4856 N   0  0  0  0  0  0  0  0  0  0  0  0
   17.9335  -25.9946   -6.4619 C   0  0  0  0  0  0  0  0  0  0  0  0
   17.0939  -26.8920   -6.2275 O   0  0  0  0  0  0  0  0  0  0  0  0
   17.8390  -25.2373   -7.7114 C   0  0  0  0  0  0  0  0  0  0  0  0
   18.8476  -24.1800   -7.9315 C   0  0  0  0  0  0  0  0  0  0  0  0
   18.7302  -23.4827   -9.2363 C   0  0  2  0  0  0  0  0  0  0  0  0
   19.7246  -22.4301   -9.3910 N   0  0  0  0  0  0  0  0  0  0  0  0
   17.3747  -22.9734   -9.5516 C   0  0  0  0  0  0  0  0  0  0  0  0
   16.6180  -23.6752  -10.2543 O   0  0  0  0  0  0  0  0  0  0  0  0
   16.9275  -21.7582   -9.0949 O   0  0  0  0  0  0  0  0  0  0  0  0
  2  1  1  1
  2  5  1  0
  2  3  1  0
  3  4  1  0
  5  6  2  0
  7  5  1  0
  7 11  1  0
  8  7  1  0
  9  8  1  0
  9 10  1  0
 10 11  1  0
 11 12  1  6
 12 13  2  0
 12 20  1  0
 15 14  1  0
 15 16  2  0
 17 18  1  0
 17 15  1  0
 19 18  1  1
 20 19  1  0
 21 19  1  0
 21 23  1  0
 22 21  2  0
M  END
$$$$
