CPQ.pdb
     RDKit          3D

 23 23  0  0  1  0  0  0  0  0999 V2000
   20.3338  -15.5691  -17.2165 N   0  0  0  0  0  0  0  0  0  0  0  0
   21.2007  -14.5085  -17.7507 C   0  0  1  0  0  0  0  0  0  0  0  0
   20.4186  -13.9605  -18.9381 C   0  0  0  0  0  0  0  0  0  0  0  0
   21.4629  -13.5888  -20.3494 S   0  0  0  0  0  0  0  0  0  0  0  0
   21.3274  -13.5122  -16.6773 C   0  0  0  0  0  0  0  0  0  0  0  0
   20.3133  -12.9253  -16.2276 O   0  0  0  0  0  0  0  0  0  0  0  0
   22.5911  -13.1963  -16.1305 N   0  0  0  0  0  0  0  0  0  0  0  0
   23.8095  -13.9347  -16.4005 C   0  0  0  0  0  0  0  0  0  0  0  0
   24.8365  -12.8026  -16.4313 C   0  0  0  0  0  0  0  0  0  0  0  0
   24.4035  -12.0668  -15.1564 C   0  0  0  0  0  0  0  0  0  0  0  0
   22.8915  -12.1347  -15.1705 C   0  0  1  0  0  0  0  0  0  0  0  0
   22.3474  -10.8443  -15.7286 C   0  0  0  0  0  0  0  0  0  0  0  0
   21.9795  -10.7069  -16.9149 O   0  0  0  0  0  0  0  0  0  0  0  0
   17.9331   -9.3748  -17.4700 N   0  0  0  0  0  0  0  0  0  0  0  0
   17.8808   -8.2943  -16.5608 C   0  0  0  0  0  0  0  0  0  0  0  0
   16.9534   -7.4679  -16.7091 O   0  0  0  0  0  0  0  0  0  0  0  0
   18.8434   -8.0999  -15.4748 C   0  0  0  0  0  0  0  0  0  0  0  0
   19.8734   -9.1447  -15.2980 C   0  0  0  0  0  0  0  0  0  0  0  0
   21.2564   -8.6248  -15.1584 C   0  0  2  0  0  0  0  0  0  0  0  0
   22.2228   -9.6862  -14.9129 N   0  0  0  0  0  0  0  0  0  0  0  0
   21.4153   -7.5326  -14.1695 C   0  0  0  0  0  0  0  0  0  0  0  0
   21.5237   -7.8278  -12.9611 O   0  0  0  0  0  0  0  0  0  0  0  0
   21.4479   -6.2111  -14.5409 O   0  0  0  0  0  0  0  0  0  0  0  0
  2  1  1  1
  2  5  1  0
  2  3  1  0
  3  4  1  0
  5  6  2  0
  7  5  1  0
  7 11  1  0
  8  7  1  0
  9  8  1  0
  9 10  1  0
 10 11  1  0
 11 12  1  6
 12 13  2  0
 12 20  1  0
 15 14  1  0
 15 16  2  0
 17 18  1  0
 17 15  1  0
 19 18  1  1
 20 19  1  0
 21 19  1  0
 21 23  1  0
 22 21  2  0
M  END
$$$$
