CPQ.pdb
     RDKit          3D

 23 23  0  0  1  0  0  0  0  0999 V2000
   23.7092  -14.8048  -17.0232 N   0  0  0  0  0  0  0  0  0  0  0  0
   24.4500  -13.6414  -17.5325 C   0  0  1  0  0  0  0  0  0  0  0  0
   23.9757  -13.5087  -18.9746 C   0  0  0  0  0  0  0  0  0  0  0  0
   24.4138  -11.9317  -19.7105 S   0  0  0  0  0  0  0  0  0  0  0  0
   24.0212  -12.4994  -16.7124 C   0  0  0  0  0  0  0  0  0  0  0  0
   22.8022  -12.2364  -16.5711 O   0  0  0  0  0  0  0  0  0  0  0  0
   24.9709  -11.6765  -16.0670 N   0  0  0  0  0  0  0  0  0  0  0  0
   26.3929  -11.9544  -16.0099 C   0  0  0  0  0  0  0  0  0  0  0  0
   26.9712  -10.5435  -16.1207 C   0  0  0  0  0  0  0  0  0  0  0  0
   26.0709   -9.8463  -15.0923 C   0  0  0  0  0  0  0  0  0  0  0  0
   24.7025  -10.4571  -15.3055 C   0  0  1  0  0  0  0  0  0  0  0  0
   23.8867   -9.5400  -16.1809 C   0  0  0  0  0  0  0  0  0  0  0  0
   23.7057   -9.7332  -17.4022 O   0  0  0  0  0  0  0  0  0  0  0  0
   19.3139  -10.2950  -18.2996 N   0  0  0  0  0  0  0  0  0  0  0  0
   18.9994   -8.9457  -18.0217 C   0  0  0  0  0  0  0  0  0  0  0  0
   17.9400   -8.4942  -18.5104 O   0  0  0  0  0  0  0  0  0  0  0  0
   19.8400   -8.0679  -17.2051 C   0  0  0  0  0  0  0  0  0  0  0  0
   21.0239   -8.6791  -16.5661 C   0  0  0  0  0  0  0  0  0  0  0  0
   22.1163   -7.7231  -16.2578 C   0  0  2  0  0  0  0  0  0  0  0  0
   23.2662   -8.3767  -15.6484 N   0  0  0  0  0  0  0  0  0  0  0  0
   21.7050   -6.5405  -15.4652 C   0  0  0  0  0  0  0  0  0  0  0  0
   21.7050   -6.6230  -14.2194 O   0  0  0  0  0  0  0  0  0  0  0  0
   21.3263   -5.3610  -16.0576 O   0  0  0  0  0  0  0  0  0  0  0  0
  2  1  1  1
  2  5  1  0
  2  3  1  0
  3  4  1  0
  5  6  2  0
  7  5  1  0
  7 11  1  0
  8  7  1  0
  9  8  1  0
  9 10  1  0
 10 11  1  0
 11 12  1  6
 12 13  2  0
 12 20  1  0
 15 14  1  0
 15 16  2  0
 17 18  1  0
 17 15  1  0
 19 18  1  1
 20 19  1  0
 21 19  1  0
 21 23  1  0
 22 21  2  0
M  END
$$$$
