CPQ.pdb
     RDKit          3D

 23 23  0  0  1  0  0  0  0  0999 V2000
   22.7529  -16.6420  -17.5649 N   0  0  0  0  0  0  0  0  0  0  0  0
   23.2116  -17.3817  -16.3800 C   0  0  1  0  0  0  0  0  0  0  0  0
   22.1419  -18.4480  -16.1780 C   0  0  0  0  0  0  0  0  0  0  0  0
   22.5094  -19.5549  -14.8140 S   0  0  0  0  0  0  0  0  0  0  0  0
   24.5055  -17.9734  -16.7496 C   0  0  0  0  0  0  0  0  0  0  0  0
   24.6197  -18.6565  -17.7963 O   0  0  0  0  0  0  0  0  0  0  0  0
   25.6448  -17.7849  -15.9360 N   0  0  0  0  0  0  0  0  0  0  0  0
   25.7166  -16.8515  -14.8287 C   0  0  0  0  0  0  0  0  0  0  0  0
   26.5787  -17.6367  -13.8400 C   0  0  0  0  0  0  0  0  0  0  0  0
   27.6801  -18.0900  -14.8073 C   0  0  0  0  0  0  0  0  0  0  0  0
   26.9483  -18.4306  -16.0876 C   0  0  1  0  0  0  0  0  0  0  0  0
   26.7189  -19.9197  -16.1406 C   0  0  0  0  0  0  0  0  0  0  0  0
   25.9135  -20.5202  -15.3974 O   0  0  0  0  0  0  0  0  0  0  0  0
   24.0420  -23.6334  -18.3183 N   0  0  0  0  0  0  0  0  0  0  0  0
   25.1346  -24.5134  -18.4879 C   0  0  0  0  0  0  0  0  0  0  0  0
   24.8787  -25.7367  -18.5456 O   0  0  0  0  0  0  0  0  0  0  0  0
   26.5256  -24.0691  -18.5959 C   0  0  0  0  0  0  0  0  0  0  0  0
   26.7757  -22.6173  -18.4799 C   0  0  0  0  0  0  0  0  0  0  0  0
   27.2660  -22.1842  -17.1478 C   0  0  2  0  0  0  0  0  0  0  0  0
   27.4268  -20.7393  -17.0620 N   0  0  0  0  0  0  0  0  0  0  0  0
   28.4892  -22.8764  -16.6781 C   0  0  0  0  0  0  0  0  0  0  0  0
   28.3679  -23.9395  -16.0347 O   0  0  0  0  0  0  0  0  0  0  0  0
   29.7469  -22.3859  -16.9290 O   0  0  0  0  0  0  0  0  0  0  0  0
  2  1  1  6
  2  5  1  0
  2  3  1  0
  3  4  1  0
  5  6  2  0
  7  5  1  0
  7 11  1  0
  8  7  1  0
  9  8  1  0
  9 10  1  0
 10 11  1  0
 11 12  1  1
 12 13  2  0
 12 20  1  0
 15 14  1  0
 15 16  2  0
 17 18  1  0
 17 15  1  0
 19 18  1  6
 20 19  1  0
 21 19  1  0
 21 23  1  0
 22 21  2  0
M  END
$$$$
