CPQ.pdb
     RDKit          3D

 23 23  0  0  1  0  0  0  0  0999 V2000
   18.7073  -11.2836  -13.8625 N   0  0  0  0  0  0  0  0  0  0  0  0
   19.0670  -10.0271  -14.5359 C   0  0  1  0  0  0  0  0  0  0  0  0
   17.9039   -9.7768  -15.4880 C   0  0  0  0  0  0  0  0  0  0  0  0
   17.9708  -10.8060  -16.9566 S   0  0  0  0  0  0  0  0  0  0  0  0
   19.1330   -9.0075  -13.4791 C   0  0  0  0  0  0  0  0  0  0  0  0
   18.2452   -8.9464  -12.5941 O   0  0  0  0  0  0  0  0  0  0  0  0
   20.1958   -8.0777  -13.4378 N   0  0  0  0  0  0  0  0  0  0  0  0
   21.3918   -8.1624  -14.2532 C   0  0  0  0  0  0  0  0  0  0  0  0
   21.6520   -6.6844  -14.5449 C   0  0  0  0  0  0  0  0  0  0  0  0
   21.4774   -6.1368  -13.1222 C   0  0  0  0  0  0  0  0  0  0  0  0
   20.3169   -6.9219  -12.5499 C   0  0  1  0  0  0  0  0  0  0  0  0
   19.0570   -6.1052  -12.6860 C   0  0  0  0  0  0  0  0  0  0  0  0
   18.4246   -5.9864  -13.7572 O   0  0  0  0  0  0  0  0  0  0  0  0
   14.9184   -5.1753   -7.9508 N   0  0  0  0  0  0  0  0  0  0  0  0
   15.3248   -6.2575   -8.7635 C   0  0  0  0  0  0  0  0  0  0  0  0
   14.9426   -7.3999   -8.4259 O   0  0  0  0  0  0  0  0  0  0  0  0
   16.1572   -6.1074   -9.9587 C   0  0  0  0  0  0  0  0  0  0  0  0
   16.4983   -4.7292  -10.3683 C   0  0  0  0  0  0  0  0  0  0  0  0
   17.2749   -4.6389  -11.6298 C   0  0  2  0  0  0  0  0  0  0  0  0
   18.5100   -5.4084  -11.5737 N   0  0  0  0  0  0  0  0  0  0  0  0
   17.5380   -3.2595  -12.1029 C   0  0  0  0  0  0  0  0  0  0  0  0
   18.7155   -2.8445  -12.1187 O   0  0  0  0  0  0  0  0  0  0  0  0
   16.5298   -2.4278  -12.5238 O   0  0  0  0  0  0  0  0  0  0  0  0
  2  1  1  1
  2  5  1  0
  2  3  1  0
  3  4  1  0
  5  6  2  0
  7  5  1  0
  7 11  1  0
  8  7  1  0
  9  8  1  0
  9 10  1  0
 10 11  1  0
 11 12  1  6
 12 13  2  0
 12 20  1  0
 15 14  1  0
 15 16  2  0
 17 18  1  0
 17 15  1  0
 19 18  1  1
 20 19  1  0
 21 19  1  0
 21 23  1  0
 22 21  2  0
M  END
$$$$
