CPQ.pdb
     RDKit          3D

 23 23  0  0  1  0  0  0  0  0999 V2000
   17.7072  -12.7871    4.3048 N   0  0  0  0  0  0  0  0  0  0  0  0
   17.8072  -12.5166    5.7465 C   0  0  1  0  0  0  0  0  0  0  0  0
   16.4799  -13.0151    6.3049 C   0  0  0  0  0  0  0  0  0  0  0  0
   16.4454  -13.0452    8.0989 S   0  0  0  0  0  0  0  0  0  0  0  0
   18.9372  -13.3224    6.2307 C   0  0  0  0  0  0  0  0  0  0  0  0
   19.0761  -14.5141    5.8624 O   0  0  0  0  0  0  0  0  0  0  0  0
   19.8887  -12.7725    7.1183 N   0  0  0  0  0  0  0  0  0  0  0  0
   19.9382  -11.3759    7.5053 C   0  0  0  0  0  0  0  0  0  0  0  0
   20.3624  -11.4932    8.9694 C   0  0  0  0  0  0  0  0  0  0  0  0
   21.5081  -12.4989    8.7953 C   0  0  0  0  0  0  0  0  0  0  0  0
   21.0073  -13.4718    7.7496 C   0  0  1  0  0  0  0  0  0  0  0  0
   20.4540  -14.6925    8.4399 C   0  0  0  0  0  0  0  0  0  0  0  0
   19.2623  -14.8002    8.8004 O   0  0  0  0  0  0  0  0  0  0  0  0
   17.9857  -19.1407    6.4536 N   0  0  0  0  0  0  0  0  0  0  0  0
   18.2452  -19.6012    7.7641 C   0  0  0  0  0  0  0  0  0  0  0  0
   17.6417  -20.6317    8.1371 O   0  0  0  0  0  0  0  0  0  0  0  0
   19.1688  -18.9408    8.6886 C   0  0  0  0  0  0  0  0  0  0  0  0
   19.7923  -17.6829    8.2277 C   0  0  0  0  0  0  0  0  0  0  0  0
   20.7719  -17.1000    9.1780 C   0  0  2  0  0  0  0  0  0  0  0  0
   21.2816  -15.8131    8.7251 N   0  0  0  0  0  0  0  0  0  0  0  0
   21.8860  -18.0010    9.5563 C   0  0  0  0  0  0  0  0  0  0  0  0
   22.9464  -17.9535    8.8988 O   0  0  0  0  0  0  0  0  0  0  0  0
   21.7877  -18.8823   10.6046 O   0  0  0  0  0  0  0  0  0  0  0  0
  2  1  1  6
  2  5  1  0
  2  3  1  0
  3  4  1  0
  5  6  2  0
  7  5  1  0
  7 11  1  0
  8  7  1  0
  9  8  1  0
  9 10  1  0
 10 11  1  0
 11 12  1  1
 12 13  2  0
 12 20  1  0
 15 14  1  0
 15 16  2  0
 17 18  1  0
 17 15  1  0
 19 18  1  6
 20 19  1  0
 21 19  1  0
 21 23  1  0
 22 21  2  0
M  END
$$$$
