LPQ.pdb
     RDKit          3D

 25 25  0  0  1  0  0  0  0  0999 V2000
   25.4773  -17.4332  -16.0978 C   0  0  0  0  0  0  0  0  0  0  0  0
   26.4099  -18.0828  -15.0708 C   0  0  2  0  0  0  0  0  0  0  0  0
   27.2669  -17.0001  -14.4985 C   0  0  0  0  0  0  0  0  0  0  0  0
   27.1640  -19.1504  -15.7975 C   0  0  0  0  0  0  0  0  0  0  0  0
   27.5482  -20.3059  -14.8791 C   0  0  2  0  0  0  0  0  0  0  0  0
   28.1916  -21.3557  -15.6981 N   0  0  0  0  0  0  0  0  0  0  0  0
   26.2945  -20.8743  -14.3444 C   0  0  0  0  0  0  0  0  0  0  0  0
   25.5979  -21.5544  -15.1761 O   0  0  0  0  0  0  0  0  0  0  0  0
   25.8073  -20.7425  -13.0368 N   0  0  0  0  0  0  0  0  0  0  0  0
   26.4479  -20.0035  -11.9901 C   0  0  0  0  0  0  0  0  0  0  0  0
   26.2986  -20.9842  -10.8149 C   0  0  0  0  0  0  0  0  0  0  0  0
   24.9995  -21.6936  -11.1100 C   0  0  0  0  0  0  0  0  0  0  0  0
   24.6007  -21.2732  -12.5057 C   0  0  1  0  0  0  0  0  0  0  0  0
   23.4800  -20.2846  -12.4973 C   0  0  0  0  0  0  0  0  0  0  0  0
   23.7912  -19.0685  -12.5711 O   0  0  0  0  0  0  0  0  0  0  0  0
   22.8614  -19.9398  -17.1241 N   0  0  0  0  0  0  0  0  0  0  0  0
   21.5250  -19.4757  -17.0711 C   0  0  0  0  0  0  0  0  0  0  0  0
   21.0066  -19.0114  -18.1085 O   0  0  0  0  0  0  0  0  0  0  0  0
   20.7870  -19.5557  -15.7911 C   0  0  0  0  0  0  0  0  0  0  0  0
   21.7317  -20.0416  -14.7355 C   0  0  0  0  0  0  0  0  0  0  0  0
   21.1191  -20.1814  -13.3743 C   0  0  2  0  0  0  0  0  0  0  0  0
   22.1182  -20.6008  -12.4132 N   0  0  0  0  0  0  0  0  0  0  0  0
   19.8967  -20.9665  -13.3356 C   0  0  0  0  0  0  0  0  0  0  0  0
   18.6869  -20.3837  -13.0488 O   0  0  0  0  0  0  0  0  0  0  0  0
   19.9284  -22.1891  -13.5634 O   0  0  0  0  0  0  0  0  0  0  0  0
  2  1  1  6
  2  4  1  0
  3  2  1  0
  4  5  1  0
  5  6  1  6
  7  5  1  0
  7  8  2  0
  9  7  1  0
 10  9  1  0
 11 12  1  0
 11 10  1  0
 12 13  1  0
 13 14  1  1
 13  9  1  0
 14 15  2  0
 16 17  1  0
 17 19  1  0
 18 17  2  0
 19 20  1  0
 21 20  1  6
 21 23  1  0
 22 14  1  0
 22 21  1  0
 23 25  2  0
 23 24  1  0
M  END
$$$$
