LPQ.pdb
     RDKit          3D

 25 25  0  0  1  0  0  0  0  0999 V2000
   24.1707  -14.2168  -20.3578 C   0  0  0  0  0  0  0  0  0  0  0  0
   22.7384  -13.8700  -19.9399 C   0  0  2  0  0  0  0  0  0  0  0  0
   22.0119  -13.4209  -21.1666 C   0  0  0  0  0  0  0  0  0  0  0  0
   22.8479  -12.8309  -18.8700 C   0  0  0  0  0  0  0  0  0  0  0  0
   23.5029  -13.3778  -17.6059 C   0  0  2  0  0  0  0  0  0  0  0  0
   22.6573  -14.4714  -17.0808 N   0  0  0  0  0  0  0  0  0  0  0  0
   23.4897  -12.2939  -16.6031 C   0  0  0  0  0  0  0  0  0  0  0  0
   22.4945  -12.2992  -15.7974 O   0  0  0  0  0  0  0  0  0  0  0  0
   24.4473  -11.2813  -16.4533 N   0  0  0  0  0  0  0  0  0  0  0  0
   25.6054  -11.1146  -17.2798 C   0  0  0  0  0  0  0  0  0  0  0  0
   26.6768  -10.8233  -16.2157 C   0  0  0  0  0  0  0  0  0  0  0  0
   25.9106  -10.1076  -15.1300 C   0  0  0  0  0  0  0  0  0  0  0  0
   24.4502  -10.2277  -15.4996 C   0  0  1  0  0  0  0  0  0  0  0  0
   23.8991   -8.9478  -16.0396 C   0  0  0  0  0  0  0  0  0  0  0  0
   24.2512   -8.6199  -17.2013 O   0  0  0  0  0  0  0  0  0  0  0  0
   18.4529  -10.1496  -17.0351 N   0  0  0  0  0  0  0  0  0  0  0  0
   19.3408   -9.0896  -17.3387 C   0  0  0  0  0  0  0  0  0  0  0  0
   19.2812   -8.5579  -18.4675 O   0  0  0  0  0  0  0  0  0  0  0  0
   20.3088   -8.6468  -16.3109 C   0  0  0  0  0  0  0  0  0  0  0  0
   21.2472   -7.6658  -16.9434 C   0  0  0  0  0  0  0  0  0  0  0  0
   22.2349   -7.0551  -15.9950 C   0  0  2  0  0  0  0  0  0  0  0  0
   23.0276   -8.0876  -15.3599 N   0  0  0  0  0  0  0  0  0  0  0  0
   21.6698   -6.0900  -15.0670 C   0  0  0  0  0  0  0  0  0  0  0  0
   21.6431   -6.3349  -13.7161 O   0  0  0  0  0  0  0  0  0  0  0  0
   21.1974   -5.0183  -15.4863 O   0  0  0  0  0  0  0  0  0  0  0  0
  2  1  1  6
  2  4  1  0
  3  2  1  0
  4  5  1  0
  5  6  1  1
  7  5  1  0
  7  8  2  0
  9  7  1  0
 10  9  1  0
 11 12  1  0
 11 10  1  0
 12 13  1  0
 13 14  1  6
 13  9  1  0
 14 15  2  0
 16 17  1  0
 17 19  1  0
 18 17  2  0
 19 20  1  0
 21 20  1  1
 21 23  1  0
 22 14  1  0
 22 21  1  0
 23 25  2  0
 23 24  1  0
M  END
$$$$
