LPQ.pdb
     RDKit          3D

 25 25  0  0  1  0  0  0  0  0999 V2000
   25.4664  -17.4028  -18.1994 C   0  0  0  0  0  0  0  0  0  0  0  0
   24.0220  -16.9680  -17.9327 C   0  0  2  0  0  0  0  0  0  0  0  0
   23.2647  -17.1265  -19.2116 C   0  0  0  0  0  0  0  0  0  0  0  0
   24.0884  -15.5638  -17.4224 C   0  0  0  0  0  0  0  0  0  0  0  0
   24.7184  -15.4880  -16.0356 C   0  0  2  0  0  0  0  0  0  0  0  0
   23.9133  -16.3181  -15.1139 N   0  0  0  0  0  0  0  0  0  0  0  0
   24.6025  -14.0884  -15.5791 C   0  0  0  0  0  0  0  0  0  0  0  0
   23.5668  -13.8213  -14.8750 O   0  0  0  0  0  0  0  0  0  0  0  0
   25.5038  -13.0467  -15.8382 N   0  0  0  0  0  0  0  0  0  0  0  0
   26.6374  -13.1366  -16.7095 C   0  0  0  0  0  0  0  0  0  0  0  0
   27.7074  -12.4301  -15.8603 C   0  0  0  0  0  0  0  0  0  0  0  0
   26.9195  -11.4065  -15.0796 C   0  0  0  0  0  0  0  0  0  0  0  0
   25.4625  -11.7204  -15.3295 C   0  0  1  0  0  0  0  0  0  0  0  0
   24.8317  -10.7501  -16.2750 C   0  0  0  0  0  0  0  0  0  0  0  0
   24.9876  -10.9670  -17.5037 O   0  0  0  0  0  0  0  0  0  0  0  0
   21.0867   -7.1017  -14.0034 N   0  0  0  0  0  0  0  0  0  0  0  0
   20.7254   -8.4496  -14.2410 C   0  0  0  0  0  0  0  0  0  0  0  0
   19.8979   -8.9950  -13.4805 O   0  0  0  0  0  0  0  0  0  0  0  0
   21.3384   -9.1675  -15.3805 C   0  0  0  0  0  0  0  0  0  0  0  0
   22.1551   -8.1883  -16.1660 C   0  0  0  0  0  0  0  0  0  0  0  0
   23.3589   -8.7822  -16.8338 C   0  0  2  0  0  0  0  0  0  0  0  0
   24.0856   -9.6238  -15.9056 N   0  0  0  0  0  0  0  0  0  0  0  0
   24.1939   -7.8271  -17.5426 C   0  0  0  0  0  0  0  0  0  0  0  0
   23.7145   -7.1292  -18.6236 O   0  0  0  0  0  0  0  0  0  0  0  0
   25.3660   -7.6259  -17.1774 O   0  0  0  0  0  0  0  0  0  0  0  0
  2  1  1  6
  2  4  1  0
  3  2  1  0
  4  5  1  0
  5  6  1  1
  7  5  1  0
  7  8  2  0
  9  7  1  0
 10  9  1  0
 11 12  1  0
 11 10  1  0
 12 13  1  0
 13 14  1  6
 13  9  1  0
 14 15  2  0
 16 17  1  0
 17 19  1  0
 18 17  2  0
 19 20  1  0
 21 20  1  1
 21 23  1  0
 22 14  1  0
 22 21  1  0
 23 25  2  0
 23 24  1  0
M  END
$$$$
