LPQ.pdb
     RDKit          3D

 25 25  0  0  1  0  0  0  0  0999 V2000
   28.6388  -17.6594  -15.4943 C   0  0  0  0  0  0  0  0  0  0  0  0
   28.0014  -18.2051  -16.7758 C   0  0  2  0  0  0  0  0  0  0  0  0
   27.4809  -17.0360  -17.5482 C   0  0  0  0  0  0  0  0  0  0  0  0
   26.9519  -19.1802  -16.3463 C   0  0  0  0  0  0  0  0  0  0  0  0
   27.5369  -20.3280  -15.5301 C   0  0  2  0  0  0  0  0  0  0  0  0
   28.1690  -21.2859  -16.4626 N   0  0  0  0  0  0  0  0  0  0  0  0
   26.4065  -21.0258  -14.8852 C   0  0  0  0  0  0  0  0  0  0  0  0
   25.8015  -21.8876  -15.6138 O   0  0  0  0  0  0  0  0  0  0  0  0
   25.9449  -20.8374  -13.5752 N   0  0  0  0  0  0  0  0  0  0  0  0
   26.4217  -19.8341  -12.6706 C   0  0  0  0  0  0  0  0  0  0  0  0
   26.5525  -20.6547  -11.3765 C   0  0  0  0  0  0  0  0  0  0  0  0
   25.4546  -21.6832  -11.4981 C   0  0  0  0  0  0  0  0  0  0  0  0
   24.9205  -21.5606  -12.9065 C   0  0  1  0  0  0  0  0  0  0  0  0
   23.5949  -20.8718  -12.9480 C   0  0  0  0  0  0  0  0  0  0  0  0
   23.5691  -19.6626  -12.6040 O   0  0  0  0  0  0  0  0  0  0  0  0
   19.2504  -21.4720  -17.0120 N   0  0  0  0  0  0  0  0  0  0  0  0
   20.5230  -20.8615  -17.1209 C   0  0  0  0  0  0  0  0  0  0  0  0
   20.9704  -20.5990  -18.2573 O   0  0  0  0  0  0  0  0  0  0  0  0
   21.2805  -20.5546  -15.8874 C   0  0  0  0  0  0  0  0  0  0  0  0
   20.4542  -20.9792  -14.7127 C   0  0  0  0  0  0  0  0  0  0  0  0
   21.1143  -20.7672  -13.3834 C   0  0  2  0  0  0  0  0  0  0  0  0
   22.3849  -21.4609  -13.3359 N   0  0  0  0  0  0  0  0  0  0  0  0
   20.2612  -21.0189  -12.2341 C   0  0  0  0  0  0  0  0  0  0  0  0
   20.5514  -22.0192  -11.3393 O   0  0  0  0  0  0  0  0  0  0  0  0
   19.2461  -20.3257  -12.0422 O   0  0  0  0  0  0  0  0  0  0  0  0
  2  1  1  1
  2  4  1  0
  3  2  1  0
  4  5  1  0
  5  6  1  6
  7  5  1  0
  7  8  2  0
  9  7  1  0
 10  9  1  0
 11 12  1  0
 11 10  1  0
 12 13  1  0
 13 14  1  1
 13  9  1  0
 14 15  2  0
 16 17  1  0
 17 19  1  0
 18 17  2  0
 19 20  1  0
 21 20  1  6
 21 23  1  0
 22 14  1  0
 22 21  1  0
 23 25  2  0
 23 24  1  0
M  END
$$$$
