LPQ.pdb
     RDKit          3D

 25 25  0  0  1  0  0  0  0  0999 V2000
   23.7811  -19.0422  -19.4621 C   0  0  0  0  0  0  0  0  0  0  0  0
   22.3911  -18.4304  -19.2616 C   0  0  2  0  0  0  0  0  0  0  0  0
   21.8740  -18.0457  -20.6103 C   0  0  0  0  0  0  0  0  0  0  0  0
   22.5635  -17.2856  -18.3149 C   0  0  0  0  0  0  0  0  0  0  0  0
   23.0851  -17.7404  -16.9558 C   0  0  2  0  0  0  0  0  0  0  0  0
   22.0647  -18.6123  -16.3350 N   0  0  0  0  0  0  0  0  0  0  0  0
   23.2061  -16.5365  -16.1093 C   0  0  0  0  0  0  0  0  0  0  0  0
   22.2128  -16.3034  -15.3356 O   0  0  0  0  0  0  0  0  0  0  0  0
   24.2865  -15.6443  -16.0737 N   0  0  0  0  0  0  0  0  0  0  0  0
   25.4465  -15.7222  -16.9106 C   0  0  0  0  0  0  0  0  0  0  0  0
   26.5589  -15.4511  -15.8838 C   0  0  0  0  0  0  0  0  0  0  0  0
   25.9030  -14.5243  -14.8893 C   0  0  0  0  0  0  0  0  0  0  0  0
   24.4349  -14.4980  -15.2469 C   0  0  1  0  0  0  0  0  0  0  0  0
   24.0449  -13.2280  -15.9313 C   0  0  0  0  0  0  0  0  0  0  0  0
   24.1225  -13.2088  -17.1861 O   0  0  0  0  0  0  0  0  0  0  0  0
   21.3685   -8.3454  -13.2091 N   0  0  0  0  0  0  0  0  0  0  0  0
   21.3097   -7.8800  -14.5447 C   0  0  0  0  0  0  0  0  0  0  0  0
   20.7996   -6.7626  -14.7718 O   0  0  0  0  0  0  0  0  0  0  0  0
   21.8534   -8.7307  -15.6265 C   0  0  0  0  0  0  0  0  0  0  0  0
   22.4397   -9.9607  -15.0049 C   0  0  0  0  0  0  0  0  0  0  0  0
   23.0936  -10.8942  -15.9790 C   0  0  2  0  0  0  0  0  0  0  0  0
   23.6033  -12.0629  -15.2917 N   0  0  0  0  0  0  0  0  0  0  0  0
   24.0554  -10.2671  -16.8698 C   0  0  0  0  0  0  0  0  0  0  0  0
   23.6518   -9.6382  -18.0218 O   0  0  0  0  0  0  0  0  0  0  0  0
   25.2695  -10.2910  -16.5997 O   0  0  0  0  0  0  0  0  0  0  0  0
  2  1  1  6
  2  4  1  0
  3  2  1  0
  4  5  1  0
  5  6  1  1
  7  5  1  0
  7  8  2  0
  9  7  1  0
 10  9  1  0
 11 12  1  0
 11 10  1  0
 12 13  1  0
 13 14  1  6
 13  9  1  0
 14 15  2  0
 16 17  1  0
 17 19  1  0
 18 17  2  0
 19 20  1  0
 21 20  1  1
 21 23  1  0
 22 14  1  0
 22 21  1  0
 23 25  2  0
 23 24  1  0
M  END
$$$$
