LPQ.pdb
     RDKit          3D

 25 25  0  0  1  0  0  0  0  0999 V2000
   27.1206  -32.3058   -8.6348 C   0  0  0  0  0  0  0  0  0  0  0  0
   26.4431  -33.1484   -7.5497 C   0  0  2  0  0  0  0  0  0  0  0  0
   25.4078  -32.2889   -6.8987 C   0  0  0  0  0  0  0  0  0  0  0  0
   27.5292  -33.6120   -6.6321 C   0  0  0  0  0  0  0  0  0  0  0  0
   28.4447  -34.6334   -7.2989 C   0  0  2  0  0  0  0  0  0  0  0  0
   27.6011  -35.6755   -7.9226 N   0  0  0  0  0  0  0  0  0  0  0  0
   29.2254  -35.2848   -6.2280 C   0  0  0  0  0  0  0  0  0  0  0  0
   28.7122  -36.3526   -5.7420 O   0  0  0  0  0  0  0  0  0  0  0  0
   30.4524  -34.8525   -5.7062 N   0  0  0  0  0  0  0  0  0  0  0  0
   31.0657  -33.5881   -5.9843 C   0  0  0  0  0  0  0  0  0  0  0  0
   32.5230  -34.0217   -6.2150 C   0  0  0  0  0  0  0  0  0  0  0  0
   32.6836  -35.2171   -5.3077 C   0  0  0  0  0  0  0  0  0  0  0  0
   31.2989  -35.5454   -4.7990 C   0  0  1  0  0  0  0  0  0  0  0  0
   31.1059  -35.1224   -3.3787 C   0  0  0  0  0  0  0  0  0  0  0  0
   30.5773  -33.9981   -3.1849 O   0  0  0  0  0  0  0  0  0  0  0  0
   27.1654  -35.4327    0.3392 N   0  0  0  0  0  0  0  0  0  0  0  0
   27.5511  -36.7091   -0.1364 C   0  0  0  0  0  0  0  0  0  0  0  0
   26.7933  -37.6815    0.0648 O   0  0  0  0  0  0  0  0  0  0  0  0
   28.8369  -36.8495   -0.8550 C   0  0  0  0  0  0  0  0  0  0  0  0
   29.5207  -35.5171   -0.8560 C   0  0  0  0  0  0  0  0  0  0  0  0
   31.0174  -35.5902   -0.9034 C   0  0  2  0  0  0  0  0  0  0  0  0
   31.4652  -35.8722   -2.2517 N   0  0  0  0  0  0  0  0  0  0  0  0
   31.6166  -36.4442    0.1083 C   0  0  0  0  0  0  0  0  0  0  0  0
   32.3038  -37.5815   -0.2382 O   0  0  0  0  0  0  0  0  0  0  0  0
   31.5148  -36.1553    1.3140 O   0  0  0  0  0  0  0  0  0  0  0  0
  2  1  1  6
  2  4  1  0
  3  2  1  0
  4  5  1  0
  5  6  1  1
  7  5  1  0
  7  8  2  0
  9  7  1  0
 10  9  1  0
 11 12  1  0
 11 10  1  0
 12 13  1  0
 13 14  1  1
 13  9  1  0
 14 15  2  0
 16 17  1  0
 17 19  1  0
 18 17  2  0
 19 20  1  0
 21 20  1  6
 21 23  1  0
 22 14  1  0
 22 21  1  0
 23 25  2  0
 23 24  1  0
M  END
$$$$
