LPQ.pdb
     RDKit          3D

 25 25  0  0  1  0  0  0  0  0999 V2000
   22.3654  -12.4664  -21.1760 C   0  0  0  0  0  0  0  0  0  0  0  0
   21.1628  -11.5297  -21.0242 C   0  0  2  0  0  0  0  0  0  0  0  0
   21.1943  -10.5734  -22.1726 C   0  0  0  0  0  0  0  0  0  0  0  0
   21.2918  -10.8875  -19.6798 C   0  0  0  0  0  0  0  0  0  0  0  0
   21.1566  -11.8993  -18.5468 C   0  0  2  0  0  0  0  0  0  0  0  0
   19.7996  -12.4840  -18.6059 N   0  0  0  0  0  0  0  0  0  0  0  0
   21.2559  -11.1503  -17.2780 C   0  0  0  0  0  0  0  0  0  0  0  0
   20.1409  -10.8002  -16.7548 O   0  0  0  0  0  0  0  0  0  0  0  0
   22.4338  -10.7957  -16.6061 N   0  0  0  0  0  0  0  0  0  0  0  0
   23.7590  -11.1291  -17.0359 C   0  0  0  0  0  0  0  0  0  0  0  0
   24.3890  -11.5707  -15.7042 C   0  0  0  0  0  0  0  0  0  0  0  0
   23.6787  -10.7211  -14.6787 C   0  0  0  0  0  0  0  0  0  0  0  0
   22.5530  -10.0312  -15.4141 C   0  0  1  0  0  0  0  0  0  0  0  0
   22.8488   -8.5889  -15.6707 C   0  0  0  0  0  0  0  0  0  0  0  0
   23.4052   -8.3059  -16.7622 O   0  0  0  0  0  0  0  0  0  0  0  0
   20.1172   -5.5787  -18.4534 N   0  0  0  0  0  0  0  0  0  0  0  0
   20.7376   -4.3956  -17.9852 C   0  0  0  0  0  0  0  0  0  0  0  0
   20.4934   -3.3166  -18.5655 O   0  0  0  0  0  0  0  0  0  0  0  0
   21.6535   -4.4751  -16.8257 C   0  0  0  0  0  0  0  0  0  0  0  0
   21.7062   -5.9000  -16.3676 C   0  0  0  0  0  0  0  0  0  0  0  0
   22.5792   -6.1330  -15.1712 C   0  0  2  0  0  0  0  0  0  0  0  0
   22.5591   -7.5324  -14.7982 N   0  0  0  0  0  0  0  0  0  0  0  0
   22.3462   -5.2231  -14.0623 C   0  0  0  0  0  0  0  0  0  0  0  0
   22.7630   -3.9159  -14.1163 O   0  0  0  0  0  0  0  0  0  0  0  0
   21.7607   -5.6186  -13.0384 O   0  0  0  0  0  0  0  0  0  0  0  0
  2  1  1  6
  2  4  1  0
  3  2  1  0
  4  5  1  0
  5  6  1  6
  7  5  1  0
  7  8  2  0
  9  7  1  0
 10  9  1  0
 11 12  1  0
 11 10  1  0
 12 13  1  0
 13 14  1  6
 13  9  1  0
 14 15  2  0
 16 17  1  0
 17 19  1  0
 18 17  2  0
 19 20  1  0
 21 20  1  6
 21 23  1  0
 22 14  1  0
 22 21  1  0
 23 25  2  0
 23 24  1  0
M  END
$$$$
