LPQ.pdb
     RDKit          3D

 25 25  0  0  1  0  0  0  0  0999 V2000
   19.8796   -8.4941  -18.7225 C   0  0  0  0  0  0  0  0  0  0  0  0
   19.3077   -9.5875  -17.8148 C   0  0  2  0  0  0  0  0  0  0  0  0
   17.9352   -9.9081  -18.3126 C   0  0  0  0  0  0  0  0  0  0  0  0
   19.3503   -9.0476  -16.4208 C   0  0  0  0  0  0  0  0  0  0  0  0
   20.7786   -8.9063  -15.9052 C   0  0  2  0  0  0  0  0  0  0  0  0
   21.3347  -10.2612  -15.7011 N   0  0  0  0  0  0  0  0  0  0  0  0
   20.7025   -8.2598  -14.5797 C   0  0  0  0  0  0  0  0  0  0  0  0
   20.6026   -9.0561  -13.5820 O   0  0  0  0  0  0  0  0  0  0  0  0
   20.7310   -6.8831  -14.3177 N   0  0  0  0  0  0  0  0  0  0  0  0
   20.7831   -5.8562  -15.3151 C   0  0  0  0  0  0  0  0  0  0  0  0
   21.8389   -4.9187  -14.7055 C   0  0  0  0  0  0  0  0  0  0  0  0
   21.6430   -5.0860  -13.2184 C   0  0  0  0  0  0  0  0  0  0  0  0
   20.6851   -6.2427  -13.0500 C   0  0  1  0  0  0  0  0  0  0  0  0
   19.3125   -5.7867  -12.6737 C   0  0  0  0  0  0  0  0  0  0  0  0
   18.5316   -5.4911  -13.6138 O   0  0  0  0  0  0  0  0  0  0  0  0
   13.9723   -7.4294   -8.2526 N   0  0  0  0  0  0  0  0  0  0  0  0
   15.3298   -7.2271   -8.5992 C   0  0  0  0  0  0  0  0  0  0  0  0
   16.1531   -8.1378   -8.3682 O   0  0  0  0  0  0  0  0  0  0  0  0
   15.7288   -5.9460   -9.2228 C   0  0  0  0  0  0  0  0  0  0  0  0
   17.1549   -6.0643   -9.6646 C   0  0  0  0  0  0  0  0  0  0  0  0
   17.4313   -5.4914  -11.0221 C   0  0  2  0  0  0  0  0  0  0  0  0
   18.8280   -5.6615  -11.3656 N   0  0  0  0  0  0  0  0  0  0  0  0
   16.9339   -4.1409  -11.2247 C   0  0  0  0  0  0  0  0  0  0  0  0
   17.7846   -3.0631  -11.2243 O   0  0  0  0  0  0  0  0  0  0  0  0
   15.7193   -3.9396  -11.4029 O   0  0  0  0  0  0  0  0  0  0  0  0
  2  1  1  6
  2  4  1  0
  3  2  1  0
  4  5  1  0
  5  6  1  1
  7  5  1  0
  7  8  2  0
  9  7  1  0
 10  9  1  0
 11 12  1  0
 11 10  1  0
 12 13  1  0
 13 14  1  6
 13  9  1  0
 14 15  2  0
 16 17  1  0
 17 19  1  0
 18 17  2  0
 19 20  1  0
 21 20  1  1
 21 23  1  0
 22 14  1  0
 22 21  1  0
 23 25  2  0
 23 24  1  0
M  END
$$$$
