LPQ.pdb
     RDKit          3D

 25 25  0  0  1  0  0  0  0  0999 V2000
   26.0522  -20.1127   -8.8178 C   0  0  0  0  0  0  0  0  0  0  0  0
   24.7918  -20.6084   -9.5334 C   0  0  2  0  0  0  0  0  0  0  0  0
   24.6146  -22.0495   -9.1783 C   0  0  0  0  0  0  0  0  0  0  0  0
   25.0023  -20.3514  -10.9915 C   0  0  0  0  0  0  0  0  0  0  0  0
   25.0315  -18.8604  -11.3115 C   0  0  2  0  0  0  0  0  0  0  0  0
   23.7506  -18.2662  -10.8723 N   0  0  0  0  0  0  0  0  0  0  0  0
   25.0936  -18.7303  -12.7811 C   0  0  0  0  0  0  0  0  0  0  0  0
   24.0339  -18.2793  -13.3407 O   0  0  0  0  0  0  0  0  0  0  0  0
   26.1837  -19.0464  -13.6035 N   0  0  0  0  0  0  0  0  0  0  0  0
   27.3415  -19.7814  -13.1893 C   0  0  0  0  0  0  0  0  0  0  0  0
   28.4583  -18.9416  -13.8318 C   0  0  0  0  0  0  0  0  0  0  0  0
   27.8141  -18.3954  -15.0827 C   0  0  0  0  0  0  0  0  0  0  0  0
   26.3458  -18.7386  -14.9813 C   0  0  1  0  0  0  0  0  0  0  0  0
   25.9686  -19.8698  -15.8823 C   0  0  0  0  0  0  0  0  0  0  0  0
   26.3638  -21.0173  -15.5536 O   0  0  0  0  0  0  0  0  0  0  0  0
   20.5170  -19.8745  -18.3467 N   0  0  0  0  0  0  0  0  0  0  0  0
   20.8586  -20.0051  -16.9791 C   0  0  0  0  0  0  0  0  0  0  0  0
   19.9735  -19.8230  -16.1167 O   0  0  0  0  0  0  0  0  0  0  0  0
   22.2504  -20.3526  -16.6164 C   0  0  0  0  0  0  0  0  0  0  0  0
   23.0503  -20.4593  -17.8780 C   0  0  0  0  0  0  0  0  0  0  0  0
   24.4840  -20.8457  -17.6704 C   0  0  2  0  0  0  0  0  0  0  0  0
   25.2154  -19.7560  -17.0575 N   0  0  0  0  0  0  0  0  0  0  0  0
   25.1367  -21.4108  -18.8394 C   0  0  0  0  0  0  0  0  0  0  0  0
   24.6920  -22.5800  -19.4056 O   0  0  0  0  0  0  0  0  0  0  0  0
   26.1168  -20.8387  -19.3491 O   0  0  0  0  0  0  0  0  0  0  0  0
  2  1  1  1
  2  4  1  0
  3  2  1  0
  4  5  1  0
  5  6  1  6
  7  5  1  0
  7  8  2  0
  9  7  1  0
 10  9  1  0
 11 12  1  0
 11 10  1  0
 12 13  1  0
 13 14  1  6
 13  9  1  0
 14 15  2  0
 16 17  1  0
 17 19  1  0
 18 17  2  0
 19 20  1  0
 21 20  1  6
 21 23  1  0
 22 14  1  0
 22 21  1  0
 23 25  2  0
 23 24  1  0
M  END
$$$$
