PKV.pdb
     RDKit          3D

 24 24  0  0  1  0  0  0  0  0999 V2000
    8.8572  -14.4273   18.9789 N   0  0  0  0  0  0  0  0  0  0  0  0
    7.6005  -14.4690   18.2972 C   0  0  0  0  0  0  0  0  0  0  0  0
    6.9632  -13.1098   18.4419 C   0  0  0  0  0  0  0  0  0  0  0  0
    7.8387  -12.4159   19.4385 C   0  0  0  0  0  0  0  0  0  0  0  0
    8.7420  -13.4608   20.0491 C   0  0  1  0  0  0  0  0  0  0  0  0
    8.1119  -14.1277   21.2154 C   0  0  0  0  0  0  0  0  0  0  0  0
    7.1561  -13.5507   21.8015 O   0  0  0  0  0  0  0  0  0  0  0  0
    8.5465  -15.3927   21.6959 N   0  0  0  0  0  0  0  0  0  0  0  0
    8.0689  -15.9406   22.9228 C   0  0  1  0  0  0  0  0  0  0  0  0
    8.3352  -17.4238   23.0387 C   0  0  0  0  0  0  0  0  0  0  0  0
    7.6654  -18.2257   21.9628 C   0  0  0  0  0  0  0  0  0  0  0  0
    8.0236  -19.6796   22.1842 C   0  0  0  0  0  0  0  0  0  0  0  0
    7.3290  -20.5698   21.1724 C   0  0  0  0  0  0  0  0  0  0  0  0
    7.6208  -21.9556   21.4880 N   0  0  0  0  0  0  0  0  0  0  0  0
    8.7108  -15.2871   24.1157 C   0  0  0  0  0  0  0  0  0  0  0  0
    9.9322  -15.0175   24.1537 O   0  0  0  0  0  0  0  0  0  0  0  0
    6.1764  -13.7987   27.2738 C   0  0  0  0  0  0  0  0  0  0  0  0
    7.5261  -13.2720   26.9162 C   0  0  2  0  0  0  0  0  0  0  0  0
    7.3897  -12.1176   25.9738 C   0  0  0  0  0  0  0  0  0  0  0  0
    8.4761  -14.3390   26.4174 C   0  0  2  0  0  0  0  0  0  0  0  0
    7.9282  -14.9530   25.2526 N   0  0  0  0  0  0  0  0  0  0  0  0
    8.6254  -15.3505   27.4853 C   0  0  0  0  0  0  0  0  0  0  0  0
    9.2962  -15.1007   28.6775 O   0  0  0  0  0  0  0  0  0  0  0  0
    8.1343  -16.4908   27.3327 O   0  0  0  0  0  0  0  0  0  0  0  0
  1  2  1  0
  2  3  1  0
  4  3  1  0
  5  1  1  0
  5  4  1  0
  5  6  1  1
  7  6  2  0
  8  6  1  0
  9 10  1  6
  9  8  1  0
 10 11  1  0
 12 11  1  0
 13 12  1  0
 13 14  1  0
 15 21  1  0
 15  9  1  0
 16 15  2  0
 18 17  1  6
 19 18  1  0
 20 18  1  0
 20 21  1  6
 22 23  1  0
 22 20  1  0
 24 22  2  0
M  END
$$$$
