PKV.pdb
     RDKit          3D

 24 24  0  0  1  0  0  0  0  0999 V2000
    9.0015  -14.8109   19.2994 N   0  0  0  0  0  0  0  0  0  0  0  0
    7.8324  -14.9741   18.4917 C   0  0  0  0  0  0  0  0  0  0  0  0
    7.1910  -13.6170   18.3467 C   0  0  0  0  0  0  0  0  0  0  0  0
    7.9487  -12.7649   19.3167 C   0  0  0  0  0  0  0  0  0  0  0  0
    8.7685  -13.6903   20.1842 C   0  0  1  0  0  0  0  0  0  0  0  0
    8.0029  -14.1740   21.3597 C   0  0  0  0  0  0  0  0  0  0  0  0
    7.2240  -13.3755   21.9476 O   0  0  0  0  0  0  0  0  0  0  0  0
    8.1155  -15.5044   21.8470 N   0  0  0  0  0  0  0  0  0  0  0  0
    7.6399  -15.8799   23.1379 C   0  0  1  0  0  0  0  0  0  0  0  0
    7.8442  -17.3493   23.4268 C   0  0  0  0  0  0  0  0  0  0  0  0
    7.2950  -17.7670   24.7585 C   0  0  0  0  0  0  0  0  0  0  0  0
    7.5725  -19.2456   24.9256 C   0  0  0  0  0  0  0  0  0  0  0  0
    7.0814  -19.7410   26.2716 C   0  0  0  0  0  0  0  0  0  0  0  0
    7.4244  -21.1442   26.4090 N   0  0  0  0  0  0  0  0  0  0  0  0
    8.3337  -15.1187   24.2340 C   0  0  0  0  0  0  0  0  0  0  0  0
    9.5662  -14.9032   24.2214 O   0  0  0  0  0  0  0  0  0  0  0  0
    5.9219  -13.3550   27.3629 C   0  0  0  0  0  0  0  0  0  0  0  0
    7.2151  -12.8041   26.8616 C   0  0  2  0  0  0  0  0  0  0  0  0
    6.9552  -11.7516   25.8300 C   0  0  0  0  0  0  0  0  0  0  0  0
    8.1829  -13.8696   26.3947 C   0  0  2  0  0  0  0  0  0  0  0  0
    7.5894  -14.6152   25.3336 N   0  0  0  0  0  0  0  0  0  0  0  0
    8.4565  -14.7676   27.5368 C   0  0  0  0  0  0  0  0  0  0  0  0
    9.1535  -14.3622   28.6697 O   0  0  0  0  0  0  0  0  0  0  0  0
    8.0525  -15.9511   27.5060 O   0  0  0  0  0  0  0  0  0  0  0  0
  1  2  1  0
  2  3  1  0
  4  3  1  0
  5  1  1  0
  5  4  1  0
  5  6  1  1
  7  6  2  0
  8  6  1  0
  9 10  1  1
  9  8  1  0
 10 11  1  0
 12 11  1  0
 13 12  1  0
 13 14  1  0
 15 21  1  0
 15  9  1  0
 16 15  2  0
 18 17  1  6
 19 18  1  0
 20 18  1  0
 20 21  1  6
 22 23  1  0
 22 20  1  0
 24 22  2  0
M  END
$$$$
