PKV.pdb
     RDKit          3D

 24 24  0  0  1  0  0  0  0  0999 V2000
    8.6023  -15.1773   19.4213 N   0  0  0  0  0  0  0  0  0  0  0  0
    7.4323  -15.0066   18.6164 C   0  0  0  0  0  0  0  0  0  0  0  0
    7.1094  -13.5336   18.5962 C   0  0  0  0  0  0  0  0  0  0  0  0
    8.0301  -12.9581   19.6268 C   0  0  0  0  0  0  0  0  0  0  0  0
    8.6172  -14.1137   20.4018 C   0  0  1  0  0  0  0  0  0  0  0  0
    7.7544  -14.5153   21.5403 C   0  0  0  0  0  0  0  0  0  0  0  0
    6.8366  -13.7345   21.9116 O   0  0  0  0  0  0  0  0  0  0  0  0
    7.9249  -15.7477   22.2275 N   0  0  0  0  0  0  0  0  0  0  0  0
    7.4400  -15.9477   23.5535 C   0  0  1  0  0  0  0  0  0  0  0  0
    7.5585  -17.3855   24.0041 C   0  0  0  0  0  0  0  0  0  0  0  0
    6.6545  -18.3133   23.2483 C   0  0  0  0  0  0  0  0  0  0  0  0
    6.8551  -19.7056   23.8074 C   0  0  0  0  0  0  0  0  0  0  0  0
    5.9982  -20.7153   23.0695 C   0  0  0  0  0  0  0  0  0  0  0  0
    6.2447  -22.0337   23.6230 N   0  0  0  0  0  0  0  0  0  0  0  0
    8.1888  -15.1128   24.5558 C   0  0  0  0  0  0  0  0  0  0  0  0
    9.4373  -15.0291   24.5565 O   0  0  0  0  0  0  0  0  0  0  0  0
    5.9247  -12.7263   27.3803 C   0  0  0  0  0  0  0  0  0  0  0  0
    7.2699  -12.3732   26.8393 C   0  0  2  0  0  0  0  0  0  0  0  0
    7.1238  -11.4402   25.6784 C   0  0  0  0  0  0  0  0  0  0  0  0
    8.1299  -13.5792   26.5297 C   0  0  2  0  0  0  0  0  0  0  0  0
    7.4804  -14.3834   25.5472 N   0  0  0  0  0  0  0  0  0  0  0  0
    8.2899  -14.3562   27.7772 C   0  0  0  0  0  0  0  0  0  0  0  0
    7.7957  -15.6464   27.9352 O   0  0  0  0  0  0  0  0  0  0  0  0
    8.8939  -13.8514   28.7494 O   0  0  0  0  0  0  0  0  0  0  0  0
  1  2  1  0
  2  3  1  0
  4  3  1  0
  5  1  1  0
  5  4  1  0
  5  6  1  1
  7  6  2  0
  8  6  1  0
  9 10  1  1
  9  8  1  0
 10 11  1  0
 12 11  1  0
 13 12  1  0
 13 14  1  0
 15 21  1  0
 15  9  1  0
 16 15  2  0
 18 17  1  6
 19 18  1  0
 20 18  1  0
 20 21  1  6
 22 23  1  0
 22 20  1  0
 24 22  2  0
M  END
$$$$
