PKV.pdb
     RDKit          3D

 24 24  0  0  1  0  0  0  0  0999 V2000
    7.9453  -15.1575   19.1787 N   0  0  0  0  0  0  0  0  0  0  0  0
    6.8583  -14.3615   18.6985 C   0  0  0  0  0  0  0  0  0  0  0  0
    7.1860  -12.9208   19.0006 C   0  0  0  0  0  0  0  0  0  0  0  0
    8.3943  -13.0124   19.8797 C   0  0  0  0  0  0  0  0  0  0  0  0
    8.5399  -14.4568   20.2959 C   0  0  1  0  0  0  0  0  0  0  0  0
    7.7522  -14.7664   21.5147 C   0  0  0  0  0  0  0  0  0  0  0  0
    6.8446  -13.9666   21.8706 O   0  0  0  0  0  0  0  0  0  0  0  0
    7.9833  -15.9313   22.2955 N   0  0  0  0  0  0  0  0  0  0  0  0
    7.4726  -16.0679   23.6199 C   0  0  1  0  0  0  0  0  0  0  0  0
    7.4363  -17.5062   24.0826 C   0  0  0  0  0  0  0  0  0  0  0  0
    6.6725  -18.4021   23.1534 C   0  0  0  0  0  0  0  0  0  0  0  0
    6.7704  -19.8129   23.6929 C   0  0  0  0  0  0  0  0  0  0  0  0
    6.1446  -20.8056   22.7329 C   0  0  0  0  0  0  0  0  0  0  0  0
    6.3318  -22.1461   23.2559 N   0  0  0  0  0  0  0  0  0  0  0  0
    8.2994  -15.3080   24.6205 C   0  0  0  0  0  0  0  0  0  0  0  0
    9.5496  -15.2829   24.5732 O   0  0  0  0  0  0  0  0  0  0  0  0
    6.2579  -12.9598   27.6387 C   0  0  0  0  0  0  0  0  0  0  0  0
    7.5791  -12.6171   27.0354 C   0  0  2  0  0  0  0  0  0  0  0  0
    7.3913  -11.6389   25.9186 C   0  0  0  0  0  0  0  0  0  0  0  0
    8.3909  -13.8296   26.6349 C   0  0  2  0  0  0  0  0  0  0  0  0
    7.6664  -14.5847   25.6659 N   0  0  0  0  0  0  0  0  0  0  0  0
    8.6051  -14.6533   27.8438 C   0  0  0  0  0  0  0  0  0  0  0  0
    8.0640  -15.9247   28.0003 O   0  0  0  0  0  0  0  0  0  0  0  0
    9.3013  -14.2078   28.7827 O   0  0  0  0  0  0  0  0  0  0  0  0
  1  2  1  0
  2  3  1  0
  4  3  1  0
  5  1  1  0
  5  4  1  0
  5  6  1  1
  7  6  2  0
  8  6  1  0
  9 10  1  1
  9  8  1  0
 10 11  1  0
 12 11  1  0
 13 12  1  0
 13 14  1  0
 15 21  1  0
 15  9  1  0
 16 15  2  0
 18 17  1  6
 19 18  1  0
 20 18  1  0
 20 21  1  6
 22 23  1  0
 22 20  1  0
 24 22  2  0
M  END
$$$$
