PKV.pdb
     RDKit          3D

 24 24  0  0  1  0  0  0  0  0999 V2000
    9.1685  -14.6329   19.0784 N   0  0  0  0  0  0  0  0  0  0  0  0
    7.9712  -14.9258   18.3527 C   0  0  0  0  0  0  0  0  0  0  0  0
    7.0961  -13.6991   18.4118 C   0  0  0  0  0  0  0  0  0  0  0  0
    7.7881  -12.8217   19.4080 C   0  0  0  0  0  0  0  0  0  0  0  0
    8.8348  -13.6632   20.0987 C   0  0  1  0  0  0  0  0  0  0  0  0
    8.2818  -14.3879   21.2696 C   0  0  0  0  0  0  0  0  0  0  0  0
    7.1884  -13.9996   21.7631 O   0  0  0  0  0  0  0  0  0  0  0  0
    8.9396  -15.5035   21.8550 N   0  0  0  0  0  0  0  0  0  0  0  0
    8.5678  -16.0159   23.1328 C   0  0  1  0  0  0  0  0  0  0  0  0
    9.2433  -17.3302   23.4501 C   0  0  0  0  0  0  0  0  0  0  0  0
    8.9190  -18.4101   22.4612 C   0  0  0  0  0  0  0  0  0  0  0  0
    9.7592  -19.6196   22.8108 C   0  0  0  0  0  0  0  0  0  0  0  0
    9.5769  -20.7216   21.7858 C   0  0  0  0  0  0  0  0  0  0  0  0
   10.4600  -21.8235   22.1192 N   0  0  0  0  0  0  0  0  0  0  0  0
    8.9211  -15.0642   24.2426 C   0  0  0  0  0  0  0  0  0  0  0  0
   10.0800  -14.6185   24.3974 O   0  0  0  0  0  0  0  0  0  0  0  0
    6.8158  -11.9532   25.1965 C   0  0  0  0  0  0  0  0  0  0  0  0
    7.0581  -12.7847   26.4118 C   0  0  2  0  0  0  0  0  0  0  0  0
    7.2004  -11.9032   27.6126 C   0  0  0  0  0  0  0  0  0  0  0  0
    8.2007  -13.7641   26.2532 C   0  0  2  0  0  0  0  0  0  0  0  0
    7.9251  -14.6393   25.1614 N   0  0  0  0  0  0  0  0  0  0  0  0
    8.3036  -14.5490   27.5018 C   0  0  0  0  0  0  0  0  0  0  0  0
    8.8111  -14.0260   28.6862 O   0  0  0  0  0  0  0  0  0  0  0  0
    7.9232  -15.7406   27.5187 O   0  0  0  0  0  0  0  0  0  0  0  0
  1  2  1  0
  2  3  1  0
  4  3  1  0
  5  1  1  0
  5  4  1  0
  5  6  1  1
  7  6  2  0
  8  6  1  0
  9 10  1  1
  9  8  1  0
 10 11  1  0
 12 11  1  0
 13 12  1  0
 13 14  1  0
 15 21  1  0
 15  9  1  0
 16 15  2  0
 18 17  1  6
 19 18  1  0
 20 18  1  0
 20 21  1  6
 22 23  1  0
 22 20  1  0
 24 22  2  0
M  END
$$$$
