PKV.pdb
     RDKit          3D

 24 24  0  0  1  0  0  0  0  0999 V2000
    8.8358  -14.7343   19.0134 N   0  0  0  0  0  0  0  0  0  0  0  0
    7.6295  -14.6968   18.2456 C   0  0  0  0  0  0  0  0  0  0  0  0
    7.0900  -13.2906   18.3212 C   0  0  0  0  0  0  0  0  0  0  0  0
    7.9453  -12.6419   19.3646 C   0  0  0  0  0  0  0  0  0  0  0  0
    8.7216  -13.7377   20.0556 C   0  0  1  0  0  0  0  0  0  0  0  0
    7.9633  -14.3283   21.1862 C   0  0  0  0  0  0  0  0  0  0  0  0
    7.0415  -13.6521   21.7182 O   0  0  0  0  0  0  0  0  0  0  0  0
    8.2380  -15.6281   21.6911 N   0  0  0  0  0  0  0  0  0  0  0  0
    7.7435  -16.0693   22.9538 C   0  0  1  0  0  0  0  0  0  0  0  0
    8.0421  -17.5273   23.2168 C   0  0  0  0  0  0  0  0  0  0  0  0
    7.5949  -18.4276   22.1037 C   0  0  0  0  0  0  0  0  0  0  0  0
    8.0356  -19.8345   22.4467 C   0  0  0  0  0  0  0  0  0  0  0  0
    7.6104  -20.8139   21.3704 C   0  0  0  0  0  0  0  0  0  0  0  0
    8.1719  -22.1171   21.6732 N   0  0  0  0  0  0  0  0  0  0  0  0
    8.3399  -15.2890   24.0929 C   0  0  0  0  0  0  0  0  0  0  0  0
    9.5716  -15.0945   24.1973 O   0  0  0  0  0  0  0  0  0  0  0  0
    6.1546  -12.2905   25.6486 C   0  0  0  0  0  0  0  0  0  0  0  0
    6.8657  -13.0733   26.7014 C   0  0  2  0  0  0  0  0  0  0  0  0
    7.2950  -12.1644   27.8100 C   0  0  0  0  0  0  0  0  0  0  0  0
    7.9927  -13.9257   26.1599 C   0  0  2  0  0  0  0  0  0  0  0  0
    7.5004  -14.7422   25.0992 N   0  0  0  0  0  0  0  0  0  0  0  0
    8.4815  -14.7852   27.2590 C   0  0  0  0  0  0  0  0  0  0  0  0
    8.2588  -16.1571   27.3047 O   0  0  0  0  0  0  0  0  0  0  0  0
    9.1276  -14.2783   28.2026 O   0  0  0  0  0  0  0  0  0  0  0  0
  1  2  1  0
  2  3  1  0
  4  3  1  0
  5  1  1  0
  5  4  1  0
  5  6  1  1
  7  6  2  0
  8  6  1  0
  9 10  1  1
  9  8  1  0
 10 11  1  0
 12 11  1  0
 13 12  1  0
 13 14  1  0
 15 21  1  0
 15  9  1  0
 16 15  2  0
 18 17  1  6
 19 18  1  0
 20 18  1  0
 20 21  1  6
 22 23  1  0
 22 20  1  0
 24 22  2  0
M  END
$$$$
