PKV.pdb
     RDKit          3D

 24 24  0  0  1  0  0  0  0  0999 V2000
    8.5424  -14.8380   18.9189 N   0  0  0  0  0  0  0  0  0  0  0  0
    7.3355  -14.4372   18.2643 C   0  0  0  0  0  0  0  0  0  0  0  0
    7.1032  -12.9845   18.5959 C   0  0  0  0  0  0  0  0  0  0  0  0
    8.1224  -12.6987   19.6546 C   0  0  0  0  0  0  0  0  0  0  0  0
    8.6862  -14.0248   20.1066 C   0  0  1  0  0  0  0  0  0  0  0  0
    7.8759  -14.6331   21.1907 C   0  0  0  0  0  0  0  0  0  0  0  0
    6.8261  -14.0448   21.5672 O   0  0  0  0  0  0  0  0  0  0  0  0
    8.2398  -15.8544   21.8199 N   0  0  0  0  0  0  0  0  0  0  0  0
    7.7480  -16.2175   23.1083 C   0  0  1  0  0  0  0  0  0  0  0  0
    8.0088  -17.6684   23.4414 C   0  0  0  0  0  0  0  0  0  0  0  0
    7.4842  -18.0641   24.7896 C   0  0  0  0  0  0  0  0  0  0  0  0
    7.5320  -19.5746   24.8751 C   0  0  0  0  0  0  0  0  0  0  0  0
    6.8189  -20.0706   26.1176 C   0  0  0  0  0  0  0  0  0  0  0  0
    6.9258  -21.5165   26.1745 N   0  0  0  0  0  0  0  0  0  0  0  0
    8.3793  -15.3984   24.2004 C   0  0  0  0  0  0  0  0  0  0  0  0
    9.6200  -15.3058   24.3342 O   0  0  0  0  0  0  0  0  0  0  0  0
    6.7798  -11.9298   25.2254 C   0  0  0  0  0  0  0  0  0  0  0  0
    7.1292  -12.7318   26.4344 C   0  0  2  0  0  0  0  0  0  0  0  0
    7.5866  -11.8246   27.5332 C   0  0  0  0  0  0  0  0  0  0  0  0
    8.0983  -13.8586   26.1502 C   0  0  2  0  0  0  0  0  0  0  0  0
    7.5639  -14.6949   25.1259 N   0  0  0  0  0  0  0  0  0  0  0  0
    8.2615  -14.6426   27.3930 C   0  0  0  0  0  0  0  0  0  0  0  0
    9.1479  -14.2858   28.4033 O   0  0  0  0  0  0  0  0  0  0  0  0
    7.5821  -15.6785   27.5668 O   0  0  0  0  0  0  0  0  0  0  0  0
  1  2  1  0
  2  3  1  0
  4  3  1  0
  5  1  1  0
  5  4  1  0
  5  6  1  1
  7  6  2  0
  8  6  1  0
  9 10  1  1
  9  8  1  0
 10 11  1  0
 12 11  1  0
 13 12  1  0
 13 14  1  0
 15 21  1  0
 15  9  1  0
 16 15  2  0
 18 17  1  6
 19 18  1  0
 20 18  1  0
 20 21  1  6
 22 23  1  0
 22 20  1  0
 24 22  2  0
M  END
$$$$
