QHM.pdb
     RDKit          3D

 28 28  0  0  1  0  0  0  0  0999 V2000
   18.9999  -16.6112  -16.8018 N   0  0  0  0  0  0  0  0  0  0  0  0
   18.3701  -17.6206  -17.5957 C   0  0  0  0  0  0  0  0  0  0  0  0
   17.2388  -17.3437  -18.0621 O   0  0  0  0  0  0  0  0  0  0  0  0
   19.0876  -18.8867  -17.8029 C   0  0  0  0  0  0  0  0  0  0  0  0
   18.3003  -20.0944  -17.3928 C   0  0  0  0  0  0  0  0  0  0  0  0
   18.6117  -20.5169  -15.9983 C   0  0  2  0  0  0  0  0  0  0  0  0
   20.0206  -20.9233  -15.9836 N   0  0  0  0  0  0  0  0  0  0  0  0
   17.7747  -21.6603  -15.5465 C   0  0  0  0  0  0  0  0  0  0  0  0
   16.5346  -21.7346  -15.7902 O   0  0  0  0  0  0  0  0  0  0  0  0
   18.3645  -22.7036  -14.8227 N   0  0  0  0  0  0  0  0  0  0  0  0
   17.6601  -23.8915  -14.3886 C   0  0  1  0  0  0  0  0  0  0  0  0
   18.5391  -25.1016  -14.3237 C   0  0  0  0  0  0  0  0  0  0  0  0
   19.0142  -25.5583  -15.6530 C   0  0  0  0  0  0  0  0  0  0  0  0
   20.2404  -25.4312  -16.2636 C   0  0  0  0  0  0  0  0  0  0  0  0
   20.1300  -26.0168  -17.4668 N   0  0  0  0  0  0  0  0  0  0  0  0
   18.9097  -26.5058  -17.6536 C   0  0  0  0  0  0  0  0  0  0  0  0
   18.2341  -26.2161  -16.5288 N   0  0  0  0  0  0  0  0  0  0  0  0
   16.9114  -23.6333  -13.1172 C   0  0  0  0  0  0  0  0  0  0  0  0
   17.4470  -23.0444  -12.1439 O   0  0  0  0  0  0  0  0  0  0  0  0
   10.2125  -25.3431  -11.8276 C   0  0  0  0  0  0  0  0  0  0  0  0
   10.6934  -23.6787  -11.2638 S   0  0  0  0  0  0  0  0  0  0  0  0
   12.4155  -23.5556  -10.9186 C   0  0  0  0  0  0  0  0  0  0  0  0
   13.4306  -23.8618  -11.9126 C   0  0  0  0  0  0  0  0  0  0  0  0
   14.8680  -23.7457  -11.6362 C   0  0  2  0  0  0  0  0  0  0  0  0
   15.5750  -24.0334  -12.9431 N   0  0  0  0  0  0  0  0  0  0  0  0
   15.4134  -24.8467  -10.7618 C   0  0  0  0  0  0  0  0  0  0  0  0
   15.1947  -24.7483   -9.4910 O   0  0  0  0  0  0  0  0  0  0  0  0
   16.1128  -25.9317  -11.1520 O   0  0  0  0  0  0  0  0  0  0  0  0
  1  2  1  0
  2  3  2  0
  4  5  1  0
  4  2  1  0
  5  6  1  0
  6  7  1  6
  8  6  1  0
  8  9  2  0
 10  8  1  0
 11 10  1  0
 11 12  1  1
 13 14  2  0
 13 12  1  0
 15 14  1  0
 16 17  2  0
 16 15  1  0
 17 13  1  0
 18 11  1  0
 19 18  2  0
 21 20  1  0
 22 21  1  0
 24 23  1  6
 23 22  1  0
 24 25  1  0
 25 18  1  0
 26 24  1  0
 27 26  2  0
 28 26  1  0
M  END
$$$$
