QHM.pdb
     RDKit          3D

 28 28  0  0  1  0  0  0  0  0999 V2000
   29.8223  -22.4384  -16.9345 N   0  0  0  0  0  0  0  0  0  0  0  0
   29.5648  -22.0375  -18.2832 C   0  0  0  0  0  0  0  0  0  0  0  0
   30.2034  -22.6397  -19.1797 O   0  0  0  0  0  0  0  0  0  0  0  0
   28.5841  -20.9669  -18.5122 C   0  0  0  0  0  0  0  0  0  0  0  0
   28.0961  -20.3227  -17.2499 C   0  0  0  0  0  0  0  0  0  0  0  0
   27.0782  -21.1588  -16.5537 C   0  0  2  0  0  0  0  0  0  0  0  0
   26.2998  -21.8343  -17.5968 N   0  0  0  0  0  0  0  0  0  0  0  0
   26.1564  -20.3531  -15.7091 C   0  0  0  0  0  0  0  0  0  0  0  0
   26.5682  -19.4566  -14.9157 O   0  0  0  0  0  0  0  0  0  0  0  0
   24.7770  -20.5812  -15.7817 N   0  0  0  0  0  0  0  0  0  0  0  0
   23.7986  -19.9209  -14.9435 C   0  0  1  0  0  0  0  0  0  0  0  0
   22.4894  -19.7005  -15.6355 C   0  0  0  0  0  0  0  0  0  0  0  0
   22.4854  -18.5153  -16.5280 C   0  0  0  0  0  0  0  0  0  0  0  0
   22.9735  -17.2432  -16.3380 C   0  0  0  0  0  0  0  0  0  0  0  0
   22.7023  -16.5588  -17.4609 N   0  0  0  0  0  0  0  0  0  0  0  0
   22.0730  -17.3203  -18.3481 C   0  0  0  0  0  0  0  0  0  0  0  0
   21.9465  -18.5217  -17.7600 N   0  0  0  0  0  0  0  0  0  0  0  0
   23.6631  -20.6226  -13.6272 C   0  0  0  0  0  0  0  0  0  0  0  0
   23.3508  -21.8385  -13.5566 O   0  0  0  0  0  0  0  0  0  0  0  0
   25.7619  -20.3837   -5.9617 C   0  0  0  0  0  0  0  0  0  0  0  0
   25.8957  -19.7169   -7.6520 S   0  0  0  0  0  0  0  0  0  0  0  0
   24.7917  -20.5030   -8.7758 C   0  0  0  0  0  0  0  0  0  0  0  0
   24.7234  -20.1378  -10.1809 C   0  0  0  0  0  0  0  0  0  0  0  0
   23.7468  -20.7284  -11.1045 C   0  0  2  0  0  0  0  0  0  0  0  0
   23.8767  -19.9633  -12.4040 N   0  0  0  0  0  0  0  0  0  0  0  0
   22.3112  -20.4431  -10.7412 C   0  0  0  0  0  0  0  0  0  0  0  0
   21.6843  -21.3544  -10.0713 O   0  0  0  0  0  0  0  0  0  0  0  0
   21.5951  -19.3396  -11.0382 O   0  0  0  0  0  0  0  0  0  0  0  0
  1  2  1  0
  2  3  2  0
  4  5  1  0
  4  2  1  0
  5  6  1  0
  6  7  1  6
  8  6  1  0
  8  9  2  0
 10  8  1  0
 11 10  1  0
 11 12  1  6
 13 14  2  0
 13 12  1  0
 15 14  1  0
 16 17  2  0
 16 15  1  0
 17 13  1  0
 18 11  1  0
 19 18  2  0
 21 20  1  0
 22 21  1  0
 24 23  1  1
 23 22  1  0
 24 25  1  0
 25 18  1  0
 26 24  1  0
 27 26  2  0
 28 26  1  0
M  END
$$$$
