QHM.pdb
     RDKit          3D

 28 28  0  0  1  0  0  0  0  0999 V2000
   26.5392  -17.7096  -17.8677 N   0  0  0  0  0  0  0  0  0  0  0  0
   27.9634  -17.6082  -17.7814 C   0  0  0  0  0  0  0  0  0  0  0  0
   28.5824  -17.4599  -18.8625 O   0  0  0  0  0  0  0  0  0  0  0  0
   28.5836  -17.6825  -16.4508 C   0  0  0  0  0  0  0  0  0  0  0  0
   27.5925  -17.8338  -15.3365 C   0  0  0  0  0  0  0  0  0  0  0  0
   27.9262  -18.9793  -14.4441 C   0  0  2  0  0  0  0  0  0  0  0  0
   27.8499  -20.1919  -15.2651 N   0  0  0  0  0  0  0  0  0  0  0  0
   26.9819  -19.1092  -13.3024 C   0  0  0  0  0  0  0  0  0  0  0  0
   26.7427  -18.1558  -12.5046 O   0  0  0  0  0  0  0  0  0  0  0  0
   26.3230  -20.3256  -13.0867 N   0  0  0  0  0  0  0  0  0  0  0  0
   25.3527  -20.5494  -12.0359 C   0  0  1  0  0  0  0  0  0  0  0  0
   24.2312  -21.4472  -12.4572 C   0  0  0  0  0  0  0  0  0  0  0  0
   23.2889  -20.8082  -13.4086 C   0  0  0  0  0  0  0  0  0  0  0  0
   23.2471  -19.5288  -13.9123 C   0  0  0  0  0  0  0  0  0  0  0  0
   22.1836  -19.4753  -14.7302 N   0  0  0  0  0  0  0  0  0  0  0  0
   21.5514  -20.6422  -14.7741 C   0  0  0  0  0  0  0  0  0  0  0  0
   22.2432  -21.4528  -13.9557 N   0  0  0  0  0  0  0  0  0  0  0  0
   26.0259  -20.9935  -10.7737 C   0  0  0  0  0  0  0  0  0  0  0  0
   26.6733  -22.0698  -10.7145 O   0  0  0  0  0  0  0  0  0  0  0  0
   28.7716  -19.2429   -3.5637 C   0  0  0  0  0  0  0  0  0  0  0  0
   28.4463  -18.7817   -5.2960 S   0  0  0  0  0  0  0  0  0  0  0  0
   27.5100  -20.0014   -6.1536 C   0  0  0  0  0  0  0  0  0  0  0  0
   27.1666  -19.8702   -7.5597 C   0  0  0  0  0  0  0  0  0  0  0  0
   26.3594  -20.8682   -8.2727 C   0  0  2  0  0  0  0  0  0  0  0  0
   25.9712  -20.2348   -9.5914 N   0  0  0  0  0  0  0  0  0  0  0  0
   25.0046  -21.1120   -7.6570 C   0  0  0  0  0  0  0  0  0  0  0  0
   24.9779  -21.7564   -6.5361 O   0  0  0  0  0  0  0  0  0  0  0  0
   23.8043  -20.7365   -8.1438 O   0  0  0  0  0  0  0  0  0  0  0  0
  1  2  1  0
  2  3  2  0
  4  5  1  0
  4  2  1  0
  5  6  1  0
  6  7  1  6
  8  6  1  0
  8  9  2  0
 10  8  1  0
 11 10  1  0
 11 12  1  6
 13 14  2  0
 13 12  1  0
 15 14  1  0
 16 17  2  0
 16 15  1  0
 17 13  1  0
 18 11  1  0
 19 18  2  0
 21 20  1  0
 22 21  1  0
 24 23  1  1
 23 22  1  0
 24 25  1  0
 25 18  1  0
 26 24  1  0
 27 26  2  0
 28 26  1  0
M  END
$$$$
