QHM.pdb
     RDKit          3D

 28 28  0  0  1  0  0  0  0  0999 V2000
   29.6407  -17.2521  -16.1545 N   0  0  0  0  0  0  0  0  0  0  0  0
   28.6222  -17.6715  -17.0670 C   0  0  0  0  0  0  0  0  0  0  0  0
   28.9508  -17.7569  -18.2748 O   0  0  0  0  0  0  0  0  0  0  0  0
   27.2877  -17.9679  -16.5268 C   0  0  0  0  0  0  0  0  0  0  0  0
   27.1948  -17.8054  -15.0396 C   0  0  0  0  0  0  0  0  0  0  0  0
   27.4327  -19.0892  -14.3217 C   0  0  2  0  0  0  0  0  0  0  0  0
   26.9717  -20.1621  -15.2087 N   0  0  0  0  0  0  0  0  0  0  0  0
   26.6888  -19.1724  -13.0365 C   0  0  0  0  0  0  0  0  0  0  0  0
   26.6217  -18.2034  -12.2246 O   0  0  0  0  0  0  0  0  0  0  0  0
   26.0314  -20.3605  -12.6953 N   0  0  0  0  0  0  0  0  0  0  0  0
   25.2613  -20.5443  -11.4833 C   0  0  1  0  0  0  0  0  0  0  0  0
   24.1601  -21.5469  -11.6367 C   0  0  0  0  0  0  0  0  0  0  0  0
   23.0089  -21.0435  -12.4258 C   0  0  0  0  0  0  0  0  0  0  0  0
   22.7184  -19.7817  -12.8902 C   0  0  0  0  0  0  0  0  0  0  0  0
   21.5483  -19.8751  -13.5421 N   0  0  0  0  0  0  0  0  0  0  0  0
   21.0821  -21.1181  -13.5180 C   0  0  0  0  0  0  0  0  0  0  0  0
   21.9917  -21.8260  -12.8274 N   0  0  0  0  0  0  0  0  0  0  0  0
   26.1594  -20.8233  -10.3175 C   0  0  0  0  0  0  0  0  0  0  0  0
   27.0706  -21.6876  -10.3784 O   0  0  0  0  0  0  0  0  0  0  0  0
   28.6618  -18.5072   -3.4580 C   0  0  0  0  0  0  0  0  0  0  0  0
   27.8591  -19.5677   -4.7032 S   0  0  0  0  0  0  0  0  0  0  0  0
   28.4645  -19.2733   -6.3300 C   0  0  0  0  0  0  0  0  0  0  0  0
   27.6019  -19.3147   -7.4990 C   0  0  0  0  0  0  0  0  0  0  0  0
   26.8980  -20.5328   -7.9192 C   0  0  2  0  0  0  0  0  0  0  0  0
   26.0335  -20.1372   -9.0969 N   0  0  0  0  0  0  0  0  0  0  0  0
   25.8547  -21.0055   -6.9382 C   0  0  0  0  0  0  0  0  0  0  0  0
   26.2774  -21.6417   -5.8947 O   0  0  0  0  0  0  0  0  0  0  0  0
   24.5185  -20.8444   -7.0229 O   0  0  0  0  0  0  0  0  0  0  0  0
  1  2  1  0
  2  3  2  0
  4  5  1  0
  4  2  1  0
  5  6  1  0
  6  7  1  6
  8  6  1  0
  8  9  2  0
 10  8  1  0
 11 10  1  0
 11 12  1  6
 13 14  2  0
 13 12  1  0
 15 14  1  0
 16 17  2  0
 16 15  1  0
 17 13  1  0
 18 11  1  0
 19 18  2  0
 21 20  1  0
 22 21  1  0
 24 23  1  1
 23 22  1  0
 24 25  1  0
 25 18  1  0
 26 24  1  0
 27 26  2  0
 28 26  1  0
M  END
$$$$
