QHM.pdb
     RDKit          3D

 28 28  0  0  1  0  0  0  0  0999 V2000
   41.8082   -9.3926   -3.2939 N   0  0  0  0  0  0  0  0  0  0  0  0
   43.0678   -8.8673   -3.7220 C   0  0  0  0  0  0  0  0  0  0  0  0
   43.5938   -7.9989   -2.9850 O   0  0  0  0  0  0  0  0  0  0  0  0
   43.6422   -9.3796   -4.9743 C   0  0  0  0  0  0  0  0  0  0  0  0
   43.6735  -10.8763   -5.0497 C   0  0  0  0  0  0  0  0  0  0  0  0
   44.0628  -11.3590   -6.4045 C   0  0  2  0  0  0  0  0  0  0  0  0
   45.4947  -11.0823   -6.5574 N   0  0  0  0  0  0  0  0  0  0  0  0
   43.3192  -10.6700   -7.4929 C   0  0  0  0  0  0  0  0  0  0  0  0
   43.8032   -9.6923   -8.1352 O   0  0  0  0  0  0  0  0  0  0  0  0
   42.0333  -11.1064   -7.8338 N   0  0  0  0  0  0  0  0  0  0  0  0
   41.2276  -10.5201   -8.8839 C   0  0  1  0  0  0  0  0  0  0  0  0
   40.4895  -11.5406   -9.6934 C   0  0  0  0  0  0  0  0  0  0  0  0
   39.7010  -10.9546  -10.8051 C   0  0  0  0  0  0  0  0  0  0  0  0
   39.5129   -9.6454  -11.1835 C   0  0  0  0  0  0  0  0  0  0  0  0
   38.7022   -9.6702  -12.2535 N   0  0  0  0  0  0  0  0  0  0  0  0
   38.3667  -10.9143  -12.5741 C   0  0  0  0  0  0  0  0  0  0  0  0
   38.9889  -11.6940  -11.6739 N   0  0  0  0  0  0  0  0  0  0  0  0
   40.3421   -9.4422   -8.3384 C   0  0  0  0  0  0  0  0  0  0  0  0
   39.6362   -9.6235   -7.3139 O   0  0  0  0  0  0  0  0  0  0  0  0
   40.1450   -2.5082   -5.3038 C   0  0  0  0  0  0  0  0  0  0  0  0
   40.9974   -3.8741   -6.1566 S   0  0  0  0  0  0  0  0  0  0  0  0
   39.8763   -4.9879   -6.9326 C   0  0  0  0  0  0  0  0  0  0  0  0
   40.3260   -6.1746   -7.6410 C   0  0  0  0  0  0  0  0  0  0  0  0
   39.3974   -7.0995   -8.3029 C   0  0  2  0  0  0  0  0  0  0  0  0
   40.2522   -8.1743   -8.9392 N   0  0  0  0  0  0  0  0  0  0  0  0
   38.7134   -6.5168   -9.5140 C   0  0  0  0  0  0  0  0  0  0  0  0
   37.6696   -5.7836   -9.3012 O   0  0  0  0  0  0  0  0  0  0  0  0
   39.0631   -6.6742  -10.8069 O   0  0  0  0  0  0  0  0  0  0  0  0
  1  2  1  0
  2  3  2  0
  4  5  1  0
  4  2  1  0
  5  6  1  0
  6  7  1  6
  8  6  1  0
  8  9  2  0
 10  8  1  0
 11 10  1  0
 11 12  1  1
 13 14  2  0
 13 12  1  0
 15 14  1  0
 16 17  2  0
 16 15  1  0
 17 13  1  0
 18 11  1  0
 19 18  2  0
 21 20  1  0
 22 21  1  0
 24 23  1  6
 23 22  1  0
 24 25  1  0
 25 18  1  0
 26 24  1  0
 27 26  2  0
 28 26  1  0
M  END
$$$$
