QHM.pdb
     RDKit          3D

 28 28  0  0  1  0  0  0  0  0999 V2000
   18.5582  -22.6865    3.8827 N   0  0  0  0  0  0  0  0  0  0  0  0
   17.3034  -22.5481    4.5550 C   0  0  0  0  0  0  0  0  0  0  0  0
   16.8052  -23.5945    5.0353 O   0  0  0  0  0  0  0  0  0  0  0  0
   16.7031  -21.2085    4.6322 C   0  0  0  0  0  0  0  0  0  0  0  0
   17.5202  -20.1473    3.9592 C   0  0  0  0  0  0  0  0  0  0  0  0
   16.8804  -18.8051    4.0553 C   0  0  2  0  0  0  0  0  0  0  0  0
   16.5028  -18.4175    2.6924 N   0  0  0  0  0  0  0  0  0  0  0  0
   17.7949  -17.7741    4.6145 C   0  0  0  0  0  0  0  0  0  0  0  0
   18.8079  -17.3490    3.9852 O   0  0  0  0  0  0  0  0  0  0  0  0
   17.5409  -17.2419    5.8843 N   0  0  0  0  0  0  0  0  0  0  0  0
   18.3180  -16.1824    6.4920 C   0  0  1  0  0  0  0  0  0  0  0  0
   17.5042  -14.9647    6.8023 C   0  0  0  0  0  0  0  0  0  0  0  0
   17.2646  -14.0982    5.6221 C   0  0  0  0  0  0  0  0  0  0  0  0
   18.1352  -13.5913    4.6853 C   0  0  0  0  0  0  0  0  0  0  0  0
   17.3970  -12.8610    3.8341 N   0  0  0  0  0  0  0  0  0  0  0  0
   16.1140  -12.8754    4.1756 C   0  0  0  0  0  0  0  0  0  0  0  0
   16.0477  -13.6409    5.2779 N   0  0  0  0  0  0  0  0  0  0  0  0
   19.0909  -16.6948    7.6683 C   0  0  0  0  0  0  0  0  0  0  0  0
   18.6609  -17.6374    8.3807 O   0  0  0  0  0  0  0  0  0  0  0  0
   25.4893  -18.6726    9.6661 C   0  0  0  0  0  0  0  0  0  0  0  0
   25.1478  -16.8857    9.7662 S   0  0  0  0  0  0  0  0  0  0  0  0
   23.4598  -16.5417   10.1297 C   0  0  0  0  0  0  0  0  0  0  0  0
   22.4688  -16.3293    9.0880 C   0  0  0  0  0  0  0  0  0  0  0  0
   21.0549  -16.6874    9.2572 C   0  0  2  0  0  0  0  0  0  0  0  0
   20.3340  -16.1525    8.0386 N   0  0  0  0  0  0  0  0  0  0  0  0
   20.3604  -15.9309   10.3615 C   0  0  0  0  0  0  0  0  0  0  0  0
   19.9293  -14.7450   10.0780 O   0  0  0  0  0  0  0  0  0  0  0  0
   20.1362  -16.3476   11.6243 O   0  0  0  0  0  0  0  0  0  0  0  0
  1  2  1  0
  2  3  2  0
  4  5  1  0
  4  2  1  0
  5  6  1  0
  6  7  1  6
  8  6  1  0
  8  9  2  0
 10  8  1  0
 11 10  1  0
 11 12  1  1
 13 14  2  0
 13 12  1  0
 15 14  1  0
 16 17  2  0
 16 15  1  0
 17 13  1  0
 18 11  1  0
 19 18  2  0
 21 20  1  0
 22 21  1  0
 24 23  1  6
 23 22  1  0
 24 25  1  0
 25 18  1  0
 26 24  1  0
 27 26  2  0
 28 26  1  0
M  END
$$$$
