QHM.pdb
     RDKit          3D

 28 28  0  0  1  0  0  0  0  0999 V2000
   22.4532   -9.1121  -21.3107 N   0  0  0  0  0  0  0  0  0  0  0  0
   22.1770  -10.5152  -21.3426 C   0  0  0  0  0  0  0  0  0  0  0  0
   22.0822  -11.0432  -22.4767 O   0  0  0  0  0  0  0  0  0  0  0  0
   22.0293  -11.2212  -20.0618 C   0  0  0  0  0  0  0  0  0  0  0  0
   22.2225  -10.3381  -18.8663 C   0  0  0  0  0  0  0  0  0  0  0  0
   21.3974  -10.7795  -17.7068 C   0  0  2  0  0  0  0  0  0  0  0  0
   20.6000  -11.9217  -18.1650 N   0  0  0  0  0  0  0  0  0  0  0  0
   20.4801   -9.7152  -17.2191 C   0  0  0  0  0  0  0  0  0  0  0  0
   19.6000   -9.1837  -17.9577 O   0  0  0  0  0  0  0  0  0  0  0  0
   20.5796   -9.2719  -15.8948 N   0  0  0  0  0  0  0  0  0  0  0  0
   19.7360   -8.2485  -15.3145 C   0  0  1  0  0  0  0  0  0  0  0  0
   19.0849   -8.6819  -14.0380 C   0  0  0  0  0  0  0  0  0  0  0  0
   17.9505   -9.6162  -14.2414 C   0  0  0  0  0  0  0  0  0  0  0  0
   17.4436  -10.1811  -15.3888 C   0  0  0  0  0  0  0  0  0  0  0  0
   16.4072  -10.9467  -15.0114 N   0  0  0  0  0  0  0  0  0  0  0  0
   16.2283  -10.9002  -13.6965 C   0  0  0  0  0  0  0  0  0  0  0  0
   17.1856  -10.0774  -13.2361 N   0  0  0  0  0  0  0  0  0  0  0  0
   20.4769   -6.9524  -15.1922 C   0  0  0  0  0  0  0  0  0  0  0  0
   21.7314   -6.9006  -15.2577 O   0  0  0  0  0  0  0  0  0  0  0  0
   23.5286   -1.3982  -18.5546 C   0  0  0  0  0  0  0  0  0  0  0  0
   22.7588   -3.0264  -18.2795 S   0  0  0  0  0  0  0  0  0  0  0  0
   21.9975   -3.1530  -16.6970 C   0  0  0  0  0  0  0  0  0  0  0  0
   21.2724   -4.3404  -16.2768 C   0  0  0  0  0  0  0  0  0  0  0  0
   20.6054   -4.4390  -14.9725 C   0  0  2  0  0  0  0  0  0  0  0  0
   19.8131   -5.7283  -14.9986 N   0  0  0  0  0  0  0  0  0  0  0  0
   19.5066   -3.4263  -14.7693 C   0  0  0  0  0  0  0  0  0  0  0  0
   18.2964   -3.8216  -14.9960 O   0  0  0  0  0  0  0  0  0  0  0  0
   19.6383   -2.1424  -14.3782 O   0  0  0  0  0  0  0  0  0  0  0  0
  1  2  1  0
  2  3  2  0
  4  5  1  0
  4  2  1  0
  5  6  1  0
  6  7  1  6
  8  6  1  0
  8  9  2  0
 10  8  1  0
 11 10  1  0
 11 12  1  1
 13 14  2  0
 13 12  1  0
 15 14  1  0
 16 17  2  0
 16 15  1  0
 17 13  1  0
 18 11  1  0
 19 18  2  0
 21 20  1  0
 22 21  1  0
 24 23  1  6
 23 22  1  0
 24 25  1  0
 25 18  1  0
 26 24  1  0
 27 26  2  0
 28 26  1  0
M  END
$$$$
