LLG.pdb
     RDKit          3D

 21 20  0  0  1  0  0  0  0  0999 V2000
   27.4564  -19.1552  -17.2299 C   0  0  0  0  0  0  0  0  0  0  0  0
   27.9898  -18.4238  -16.0267 C   0  0  2  0  0  0  0  0  0  0  0  0
   29.3507  -17.8737  -16.4130 C   0  0  0  0  0  0  0  0  0  0  0  0
   28.0909  -19.2645  -14.7896 C   0  0  0  0  0  0  0  0  0  0  0  0
   26.7856  -19.9284  -14.4970 C   0  0  2  0  0  0  0  0  0  0  0  0
   25.7205  -18.9646  -14.5654 N   0  0  0  0  0  0  0  0  0  0  0  0
   26.7746  -20.6171  -13.1826 C   0  0  0  0  0  0  0  0  0  0  0  0
   27.5681  -21.5709  -12.9983 O   0  0  0  0  0  0  0  0  0  0  0  0
   27.9380  -21.0567   -8.3324 C   0  0  0  0  0  0  0  0  0  0  0  0
   26.5569  -20.3371   -8.4696 C   0  0  1  0  0  0  0  0  0  0  0  0
   26.7940  -19.0690   -7.6253 C   0  0  0  0  0  0  0  0  0  0  0  0
   26.3422  -19.9603   -9.8860 C   0  0  0  0  0  0  0  0  0  0  0  0
   25.8163  -20.9432  -10.8492 C   0  0  2  0  0  0  0  0  0  0  0  0
   25.9092  -20.2254  -12.1668 N   0  0  0  0  0  0  0  0  0  0  0  0
   24.4169  -21.3527  -10.7621 C   0  0  0  0  0  0  0  0  0  0  0  0
   23.9326  -21.7858   -9.6589 O   0  0  0  0  0  0  0  0  0  0  0  0
   23.4904  -21.3044  -11.8505 N   0  0  0  0  0  0  0  0  0  0  0  0
   22.1232  -21.6946  -11.6229 C   0  0  0  0  0  0  0  0  0  0  0  0
   21.1587  -20.6549  -12.0390 C   0  0  0  0  0  0  0  0  0  0  0  0
   19.8037  -20.8688  -11.8764 O   0  0  0  0  0  0  0  0  0  0  0  0
   21.5303  -19.5706  -12.5413 O   0  0  0  0  0  0  0  0  0  0  0  0
  2  1  1  6
  3  2  1  0
  4  2  1  0
  5  4  1  0
  5  7  1  0
  5  6  1  1
  7  8  2  0
  7 14  1  0
 10  9  1  6
 10 12  1  0
 11 10  1  0
 13 12  1  1
 13 15  1  0
 14 13  1  0
 15 16  2  0
 17 15  1  0
 17 18  1  0
 19 18  1  0
 19 20  1  0
 21 19  2  0
M  END
$$$$
