LLG.pdb
     RDKit          3D

 21 20  0  0  1  0  0  0  0  0999 V2000
   19.4258   -9.1384  -21.7336 C   0  0  0  0  0  0  0  0  0  0  0  0
   18.0811   -9.2193  -21.0607 C   0  0  2  0  0  0  0  0  0  0  0  0
   17.1916   -8.1863  -21.7280 C   0  0  0  0  0  0  0  0  0  0  0  0
   18.1205   -9.0044  -19.5776 C   0  0  0  0  0  0  0  0  0  0  0  0
   19.0594   -9.9693  -18.9313 C   0  0  2  0  0  0  0  0  0  0  0  0
   18.4716  -11.2815  -18.9061 N   0  0  0  0  0  0  0  0  0  0  0  0
   19.4549   -9.5549  -17.5624 C   0  0  0  0  0  0  0  0  0  0  0  0
   18.6434   -9.7351  -16.6230 O   0  0  0  0  0  0  0  0  0  0  0  0
   22.0660   -9.7592  -13.1346 C   0  0  0  0  0  0  0  0  0  0  0  0
   22.9797   -9.5249  -14.3813 C   0  0  1  0  0  0  0  0  0  0  0  0
   23.9319  -10.7339  -14.2870 C   0  0  0  0  0  0  0  0  0  0  0  0
   22.1616   -9.6292  -15.6117 C   0  0  0  0  0  0  0  0  0  0  0  0
   21.1559   -8.6007  -15.9298 C   0  0  2  0  0  0  0  0  0  0  0  0
   20.6948   -8.9778  -17.3100 N   0  0  0  0  0  0  0  0  0  0  0  0
   21.5737   -7.2071  -16.0598 C   0  0  0  0  0  0  0  0  0  0  0  0
   22.2799   -6.8295  -17.0588 O   0  0  0  0  0  0  0  0  0  0  0  0
   21.2425   -6.1728  -15.1294 N   0  0  0  0  0  0  0  0  0  0  0  0
   21.8305   -4.8689  -15.2947 C   0  0  0  0  0  0  0  0  0  0  0  0
   21.2523   -3.8643  -14.3777 C   0  0  0  0  0  0  0  0  0  0  0  0
   21.9075   -3.5463  -13.2039 O   0  0  0  0  0  0  0  0  0  0  0  0
   20.1736   -3.2818  -14.6295 O   0  0  0  0  0  0  0  0  0  0  0  0
  2  1  1  6
  3  2  1  0
  4  2  1  0
  5  4  1  0
  5  7  1  0
  5  6  1  1
  7  8  2  0
  7 14  1  0
 10  9  1  1
 10 12  1  0
 11 10  1  0
 13 12  1  6
 13 15  1  0
 14 13  1  0
 15 16  2  0
 17 15  1  0
 17 18  1  0
 19 18  1  0
 19 20  1  0
 21 19  2  0
M  END
$$$$
