LLG.pdb
     RDKit          3D

 21 20  0  0  1  0  0  0  0  0999 V2000
   27.1894  -19.7173  -15.9103 C   0  0  0  0  0  0  0  0  0  0  0  0
   28.1216  -19.1158  -14.8922 C   0  0  2  0  0  0  0  0  0  0  0  0
   29.5154  -19.1578  -15.4918 C   0  0  0  0  0  0  0  0  0  0  0  0
   28.0993  -19.7981  -13.5576 C   0  0  0  0  0  0  0  0  0  0  0  0
   26.7120  -19.8279  -13.0056 C   0  0  2  0  0  0  0  0  0  0  0  0
   26.2093  -18.4870  -12.8732 N   0  0  0  0  0  0  0  0  0  0  0  0
   26.6268  -20.5412  -11.7071 C   0  0  0  0  0  0  0  0  0  0  0  0
   26.9893  -21.7410  -11.6567 O   0  0  0  0  0  0  0  0  0  0  0  0
   27.9012  -18.7326   -6.8339 C   0  0  0  0  0  0  0  0  0  0  0  0
   27.6445  -19.6347   -8.0847 C   0  0  1  0  0  0  0  0  0  0  0  0
   28.3429  -20.9421   -7.6603 C   0  0  0  0  0  0  0  0  0  0  0  0
   26.1888  -19.8698   -8.2256 C   0  0  0  0  0  0  0  0  0  0  0  0
   25.6649  -20.6569   -9.3553 C   0  0  2  0  0  0  0  0  0  0  0  0
   26.1573  -19.9072  -10.5617 N   0  0  0  0  0  0  0  0  0  0  0  0
   24.2209  -20.7485   -9.5553 C   0  0  0  0  0  0  0  0  0  0  0  0
   23.4607  -21.1856   -8.6224 O   0  0  0  0  0  0  0  0  0  0  0  0
   23.5445  -20.3683  -10.7567 N   0  0  0  0  0  0  0  0  0  0  0  0
   22.1088  -20.4628  -10.8108 C   0  0  0  0  0  0  0  0  0  0  0  0
   21.6343  -21.2520  -11.9669 C   0  0  0  0  0  0  0  0  0  0  0  0
   22.2128  -21.0703  -13.2080 O   0  0  0  0  0  0  0  0  0  0  0  0
   20.7130  -22.0924  -11.8609 O   0  0  0  0  0  0  0  0  0  0  0  0
  2  1  1  6
  3  2  1  0
  4  2  1  0
  5  4  1  0
  5  7  1  0
  5  6  1  1
  7  8  2  0
  7 14  1  0
 10  9  1  1
 10 12  1  0
 11 10  1  0
 13 12  1  1
 13 15  1  0
 14 13  1  0
 15 16  2  0
 17 15  1  0
 17 18  1  0
 19 18  1  0
 19 20  1  0
 21 19  2  0
M  END
$$$$
