LLG.pdb
     RDKit          3D

 21 20  0  0  1  0  0  0  0  0999 V2000
   28.2010  -18.8276  -16.1449 C   0  0  0  0  0  0  0  0  0  0  0  0
   27.7098  -20.1520  -16.6664 C   0  0  2  0  0  0  0  0  0  0  0  0
   27.1681  -19.9025  -18.0622 C   0  0  0  0  0  0  0  0  0  0  0  0
   26.6716  -20.8063  -15.8053 C   0  0  0  0  0  0  0  0  0  0  0  0
   27.1676  -20.9543  -14.4045 C   0  0  2  0  0  0  0  0  0  0  0  0
   28.2234  -21.9296  -14.3600 N   0  0  0  0  0  0  0  0  0  0  0  0
   26.0904  -21.3162  -13.4501 C   0  0  0  0  0  0  0  0  0  0  0  0
   25.5458  -22.4410  -13.5585 O   0  0  0  0  0  0  0  0  0  0  0  0
   26.2189  -19.5805   -8.1650 C   0  0  0  0  0  0  0  0  0  0  0  0
   26.0458  -20.5413   -9.3860 C   0  0  1  0  0  0  0  0  0  0  0  0
   25.5702  -21.8311   -8.6879 C   0  0  0  0  0  0  0  0  0  0  0  0
   24.9711  -20.0243  -10.2646 C   0  0  0  0  0  0  0  0  0  0  0  0
   24.5810  -20.7599  -11.4800 C   0  0  2  0  0  0  0  0  0  0  0  0
   25.6822  -20.4385  -12.4516 N   0  0  0  0  0  0  0  0  0  0  0  0
   23.3592  -20.3806  -12.1849 C   0  0  0  0  0  0  0  0  0  0  0  0
   23.1995  -19.1851  -12.6143 O   0  0  0  0  0  0  0  0  0  0  0  0
   22.2738  -21.2705  -12.4593 N   0  0  0  0  0  0  0  0  0  0  0  0
   21.1145  -20.7677  -13.1494 C   0  0  0  0  0  0  0  0  0  0  0  0
   19.8785  -20.8903  -12.3483 C   0  0  0  0  0  0  0  0  0  0  0  0
   18.6973  -20.3504  -12.8188 O   0  0  0  0  0  0  0  0  0  0  0  0
   19.8625  -21.4747  -11.2418 O   0  0  0  0  0  0  0  0  0  0  0  0
  2  1  1  1
  3  2  1  0
  4  2  1  0
  5  4  1  0
  5  7  1  0
  5  6  1  6
  7  8  2  0
  7 14  1  0
 10  9  1  1
 10 12  1  0
 11 10  1  0
 13 12  1  1
 13 15  1  0
 14 13  1  0
 15 16  2  0
 17 15  1  0
 17 18  1  0
 19 18  1  0
 19 20  1  0
 21 19  2  0
M  END
$$$$
