LLG.pdb
     RDKit          3D

 21 20  0  0  1  0  0  0  0  0999 V2000
   19.9556  -13.5657  -20.3578 C   0  0  0  0  0  0  0  0  0  0  0  0
   21.3830  -13.8572  -19.9770 C   0  0  2  0  0  0  0  0  0  0  0  0
   21.5605  -15.3627  -20.0525 C   0  0  0  0  0  0  0  0  0  0  0  0
   21.7764  -13.3455  -18.6240 C   0  0  0  0  0  0  0  0  0  0  0  0
   21.5067  -11.8805  -18.5171 C   0  0  2  0  0  0  0  0  0  0  0  0
   22.1590  -11.1834  -19.5926 N   0  0  0  0  0  0  0  0  0  0  0  0
   21.9215  -11.3151  -17.2093 C   0  0  0  0  0  0  0  0  0  0  0  0
   21.5266  -11.8777  -16.1601 O   0  0  0  0  0  0  0  0  0  0  0  0
   27.0339  -10.1180  -16.3312 C   0  0  0  0  0  0  0  0  0  0  0  0
   25.5616  -10.6106  -16.1470 C   0  0  1  0  0  0  0  0  0  0  0  0
   25.6481  -11.3086  -14.7750 C   0  0  0  0  0  0  0  0  0  0  0  0
   24.6630   -9.4368  -16.0537 C   0  0  0  0  0  0  0  0  0  0  0  0
   23.2184   -9.6177  -15.8286 C   0  0  2  0  0  0  0  0  0  0  0  0
   22.7302  -10.1863  -17.1318 N   0  0  0  0  0  0  0  0  0  0  0  0
   22.3753   -8.4448  -15.6113 C   0  0  0  0  0  0  0  0  0  0  0  0
   22.6054   -7.6493  -14.6348 O   0  0  0  0  0  0  0  0  0  0  0  0
   21.2648   -8.0823  -16.4363 N   0  0  0  0  0  0  0  0  0  0  0  0
   20.4852   -6.9225  -16.0896 C   0  0  0  0  0  0  0  0  0  0  0  0
   21.0615   -5.6701  -16.6224 C   0  0  0  0  0  0  0  0  0  0  0  0
   22.2886   -5.6926  -17.2564 O   0  0  0  0  0  0  0  0  0  0  0  0
   20.4693   -4.5725  -16.5185 O   0  0  0  0  0  0  0  0  0  0  0  0
  2  1  1  1
  3  2  1  0
  4  2  1  0
  5  4  1  0
  5  7  1  0
  5  6  1  6
  7  8  2  0
  7 14  1  0
 10  9  1  1
 10 12  1  0
 11 10  1  0
 13 12  1  6
 13 15  1  0
 14 13  1  0
 15 16  2  0
 17 15  1  0
 17 18  1  0
 19 18  1  0
 19 20  1  0
 21 19  2  0
M  END
$$$$
