LLG.pdb
     RDKit          3D

 21 20  0  0  1  0  0  0  0  0999 V2000
   23.8392  -36.2908  -17.4734 C   0  0  0  0  0  0  0  0  0  0  0  0
   23.6186  -36.0753  -15.9995 C   0  0  2  0  0  0  0  0  0  0  0  0
   22.1176  -36.0099  -15.7836 C   0  0  0  0  0  0  0  0  0  0  0  0
   24.2859  -34.8509  -15.4493 C   0  0  0  0  0  0  0  0  0  0  0  0
   25.7591  -34.9026  -15.6887 C   0  0  2  0  0  0  0  0  0  0  0  0
   26.3621  -35.8756  -14.8182 N   0  0  0  0  0  0  0  0  0  0  0  0
   26.4143  -33.5820  -15.5186 C   0  0  0  0  0  0  0  0  0  0  0  0
   26.7105  -33.2040  -14.3598 O   0  0  0  0  0  0  0  0  0  0  0  0
   30.3397  -32.4592  -15.5275 C   0  0  0  0  0  0  0  0  0  0  0  0
   30.0481  -31.4809  -16.7116 C   0  0  1  0  0  0  0  0  0  0  0  0
   31.1400  -31.8945  -17.7185 C   0  0  0  0  0  0  0  0  0  0  0  0
   28.7112  -31.7814  -17.2742 C   0  0  0  0  0  0  0  0  0  0  0  0
   27.4923  -31.4965  -16.4973 C   0  0  2  0  0  0  0  0  0  0  0  0
   26.7004  -32.7693  -16.6102 N   0  0  0  0  0  0  0  0  0  0  0  0
   26.5734  -30.4604  -16.9615 C   0  0  0  0  0  0  0  0  0  0  0  0
   26.9660  -29.2476  -17.0811 O   0  0  0  0  0  0  0  0  0  0  0  0
   25.2081  -30.6909  -17.3196 N   0  0  0  0  0  0  0  0  0  0  0  0
   24.3922  -29.5744  -17.7209 C   0  0  0  0  0  0  0  0  0  0  0  0
   23.4745  -29.1279  -16.6519 C   0  0  0  0  0  0  0  0  0  0  0  0
   22.5598  -28.1241  -16.9051 O   0  0  0  0  0  0  0  0  0  0  0  0
   23.4958  -29.6338  -15.5074 O   0  0  0  0  0  0  0  0  0  0  0  0
  2  1  1  6
  3  2  1  0
  4  2  1  0
  5  4  1  0
  5  7  1  0
  5  6  1  1
  7  8  2  0
  7 14  1  0
 10  9  1  1
 10 12  1  0
 11 10  1  0
 13 12  1  6
 13 15  1  0
 14 13  1  0
 15 16  2  0
 17 15  1  0
 17 18  1  0
 19 18  1  0
 19 20  1  0
 21 19  2  0
M  END
$$$$
