LLG.pdb
     RDKit          3D

 21 20  0  0  1  0  0  0  0  0999 V2000
   24.6273  -18.5444  -14.2019 C   0  0  0  0  0  0  0  0  0  0  0  0
   24.1871  -19.9818  -14.1145 C   0  0  2  0  0  0  0  0  0  0  0  0
   22.8450  -20.0750  -14.8172 C   0  0  0  0  0  0  0  0  0  0  0  0
   24.0899  -20.5123  -12.7159 C   0  0  0  0  0  0  0  0  0  0  0  0
   25.4171  -20.4453  -12.0346 C   0  0  2  0  0  0  0  0  0  0  0  0
   26.4086  -21.1206  -12.8277 N   0  0  0  0  0  0  0  0  0  0  0  0
   25.3856  -21.0062  -10.6611 C   0  0  0  0  0  0  0  0  0  0  0  0
   25.3863  -22.2528  -10.5220 O   0  0  0  0  0  0  0  0  0  0  0  0
   27.9398  -18.3521   -6.4911 C   0  0  0  0  0  0  0  0  0  0  0  0
   27.4883  -19.5003   -7.4514 C   0  0  1  0  0  0  0  0  0  0  0  0
   28.1827  -20.7183   -6.8100 C   0  0  0  0  0  0  0  0  0  0  0  0
   26.0184  -19.6601   -7.3627 C   0  0  0  0  0  0  0  0  0  0  0  0
   25.3331  -20.7106   -8.1354 C   0  0  2  0  0  0  0  0  0  0  0  0
   25.3558  -20.1810   -9.5421 N   0  0  0  0  0  0  0  0  0  0  0  0
   23.9213  -20.9829   -7.8779 C   0  0  0  0  0  0  0  0  0  0  0  0
   23.0108  -20.2518   -8.4031 O   0  0  0  0  0  0  0  0  0  0  0  0
   23.4395  -22.0502   -7.0569 N   0  0  0  0  0  0  0  0  0  0  0  0
   22.1165  -21.9589   -6.4963 C   0  0  0  0  0  0  0  0  0  0  0  0
   21.0897  -22.5807   -7.3584 C   0  0  0  0  0  0  0  0  0  0  0  0
   19.8471  -22.8861   -6.8379 O   0  0  0  0  0  0  0  0  0  0  0  0
   21.3080  -22.8451   -8.5621 O   0  0  0  0  0  0  0  0  0  0  0  0
  2  1  1  1
  3  2  1  0
  4  2  1  0
  5  4  1  0
  5  7  1  0
  5  6  1  6
  7  8  2  0
  7 14  1  0
 10  9  1  1
 10 12  1  0
 11 10  1  0
 13 12  1  1
 13 15  1  0
 14 13  1  0
 15 16  2  0
 17 15  1  0
 17 18  1  0
 19 18  1  0
 19 20  1  0
 21 19  2  0
M  END
$$$$
