LLG.pdb
     RDKit          3D

 21 20  0  0  1  0  0  0  0  0999 V2000
   24.2012  -18.2364  -16.7508 C   0  0  0  0  0  0  0  0  0  0  0  0
   25.4114  -18.8689  -16.1161 C   0  0  2  0  0  0  0  0  0  0  0  0
   26.3996  -19.1487  -17.2337 C   0  0  0  0  0  0  0  0  0  0  0  0
   25.1189  -20.1196  -15.3433 C   0  0  0  0  0  0  0  0  0  0  0  0
   26.1032  -20.2945  -14.2338 C   0  0  2  0  0  0  0  0  0  0  0  0
   27.2581  -21.0054  -14.7122 N   0  0  0  0  0  0  0  0  0  0  0  0
   25.5229  -20.9862  -13.0562 C   0  0  0  0  0  0  0  0  0  0  0  0
   25.5153  -22.2404  -13.0406 O   0  0  0  0  0  0  0  0  0  0  0  0
   26.5564  -19.1669   -8.0487 C   0  0  0  0  0  0  0  0  0  0  0  0
   26.3398  -20.1157   -9.2722 C   0  0  1  0  0  0  0  0  0  0  0  0
   26.6939  -21.4844   -8.6569 C   0  0  0  0  0  0  0  0  0  0  0  0
   24.9094  -20.0967   -9.6566 C   0  0  0  0  0  0  0  0  0  0  0  0
   24.4220  -20.9373  -10.7638 C   0  0  2  0  0  0  0  0  0  0  0  0
   24.9950  -20.2736  -11.9849 N   0  0  0  0  0  0  0  0  0  0  0  0
   22.9880  -21.0058  -11.0329 C   0  0  0  0  0  0  0  0  0  0  0  0
   22.1702  -21.3697  -10.1174 O   0  0  0  0  0  0  0  0  0  0  0  0
   22.3835  -20.6798  -12.2874 N   0  0  0  0  0  0  0  0  0  0  0  0
   20.9475  -20.6287  -12.3795 C   0  0  0  0  0  0  0  0  0  0  0  0
   20.3581  -21.9202  -12.7907 C   0  0  0  0  0  0  0  0  0  0  0  0
   18.9976  -22.0171  -13.0095 O   0  0  0  0  0  0  0  0  0  0  0  0
   21.0575  -22.9457  -12.9507 O   0  0  0  0  0  0  0  0  0  0  0  0
  2  1  1  6
  3  2  1  0
  4  2  1  0
  5  4  1  0
  5  7  1  0
  5  6  1  6
  7  8  2  0
  7 14  1  0
 10  9  1  1
 10 12  1  0
 11 10  1  0
 13 12  1  1
 13 15  1  0
 14 13  1  0
 15 16  2  0
 17 15  1  0
 17 18  1  0
 19 18  1  0
 19 20  1  0
 21 19  2  0
M  END
$$$$
