LLG.pdb
     RDKit          3D

 21 20  0  0  1  0  0  0  0  0999 V2000
   21.9705  -27.9891  -17.9970 C   0  0  0  0  0  0  0  0  0  0  0  0
   22.7134  -28.4440  -16.7687 C   0  0  2  0  0  0  0  0  0  0  0  0
   23.5569  -29.6368  -17.1805 C   0  0  0  0  0  0  0  0  0  0  0  0
   21.8303  -28.7957  -15.6096 C   0  0  0  0  0  0  0  0  0  0  0  0
   21.3327  -27.5603  -14.9340 C   0  0  2  0  0  0  0  0  0  0  0  0
   22.4426  -26.7228  -14.5668 N   0  0  0  0  0  0  0  0  0  0  0  0
   20.4936  -27.8549  -13.7460 C   0  0  0  0  0  0  0  0  0  0  0  0
   19.4715  -28.5666  -13.8950 O   0  0  0  0  0  0  0  0  0  0  0  0
   19.4346  -29.2332   -8.6973 C   0  0  0  0  0  0  0  0  0  0  0  0
   20.7520  -29.3569   -9.5299 C   0  0  1  0  0  0  0  0  0  0  0  0
   20.3803  -30.4841  -10.5140 C   0  0  0  0  0  0  0  0  0  0  0  0
   20.9771  -28.0973  -10.2762 C   0  0  0  0  0  0  0  0  0  0  0  0
   19.9898  -27.6270  -11.2633 C   0  0  2  0  0  0  0  0  0  0  0  0
   20.8199  -27.3601  -12.4879 N   0  0  0  0  0  0  0  0  0  0  0  0
   19.2848  -26.3698  -11.0274 C   0  0  0  0  0  0  0  0  0  0  0  0
   18.5042  -26.2398  -10.0208 O   0  0  0  0  0  0  0  0  0  0  0  0
   19.3987  -25.2101  -11.8565 N   0  0  0  0  0  0  0  0  0  0  0  0
   18.6615  -24.0241  -11.5054 C   0  0  0  0  0  0  0  0  0  0  0  0
   17.3082  -23.9997  -12.0989 C   0  0  0  0  0  0  0  0  0  0  0  0
   16.5005  -22.8926  -11.9250 O   0  0  0  0  0  0  0  0  0  0  0  0
   16.8598  -24.9604  -12.7638 O   0  0  0  0  0  0  0  0  0  0  0  0
  2  1  1  6
  3  2  1  0
  4  2  1  0
  5  4  1  0
  5  7  1  0
  5  6  1  1
  7  8  2  0
  7 14  1  0
 10  9  1  1
 10 12  1  0
 11 10  1  0
 13 12  1  1
 13 15  1  0
 14 13  1  0
 15 16  2  0
 17 15  1  0
 17 18  1  0
 19 18  1  0
 19 20  1  0
 21 19  2  0
M  END
$$$$
