LLG.pdb
     RDKit          3D

 21 20  0  0  1  0  0  0  0  0999 V2000
   17.5769  -12.1186  -19.6238 C   0  0  0  0  0  0  0  0  0  0  0  0
   16.6019  -12.2915  -18.4894 C   0  0  2  0  0  0  0  0  0  0  0  0
   15.2406  -11.8673  -19.0098 C   0  0  0  0  0  0  0  0  0  0  0  0
   16.9565  -11.5259  -17.2503 C   0  0  0  0  0  0  0  0  0  0  0  0
   18.3468  -11.8501  -16.8119 C   0  0  2  0  0  0  0  0  0  0  0  0
   18.3868  -13.1740  -16.2518 N   0  0  0  0  0  0  0  0  0  0  0  0
   18.8873  -10.8639  -15.8437 C   0  0  0  0  0  0  0  0  0  0  0  0
   18.5450  -10.9549  -14.6404 O   0  0  0  0  0  0  0  0  0  0  0  0
   23.8588  -10.2714  -14.6571 C   0  0  0  0  0  0  0  0  0  0  0  0
   22.3075  -10.2139  -14.4720 C   0  0  1  0  0  0  0  0  0  0  0  0
   22.1967   -9.8470  -12.9786 C   0  0  0  0  0  0  0  0  0  0  0  0
   21.7585   -9.1136  -15.2980 C   0  0  0  0  0  0  0  0  0  0  0  0
   20.3130   -8.8293  -15.2986 C   0  0  2  0  0  0  0  0  0  0  0  0
   19.7555   -9.8547  -16.2460 N   0  0  0  0  0  0  0  0  0  0  0  0
   19.8344   -7.5548  -15.8279 C   0  0  0  0  0  0  0  0  0  0  0  0
   19.9754   -7.2706  -17.0683 O   0  0  0  0  0  0  0  0  0  0  0  0
   19.1832   -6.5481  -15.0483 N   0  0  0  0  0  0  0  0  0  0  0  0
   18.7358   -5.3424  -15.6959 C   0  0  0  0  0  0  0  0  0  0  0  0
   19.8420   -4.4024  -15.9736 C   0  0  0  0  0  0  0  0  0  0  0  0
   19.5701   -3.1602  -16.5133 O   0  0  0  0  0  0  0  0  0  0  0  0
   21.0349   -4.6951  -15.7340 O   0  0  0  0  0  0  0  0  0  0  0  0
  2  1  1  6
  3  2  1  0
  4  2  1  0
  5  4  1  0
  5  7  1  0
  5  6  1  1
  7  8  2  0
  7 14  1  0
 10  9  1  6
 10 12  1  0
 11 10  1  0
 13 12  1  6
 13 15  1  0
 14 13  1  0
 15 16  2  0
 17 15  1  0
 17 18  1  0
 19 18  1  0
 19 20  1  0
 21 19  2  0
M  END
$$$$
