LLG.pdb
     RDKit          3D

 21 20  0  0  1  0  0  0  0  0999 V2000
   20.6964  -29.8944  -16.7882 C   0  0  0  0  0  0  0  0  0  0  0  0
   22.1058  -29.7875  -16.2688 C   0  0  2  0  0  0  0  0  0  0  0  0
   22.4733  -31.1493  -15.7083 C   0  0  0  0  0  0  0  0  0  0  0  0
   22.3020  -28.7197  -15.2352 C   0  0  0  0  0  0  0  0  0  0  0  0
   21.9903  -27.3742  -15.8035 C   0  0  2  0  0  0  0  0  0  0  0  0
   23.0599  -26.9474  -16.6648 N   0  0  0  0  0  0  0  0  0  0  0  0
   21.7335  -26.3549  -14.7561 C   0  0  0  0  0  0  0  0  0  0  0  0
   22.7141  -25.7865  -14.2188 O   0  0  0  0  0  0  0  0  0  0  0  0
   19.0788  -22.0443  -15.7200 C   0  0  0  0  0  0  0  0  0  0  0  0
   20.1123  -22.9988  -15.0382 C   0  0  1  0  0  0  0  0  0  0  0  0
   20.9194  -22.0037  -14.1804 C   0  0  0  0  0  0  0  0  0  0  0  0
   19.3924  -23.9473  -14.1572 C   0  0  0  0  0  0  0  0  0  0  0  0
   20.1354  -24.9448  -13.3678 C   0  0  2  0  0  0  0  0  0  0  0  0
   20.4394  -26.0257  -14.3674 N   0  0  0  0  0  0  0  0  0  0  0  0
   19.4585  -25.6443  -12.2786 C   0  0  0  0  0  0  0  0  0  0  0  0
   18.3422  -26.2379  -12.4803 O   0  0  0  0  0  0  0  0  0  0  0  0
   19.9585  -25.7368  -10.9420 N   0  0  0  0  0  0  0  0  0  0  0  0
   19.1195  -26.3051   -9.9191 C   0  0  0  0  0  0  0  0  0  0  0  0
   18.9848  -27.7716  -10.0443 C   0  0  0  0  0  0  0  0  0  0  0  0
   18.4482  -28.3176  -11.1942 O   0  0  0  0  0  0  0  0  0  0  0  0
   19.3448  -28.5493   -9.1323 O   0  0  0  0  0  0  0  0  0  0  0  0
  2  1  1  1
  3  2  1  0
  4  2  1  0
  5  4  1  0
  5  7  1  0
  5  6  1  1
  7  8  2  0
  7 14  1  0
 10  9  1  1
 10 12  1  0
 11 10  1  0
 13 12  1  6
 13 15  1  0
 14 13  1  0
 15 16  2  0
 17 15  1  0
 17 18  1  0
 19 18  1  0
 19 20  1  0
 21 19  2  0
M  END
$$$$
