LLG.pdb
     RDKit          3D

 21 20  0  0  1  0  0  0  0  0999 V2000
   18.1060  -11.3967  -19.9659 C   0  0  0  0  0  0  0  0  0  0  0  0
   17.3515  -11.6056  -18.6797 C   0  0  2  0  0  0  0  0  0  0  0  0
   16.0243  -10.8835  -18.8251 C   0  0  0  0  0  0  0  0  0  0  0  0
   18.0782  -11.1352  -17.4558 C   0  0  0  0  0  0  0  0  0  0  0  0
   19.3925  -11.8321  -17.3244 C   0  0  2  0  0  0  0  0  0  0  0  0
   19.1807  -13.2294  -17.0587 N   0  0  0  0  0  0  0  0  0  0  0  0
   20.2569  -11.2331  -16.2775 C   0  0  0  0  0  0  0  0  0  0  0  0
   20.0076  -11.4887  -15.0750 O   0  0  0  0  0  0  0  0  0  0  0  0
   24.8330  -10.1578  -13.8497 C   0  0  0  0  0  0  0  0  0  0  0  0
   24.6796   -9.4288  -15.2242 C   0  0  1  0  0  0  0  0  0  0  0  0
   25.9997   -9.8179  -15.9193 C   0  0  0  0  0  0  0  0  0  0  0  0
   23.5362  -10.0145  -15.9617 C   0  0  0  0  0  0  0  0  0  0  0  0
   22.1523   -9.6892  -15.5752 C   0  0  2  0  0  0  0  0  0  0  0  0
   21.3243  -10.4043  -16.6061 N   0  0  0  0  0  0  0  0  0  0  0  0
   21.6959   -8.3036  -15.6472 C   0  0  0  0  0  0  0  0  0  0  0  0
   21.5811   -7.7137  -16.7778 O   0  0  0  0  0  0  0  0  0  0  0  0
   21.3406   -7.5085  -14.5128 N   0  0  0  0  0  0  0  0  0  0  0  0
   21.0542   -6.1100  -14.7009 C   0  0  0  0  0  0  0  0  0  0  0  0
   22.2172   -5.2470  -14.4062 C   0  0  0  0  0  0  0  0  0  0  0  0
   22.0977   -3.8743  -14.5040 O   0  0  0  0  0  0  0  0  0  0  0  0
   23.3241   -5.7217  -14.0660 O   0  0  0  0  0  0  0  0  0  0  0  0
  2  1  1  6
  3  2  1  0
  4  2  1  0
  5  4  1  0
  5  7  1  0
  5  6  1  1
  7  8  2  0
  7 14  1  0
 10  9  1  1
 10 12  1  0
 11 10  1  0
 13 12  1  6
 13 15  1  0
 14 13  1  0
 15 16  2  0
 17 15  1  0
 17 18  1  0
 19 18  1  0
 19 20  1  0
 21 19  2  0
M  END
$$$$
