DSP.pdb
     RDKit          3D

 22 22  0  0  1  0  0  0  0  0999 V2000
   12.4189  -16.4706   20.7147 N   0  0  0  0  0  0  0  0  0  0  0  0
   11.3922  -17.0498   21.5549 C   0  0  1  0  0  0  0  0  0  0  0  0
   12.0361  -17.8818   22.6376 C   0  0  0  0  0  0  0  0  0  0  0  0
   12.6282  -19.1373   22.1273 C   0  0  0  0  0  0  0  0  0  0  0  0
   12.0223  -19.7902   21.2481 O   0  0  0  0  0  0  0  0  0  0  0  0
   10.5445  -15.9673   22.1740 C   0  0  0  0  0  0  0  0  0  0  0  0
   11.1280  -15.0136   22.7548 O   0  0  0  0  0  0  0  0  0  0  0  0
   13.8679  -19.5520   22.6619 O   0  0  0  0  0  0  0  0  0  0  0  0
    6.3142  -16.0399   22.2310 O   0  0  0  0  0  0  0  0  0  0  0  0
    6.9993  -14.8381   22.0308 C   0  0  0  0  0  0  0  0  0  0  0  0
    8.3454  -14.8887   22.7458 C   0  0  2  0  0  0  0  0  0  0  0  0
    9.1366  -15.9759   22.1295 N   0  0  0  0  0  0  0  0  0  0  0  0
    8.2008  -15.1522   24.1779 C   0  0  0  0  0  0  0  0  0  0  0  0
    8.7534  -16.2476   24.5934 O   0  0  0  0  0  0  0  0  0  0  0  0
    7.5371  -14.3471   25.1274 N   0  0  0  0  0  0  0  0  0  0  0  0
    6.7774  -13.1494   24.8403 C   0  0  0  0  0  0  0  0  0  0  0  0
    7.2779  -12.2681   25.9923 C   0  0  0  0  0  0  0  0  0  0  0  0
    6.9789  -13.2206   27.1385 C   0  0  0  0  0  0  0  0  0  0  0  0
    7.4242  -14.5442   26.5398 C   0  0  1  0  0  0  0  0  0  0  0  0
    6.3196  -15.5341   26.8093 C   0  0  0  0  0  0  0  0  0  0  0  0
    5.4713  -15.7973   25.9269 O   0  0  0  0  0  0  0  0  0  0  0  0
    6.2267  -16.1645   28.0308 O   0  0  0  0  0  0  0  0  0  0  0  0
  2  1  1  1
  2  3  1  0
  3  4  1  0
  4  8  1  0
  5  4  2  0
  6  2  1  0
  7  6  2  0
  9 10  1  0
 11 10  1  6
 11 13  1  0
 11 12  1  0
 12  6  1  0
 13 15  1  0
 14 13  2  0
 15 16  1  0
 15 19  1  0
 16 17  1  0
 17 18  1  0
 19 20  1  6
 19 18  1  0
 20 22  1  0
 21 20  2  0
M  END
$$$$
