DSP.pdb
     RDKit          3D

 22 22  0  0  1  0  0  0  0  0999 V2000
    9.5456  -17.9503   14.6184 N   0  0  0  0  0  0  0  0  0  0  0  0
    9.6388  -18.2678   16.0277 C   0  0  1  0  0  0  0  0  0  0  0  0
   11.0897  -18.2943   16.4441 C   0  0  0  0  0  0  0  0  0  0  0  0
   11.8069  -19.4959   15.9656 C   0  0  0  0  0  0  0  0  0  0  0  0
   12.2952  -19.5027   14.8133 O   0  0  0  0  0  0  0  0  0  0  0  0
    8.8869  -17.2505   16.8484 C   0  0  0  0  0  0  0  0  0  0  0  0
    8.9461  -16.0418   16.4977 O   0  0  0  0  0  0  0  0  0  0  0  0
   11.9105  -20.5997   16.8407 O   0  0  0  0  0  0  0  0  0  0  0  0
    6.5329  -18.3777   20.0628 O   0  0  0  0  0  0  0  0  0  0  0  0
    6.0956  -17.3078   19.2768 C   0  0  0  0  0  0  0  0  0  0  0  0
    7.2977  -16.5833   18.6802 C   0  0  2  0  0  0  0  0  0  0  0  0
    8.1245  -17.5921   17.9825 N   0  0  0  0  0  0  0  0  0  0  0  0
    8.1083  -15.9225   19.7038 C   0  0  0  0  0  0  0  0  0  0  0  0
    9.1851  -16.5563   20.0454 O   0  0  0  0  0  0  0  0  0  0  0  0
    7.8392  -14.6907   20.3366 N   0  0  0  0  0  0  0  0  0  0  0  0
    6.6085  -13.9364   20.2349 C   0  0  0  0  0  0  0  0  0  0  0  0
    7.2031  -12.5309   20.0764 C   0  0  0  0  0  0  0  0  0  0  0  0
    8.1065  -12.5394   21.2988 C   0  0  0  0  0  0  0  0  0  0  0  0
    8.6719  -13.9482   21.2320 C   0  0  1  0  0  0  0  0  0  0  0  0
    8.5445  -14.5313   22.6164 C   0  0  0  0  0  0  0  0  0  0  0  0
    7.6156  -15.3250   22.8898 O   0  0  0  0  0  0  0  0  0  0  0  0
    9.4484  -14.1999   23.6019 O   0  0  0  0  0  0  0  0  0  0  0  0
  2  1  1  6
  2  3  1  0
  3  4  1  0
  4  8  1  0
  5  4  2  0
  6  2  1  0
  7  6  2  0
  9 10  1  0
 11 10  1  1
 11 13  1  0
 11 12  1  0
 12  6  1  0
 13 15  1  0
 14 13  2  0
 15 16  1  0
 15 19  1  0
 16 17  1  0
 17 18  1  0
 19 20  1  1
 19 18  1  0
 20 22  1  0
 21 20  2  0
M  END
$$$$
