DSP.pdb
     RDKit          3D

 22 22  0  0  1  0  0  0  0  0999 V2000
    6.4355  -16.0880   20.3670 N   0  0  0  0  0  0  0  0  0  0  0  0
    7.7229  -15.8687   20.9915 C   0  0  1  0  0  0  0  0  0  0  0  0
    8.5116  -14.8668   20.1832 C   0  0  0  0  0  0  0  0  0  0  0  0
    9.0673  -15.4378   18.9372 C   0  0  0  0  0  0  0  0  0  0  0  0
    9.4698  -16.6228   18.9297 O   0  0  0  0  0  0  0  0  0  0  0  0
    7.5462  -15.3662   22.4021 C   0  0  0  0  0  0  0  0  0  0  0  0
    6.7545  -14.4056   22.5969 O   0  0  0  0  0  0  0  0  0  0  0  0
    9.1219  -14.6101   17.7942 O   0  0  0  0  0  0  0  0  0  0  0  0
    7.1058  -17.7040   25.3827 O   0  0  0  0  0  0  0  0  0  0  0  0
    6.7329  -16.3569   25.3660 C   0  0  0  0  0  0  0  0  0  0  0  0
    7.9042  -15.5054   24.8878 C   0  0  2  0  0  0  0  0  0  0  0  0
    8.2230  -15.9227   23.5050 N   0  0  0  0  0  0  0  0  0  0  0  0
    9.0908  -15.6768   25.7270 C   0  0  0  0  0  0  0  0  0  0  0  0
   10.0043  -16.4520   25.2347 O   0  0  0  0  0  0  0  0  0  0  0  0
    9.3319  -15.0913   26.9876 N   0  0  0  0  0  0  0  0  0  0  0  0
    8.4256  -14.2209   27.7054 C   0  0  0  0  0  0  0  0  0  0  0  0
    9.4365  -13.1747   28.1931 C   0  0  0  0  0  0  0  0  0  0  0  0
   10.4239  -14.1211   28.8561 C   0  0  0  0  0  0  0  0  0  0  0  0
   10.4677  -15.2520   27.8423 C   0  0  1  0  0  0  0  0  0  0  0  0
   10.3183  -16.5353   28.6193 C   0  0  0  0  0  0  0  0  0  0  0  0
    9.2394  -17.1703   28.5981 O   0  0  0  0  0  0  0  0  0  0  0  0
   11.3666  -17.0290   29.3644 O   0  0  0  0  0  0  0  0  0  0  0  0
  2  1  1  6
  2  3  1  0
  3  4  1  0
  4  8  1  0
  5  4  2  0
  6  2  1  0
  7  6  2  0
  9 10  1  0
 11 10  1  1
 11 13  1  0
 11 12  1  0
 12  6  1  0
 13 15  1  0
 14 13  2  0
 15 16  1  0
 15 19  1  0
 16 17  1  0
 17 18  1  0
 19 20  1  1
 19 18  1  0
 20 22  1  0
 21 20  2  0
M  END
$$$$
