DSP.pdb
     RDKit          3D

 22 22  0  0  1  0  0  0  0  0999 V2000
    8.7553  -17.5727   20.5598 N   0  0  0  0  0  0  0  0  0  0  0  0
    8.6232  -16.1347   20.4580 C   0  0  1  0  0  0  0  0  0  0  0  0
    7.9234  -15.7823   19.1676 C   0  0  0  0  0  0  0  0  0  0  0  0
    8.6725  -16.2126   17.9671 C   0  0  0  0  0  0  0  0  0  0  0  0
    9.7976  -16.7439   18.1019 O   0  0  0  0  0  0  0  0  0  0  0  0
    7.8445  -15.5923   21.6299 C   0  0  0  0  0  0  0  0  0  0  0  0
    7.3355  -14.4444   21.5261 O   0  0  0  0  0  0  0  0  0  0  0  0
    8.0790  -16.0015   16.7031 O   0  0  0  0  0  0  0  0  0  0  0  0
    6.9811  -17.6903   25.3231 O   0  0  0  0  0  0  0  0  0  0  0  0
    6.1215  -16.8396   24.6223 C   0  0  0  0  0  0  0  0  0  0  0  0
    6.9260  -15.7214   23.9678 C   0  0  2  0  0  0  0  0  0  0  0  0
    7.6616  -16.3105   22.8277 N   0  0  0  0  0  0  0  0  0  0  0  0
    7.8821  -15.1136   24.8940 C   0  0  0  0  0  0  0  0  0  0  0  0
    9.1117  -15.4907   24.7399 O   0  0  0  0  0  0  0  0  0  0  0  0
    7.6020  -14.1772   25.9112 N   0  0  0  0  0  0  0  0  0  0  0  0
    6.2870  -13.7128   26.2973 C   0  0  0  0  0  0  0  0  0  0  0  0
    6.5986  -12.2185   26.4537 C   0  0  0  0  0  0  0  0  0  0  0  0
    7.7788  -12.3422   27.4036 C   0  0  0  0  0  0  0  0  0  0  0  0
    8.5154  -13.5257   26.7988 C   0  0  1  0  0  0  0  0  0  0  0  0
    8.8422  -14.4589   27.9368 C   0  0  0  0  0  0  0  0  0  0  0  0
    9.7172  -14.1541   28.7788 O   0  0  0  0  0  0  0  0  0  0  0  0
    8.1829  -15.6615   28.0678 O   0  0  0  0  0  0  0  0  0  0  0  0
  2  1  1  1
  2  3  1  0
  3  4  1  0
  4  8  1  0
  5  4  2  0
  6  2  1  0
  7  6  2  0
  9 10  1  0
 11 10  1  1
 11 13  1  0
 11 12  1  0
 12  6  1  0
 13 15  1  0
 14 13  2  0
 15 16  1  0
 15 19  1  0
 16 17  1  0
 17 18  1  0
 19 20  1  1
 19 18  1  0
 20 22  1  0
 21 20  2  0
M  END
$$$$
