DSP.pdb
     RDKit          3D

 22 22  0  0  1  0  0  0  0  0999 V2000
    9.7062  -14.4607   18.2673 N   0  0  0  0  0  0  0  0  0  0  0  0
   10.1613  -14.6486   19.6285 C   0  0  1  0  0  0  0  0  0  0  0  0
   11.4532  -13.8958   19.8371 C   0  0  0  0  0  0  0  0  0  0  0  0
   12.6304  -14.6042   19.2897 C   0  0  0  0  0  0  0  0  0  0  0  0
   12.4787  -15.4091   18.3434 O   0  0  0  0  0  0  0  0  0  0  0  0
    9.1198  -14.1627   20.6047 C   0  0  0  0  0  0  0  0  0  0  0  0
    8.4533  -13.1371   20.3024 O   0  0  0  0  0  0  0  0  0  0  0  0
   13.8920  -14.3397   19.8666 O   0  0  0  0  0  0  0  0  0  0  0  0
    6.9406  -16.5430   22.8971 O   0  0  0  0  0  0  0  0  0  0  0  0
    6.5907  -15.2313   22.5644 C   0  0  0  0  0  0  0  0  0  0  0  0
    7.7987  -14.3170   22.7394 C   0  0  2  0  0  0  0  0  0  0  0  0
    8.8607  -14.8036   21.8320 N   0  0  0  0  0  0  0  0  0  0  0  0
    8.3014  -14.3226   24.1137 C   0  0  0  0  0  0  0  0  0  0  0  0
    9.4315  -14.9325   24.2827 O   0  0  0  0  0  0  0  0  0  0  0  0
    7.6912  -13.7396   25.2441 N   0  0  0  0  0  0  0  0  0  0  0  0
    6.3642  -13.1641   25.2890 C   0  0  0  0  0  0  0  0  0  0  0  0
    6.6775  -11.9070   26.1111 C   0  0  0  0  0  0  0  0  0  0  0  0
    7.3603  -12.5836   27.2885 C   0  0  0  0  0  0  0  0  0  0  0  0
    8.2040  -13.6264   26.5748 C   0  0  1  0  0  0  0  0  0  0  0  0
    7.9822  -14.9307   27.2977 C   0  0  0  0  0  0  0  0  0  0  0  0
    8.5247  -15.1447   28.4056 O   0  0  0  0  0  0  0  0  0  0  0  0
    7.1790  -15.9070   26.7503 O   0  0  0  0  0  0  0  0  0  0  0  0
  2  1  1  6
  2  3  1  0
  3  4  1  0
  4  8  1  0
  5  4  2  0
  6  2  1  0
  7  6  2  0
  9 10  1  0
 11 10  1  1
 11 13  1  0
 11 12  1  0
 12  6  1  0
 13 15  1  0
 14 13  2  0
 15 16  1  0
 15 19  1  0
 16 17  1  0
 17 18  1  0
 19 20  1  1
 19 18  1  0
 20 22  1  0
 21 20  2  0
M  END
$$$$
