DSP.pdb
     RDKit          3D

 22 22  0  0  1  0  0  0  0  0999 V2000
   11.8094  -17.1784   19.9639 N   0  0  0  0  0  0  0  0  0  0  0  0
   10.3982  -17.5008   19.9530 C   0  0  1  0  0  0  0  0  0  0  0  0
   10.1777  -18.8246   20.6444 C   0  0  0  0  0  0  0  0  0  0  0  0
   10.6738  -19.9764   19.8604 C   0  0  0  0  0  0  0  0  0  0  0  0
   11.7032  -20.5798   20.2380 O   0  0  0  0  0  0  0  0  0  0  0  0
    9.6052  -16.4210   20.6449 C   0  0  0  0  0  0  0  0  0  0  0  0
    9.8257  -15.2226   20.3244 O   0  0  0  0  0  0  0  0  0  0  0  0
    9.9560  -20.3503   18.7030 O   0  0  0  0  0  0  0  0  0  0  0  0
    5.9699  -17.0660   22.3714 O   0  0  0  0  0  0  0  0  0  0  0  0
    6.3903  -15.8178   21.9034 C   0  0  0  0  0  0  0  0  0  0  0  0
    7.8578  -15.6033   22.2587 C   0  0  2  0  0  0  0  0  0  0  0  0
    8.6329  -16.6934   21.6271 N   0  0  0  0  0  0  0  0  0  0  0  0
    8.0855  -15.6271   23.7041 C   0  0  0  0  0  0  0  0  0  0  0  0
    8.8721  -16.5680   24.1208 O   0  0  0  0  0  0  0  0  0  0  0  0
    7.5472  -14.7443   24.6638 N   0  0  0  0  0  0  0  0  0  0  0  0
    6.6007  -13.6816   24.4015 C   0  0  0  0  0  0  0  0  0  0  0  0
    7.2243  -12.5861   25.2763 C   0  0  0  0  0  0  0  0  0  0  0  0
    7.3001  -13.3664   26.5784 C   0  0  0  0  0  0  0  0  0  0  0  0
    7.7668  -14.7228   26.0772 C   0  0  1  0  0  0  0  0  0  0  0  0
    6.8781  -15.7530   26.7266 C   0  0  0  0  0  0  0  0  0  0  0  0
    5.9045  -16.2362   26.1052 O   0  0  0  0  0  0  0  0  0  0  0  0
    7.1237  -16.1786   28.0136 O   0  0  0  0  0  0  0  0  0  0  0  0
  2  1  1  1
  2  3  1  0
  3  4  1  0
  4  8  1  0
  5  4  2  0
  6  2  1  0
  7  6  2  0
  9 10  1  0
 11 10  1  1
 11 13  1  0
 11 12  1  0
 12  6  1  0
 13 15  1  0
 14 13  2  0
 15 16  1  0
 15 19  1  0
 16 17  1  0
 17 18  1  0
 19 20  1  1
 19 18  1  0
 20 22  1  0
 21 20  2  0
M  END
$$$$
