VVL.pdb
     RDKit          3D

 23 22  0  0  1  0  0  0  0  0999 V2000
    7.7535  -12.2789   18.6702 C   0  0  0  0  0  0  0  0  0  0  0  0
    7.6538  -13.2605   19.7917 C   0  0  2  0  0  0  0  0  0  0  0  0
    8.2500  -12.6060   21.0358 C   0  0  0  0  0  0  0  0  0  0  0  0
    8.3981  -14.5409   19.5800 C   0  0  2  0  0  0  0  0  0  0  0  0
    8.0038  -15.2031   18.3624 N   0  0  0  0  0  0  0  0  0  0  0  0
    8.2109  -15.4982   20.7135 C   0  0  0  0  0  0  0  0  0  0  0  0
    7.1024  -16.0609   20.7457 O   0  0  0  0  0  0  0  0  0  0  0  0
   10.4582  -18.6047   23.7160 C   0  0  0  0  0  0  0  0  0  0  0  0
   10.4618  -17.6029   22.5475 C   0  0  1  0  0  0  0  0  0  0  0  0
    9.9631  -18.5109   21.3812 C   0  0  0  0  0  0  0  0  0  0  0  0
    9.2787  -16.6349   22.7780 C   0  0  2  0  0  0  0  0  0  0  0  0
    9.2142  -15.7094   21.6273 N   0  0  0  0  0  0  0  0  0  0  0  0
    9.4697  -15.7845   23.9684 C   0  0  0  0  0  0  0  0  0  0  0  0
   10.4953  -15.0092   24.0435 O   0  0  0  0  0  0  0  0  0  0  0  0
    6.1103  -12.5136   26.2102 C   0  0  0  0  0  0  0  0  0  0  0  0
    7.3620  -13.2373   25.7862 C   0  0  1  0  0  0  0  0  0  0  0  0
    8.4606  -12.1730   25.7197 C   0  0  0  0  0  0  0  0  0  0  0  0
    7.8103  -14.2610   26.7732 C   0  0  0  0  0  0  0  0  0  0  0  0
    9.0222  -15.0591   26.3406 C   0  0  2  0  0  0  0  0  0  0  0  0
    8.6155  -15.7122   25.0888 N   0  0  0  0  0  0  0  0  0  0  0  0
    9.4872  -16.0170   27.3401 C   0  0  0  0  0  0  0  0  0  0  0  0
    9.1274  -17.2177   27.3216 O   0  0  0  0  0  0  0  0  0  0  0  0
   10.3505  -15.6372   28.3556 O   0  0  0  0  0  0  0  0  0  0  0  0
  2  1  1  6
  2  4  1  0
  3  2  1  0
  4  5  1  6
  4  6  1  0
  6 12  1  0
  7  6  2  0
  9  8  1  1
  9 10  1  0
 11 13  1  0
 11  9  1  0
 11 12  1  6
 13 14  2  0
 16 15  1  1
 16 17  1  0
 18 16  1  0
 19 18  1  1
 20 19  1  0
 20 13  1  0
 21 19  1  0
 22 21  2  0
 23 21  1  0
M  END
$$$$
