VVL.pdb
     RDKit          3D

 23 22  0  0  1  0  0  0  0  0999 V2000
    6.1141  -20.4843   24.1042 C   0  0  0  0  0  0  0  0  0  0  0  0
    6.9444  -19.2768   23.8143 C   0  0  2  0  0  0  0  0  0  0  0  0
    6.3773  -18.1169   24.6294 C   0  0  0  0  0  0  0  0  0  0  0  0
    6.9456  -18.8381   22.3840 C   0  0  2  0  0  0  0  0  0  0  0  0
    7.2987  -19.9099   21.4878 N   0  0  0  0  0  0  0  0  0  0  0  0
    7.8842  -17.6993   22.1423 C   0  0  0  0  0  0  0  0  0  0  0  0
    9.0767  -18.0241   22.0046 O   0  0  0  0  0  0  0  0  0  0  0  0
    7.9428  -12.7111   21.4888 C   0  0  0  0  0  0  0  0  0  0  0  0
    7.1720  -14.0431   21.5054 C   0  0  1  0  0  0  0  0  0  0  0  0
    7.0379  -14.3235   19.9767 C   0  0  0  0  0  0  0  0  0  0  0  0
    8.1602  -15.1316   21.9833 C   0  0  2  0  0  0  0  0  0  0  0  0
    7.4211  -16.4077   22.0845 N   0  0  0  0  0  0  0  0  0  0  0  0
    8.6851  -14.8622   23.3355 C   0  0  0  0  0  0  0  0  0  0  0  0
    9.8663  -14.3690   23.4772 O   0  0  0  0  0  0  0  0  0  0  0  0
    5.4351  -12.6504   26.6359 C   0  0  0  0  0  0  0  0  0  0  0  0
    6.7883  -12.9553   26.0474 C   0  0  1  0  0  0  0  0  0  0  0  0
    7.6759  -11.7564   26.3916 C   0  0  0  0  0  0  0  0  0  0  0  0
    7.4322  -14.1577   26.6497 C   0  0  0  0  0  0  0  0  0  0  0  0
    8.5917  -14.7136   25.8501 C   0  0  2  0  0  0  0  0  0  0  0  0
    8.0100  -15.0872   24.5535 N   0  0  0  0  0  0  0  0  0  0  0  0
    9.2728  -15.8327   26.4954 C   0  0  0  0  0  0  0  0  0  0  0  0
    9.8631  -15.7020   27.5935 O   0  0  0  0  0  0  0  0  0  0  0  0
    9.2948  -17.0925   25.9183 O   0  0  0  0  0  0  0  0  0  0  0  0
  2  1  1  6
  2  4  1  0
  3  2  1  0
  4  5  1  6
  4  6  1  0
  6 12  1  0
  7  6  2  0
  9  8  1  6
  9 10  1  0
 11 13  1  0
 11  9  1  0
 11 12  1  1
 13 14  2  0
 16 15  1  1
 16 17  1  0
 18 16  1  0
 19 18  1  1
 20 19  1  0
 20 13  1  0
 21 19  1  0
 22 21  2  0
 23 21  1  0
M  END
$$$$
