VVL.pdb
     RDKit          3D

 23 22  0  0  1  0  0  0  0  0999 V2000
    7.5585  -12.4791   18.8000 C   0  0  0  0  0  0  0  0  0  0  0  0
    7.5574  -13.3711   19.9982 C   0  0  2  0  0  0  0  0  0  0  0  0
    8.4374  -12.7198   21.0627 C   0  0  0  0  0  0  0  0  0  0  0  0
    8.1065  -14.7433   19.7661 C   0  0  2  0  0  0  0  0  0  0  0  0
    7.4330  -15.4223   18.6882 N   0  0  0  0  0  0  0  0  0  0  0  0
    8.0172  -15.6023   20.9869 C   0  0  0  0  0  0  0  0  0  0  0  0
    6.8819  -16.0462   21.2326 O   0  0  0  0  0  0  0  0  0  0  0  0
   10.5640  -18.5811   23.9448 C   0  0  0  0  0  0  0  0  0  0  0  0
   10.4025  -17.7328   22.6708 C   0  0  1  0  0  0  0  0  0  0  0  0
    9.7065  -18.7572   21.7224 C   0  0  0  0  0  0  0  0  0  0  0  0
    9.2911  -16.6966   22.9552 C   0  0  2  0  0  0  0  0  0  0  0  0
    9.1304  -15.8558   21.7502 N   0  0  0  0  0  0  0  0  0  0  0  0
    9.6490  -15.7712   24.0470 C   0  0  0  0  0  0  0  0  0  0  0  0
   10.3209  -14.7037   23.7871 O   0  0  0  0  0  0  0  0  0  0  0  0
    6.8457  -13.9214   27.3733 C   0  0  0  0  0  0  0  0  0  0  0  0
    7.4393  -13.8201   25.9921 C   0  0  1  0  0  0  0  0  0  0  0  0
    6.8640  -12.5399   25.3805 C   0  0  0  0  0  0  0  0  0  0  0  0
    8.9224  -13.6671   26.0010 C   0  0  0  0  0  0  0  0  0  0  0  0
    9.6777  -14.9119   26.4166 C   0  0  2  0  0  0  0  0  0  0  0  0
    9.3210  -15.9220   25.4108 N   0  0  0  0  0  0  0  0  0  0  0  0
    9.3838  -15.3558   27.7765 C   0  0  0  0  0  0  0  0  0  0  0  0
    9.6666  -14.6538   28.7759 O   0  0  0  0  0  0  0  0  0  0  0  0
    8.7765  -16.5774   28.0205 O   0  0  0  0  0  0  0  0  0  0  0  0
  2  1  1  6
  2  4  1  0
  3  2  1  0
  4  5  1  6
  4  6  1  0
  6 12  1  0
  7  6  2  0
  9  8  1  1
  9 10  1  0
 11 13  1  0
 11  9  1  0
 11 12  1  6
 13 14  2  0
 16 15  1  1
 16 17  1  0
 18 16  1  0
 19 18  1  6
 20 19  1  0
 20 13  1  0
 21 19  1  0
 22 21  2  0
 23 21  1  0
M  END
$$$$
