VVL.pdb
     RDKit          3D

 23 22  0  0  1  0  0  0  0  0999 V2000
    6.4891  -20.9348   25.4269 C   0  0  0  0  0  0  0  0  0  0  0  0
    7.2199  -19.7542   24.8759 C   0  0  2  0  0  0  0  0  0  0  0  0
    6.9385  -18.5652   25.7917 C   0  0  0  0  0  0  0  0  0  0  0  0
    6.8093  -19.3427   23.4974 C   0  0  2  0  0  0  0  0  0  0  0  0
    6.8244  -20.4485   22.5736 N   0  0  0  0  0  0  0  0  0  0  0  0
    7.6832  -18.2618   22.9457 C   0  0  0  0  0  0  0  0  0  0  0  0
    8.7942  -18.6439   22.5383 O   0  0  0  0  0  0  0  0  0  0  0  0
    7.7284  -13.3859   21.7691 C   0  0  0  0  0  0  0  0  0  0  0  0
    6.9527  -14.6820   22.0646 C   0  0  1  0  0  0  0  0  0  0  0  0
    6.6323  -15.1685   20.6175 C   0  0  0  0  0  0  0  0  0  0  0  0
    7.9811  -15.7191   22.5711 C   0  0  2  0  0  0  0  0  0  0  0  0
    7.2512  -16.9586   22.9110 N   0  0  0  0  0  0  0  0  0  0  0  0
    8.6481  -15.2906   23.8153 C   0  0  0  0  0  0  0  0  0  0  0  0
    9.4794  -14.3074   23.7903 O   0  0  0  0  0  0  0  0  0  0  0  0
    5.9066  -12.7797   26.5253 C   0  0  0  0  0  0  0  0  0  0  0  0
    7.2441  -13.3127   26.0810 C   0  0  1  0  0  0  0  0  0  0  0  0
    8.2524  -12.1918   26.3471 C   0  0  0  0  0  0  0  0  0  0  0  0
    7.6946  -14.4961   26.8682 C   0  0  0  0  0  0  0  0  0  0  0  0
    8.9278  -15.1813   26.3181 C   0  0  2  0  0  0  0  0  0  0  0  0
    8.4698  -15.8557   25.0956 N   0  0  0  0  0  0  0  0  0  0  0  0
    9.5601  -16.1042   27.2568 C   0  0  0  0  0  0  0  0  0  0  0  0
   10.0067  -15.7183   28.3627 O   0  0  0  0  0  0  0  0  0  0  0  0
    9.6933  -17.4521   26.9631 O   0  0  0  0  0  0  0  0  0  0  0  0
  2  1  1  1
  2  4  1  0
  3  2  1  0
  4  5  1  6
  4  6  1  0
  6 12  1  0
  7  6  2  0
  9  8  1  6
  9 10  1  0
 11 13  1  0
 11  9  1  0
 11 12  1  1
 13 14  2  0
 16 15  1  1
 16 17  1  0
 18 16  1  0
 19 18  1  1
 20 19  1  0
 20 13  1  0
 21 19  1  0
 22 21  2  0
 23 21  1  0
M  END
$$$$
