VVL.pdb
     RDKit          3D

 23 22  0  0  1  0  0  0  0  0999 V2000
   13.1359  -19.5138   21.7384 C   0  0  0  0  0  0  0  0  0  0  0  0
   12.2648  -18.3998   22.2195 C   0  0  2  0  0  0  0  0  0  0  0  0
   11.0155  -19.0218   22.8392 C   0  0  0  0  0  0  0  0  0  0  0  0
   11.7948  -17.4591   21.1552 C   0  0  2  0  0  0  0  0  0  0  0  0
   12.8858  -16.9376   20.3714 N   0  0  0  0  0  0  0  0  0  0  0  0
   11.0308  -16.3036   21.7186 C   0  0  0  0  0  0  0  0  0  0  0  0
   11.7271  -15.4395   22.2798 O   0  0  0  0  0  0  0  0  0  0  0  0
    6.5357  -14.1267   21.4639 C   0  0  0  0  0  0  0  0  0  0  0  0
    7.5766  -15.1401   20.9556 C   0  0  1  0  0  0  0  0  0  0  0  0
    8.1993  -14.3485   19.7643 C   0  0  0  0  0  0  0  0  0  0  0  0
    8.7187  -15.1761   21.9968 C   0  0  2  0  0  0  0  0  0  0  0  0
    9.6638  -16.2420   21.6024 N   0  0  0  0  0  0  0  0  0  0  0  0
    8.2416  -15.5396   23.3447 C   0  0  0  0  0  0  0  0  0  0  0  0
    8.2023  -16.7774   23.6977 O   0  0  0  0  0  0  0  0  0  0  0  0
    6.2915  -11.4563   26.3862 C   0  0  0  0  0  0  0  0  0  0  0  0
    7.1896  -12.6341   26.1100 C   0  0  1  0  0  0  0  0  0  0  0  0
    8.2290  -12.6426   27.2340 C   0  0  0  0  0  0  0  0  0  0  0  0
    6.4765  -13.9421   26.1700 C   0  0  0  0  0  0  0  0  0  0  0  0
    7.2708  -15.1135   25.6316 C   0  0  2  0  0  0  0  0  0  0  0  0
    7.8063  -14.6459   24.3457 N   0  0  0  0  0  0  0  0  0  0  0  0
    6.4936  -16.3423   25.4946 C   0  0  0  0  0  0  0  0  0  0  0  0
    5.7950  -16.5720   24.4794 O   0  0  0  0  0  0  0  0  0  0  0  0
    6.4961  -17.3109   26.4858 O   0  0  0  0  0  0  0  0  0  0  0  0
  2  1  1  6
  2  4  1  0
  3  2  1  0
  4  5  1  1
  4  6  1  0
  6 12  1  0
  7  6  2  0
  9  8  1  1
  9 10  1  0
 11 13  1  0
 11  9  1  0
 11 12  1  6
 13 14  2  0
 16 15  1  1
 16 17  1  0
 18 16  1  0
 19 18  1  6
 20 19  1  0
 20 13  1  0
 21 19  1  0
 22 21  2  0
 23 21  1  0
M  END
$$$$
