VVL.pdb
     RDKit          3D

 23 22  0  0  1  0  0  0  0  0999 V2000
    8.2305  -13.3856   17.9094 C   0  0  0  0  0  0  0  0  0  0  0  0
    7.6065  -13.7355   19.2207 C   0  0  2  0  0  0  0  0  0  0  0  0
    7.3051  -12.4306   19.9543 C   0  0  0  0  0  0  0  0  0  0  0  0
    8.4657  -14.5535   20.1323 C   0  0  2  0  0  0  0  0  0  0  0  0
    8.8635  -15.8004   19.5294 N   0  0  0  0  0  0  0  0  0  0  0  0
    7.7854  -14.8581   21.4287 C   0  0  0  0  0  0  0  0  0  0  0  0
    7.1668  -13.9039   21.9320 O   0  0  0  0  0  0  0  0  0  0  0  0
    6.7706  -18.6897   24.5228 C   0  0  0  0  0  0  0  0  0  0  0  0
    7.4652  -18.1660   23.2531 C   0  0  1  0  0  0  0  0  0  0  0  0
    6.4559  -18.6253   22.1559 C   0  0  0  0  0  0  0  0  0  0  0  0
    7.3139  -16.6275   23.2566 C   0  0  2  0  0  0  0  0  0  0  0  0
    7.8640  -16.1110   21.9856 N   0  0  0  0  0  0  0  0  0  0  0  0
    8.1014  -15.9859   24.3265 C   0  0  0  0  0  0  0  0  0  0  0  0
    9.3872  -16.0530   24.3031 O   0  0  0  0  0  0  0  0  0  0  0  0
    6.2739  -11.5240   26.5788 C   0  0  0  0  0  0  0  0  0  0  0  0
    7.1162  -12.6298   25.9975 C   0  0  1  0  0  0  0  0  0  0  0  0
    8.2956  -11.9405   25.3062 C   0  0  0  0  0  0  0  0  0  0  0  0
    7.6908  -13.5355   27.0333 C   0  0  0  0  0  0  0  0  0  0  0  0
    8.4551  -14.7182   26.4763 C   0  0  2  0  0  0  0  0  0  0  0  0
    7.5867  -15.2662   25.4252 N   0  0  0  0  0  0  0  0  0  0  0  0
    8.8104  -15.7184   27.4793 C   0  0  0  0  0  0  0  0  0  0  0  0
    9.7873  -15.5632   28.2494 O   0  0  0  0  0  0  0  0  0  0  0  0
    8.0786  -16.8865   27.6230 O   0  0  0  0  0  0  0  0  0  0  0  0
  2  1  1  6
  2  4  1  0
  3  2  1  0
  4  5  1  6
  4  6  1  0
  6 12  1  0
  7  6  2  0
  9  8  1  1
  9 10  1  0
 11 13  1  0
 11  9  1  0
 11 12  1  6
 13 14  2  0
 16 15  1  1
 16 17  1  0
 18 16  1  0
 19 18  1  1
 20 19  1  0
 20 13  1  0
 21 19  1  0
 22 21  2  0
 23 21  1  0
M  END
$$$$
