VVL.pdb
     RDKit          3D

 23 22  0  0  1  0  0  0  0  0999 V2000
   13.6876  -19.1882   20.3035 C   0  0  0  0  0  0  0  0  0  0  0  0
   12.9530  -18.2237   21.1761 C   0  0  2  0  0  0  0  0  0  0  0  0
   12.4784  -18.9844   22.4121 C   0  0  0  0  0  0  0  0  0  0  0  0
   11.7382  -17.6082   20.5564 C   0  0  2  0  0  0  0  0  0  0  0  0
   12.0212  -17.0268   19.2686 N   0  0  0  0  0  0  0  0  0  0  0  0
   11.1352  -16.5499   21.4239 C   0  0  0  0  0  0  0  0  0  0  0  0
   11.8017  -15.5039   21.5133 O   0  0  0  0  0  0  0  0  0  0  0  0
    6.8583  -15.0602   23.4427 C   0  0  0  0  0  0  0  0  0  0  0  0
    7.6883  -15.8587   22.4217 C   0  0  1  0  0  0  0  0  0  0  0  0
    7.7301  -14.8549   21.2284 C   0  0  0  0  0  0  0  0  0  0  0  0
    9.1472  -15.8675   22.9328 C   0  0  2  0  0  0  0  0  0  0  0  0
    9.9338  -16.7598   22.0554 N   0  0  0  0  0  0  0  0  0  0  0  0
    9.2656  -16.4317   24.2908 C   0  0  0  0  0  0  0  0  0  0  0  0
    9.3067  -17.7086   24.4523 O   0  0  0  0  0  0  0  0  0  0  0  0
    9.9740  -12.8125   28.1721 C   0  0  0  0  0  0  0  0  0  0  0  0
   10.3085  -14.0864   27.4403 C   0  0  1  0  0  0  0  0  0  0  0  0
   11.7244  -14.4654   27.8823 C   0  0  0  0  0  0  0  0  0  0  0  0
    9.4202  -15.2255   27.8099 C   0  0  0  0  0  0  0  0  0  0  0  0
    9.4063  -16.3595   26.8066 C   0  0  2  0  0  0  0  0  0  0  0  0
    9.3487  -15.7006   25.4945 N   0  0  0  0  0  0  0  0  0  0  0  0
    8.3118  -17.3069   26.9997 C   0  0  0  0  0  0  0  0  0  0  0  0
    7.2052  -17.1628   26.4286 O   0  0  0  0  0  0  0  0  0  0  0  0
    8.4514  -18.4106   27.8262 O   0  0  0  0  0  0  0  0  0  0  0  0
  2  1  1  6
  2  4  1  0
  3  2  1  0
  4  5  1  6
  4  6  1  0
  6 12  1  0
  7  6  2  0
  9  8  1  1
  9 10  1  0
 11 13  1  0
 11  9  1  0
 11 12  1  6
 13 14  2  0
 16 15  1  1
 16 17  1  0
 18 16  1  0
 19 18  1  1
 20 19  1  0
 20 13  1  0
 21 19  1  0
 22 21  2  0
 23 21  1  0
M  END
$$$$
