VVL.pdb
     RDKit          3D

 23 22  0  0  1  0  0  0  0  0999 V2000
    7.8674  -19.3991   23.6881 C   0  0  0  0  0  0  0  0  0  0  0  0
    6.6832  -18.8996   22.9269 C   0  0  2  0  0  0  0  0  0  0  0  0
    5.6339  -20.0089   22.9204 C   0  0  0  0  0  0  0  0  0  0  0  0
    6.9509  -18.5516   21.4967 C   0  0  2  0  0  0  0  0  0  0  0  0
    7.5100  -19.6594   20.7640 N   0  0  0  0  0  0  0  0  0  0  0  0
    7.8793  -17.3870   21.3621 C   0  0  0  0  0  0  0  0  0  0  0  0
    9.0702  -17.6869   21.1663 O   0  0  0  0  0  0  0  0  0  0  0  0
    7.9425  -12.3574   21.3658 C   0  0  0  0  0  0  0  0  0  0  0  0
    7.1540  -13.6744   21.2535 C   0  0  1  0  0  0  0  0  0  0  0  0
    6.9658  -13.7728   19.7081 C   0  0  0  0  0  0  0  0  0  0  0  0
    8.1421  -14.8212   21.5672 C   0  0  2  0  0  0  0  0  0  0  0  0
    7.4092  -16.0999   21.4544 N   0  0  0  0  0  0  0  0  0  0  0  0
    8.6470  -14.7674   22.9523 C   0  0  0  0  0  0  0  0  0  0  0  0
    9.9086  -14.6265   23.1689 O   0  0  0  0  0  0  0  0  0  0  0  0
    5.9878  -12.0233   26.4584 C   0  0  0  0  0  0  0  0  0  0  0  0
    7.1935  -12.6494   25.8068 C   0  0  1  0  0  0  0  0  0  0  0  0
    8.3855  -11.7718   26.1979 C   0  0  0  0  0  0  0  0  0  0  0  0
    7.4842  -14.0230   26.3086 C   0  0  0  0  0  0  0  0  0  0  0  0
    8.4741  -14.8005   25.4669 C   0  0  2  0  0  0  0  0  0  0  0  0
    7.8714  -14.8510   24.1277 N   0  0  0  0  0  0  0  0  0  0  0  0
    8.7780  -16.1303   25.9885 C   0  0  0  0  0  0  0  0  0  0  0  0
    9.3437  -16.2919   27.0955 O   0  0  0  0  0  0  0  0  0  0  0  0
    8.4519  -17.2749   25.2784 O   0  0  0  0  0  0  0  0  0  0  0  0
  2  1  1  6
  2  4  1  0
  3  2  1  0
  4  5  1  6
  4  6  1  0
  6 12  1  0
  7  6  2  0
  9  8  1  6
  9 10  1  0
 11 13  1  0
 11  9  1  0
 11 12  1  1
 13 14  2  0
 16 15  1  1
 16 17  1  0
 18 16  1  0
 19 18  1  1
 20 19  1  0
 20 13  1  0
 21 19  1  0
 22 21  2  0
 23 21  1  0
M  END
$$$$
