SAH.pdb
     RDKit          3D

 22 22  0  0  1  0  0  0  0  0999 V2000
   20.5012  -13.3854  -19.4151 O   0  0  0  0  0  0  0  0  0  0  0  0
   20.7044  -12.4827  -18.3841 C   0  0  0  0  0  0  0  0  0  0  0  0
   21.9537  -11.6794  -18.6715 C   0  0  2  0  0  0  0  0  0  0  0  0
   23.1446  -12.4854  -18.5275 N   0  0  0  0  0  0  0  0  0  0  0  0
   21.9523  -10.5261  -17.7321 C   0  0  0  0  0  0  0  0  0  0  0  0
   22.4001  -10.7366  -16.5740 O   0  0  0  0  0  0  0  0  0  0  0  0
   21.1583   -6.8759  -17.8875 C   0  0  0  0  0  0  0  0  0  0  0  0
   21.5272   -8.1614  -17.1334 C   0  0  2  0  0  0  0  0  0  0  0  0
   21.4765   -9.2343  -18.0887 N   0  0  0  0  0  0  0  0  0  0  0  0
   20.4981   -8.3057  -16.0698 C   0  0  0  0  0  0  0  0  0  0  0  0
   19.4939   -9.0183  -16.3193 O   0  0  0  0  0  0  0  0  0  0  0  0
   20.5861   -7.6926  -14.8080 N   0  0  0  0  0  0  0  0  0  0  0  0
   19.5385   -7.7562  -13.7831 C   0  0  1  0  0  0  0  0  0  0  0  0
   20.1542   -7.8736  -12.4119 C   0  0  0  0  0  0  0  0  0  0  0  0
   19.0885   -7.8066  -11.3944 C   0  0  0  0  0  0  0  0  0  0  0  0
   18.2810   -8.8673  -10.9786 C   0  0  0  0  0  0  0  0  0  0  0  0
   17.4250   -8.4410  -10.0423 N   0  0  0  0  0  0  0  0  0  0  0  0
   17.6672   -7.1382   -9.8523 C   0  0  0  0  0  0  0  0  0  0  0  0
   18.6833   -6.7597  -10.6810 N   0  0  0  0  0  0  0  0  0  0  0  0
   18.8358   -6.4552  -13.8724 C   0  0  0  0  0  0  0  0  0  0  0  0
   17.5017   -6.2731  -13.5273 O   0  0  0  0  0  0  0  0  0  0  0  0
   19.4618   -5.4553  -14.2786 O   0  0  0  0  0  0  0  0  0  0  0  0
  2  1  1  0
  3  4  1  1
  3  2  1  0
  5  3  1  0
  5  6  2  0
  8  7  1  6
  8  9  1  0
  8 10  1  0
  9  5  1  0
 10 12  1  0
 11 10  2  0
 12 13  1  0
 13 20  1  0
 14 15  1  0
 13 14  1  1
 15 16  2  0
 17 16  1  0
 18 17  1  0
 19 18  2  0
 19 15  1  0
 20 22  2  0
 20 21  1  0
M  END
$$$$
