SAH.pdb
     RDKit          3D

 22 22  0  0  1  0  0  0  0  0999 V2000
   25.0450   -9.4432  -15.4529 O   0  0  0  0  0  0  0  0  0  0  0  0
   24.3666  -10.4133  -14.7333 C   0  0  0  0  0  0  0  0  0  0  0  0
   23.4357  -11.1573  -15.6653 C   0  0  2  0  0  0  0  0  0  0  0  0
   24.1018  -11.5256  -16.8938 N   0  0  0  0  0  0  0  0  0  0  0  0
   22.2712  -10.2664  -15.9159 C   0  0  0  0  0  0  0  0  0  0  0  0
   22.3420   -9.5080  -16.9188 O   0  0  0  0  0  0  0  0  0  0  0  0
   18.8691   -9.7328  -14.4620 C   0  0  0  0  0  0  0  0  0  0  0  0
   20.0344   -9.3471  -15.3842 C   0  0  2  0  0  0  0  0  0  0  0  0
   21.1170  -10.2443  -15.0854 N   0  0  0  0  0  0  0  0  0  0  0  0
   20.3608   -7.9374  -15.0413 C   0  0  0  0  0  0  0  0  0  0  0  0
   21.5564   -7.6621  -14.7710 O   0  0  0  0  0  0  0  0  0  0  0  0
   19.4110   -6.9019  -15.0031 N   0  0  0  0  0  0  0  0  0  0  0  0
   19.7418   -5.4826  -14.8360 C   0  0  1  0  0  0  0  0  0  0  0  0
   20.5709   -4.9980  -15.9982 C   0  0  0  0  0  0  0  0  0  0  0  0
   20.8632   -3.5632  -15.8206 C   0  0  0  0  0  0  0  0  0  0  0  0
   21.7505   -3.0136  -14.8929 C   0  0  0  0  0  0  0  0  0  0  0  0
   21.7622   -1.6811  -15.0160 N   0  0  0  0  0  0  0  0  0  0  0  0
   20.9062   -1.3696  -15.9970 C   0  0  0  0  0  0  0  0  0  0  0  0
   20.3625   -2.5235  -16.4820 N   0  0  0  0  0  0  0  0  0  0  0  0
   18.4382   -4.7796  -14.8638 C   0  0  0  0  0  0  0  0  0  0  0  0
   18.1129   -3.7226  -14.0217 O   0  0  0  0  0  0  0  0  0  0  0  0
   17.5710   -5.1439  -15.6835 O   0  0  0  0  0  0  0  0  0  0  0  0
  2  1  1  0
  3  4  1  6
  3  2  1  0
  5  3  1  0
  5  6  2  0
  8  7  1  1
  8  9  1  0
  8 10  1  0
  9  5  1  0
 10 12  1  0
 11 10  2  0
 12 13  1  0
 13 20  1  0
 14 15  1  0
 13 14  1  6
 15 16  2  0
 17 16  1  0
 18 17  1  0
 19 18  2  0
 19 15  1  0
 20 22  2  0
 20 21  1  0
M  END
$$$$
