SAH.pdb
     RDKit          3D

 22 22  0  0  1  0  0  0  0  0999 V2000
   18.7603  -11.3950  -19.3724 O   0  0  0  0  0  0  0  0  0  0  0  0
   19.7856  -11.2182  -18.4578 C   0  0  0  0  0  0  0  0  0  0  0  0
   19.6429  -12.2422  -17.3534 C   0  0  2  0  0  0  0  0  0  0  0  0
   18.2557  -12.5658  -17.1093 N   0  0  0  0  0  0  0  0  0  0  0  0
   20.2956  -11.6698  -16.1455 C   0  0  0  0  0  0  0  0  0  0  0  0
   19.5346  -11.2483  -15.2349 O   0  0  0  0  0  0  0  0  0  0  0  0
   23.7525  -11.3156  -14.7887 C   0  0  0  0  0  0  0  0  0  0  0  0
   22.2656  -10.9358  -14.8373 C   0  0  2  0  0  0  0  0  0  0  0  0
   21.7068  -11.5860  -15.9911 N   0  0  0  0  0  0  0  0  0  0  0  0
   22.2392   -9.4540  -14.9585 C   0  0  0  0  0  0  0  0  0  0  0  0
   22.6444   -8.7789  -13.9795 O   0  0  0  0  0  0  0  0  0  0  0  0
   21.7886   -8.7707  -16.1013 N   0  0  0  0  0  0  0  0  0  0  0  0
   21.6738   -7.3116  -16.2005 C   0  0  1  0  0  0  0  0  0  0  0  0
   21.3026   -6.9101  -17.6054 C   0  0  0  0  0  0  0  0  0  0  0  0
   21.2096   -5.4400  -17.6811 C   0  0  0  0  0  0  0  0  0  0  0  0
   21.9893   -4.5289  -16.9655 C   0  0  0  0  0  0  0  0  0  0  0  0
   21.6297   -3.2802  -17.2853 N   0  0  0  0  0  0  0  0  0  0  0  0
   20.6426   -3.3736  -18.1847 C   0  0  0  0  0  0  0  0  0  0  0  0
   20.3929   -4.6945  -18.4202 N   0  0  0  0  0  0  0  0  0  0  0  0
   20.5546   -6.9534  -15.2986 C   0  0  0  0  0  0  0  0  0  0  0  0
   20.6128   -5.9227  -14.3678 O   0  0  0  0  0  0  0  0  0  0  0  0
   19.4917   -7.6033  -15.3646 O   0  0  0  0  0  0  0  0  0  0  0  0
  2  1  1  0
  3  4  1  1
  3  2  1  0
  5  3  1  0
  5  6  2  0
  8  7  1  6
  8  9  1  0
  8 10  1  0
  9  5  1  0
 10 12  1  0
 11 10  2  0
 12 13  1  0
 13 20  1  0
 14 15  1  0
 13 14  1  6
 15 16  2  0
 17 16  1  0
 18 17  1  0
 19 18  2  0
 19 15  1  0
 20 22  2  0
 20 21  1  0
M  END
$$$$
