SAH.pdb
     RDKit          3D

 22 22  0  0  1  0  0  0  0  0999 V2000
   15.8014  -25.3604   -5.2480 O   0  0  0  0  0  0  0  0  0  0  0  0
   16.4856  -26.3789   -5.8913 C   0  0  0  0  0  0  0  0  0  0  0  0
   17.9098  -25.9344   -6.1414 C   0  0  2  0  0  0  0  0  0  0  0  0
   18.4871  -25.3248   -4.9650 N   0  0  0  0  0  0  0  0  0  0  0  0
   17.8730  -24.9895   -7.2896 C   0  0  0  0  0  0  0  0  0  0  0  0
   17.5731  -23.7939   -7.0315 O   0  0  0  0  0  0  0  0  0  0  0  0
   18.4909  -25.1377  -10.9793 C   0  0  0  0  0  0  0  0  0  0  0  0
   18.0632  -24.4192   -9.6916 C   0  0  2  0  0  0  0  0  0  0  0  0
   18.1566  -25.3806   -8.6270 N   0  0  0  0  0  0  0  0  0  0  0  0
   16.6633  -23.9783   -9.9305 C   0  0  0  0  0  0  0  0  0  0  0  0
   15.7382  -24.6822   -9.4541 O   0  0  0  0  0  0  0  0  0  0  0  0
   16.3199  -22.8242  -10.6557 N   0  0  0  0  0  0  0  0  0  0  0  0
   14.9464  -22.3455  -10.8456 C   0  0  1  0  0  0  0  0  0  0  0  0
   14.8372  -20.8961  -10.4453 C   0  0  0  0  0  0  0  0  0  0  0  0
   15.7118  -20.0858  -11.3138 C   0  0  0  0  0  0  0  0  0  0  0  0
   17.1046  -20.0153  -11.2418 C   0  0  0  0  0  0  0  0  0  0  0  0
   17.5623  -19.1825  -12.1839 N   0  0  0  0  0  0  0  0  0  0  0  0
   16.4978  -18.7221  -12.8524 C   0  0  0  0  0  0  0  0  0  0  0  0
   15.3733  -19.2783  -12.3150 N   0  0  0  0  0  0  0  0  0  0  0  0
   14.7025  -22.4496  -12.3030 C   0  0  0  0  0  0  0  0  0  0  0  0
   15.6688  -22.8439  -13.2212 O   0  0  0  0  0  0  0  0  0  0  0  0
   13.5711  -22.1714  -12.7493 O   0  0  0  0  0  0  0  0  0  0  0  0
  2  1  1  0
  3  4  1  1
  3  2  1  0
  5  3  1  0
  5  6  2  0
  8  7  1  6
  8  9  1  0
  8 10  1  0
  9  5  1  0
 10 12  1  0
 11 10  2  0
 12 13  1  0
 13 20  1  0
 14 15  1  0
 13 14  1  6
 15 16  2  0
 17 16  1  0
 18 17  1  0
 19 18  2  0
 19 15  1  0
 20 22  2  0
 20 21  1  0
M  END
$$$$
