SAH.pdb
     RDKit          3D

 22 22  0  0  1  0  0  0  0  0999 V2000
   21.0885  -12.6247  -20.0098 O   0  0  0  0  0  0  0  0  0  0  0  0
   20.6282  -11.8277  -18.9745 C   0  0  0  0  0  0  0  0  0  0  0  0
   20.8182  -12.5618  -17.6655 C   0  0  2  0  0  0  0  0  0  0  0  0
   19.6152  -13.2591  -17.2717 N   0  0  0  0  0  0  0  0  0  0  0  0
   21.2225  -11.5476  -16.6553 C   0  0  0  0  0  0  0  0  0  0  0  0
   20.3248  -10.7654  -16.2452 O   0  0  0  0  0  0  0  0  0  0  0  0
   24.3332  -10.6403  -14.7807 C   0  0  0  0  0  0  0  0  0  0  0  0
   22.8658  -10.4281  -15.1797 C   0  0  2  0  0  0  0  0  0  0  0  0
   22.5486  -11.4366  -16.1536 N   0  0  0  0  0  0  0  0  0  0  0  0
   22.8050   -9.0561  -15.7499 C   0  0  0  0  0  0  0  0  0  0  0  0
   23.1460   -8.9048  -16.9495 O   0  0  0  0  0  0  0  0  0  0  0  0
   22.3895   -7.9257  -15.0251 N   0  0  0  0  0  0  0  0  0  0  0  0
   22.2644   -6.5792  -15.5936 C   0  0  1  0  0  0  0  0  0  0  0  0
   20.8400   -6.3184  -16.0130 C   0  0  0  0  0  0  0  0  0  0  0  0
   20.7362   -4.9497  -16.5529 C   0  0  0  0  0  0  0  0  0  0  0  0
   21.1664   -4.5280  -17.8128 C   0  0  0  0  0  0  0  0  0  0  0  0
   20.9126   -3.2225  -17.9613 N   0  0  0  0  0  0  0  0  0  0  0  0
   20.3328   -2.8036  -16.8298 C   0  0  0  0  0  0  0  0  0  0  0  0
   20.2292   -3.8636  -15.9764 N   0  0  0  0  0  0  0  0  0  0  0  0
   22.6019   -5.6610  -14.4813 C   0  0  0  0  0  0  0  0  0  0  0  0
   23.1110   -4.3806  -14.6647 O   0  0  0  0  0  0  0  0  0  0  0  0
   22.4256   -6.0421  -13.3064 O   0  0  0  0  0  0  0  0  0  0  0  0
  2  1  1  0
  3  4  1  1
  3  2  1  0
  5  3  1  0
  5  6  2  0
  8  7  1  6
  8  9  1  0
  8 10  1  0
  9  5  1  0
 10 12  1  0
 11 10  2  0
 12 13  1  0
 13 20  1  0
 14 15  1  0
 13 14  1  1
 15 16  2  0
 17 16  1  0
 18 17  1  0
 19 18  2  0
 19 15  1  0
 20 22  2  0
 20 21  1  0
M  END
$$$$
