SAH.pdb
     RDKit          3D

 22 22  0  0  1  0  0  0  0  0999 V2000
   24.8379  -22.4684  -14.9944 O   0  0  0  0  0  0  0  0  0  0  0  0
   26.1639  -22.0806  -14.8933 C   0  0  0  0  0  0  0  0  0  0  0  0
   26.3220  -21.1740  -13.6925 C   0  0  2  0  0  0  0  0  0  0  0  0
   25.8991  -21.8302  -12.4762 N   0  0  0  0  0  0  0  0  0  0  0  0
   25.5211  -19.9507  -13.9654 C   0  0  0  0  0  0  0  0  0  0  0  0
   24.3692  -19.9014  -13.4586 O   0  0  0  0  0  0  0  0  0  0  0  0
   26.0462  -16.6736  -15.6938 C   0  0  0  0  0  0  0  0  0  0  0  0
   25.1923  -17.6919  -14.9249 C   0  0  2  0  0  0  0  0  0  0  0  0
   25.9993  -18.8692  -14.7553 N   0  0  0  0  0  0  0  0  0  0  0  0
   24.0051  -17.9424  -15.7846 C   0  0  0  0  0  0  0  0  0  0  0  0
   24.0761  -18.8742  -16.6242 O   0  0  0  0  0  0  0  0  0  0  0  0
   22.8147  -17.1985  -15.7102 N   0  0  0  0  0  0  0  0  0  0  0  0
   21.6242  -17.4601  -16.5263 C   0  0  1  0  0  0  0  0  0  0  0  0
   20.3739  -17.1558  -15.7406 C   0  0  0  0  0  0  0  0  0  0  0  0
   20.1052  -18.2661  -14.8075 C   0  0  0  0  0  0  0  0  0  0  0  0
   20.2727  -19.6259  -15.0776 C   0  0  0  0  0  0  0  0  0  0  0  0
   19.9326  -20.3439  -14.0008 N   0  0  0  0  0  0  0  0  0  0  0  0
   19.5536  -19.4768  -13.0540 C   0  0  0  0  0  0  0  0  0  0  0  0
   19.6620  -18.2118  -13.5546 N   0  0  0  0  0  0  0  0  0  0  0  0
   21.7147  -16.5033  -17.6535 C   0  0  0  0  0  0  0  0  0  0  0  0
   21.0302  -16.6571  -18.8535 O   0  0  0  0  0  0  0  0  0  0  0  0
   22.4423  -15.4965  -17.5365 O   0  0  0  0  0  0  0  0  0  0  0  0
  2  1  1  0
  3  4  1  1
  3  2  1  0
  5  3  1  0
  5  6  2  0
  8  7  1  6
  8  9  1  0
  8 10  1  0
  9  5  1  0
 10 12  1  0
 11 10  2  0
 12 13  1  0
 13 20  1  0
 14 15  1  0
 13 14  1  1
 15 16  2  0
 17 16  1  0
 18 17  1  0
 19 18  2  0
 19 15  1  0
 20 22  2  0
 20 21  1  0
M  END
$$$$
