IFV.pdb
     RDKit          3D

 27 27  0  0  1  0  0  0  0  0999 V2000
    8.7526  -20.6030   18.7695 C   0  0  0  0  0  0  0  0  0  0  0  0
    8.5936  -19.1084   18.7282 C   0  0  0  0  0  0  0  0  0  0  0  0
    8.9283  -18.4204   20.0152 C   0  0  2  0  0  0  0  0  0  0  0  0
    8.1569  -18.9757   21.1903 C   0  0  0  0  0  0  0  0  0  0  0  0
    8.6209  -16.9503   19.9118 C   0  0  2  0  0  0  0  0  0  0  0  0
    9.4028  -16.3994   18.8253 N   0  0  0  0  0  0  0  0  0  0  0  0
    8.8991  -16.2062   21.1371 C   0  0  0  0  0  0  0  0  0  0  0  0
   10.0879  -15.9513   21.4501 O   0  0  0  0  0  0  0  0  0  0  0  0
    7.8928  -15.7363   22.0260 N   0  0  0  0  0  0  0  0  0  0  0  0
    8.2181  -15.0354   23.2434 C   0  0  1  0  0  0  0  0  0  0  0  0
    7.0008  -14.2137   23.6088 C   0  0  0  0  0  0  0  0  0  0  0  0
    7.1602  -13.5173   24.8938 C   0  0  0  0  0  0  0  0  0  0  0  0
    6.4740  -13.9699   25.9978 C   0  0  0  0  0  0  0  0  0  0  0  0
    6.6388  -13.3055   27.1885 C   0  0  0  0  0  0  0  0  0  0  0  0
    7.4803  -12.2043   27.2644 C   0  0  0  0  0  0  0  0  0  0  0  0
    8.1649  -11.7621   26.1381 C   0  0  0  0  0  0  0  0  0  0  0  0
    8.0091  -12.4196   24.9357 C   0  0  0  0  0  0  0  0  0  0  0  0
    8.5871  -15.9865   24.3112 C   0  0  0  0  0  0  0  0  0  0  0  0
    7.8034  -16.9321   24.5844 O   0  0  0  0  0  0  0  0  0  0  0  0
   12.2123  -18.4060   26.5322 C   0  0  0  0  0  0  0  0  0  0  0  0
   11.6962  -17.3146   25.6093 C   0  0  1  0  0  0  0  0  0  0  0  0
   11.8682  -17.7819   24.2016 C   0  0  0  0  0  0  0  0  0  0  0  0
   10.2697  -16.9432   25.9405 C   0  0  2  0  0  0  0  0  0  0  0  0
    9.7813  -15.9037   25.0579 N   0  0  0  0  0  0  0  0  0  0  0  0
   10.0747  -16.6312   27.3560 C   0  0  0  0  0  0  0  0  0  0  0  0
    9.7018  -17.5747   28.3248 O   0  0  0  0  0  0  0  0  0  0  0  0
   10.2404  -15.4578   27.7767 O   0  0  0  0  0  0  0  0  0  0  0  0
  1  2  1  0
  3  5  1  0
  3  2  1  0
  3  4  1  1
  5  6  1  6
  7  8  2  0
  7  5  1  0
  9  7  1  0
 10  9  1  0
 10 11  1  1
 11 12  1  0
 12 17  2  0
 12 13  1  0
 13 14  2  0
 14 15  1  0
 16 15  2  0
 17 16  1  0
 18 19  2  0
 18 10  1  0
 21 20  1  1
 22 21  1  0
 23 21  1  0
 23 24  1  6
 24 18  1  0
 25 23  1  0
 26 25  1  0
 27 25  2  0
M  END
$$$$
