IFV.pdb
     RDKit          3D

 27 27  0  0  1  0  0  0  0  0999 V2000
    8.8341  -18.4650   17.7842 C   0  0  0  0  0  0  0  0  0  0  0  0
    8.4821  -17.1869   18.4934 C   0  0  0  0  0  0  0  0  0  0  0  0
    8.8719  -17.1601   19.9388 C   0  0  2  0  0  0  0  0  0  0  0  0
    8.3311  -18.3423   20.7098 C   0  0  0  0  0  0  0  0  0  0  0  0
    8.3557  -15.9056   20.5913 C   0  0  2  0  0  0  0  0  0  0  0  0
    8.8864  -14.7684   19.8699 N   0  0  0  0  0  0  0  0  0  0  0  0
    8.7080  -15.7927   22.0040 C   0  0  0  0  0  0  0  0  0  0  0  0
    9.8788  -15.4741   22.3264 O   0  0  0  0  0  0  0  0  0  0  0  0
    7.7955  -16.0238   23.0704 N   0  0  0  0  0  0  0  0  0  0  0  0
    8.1980  -15.9298   24.4518 C   0  0  1  0  0  0  0  0  0  0  0  0
    6.9746  -15.4982   25.2313 C   0  0  0  0  0  0  0  0  0  0  0  0
    7.0852  -14.1192   25.7290 C   0  0  0  0  0  0  0  0  0  0  0  0
    8.1543  -13.7706   26.5227 C   0  0  0  0  0  0  0  0  0  0  0  0
    8.2388  -12.4766   26.9754 C   0  0  0  0  0  0  0  0  0  0  0  0
    7.2626  -11.5509   26.6338 C   0  0  0  0  0  0  0  0  0  0  0  0
    6.1901  -11.9222   25.8309 C   0  0  0  0  0  0  0  0  0  0  0  0
    6.0923  -13.2182   25.3691 C   0  0  0  0  0  0  0  0  0  0  0  0
    8.7336  -17.2208   24.9289 C   0  0  0  0  0  0  0  0  0  0  0  0
    8.6636  -18.2266   24.1762 O   0  0  0  0  0  0  0  0  0  0  0  0
   12.7378  -18.9941   25.7568 C   0  0  0  0  0  0  0  0  0  0  0  0
   11.6012  -18.0097   25.5370 C   0  0  1  0  0  0  0  0  0  0  0  0
   11.2290  -18.0506   24.0916 C   0  0  0  0  0  0  0  0  0  0  0  0
   10.4380  -18.2981   26.4570 C   0  0  2  0  0  0  0  0  0  0  0  0
    9.3291  -17.4039   26.1947 N   0  0  0  0  0  0  0  0  0  0  0  0
   10.8216  -18.3365   27.8678 C   0  0  0  0  0  0  0  0  0  0  0  0
   11.1569  -19.5099   28.5597 O   0  0  0  0  0  0  0  0  0  0  0  0
   10.8677  -17.2765   28.5429 O   0  0  0  0  0  0  0  0  0  0  0  0
  1  2  1  0
  3  5  1  0
  3  2  1  0
  3  4  1  1
  5  6  1  6
  7  8  2  0
  7  5  1  0
  9  7  1  0
 10  9  1  0
 10 11  1  1
 11 12  1  0
 12 17  2  0
 12 13  1  0
 13 14  2  0
 14 15  1  0
 16 15  2  0
 17 16  1  0
 18 19  2  0
 18 10  1  0
 21 20  1  6
 22 21  1  0
 23 21  1  0
 23 24  1  1
 24 18  1  0
 25 23  1  0
 26 25  1  0
 27 25  2  0
M  END
$$$$
