IFV.pdb
     RDKit          3D

 27 27  0  0  1  0  0  0  0  0999 V2000
    8.4364  -19.4557   17.6697 C   0  0  0  0  0  0  0  0  0  0  0  0
    7.9193  -18.0828   17.9989 C   0  0  0  0  0  0  0  0  0  0  0  0
    8.4247  -17.5319   19.2962 C   0  0  2  0  0  0  0  0  0  0  0  0
    8.1038  -18.4249   20.4726 C   0  0  0  0  0  0  0  0  0  0  0  0
    7.8133  -16.1816   19.5588 C   0  0  2  0  0  0  0  0  0  0  0  0
    8.1756  -15.3005   18.4689 N   0  0  0  0  0  0  0  0  0  0  0  0
    8.2308  -15.5859   20.8251 C   0  0  0  0  0  0  0  0  0  0  0  0
    9.4128  -15.1847   20.9604 O   0  0  0  0  0  0  0  0  0  0  0  0
    7.3716  -15.4226   21.9468 N   0  0  0  0  0  0  0  0  0  0  0  0
    7.8359  -14.8486   23.1854 C   0  0  1  0  0  0  0  0  0  0  0  0
    6.6110  -14.3363   23.9117 C   0  0  0  0  0  0  0  0  0  0  0  0
    6.9437  -13.7157   25.2024 C   0  0  0  0  0  0  0  0  0  0  0  0
    7.0329  -12.3450   25.2905 C   0  0  0  0  0  0  0  0  0  0  0  0
    7.3434  -11.7862   26.5061 C   0  0  0  0  0  0  0  0  0  0  0  0
    7.5601  -12.5952   27.6129 C   0  0  0  0  0  0  0  0  0  0  0  0
    7.4655  -13.9779   27.5040 C   0  0  0  0  0  0  0  0  0  0  0  0
    7.1545  -14.5530   26.2895 C   0  0  0  0  0  0  0  0  0  0  0  0
    8.5749  -15.8500   23.9806 C   0  0  0  0  0  0  0  0  0  0  0  0
    8.0491  -16.9742   24.1877 O   0  0  0  0  0  0  0  0  0  0  0  0
   12.9129  -17.7193   25.3087 C   0  0  0  0  0  0  0  0  0  0  0  0
   12.0666  -16.6523   24.6345 C   0  0  1  0  0  0  0  0  0  0  0  0
   12.1237  -16.8821   23.1603 C   0  0  0  0  0  0  0  0  0  0  0  0
   10.6573  -16.6428   25.1788 C   0  0  2  0  0  0  0  0  0  0  0  0
    9.8536  -15.6257   24.5326 N   0  0  0  0  0  0  0  0  0  0  0  0
   10.6094  -16.5691   26.6387 C   0  0  0  0  0  0  0  0  0  0  0  0
   10.5594  -17.6896   27.4812 O   0  0  0  0  0  0  0  0  0  0  0  0
   10.6111  -15.4534   27.2190 O   0  0  0  0  0  0  0  0  0  0  0  0
  1  2  1  0
  3  5  1  0
  3  2  1  0
  3  4  1  1
  5  6  1  6
  7  8  2  0
  7  5  1  0
  9  7  1  0
 10  9  1  0
 10 11  1  1
 11 12  1  0
 12 17  2  0
 12 13  1  0
 13 14  2  0
 14 15  1  0
 16 15  2  0
 17 16  1  0
 18 19  2  0
 18 10  1  0
 21 20  1  1
 22 21  1  0
 23 21  1  0
 23 24  1  6
 24 18  1  0
 25 23  1  0
 26 25  1  0
 27 25  2  0
M  END
$$$$
