RWD.pdb
     RDKit          3D

 34 35  0  0  1  0  0  0  0  0999 V2000
   18.2159  -16.6277   16.2073 N   0  0  0  0  0  0  0  0  0  0  0  0
   17.3801  -16.3561   15.1018 C   0  0  0  0  0  0  0  0  0  0  0  0
   17.7822  -16.4293   13.8753 N   0  0  0  0  0  0  0  0  0  0  0  0
   16.0201  -15.9813   15.4001 N   0  0  0  0  0  0  0  0  0  0  0  0
   15.6032  -15.8934   16.7904 C   0  0  0  0  0  0  0  0  0  0  0  0
   14.1415  -15.4928   16.8025 C   0  0  0  0  0  0  0  0  0  0  0  0
   13.6536  -15.2191   18.2059 C   0  0  0  0  0  0  0  0  0  0  0  0
   12.2866  -15.8582   18.3703 C   0  0  2  0  0  0  0  0  0  0  0  0
   11.3595  -15.3531   17.3646 N   0  0  0  0  0  0  0  0  0  0  0  0
   11.7018  -15.5578   19.6973 C   0  0  0  0  0  0  0  0  0  0  0  0
   11.8277  -14.4184   20.1809 O   0  0  0  0  0  0  0  0  0  0  0  0
   17.1424  -16.1703   13.1135 N   0  0  0  0  0  0  0  0  0  0  0  0
   10.9815  -16.5246   20.4818 C   0  0  1  0  0  0  0  0  0  0  0  0
   10.3704  -16.2192   21.7293 C   0  0  0  0  0  0  0  0  0  0  0  0
    8.8732  -16.3457   21.6671 C   0  0  0  0  0  0  0  0  0  0  0  0
    8.3320  -15.4950   20.5820 C   0  0  0  0  0  0  0  0  0  0  0  0
    7.8748  -15.9864   19.3485 N   0  0  0  0  0  0  0  0  0  0  0  0
    7.4348  -14.9268   18.6711 C   0  0  0  0  0  0  0  0  0  0  0  0
    7.5857  -13.8075   19.3952 C   0  0  0  0  0  0  0  0  0  0  0  0
    7.2726  -12.5007   19.0841 C   0  0  0  0  0  0  0  0  0  0  0  0
    7.5372  -11.5248   20.0102 C   0  0  0  0  0  0  0  0  0  0  0  0
    8.1023  -11.8315   21.2254 C   0  0  0  0  0  0  0  0  0  0  0  0
    8.4167  -13.1272   21.5435 C   0  0  0  0  0  0  0  0  0  0  0  0
    8.1598  -14.1245   20.6319 C   0  0  0  0  0  0  0  0  0  0  0  0
   10.9616  -17.0103   22.8609 O   0  0  0  0  0  0  0  0  0  0  0  0
   10.5763  -16.8171   24.0404 N   0  0  0  0  0  0  0  0  0  0  0  0
   11.9629  -17.9862   22.6207 C   0  0  2  0  0  0  0  0  0  0  0  0
   13.2280  -17.9252   23.3828 C   0  0  0  0  0  0  0  0  0  0  0  0
   14.0197  -16.7274   22.9940 C   0  0  0  0  0  0  0  0  0  0  0  0
   15.2840  -16.6762   23.7549 O   0  0  0  0  0  0  0  0  0  0  0  0
   15.8156  -17.7931   24.0880 C   0  0  0  0  0  0  0  0  0  0  0  0
   12.8271  -17.9335   24.8142 O   0  0  0  0  0  0  0  0  0  0  0  0
   12.0241  -17.0899   25.2466 O   0  0  0  0  0  0  0  0  0  0  0  0
   15.9530  -15.5469   24.1488 O   0  0  0  0  0  0  0  0  0  0  0  0
  1  2  1  0
  2  4  1  0
  3  2  2  0
  4  5  1  0
  5  6  1  0
  7  6  1  0
  7  8  1  0
  8  9  1  6
 10 11  2  0
 10  8  1  0
 12 10  1  0
 13 12  1  0
 13 24  1  0
 13 14  1  1
 15 14  1  0
 16 15  2  0
 17 18  1  0
 17 16  1  0
 18 23  2  0
 19 20  2  0
 19 18  1  0
 20 21  1  0
 21 22  2  0
 23 15  1  0
 23 22  1  0
 24 26  1  0
 25 24  2  0
 26 27  1  0
 27 31  1  0
 28 29  1  0
 27 28  1  6
 29 30  2  0
 31 32  2  0
 31 34  1  0
 33 29  1  0
M  END
$$$$
