RWD.pdb
     RDKit          3D

 34 35  0  0  1  0  0  0  0  0999 V2000
    9.6113  -13.4352   16.9187 N   0  0  0  0  0  0  0  0  0  0  0  0
    8.2521  -13.6098   16.5772 C   0  0  0  0  0  0  0  0  0  0  0  0
    7.8507  -13.8574   15.3735 N   0  0  0  0  0  0  0  0  0  0  0  0
    7.2987  -13.4972   17.6530 N   0  0  0  0  0  0  0  0  0  0  0  0
    7.7872  -13.3003   19.0084 C   0  0  0  0  0  0  0  0  0  0  0  0
    8.1151  -14.6665   19.5768 C   0  0  0  0  0  0  0  0  0  0  0  0
    8.6522  -14.5663   20.9853 C   0  0  0  0  0  0  0  0  0  0  0  0
    9.0089  -15.9629   21.4617 C   0  0  2  0  0  0  0  0  0  0  0  0
    7.8684  -16.8603   21.3206 N   0  0  0  0  0  0  0  0  0  0  0  0
    9.3973  -15.9673   22.8908 C   0  0  0  0  0  0  0  0  0  0  0  0
   10.4096  -15.3421   23.2546 O   0  0  0  0  0  0  0  0  0  0  0  0
    6.8491  -13.9976   15.1897 N   0  0  0  0  0  0  0  0  0  0  0  0
    8.6607  -16.6673   23.9088 C   0  0  1  0  0  0  0  0  0  0  0  0
    9.0475  -16.6893   25.2773 C   0  0  0  0  0  0  0  0  0  0  0  0
    7.8600  -16.6225   26.1976 C   0  0  0  0  0  0  0  0  0  0  0  0
    7.0450  -15.4230   25.8956 C   0  0  0  0  0  0  0  0  0  0  0  0
    5.7446  -15.4658   25.3675 N   0  0  0  0  0  0  0  0  0  0  0  0
    5.3419  -14.1988   25.2790 C   0  0  0  0  0  0  0  0  0  0  0  0
    6.3005  -13.3673   25.7145 C   0  0  0  0  0  0  0  0  0  0  0  0
    6.3115  -11.9903   25.7941 C   0  0  0  0  0  0  0  0  0  0  0  0
    7.4350  -11.3705   26.2771 C   0  0  0  0  0  0  0  0  0  0  0  0
    8.5324  -12.0963   26.6759 C   0  0  0  0  0  0  0  0  0  0  0  0
    8.5307  -13.4650   26.6006 C   0  0  0  0  0  0  0  0  0  0  0  0
    7.4150  -14.1104   26.1208 C   0  0  0  0  0  0  0  0  0  0  0  0
    9.9488  -17.8480   25.5949 O   0  0  0  0  0  0  0  0  0  0  0  0
    9.4854  -18.8851   26.1307 N   0  0  0  0  0  0  0  0  0  0  0  0
   11.3350  -17.7937   25.2983 C   0  0  1  0  0  0  0  0  0  0  0  0
   12.1646  -19.0002   25.5016 C   0  0  0  0  0  0  0  0  0  0  0  0
   12.4143  -19.6916   24.2085 C   0  0  0  0  0  0  0  0  0  0  0  0
   13.8208  -19.5172   23.7941 O   0  0  0  0  0  0  0  0  0  0  0  0
   14.5962  -18.8869   24.5957 C   0  0  0  0  0  0  0  0  0  0  0  0
   13.4037  -18.5193   26.1673 O   0  0  0  0  0  0  0  0  0  0  0  0
   13.6280  -17.3019   26.2735 O   0  0  0  0  0  0  0  0  0  0  0  0
   14.3879  -19.9609   22.6283 O   0  0  0  0  0  0  0  0  0  0  0  0
  1  2  1  0
  2  4  1  0
  3  2  2  0
  4  5  1  0
  5  6  1  0
  7  6  1  0
  7  8  1  0
  8  9  1  1
 10 11  2  0
 10  8  1  0
 12 10  1  0
 13 12  1  0
 13 24  1  0
 13 14  1  6
 15 14  1  0
 16 15  2  0
 17 18  1  0
 17 16  1  0
 18 23  2  0
 19 20  2  0
 19 18  1  0
 20 21  1  0
 21 22  2  0
 23 15  1  0
 23 22  1  0
 24 26  1  0
 25 24  2  0
 26 27  1  0
 27 31  1  0
 28 29  1  0
 27 28  1  1
 29 30  2  0
 31 32  2  0
 31 34  1  0
 33 29  1  0
M  END
$$$$
