RWD.pdb
     RDKit          3D

 34 35  0  0  1  0  0  0  0  0999 V2000
    7.5669  -13.3202   15.6367 N   0  0  0  0  0  0  0  0  0  0  0  0
    8.5779  -14.1761   16.1262 C   0  0  0  0  0  0  0  0  0  0  0  0
    9.4715  -14.7222   15.3682 N   0  0  0  0  0  0  0  0  0  0  0  0
    8.5765  -14.4275   17.5459 N   0  0  0  0  0  0  0  0  0  0  0  0
    7.4478  -15.1301   18.1350 C   0  0  0  0  0  0  0  0  0  0  0  0
    6.8295  -14.2110   19.1695 C   0  0  0  0  0  0  0  0  0  0  0  0
    7.7448  -14.0167   20.3556 C   0  0  0  0  0  0  0  0  0  0  0  0
    8.2176  -15.3812   20.8236 C   0  0  2  0  0  0  0  0  0  0  0  0
    7.0808  -16.2536   21.0932 N   0  0  0  0  0  0  0  0  0  0  0  0
    9.0037  -15.2846   22.0750 C   0  0  0  0  0  0  0  0  0  0  0  0
    9.9488  -14.4786   22.1466 O   0  0  0  0  0  0  0  0  0  0  0  0
   10.1828  -15.3381   15.7823 N   0  0  0  0  0  0  0  0  0  0  0  0
    8.7378  -16.0848   23.2403 C   0  0  1  0  0  0  0  0  0  0  0  0
    9.5131  -16.0133   24.4306 C   0  0  0  0  0  0  0  0  0  0  0  0
    8.6740  -16.2235   25.6607 C   0  0  0  0  0  0  0  0  0  0  0  0
    7.5746  -15.2319   25.7062 C   0  0  0  0  0  0  0  0  0  0  0  0
    6.2239  -15.5412   25.4789 N   0  0  0  0  0  0  0  0  0  0  0  0
    5.5526  -14.4028   25.6479 C   0  0  0  0  0  0  0  0  0  0  0  0
    6.3899  -13.4035   25.9645 C   0  0  0  0  0  0  0  0  0  0  0  0
    6.1279  -12.0733   26.2185 C   0  0  0  0  0  0  0  0  0  0  0  0
    7.1778  -11.2436   26.5167 C   0  0  0  0  0  0  0  0  0  0  0  0
    8.4678  -11.7170   26.5639 C   0  0  0  0  0  0  0  0  0  0  0  0
    8.7379  -13.0372   26.3131 C   0  0  0  0  0  0  0  0  0  0  0  0
    7.7015  -13.8901   26.0129 C   0  0  0  0  0  0  0  0  0  0  0  0
   10.7027  -16.9292   24.3902 O   0  0  0  0  0  0  0  0  0  0  0  0
   10.5478  -18.1652   24.2302 N   0  0  0  0  0  0  0  0  0  0  0  0
   12.0187  -16.4187   24.5323 C   0  0  2  0  0  0  0  0  0  0  0  0
   13.1689  -17.3342   24.3776 C   0  0  0  0  0  0  0  0  0  0  0  0
   14.4336  -16.5682   24.2157 C   0  0  0  0  0  0  0  0  0  0  0  0
   15.5887  -17.4864   24.1609 O   0  0  0  0  0  0  0  0  0  0  0  0
   16.5077  -17.3284   25.0392 C   0  0  0  0  0  0  0  0  0  0  0  0
   13.1491  -18.2001   25.5857 O   0  0  0  0  0  0  0  0  0  0  0  0
   13.5826  -19.3632   25.5323 O   0  0  0  0  0  0  0  0  0  0  0  0
   15.7836  -18.4979   23.2572 O   0  0  0  0  0  0  0  0  0  0  0  0
  1  2  1  0
  2  4  1  0
  3  2  2  0
  4  5  1  0
  5  6  1  0
  7  6  1  0
  7  8  1  0
  8  9  1  1
 10 11  2  0
 10  8  1  0
 12 10  1  0
 13 12  1  0
 13 24  1  0
 13 14  1  1
 15 14  1  0
 16 15  2  0
 17 18  1  0
 17 16  1  0
 18 23  2  0
 19 20  2  0
 19 18  1  0
 20 21  1  0
 21 22  2  0
 23 15  1  0
 23 22  1  0
 24 26  1  0
 25 24  2  0
 26 27  1  0
 27 31  1  0
 28 29  1  0
 27 28  1  1
 29 30  2  0
 31 32  2  0
 31 34  1  0
 33 29  1  0
M  END
$$$$
