RWD.pdb
     RDKit          3D

 34 35  0  0  1  0  0  0  0  0999 V2000
    8.7934  -15.5630   16.5481 N   0  0  0  0  0  0  0  0  0  0  0  0
    8.2067  -14.3624   16.0913 C   0  0  0  0  0  0  0  0  0  0  0  0
    7.9538  -14.1272   14.8455 N   0  0  0  0  0  0  0  0  0  0  0  0
    7.8916  -13.3773   17.0959 N   0  0  0  0  0  0  0  0  0  0  0  0
    8.4446  -13.5328   18.4318 C   0  0  0  0  0  0  0  0  0  0  0  0
    7.4644  -14.3630   19.2362 C   0  0  0  0  0  0  0  0  0  0  0  0
    7.4861  -13.9835   20.6983 C   0  0  0  0  0  0  0  0  0  0  0  0
    8.3503  -14.9873   21.4402 C   0  0  2  0  0  0  0  0  0  0  0  0
    7.9010  -16.3483   21.1725 N   0  0  0  0  0  0  0  0  0  0  0  0
    8.2847  -14.7832   22.9055 C   0  0  0  0  0  0  0  0  0  0  0  0
    7.1790  -14.6365   23.4569 O   0  0  0  0  0  0  0  0  0  0  0  0
    7.6419  -13.1910   14.5574 N   0  0  0  0  0  0  0  0  0  0  0  0
    9.4473  -14.7412   23.7514 C   0  0  2  0  0  0  0  0  0  0  0  0
    9.6730  -15.6581   24.8151 C   0  0  0  0  0  0  0  0  0  0  0  0
    8.4089  -16.3595   25.2295 C   0  0  0  0  0  0  0  0  0  0  0  0
    7.3559  -15.3690   25.5521 C   0  0  0  0  0  0  0  0  0  0  0  0
    5.9858  -15.6690   25.6211 N   0  0  0  0  0  0  0  0  0  0  0  0
    5.3789  -14.5365   25.9737 C   0  0  0  0  0  0  0  0  0  0  0  0
    6.2743  -13.5496   26.1292 C   0  0  0  0  0  0  0  0  0  0  0  0
    6.0869  -12.2288   26.4799 C   0  0  0  0  0  0  0  0  0  0  0  0
    7.1841  -11.4109   26.5645 C   0  0  0  0  0  0  0  0  0  0  0  0
    8.4480  -11.8869   26.3072 C   0  0  0  0  0  0  0  0  0  0  0  0
    8.6441  -13.1979   25.9582 C   0  0  0  0  0  0  0  0  0  0  0  0
    7.5595  -14.0389   25.8678 C   0  0  0  0  0  0  0  0  0  0  0  0
   10.7840  -16.6214   24.5093 O   0  0  0  0  0  0  0  0  0  0  0  0
   11.0730  -17.5359   25.3201 N   0  0  0  0  0  0  0  0  0  0  0  0
   11.5261  -16.5170   23.3047 C   0  0  1  0  0  0  0  0  0  0  0  0
   12.6631  -17.4334   23.0755 C   0  0  0  0  0  0  0  0  0  0  0  0
   13.1421  -17.3371   21.6706 C   0  0  0  0  0  0  0  0  0  0  0  0
   13.6366  -18.6477   21.2038 O   0  0  0  0  0  0  0  0  0  0  0  0
   14.2870  -19.3640   22.0435 C   0  0  0  0  0  0  0  0  0  0  0  0
   13.6886  -17.0489   24.0806 O   0  0  0  0  0  0  0  0  0  0  0  0
   14.2773  -17.9200   24.7424 O   0  0  0  0  0  0  0  0  0  0  0  0
   13.4736  -19.1817   19.9524 O   0  0  0  0  0  0  0  0  0  0  0  0
  1  2  1  0
  2  4  1  0
  3  2  2  0
  4  5  1  0
  5  6  1  0
  7  6  1  0
  7  8  1  0
  8  9  1  1
 10 11  2  0
 10  8  1  0
 12 10  1  0
 13 12  1  0
 13 24  1  0
 13 14  1  1
 15 14  1  0
 16 15  2  0
 17 18  1  0
 17 16  1  0
 18 23  2  0
 19 20  2  0
 19 18  1  0
 20 21  1  0
 21 22  2  0
 23 15  1  0
 23 22  1  0
 24 26  1  0
 25 24  2  0
 26 27  1  0
 27 31  1  0
 28 29  1  0
 27 28  1  1
 29 30  2  0
 31 32  2  0
 31 34  1  0
 33 29  1  0
M  END
$$$$
