RWD.pdb
     RDKit          3D

 34 35  0  0  1  0  0  0  0  0999 V2000
    7.4232  -14.3500   14.1598 N   0  0  0  0  0  0  0  0  0  0  0  0
    7.8283  -13.8609   15.4212 C   0  0  0  0  0  0  0  0  0  0  0  0
    7.1663  -12.9669   16.0799 N   0  0  0  0  0  0  0  0  0  0  0  0
    9.0456  -14.4111   15.9640 N   0  0  0  0  0  0  0  0  0  0  0  0
    9.0700  -15.8097   16.3610 C   0  0  0  0  0  0  0  0  0  0  0  0
    8.8400  -15.8617   17.8582 C   0  0  0  0  0  0  0  0  0  0  0  0
    9.9906  -15.2433   18.6173 C   0  0  0  0  0  0  0  0  0  0  0  0
   10.3928  -16.1918   19.7322 C   0  0  2  0  0  0  0  0  0  0  0  0
    9.6809  -17.4584   19.6104 N   0  0  0  0  0  0  0  0  0  0  0  0
   10.0695  -15.6326   21.0649 C   0  0  0  0  0  0  0  0  0  0  0  0
   10.7029  -14.6492   21.4891 O   0  0  0  0  0  0  0  0  0  0  0  0
    7.5272  -12.6273   16.9806 N   0  0  0  0  0  0  0  0  0  0  0  0
    9.0457  -16.1690   21.9211 C   0  0  1  0  0  0  0  0  0  0  0  0
    8.7885  -15.6807   23.2319 C   0  0  0  0  0  0  0  0  0  0  0  0
    7.3153  -15.6124   23.5266 C   0  0  0  0  0  0  0  0  0  0  0  0
    7.0887  -15.0430   24.8751 C   0  0  0  0  0  0  0  0  0  0  0  0
    6.5613  -15.7655   25.9576 N   0  0  0  0  0  0  0  0  0  0  0  0
    6.5511  -14.9243   26.9908 C   0  0  0  0  0  0  0  0  0  0  0  0
    7.0349  -13.7263   26.6291 C   0  0  0  0  0  0  0  0  0  0  0  0
    7.1985  -12.5749   27.3708 C   0  0  0  0  0  0  0  0  0  0  0  0
    7.7165  -11.4656   26.7536 C   0  0  0  0  0  0  0  0  0  0  0  0
    8.0682  -11.4896   25.4247 C   0  0  0  0  0  0  0  0  0  0  0  0
    7.9094  -12.6292   24.6797 C   0  0  0  0  0  0  0  0  0  0  0  0
    7.3930  -13.7558   25.2762 C   0  0  0  0  0  0  0  0  0  0  0  0
    9.5438  -16.4443   24.2817 O   0  0  0  0  0  0  0  0  0  0  0  0
    9.3635  -16.1976   25.4998 N   0  0  0  0  0  0  0  0  0  0  0  0
   10.4722  -17.4540   23.9195 C   0  0  1  0  0  0  0  0  0  0  0  0
   11.1850  -18.1941   24.9822 C   0  0  0  0  0  0  0  0  0  0  0  0
   11.5053  -19.5768   24.5370 C   0  0  0  0  0  0  0  0  0  0  0  0
   10.3091  -20.2225   23.9604 O   0  0  0  0  0  0  0  0  0  0  0  0
    9.2717  -20.3119   24.7066 C   0  0  0  0  0  0  0  0  0  0  0  0
   12.3870  -17.3768   25.2940 O   0  0  0  0  0  0  0  0  0  0  0  0
   12.7389  -16.4610   24.5318 O   0  0  0  0  0  0  0  0  0  0  0  0
   10.1930  -20.7443   22.6987 O   0  0  0  0  0  0  0  0  0  0  0  0
  1  2  1  0
  2  4  1  0
  3  2  2  0
  4  5  1  0
  5  6  1  0
  7  6  1  0
  7  8  1  0
  8  9  1  6
 10 11  2  0
 10  8  1  0
 12 10  1  0
 13 12  1  0
 13 24  1  0
 13 14  1  1
 15 14  1  0
 16 15  2  0
 17 18  1  0
 17 16  1  0
 18 23  2  0
 19 20  2  0
 19 18  1  0
 20 21  1  0
 21 22  2  0
 23 15  1  0
 23 22  1  0
 24 26  1  0
 25 24  2  0
 26 27  1  0
 27 31  1  0
 28 29  1  0
 27 28  1  1
 29 30  2  0
 31 32  2  0
 31 34  1  0
 33 29  1  0
M  END
$$$$
