RWD.pdb
     RDKit          3D

 34 35  0  0  1  0  0  0  0  0999 V2000
   14.6569  -17.8236   16.7851 N   0  0  0  0  0  0  0  0  0  0  0  0
   13.5879  -18.5472   16.2122 C   0  0  0  0  0  0  0  0  0  0  0  0
   13.5780  -18.9388   14.9802 N   0  0  0  0  0  0  0  0  0  0  0  0
   12.4730  -18.8413   17.0779 N   0  0  0  0  0  0  0  0  0  0  0  0
   12.5607  -18.4835   18.4845 C   0  0  0  0  0  0  0  0  0  0  0  0
   11.2522  -17.8216   18.8680 C   0  0  0  0  0  0  0  0  0  0  0  0
   11.3179  -17.2265   20.2550 C   0  0  0  0  0  0  0  0  0  0  0  0
    9.9517  -16.6603   20.5978 C   0  0  2  0  0  0  0  0  0  0  0  0
    9.6651  -15.4839   19.7855 N   0  0  0  0  0  0  0  0  0  0  0  0
    9.8763  -16.2433   22.0168 C   0  0  0  0  0  0  0  0  0  0  0  0
   10.5701  -15.2904   22.4153 O   0  0  0  0  0  0  0  0  0  0  0  0
   12.7645  -19.4508   14.6154 N   0  0  0  0  0  0  0  0  0  0  0  0
    9.0322  -16.8875   22.9871 C   0  0  1  0  0  0  0  0  0  0  0  0
    9.0353  -16.5535   24.3696 C   0  0  0  0  0  0  0  0  0  0  0  0
    7.6598  -16.2014   24.8653 C   0  0  0  0  0  0  0  0  0  0  0  0
    7.3037  -14.8242   24.4524 C   0  0  0  0  0  0  0  0  0  0  0  0
    6.9613  -14.4580   23.1407 N   0  0  0  0  0  0  0  0  0  0  0  0
    6.6717  -13.1582   23.1858 C   0  0  0  0  0  0  0  0  0  0  0  0
    6.8098  -12.6867   24.4342 C   0  0  0  0  0  0  0  0  0  0  0  0
    6.6196  -11.4127   24.9274 C   0  0  0  0  0  0  0  0  0  0  0  0
    6.8377  -11.1870   26.2621 C   0  0  0  0  0  0  0  0  0  0  0  0
    7.2377  -12.2016   27.0993 C   0  0  0  0  0  0  0  0  0  0  0  0
    7.4291  -13.4708   26.6183 C   0  0  0  0  0  0  0  0  0  0  0  0
    7.2155  -13.7230   25.2832 C   0  0  0  0  0  0  0  0  0  0  0  0
    9.6884  -17.6137   25.2094 O   0  0  0  0  0  0  0  0  0  0  0  0
    9.0081  -18.5562   25.6847 N   0  0  0  0  0  0  0  0  0  0  0  0
   11.0801  -17.5709   25.4817 C   0  0  2  0  0  0  0  0  0  0  0  0
   11.6961  -18.6619   26.2661 C   0  0  0  0  0  0  0  0  0  0  0  0
   13.1743  -18.6600   26.1001 C   0  0  0  0  0  0  0  0  0  0  0  0
   13.7869  -19.7189   26.9270 O   0  0  0  0  0  0  0  0  0  0  0  0
   14.0256  -19.4420   28.1548 C   0  0  0  0  0  0  0  0  0  0  0  0
   11.2552  -18.4376   27.6679 O   0  0  0  0  0  0  0  0  0  0  0  0
   11.4581  -19.3025   28.5363 O   0  0  0  0  0  0  0  0  0  0  0  0
   14.1333  -20.9784   26.5129 O   0  0  0  0  0  0  0  0  0  0  0  0
  1  2  1  0
  2  4  1  0
  3  2  2  0
  4  5  1  0
  5  6  1  0
  7  6  1  0
  7  8  1  0
  8  9  1  6
 10 11  2  0
 10  8  1  0
 12 10  1  0
 13 12  1  0
 13 24  1  0
 13 14  1  1
 15 14  1  0
 16 15  2  0
 17 18  1  0
 17 16  1  0
 18 23  2  0
 19 20  2  0
 19 18  1  0
 20 21  1  0
 21 22  2  0
 23 15  1  0
 23 22  1  0
 24 26  1  0
 25 24  2  0
 26 27  1  0
 27 31  1  0
 28 29  1  0
 27 28  1  1
 29 30  2  0
 31 32  2  0
 31 34  1  0
 33 29  1  0
M  END
$$$$
