RWD.pdb
     RDKit          3D

 34 35  0  0  1  0  0  0  0  0999 V2000
    9.4648  -13.4512   16.8445 N   0  0  0  0  0  0  0  0  0  0  0  0
    8.1467  -13.7238   17.2720 C   0  0  0  0  0  0  0  0  0  0  0  0
    7.3119  -12.8019   17.6248 N   0  0  0  0  0  0  0  0  0  0  0  0
    7.7542  -15.1109   17.3030 N   0  0  0  0  0  0  0  0  0  0  0  0
    8.3360  -15.9846   18.3094 C   0  0  0  0  0  0  0  0  0  0  0  0
    7.9752  -15.4172   19.6677 C   0  0  0  0  0  0  0  0  0  0  0  0
    9.1881  -15.3065   20.5617 C   0  0  0  0  0  0  0  0  0  0  0  0
    9.3332  -16.6052   21.3341 C   0  0  2  0  0  0  0  0  0  0  0  0
    8.0862  -17.3605   21.3073 N   0  0  0  0  0  0  0  0  0  0  0  0
    9.6667  -16.3582   22.7557 C   0  0  0  0  0  0  0  0  0  0  0  0
   10.6048  -15.5931   23.0431 O   0  0  0  0  0  0  0  0  0  0  0  0
    6.3256  -13.0428   17.7855 N   0  0  0  0  0  0  0  0  0  0  0  0
    8.9580  -16.9632   23.8515 C   0  0  1  0  0  0  0  0  0  0  0  0
    9.2959  -16.7454   25.2158 C   0  0  0  0  0  0  0  0  0  0  0  0
    8.0764  -16.6887   26.0941 C   0  0  0  0  0  0  0  0  0  0  0  0
    7.2288  -15.5332   25.7193 C   0  0  0  0  0  0  0  0  0  0  0  0
    6.0458  -15.6335   24.9693 N   0  0  0  0  0  0  0  0  0  0  0  0
    5.5609  -14.3957   24.8805 C   0  0  0  0  0  0  0  0  0  0  0  0
    6.3587  -13.5289   25.5223 C   0  0  0  0  0  0  0  0  0  0  0  0
    6.2420  -12.1633   25.6775 C   0  0  0  0  0  0  0  0  0  0  0  0
    7.2112  -11.4984   26.3835 C   0  0  0  0  0  0  0  0  0  0  0  0
    8.2804  -12.1689   26.9289 C   0  0  0  0  0  0  0  0  0  0  0  0
    8.4049  -13.5258   26.7800 C   0  0  0  0  0  0  0  0  0  0  0  0
    7.4449  -14.2158   26.0772 C   0  0  0  0  0  0  0  0  0  0  0  0
   10.3110  -17.7333   25.7150 O   0  0  0  0  0  0  0  0  0  0  0  0
   10.5968  -18.7493   25.0343 N   0  0  0  0  0  0  0  0  0  0  0  0
   10.9631  -17.5397   26.9599 C   0  0  1  0  0  0  0  0  0  0  0  0
   11.9168  -18.5611   27.4419 C   0  0  0  0  0  0  0  0  0  0  0  0
   13.3166  -18.0720   27.3237 C   0  0  0  0  0  0  0  0  0  0  0  0
   13.9578  -18.6318   26.1172 O   0  0  0  0  0  0  0  0  0  0  0  0
   13.2380  -19.3709   25.3578 C   0  0  0  0  0  0  0  0  0  0  0  0
   11.5063  -18.8557   28.8399 O   0  0  0  0  0  0  0  0  0  0  0  0
   10.5923  -18.2072   29.3762 O   0  0  0  0  0  0  0  0  0  0  0  0
   15.2567  -18.4439   25.7230 O   0  0  0  0  0  0  0  0  0  0  0  0
  1  2  1  0
  2  4  1  0
  3  2  2  0
  4  5  1  0
  5  6  1  0
  7  6  1  0
  7  8  1  0
  8  9  1  1
 10 11  2  0
 10  8  1  0
 12 10  1  0
 13 12  1  0
 13 24  1  0
 13 14  1  6
 15 14  1  0
 16 15  2  0
 17 18  1  0
 17 16  1  0
 18 23  2  0
 19 20  2  0
 19 18  1  0
 20 21  1  0
 21 22  2  0
 23 15  1  0
 23 22  1  0
 24 26  1  0
 25 24  2  0
 26 27  1  0
 27 31  1  0
 28 29  1  0
 27 28  1  1
 29 30  2  0
 31 32  2  0
 31 34  1  0
 33 29  1  0
M  END
$$$$
