RWD.pdb
     RDKit          3D

 34 35  0  0  1  0  0  0  0  0999 V2000
    7.8818  -12.2319   17.7191 N   0  0  0  0  0  0  0  0  0  0  0  0
    7.8703  -13.3694   16.8822 C   0  0  0  0  0  0  0  0  0  0  0  0
    7.4527  -13.3442   15.6589 N   0  0  0  0  0  0  0  0  0  0  0  0
    8.3549  -14.5983   17.4599 N   0  0  0  0  0  0  0  0  0  0  0  0
    8.6799  -14.6296   18.8770 C   0  0  0  0  0  0  0  0  0  0  0  0
    7.3782  -14.7789   19.6390 C   0  0  0  0  0  0  0  0  0  0  0  0
    7.6038  -14.7473   21.1325 C   0  0  0  0  0  0  0  0  0  0  0  0
    8.4851  -15.9249   21.5082 C   0  0  2  0  0  0  0  0  0  0  0  0
    7.6725  -17.0921   21.8297 N   0  0  0  0  0  0  0  0  0  0  0  0
    9.3145  -15.6256   22.6980 C   0  0  0  0  0  0  0  0  0  0  0  0
   10.1590  -14.7135   22.6451 O   0  0  0  0  0  0  0  0  0  0  0  0
    7.4950  -14.1987   15.0889 N   0  0  0  0  0  0  0  0  0  0  0  0
    9.2033  -16.3418   23.9405 C   0  0  1  0  0  0  0  0  0  0  0  0
    9.9689  -16.0243   25.0964 C   0  0  0  0  0  0  0  0  0  0  0  0
    9.1126  -15.9331   26.3293 C   0  0  0  0  0  0  0  0  0  0  0  0
    7.8892  -15.1476   26.0462 C   0  0  0  0  0  0  0  0  0  0  0  0
    6.6488  -15.7138   25.7106 N   0  0  0  0  0  0  0  0  0  0  0  0
    5.8034  -14.6929   25.5748 C   0  0  0  0  0  0  0  0  0  0  0  0
    6.4295  -13.5282   25.8017 C   0  0  0  0  0  0  0  0  0  0  0  0
    5.9434  -12.2378   25.7649 C   0  0  0  0  0  0  0  0  0  0  0  0
    6.8044  -11.2050   26.0331 C   0  0  0  0  0  0  0  0  0  0  0  0
    8.1255  -11.4395   26.3331 C   0  0  0  0  0  0  0  0  0  0  0  0
    8.6175  -12.7183   26.3722 C   0  0  0  0  0  0  0  0  0  0  0  0
    7.7734  -13.7717   26.1082 C   0  0  0  0  0  0  0  0  0  0  0  0
   11.1336  -16.9544   25.2802 O   0  0  0  0  0  0  0  0  0  0  0  0
   11.7622  -16.9783   26.3672 N   0  0  0  0  0  0  0  0  0  0  0  0
   11.5455  -17.8197   24.2340 C   0  0  1  0  0  0  0  0  0  0  0  0
   12.6859  -18.7328   24.4592 C   0  0  0  0  0  0  0  0  0  0  0  0
   12.3649  -20.1041   23.9808 C   0  0  0  0  0  0  0  0  0  0  0  0
   11.2129  -20.6526   24.7239 O   0  0  0  0  0  0  0  0  0  0  0  0
   11.2696  -20.6214   26.0033 C   0  0  0  0  0  0  0  0  0  0  0  0
   13.8354  -18.1104   23.7513 O   0  0  0  0  0  0  0  0  0  0  0  0
   13.6715  -17.5604   22.6494 O   0  0  0  0  0  0  0  0  0  0  0  0
   10.0794  -21.1999   24.1821 O   0  0  0  0  0  0  0  0  0  0  0  0
  1  2  1  0
  2  4  1  0
  3  2  2  0
  4  5  1  0
  5  6  1  0
  7  6  1  0
  7  8  1  0
  8  9  1  1
 10 11  2  0
 10  8  1  0
 12 10  1  0
 13 12  1  0
 13 24  1  0
 13 14  1  6
 15 14  1  0
 16 15  2  0
 17 18  1  0
 17 16  1  0
 18 23  2  0
 19 20  2  0
 19 18  1  0
 20 21  1  0
 21 22  2  0
 23 15  1  0
 23 22  1  0
 24 26  1  0
 25 24  2  0
 26 27  1  0
 27 31  1  0
 28 29  1  0
 27 28  1  6
 29 30  2  0
 31 32  2  0
 31 34  1  0
 33 29  1  0
M  END
$$$$
