RWD.pdb
     RDKit          3D

 34 35  0  0  1  0  0  0  0  0999 V2000
    9.9438  -20.5921   16.7911 N   0  0  0  0  0  0  0  0  0  0  0  0
   11.2902  -21.0178   16.8074 C   0  0  0  0  0  0  0  0  0  0  0  0
   11.6800  -22.1523   16.3254 N   0  0  0  0  0  0  0  0  0  0  0  0
   12.2438  -20.1136   17.4007 N   0  0  0  0  0  0  0  0  0  0  0  0
   11.9287  -19.4987   18.6803 C   0  0  0  0  0  0  0  0  0  0  0  0
   11.6634  -18.0284   18.4254 C   0  0  0  0  0  0  0  0  0  0  0  0
   11.3967  -17.2824   19.7118 C   0  0  0  0  0  0  0  0  0  0  0  0
    9.9183  -16.9424   19.7699 C   0  0  2  0  0  0  0  0  0  0  0  0
    9.5156  -16.1985   18.5822 N   0  0  0  0  0  0  0  0  0  0  0  0
    9.6000  -16.0995   20.9452 C   0  0  0  0  0  0  0  0  0  0  0  0
   10.1032  -14.9658   21.0431 O   0  0  0  0  0  0  0  0  0  0  0  0
   12.6772  -22.4005   16.3509 N   0  0  0  0  0  0  0  0  0  0  0  0
    8.7257  -16.5202   22.0071 C   0  0  2  0  0  0  0  0  0  0  0  0
    8.4806  -15.7416   23.1719 C   0  0  0  0  0  0  0  0  0  0  0  0
    7.0643  -15.8863   23.6563 C   0  0  0  0  0  0  0  0  0  0  0  0
    6.8737  -15.1292   24.9150 C   0  0  0  0  0  0  0  0  0  0  0  0
    6.6168  -15.7231   26.1612 N   0  0  0  0  0  0  0  0  0  0  0  0
    6.5501  -14.7225   27.0385 C   0  0  0  0  0  0  0  0  0  0  0  0
    6.7469  -13.5447   26.4271 C   0  0  0  0  0  0  0  0  0  0  0  0
    6.7574  -12.2667   26.9459 C   0  0  0  0  0  0  0  0  0  0  0  0
    6.9779  -11.2151   26.0942 C   0  0  0  0  0  0  0  0  0  0  0  0
    7.1848  -11.4192   24.7504 C   0  0  0  0  0  0  0  0  0  0  0  0
    7.1763  -12.6855   24.2257 C   0  0  0  0  0  0  0  0  0  0  0  0
    6.9585  -13.7572   25.0598 C   0  0  0  0  0  0  0  0  0  0  0  0
    9.4833  -16.0109   24.2572 O   0  0  0  0  0  0  0  0  0  0  0  0
    9.4442  -15.3640   25.3329 N   0  0  0  0  0  0  0  0  0  0  0  0
   10.4901  -16.9961   24.0890 C   0  0  1  0  0  0  0  0  0  0  0  0
   11.4828  -17.2048   25.1642 C   0  0  0  0  0  0  0  0  0  0  0  0
   11.5334  -18.6368   25.5635 C   0  0  0  0  0  0  0  0  0  0  0  0
   10.4212  -18.9555   26.4809 O   0  0  0  0  0  0  0  0  0  0  0  0
   10.1293  -18.0864   27.3756 C   0  0  0  0  0  0  0  0  0  0  0  0
   12.7680  -16.6942   24.6192 O   0  0  0  0  0  0  0  0  0  0  0  0
   12.8436  -16.3160   23.4381 O   0  0  0  0  0  0  0  0  0  0  0  0
    9.6632  -20.0971   26.4771 O   0  0  0  0  0  0  0  0  0  0  0  0
  1  2  1  0
  2  4  1  0
  3  2  2  0
  4  5  1  0
  5  6  1  0
  7  6  1  0
  7  8  1  0
  8  9  1  6
 10 11  2  0
 10  8  1  0
 12 10  1  0
 13 12  1  0
 13 24  1  0
 13 14  1  1
 15 14  1  0
 16 15  2  0
 17 18  1  0
 17 16  1  0
 18 23  2  0
 19 20  2  0
 19 18  1  0
 20 21  1  0
 21 22  2  0
 23 15  1  0
 23 22  1  0
 24 26  1  0
 25 24  2  0
 26 27  1  0
 27 31  1  0
 28 29  1  0
 27 28  1  1
 29 30  2  0
 31 32  2  0
 31 34  1  0
 33 29  1  0
M  END
$$$$
