CAE.pdb
     RDKit          3D

 21 20  0  0  1  0  0  0  0  0999 V2000
   26.0558  -16.5419  -17.2299 N   0  0  0  0  0  0  0  0  0  0  0  0
   25.2006  -16.0999  -16.1652 C   0  0  1  0  0  0  0  0  0  0  0  0
   25.7382  -14.8706  -15.4995 C   0  0  0  0  0  0  0  0  0  0  0  0
   27.3243  -15.3156  -14.7115 S   0  0  0  0  0  0  0  0  0  0  0  0
   23.8280  -15.9215  -16.6873 C   0  0  0  0  0  0  0  0  0  0  0  0
   23.6289  -15.3877  -17.8205 O   0  0  0  0  0  0  0  0  0  0  0  0
   20.3885  -17.0204  -15.7995 C   0  0  0  0  0  0  0  0  0  0  0  0
   21.3371  -16.0348  -16.4649 C   0  0  2  0  0  0  0  0  0  0  0  0
   22.6653  -16.3263  -15.9714 N   0  0  0  0  0  0  0  0  0  0  0  0
   20.9338  -14.6372  -16.2259 C   0  0  0  0  0  0  0  0  0  0  0  0
   21.3099  -14.0854  -15.1593 O   0  0  0  0  0  0  0  0  0  0  0  0
   20.1517  -13.8602  -17.1058 N   0  0  0  0  0  0  0  0  0  0  0  0
   19.7118  -12.5049  -16.8450 C   0  0  1  0  0  0  0  0  0  0  0  0
   19.7531  -11.6335  -18.0582 C   0  0  0  0  0  0  0  0  0  0  0  0
   21.0943  -10.9811  -18.2815 C   0  0  0  0  0  0  0  0  0  0  0  0
   21.1396   -9.6269  -17.6721 C   0  0  0  0  0  0  0  0  0  0  0  0
   21.0394   -8.5724  -18.3612 O   0  0  0  0  0  0  0  0  0  0  0  0
   18.4029  -12.4749  -16.1460 C   0  0  0  0  0  0  0  0  0  0  0  0
   17.5617  -13.3983  -16.2816 O   0  0  0  0  0  0  0  0  0  0  0  0
   21.2963   -9.4271  -16.2946 O   0  0  0  0  0  0  0  0  0  0  0  0
   18.0396  -11.4269  -15.3069 O   0  0  0  0  0  0  0  0  0  0  0  0
  2  3  1  0
  2  1  1  6
  4  3  1  0
  5  2  1  0
  6  5  2  0
  8  7  1  1
  8  9  1  0
  9  5  1  0
 10  8  1  0
 10 12  1  0
 11 10  2  0
 13 12  1  0
 13 14  1  6
 13 18  1  0
 15 14  1  0
 16 15  1  0
 17 16  2  0
 18 19  2  0
 18 21  1  0
 20 16  1  0
M  END
$$$$
