CAE.pdb
     RDKit          3D

 21 20  0  0  1  0  0  0  0  0999 V2000
   19.8255  -12.9857  -17.1871 N   0  0  0  0  0  0  0  0  0  0  0  0
   20.5958  -11.9509  -17.8166 C   0  0  1  0  0  0  0  0  0  0  0  0
   19.8135  -11.2539  -18.8869 C   0  0  0  0  0  0  0  0  0  0  0  0
   19.5723  -12.4372  -20.2568 S   0  0  0  0  0  0  0  0  0  0  0  0
   21.1071  -11.0276  -16.7800 C   0  0  0  0  0  0  0  0  0  0  0  0
   20.3234  -10.5120  -15.9263 O   0  0  0  0  0  0  0  0  0  0  0  0
   24.4277   -9.8332  -15.5717 C   0  0  0  0  0  0  0  0  0  0  0  0
   22.9226   -9.6689  -15.7195 C   0  0  2  0  0  0  0  0  0  0  0  0
   22.4796  -10.6632  -16.6722 N   0  0  0  0  0  0  0  0  0  0  0  0
   22.5558   -8.2969  -16.1148 C   0  0  0  0  0  0  0  0  0  0  0  0
   22.6774   -7.9758  -17.3255 O   0  0  0  0  0  0  0  0  0  0  0  0
   22.0744   -7.3042  -15.2358 N   0  0  0  0  0  0  0  0  0  0  0  0
   21.8143   -5.9277  -15.6044 C   0  0  1  0  0  0  0  0  0  0  0  0
   20.4238   -5.4883  -15.2788 C   0  0  0  0  0  0  0  0  0  0  0  0
   20.1272   -4.0730  -15.7069 C   0  0  0  0  0  0  0  0  0  0  0  0
   18.7374   -3.6858  -15.3519 C   0  0  0  0  0  0  0  0  0  0  0  0
   18.2672   -2.5423  -15.6130 O   0  0  0  0  0  0  0  0  0  0  0  0
   22.8568   -5.0102  -15.0806 C   0  0  0  0  0  0  0  0  0  0  0  0
   23.3249   -4.0767  -15.7793 O   0  0  0  0  0  0  0  0  0  0  0  0
   17.8553   -4.5605  -14.7047 O   0  0  0  0  0  0  0  0  0  0  0  0
   23.3686   -5.1348  -13.7935 O   0  0  0  0  0  0  0  0  0  0  0  0
  2  3  1  0
  2  1  1  1
  4  3  1  0
  5  2  1  0
  6  5  2  0
  8  7  1  6
  8  9  1  0
  9  5  1  0
 10  8  1  0
 10 12  1  0
 11 10  2  0
 13 12  1  0
 13 14  1  1
 13 18  1  0
 15 14  1  0
 16 15  1  0
 17 16  2  0
 18 19  2  0
 18 21  1  0
 20 16  1  0
M  END
$$$$
