CAE.pdb
     RDKit          3D

 21 20  0  0  1  0  0  0  0  0999 V2000
   17.5984  -11.8927  -15.4567 N   0  0  0  0  0  0  0  0  0  0  0  0
   18.6230  -11.4211  -16.3444 C   0  0  1  0  0  0  0  0  0  0  0  0
   18.0420  -10.7747  -17.5643 C   0  0  0  0  0  0  0  0  0  0  0  0
   17.3375  -12.0962  -18.6095 S   0  0  0  0  0  0  0  0  0  0  0  0
   19.5391  -10.5303  -15.5988 C   0  0  0  0  0  0  0  0  0  0  0  0
   19.0856   -9.6057  -14.8584 O   0  0  0  0  0  0  0  0  0  0  0  0
   23.2395  -10.2411  -15.0926 C   0  0  0  0  0  0  0  0  0  0  0  0
   21.8203   -9.7050  -14.9810 C   0  0  2  0  0  0  0  0  0  0  0  0
   20.9571  -10.6467  -15.6598 N   0  0  0  0  0  0  0  0  0  0  0  0
   21.7059   -8.3369  -15.5181 C   0  0  0  0  0  0  0  0  0  0  0  0
   21.6872   -8.1899  -16.7678 O   0  0  0  0  0  0  0  0  0  0  0  0
   21.6149   -7.1667  -14.7358 N   0  0  0  0  0  0  0  0  0  0  0  0
   21.4892   -5.8244  -15.2656 C   0  0  1  0  0  0  0  0  0  0  0  0
   20.0919   -5.2989  -15.2006 C   0  0  0  0  0  0  0  0  0  0  0  0
   19.9629   -3.8784  -15.6903 C   0  0  0  0  0  0  0  0  0  0  0  0
   18.5508   -3.4195  -15.6371 C   0  0  0  0  0  0  0  0  0  0  0  0
   17.6196   -4.1493  -15.1932 O   0  0  0  0  0  0  0  0  0  0  0  0
   22.4904   -4.9021  -14.6741 C   0  0  0  0  0  0  0  0  0  0  0  0
   22.8868   -5.0316  -13.4888 O   0  0  0  0  0  0  0  0  0  0  0  0
   18.1562   -2.1487  -16.0747 O   0  0  0  0  0  0  0  0  0  0  0  0
   23.0407   -3.8497  -15.3978 O   0  0  0  0  0  0  0  0  0  0  0  0
  2  3  1  0
  2  1  1  1
  4  3  1  0
  5  2  1  0
  6  5  2  0
  8  7  1  6
  8  9  1  0
  9  5  1  0
 10  8  1  0
 10 12  1  0
 11 10  2  0
 13 12  1  0
 13 14  1  1
 13 18  1  0
 15 14  1  0
 16 15  1  0
 17 16  2  0
 18 19  2  0
 18 21  1  0
 20 16  1  0
M  END
$$$$
