CAE.pdb
     RDKit          3D

 21 20  0  0  1  0  0  0  0  0999 V2000
   18.8751  -13.0369  -15.7297 N   0  0  0  0  0  0  0  0  0  0  0  0
   19.4367  -11.9470  -16.4761 C   0  0  1  0  0  0  0  0  0  0  0  0
   18.6642  -11.6816  -17.7316 C   0  0  0  0  0  0  0  0  0  0  0  0
   17.0007  -11.1044  -17.2472 S   0  0  0  0  0  0  0  0  0  0  0  0
   19.5399  -10.7602  -15.5989 C   0  0  0  0  0  0  0  0  0  0  0  0
   18.6352  -10.5010  -14.7485 O   0  0  0  0  0  0  0  0  0  0  0  0
   22.0374   -8.0749  -14.8897 C   0  0  0  0  0  0  0  0  0  0  0  0
   20.6114   -8.6040  -14.9135 C   0  0  2  0  0  0  0  0  0  0  0  0
   20.6341   -9.8501  -15.6480 N   0  0  0  0  0  0  0  0  0  0  0  0
   19.6706   -7.6228  -15.4840 C   0  0  0  0  0  0  0  0  0  0  0  0
   19.4933   -7.6258  -16.7298 O   0  0  0  0  0  0  0  0  0  0  0  0
   18.9455   -6.6704  -14.7379 N   0  0  0  0  0  0  0  0  0  0  0  0
   18.0649   -5.6700  -15.3056 C   0  0  1  0  0  0  0  0  0  0  0  0
   16.7335   -5.6122  -14.6298 C   0  0  0  0  0  0  0  0  0  0  0  0
   15.8261   -4.5432  -15.1848 C   0  0  0  0  0  0  0  0  0  0  0  0
   14.4344   -4.7132  -14.6931 C   0  0  0  0  0  0  0  0  0  0  0  0
   13.4732   -4.0211  -15.1334 O   0  0  0  0  0  0  0  0  0  0  0  0
   18.7281   -4.3462  -15.4084 C   0  0  0  0  0  0  0  0  0  0  0  0
   19.6101   -3.9853  -14.5896 O   0  0  0  0  0  0  0  0  0  0  0  0
   14.0937   -5.6507  -13.7096 O   0  0  0  0  0  0  0  0  0  0  0  0
   18.4094   -3.4386  -16.4129 O   0  0  0  0  0  0  0  0  0  0  0  0
  2  3  1  0
  2  1  1  1
  4  3  1  0
  5  2  1  0
  6  5  2  0
  8  7  1  6
  8  9  1  0
  9  5  1  0
 10  8  1  0
 10 12  1  0
 11 10  2  0
 13 12  1  0
 13 14  1  1
 13 18  1  0
 15 14  1  0
 16 15  1  0
 17 16  2  0
 18 19  2  0
 18 21  1  0
 20 16  1  0
M  END
$$$$
