CAE.pdb
     RDKit          3D

 21 20  0  0  1  0  0  0  0  0999 V2000
   16.9376  -10.5361  -16.8413 N   0  0  0  0  0  0  0  0  0  0  0  0
   18.2387  -10.1801  -17.3317 C   0  0  1  0  0  0  0  0  0  0  0  0
   18.1538   -9.4082  -18.6125 C   0  0  0  0  0  0  0  0  0  0  0  0
   17.7243  -10.5850  -19.9413 S   0  0  0  0  0  0  0  0  0  0  0  0
   18.9772   -9.4604  -16.2708 C   0  0  0  0  0  0  0  0  0  0  0  0
   18.3801   -8.6481  -15.5012 O   0  0  0  0  0  0  0  0  0  0  0  0
   22.4180   -9.6032  -14.8155 C   0  0  0  0  0  0  0  0  0  0  0  0
   21.0446   -8.9632  -14.9497 C   0  0  2  0  0  0  0  0  0  0  0  0
   20.3738   -9.6259  -16.0467 N   0  0  0  0  0  0  0  0  0  0  0  0
   21.1343   -7.5033  -15.1343 C   0  0  0  0  0  0  0  0  0  0  0  0
   21.4011   -7.0660  -16.2837 O   0  0  0  0  0  0  0  0  0  0  0  0
   20.9432   -6.5468  -14.1153 N   0  0  0  0  0  0  0  0  0  0  0  0
   21.1350   -5.1197  -14.2730 C   0  0  1  0  0  0  0  0  0  0  0  0
   19.8735   -4.3378  -14.0996 C   0  0  0  0  0  0  0  0  0  0  0  0
   18.8985   -4.5142  -15.2365 C   0  0  0  0  0  0  0  0  0  0  0  0
   17.6633   -3.7198  -15.0114 C   0  0  0  0  0  0  0  0  0  0  0  0
   16.7588   -4.0898  -14.2103 O   0  0  0  0  0  0  0  0  0  0  0  0
   22.2549   -4.6183  -13.4381 C   0  0  0  0  0  0  0  0  0  0  0  0
   22.7502   -3.4773  -13.6157 O   0  0  0  0  0  0  0  0  0  0  0  0
   17.4178   -2.5085  -15.6706 O   0  0  0  0  0  0  0  0  0  0  0  0
   22.8132   -5.3820  -12.4186 O   0  0  0  0  0  0  0  0  0  0  0  0
  2  3  1  0
  2  1  1  1
  4  3  1  0
  5  2  1  0
  6  5  2  0
  8  7  1  6
  8  9  1  0
  9  5  1  0
 10  8  1  0
 10 12  1  0
 11 10  2  0
 13 12  1  0
 13 14  1  1
 13 18  1  0
 15 14  1  0
 16 15  1  0
 17 16  2  0
 18 19  2  0
 18 21  1  0
 20 16  1  0
M  END
$$$$
