CAE.pdb
     RDKit          3D

 21 20  0  0  1  0  0  0  0  0999 V2000
   14.4897  -12.8776  -12.7435 N   0  0  0  0  0  0  0  0  0  0  0  0
   15.2912  -12.4612  -11.6279 C   0  0  1  0  0  0  0  0  0  0  0  0
   16.6988  -12.9603  -11.7427 C   0  0  0  0  0  0  0  0  0  0  0  0
   17.5338  -12.6343  -10.1517 S   0  0  0  0  0  0  0  0  0  0  0  0
   15.2085  -10.9903  -11.4928 C   0  0  0  0  0  0  0  0  0  0  0  0
   15.4263  -10.2339  -12.4874 O   0  0  0  0  0  0  0  0  0  0  0  0
   13.8067   -8.5728   -9.0811 C   0  0  0  0  0  0  0  0  0  0  0  0
   14.8085   -8.8975  -10.1789 C   0  0  2  0  0  0  0  0  0  0  0  0
   14.8870  -10.3391  -10.2678 N   0  0  0  0  0  0  0  0  0  0  0  0
   16.1187   -8.2692   -9.9304 C   0  0  0  0  0  0  0  0  0  0  0  0
   16.9086   -8.8394   -9.1338 O   0  0  0  0  0  0  0  0  0  0  0  0
   16.5633   -7.0673  -10.5199 N   0  0  0  0  0  0  0  0  0  0  0  0
   17.8327   -6.4280  -10.2402 C   0  0  1  0  0  0  0  0  0  0  0  0
   18.8638   -6.6923  -11.2889 C   0  0  0  0  0  0  0  0  0  0  0  0
   20.1500   -5.9366  -11.0680 C   0  0  0  0  0  0  0  0  0  0  0  0
   21.1093   -6.1760  -12.1770 C   0  0  0  0  0  0  0  0  0  0  0  0
   21.1646   -7.2759  -12.7967 O   0  0  0  0  0  0  0  0  0  0  0  0
   17.6675   -4.9858   -9.9309 C   0  0  0  0  0  0  0  0  0  0  0  0
   16.7227   -4.3121  -10.4129 O   0  0  0  0  0  0  0  0  0  0  0  0
   22.0162   -5.2004  -12.6104 O   0  0  0  0  0  0  0  0  0  0  0  0
   18.5464   -4.3063   -9.0941 O   0  0  0  0  0  0  0  0  0  0  0  0
  2  3  1  0
  2  1  1  6
  4  3  1  0
  5  2  1  0
  6  5  2  0
  8  7  1  1
  8  9  1  0
  9  5  1  0
 10  8  1  0
 10 12  1  0
 11 10  2  0
 13 12  1  0
 13 14  1  6
 13 18  1  0
 15 14  1  0
 16 15  1  0
 17 16  2  0
 18 19  2  0
 18 21  1  0
 20 16  1  0
M  END
$$$$
