CAE.pdb
     RDKit          3D

 21 20  0  0  1  0  0  0  0  0999 V2000
   26.7309  -15.7848  -17.2393 N   0  0  0  0  0  0  0  0  0  0  0  0
   26.6054  -16.0666  -15.8374 C   0  0  1  0  0  0  0  0  0  0  0  0
   25.5702  -15.1988  -15.1904 C   0  0  0  0  0  0  0  0  0  0  0  0
   26.2924  -13.5341  -14.9846 S   0  0  0  0  0  0  0  0  0  0  0  0
   26.3454  -17.5114  -15.6541 C   0  0  0  0  0  0  0  0  0  0  0  0
   25.5562  -18.1323  -16.4289 O   0  0  0  0  0  0  0  0  0  0  0  0
   27.5256  -20.2319  -13.3682 C   0  0  0  0  0  0  0  0  0  0  0  0
   26.5282  -19.6430  -14.3543 C   0  0  2  0  0  0  0  0  0  0  0  0
   26.9480  -18.2847  -14.6212 N   0  0  0  0  0  0  0  0  0  0  0  0
   25.1449  -19.7241  -13.8513 C   0  0  0  0  0  0  0  0  0  0  0  0
   24.7223  -18.7881  -13.1240 O   0  0  0  0  0  0  0  0  0  0  0  0
   24.2470  -20.7777  -14.1224 N   0  0  0  0  0  0  0  0  0  0  0  0
   22.8877  -20.8548  -13.6278 C   0  0  1  0  0  0  0  0  0  0  0  0
   22.0393  -19.7064  -14.0686 C   0  0  0  0  0  0  0  0  0  0  0  0
   20.6537  -19.7224  -13.4738 C   0  0  0  0  0  0  0  0  0  0  0  0
   19.8196  -18.6253  -14.0287 C   0  0  0  0  0  0  0  0  0  0  0  0
   20.2893  -17.7466  -14.8060 O   0  0  0  0  0  0  0  0  0  0  0  0
   22.2741  -22.1774  -13.9056 C   0  0  0  0  0  0  0  0  0  0  0  0
   22.7506  -22.9573  -14.7678 O   0  0  0  0  0  0  0  0  0  0  0  0
   18.4580  -18.4904  -13.7285 O   0  0  0  0  0  0  0  0  0  0  0  0
   21.1434  -22.6218  -13.2285 O   0  0  0  0  0  0  0  0  0  0  0  0
  2  3  1  0
  2  1  1  6
  4  3  1  0
  5  2  1  0
  6  5  2  0
  8  7  1  1
  8  9  1  0
  9  5  1  0
 10  8  1  0
 10 12  1  0
 11 10  2  0
 13 12  1  0
 13 14  1  6
 13 18  1  0
 15 14  1  0
 16 15  1  0
 17 16  2  0
 18 19  2  0
 18 21  1  0
 20 16  1  0
M  END
$$$$
