CAE.pdb
     RDKit          3D

 21 20  0  0  1  0  0  0  0  0999 V2000
   23.8653  -12.7405  -18.9051 N   0  0  0  0  0  0  0  0  0  0  0  0
   22.5883  -12.2970  -18.4224 C   0  0  1  0  0  0  0  0  0  0  0  0
   21.6865  -13.4505  -18.1068 C   0  0  0  0  0  0  0  0  0  0  0  0
   21.9314  -14.7157  -19.4007 S   0  0  0  0  0  0  0  0  0  0  0  0
   22.7926  -11.3909  -17.2709 C   0  0  0  0  0  0  0  0  0  0  0  0
   21.8030  -10.9041  -16.6445 O   0  0  0  0  0  0  0  0  0  0  0  0
   25.7241  -10.0299  -15.3730 C   0  0  0  0  0  0  0  0  0  0  0  0
   24.2394  -10.0852  -15.6997 C   0  0  2  0  0  0  0  0  0  0  0  0
   24.0818  -11.0124  -16.7989 N   0  0  0  0  0  0  0  0  0  0  0  0
   23.6922   -8.7492  -15.9976 C   0  0  0  0  0  0  0  0  0  0  0  0
   23.9473   -8.2404  -17.1199 O   0  0  0  0  0  0  0  0  0  0  0  0
   22.8972   -7.9868  -15.1164 N   0  0  0  0  0  0  0  0  0  0  0  0
   22.3441   -6.6826  -15.4186 C   0  0  1  0  0  0  0  0  0  0  0  0
   20.9930   -6.7534  -16.0529 C   0  0  0  0  0  0  0  0  0  0  0  0
   20.4170   -5.4006  -16.3880 C   0  0  0  0  0  0  0  0  0  0  0  0
   19.0422   -5.5247  -16.9374 C   0  0  0  0  0  0  0  0  0  0  0  0
   18.4492   -6.6368  -17.0289 O   0  0  0  0  0  0  0  0  0  0  0  0
   22.3934   -5.7771  -14.2437 C   0  0  0  0  0  0  0  0  0  0  0  0
   22.3710   -6.2203  -13.0683 O   0  0  0  0  0  0  0  0  0  0  0  0
   18.3109   -4.4192  -17.3905 O   0  0  0  0  0  0  0  0  0  0  0  0
   22.4667   -4.3950  -14.3813 O   0  0  0  0  0  0  0  0  0  0  0  0
  2  3  1  0
  2  1  1  1
  4  3  1  0
  5  2  1  0
  6  5  2  0
  8  7  1  6
  8  9  1  0
  9  5  1  0
 10  8  1  0
 10 12  1  0
 11 10  2  0
 13 12  1  0
 13 14  1  1
 13 18  1  0
 15 14  1  0
 16 15  1  0
 17 16  2  0
 18 19  2  0
 18 21  1  0
 20 16  1  0
M  END
$$$$
