CAE.pdb
     RDKit          3D

 21 20  0  0  1  0  0  0  0  0999 V2000
   22.6702  -12.4569  -17.9810 N   0  0  0  0  0  0  0  0  0  0  0  0
   23.0626  -11.8656  -16.7333 C   0  0  1  0  0  0  0  0  0  0  0  0
   24.5199  -11.5200  -16.7202 C   0  0  0  0  0  0  0  0  0  0  0  0
   25.4456  -13.0377  -16.3023 S   0  0  0  0  0  0  0  0  0  0  0  0
   22.1904  -10.7045  -16.4509 C   0  0  0  0  0  0  0  0  0  0  0  0
   21.8701   -9.8940  -17.3724 O   0  0  0  0  0  0  0  0  0  0  0  0
   20.0498   -9.5756  -13.6183 C   0  0  0  0  0  0  0  0  0  0  0  0
   20.7650   -9.3128  -14.9349 C   0  0  2  0  0  0  0  0  0  0  0  0
   21.6641  -10.4239  -15.1577 N   0  0  0  0  0  0  0  0  0  0  0  0
   21.4565   -8.0108  -14.9342 C   0  0  0  0  0  0  0  0  0  0  0  0
   22.6893   -7.9941  -14.6820 O   0  0  0  0  0  0  0  0  0  0  0  0
   20.8411   -6.7690  -15.1963 N   0  0  0  0  0  0  0  0  0  0  0  0
   21.5295   -5.4949  -15.2313 C   0  0  1  0  0  0  0  0  0  0  0  0
   20.7917   -4.4531  -16.0079 C   0  0  0  0  0  0  0  0  0  0  0  0
   20.5843   -4.8203  -17.4558 C   0  0  0  0  0  0  0  0  0  0  0  0
   19.8334   -3.7594  -18.1755 C   0  0  0  0  0  0  0  0  0  0  0  0
   19.3837   -2.7342  -17.5893 O   0  0  0  0  0  0  0  0  0  0  0  0
   21.9243   -5.0440  -13.8735 C   0  0  0  0  0  0  0  0  0  0  0  0
   21.2640   -5.3655  -12.8540 O   0  0  0  0  0  0  0  0  0  0  0  0
   19.5732   -3.8233  -19.5503 O   0  0  0  0  0  0  0  0  0  0  0  0
   23.0420   -4.2446  -13.6586 O   0  0  0  0  0  0  0  0  0  0  0  0
  2  3  1  0
  2  1  1  6
  4  3  1  0
  5  2  1  0
  6  5  2  0
  8  7  1  1
  8  9  1  0
  9  5  1  0
 10  8  1  0
 10 12  1  0
 11 10  2  0
 13 12  1  0
 13 14  1  1
 13 18  1  0
 15 14  1  0
 16 15  1  0
 17 16  2  0
 18 19  2  0
 18 21  1  0
 20 16  1  0
M  END
$$$$
