CAE.pdb
     RDKit          3D

 21 20  0  0  1  0  0  0  0  0999 V2000
   23.6025  -15.8137  -16.7253 N   0  0  0  0  0  0  0  0  0  0  0  0
   24.3253  -14.7856  -17.4188 C   0  0  1  0  0  0  0  0  0  0  0  0
   23.7933  -14.5745  -18.8030 C   0  0  0  0  0  0  0  0  0  0  0  0
   24.1385  -16.0872  -19.7661 S   0  0  0  0  0  0  0  0  0  0  0  0
   24.3181  -13.5520  -16.6022 C   0  0  0  0  0  0  0  0  0  0  0  0
   23.2670  -13.1798  -15.9978 O   0  0  0  0  0  0  0  0  0  0  0  0
   26.8159  -10.9406  -15.6059 C   0  0  0  0  0  0  0  0  0  0  0  0
   25.4003  -11.4929  -15.6772 C   0  0  2  0  0  0  0  0  0  0  0  0
   25.4619  -12.7186  -16.4429 N   0  0  0  0  0  0  0  0  0  0  0  0
   24.4561  -10.5130  -16.2442 C   0  0  0  0  0  0  0  0  0  0  0  0
   24.3936  -10.4054  -17.4964 O   0  0  0  0  0  0  0  0  0  0  0  0
   23.6079   -9.6772  -15.4880 N   0  0  0  0  0  0  0  0  0  0  0  0
   22.6895   -8.7064  -16.0470 C   0  0  1  0  0  0  0  0  0  0  0  0
   21.4652   -8.5122  -15.2126 C   0  0  0  0  0  0  0  0  0  0  0  0
   20.4523   -7.5886  -15.8413 C   0  0  0  0  0  0  0  0  0  0  0  0
   19.2318   -7.4802  -15.0011 C   0  0  0  0  0  0  0  0  0  0  0  0
   19.1084   -8.0988  -13.9061 O   0  0  0  0  0  0  0  0  0  0  0  0
   23.3731   -7.4344  -16.3898 C   0  0  0  0  0  0  0  0  0  0  0  0
   22.8742   -6.6159  -17.2021 O   0  0  0  0  0  0  0  0  0  0  0  0
   18.1366   -6.6862  -15.3648 O   0  0  0  0  0  0  0  0  0  0  0  0
   24.5976   -7.0825  -15.8321 O   0  0  0  0  0  0  0  0  0  0  0  0
  2  3  1  0
  2  1  1  1
  4  3  1  0
  5  2  1  0
  6  5  2  0
  8  7  1  6
  8  9  1  0
  9  5  1  0
 10  8  1  0
 10 12  1  0
 11 10  2  0
 13 12  1  0
 13 14  1  1
 13 18  1  0
 15 14  1  0
 16 15  1  0
 17 16  2  0
 18 19  2  0
 18 21  1  0
 20 16  1  0
M  END
$$$$
