DSS.pdb
     RDKit          3D

 21 20  0  0  1  0  0  0  0  0999 V2000
   16.5658   -9.9445  -12.4074 N   0  0  0  0  0  0  0  0  0  0  0  0
   17.0592   -9.5024  -13.6825 C   0  0  1  0  0  0  0  0  0  0  0  0
   15.8830   -9.5068  -14.6401 C   0  0  0  0  0  0  0  0  0  0  0  0
   15.4857  -10.9097  -14.8486 C   0  0  0  0  0  0  0  0  0  0  0  0
   16.3053  -11.7285  -15.2992 O   0  0  0  0  0  0  0  0  0  0  0  0
   17.7198   -8.1740  -13.6264 C   0  0  0  0  0  0  0  0  0  0  0  0
   17.1210   -7.2667  -13.0024 O   0  0  0  0  0  0  0  0  0  0  0  0
   14.2085  -11.3163  -14.5457 O   0  0  0  0  0  0  0  0  0  0  0  0
   21.8474   -7.3531  -13.4773 O   0  0  0  0  0  0  0  0  0  0  0  0
   21.1198   -6.7744  -14.5027 C   0  0  0  0  0  0  0  0  0  0  0  0
   19.6560   -6.6393  -14.2406 C   0  0  2  0  0  0  0  0  0  0  0  0
   18.9710   -7.9088  -14.2392 N   0  0  0  0  0  0  0  0  0  0  0  0
   18.9775   -5.6310  -15.0832 C   0  0  0  0  0  0  0  0  0  0  0  0
   18.7290   -5.8706  -16.2925 O   0  0  0  0  0  0  0  0  0  0  0  0
   16.9239   -2.5144  -13.4802 O   0  0  0  0  0  0  0  0  0  0  0  0
   16.5850   -3.0134  -14.7321 C   0  0  0  0  0  0  0  0  0  0  0  0
   17.8522   -3.4283  -15.4942 C   0  0  2  0  0  0  0  0  0  0  0  0
   18.5588   -4.3524  -14.6286 N   0  0  0  0  0  0  0  0  0  0  0  0
   18.7065   -2.2372  -15.6909 C   0  0  0  0  0  0  0  0  0  0  0  0
   19.9707   -2.0968  -15.1264 O   0  0  0  0  0  0  0  0  0  0  0  0
   18.3053   -1.2788  -16.3988 O   0  0  0  0  0  0  0  0  0  0  0  0
  2  1  1  1
  2  3  1  0
  3  4  1  0
  4  8  1  0
  5  4  2  0
  6  2  1  0
  7  6  2  0
 11 10  1  6
 10  9  1  0
 11 13  1  0
 11 12  1  0
 12  6  1  0
 13 14  2  0
 16 15  1  0
 17 16  1  1
 18 17  1  0
 18 13  1  0
 19 20  1  0
 19 17  1  0
 21 19  2  0
M  END
$$$$
