DSS.pdb
     RDKit          3D

 21 20  0  0  1  0  0  0  0  0999 V2000
   17.5377  -10.4694  -16.9427 N   0  0  0  0  0  0  0  0  0  0  0  0
   17.3452   -9.7673  -15.7039 C   0  0  1  0  0  0  0  0  0  0  0  0
   17.9595  -10.6194  -14.6099 C   0  0  0  0  0  0  0  0  0  0  0  0
   17.1372  -11.8344  -14.4791 C   0  0  0  0  0  0  0  0  0  0  0  0
   17.6682  -12.9562  -14.5496 O   0  0  0  0  0  0  0  0  0  0  0  0
   17.9088   -8.3939  -15.7153 C   0  0  0  0  0  0  0  0  0  0  0  0
   19.0799   -8.2630  -16.1427 O   0  0  0  0  0  0  0  0  0  0  0  0
   15.7817  -11.7306  -14.2790 O   0  0  0  0  0  0  0  0  0  0  0  0
   15.9223   -4.9926  -13.8211 O   0  0  0  0  0  0  0  0  0  0  0  0
   16.5983   -4.8989  -15.0251 C   0  0  0  0  0  0  0  0  0  0  0  0
   17.6826   -5.9067  -15.2210 C   0  0  2  0  0  0  0  0  0  0  0  0
   17.1835   -7.2592  -15.2706 N   0  0  0  0  0  0  0  0  0  0  0  0
   18.8256   -5.7588  -14.2944 C   0  0  0  0  0  0  0  0  0  0  0  0
   18.7934   -6.2805  -13.1506 O   0  0  0  0  0  0  0  0  0  0  0  0
   22.6052   -5.3064  -15.4607 O   0  0  0  0  0  0  0  0  0  0  0  0
   22.2591   -5.7631  -14.1947 C   0  0  0  0  0  0  0  0  0  0  0  0
   21.0977   -4.9294  -13.6336 C   0  0  2  0  0  0  0  0  0  0  0  0
   20.0171   -5.0462  -14.5933 N   0  0  0  0  0  0  0  0  0  0  0  0
   21.5094   -3.5102  -13.5745 C   0  0  0  0  0  0  0  0  0  0  0  0
   20.9889   -2.5240  -14.4071 O   0  0  0  0  0  0  0  0  0  0  0  0
   22.3731   -3.1344  -12.7418 O   0  0  0  0  0  0  0  0  0  0  0  0
  2  1  1  6
  2  3  1  0
  3  4  1  0
  4  8  1  0
  5  4  2  0
  6  2  1  0
  7  6  2  0
 11 10  1  1
 10  9  1  0
 11 13  1  0
 11 12  1  0
 12  6  1  0
 13 14  2  0
 16 15  1  0
 17 16  1  6
 18 17  1  0
 18 13  1  0
 19 20  1  0
 19 17  1  0
 21 19  2  0
M  END
$$$$
