DSS.pdb
     RDKit          3D

 21 20  0  0  1  0  0  0  0  0999 V2000
   17.7318  -12.3109  -16.0030 N   0  0  0  0  0  0  0  0  0  0  0  0
   18.1515  -11.0752  -16.6044 C   0  0  1  0  0  0  0  0  0  0  0  0
   16.8978  -10.2691  -16.8851 C   0  0  0  0  0  0  0  0  0  0  0  0
   16.2285  -10.8795  -18.0466 C   0  0  0  0  0  0  0  0  0  0  0  0
   15.2026  -11.5630  -17.8858 O   0  0  0  0  0  0  0  0  0  0  0  0
   19.1194  -10.3175  -15.7717 C   0  0  0  0  0  0  0  0  0  0  0  0
   18.7886  -10.0841  -14.5854 O   0  0  0  0  0  0  0  0  0  0  0  0
   16.7364  -10.6949  -19.3100 O   0  0  0  0  0  0  0  0  0  0  0  0
   23.0384  -10.9007  -15.2497 O   0  0  0  0  0  0  0  0  0  0  0  0
   22.7530   -9.6487  -15.7659 C   0  0  0  0  0  0  0  0  0  0  0  0
   21.3686   -9.1562  -15.5002 C   0  0  2  0  0  0  0  0  0  0  0  0
   20.3698   -9.8638  -16.2634 N   0  0  0  0  0  0  0  0  0  0  0  0
   21.2167   -7.6882  -15.5928 C   0  0  0  0  0  0  0  0  0  0  0  0
   21.0300   -7.1333  -16.7059 O   0  0  0  0  0  0  0  0  0  0  0  0
   19.5845   -3.6191  -14.0898 O   0  0  0  0  0  0  0  0  0  0  0  0
   19.7683   -4.9956  -14.0386 C   0  0  0  0  0  0  0  0  0  0  0  0
   21.1289   -5.3680  -14.6460 C   0  0  2  0  0  0  0  0  0  0  0  0
   21.2639   -6.8025  -14.4837 N   0  0  0  0  0  0  0  0  0  0  0  0
   22.1998   -4.7134  -13.8639 C   0  0  0  0  0  0  0  0  0  0  0  0
   22.7134   -3.4560  -14.1668 O   0  0  0  0  0  0  0  0  0  0  0  0
   22.6993   -5.2910  -12.8651 O   0  0  0  0  0  0  0  0  0  0  0  0
  2  1  1  1
  2  3  1  0
  3  4  1  0
  4  8  1  0
  5  4  2  0
  6  2  1  0
  7  6  2  0
 11 10  1  6
 10  9  1  0
 11 13  1  0
 11 12  1  0
 12  6  1  0
 13 14  2  0
 16 15  1  0
 17 16  1  1
 18 17  1  0
 18 13  1  0
 19 20  1  0
 19 17  1  0
 21 19  2  0
M  END
$$$$
