DSS.pdb
     RDKit          3D

 21 20  0  0  1  0  0  0  0  0999 V2000
   17.9087  -12.4577  -16.3566 N   0  0  0  0  0  0  0  0  0  0  0  0
   17.4249  -11.1907  -15.8818 C   0  0  1  0  0  0  0  0  0  0  0  0
   17.0189  -11.3843  -14.4333 C   0  0  0  0  0  0  0  0  0  0  0  0
   15.7689  -12.1634  -14.4232 C   0  0  0  0  0  0  0  0  0  0  0  0
   15.4500  -12.8156  -13.4141 O   0  0  0  0  0  0  0  0  0  0  0  0
   18.4115  -10.0920  -16.0358 C   0  0  0  0  0  0  0  0  0  0  0  0
   19.4769  -10.1883  -15.3823 O   0  0  0  0  0  0  0  0  0  0  0  0
   14.9529  -12.1712  -15.5287 O   0  0  0  0  0  0  0  0  0  0  0  0
   19.6432   -6.0320  -18.5739 O   0  0  0  0  0  0  0  0  0  0  0  0
   18.7605   -7.0591  -18.2885 C   0  0  0  0  0  0  0  0  0  0  0  0
   19.1243   -7.8944  -17.1054 C   0  0  2  0  0  0  0  0  0  0  0  0
   18.1915   -8.9704  -16.8753 N   0  0  0  0  0  0  0  0  0  0  0  0
   19.4091   -7.1201  -15.8782 C   0  0  0  0  0  0  0  0  0  0  0  0
   18.4820   -6.8133  -15.0858 O   0  0  0  0  0  0  0  0  0  0  0  0
   22.6982   -5.1581  -12.8786 O   0  0  0  0  0  0  0  0  0  0  0  0
   22.4005   -5.9559  -13.9768 C   0  0  0  0  0  0  0  0  0  0  0  0
   20.9025   -5.8646  -14.3032 C   0  0  2  0  0  0  0  0  0  0  0  0
   20.6992   -6.6688  -15.4924 N   0  0  0  0  0  0  0  0  0  0  0  0
   20.5669   -4.4625  -14.6327 C   0  0  0  0  0  0  0  0  0  0  0  0
   20.8949   -3.8581  -15.8426 O   0  0  0  0  0  0  0  0  0  0  0  0
   19.9532   -3.7452  -13.8024 O   0  0  0  0  0  0  0  0  0  0  0  0
  2  1  1  1
  2  3  1  0
  3  4  1  0
  4  8  1  0
  5  4  2  0
  6  2  1  0
  7  6  2  0
 11 10  1  6
 10  9  1  0
 11 13  1  0
 11 12  1  0
 12  6  1  0
 13 14  2  0
 16 15  1  0
 17 16  1  6
 18 17  1  0
 18 13  1  0
 19 20  1  0
 19 17  1  0
 21 19  2  0
M  END
$$$$
