DSS.pdb
     RDKit          3D

 21 20  0  0  1  0  0  0  0  0999 V2000
   16.5903   -9.7510  -13.6133 N   0  0  0  0  0  0  0  0  0  0  0  0
   17.3332   -9.0646  -14.6340 C   0  0  1  0  0  0  0  0  0  0  0  0
   16.3233   -8.3736  -15.5302 C   0  0  0  0  0  0  0  0  0  0  0  0
   15.5267   -9.4213  -16.1915 C   0  0  0  0  0  0  0  0  0  0  0  0
   16.0947  -10.3409  -16.8055 O   0  0  0  0  0  0  0  0  0  0  0  0
   18.3317   -8.1101  -14.0900 C   0  0  0  0  0  0  0  0  0  0  0  0
   17.9200   -7.2698  -13.2559 O   0  0  0  0  0  0  0  0  0  0  0  0
   14.1544   -9.3846  -16.1312 O   0  0  0  0  0  0  0  0  0  0  0  0
   22.2377   -8.6486  -12.9024 O   0  0  0  0  0  0  0  0  0  0  0  0
   22.0600   -7.7703  -13.9571 C   0  0  0  0  0  0  0  0  0  0  0  0
   20.6969   -7.1686  -14.0555 C   0  0  2  0  0  0  0  0  0  0  0  0
   19.6969   -8.1203  -14.4739 N   0  0  0  0  0  0  0  0  0  0  0  0
   20.6413   -5.9111  -14.8317 C   0  0  0  0  0  0  0  0  0  0  0  0
   20.4173   -5.9325  -16.0690 O   0  0  0  0  0  0  0  0  0  0  0  0
   20.2673   -1.0989  -14.9348 O   0  0  0  0  0  0  0  0  0  0  0  0
   20.2424   -2.3012  -14.2383 C   0  0  0  0  0  0  0  0  0  0  0  0
   20.8236   -3.4257  -15.1082 C   0  0  2  0  0  0  0  0  0  0  0  0
   20.8263   -4.6157  -14.2798 N   0  0  0  0  0  0  0  0  0  0  0  0
   22.2253   -3.0966  -15.4458 C   0  0  0  0  0  0  0  0  0  0  0  0
   22.5957   -2.3951  -16.5892 O   0  0  0  0  0  0  0  0  0  0  0  0
   23.1611   -3.4519  -14.6852 O   0  0  0  0  0  0  0  0  0  0  0  0
  2  1  1  1
  2  3  1  0
  3  4  1  0
  4  8  1  0
  5  4  2  0
  6  2  1  0
  7  6  2  0
 11 10  1  6
 10  9  1  0
 11 13  1  0
 11 12  1  0
 12  6  1  0
 13 14  2  0
 16 15  1  0
 17 16  1  1
 18 17  1  0
 18 13  1  0
 19 20  1  0
 19 17  1  0
 21 19  2  0
M  END
$$$$
