DSS.pdb
     RDKit          3D

 21 20  0  0  1  0  0  0  0  0999 V2000
   17.1798  -11.7427  -15.5437 N   0  0  0  0  0  0  0  0  0  0  0  0
   16.9631  -10.3286  -15.4083 C   0  0  1  0  0  0  0  0  0  0  0  0
   15.5267  -10.0582  -15.8131 C   0  0  0  0  0  0  0  0  0  0  0  0
   15.4160  -10.3202  -17.2583 C   0  0  0  0  0  0  0  0  0  0  0  0
   14.3624  -10.7833  -17.7282 O   0  0  0  0  0  0  0  0  0  0  0  0
   17.2574   -9.8188  -14.0453 C   0  0  0  0  0  0  0  0  0  0  0  0
   16.6323  -10.3441  -13.0943 O   0  0  0  0  0  0  0  0  0  0  0  0
   16.4768  -10.0535  -18.0901 O   0  0  0  0  0  0  0  0  0  0  0  0
   20.9371   -8.3717  -12.6408 O   0  0  0  0  0  0  0  0  0  0  0  0
   19.8402   -7.5430  -12.4805 C   0  0  0  0  0  0  0  0  0  0  0  0
   18.5172   -8.2350  -12.5007 C   0  0  2  0  0  0  0  0  0  0  0  0
   18.1966   -8.7863  -13.7946 N   0  0  0  0  0  0  0  0  0  0  0  0
   17.4064   -7.4410  -11.9329 C   0  0  0  0  0  0  0  0  0  0  0  0
   16.8895   -6.5022  -12.5910 O   0  0  0  0  0  0  0  0  0  0  0  0
   15.3291   -8.7635   -8.8289 O   0  0  0  0  0  0  0  0  0  0  0  0
   14.7231   -7.7405   -9.5483 C   0  0  0  0  0  0  0  0  0  0  0  0
   15.7906   -6.7994  -10.1260 C   0  0  2  0  0  0  0  0  0  0  0  0
   16.8406   -7.6525  -10.6476 N   0  0  0  0  0  0  0  0  0  0  0  0
   16.3599   -5.9871   -9.0290 C   0  0  0  0  0  0  0  0  0  0  0  0
   15.6172   -5.0791   -8.2803 O   0  0  0  0  0  0  0  0  0  0  0  0
   17.5754   -6.0934   -8.7260 O   0  0  0  0  0  0  0  0  0  0  0  0
  2  1  1  1
  2  3  1  0
  3  4  1  0
  4  8  1  0
  5  4  2  0
  6  2  1  0
  7  6  2  0
 11 10  1  6
 10  9  1  0
 11 13  1  0
 11 12  1  0
 12  6  1  0
 13 14  2  0
 16 15  1  0
 17 16  1  1
 18 17  1  0
 18 13  1  0
 19 20  1  0
 19 17  1  0
 21 19  2  0
M  END
$$$$
