DSS.pdb
     RDKit          3D

 21 20  0  0  1  0  0  0  0  0999 V2000
   16.5714  -11.2193  -14.9863 N   0  0  0  0  0  0  0  0  0  0  0  0
   16.7018   -9.8977  -15.5350 C   0  0  1  0  0  0  0  0  0  0  0  0
   15.7243   -9.0087  -14.7903 C   0  0  0  0  0  0  0  0  0  0  0  0
   14.3645   -9.4334  -15.1644 C   0  0  0  0  0  0  0  0  0  0  0  0
   14.1071   -9.7298  -16.3439 O   0  0  0  0  0  0  0  0  0  0  0  0
   18.0880   -9.3701  -15.4686 C   0  0  0  0  0  0  0  0  0  0  0  0
   18.6425   -9.3675  -14.3445 O   0  0  0  0  0  0  0  0  0  0  0  0
   13.3776   -9.5028  -14.2107 O   0  0  0  0  0  0  0  0  0  0  0  0
   21.0007   -9.6458  -18.4955 O   0  0  0  0  0  0  0  0  0  0  0  0
   20.7441   -8.3884  -17.9772 C   0  0  0  0  0  0  0  0  0  0  0  0
   20.1344   -8.3793  -16.6141 C   0  0  2  0  0  0  0  0  0  0  0  0
   18.7829   -8.8836  -16.6051 N   0  0  0  0  0  0  0  0  0  0  0  0
   20.2628   -7.0916  -15.8986 C   0  0  0  0  0  0  0  0  0  0  0  0
   19.3548   -6.2246  -15.9740 O   0  0  0  0  0  0  0  0  0  0  0  0
   21.4313   -6.6325  -12.2303 O   0  0  0  0  0  0  0  0  0  0  0  0
   22.1718   -5.7872  -13.0478 C   0  0  0  0  0  0  0  0  0  0  0  0
   21.3939   -5.4879  -14.3378 C   0  0  2  0  0  0  0  0  0  0  0  0
   21.3733   -6.7257  -15.0926 N   0  0  0  0  0  0  0  0  0  0  0  0
   22.1379   -4.4810  -15.1252 C   0  0  0  0  0  0  0  0  0  0  0  0
   22.6910   -4.7393  -16.3758 O   0  0  0  0  0  0  0  0  0  0  0  0
   22.3013   -3.3185  -14.6755 O   0  0  0  0  0  0  0  0  0  0  0  0
  2  1  1  1
  2  3  1  0
  3  4  1  0
  4  8  1  0
  5  4  2  0
  6  2  1  0
  7  6  2  0
 11 10  1  6
 10  9  1  0
 11 13  1  0
 11 12  1  0
 12  6  1  0
 13 14  2  0
 16 15  1  0
 17 16  1  1
 18 17  1  0
 18 13  1  0
 19 20  1  0
 19 17  1  0
 21 19  2  0
M  END
$$$$
