DSS.pdb
     RDKit          3D

 21 20  0  0  1  0  0  0  0  0999 V2000
   19.0765  -11.7172  -17.5101 N   0  0  0  0  0  0  0  0  0  0  0  0
   20.1765  -10.8020  -17.3793 C   0  0  1  0  0  0  0  0  0  0  0  0
   20.6092  -10.4236  -18.7829 C   0  0  0  0  0  0  0  0  0  0  0  0
   21.2383  -11.6098  -19.3884 C   0  0  0  0  0  0  0  0  0  0  0  0
   22.3084  -12.0481  -18.9322 O   0  0  0  0  0  0  0  0  0  0  0  0
   19.8499   -9.6066  -16.5617 C   0  0  0  0  0  0  0  0  0  0  0  0
   18.8435   -8.9417  -16.9028 O   0  0  0  0  0  0  0  0  0  0  0  0
   20.6441  -12.2342  -20.4585 O   0  0  0  0  0  0  0  0  0  0  0  0
   21.8554   -8.7173  -12.8149 O   0  0  0  0  0  0  0  0  0  0  0  0
   20.5732   -8.3267  -13.1597 C   0  0  0  0  0  0  0  0  0  0  0  0
   20.3657   -8.0520  -14.6127 C   0  0  2  0  0  0  0  0  0  0  0  0
   20.6193   -9.2064  -15.4396 N   0  0  0  0  0  0  0  0  0  0  0  0
   21.0532   -6.8396  -15.1071 C   0  0  0  0  0  0  0  0  0  0  0  0
   22.1809   -6.9233  -15.6574 O   0  0  0  0  0  0  0  0  0  0  0  0
   20.8934   -2.0507  -15.9760 O   0  0  0  0  0  0  0  0  0  0  0  0
   20.2728   -3.2000  -15.5016 C   0  0  0  0  0  0  0  0  0  0  0  0
   21.2645   -4.3728  -15.5034 C   0  0  2  0  0  0  0  0  0  0  0  0
   20.5299   -5.5228  -15.0133 N   0  0  0  0  0  0  0  0  0  0  0  0
   22.3549   -4.0817  -14.5477 C   0  0  0  0  0  0  0  0  0  0  0  0
   23.5777   -3.5324  -14.9215 O   0  0  0  0  0  0  0  0  0  0  0  0
   22.2087   -4.3295  -13.3239 O   0  0  0  0  0  0  0  0  0  0  0  0
  2  1  1  6
  2  3  1  0
  3  4  1  0
  4  8  1  0
  5  4  2  0
  6  2  1  0
  7  6  2  0
 11 10  1  1
 10  9  1  0
 11 13  1  0
 11 12  1  0
 12  6  1  0
 13 14  2  0
 16 15  1  0
 17 16  1  1
 18 17  1  0
 18 13  1  0
 19 20  1  0
 19 17  1  0
 21 19  2  0
M  END
$$$$
