DSS.pdb
     RDKit          3D

 21 20  0  0  1  0  0  0  0  0999 V2000
   18.0644  -12.1813  -16.8376 N   0  0  0  0  0  0  0  0  0  0  0  0
   18.5991  -10.9599  -17.3736 C   0  0  1  0  0  0  0  0  0  0  0  0
   17.4271  -10.1568  -17.9044 C   0  0  0  0  0  0  0  0  0  0  0  0
   16.9337  -10.8379  -19.1136 C   0  0  0  0  0  0  0  0  0  0  0  0
   15.7395  -11.1736  -19.1957 O   0  0  0  0  0  0  0  0  0  0  0  0
   19.3960  -10.1870  -16.3878 C   0  0  0  0  0  0  0  0  0  0  0  0
   18.8667   -9.9714  -15.2722 O   0  0  0  0  0  0  0  0  0  0  0  0
   17.7919  -11.1037  -20.1533 O   0  0  0  0  0  0  0  0  0  0  0  0
   23.7868   -8.9971  -14.7653 O   0  0  0  0  0  0  0  0  0  0  0  0
   22.9380   -9.5830  -15.6883 C   0  0  0  0  0  0  0  0  0  0  0  0
   21.5573   -9.0156  -15.7262 C   0  0  2  0  0  0  0  0  0  0  0  0
   20.6993   -9.7001  -16.6622 N   0  0  0  0  0  0  0  0  0  0  0  0
   21.5074   -7.5460  -15.8830 C   0  0  0  0  0  0  0  0  0  0  0  0
   21.7013   -7.0157  -17.0067 O   0  0  0  0  0  0  0  0  0  0  0  0
   19.0296   -5.0461  -15.7352 O   0  0  0  0  0  0  0  0  0  0  0  0
   19.9085   -4.6573  -14.7314 C   0  0  0  0  0  0  0  0  0  0  0  0
   21.3158   -5.1975  -15.0256 C   0  0  2  0  0  0  0  0  0  0  0  0
   21.2465   -6.6322  -14.8276 N   0  0  0  0  0  0  0  0  0  0  0  0
   22.2613   -4.6412  -14.0338 C   0  0  0  0  0  0  0  0  0  0  0  0
   22.6424   -3.3031  -14.0022 O   0  0  0  0  0  0  0  0  0  0  0  0
   22.7700   -5.3840  -13.1562 O   0  0  0  0  0  0  0  0  0  0  0  0
  2  1  1  1
  2  3  1  0
  3  4  1  0
  4  8  1  0
  5  4  2  0
  6  2  1  0
  7  6  2  0
 11 10  1  6
 10  9  1  0
 11 13  1  0
 11 12  1  0
 12  6  1  0
 13 14  2  0
 16 15  1  0
 17 16  1  1
 18 17  1  0
 18 13  1  0
 19 20  1  0
 19 17  1  0
 21 19  2  0
M  END
$$$$
