DSS.pdb
     RDKit          3D

 21 20  0  0  1  0  0  0  0  0999 V2000
   17.7946   -8.7430  -16.2393 N   0  0  0  0  0  0  0  0  0  0  0  0
   18.8568   -8.0244  -16.8875 C   0  0  1  0  0  0  0  0  0  0  0  0
   18.3682   -7.6676  -18.2783 C   0  0  0  0  0  0  0  0  0  0  0  0
   18.2604   -8.9202  -19.0457 C   0  0  0  0  0  0  0  0  0  0  0  0
   17.3326   -9.0745  -19.8585 O   0  0  0  0  0  0  0  0  0  0  0  0
   19.2975   -6.8241  -16.1329 C   0  0  0  0  0  0  0  0  0  0  0  0
   18.4312   -5.9485  -15.9004 O   0  0  0  0  0  0  0  0  0  0  0  0
   19.1847   -9.9208  -18.8648 O   0  0  0  0  0  0  0  0  0  0  0  0
   22.9014   -4.7279  -13.4911 O   0  0  0  0  0  0  0  0  0  0  0  0
   22.4016   -5.7833  -14.2340 C   0  0  0  0  0  0  0  0  0  0  0  0
   21.1254   -5.4997  -14.9555 C   0  0  2  0  0  0  0  0  0  0  0  0
   20.6295   -6.6439  -15.6806 N   0  0  0  0  0  0  0  0  0  0  0  0
   21.1531   -4.2741  -15.7825 C   0  0  0  0  0  0  0  0  0  0  0  0
   21.3315   -4.3450  -17.0254 O   0  0  0  0  0  0  0  0  0  0  0  0
   19.9401   -2.1773  -18.3122 O   0  0  0  0  0  0  0  0  0  0  0  0
   19.6299   -1.9700  -16.9735 C   0  0  0  0  0  0  0  0  0  0  0  0
   20.9183   -1.8055  -16.1539 C   0  0  2  0  0  0  0  0  0  0  0  0
   20.9878   -2.9576  -15.2763 N   0  0  0  0  0  0  0  0  0  0  0  0
   20.8025   -0.5936  -15.3143 C   0  0  0  0  0  0  0  0  0  0  0  0
   20.8864    0.7009  -15.8181 O   0  0  0  0  0  0  0  0  0  0  0  0
   20.6184   -0.6958  -14.0749 O   0  0  0  0  0  0  0  0  0  0  0  0
  2  1  1  1
  2  3  1  0
  3  4  1  0
  4  8  1  0
  5  4  2  0
  6  2  1  0
  7  6  2  0
 11 10  1  6
 10  9  1  0
 11 13  1  0
 11 12  1  0
 12  6  1  0
 13 14  2  0
 16 15  1  0
 17 16  1  6
 18 17  1  0
 18 13  1  0
 19 20  1  0
 19 17  1  0
 21 19  2  0
M  END
$$$$
