VWK.pdb
     RDKit          3D

 31 32  0  0  1  0  0  0  0  0999 V2000
    6.3978  -13.5969   19.5068 C   0  0  0  0  0  0  0  0  0  0  0  0
    7.4010  -13.6380   20.6260 C   0  0  2  0  0  0  0  0  0  0  0  0
    8.4976  -12.6146   20.4555 C   0  0  0  0  0  0  0  0  0  0  0  0
    7.9980  -15.0135   20.7808 C   0  0  2  0  0  0  0  0  0  0  0  0
    6.9732  -16.0008   20.9134 N   0  0  0  0  0  0  0  0  0  0  0  0
    8.9367  -15.0575   21.9356 C   0  0  0  0  0  0  0  0  0  0  0  0
    9.9212  -14.2817   22.0312 O   0  0  0  0  0  0  0  0  0  0  0  0
    8.7072  -16.0081   22.9568 N   0  0  0  0  0  0  0  0  0  0  0  0
    9.6021  -16.0403   24.1432 C   0  0  1  0  0  0  0  0  0  0  0  0
    8.7007  -16.1525   25.3104 C   0  0  0  0  0  0  0  0  0  0  0  0
    7.6744  -15.1300   25.5025 C   0  0  0  0  0  0  0  0  0  0  0  0
    6.2920  -15.2548   25.3311 C   0  0  0  0  0  0  0  0  0  0  0  0
    5.7365  -14.0680   25.6142 N   0  0  0  0  0  0  0  0  0  0  0  0
    6.6848  -13.1772   25.9612 C   0  0  0  0  0  0  0  0  0  0  0  0
    6.6859  -11.8558   26.3513 C   0  0  0  0  0  0  0  0  0  0  0  0
    7.8420  -11.1649   26.6749 C   0  0  0  0  0  0  0  0  0  0  0  0
    9.0515  -11.8349   26.6026 C   0  0  0  0  0  0  0  0  0  0  0  0
    9.0783  -13.1396   26.2204 C   0  0  0  0  0  0  0  0  0  0  0  0
    7.9083  -13.8281   25.8959 C   0  0  0  0  0  0  0  0  0  0  0  0
   10.6606  -17.0110   23.9641 C   0  0  0  0  0  0  0  0  0  0  0  0
   10.3348  -18.1668   23.5224 O   0  0  0  0  0  0  0  0  0  0  0  0
   12.0171  -16.7374   24.2424 N   0  0  0  0  0  0  0  0  0  0  0  0
   12.9867  -17.8671   23.9310 C   0  0  1  0  0  0  0  0  0  0  0  0
   14.2375  -17.1255   23.5469 C   0  0  0  0  0  0  0  0  0  0  0  0
   15.5059  -17.8059   23.2924 C   0  0  0  0  0  0  0  0  0  0  0  0
   16.7006  -16.9933   23.0045 C   0  0  0  0  0  0  0  0  0  0  0  0
   17.9443  -17.8886   22.8134 C   0  0  0  0  0  0  0  0  0  0  0  0
   19.0419  -17.1361   22.2815 N   0  0  0  0  0  0  0  0  0  0  0  0
   13.0497  -18.5815   25.2130 C   0  0  0  0  0  0  0  0  0  0  0  0
   12.6558  -18.1140   26.3030 O   0  0  0  0  0  0  0  0  0  0  0  0
   13.5747  -19.8828   25.2819 O   0  0  0  0  0  0  0  0  0  0  0  0
  2  1  1  6
  2  3  1  0
  4  2  1  0
  4  5  1  1
  6  4  1  0
  6  7  2  0
  8  6  1  0
  9  8  1  0
  9 10  1  1
 10 11  1  0
 11 19  1  0
 11 12  2  0
 12 13  1  0
 14 15  2  0
 14 13  1  0
 16 15  1  0
 17 16  2  0
 18 17  1  0
 18 19  2  0
 19 14  1  0
 20  9  1  0
 21 20  2  0
 22 20  1  0
 23 24  1  1
 23 22  1  0
 24 25  1  0
 25 26  1  0
 26 27  1  0
 27 28  1  0
 29 23  1  0
 30 29  2  0
 31 29  1  0
M  END
$$$$
